data_PCOD9554285
_publ_section_title
;
Structure prediction by ZEFSAII (Michael W. Deem and Ramdas Pophale) SiO2 
 PCOD9554285
Probable space group: I 41 M D
;
_chemical_formula_sum "Si O2"
_cell_formula_units_Z 68
_cell_length_a 18.182589
_cell_length_b 18.182589
_cell_length_c 9.991117
_cell_angle_alpha 90.000000
_cell_angle_beta 90.000000
_cell_angle_gamma 90.000000
_cell_volume 3303.128650
_symmetry_space_group_name_H-M "I 41 M D"
_symmetry_group_IT_number 109
_symmetry_cell_setting 'tetragonal'
loop_
_space_group_symop_operation_xyz
x,y,z
-y,1/2+x,1/4+z
-x,-y,z
y,1/2-x,1/4+z
-x,y,z
x,-y,z
-y,1/2-x,1/4+z
y,1/2+x,1/4+z
1/2+x,1/2+y,1/2+z
1/2-y,x,3/4+z
1/2-x,1/2-y,1/2+z
1/2+y,-x,3/4+z
1/2-x,1/2+y,1/2+z
1/2+x,1/2-y,1/2+z
1/2-y,-x,3/4+z
1/2+y,x,3/4+z
loop_
_atom_site_type_symbol
_atom_site_label
_atom_site_fract_x
_atom_site_fract_y
_atom_site_fract_z
Si Si1 0.281799 0.079322 0.914390
Si Si2 0.368357 0.224326 0.937254
Si Si3 0.628803 0.217049 0.231165
Si Si4 0.888835 0.635463 0.999103
Si Si5 0.000000 0.000000 0.786289
O O1 0.333639 0.148551 0.885746
O O2 0.205957 0.088689 0.835762
O O3 0.315310 0.000000 0.883087
O O4 0.261083 0.084133 0.071619
O O5 0.304623 0.284829 0.965503
O O6 0.403914 0.209426 0.081964
O O7 0.621578 0.301870 0.271365
O O8 0.600654 0.161856 0.344596
O O9 0.936331 0.564870 0.031504
#
# Coordination Sequence:
#
# PCOD9554285 Si02
#       5
#    16  16  16  16   4
#     4  11  20  36  59  86 123 150 191 244 300 349
#     4   9  19  39  63  96 112 140 205 261 287 350
#     4   9  19  40  71  85 108 152 213 252 292 339
#     4  11  21  41  59  90 117 163 197 252 291 360
#     4  12  28  40  48  86 144 152 200 242 296 364
#
# _framework density 20.586542000000001
#
# number of rings (size 3 to 8) (size 9 to 14) (size 15 to 20)
#    0.000    1.882    1.176    5.647    0.000    0.941 
#   27.529    0.000    0.000    1.412    0.000    0.000 
#    0.000    0.000    0.000    0.000    0.000    0.000 
#
# Total GULP energy -189318.131619 kJ/mol
# GULP energy per Si atom -5568.180342 kJ/mol
# Density = 2.053969 g / cm^3
# Si number density = 20.586542 Si / 1000 Ang^3
#
#
#
# Elastic Constant Matrix: (Units=GPa)
#
#
# Indices 1 2 3 4 5 6 
#
# 1 81.6523 28.7360 -28.4623 0.0000 0.0000 0.0000
# 2 28.7360 81.6523 -28.4623 0.0000 0.0000 0.0000
# 3 -28.4623 -28.4623 46.8368 0.0000 0.0000 0.0000
# 4 0.0000 0.0000 0.0000 -3.4031 0.0000 0.0000
# 5 0.0000 0.0000 0.0000 0.0000 -3.4031 0.0000
# 6 0.0000 0.0000 0.0000 0.0000 0.0000 10.1094
#
#
#
# Elastic Compliance Matrix: (Units=1/GPa)
#
#
# Indices 1 2 3 4 5 6 
#
# 1 0.016046 -0.002852 0.008017 0.000000 0.000000 0.000000
# 2 -0.002852 0.016046 0.008017 0.000000 0.000000 0.000000
# 3 0.008017 0.008017 0.031095 0.000000 0.000000 0.000000
# 4 0.000000 0.000000 0.000000 -0.293852 0.000000 0.000000
# 5 0.000000 0.000000 0.000000 0.000000 -0.293852 0.000000
# 6 0.000000 0.000000 0.000000 0.000000 0.000000 0.098917
#
#
# Mechanical properties :
#
#
# Convention : Reuss Voigt Hill
#
# Bulk Modulus (GPa) = 11.16675 17.08493 14.12584
# Shear Modulus (GPa) = -11.84508 16.54933 2.35213
#
# Velocity S-wave (km/s) = -2.40131 2.83837 1.07006
# Velocity P-wave (km/s) = 1.50077 4.36565 2.89884
#
# Compressibility (1/GPa) = 0.08955154
#
# Stress axis : x y z
#
# Youngs Moduli (GPa) = 62.32260 62.32260 32.15950
#
# Poissons Ratio (x) = 0.17776 -0.25784
# Poissons Ratio (y) = 0.17776 -0.25784
# Poissons Ratio (z) = -0.49967 -0.49967
#
# Static dielectric constant tensor:
#      x y z
#    x 1.735520 0.000000 0.000000 
#    y 0.000000 1.735520 0.000000 
#    z 0.000000 0.000000 1.824350 
# 
# From -- ./inp_files/1889.got.cif
#   From: 2010.05.17/outbox.cif.g08.bks.cpg/sg109_1_cif.got.tgz:1889.got - 2010.05.20 10:51:12.
