data_PCOD9554310
_publ_section_title
;
Structure prediction by ZEFSAII (Michael W. Deem and Ramdas Pophale) SiO2 
 PCOD9554310
Probable space group: I 41 M D
;
_chemical_formula_sum "Si O2"
_cell_formula_units_Z 96
_cell_length_a 23.676205
_cell_length_b 23.676205
_cell_length_c 8.751357
_cell_angle_alpha 90.000000
_cell_angle_beta 90.000000
_cell_angle_gamma 90.000000
_cell_volume 4905.684162
_symmetry_space_group_name_H-M "I 41 M D"
_symmetry_group_IT_number 109
_symmetry_cell_setting 'tetragonal'
loop_
_space_group_symop_operation_xyz
x,y,z
-y,1/2+x,1/4+z
-x,-y,z
y,1/2-x,1/4+z
-x,y,z
x,-y,z
-y,1/2-x,1/4+z
y,1/2+x,1/4+z
1/2+x,1/2+y,1/2+z
1/2-y,x,3/4+z
1/2-x,1/2-y,1/2+z
1/2+y,-x,3/4+z
1/2-x,1/2+y,1/2+z
1/2+x,1/2-y,1/2+z
1/2-y,-x,3/4+z
1/2+y,x,3/4+z
loop_
_atom_site_type_symbol
_atom_site_label
_atom_site_fract_x
_atom_site_fract_y
_atom_site_fract_z
Si Si1 0.356818 0.737298 0.163900
Si Si2 0.660963 0.567049 0.450691
Si Si3 0.657148 0.157148 0.953449
Si Si4 0.660963 0.067049 0.206208
Si Si5 0.434087 0.065913 0.453450
Si Si6 0.262702 0.356818 0.242999
O O1 0.305442 0.694558 0.203449
O O2 0.383289 0.750000 0.328449
O O3 0.336301 0.793632 0.078958
O O4 0.402608 0.709272 0.054268
O O5 0.668095 0.500000 0.464442
O O6 0.659911 0.598437 0.612421
O O7 0.604762 0.578958 0.349434
O O8 0.709272 0.597392 0.352631
O O9 0.706368 0.163699 0.827940
O O10 0.659911 0.098437 0.044478
O O11 0.604762 0.078958 0.307465
O O12 0.668095 0.000000 0.192457
O O13 0.500000 0.074550 0.415910
O O14 0.425450 0.000000 0.490989
#
# Coordination Sequence:
#
# PCOD9554310 Si02
#       6
#    16  16  16  16  16  16
#     4  12  25  41  66  95 126 169 217 263 316 381
#     4  11  24  43  65  96 133 169 212 268 326 376
#     4  12  26  40  63  95 131 168 214 261 320 384
#     4  11  24  43  65  96 133 169 212 268 326 376
#     4   9  18  38  67  94 127 174 224 265 310 377
#     4  12  25  41  66  95 126 169 217 263 316 381
#
# _framework density 19.569136
#
# number of rings (size 3 to 8) (size 9 to 14) (size 15 to 20)
#    0.000    0.833    5.000    1.000    2.333    4.667 
#    0.000    0.000    0.000    0.000    0.000    0.000 
#    0.000    0.000    0.000    0.000    0.000    0.000 
#
# Total GULP energy -268335.527139 kJ/mol
# GULP energy per Si atom -5590.323482 kJ/mol
# Density = 1.952460 g / cm^3
# Si number density = 19.569136 Si / 1000 Ang^3
#
#
#
# Elastic Constant Matrix: (Units=GPa)
#
#
# Indices 1 2 3 4 5 6 
#
# 1 80.2107 44.9622 39.2812 0.0000 0.0000 0.0000
# 2 44.9622 80.2107 39.2812 0.0000 0.0000 0.0000
# 3 39.2812 39.2812 122.8223 0.0000 0.0000 0.0000
# 4 0.0000 0.0000 0.0000 15.9021 0.0000 0.0000
# 5 0.0000 0.0000 0.0000 0.0000 15.9021 0.0000
# 6 0.0000 0.0000 0.0000 0.0000 0.0000 20.9876
#
#
#
# Elastic Compliance Matrix: (Units=1/GPa)
#
#
# Indices 1 2 3 4 5 6 
#
# 1 0.019183 -0.009187 -0.003197 0.000000 0.000000 0.000000
# 2 -0.009187 0.019183 -0.003197 0.000000 0.000000 0.000000
# 3 -0.003197 -0.003197 0.010187 0.000000 0.000000 0.000000
# 4 0.000000 0.000000 0.000000 0.062885 0.000000 0.000000
# 5 0.000000 0.000000 0.000000 0.000000 0.062885 0.000000
# 6 0.000000 0.000000 0.000000 0.000000 0.000000 0.047647
#
#
# Mechanical properties :
#
#
# Convention : Reuss Voigt Hill
#
# Bulk Modulus (GPa) = 57.50314 58.92145 58.21230
# Shear Modulus (GPa) = 19.31049 21.20632 20.25841
#
# Velocity S-wave (km/s) = 3.14472 3.29547 3.22098
# Velocity P-wave (km/s) = 6.52948 6.68243 6.60640
#
# Compressibility (1/GPa) = 0.01739035
#
# Stress axis : x y z
#
# Youngs Moduli (GPa) = 52.13049 52.13049 98.16821
#
# Poissons Ratio (x) = 0.47894 0.31382
# Poissons Ratio (y) = 0.47894 0.31382
# Poissons Ratio (z) = 0.16665 0.16665
#
# Static dielectric constant tensor:
#      x y z
#    x 1.694410 0.000000 0.000000 
#    y 0.000000 1.694410 0.000000 
#    z 0.000000 0.000000 1.675190 
# 
# From -- ./inp_files/1436.got.cif
#   From: 2010.05.17/outbox.cif.g08.bks.cpg/sg109_1_cif.got.tgz:1436.got - 2010.05.20 10:51:12.
