data_PCOD9554793
_publ_section_title
;
Structure prediction by ZEFSAII (Michael W. Deem and Ramdas Pophale) SiO2 
 PCOD9554793
Probable space group: P -4 2 M 
;
_chemical_formula_sum "Si O2"
_cell_formula_units_Z 40
_cell_length_a 11.693807
_cell_length_b 11.693807
_cell_length_c 15.676778
_cell_angle_alpha 90.000000
_cell_angle_beta 90.000000
_cell_angle_gamma 90.000000
_cell_volume 2143.722923
_symmetry_space_group_name_H-M "P -4 2 M "
_symmetry_group_IT_number 111
_symmetry_cell_setting 'tetragonal'
loop_
_space_group_symop_operation_xyz
x,y,z
y,-x,-z
-x,-y,z
-y,x,-z
x,-y,-z
-x,y,-z
-y,-x,z
y,x,z
loop_
_atom_site_type_symbol
_atom_site_label
_atom_site_fract_x
_atom_site_fract_y
_atom_site_fract_z
Si Si1 0.106401 0.286004 0.604897
Si Si2 0.314033 0.873585 0.000017
Si Si3 0.547093 0.266731 0.306727
Si Si4 0.506441 0.129305 0.853681
Si Si5 0.843717 0.659775 0.410883
O O1 0.155096 0.155096 0.601553
O O2 0.177625 0.351021 0.675913
O O3 0.144280 0.341052 0.513826
O O4 0.973799 0.315663 0.618000
O O5 0.221764 0.778237 0.011626
O O6 0.380624 0.860050 0.910869
O O7 0.404999 0.866844 0.076933
O O8 0.262947 0.000000 0.000000
O O9 0.608005 0.391995 0.314783
O O10 0.501835 0.231312 0.213852
O O11 0.447718 0.225815 0.372427
O O12 0.500000 0.000000 0.814798
O O13 0.769346 0.769346 0.387336
#
# Coordination Sequence:
#
# PCOD9554793 Si02
#       5
#     8   8   8   8   8
#     4   9  19  35  55  77 100 135 181 225 271 319
#     4   9  18  33  53  77 103 130 164 209 262 314
#     4  11  21  33  53  78 105 141 182 218 256 311
#     4   9  18  33  53  74  99 137 178 213 250 300
#     4  10  20  34  52  76 108 139 171 220 275 325
#
# _framework density 18.659127999999999
#
# number of rings (size 3 to 8) (size 9 to 14) (size 15 to 20)
#    0.000    2.400    0.000    4.200    0.000    3.400 
#    0.000    2.000    0.000   13.200    0.000    5.600 
#    0.000    0.000    0.000    0.000    0.000    0.000 
#
# Total GULP energy -222680.735023 kJ/mol
# GULP energy per Si atom -5567.018376 kJ/mol
# Density = 1.861666 g / cm^3
# Si number density = 18.659128 Si / 1000 Ang^3
#
#
#
# Elastic Constant Matrix: (Units=GPa)
#
#
# Indices 1 2 3 4 5 6 
#
# 1 79.3509 63.9170 23.6682 0.0000 0.0000 0.0000
# 2 63.9170 79.3540 23.6695 0.0000 0.0000 0.0000
# 3 23.6682 23.6695 39.9506 0.0000 0.0000 0.0000
# 4 0.0000 0.0000 0.0000 10.4437 0.0000 0.0000
# 5 0.0000 0.0000 0.0000 0.0000 10.4431 0.0000
# 6 0.0000 0.0000 0.0000 0.0000 0.0000 26.2930
#
#
#
# Elastic Compliance Matrix: (Units=1/GPa)
#
#
# Indices 1 2 3 4 5 6 
#
# 1 0.036733 -0.028054 -0.005141 0.000000 0.000000 0.000000
# 2 -0.028054 0.036732 -0.005143 0.000000 0.000000 0.000000
# 3 -0.005141 -0.005143 0.031123 0.000000 0.000000 0.000000
# 4 0.000000 0.000000 0.000000 0.095752 0.000000 0.000000
# 5 0.000000 0.000000 0.000000 0.000000 0.095757 0.000000
# 6 0.000000 0.000000 0.000000 0.000000 0.000000 0.038033
#
#
# Mechanical properties :
#
#
# Convention : Reuss Voigt Hill
#
# Bulk Modulus (GPa) = 35.82442 46.79608 41.31025
# Shear Modulus (GPa) = 11.90168 15.26267 13.58217
#
# Velocity S-wave (km/s) = 2.52830 2.86313 2.70091
# Velocity P-wave (km/s) = 5.26917 6.00532 5.64925
#
# Compressibility (1/GPa) = 0.02791392
#
# Stress axis : x y z
#
# Youngs Moduli (GPa) = 27.22363 27.22430 32.13017
#
# Poissons Ratio (x) = 0.76374 0.16518
# Poissons Ratio (y) = 0.76372 0.16523
# Poissons Ratio (z) = 0.13996 0.14000
#
# Static dielectric constant tensor:
#      x y z
#    x 1.664070 0.000000 0.000000 
#    y 0.000000 1.664070 0.000000 
#    z 0.000000 0.000000 1.671570 
# 
# From -- ./inp_files/3173.got.cif
#   From: 2010.05.17/outbox.cif.g08.bks.cpg/sg111_2_cif.got.tgz:3173.got - 2010.05.20 10:56:05.
