data_PCOD9554656
_publ_section_title
;
Structure prediction by ZEFSAII (Michael W. Deem and Ramdas Pophale) SiO2 
 PCOD9554656
Probable space group: P -4 2 M 
;
_chemical_formula_sum "Si O2"
_cell_formula_units_Z 56
_cell_length_a 12.188924
_cell_length_b 12.188924
_cell_length_c 26.395436
_cell_angle_alpha 90.000000
_cell_angle_beta 90.000000
_cell_angle_gamma 90.000000
_cell_volume 3921.566450
_symmetry_space_group_name_H-M "P -4 2 M "
_symmetry_group_IT_number 111
_symmetry_cell_setting 'tetragonal'
loop_
_space_group_symop_operation_xyz
x,y,z
y,-x,-z
-x,-y,z
-y,x,-z
x,-y,-z
-x,y,-z
-y,-x,z
y,x,z
loop_
_atom_site_type_symbol
_atom_site_label
_atom_site_fract_x
_atom_site_fract_y
_atom_site_fract_z
Si Si1 0.858634 0.323503 0.051978
Si Si2 0.686597 0.128426 0.500013
Si Si3 0.127593 0.484954 0.133269
Si Si4 0.316736 0.499940 0.333835
Si Si5 0.712235 0.891237 0.061632
Si Si6 0.499970 0.316763 0.785407
Si Si7 0.127942 0.500014 0.415930
O O1 0.762034 0.237967 0.062042
O O2 0.849984 0.427729 0.088323
O O3 0.978335 0.271663 0.062283
O O4 0.861116 0.347107 0.991714
O O5 0.787107 0.212894 0.500007
O O6 0.606663 0.145285 0.548398
O O7 0.606634 0.145277 0.451637
O O8 0.720750 0.000000 0.500000
O O9 0.140089 0.365987 0.107844
O O10 0.211963 0.500826 0.178680
O O11 0.000000 0.500000 0.148323
O O12 0.394230 0.605771 0.343083
O O13 0.394399 0.394399 0.343423
O O14 0.288005 0.499444 0.274214
O O15 0.212272 0.500081 0.369921
O O16 0.824069 0.824069 0.062470
O O17 0.605909 0.394092 0.795055
O O18 0.394472 0.394472 0.794629
O O19 0.000000 0.500000 0.400280
#
# Coordination Sequence:
#
# PCOD9554656 Si02
#       7
#     8   8   8   8   8   8   8
#     4   9  17  28  42  60  81 105 132 162 197 237
#     4   9  17  28  42  62  87 115 144 170 200 237
#     4  10  18  28  43  61  82 106 132 164 200 239
#     4   9  17  29  45  63  82 106 136 170 207 244
#     4   9  17  28  42  60  81 105 132 162 197 237
#     4   9  18  31  45  61  81 106 136 168 202 241
#     4   9  17  28  43  63  87 112 137 170 207 242
#
# _framework density 14.280009
#
# number of rings (size 3 to 8) (size 9 to 14) (size 15 to 20)
#    0.000    2.857    0.000    3.857    0.000    2.714 
#    0.000    1.429    0.000    3.429    0.000    6.000 
#    0.000    0.000    0.000   53.143    0.000    0.286 
#
# Total GULP energy -311915.378303 kJ/mol
# GULP energy per Si atom -5569.917470 kJ/mol
# Density = 1.424751 g / cm^3
# Si number density = 14.280009 Si / 1000 Ang^3
#
#
#
# Elastic Constant Matrix: (Units=GPa)
#
#
# Indices 1 2 3 4 5 6 
#
# 1 75.1493 38.9683 42.0227 0.0000 0.0000 0.0000
# 2 38.9683 75.1470 42.0209 0.0000 0.0000 0.0000
# 3 42.0227 42.0209 70.9761 0.0000 0.0000 0.0000
# 4 0.0000 0.0000 0.0000 23.0528 0.0000 0.0000
# 5 0.0000 0.0000 0.0000 0.0000 23.0532 0.0000
# 6 0.0000 0.0000 0.0000 0.0000 0.0000 18.5899
#
#
#
# Elastic Compliance Matrix: (Units=1/GPa)
#
#
# Indices 1 2 3 4 5 6 
#
# 1 0.021589 -0.006051 -0.009200 0.000000 0.000000 0.000000
# 2 -0.006051 0.021589 -0.009199 0.000000 0.000000 0.000000
# 3 -0.009200 -0.009199 0.024982 0.000000 0.000000 0.000000
# 4 0.000000 0.000000 0.000000 0.043379 0.000000 0.000000
# 5 0.000000 0.000000 0.000000 0.000000 0.043378 0.000000
# 6 0.000000 0.000000 0.000000 0.000000 0.000000 0.053793
#
#
# Mechanical properties :
#
#
# Convention : Reuss Voigt Hill
#
# Bulk Modulus (GPa) = 51.91865 51.92181 51.92023
# Shear Modulus (GPa) = 18.93733 19.48990 19.21361
#
# Velocity S-wave (km/s) = 3.64557 3.69838 3.67207
# Velocity P-wave (km/s) = 7.35913 7.39433 7.37675
#
# Compressibility (1/GPa) = 0.01926090
#
# Stress axis : x y z
#
# Youngs Moduli (GPa) = 46.32019 46.32001 40.02821
#
# Poissons Ratio (x) = 0.28027 0.36825
# Poissons Ratio (y) = 0.28027 0.36822
# Poissons Ratio (z) = 0.42613 0.42610
#
# Static dielectric constant tensor:
#      x y z
#    x 1.454750 0.000000 0.000000 
#    y 0.000000 1.454750 0.000000 
#    z 0.000000 0.000000 1.456100 
# 
# From -- ./inp_files/4008.got.cif
#   From: 2010.05.17/outbox.cif.g08.bks.cpg/sg111_3_cif.got.tgz:4008.got - 2010.05.20 10:56:05.
