data_PCOD9554093
_publ_section_title
;
Structure prediction by ZEFSAII (Michael W. Deem and Ramdas Pophale) SiO2 
 PCOD9554093
Probable space group: I 41 M D
;
_chemical_formula_sum "Si O2"
_cell_formula_units_Z 72
_cell_length_a 14.367335
_cell_length_b 14.367335
_cell_length_c 18.039948
_cell_angle_alpha 90.000000
_cell_angle_beta 90.000000
_cell_angle_gamma 90.000000
_cell_volume 3723.811749
_symmetry_space_group_name_H-M "I 41 M D"
_symmetry_group_IT_number 109
_symmetry_cell_setting 'tetragonal'
loop_
_space_group_symop_operation_xyz
x,y,z
-y,1/2+x,1/4+z
-x,-y,z
y,1/2-x,1/4+z
-x,y,z
x,-y,z
-y,1/2-x,1/4+z
y,1/2+x,1/4+z
1/2+x,1/2+y,1/2+z
1/2-y,x,3/4+z
1/2-x,1/2-y,1/2+z
1/2+y,-x,3/4+z
1/2-x,1/2+y,1/2+z
1/2+x,1/2-y,1/2+z
1/2-y,-x,3/4+z
1/2+y,x,3/4+z
loop_
_atom_site_type_symbol
_atom_site_label
_atom_site_fract_x
_atom_site_fract_y
_atom_site_fract_z
Si Si1 0.000000 0.211040 0.805480
Si Si2 0.853298 0.262909 0.632985
Si Si3 0.500000 0.888483 0.211486
Si Si4 0.112667 0.500000 0.894543
Si Si5 0.709485 0.206098 0.760648
Si Si6 0.395780 0.831766 0.621460
O O1 0.909482 0.179929 0.849954
O O2 0.000000 0.319037 0.782661
O O3 0.000000 0.148671 0.730229
O O4 0.789278 0.228801 0.700622
O O5 0.793483 0.297909 0.564623
O O6 0.913689 0.348342 0.664182
O O7 0.913413 0.171382 0.611473
O O8 0.500000 0.000000 0.223341
O O9 0.000000 0.500000 0.890801
O O10 0.621596 0.189394 0.707877
O O11 0.745720 0.125158 0.815840
O O12 0.500000 0.865907 0.608593
#
# Coordination Sequence:
#
# PCOD9554093 Si02
#       6
#     8  16   8   8  16  16
#     4  10  20  38  60  96 130 150 198 261 331 377
#     4   9  20  39  55  88 126 162 203 266 309 377
#     4  10  20  40  64  90 122 161 214 254 321 391
#     4  10  18  36  60  92 126 161 202 249 336 392
#     4  10  21  39  59  84 126 158 208 248 320 366
#     4  11  22  38  65  89 122 166 202 259 313 386
#
# _framework density 19.335027
#
# number of rings (size 3 to 8) (size 9 to 14) (size 15 to 20)
#    0.000    2.222    4.444    1.000    1.556    0.889 
#   14.000    0.000    7.333    0.000    0.000    0.000 
#    0.000    0.000    0.000    0.000    0.000    0.000 
#
# Total GULP energy -200707.733537 kJ/mol
# GULP energy per Si atom -5575.214820 kJ/mol
# Density = 1.929102 g / cm^3
# Si number density = 19.335027 Si / 1000 Ang^3
#
#
#
# Elastic Constant Matrix: (Units=GPa)
#
#
# Indices 1 2 3 4 5 6 
#
# 1 118.2134 34.8011 33.4817 0.0000 0.0000 0.0000
# 2 34.8011 118.2134 33.4817 0.0000 0.0000 0.0000
# 3 33.4817 33.4817 101.4088 0.0000 0.0000 0.0000
# 4 0.0000 0.0000 0.0000 20.5591 0.0000 0.0000
# 5 0.0000 0.0000 0.0000 0.0000 20.5591 0.0000
# 6 0.0000 0.0000 0.0000 0.0000 0.0000 18.7667
#
#
#
# Elastic Compliance Matrix: (Units=1/GPa)
#
#
# Indices 1 2 3 4 5 6 
#
# 1 0.009814 -0.002175 -0.002522 0.000000 0.000000 0.000000
# 2 -0.002175 0.009814 -0.002522 0.000000 0.000000 0.000000
# 3 -0.002522 -0.002522 0.011527 0.000000 0.000000 0.000000
# 4 0.000000 0.000000 0.000000 0.048640 0.000000 0.000000
# 5 0.000000 0.000000 0.000000 0.000000 0.048640 0.000000
# 6 0.000000 0.000000 0.000000 0.000000 0.000000 0.053286
#
#
# Mechanical properties :
#
#
# Convention : Reuss Voigt Hill
#
# Bulk Modulus (GPa) = 59.82267 60.15161 59.98714
# Shear Modulus (GPa) = 24.78550 27.71505 26.25028
#
# Velocity S-wave (km/s) = 3.58424 3.79015 3.68863
# Velocity P-wave (km/s) = 6.93803 7.09446 7.01668
#
# Compressibility (1/GPa) = 0.01671607
#
# Stress axis : x y z
#
# Youngs Moduli (GPa) = 101.89656 101.89656 86.75621
#
# Poissons Ratio (x) = 0.22160 0.21881
# Poissons Ratio (y) = 0.22160 0.21881
# Poissons Ratio (z) = 0.25700 0.25700
#
# Static dielectric constant tensor:
#      x y z
#    x 1.710260 0.000000 0.000000 
#    y 0.000000 1.710260 0.000000 
#    z 0.000000 0.000000 1.706400 
# 
# From -- ./inp_files/3074.got.cif
#   From: 2010.05.17/outbox.cif.g08.bks.cpg/sg109_2_cif.got.tgz:3074.got - 2010.05.20 10:51:12.
