data_PCOD9554408
_publ_section_title
;
Structure prediction by ZEFSAII (Michael W. Deem and Ramdas Pophale) SiO2 
 PCOD9554408
Probable space group: I 41 C D
;
_chemical_formula_sum "Si O2"
_cell_formula_units_Z 72
_cell_length_a 14.091699
_cell_length_b 14.091699
_cell_length_c 14.141952
_cell_angle_alpha 90.000000
_cell_angle_beta 90.000000
_cell_angle_gamma 90.000000
_cell_volume 2808.251988
_symmetry_space_group_name_H-M "I 41 C D"
_symmetry_group_IT_number 110
_symmetry_cell_setting 'tetragonal'
loop_
_space_group_symop_operation_xyz
x,y,z
-y,1/2+x,1/4+z
-x,-y,z
y,1/2-x,1/4+z
-x,y,1/2+z
x,-y,1/2+z
1/2-y,-x,1/4+z
1/2+y,x,1/4+z
1/2+x,1/2+y,1/2+z
1/2-y,x,3/4+z
1/2-x,1/2-y,1/2+z
1/2+y,-x,3/4+z
1/2-x,1/2+y,z
1/2+x,1/2-y,z
-y,1/2-x,3/4+z
y,1/2+x,3/4+z
loop_
_atom_site_type_symbol
_atom_site_label
_atom_site_fract_x
_atom_site_fract_y
_atom_site_fract_z
Si Si1 0.073173 0.809722 0.537820
Si Si2 0.740956 0.621303 0.728809
Si Si3 0.144824 0.551368 0.065609
Si Si4 0.000000 0.500000 0.223131
Si Si5 0.347895 0.705380 0.829268
O O1 0.133984 0.738356 0.600655
O O2 0.056695 0.839837 0.283090
O O3 0.964753 0.776814 0.544191
O O4 0.064000 0.924391 0.530104
O O5 0.766091 0.595627 0.621303
O O6 0.627966 0.621563 0.738145
O O7 0.800645 0.710812 0.768313
O O8 0.066376 0.555722 0.148932
O O9 0.226191 0.609661 0.683311
#
# Coordination Sequence:
#
# PCOD9554408 Si02
#       5
#    16  16  16   8  16
#     4  10  21  38  63  92 127 166 212 264 325 390
#     4  10  20  37  61  90 121 164 212 256 318 395
#     4  10  21  38  63  92 128 166 213 270 330 390
#     4   8  18  36  60  90 122 164 204 258 320 384
#     4  10  21  38  61  92 126 169 213 267 329 392
#
# _framework density 25.638724
#
# number of rings (size 3 to 8) (size 9 to 14) (size 15 to 20)
#    0.000    2.667    0.000    4.000    0.000    3.556 
#    0.000    6.667    0.000   16.000    0.000    0.000 
#    0.000    0.000    0.000    0.000    0.000    0.000 
#
# Total GULP energy -200949.966000 kJ/mol
# GULP energy per Si atom -5581.943500 kJ/mol
# Density = 2.558037 g / cm^3
# Si number density = 25.638724 Si / 1000 Ang^3
#
#
#
# Elastic Constant Matrix: (Units=GPa)
#
#
# Indices 1 2 3 4 5 6 
#
# 1 191.7641 61.6173 17.4736 0.0000 0.0000 0.0000
# 2 61.6173 191.7641 17.4736 0.0000 0.0000 0.0000
# 3 17.4736 17.4736 47.1513 0.0000 0.0000 0.0000
# 4 0.0000 0.0000 0.0000 9.5917 0.0000 0.0000
# 5 0.0000 0.0000 0.0000 0.0000 9.5917 0.0000
# 6 0.0000 0.0000 0.0000 0.0000 0.0000 41.7193
#
#
#
# Elastic Compliance Matrix: (Units=1/GPa)
#
#
# Indices 1 2 3 4 5 6 
#
# 1 0.005921 -0.001762 -0.001541 0.000000 0.000000 0.000000
# 2 -0.001762 0.005921 -0.001541 0.000000 0.000000 0.000000
# 3 -0.001541 -0.001541 0.022351 0.000000 0.000000 0.000000
# 4 0.000000 0.000000 0.000000 0.104257 0.000000 0.000000
# 5 0.000000 0.000000 0.000000 0.000000 0.104257 0.000000
# 6 0.000000 0.000000 0.000000 0.000000 0.000000 0.023970
#
#
# Mechanical properties :
#
#
# Convention : Reuss Voigt Hill
#
# Bulk Modulus (GPa) = 40.81001 69.31203 55.06102
# Shear Modulus (GPa) = 17.57257 34.45489 26.01373
#
# Velocity S-wave (km/s) = 2.62084 3.66985 3.18878
# Velocity P-wave (km/s) = 5.01102 6.71192 5.92284
#
# Compressibility (1/GPa) = 0.02450379
#
# Stress axis : x y z
#
# Youngs Moduli (GPa) = 168.87851 168.87851 44.74124
#
# Poissons Ratio (x) = 0.29760 0.06896
# Poissons Ratio (y) = 0.29760 0.06896
# Poissons Ratio (z) = 0.26030 0.26030
#
# Static dielectric constant tensor:
#      x y z
#    x 2.170040 0.000000 0.000000 
#    y 0.000000 2.170040 0.000000 
#    z 0.000000 0.000000 2.161890 
# 
# From -- ./inp_files/817.got.cif
#   From: 2010.05.17/outbox.cif.g08.bks.cpg/sg110_1_cif.got.tgz:817.got - 2010.05.20 10:54:03.
