data_PCOD9554473
_publ_section_title
;
Structure prediction by ZEFSAII (Michael W. Deem and Ramdas Pophale) SiO2 
 PCOD9554473
Probable space group: I 41 C D
;
_chemical_formula_sum "Si O2"
_cell_formula_units_Z 112
_cell_length_a 14.212047
_cell_length_b 14.212047
_cell_length_c 23.690887
_cell_angle_alpha 90.000000
_cell_angle_beta 90.000000
_cell_angle_gamma 90.000000
_cell_volume 4785.139370
_symmetry_space_group_name_H-M "I 41 C D"
_symmetry_group_IT_number 110
_symmetry_cell_setting 'tetragonal'
loop_
_space_group_symop_operation_xyz
x,y,z
-y,1/2+x,1/4+z
-x,-y,z
y,1/2-x,1/4+z
-x,y,1/2+z
x,-y,1/2+z
1/2-y,-x,1/4+z
1/2+y,x,1/4+z
1/2+x,1/2+y,1/2+z
1/2-y,x,3/4+z
1/2-x,1/2-y,1/2+z
1/2+y,-x,3/4+z
1/2-x,1/2+y,z
1/2+x,1/2-y,z
-y,1/2-x,3/4+z
y,1/2+x,3/4+z
loop_
_atom_site_type_symbol
_atom_site_label
_atom_site_fract_x
_atom_site_fract_y
_atom_site_fract_z
Si Si1 0.946240 0.300754 0.384050
Si Si2 0.701813 0.463383 0.915338
Si Si3 0.696243 0.929017 0.220451
Si Si4 0.548970 0.311740 0.065575
Si Si5 0.094971 0.730354 0.787539
Si Si6 0.724968 0.682308 0.884880
Si Si7 0.000000 0.500000 0.197674
Si Si8 0.500000 0.000000 0.383006
O O1 0.834478 0.292207 0.379260
O O2 0.977133 0.401118 0.411904
O O3 0.995424 0.226185 0.424048
O O4 0.001155 0.292828 0.324306
O O5 0.746336 0.407338 0.863659
O O6 0.723595 0.570983 0.898291
O O7 0.589054 0.457197 0.915255
O O8 0.753141 0.437487 0.974036
O O9 0.720519 0.829888 0.191454
O O10 0.735495 0.966011 0.279540
O O11 0.584161 0.945953 0.229597
O O12 0.634831 0.345750 0.027376
O O13 0.515126 0.406117 0.096542
O O14 0.160404 0.791441 0.830234
#
# Coordination Sequence:
#
# PCOD9554473 Si02
#       8
#    16  16  16  16  16  16   8   8
#     4  10  22  44  67  99 137 181 235 300 360 431
#     4  11  23  43  68 102 141 192 237 312 370 433
#     4  10  22  42  66  99 133 178 233 296 359 438
#     4  11  22  42  69  98 130 186 238 289 366 441
#     4  10  24  44  69 101 141 188 247 297 368 461
#     4  10  23  43  68 104 137 181 242 299 356 445
#     4  10  21  40  69  94 136 181 234 279 358 440
#     4  10  21  42  67  94 126 177 234 275 352 434
#
# _framework density 23.405798000000001
#
# number of rings (size 3 to 8) (size 9 to 14) (size 15 to 20)
#    0.000    1.714    2.857    0.429    8.000    0.000 
#   15.429    0.714    0.000    0.000    0.000    0.000 
#    0.000    0.000    0.000    0.000    0.000    0.000 
#
# Total GULP energy -312287.126099 kJ/mol
# GULP energy per Si atom -5576.555823 kJ/mol
# Density = 2.335253 g / cm^3
# Si number density = 23.405798 Si / 1000 Ang^3
#
#
#
# Elastic Constant Matrix: (Units=GPa)
#
#
# Indices 1 2 3 4 5 6 
#
# 1 121.7905 23.1386 37.1604 0.0000 0.0000 0.0000
# 2 23.1386 121.7905 37.1604 0.0000 0.0000 0.0000
# 3 37.1604 37.1604 127.8507 0.0000 0.0000 0.0000
# 4 0.0000 0.0000 0.0000 19.0818 0.0000 0.0000
# 5 0.0000 0.0000 0.0000 0.0000 19.0818 0.0000
# 6 0.0000 0.0000 0.0000 0.0000 0.0000 28.3342
#
#
#
# Elastic Compliance Matrix: (Units=1/GPa)
#
#
# Indices 1 2 3 4 5 6 
#
# 1 0.009123 -0.001014 -0.002357 0.000000 0.000000 0.000000
# 2 -0.001014 0.009123 -0.002357 0.000000 0.000000 0.000000
# 3 -0.002357 -0.002357 0.009192 0.000000 0.000000 0.000000
# 4 0.000000 0.000000 0.000000 0.052406 0.000000 0.000000
# 5 0.000000 0.000000 0.000000 0.000000 0.052406 0.000000
# 6 0.000000 0.000000 0.000000 0.000000 0.000000 0.035293
#
#
# Mechanical properties :
#
#
# Convention : Reuss Voigt Hill
#
# Bulk Modulus (GPa) = 62.57219 62.92783 62.75001
# Shear Modulus (GPa) = 27.12616 31.56441 29.34529
#
# Velocity S-wave (km/s) = 3.40803 3.67627 3.54469
# Velocity P-wave (km/s) = 6.50214 6.70552 6.60461
#
# Compressibility (1/GPa) = 0.01598154
#
# Stress axis : x y z
#
# Youngs Moduli (GPa) = 109.61818 109.61818 108.79457
#
# Poissons Ratio (x) = 0.11116 0.25640
# Poissons Ratio (y) = 0.11116 0.25640
# Poissons Ratio (z) = 0.25834 0.25834
#
# Static dielectric constant tensor:
#      x y z
#    x 1.950390 0.000000 0.000000 
#    y 0.000000 1.950390 0.000000 
#    z 0.000000 0.000000 1.921090 
# 
# From -- ./inp_files/2679.got.cif
#   From: 2010.05.17/outbox.cif.g08.bks.cpg/sg110_2_cif.got.tgz:2679.got - 2010.05.20 10:54:03.
