data_PCOD9554927
_publ_section_title
;
Structure prediction by ZEFSAII (Michael W. Deem and Ramdas Pophale) SiO2 
 PCOD9554927
Probable space group: P -4 2 C
;
_chemical_formula_sum "Si O2"
_cell_formula_units_Z 44
_cell_length_a 9.123883
_cell_length_b 9.123883
_cell_length_c 28.314999
_cell_angle_alpha 90.000000
_cell_angle_beta 90.000000
_cell_angle_gamma 90.000000
_cell_volume 2357.088916
_symmetry_space_group_name_H-M "P -4 2 C"
_symmetry_group_IT_number 112
_symmetry_cell_setting 'tetragonal'
loop_
_space_group_symop_operation_xyz
x,y,z
y,-x,-z
-x,-y,z
-y,x,-z
x,-y,1/2-z
-x,y,1/2-z
-y,-x,1/2+z
y,x,1/2+z
loop_
_atom_site_type_symbol
_atom_site_label
_atom_site_fract_x
_atom_site_fract_y
_atom_site_fract_z
Si Si1 0.190128 0.078898 0.528313
Si Si2 0.718567 0.597164 0.989920
Si Si3 0.624130 0.246706 0.314602
Si Si4 0.500000 0.500000 0.250000
Si Si5 0.401009 0.137951 0.392064
Si Si6 0.075893 0.858335 0.866345
Si Si7 0.000000 0.500000 0.750000
O O1 0.348937 0.147541 0.521981
O O2 0.132659 0.095761 0.581417
O O3 0.081761 0.172661 0.493853
O O4 0.760822 0.631917 0.936250
O O5 0.682572 0.426591 0.994258
O O6 0.596275 0.392490 0.283821
O O7 0.495789 0.227278 0.353806
O O8 0.778091 0.210512 0.339864
O O9 0.598241 0.107153 0.280940
O O10 0.500000 0.000000 0.408903
O O11 0.259703 0.055406 0.371820
O O12 0.000000 0.000000 0.843534
#
# Coordination Sequence:
#
# PCOD9554927 Si02
#       7
#     8   8   8   2   8   8   2
#     4  11  20  35  56  83 121 170 207 233 281 346
#     4  11  23  33  49  83 122 159 203 248 292 341
#     4  10  21  37  66  88 113 153 194 263 309 376
#     4  10  24  42  68  92 122 146 216 260 340 394
#     4  10  19  36  58  82 114 161 208 249 291 358
#     4  11  19  35  60  94 121 155 212 254 294 360
#     4  10  16  38  62  90 100 138 214 234 304 370
#
# _framework density 18.667095
#
# number of rings (size 3 to 8) (size 9 to 14) (size 15 to 20)
#    0.000    1.455    6.364    2.182    0.000    2.909 
#    0.000    0.455    0.000    4.364    0.000    0.000 
#    0.000    0.000    0.000    0.000    0.000    0.000 
#
# Total GULP energy -245389.567765 kJ/mol
# GULP energy per Si atom -5577.035631 kJ/mol
# Density = 1.862461 g / cm^3
# Si number density = 18.667095 Si / 1000 Ang^3
#
#
#
# Elastic Constant Matrix: (Units=GPa)
#
#
# Indices 1 2 3 4 5 6 
#
# 1 69.5137 29.2731 23.4518 0.0000 0.0000 0.0000
# 2 29.2731 69.5137 23.4518 0.0000 0.0000 0.0000
# 3 23.4518 23.4518 80.1115 0.0000 0.0000 0.0000
# 4 0.0000 0.0000 0.0000 -205.0730 0.0000 0.0000
# 5 0.0000 0.0000 0.0000 0.0000 -205.0730 0.0000
# 6 0.0000 0.0000 0.0000 0.0000 0.0000 22.0408
#
#
#
# Elastic Compliance Matrix: (Units=1/GPa)
#
#
# Indices 1 2 3 4 5 6 
#
# 1 0.018304 -0.006547 -0.003442 0.000000 0.000000 0.000000
# 2 -0.006547 0.018304 -0.003442 0.000000 0.000000 0.000000
# 3 -0.003442 -0.003442 0.014498 0.000000 0.000000 0.000000
# 4 0.000000 0.000000 0.000000 -0.004876 0.000000 0.000000
# 5 0.000000 0.000000 0.000000 0.000000 -0.004876 0.000000
# 6 0.000000 0.000000 0.000000 0.000000 0.000000 0.045370
#
#
# Mechanical properties :
#
#
# Convention : Reuss Voigt Hill
#
# Bulk Modulus (GPa) = 41.24623 41.27692 41.26158
# Shear Modulus (GPa) = 41.09656 -68.09022 -13.49683
#
# Velocity S-wave (km/s) = 4.69716 -6.04609 -2.69183
# Velocity P-wave (km/s) = 7.18063 5.15560 3.53420
#
# Compressibility (1/GPa) = 0.02424464
#
# Stress axis : x y z
#
# Youngs Moduli (GPa) = 54.63377 54.63377 68.97674
#
# Poissons Ratio (x) = 0.35768 0.23740
# Poissons Ratio (y) = 0.35768 0.23740
# Poissons Ratio (z) = 0.18803 0.18803
#
# Static dielectric constant tensor:
#      x y z
#    x 1.675150 0.000000 0.000000 
#    y 0.000000 1.675150 0.000000 
#    z 0.000000 0.000000 1.670750 
# 
# From -- ./inp_files/6218.got.cif
#   From: 2010.05.17/outbox.cif.g08.bks.cpg/sg112_4_cif.got.tgz:6218.got - 2010.05.20 10:59:04.
