data_PCOD9554156
_publ_section_title
;
Structure prediction by ZEFSAII (Michael W. Deem and Ramdas Pophale) SiO2 
 PCOD9554156
Probable space group: I 41 M D
;
_chemical_formula_sum "Si O2"
_cell_formula_units_Z 96
_cell_length_a 16.066921
_cell_length_b 16.066921
_cell_length_c 18.466709
_cell_angle_alpha 90.000000
_cell_angle_beta 90.000000
_cell_angle_gamma 90.000000
_cell_volume 4767.106146
_symmetry_space_group_name_H-M "I 41 M D"
_symmetry_group_IT_number 109
_symmetry_cell_setting 'tetragonal'
loop_
_space_group_symop_operation_xyz
x,y,z
-y,1/2+x,1/4+z
-x,-y,z
y,1/2-x,1/4+z
-x,y,z
x,-y,z
-y,1/2-x,1/4+z
y,1/2+x,1/4+z
1/2+x,1/2+y,1/2+z
1/2-y,x,3/4+z
1/2-x,1/2-y,1/2+z
1/2+y,-x,3/4+z
1/2-x,1/2+y,1/2+z
1/2+x,1/2-y,1/2+z
1/2-y,-x,3/4+z
1/2+y,x,3/4+z
loop_
_atom_site_type_symbol
_atom_site_label
_atom_site_fract_x
_atom_site_fract_y
_atom_site_fract_z
Si Si1 0.408566 0.904904 0.958160
Si Si2 0.699438 0.349815 0.595012
Si Si3 0.899695 0.904067 0.955794
Si Si4 0.590850 0.376624 0.875024
Si Si5 0.905460 0.765113 0.701393
Si Si6 0.748887 0.832304 0.609001
O O1 0.500000 0.881049 0.930327
O O2 0.340550 0.849249 0.920556
O O3 0.393299 0.000000 0.938600
O O4 0.410128 0.899433 0.043871
O O5 0.640156 0.387811 0.534568
O O6 0.777957 0.406127 0.612881
O O7 0.732318 0.259178 0.575799
O O8 0.863070 0.830243 0.905930
O O9 0.000000 0.897022 0.958514
O O10 0.879762 0.000000 0.933263
O O11 0.500000 0.400946 0.904071
O O12 0.671631 0.400801 0.919429
O O13 0.832708 0.818764 0.659050
O O14 0.888877 0.751885 0.787002
O O15 0.000000 0.797693 0.689724
#
# Coordination Sequence:
#
# PCOD9554156 Si02
#       6
#    16  16  16  16  16  16
#     4  10  20  34  54  86 127 162 197 248 314 393
#     4  11  21  36  60  93 127 171 210 258 330 403
#     4  11  23  40  65  97 132 172 218 268 330 404
#     4  10  22  37  59  93 129 167 213 268 332 398
#     4  11  25  45  70  95 131 183 237 289 347 412
#     4  11  24  46  65  95 134 173 226 288 346 397
#
# _framework density 20.138003999999999
#
# number of rings (size 3 to 8) (size 9 to 14) (size 15 to 20)
#    0.000    1.333    1.667    4.000    7.000    5.667 
#    0.000    0.000    0.000    2.500    0.000    0.000 
#    0.000    0.000    0.000    0.000    0.000    0.000 
#
# Total GULP energy -267736.602530 kJ/mol
# GULP energy per Si atom -5577.845886 kJ/mol
# Density = 2.009217 g / cm^3
# Si number density = 20.138004 Si / 1000 Ang^3
#
#
#
# Elastic Constant Matrix: (Units=GPa)
#
#
# Indices 1 2 3 4 5 6 
#
# 1 111.6327 43.7778 37.7638 0.0000 0.0000 0.0000
# 2 43.7778 111.6327 37.7638 0.0000 0.0000 0.0000
# 3 37.7638 37.7638 71.1152 0.0000 0.0000 0.0000
# 4 0.0000 0.0000 0.0000 -25.3485 0.0000 0.0000
# 5 0.0000 0.0000 0.0000 0.0000 -25.3485 0.0000
# 6 0.0000 0.0000 0.0000 0.0000 0.0000 12.3018
#
#
#
# Elastic Compliance Matrix: (Units=1/GPa)
#
#
# Indices 1 2 3 4 5 6 
#
# 1 0.011705 -0.003032 -0.004605 0.000000 0.000000 0.000000
# 2 -0.003032 0.011705 -0.004605 0.000000 0.000000 0.000000
# 3 -0.004605 -0.004605 0.018953 0.000000 0.000000 0.000000
# 4 0.000000 0.000000 0.000000 -0.039450 0.000000 0.000000
# 5 0.000000 0.000000 0.000000 0.000000 -0.039450 0.000000
# 6 0.000000 0.000000 0.000000 0.000000 0.000000 0.081289
#
#
# Mechanical properties :
#
#
# Convention : Reuss Voigt Hill
#
# Bulk Modulus (GPa) = 55.93888 59.22127 57.58008
# Shear Modulus (GPa) = 66.49240 3.99266 35.24253
#
# Velocity S-wave (km/s) = 5.75239 1.40959 4.18790
# Velocity P-wave (km/s) = 8.48281 5.66752 7.21384
#
# Compressibility (1/GPa) = 0.01787665
#
# Stress axis : x y z
#
# Youngs Moduli (GPa) = 85.43328 85.43328 52.76246
#
# Poissons Ratio (x) = 0.25906 0.24299
# Poissons Ratio (y) = 0.25906 0.24299
# Poissons Ratio (z) = 0.39346 0.39346
#
# Static dielectric constant tensor:
#      x y z
#    x 1.681180 0.000000 0.000000 
#    y 0.000000 1.681180 0.000000 
#    z 0.000000 0.000000 1.705820 
# 
# From -- ./inp_files/3802.got.cif
#   From: 2010.05.17/outbox.cif.g08.bks.cpg/sg109_2_cif.got.tgz:3802.got - 2010.05.20 10:51:12.
