data_PCOD9554099
_publ_section_title
;
Structure prediction by ZEFSAII (Michael W. Deem and Ramdas Pophale) SiO2 
 PCOD9554099
Probable space group: I 41 M D
;
_chemical_formula_sum "Si O2"
_cell_formula_units_Z 128
_cell_length_a 22.857506
_cell_length_b 22.857506
_cell_length_c 16.674747
_cell_angle_alpha 90.000000
_cell_angle_beta 90.000000
_cell_angle_gamma 90.000000
_cell_volume 8711.981372
_symmetry_space_group_name_H-M "I 41 M D"
_symmetry_group_IT_number 109
_symmetry_cell_setting 'tetragonal'
loop_
_space_group_symop_operation_xyz
x,y,z
-y,1/2+x,1/4+z
-x,-y,z
y,1/2-x,1/4+z
-x,y,z
x,-y,z
-y,1/2-x,1/4+z
y,1/2+x,1/4+z
1/2+x,1/2+y,1/2+z
1/2-y,x,3/4+z
1/2-x,1/2-y,1/2+z
1/2+y,-x,3/4+z
1/2-x,1/2+y,1/2+z
1/2+x,1/2-y,1/2+z
1/2-y,-x,3/4+z
1/2+y,x,3/4+z
loop_
_atom_site_type_symbol
_atom_site_label
_atom_site_fract_x
_atom_site_fract_y
_atom_site_fract_z
Si Si1 0.309992 0.168185 0.809800
Si Si2 0.431110 0.568890 0.786834
Si Si3 0.433722 0.271896 0.003616
Si Si4 0.068162 0.175934 0.179856
Si Si5 0.771896 0.066278 0.070053
Si Si6 0.809992 0.831815 0.513869
Si Si7 0.722415 0.750000 0.411834
Si Si8 0.175934 0.931838 0.393813
O O1 0.306276 0.106059 0.853609
O O2 0.377952 0.186575 0.811604
O O3 0.286551 0.180895 0.721037
O O4 0.267327 0.209075 0.863101
O O5 0.500000 0.577873 0.805231
O O6 0.422127 0.500000 0.768438
O O7 0.415716 0.611609 0.713565
O O8 0.388391 0.584284 0.860104
O O9 0.500000 0.295081 0.018346
O O10 0.432823 0.250000 0.911834
O O11 0.377952 0.313425 0.012065
O O12 0.423959 0.219558 0.067879
O O13 0.076041 0.219558 0.255790
O O14 0.000000 0.175797 0.159789
O O15 0.795081 0.000000 0.055323
O O16 0.767327 0.790925 0.460568
O O17 0.786551 0.819105 0.602632
O O18 0.806276 0.893941 0.470060
O O19 0.175797 0.000000 0.413880
#
# Coordination Sequence:
#
# PCOD9554099 Si02
#       8
#    16  16  16  16  16  16  16  16
#     4  11  19  34  48  70  97 124 162 202 237 293
#     4   9  18  30  44  68 102 138 168 192 228 280
#     4  10  19  29  44  69  97 128 158 191 234 283
#     4  10  20  32  48  68  97 131 162 198 235 280
#     4  10  19  29  44  69  97 128 158 191 234 283
#     4  11  19  34  48  70  97 124 162 202 237 293
#     4  10  22  30  50  72  92 128 156 202 252 278
#     4  10  20  32  48  68  97 131 162 198 235 280
#
# _framework density 14.692410000000001
#
# number of rings (size 3 to 8) (size 9 to 14) (size 15 to 20)
#    0.000    1.875    3.750    1.500    0.000    3.000 
#    0.000    0.625    0.000    0.000    0.000    0.000 
#    0.000    0.000    0.000    0.000    0.000    0.000 
#
# Total GULP energy -356426.413665 kJ/mol
# GULP energy per Si atom -5569.162714 kJ/mol
# Density = 1.465897 g / cm^3
# Si number density = 14.692410 Si / 1000 Ang^3
#
#
#
# Elastic Constant Matrix: (Units=GPa)
#
#
# Indices 1 2 3 4 5 6 
#
# 1 65.5814 38.1363 41.5740 0.0000 0.0000 0.0000
# 2 38.1363 65.5814 41.5740 0.0000 0.0000 0.0000
# 3 41.5740 41.5740 76.7909 0.0000 0.0000 0.0000
# 4 0.0000 0.0000 0.0000 24.3138 0.0000 0.0000
# 5 0.0000 0.0000 0.0000 0.0000 24.3138 0.0000
# 6 0.0000 0.0000 0.0000 0.0000 0.0000 18.2907
#
#
#
# Elastic Compliance Matrix: (Units=1/GPa)
#
#
# Indices 1 2 3 4 5 6 
#
# 1 0.026736 -0.009701 -0.009223 0.000000 0.000000 0.000000
# 2 -0.009701 0.026736 -0.009223 0.000000 0.000000 0.000000
# 3 -0.009223 -0.009223 0.023009 0.000000 0.000000 0.000000
# 4 0.000000 0.000000 0.000000 0.041129 0.000000 0.000000
# 5 0.000000 0.000000 0.000000 0.000000 0.041129 0.000000
# 6 0.000000 0.000000 0.000000 0.000000 0.000000 0.054673
#
#
# Mechanical properties :
#
#
# Convention : Reuss Voigt Hill
#
# Bulk Modulus (GPa) = 49.53414 50.05803 49.79608
# Shear Modulus (GPa) = 18.08762 19.16161 18.62462
#
# Velocity S-wave (km/s) = 3.51249 3.61527 3.56425
# Velocity P-wave (km/s) = 7.08784 7.18133 7.13474
#
# Compressibility (1/GPa) = 0.02018810
#
# Stress axis : x y z
#
# Youngs Moduli (GPa) = 37.40307 37.40307 43.46196
#
# Poissons Ratio (x) = 0.36283 0.40084
# Poissons Ratio (y) = 0.36283 0.40084
# Poissons Ratio (z) = 0.34496 0.34496
#
# Static dielectric constant tensor:
#      x y z
#    x 1.493490 0.000000 0.000000 
#    y 0.000000 1.493490 0.000000 
#    z 0.000000 0.000000 1.478390 
# 
# From -- ./inp_files/3325.got.cif
#   From: 2010.05.17/outbox.cif.g08.bks.cpg/sg109_2_cif.got.tgz:3325.got - 2010.05.20 10:51:12.
