data_PCOD9554066
_publ_section_title
;
Structure prediction by ZEFSAII (Michael W. Deem and Ramdas Pophale) SiO2 
 PCOD9554066
Probable space group: I 41 M D
;
_chemical_formula_sum "Si O2"
_cell_formula_units_Z 84
_cell_length_a 24.704186
_cell_length_b 24.704186
_cell_length_c 7.388470
_cell_angle_alpha 90.000000
_cell_angle_beta 90.000000
_cell_angle_gamma 90.000000
_cell_volume 4509.159642
_symmetry_space_group_name_H-M "I 41 M D"
_symmetry_group_IT_number 109
_symmetry_cell_setting 'tetragonal'
loop_
_space_group_symop_operation_xyz
x,y,z
-y,1/2+x,1/4+z
-x,-y,z
y,1/2-x,1/4+z
-x,y,z
x,-y,z
-y,1/2-x,1/4+z
y,1/2+x,1/4+z
1/2+x,1/2+y,1/2+z
1/2-y,x,3/4+z
1/2-x,1/2-y,1/2+z
1/2+y,-x,3/4+z
1/2-x,1/2+y,1/2+z
1/2+x,1/2-y,1/2+z
1/2-y,-x,3/4+z
1/2+y,x,3/4+z
loop_
_atom_site_type_symbol
_atom_site_label
_atom_site_fract_x
_atom_site_fract_y
_atom_site_fract_z
Si Si1 0.380491 0.380062 0.981240
Si Si2 0.500000 0.881402 0.060119
Si Si3 0.000000 0.695141 0.211704
Si Si4 0.681652 0.118953 0.849132
Si Si5 0.819692 0.500000 0.394230
Si Si6 0.500000 0.000000 0.106271
Si Si7 0.000000 0.114939 0.507956
Si Si8 0.618314 0.808618 0.566570
O O1 0.376098 0.443396 0.919865
O O2 0.377253 0.343210 0.801261
O O3 0.439801 0.369677 0.073463
O O4 0.333255 0.367646 0.122028
O O5 0.500000 0.944279 0.994742
O O6 0.500000 0.838701 0.896870
O O7 0.000000 0.760324 0.238962
O O8 0.945685 0.682909 0.101552
O O9 0.649427 0.158194 0.719158
O O10 0.745344 0.130496 0.839621
O O11 0.675096 0.056083 0.789771
O O12 0.863909 0.500000 0.551003
O O13 0.550884 0.000000 0.238508
#
# Coordination Sequence:
#
# PCOD9554066 Si02
#       8
#    16   8   8  16   8   4   8  16
#     4  10  20  37  62  86 119 153 194 241 304 356
#     4  10  17  35  61  87 117 157 182 246 308 357
#     4  10  19  37  61  84 118 148 203 247 289 348
#     4  10  22  41  59  85 120 153 195 248 300 343
#     4   8  18  36  60  81 114 149 189 247 291 345
#     4   8  16  26  54  86 118 144 184 218 310 368
#     4   8  16  33  53  86 114 148 181 237 293 355
#     4  11  23  40  60  90 115 158 204 246 291 365
#
# _framework density 18.628748000000002
#
# number of rings (size 3 to 8) (size 9 to 14) (size 15 to 20)
#    0.000    2.286    1.905    0.571    0.000    2.286 
#    6.857    0.952    0.000    0.000    0.000    0.000 
#    0.000    0.000    0.000    0.000    0.000    0.000 
#
# Total GULP energy -234009.456911 kJ/mol
# GULP energy per Si atom -5571.653736 kJ/mol
# Density = 1.858635 g / cm^3
# Si number density = 18.628748 Si / 1000 Ang^3
#
#
#
# Elastic Constant Matrix: (Units=GPa)
#
#
# Indices 1 2 3 4 5 6 
#
# 1 104.1920 61.6355 47.8498 0.0000 0.0000 0.0000
# 2 61.6355 104.1920 47.8498 0.0000 0.0000 0.0000
# 3 47.8498 47.8498 78.0909 0.0000 0.0000 0.0000
# 4 0.0000 0.0000 0.0000 1.0136 0.0000 0.0000
# 5 0.0000 0.0000 0.0000 0.0000 1.0136 0.0000
# 6 0.0000 0.0000 0.0000 0.0000 0.0000 21.5271
#
#
#
# Elastic Compliance Matrix: (Units=1/GPa)
#
#
# Indices 1 2 3 4 5 6 
#
# 1 0.016414 -0.007084 -0.005717 0.000000 0.000000 0.000000
# 2 -0.007084 0.016414 -0.005717 0.000000 0.000000 0.000000
# 3 -0.005717 -0.005717 0.019811 0.000000 0.000000 0.000000
# 4 0.000000 0.000000 0.000000 0.986557 0.000000 0.000000
# 5 0.000000 0.000000 0.000000 0.000000 0.986557 0.000000
# 6 0.000000 0.000000 0.000000 0.000000 0.000000 0.046453
#
#
# Mechanical properties :
#
#
# Convention : Reuss Voigt Hill
#
# Bulk Modulus (GPa) = 64.08698 66.79387 65.44043
# Shear Modulus (GPa) = 2.36469 13.32020 7.84245
#
# Velocity S-wave (km/s) = 1.12789 2.67691 2.05402
# Velocity P-wave (km/s) = 6.01440 6.74445 6.38986
#
# Compressibility (1/GPa) = 0.01560379
#
# Stress axis : x y z
#
# Youngs Moduli (GPa) = 60.92441 60.92441 50.47663
#
# Poissons Ratio (x) = 0.43161 0.28855
# Poissons Ratio (y) = 0.43161 0.28855
# Poissons Ratio (z) = 0.34828 0.34828
#
# Static dielectric constant tensor:
#      x y z
#    x 1.665040 0.000000 0.000000 
#    y 0.000000 1.665040 0.000000 
#    z 0.000000 0.000000 1.608140 
# 
# From -- ./inp_files/1398.got.cif
#   From: 2010.05.17/outbox.cif.g08.bks.cpg/sg109_1_cif.got.tgz:1398.got - 2010.05.20 10:51:12.
