data_PCOD9554553
_publ_section_title
;
Structure prediction by ZEFSAII (Michael W. Deem and Ramdas Pophale) SiO2 
 PCOD9554553
Probable space group: I 41 C D
;
_chemical_formula_sum "Si O2"
_cell_formula_units_Z 120
_cell_length_a 25.292219
_cell_length_b 25.292219
_cell_length_c 9.431200
_cell_angle_alpha 90.000000
_cell_angle_beta 90.000000
_cell_angle_gamma 90.000000
_cell_volume 6033.104140
_symmetry_space_group_name_H-M "I 41 C D"
_symmetry_group_IT_number 110
_symmetry_cell_setting 'tetragonal'
loop_
_space_group_symop_operation_xyz
x,y,z
-y,1/2+x,1/4+z
-x,-y,z
y,1/2-x,1/4+z
-x,y,1/2+z
x,-y,1/2+z
1/2-y,-x,1/4+z
1/2+y,x,1/4+z
1/2+x,1/2+y,1/2+z
1/2-y,x,3/4+z
1/2-x,1/2-y,1/2+z
1/2+y,-x,3/4+z
1/2-x,1/2+y,z
1/2+x,1/2-y,z
-y,1/2-x,3/4+z
y,1/2+x,3/4+z
loop_
_atom_site_type_symbol
_atom_site_label
_atom_site_fract_x
_atom_site_fract_y
_atom_site_fract_z
Si Si1 0.557955 0.724623 0.442860
Si Si2 0.500000 0.000000 0.777778
Si Si3 0.777216 0.552105 0.535291
Si Si4 0.658013 0.429905 0.636800
Si Si5 0.376326 0.111770 0.646124
Si Si6 0.484757 0.569706 0.793638
Si Si7 0.342516 0.555973 0.138034
Si Si8 0.100365 0.886229 0.874140
O O1 0.546856 0.726373 0.613577
O O2 0.502584 0.709667 0.367004
O O3 0.571902 0.779384 0.364867
O O4 0.607656 0.685244 0.427785
O O5 0.527310 0.963191 0.660073
O O6 0.455047 0.983144 0.888122
O O7 0.718007 0.565135 0.590552
O O8 0.824998 0.592073 0.578596
O O9 0.652407 0.403093 0.790164
O O10 0.644835 0.493036 0.635565
O O11 0.620102 0.397073 0.533018
O O12 0.384766 0.056332 0.566157
O O13 0.409214 0.119209 0.789124
O O14 0.543663 0.586848 0.836213
O O15 0.355278 0.580656 0.289581
#
# Coordination Sequence:
#
# PCOD9554553 Si02
#       8
#    16   8  16  16  16  16  16  16
#     4  11  25  46  66  94 135 178 229 270 327 398
#     4  10  24  34  48  76 138 172 196 242 308 376
#     4  11  25  46  66  95 133 179 228 272 325 402
#     4  11  27  41  66 102 132 174 220 277 323 400
#     4  12  23  41  68  91 134 179 216 266 332 382
#     4  11  24  36  54  90 128 174 202 251 306 407
#     4  11  25  43  67  96 135 176 220 271 327 391
#     4  12  25  41  67  95 130 175 223 264 336 386
#
# _framework density 19.890260000000001
#
# number of rings (size 3 to 8) (size 9 to 14) (size 15 to 20)
#    0.000    0.800    4.000    2.400   18.667    0.000 
#    0.000    0.000    0.000    4.800    0.000    0.000 
#    0.000    0.000    0.000    0.000    0.000    0.000 
#
# Total GULP energy -334238.673992 kJ/mol
# GULP energy per Si atom -5570.644567 kJ/mol
# Density = 1.984499 g / cm^3
# Si number density = 19.890260 Si / 1000 Ang^3
#
#
#
# Elastic Constant Matrix: (Units=GPa)
#
#
# Indices 1 2 3 4 5 6 
#
# 1 78.4512 30.1620 7.0963 0.0000 0.0000 0.0000
# 2 30.1620 78.4512 7.0963 0.0000 0.0000 0.0000
# 3 7.0963 7.0963 87.7002 0.0000 0.0000 0.0000
# 4 0.0000 0.0000 0.0000 20.4982 0.0000 0.0000
# 5 0.0000 0.0000 0.0000 0.0000 20.4982 0.0000
# 6 0.0000 0.0000 0.0000 0.0000 0.0000 13.5098
#
#
#
# Elastic Compliance Matrix: (Units=1/GPa)
#
#
# Indices 1 2 3 4 5 6 
#
# 1 0.015007 -0.005702 -0.000753 0.000000 0.000000 0.000000
# 2 -0.005702 0.015007 -0.000753 0.000000 0.000000 0.000000
# 3 -0.000753 -0.000753 0.011524 0.000000 0.000000 0.000000
# 4 0.000000 0.000000 0.000000 0.048785 0.000000 0.000000
# 5 0.000000 0.000000 0.000000 0.000000 0.048785 0.000000
# 6 0.000000 0.000000 0.000000 0.000000 0.000000 0.074020
#
#
# Mechanical properties :
#
#
# Convention : Reuss Voigt Hill
#
# Bulk Modulus (GPa) = 36.86869 37.03465 36.95167
# Shear Modulus (GPa) = 21.13412 24.25111 22.69262
#
# Velocity S-wave (km/s) = 3.26319 3.49556 3.38137
# Velocity P-wave (km/s) = 5.72488 5.91201 5.81919
#
# Compressibility (1/GPa) = 0.02712328
#
# Stress axis : x y z
#
# Youngs Moduli (GPa) = 66.63573 66.63573 86.77291
#
# Poissons Ratio (x) = 0.37993 0.06534
# Poissons Ratio (y) = 0.37993 0.06534
# Poissons Ratio (z) = 0.05017 0.05017
#
# Static dielectric constant tensor:
#      x y z
#    x 1.801520 0.000000 0.000000 
#    y 0.000000 1.801520 0.000000 
#    z 0.000000 0.000000 1.831790 
# 
# From -- ./inp_files/533.got.cif
#   From: 2010.05.17/outbox.cif.g08.bks.cpg/sg110_1_cif.got.tgz:533.got - 2010.05.20 10:54:03.
