data_PCOD9554068
_publ_section_title
;
Structure prediction by ZEFSAII (Michael W. Deem and Ramdas Pophale) SiO2 
 PCOD9554068
Probable space group: I 41 M D
;
_chemical_formula_sum "Si O2"
_cell_formula_units_Z 112
_cell_length_a 23.700114
_cell_length_b 23.700114
_cell_length_c 13.020459
_cell_angle_alpha 90.000000
_cell_angle_beta 90.000000
_cell_angle_gamma 90.000000
_cell_volume 7313.531973
_symmetry_space_group_name_H-M "I 41 M D"
_symmetry_group_IT_number 109
_symmetry_cell_setting 'tetragonal'
loop_
_space_group_symop_operation_xyz
x,y,z
-y,1/2+x,1/4+z
-x,-y,z
y,1/2-x,1/4+z
-x,y,z
x,-y,z
-y,1/2-x,1/4+z
y,1/2+x,1/4+z
1/2+x,1/2+y,1/2+z
1/2-y,x,3/4+z
1/2-x,1/2-y,1/2+z
1/2+y,-x,3/4+z
1/2-x,1/2+y,1/2+z
1/2+x,1/2-y,1/2+z
1/2-y,-x,3/4+z
1/2+y,x,3/4+z
loop_
_atom_site_type_symbol
_atom_site_label
_atom_site_fract_x
_atom_site_fract_y
_atom_site_fract_z
Si Si1 0.564233 0.567827 0.393160
Si Si2 0.744913 0.065958 0.792217
Si Si3 0.378701 0.372818 0.580948
Si Si4 0.931456 0.360968 0.950881
Si Si5 0.861860 0.566872 0.549892
Si Si6 0.933573 0.932477 0.503422
Si Si7 0.768820 0.935204 0.033281
O O1 0.500000 0.587417 0.380200
O O2 0.564383 0.500000 0.389485
O O3 0.588527 0.587034 0.501714
O O4 0.603183 0.588264 0.299471
O O5 0.690153 0.105251 0.793536
O O6 0.795598 0.084062 0.717373
O O7 0.729193 0.000000 0.771933
O O8 0.768531 0.066721 0.908953
O O9 0.400639 0.378720 0.696904
O O10 0.313877 0.390991 0.574227
O O11 0.914890 0.392940 0.846869
O O12 0.000000 0.361630 0.953167
O O13 0.867720 0.500000 0.528290
O O14 0.899120 0.579977 0.649273
O O15 0.795195 0.576609 0.567874
O O16 0.000000 0.922285 0.528877
O O17 0.927694 0.000000 0.488137
O O18 0.783465 0.000000 0.062360
#
# Coordination Sequence:
#
# PCOD9554068 Si02
#       7
#    16  16  16  16  16  16  16
#     4  10  18  26  42  74 105 120 142 194 252 289
#     4   9  17  30  47  69  96 126 161 196 235 290
#     4  11  18  28  49  71  94 122 162 202 244 282
#     4   9  16  29  48  68  95 131 160 186 230 295
#     4   9  19  33  49  71  99 129 163 199 238 292
#     4   9  17  30  50  74 100 132 164 193 233 287
#     4   9  17  31  49  69  95 130 163 193 240 297
#
# _framework density 15.314078
#
# number of rings (size 3 to 8) (size 9 to 14) (size 15 to 20)
#    0.000    2.571    1.429    3.000    0.000    2.857 
#    0.000    1.429    3.143    6.857    0.000    0.000 
#    0.000    0.000    0.000    0.000    0.000    0.000 
#
# Total GULP energy -311939.263232 kJ/mol
# GULP energy per Si atom -5570.343986 kJ/mol
# Density = 1.527922 g / cm^3
# Si number density = 15.314078 Si / 1000 Ang^3
#
#
#
# Elastic Constant Matrix: (Units=GPa)
#
#
# Indices 1 2 3 4 5 6 
#
# 1 55.8332 41.6589 46.1139 0.0000 0.0000 0.0000
# 2 41.6589 55.8332 46.1139 0.0000 0.0000 0.0000
# 3 46.1139 46.1139 78.3842 0.0000 0.0000 0.0000
# 4 0.0000 0.0000 0.0000 15.4149 0.0000 0.0000
# 5 0.0000 0.0000 0.0000 0.0000 15.4149 0.0000
# 6 0.0000 0.0000 0.0000 0.0000 0.0000 22.5096
#
#
#
# Elastic Compliance Matrix: (Units=1/GPa)
#
#
# Indices 1 2 3 4 5 6 
#
# 1 0.046840 -0.023710 -0.013607 0.000000 0.000000 0.000000
# 2 -0.023710 0.046840 -0.013607 0.000000 0.000000 0.000000
# 3 -0.013607 -0.013607 0.028768 0.000000 0.000000 0.000000
# 4 0.000000 0.000000 0.000000 0.064872 0.000000 0.000000
# 5 0.000000 0.000000 0.000000 0.000000 0.064872 0.000000
# 6 0.000000 0.000000 0.000000 0.000000 0.000000 0.044425
#
#
# Mechanical properties :
#
#
# Convention : Reuss Voigt Hill
#
# Bulk Modulus (GPa) = 48.54755 50.86932 49.70844
# Shear Modulus (GPa) = 12.33547 14.41215 13.37381
#
# Velocity S-wave (km/s) = 2.84121 3.07107 2.95837
# Velocity P-wave (km/s) = 6.52176 6.77235 6.64824
#
# Compressibility (1/GPa) = 0.02059836
#
# Stress axis : x y z
#
# Youngs Moduli (GPa) = 21.34919 21.34919 34.76038
#
# Poissons Ratio (x) = 0.50619 0.47300
# Poissons Ratio (y) = 0.50619 0.47300
# Poissons Ratio (z) = 0.29051 0.29051
#
# Static dielectric constant tensor:
#      x y z
#    x 1.516150 0.000000 0.000000 
#    y 0.000000 1.516150 0.000000 
#    z 0.000000 0.000000 1.494400 
# 
# From -- ./inp_files/2143.got.cif
#   From: 2010.05.17/outbox.cif.g08.bks.cpg/sg109_2_cif.got.tgz:2143.got - 2010.05.20 10:51:12.
