data_PCOD9554402
_publ_section_title
;
Structure prediction by ZEFSAII (Michael W. Deem and Ramdas Pophale) SiO2 
 PCOD9554402
Probable space group: I 41 C D
;
_chemical_formula_sum "Si O2"
_cell_formula_units_Z 112
_cell_length_a 28.598990
_cell_length_b 28.598990
_cell_length_c 5.770395
_cell_angle_alpha 90.000000
_cell_angle_beta 90.000000
_cell_angle_gamma 90.000000
_cell_volume 4719.618933
_symmetry_space_group_name_H-M "I 41 C D"
_symmetry_group_IT_number 110
_symmetry_cell_setting 'tetragonal'
loop_
_space_group_symop_operation_xyz
x,y,z
-y,1/2+x,1/4+z
-x,-y,z
y,1/2-x,1/4+z
-x,y,1/2+z
x,-y,1/2+z
1/2-y,-x,1/4+z
1/2+y,x,1/4+z
1/2+x,1/2+y,1/2+z
1/2-y,x,3/4+z
1/2-x,1/2-y,1/2+z
1/2+y,-x,3/4+z
1/2-x,1/2+y,z
1/2+x,1/2-y,z
-y,1/2-x,3/4+z
y,1/2+x,3/4+z
loop_
_atom_site_type_symbol
_atom_site_label
_atom_site_fract_x
_atom_site_fract_y
_atom_site_fract_z
Si Si1 0.954333 0.833956 0.400650
Si Si2 0.423737 0.983550 0.110416
Si Si3 0.204826 0.700048 0.132950
Si Si4 0.398331 0.800349 0.768173
Si Si5 0.612071 0.387476 0.757257
Si Si6 0.477906 0.768156 0.512399
Si Si7 0.795019 0.618854 0.286703
O O1 0.917532 0.864275 0.548246
O O2 0.974160 0.788275 0.527360
O O3 0.923962 0.810536 0.198071
O O4 0.993705 0.871472 0.334708
O O5 0.417521 0.927774 0.136553
O O6 0.444124 0.004054 0.353143
O O7 0.246341 0.698191 0.313568
O O8 0.154496 0.684588 0.217895
O O9 0.218720 0.665410 0.926103
O O10 0.426950 0.791618 0.534672
O O11 0.416526 0.843506 0.920338
O O12 0.397094 0.750128 0.893036
O O13 0.629352 0.342636 0.900495
O O14 0.499086 0.780921 0.262257
#
# Coordination Sequence:
#
# PCOD9554402 Si02
#       7
#    16  16  16  16  16  16  16
#     4  11  21  40  62  94 122 166 218 280 341 395
#     4  10  20  35  61  90 122 158 203 266 334 388
#     4  12  24  41  58  83 124 178 232 270 309 370
#     4  12  25  41  61  94 125 172 230 272 332 398
#     4  11  22  39  57  89 125 160 213 268 325 391
#     4  12  26  44  68  95 129 173 227 279 346 409
#     4  12  22  40  61  87 129 176 221 278 322 386
#
# _framework density 23.730730999999999
#
# number of rings (size 3 to 8) (size 9 to 14) (size 15 to 20)
#    0.000    0.571    4.286    6.000    0.000    1.143 
#    0.000    0.000    0.000    0.000    0.000    0.000 
#    0.000   13.714    0.000    0.000    0.000    0.000 
#
# Total GULP energy -313195.884590 kJ/mol
# GULP energy per Si atom -5592.783653 kJ/mol
# Density = 2.367672 g / cm^3
# Si number density = 23.730731 Si / 1000 Ang^3
#
#
#
# Elastic Constant Matrix: (Units=GPa)
#
#
# Indices 1 2 3 4 5 6 
#
# 1 161.4740 -93.6000 14.0914 0.0000 0.0000 0.0000
# 2 -93.6000 161.4740 14.0914 0.0000 0.0000 0.0000
# 3 14.0914 14.0914 103.0035 0.0000 0.0000 0.0000
# 4 0.0000 0.0000 0.0000 3.6672 0.0000 0.0000
# 5 0.0000 0.0000 0.0000 0.0000 3.6672 0.0000
# 6 0.0000 0.0000 0.0000 0.0000 0.0000 53.0250
#
#
#
# Elastic Compliance Matrix: (Units=1/GPa)
#
#
# Indices 1 2 3 4 5 6 
#
# 1 0.009770 0.005850 -0.002137 0.000000 0.000000 0.000000
# 2 0.005850 0.009770 -0.002137 0.000000 0.000000 0.000000
# 3 -0.002137 -0.002137 0.010293 0.000000 0.000000 0.000000
# 4 0.000000 0.000000 0.000000 0.272689 0.000000 0.000000
# 5 0.000000 0.000000 0.000000 0.000000 0.272689 0.000000
# 6 0.000000 0.000000 0.000000 0.000000 0.000000 0.018859
#
#
# Mechanical properties :
#
#
# Convention : Reuss Voigt Hill
#
# Bulk Modulus (GPa) = 30.31566 32.79079 31.55323
# Shear Modulus (GPa) = 8.30684 44.82979 26.56832
#
# Velocity S-wave (km/s) = 1.87298 4.35110 3.34963
# Velocity P-wave (km/s) = 4.18091 6.25225 5.31839
#
# Compressibility (1/GPa) = 0.03298625
#
# Stress axis : x y z
#
# Youngs Moduli (GPa) = 102.34924 102.34924 97.15244
#
# Poissons Ratio (x) = -0.59875 0.20761
# Poissons Ratio (y) = -0.59875 0.20761
# Poissons Ratio (z) = 0.21872 0.21872
#
# Static dielectric constant tensor:
#      x y z
#    x 1.911040 0.000000 0.000000 
#    y 0.000000 1.911040 0.000000 
#    z 0.000000 0.000000 2.024500 
# 
# From -- ./inp_files/140.got.cif
#   From: 2010.05.17/outbox.cif.g08.bks.cpg/sg110_1_cif.got.tgz:140.got - 2010.05.20 10:54:03.
