data_PCOD9554995
_publ_section_title
;
Structure prediction by ZEFSAII (Michael W. Deem and Ramdas Pophale) SiO2 
 PCOD9554995
Probable space group: P -4 2 C
;
_chemical_formula_sum "Si O2"
_cell_formula_units_Z 34
_cell_length_a 8.007158
_cell_length_b 8.007158
_cell_length_c 23.663827
_cell_angle_alpha 90.000000
_cell_angle_beta 90.000000
_cell_angle_gamma 90.000000
_cell_volume 1517.196311
_symmetry_space_group_name_H-M "P -4 2 C"
_symmetry_group_IT_number 112
_symmetry_cell_setting 'tetragonal'
loop_
_space_group_symop_operation_xyz
x,y,z
y,-x,-z
-x,-y,z
-y,x,-z
x,-y,1/2-z
-x,y,1/2-z
-y,-x,1/2+z
y,x,1/2+z
loop_
_atom_site_type_symbol
_atom_site_label
_atom_site_fract_x
_atom_site_fract_y
_atom_site_fract_z
Si Si1 0.118441 0.339721 0.507789
Si Si2 0.000000 0.000000 0.500000
Si Si3 0.310510 0.668879 0.885997
Si Si4 0.264579 0.669428 0.117898
Si Si5 0.007221 0.294822 0.815143
O O1 0.282020 0.317069 0.546629
O O2 0.172361 0.331545 0.442652
O O3 0.000000 0.500000 0.518996
O O4 0.010800 0.180574 0.527696
O O5 0.477584 0.753774 0.863079
O O6 0.315199 0.467334 0.882512
O O7 0.154764 0.744266 0.852545
O O8 0.219973 0.826257 0.156576
O O9 0.000000 0.500000 0.815406
O O10 0.000000 0.243523 0.750000
#
# Coordination Sequence:
#
# PCOD9554995 Si02
#       5
#     8   2   8   8   8
#     4  12  23  37  57  86 124 159 201 257 314 384
#     4  12  24  36  56  84 118 160 196 232 296 366
#     4  10  19  34  55  83 122 159 201 255 312 377
#     4  10  20  33  55  84 116 161 204 251 318 378
#     4   9  18  33  53  82 121 160 205 261 315 374
#
# _framework density 22.409758
#
# number of rings (size 3 to 8) (size 9 to 14) (size 15 to 20)
#    0.000    1.647    0.000    7.765    0.000    2.824 
#    0.000    4.706    0.000    0.000    0.000   37.882 
#    0.000    0.000    0.000    0.000    0.000    0.000 
#
# Total GULP energy -189471.688278 kJ/mol
# GULP energy per Si atom -5572.696714 kJ/mol
# Density = 2.235875 g / cm^3
# Si number density = 22.409758 Si / 1000 Ang^3
#
#
#
# Elastic Constant Matrix: (Units=GPa)
#
#
# Indices 1 2 3 4 5 6 
#
# 1 122.9458 28.8205 44.1168 0.0000 0.0000 0.0000
# 2 28.8205 122.9458 44.1168 0.0000 0.0000 0.0000
# 3 44.1168 44.1168 135.6836 0.0000 0.0000 0.0000
# 4 0.0000 0.0000 0.0000 11.6497 0.0000 0.0000
# 5 0.0000 0.0000 0.0000 0.0000 11.6497 0.0000
# 6 0.0000 0.0000 0.0000 0.0000 0.0000 9.5833
#
#
#
# Elastic Compliance Matrix: (Units=1/GPa)
#
#
# Indices 1 2 3 4 5 6 
#
# 1 0.009375 -0.001250 -0.002642 0.000000 0.000000 0.000000
# 2 -0.001250 0.009375 -0.002642 0.000000 0.000000 0.000000
# 3 -0.002642 -0.002642 0.009088 0.000000 0.000000 0.000000
# 4 0.000000 0.000000 0.000000 0.085839 0.000000 0.000000
# 5 0.000000 0.000000 0.000000 0.000000 0.085839 0.000000
# 6 0.000000 0.000000 0.000000 0.000000 0.000000 0.104349
#
#
# Mechanical properties :
#
#
# Convention : Reuss Voigt Hill
#
# Bulk Modulus (GPa) = 67.70122 68.40925 68.05523
# Shear Modulus (GPa) = 15.53497 24.21126 19.87311
#
# Velocity S-wave (km/s) = 2.63577 3.29049 2.98116
# Velocity P-wave (km/s) = 6.28802 6.71039 6.50263
#
# Compressibility (1/GPa) = 0.01477078
#
# Stress axis : x y z
#
# Youngs Moduli (GPa) = 106.67185 106.67185 110.03515
#
# Poissons Ratio (x) = 0.13330 0.29069
# Poissons Ratio (y) = 0.13330 0.29069
# Poissons Ratio (z) = 0.28180 0.28180
#
# Static dielectric constant tensor:
#      x y z
#    x 1.928380 0.000000 0.000000 
#    y 0.000000 1.928380 0.000000 
#    z 0.000000 0.000000 1.806550 
# 
# From -- ./inp_files/4683.got.cif
#   From: 2010.05.17/outbox.cif.g08.bks.cpg/sg112_3_cif.got.tgz:4683.got - 2010.05.20 10:59:04.
