data_PCOD9554103
_publ_section_title
;
Structure prediction by ZEFSAII (Michael W. Deem and Ramdas Pophale) SiO2 
 PCOD9554103
Probable space group: I 41 M D
;
_chemical_formula_sum "Si O2"
_cell_formula_units_Z 112
_cell_length_a 17.106353
_cell_length_b 17.106353
_cell_length_c 23.673787
_cell_angle_alpha 90.000000
_cell_angle_beta 90.000000
_cell_angle_gamma 90.000000
_cell_volume 6927.596677
_symmetry_space_group_name_H-M "I 41 M D"
_symmetry_group_IT_number 109
_symmetry_cell_setting 'tetragonal'
loop_
_space_group_symop_operation_xyz
x,y,z
-y,1/2+x,1/4+z
-x,-y,z
y,1/2-x,1/4+z
-x,y,z
x,-y,z
-y,1/2-x,1/4+z
y,1/2+x,1/4+z
1/2+x,1/2+y,1/2+z
1/2-y,x,3/4+z
1/2-x,1/2-y,1/2+z
1/2+y,-x,3/4+z
1/2-x,1/2+y,1/2+z
1/2+x,1/2-y,1/2+z
1/2-y,-x,3/4+z
1/2+y,x,3/4+z
loop_
_atom_site_type_symbol
_atom_site_label
_atom_site_fract_x
_atom_site_fract_y
_atom_site_fract_z
Si Si1 0.090607 0.093941 0.658470
Si Si2 0.592884 0.729345 0.610763
Si Si3 0.826579 0.322493 0.013066
Si Si4 0.091618 0.776073 0.462142
Si Si5 0.593277 0.167863 0.287619
Si Si6 0.410122 0.210571 0.841314
Si Si7 0.769239 0.667925 0.481969
O O1 0.135161 0.129621 0.711893
O O2 0.131333 0.113750 0.598787
O O3 0.000000 0.119385 0.657667
O O4 0.092168 0.000000 0.663067
O O5 0.500000 0.721093 0.610917
O O6 0.619545 0.793520 0.564663
O O7 0.637583 0.648668 0.595768
O O8 0.625661 0.748031 0.673038
O O9 0.757513 0.378638 0.035233
O O10 0.785601 0.243952 0.989267
O O11 0.123561 0.855355 0.490208
O O12 0.103671 0.768166 0.394611
O O13 0.143664 0.703948 0.484598
O O14 0.000000 0.767938 0.474121
O O15 0.500000 0.160681 0.278983
O O16 0.500000 0.185712 0.843379
O O17 0.389499 0.253696 0.783584
#
# Coordination Sequence:
#
# PCOD9554103 Si02
#       7
#    16  16  16  16  16  16  16
#     4  10  20  33  49  70  98 131 164 203 254 304
#     4  10  19  31  51  75  96 124 161 199 240 291
#     4  10  19  33  50  72  98 126 163 206 247 291
#     4   9  18  32  49  70  98 129 162 201 242 285
#     4  10  20  33  51  73  98 132 172 209 247 296
#     4   9  18  33  51  72 100 130 158 196 244 288
#     4   9  18  32  51  72  96 127 162 197 240 291
#
# _framework density 16.167221999999999
#
# number of rings (size 3 to 8) (size 9 to 14) (size 15 to 20)
#    0.000    2.429    0.000    2.571    0.000    4.571 
#    0.000    2.143    0.000    3.000    0.000    0.000 
#    0.000    0.000    0.000    0.000    0.000    0.000 
#
# Total GULP energy -312120.047484 kJ/mol
# GULP energy per Si atom -5573.572276 kJ/mol
# Density = 1.613043 g / cm^3
# Si number density = 16.167222 Si / 1000 Ang^3
#
#
#
# Elastic Constant Matrix: (Units=GPa)
#
#
# Indices 1 2 3 4 5 6 
#
# 1 89.6972 36.2289 64.9519 0.0000 0.0000 0.0000
# 2 36.2289 89.6972 64.9519 0.0000 0.0000 0.0000
# 3 64.9519 64.9519 121.7723 0.0000 0.0000 0.0000
# 4 0.0000 0.0000 0.0000 28.7760 0.0000 0.0000
# 5 0.0000 0.0000 0.0000 0.0000 28.7760 0.0000
# 6 0.0000 0.0000 0.0000 0.0000 0.0000 11.1131
#
#
#
# Elastic Compliance Matrix: (Units=1/GPa)
#
#
# Indices 1 2 3 4 5 6 
#
# 1 0.018180 -0.000523 -0.009418 0.000000 0.000000 0.000000
# 2 -0.000523 0.018180 -0.009418 0.000000 0.000000 0.000000
# 3 -0.009418 -0.009418 0.018259 0.000000 0.000000 0.000000
# 4 0.000000 0.000000 0.000000 0.034751 0.000000 0.000000
# 5 0.000000 0.000000 0.000000 0.000000 0.034751 0.000000
# 6 0.000000 0.000000 0.000000 0.000000 0.000000 0.089984
#
#
# Mechanical properties :
#
#
# Convention : Reuss Voigt Hill
#
# Bulk Modulus (GPa) = 62.89090 70.38134 66.63612
# Shear Modulus (GPa) = 19.37076 22.73527 21.05302
#
# Velocity S-wave (km/s) = 3.46519 3.75408 3.61252
# Velocity P-wave (km/s) = 7.41584 7.90055 7.66203
#
# Compressibility (1/GPa) = 0.01590055
#
# Stress axis : x y z
#
# Youngs Moduli (GPa) = 55.00698 55.00698 54.76870
#
# Poissons Ratio (x) = 0.02878 0.51579
# Poissons Ratio (y) = 0.02878 0.51579
# Poissons Ratio (z) = 0.51804 0.51804
#
# Static dielectric constant tensor:
#      x y z
#    x 1.525890 0.000000 0.000000 
#    y 0.000000 1.525890 0.000000 
#    z 0.000000 0.000000 1.536560 
# 
# From -- ./inp_files/3897.got.cif
#   From: 2010.05.17/outbox.cif.g08.bks.cpg/sg109_2_cif.got.tgz:3897.got - 2010.05.20 10:51:12.
