data_PCOD9554605
_publ_section_title
;
Structure prediction by ZEFSAII (Michael W. Deem and Ramdas Pophale) SiO2 
 PCOD9554605
Probable space group: I 41 C D
;
_chemical_formula_sum "Si O2"
_cell_formula_units_Z 72
_cell_length_a 9.870975
_cell_length_b 9.870975
_cell_length_c 25.589802
_cell_angle_alpha 90.000000
_cell_angle_beta 90.000000
_cell_angle_gamma 90.000000
_cell_volume 2493.371721
_symmetry_space_group_name_H-M "I 41 C D"
_symmetry_group_IT_number 110
_symmetry_cell_setting 'tetragonal'
loop_
_space_group_symop_operation_xyz
x,y,z
-y,1/2+x,1/4+z
-x,-y,z
y,1/2-x,1/4+z
-x,y,1/2+z
x,-y,1/2+z
1/2-y,-x,1/4+z
1/2+y,x,1/4+z
1/2+x,1/2+y,1/2+z
1/2-y,x,3/4+z
1/2-x,1/2-y,1/2+z
1/2+y,-x,3/4+z
1/2-x,1/2+y,z
1/2+x,1/2-y,z
-y,1/2-x,3/4+z
y,1/2+x,3/4+z
loop_
_atom_site_type_symbol
_atom_site_label
_atom_site_fract_x
_atom_site_fract_y
_atom_site_fract_z
Si Si1 0.807413 0.578031 0.959980
Si Si2 0.229832 0.430494 0.843009
Si Si3 0.000000 0.000000 0.510249
Si Si4 0.976905 0.787567 0.438585
Si Si5 0.166515 0.581148 0.576366
O O1 0.802100 0.517434 0.901706
O O2 0.952747 0.652887 0.958144
O O3 0.675932 0.680423 0.956408
O O4 0.797064 0.522815 0.019144
O O5 0.361561 0.514679 0.827244
O O6 0.210034 0.267915 0.838102
O O7 0.117387 0.471965 0.801391
O O8 0.930054 0.094936 0.465298
O O9 0.989965 0.800564 0.376631
#
# Coordination Sequence:
#
# PCOD9554605 Si02
#       5
#    16  16   8  16  16
#     4  11  23  51  74 119 153 215 267 343 398 506
#     4  11  26  43  80 109 159 208 270 327 418 478
#     4  12  22  48  72 116 160 214 256 352 396 494
#     4  11  25  45  82 107 165 203 277 330 419 476
#     4  11  23  48  77 114 155 214 266 339 409 493
#
# _framework density 28.876560999999999
#
# number of rings (size 3 to 8) (size 9 to 14) (size 15 to 20)
#    0.000    0.889    4.444    1.333    0.000    7.111 
#    0.000    3.333    0.000    0.000    0.000    0.000 
#    0.000    0.000    0.000    0.000    0.000    0.000 
#
# Total GULP energy -201078.215186 kJ/mol
# GULP energy per Si atom -5585.505977 kJ/mol
# Density = 2.881084 g / cm^3
# Si number density = 28.876561 Si / 1000 Ang^3
#
#
#
# Elastic Constant Matrix: (Units=GPa)
#
#
# Indices 1 2 3 4 5 6 
#
# 1 91.5427 -0.6070 38.6176 0.0000 0.0000 0.0000
# 2 -0.6070 91.5427 38.6176 0.0000 0.0000 0.0000
# 3 38.6176 38.6176 326.6775 0.0000 0.0000 0.0000
# 4 0.0000 0.0000 0.0000 53.0671 0.0000 0.0000
# 5 0.0000 0.0000 0.0000 0.0000 53.0671 0.0000
# 6 0.0000 0.0000 0.0000 0.0000 0.0000 26.7006
#
#
#
# Elastic Compliance Matrix: (Units=1/GPa)
#
#
# Indices 1 2 3 4 5 6 
#
# 1 0.011538 0.000686 -0.001445 0.000000 0.000000 0.000000
# 2 0.000686 0.011538 -0.001445 0.000000 0.000000 0.000000
# 3 -0.001445 -0.001445 0.003403 0.000000 0.000000 0.000000
# 4 0.000000 0.000000 0.000000 0.018844 0.000000 0.000000
# 5 0.000000 0.000000 0.000000 0.000000 0.018844 0.000000
# 6 0.000000 0.000000 0.000000 0.000000 0.000000 0.037452
#
#
# Mechanical properties :
#
#
# Convention : Reuss Voigt Hill
#
# Bulk Modulus (GPa) = 45.30870 73.66879 59.48875
# Shear Modulus (GPa) = 44.09783 55.44260 49.77022
#
# Velocity S-wave (km/s) = 3.91207 4.38652 4.15607
# Velocity P-wave (km/s) = 6.01085 7.15698 6.60881
#
# Compressibility (1/GPa) = 0.02207082
#
# Stress axis : x y z
#
# Youngs Moduli (GPa) = 86.66998 86.66998 293.87800
#
# Poissons Ratio (x) = -0.05947 0.42467
# Poissons Ratio (y) = -0.05947 0.42467
# Poissons Ratio (z) = 0.12524 0.12524
#
# Static dielectric constant tensor:
#      x y z
#    x 2.499670 0.000000 0.000000 
#    y 0.000000 2.499670 0.000000 
#    z 0.000000 0.000000 2.101920 
# 
# From -- ./inp_files/2891.got.cif
#   From: 2010.05.17/outbox.cif.g08.bks.cpg/sg110_2_cif.got.tgz:2891.got - 2010.05.20 10:54:03.
