data_PCOD9554026
_publ_section_title
;
Structure prediction by ZEFSAII (Michael W. Deem and Ramdas Pophale) SiO2 
 PCOD9554026
Probable space group: I 4 C M
;
_chemical_formula_sum "Si O2"
_cell_formula_units_Z 96
_cell_length_a 14.167981
_cell_length_b 14.167981
_cell_length_c 24.081393
_cell_angle_alpha 90.000000
_cell_angle_beta 90.000000
_cell_angle_gamma 90.000000
_cell_volume 4833.898609
_symmetry_space_group_name_H-M "I 4 C M"
_symmetry_group_IT_number 108
_symmetry_cell_setting 'tetragonal'
loop_
_space_group_symop_operation_xyz
x,y,z
-y,x,z
-x,-y,z
y,-x,z
-x,y,1/2+z
x,-y,1/2+z
-y,-x,1/2+z
y,x,1/2+z
1/2+x,1/2+y,1/2+z
1/2-y,1/2+x,1/2+z
1/2-x,1/2-y,1/2+z
1/2+y,1/2-x,1/2+z
1/2-x,1/2+y,z
1/2+x,1/2-y,z
1/2-y,1/2-x,z
1/2+y,1/2+x,z
loop_
_atom_site_type_symbol
_atom_site_label
_atom_site_fract_x
_atom_site_fract_y
_atom_site_fract_z
Si Si1 0.418297 0.918297 0.871220
Si Si2 0.921164 0.578837 0.000154
Si Si3 0.441666 0.352558 0.936451
Si Si4 0.434126 0.775792 0.330906
Si Si5 0.931078 0.143840 0.724076
Si Si6 0.262802 0.517489 0.050016
Si Si7 0.684957 0.661034 0.109535
O O1 0.465155 0.828977 0.840112
O O2 0.500000 0.000000 0.872293
O O3 0.394439 0.894439 0.936053
O O4 0.835945 0.530430 0.033631
O O5 0.000000 0.500000 0.993750
O O6 0.551607 0.382437 0.933013
O O7 0.417345 0.284530 0.886174
O O8 0.431927 0.299162 0.994513
O O9 0.357472 0.857472 0.326203
O O10 0.421932 0.707022 0.278748
O O11 0.885542 0.192786 0.670220
O O12 0.042250 0.120129 0.722902
O O13 0.271390 0.595160 0.098470
O O14 0.326156 0.429293 0.069387
O O15 0.777072 0.722929 0.097271
#
# Coordination Sequence:
#
# PCOD9554026 Si02
#       7
#     8   8  16  16  16  16  16
#     4   9  20  38  66  91 132 182 213 261 342 410
#     4  11  22  42  66 101 144 183 219 271 350 425
#     4  11  23  40  63  95 134 173 219 274 335 401
#     4  11  23  43  65  97 133 172 224 278 339 414
#     4  11  24  46  71  92 126 175 226 282 343 399
#     4  12  23  40  68 101 136 182 224 279 340 414
#     4  12  25  43  68 101 136 175 230 281 340 408
#
# _framework density 19.859746999999999
#
# number of rings (size 3 to 8) (size 9 to 14) (size 15 to 20)
#    0.000    0.833    5.833    2.000    0.000    2.333 
#    9.000    0.000    0.000    0.000    0.000    0.000 
#    0.000    0.000    0.000    0.000    0.000    0.000 
#
# Total GULP energy -267906.050226 kJ/mol
# GULP energy per Si atom -5581.376046 kJ/mol
# Density = 1.981455 g / cm^3
# Si number density = 19.859747 Si / 1000 Ang^3
#
#
#
# Elastic Constant Matrix: (Units=GPa)
#
#
# Indices 1 2 3 4 5 6 
#
# 1 46.1476 10.7170 20.5792 0.0000 0.0000 0.0001
# 2 10.7170 46.1476 20.5792 0.0000 0.0000 -0.0001
# 3 20.5792 20.5792 110.0381 0.0000 0.0000 0.0000
# 4 0.0000 0.0000 0.0000 -5.0793 0.0000 0.0000
# 5 0.0000 0.0000 0.0000 0.0000 -5.0793 0.0000
# 6 0.0001 -0.0001 0.0000 0.0000 0.0000 18.7275
#
#
#
# Elastic Compliance Matrix: (Units=1/GPa)
#
#
# Indices 1 2 3 4 5 6 
#
# 1 0.024281 -0.003943 -0.003804 0.000000 0.000000 0.000000
# 2 -0.003943 0.024281 -0.003804 0.000000 0.000000 0.000000
# 3 -0.003804 -0.003804 0.010511 0.000000 0.000000 0.000000
# 4 0.000000 0.000000 0.000000 -0.196877 0.000000 0.000000
# 5 0.000000 0.000000 0.000000 0.000000 -0.196877 0.000000
# 6 0.000000 0.000000 0.000000 0.000000 0.000000 0.053397
#
#
# Mechanical properties :
#
#
# Convention : Reuss Voigt Hill
#
# Bulk Modulus (GPa) = 27.79856 34.00936 30.90396
# Shear Modulus (GPa) = -20.30940 11.74429 -4.28255
#
# Velocity S-wave (km/s) = -3.20135 2.43443 -1.47006
# Velocity P-wave (km/s) = 0.60250 5.00638 3.56559
#
# Compressibility (1/GPa) = 0.03597309
#
# Stress axis : x y z
#
# Youngs Moduli (GPa) = 41.18363 41.18363 95.14292
#
# Poissons Ratio (x) = 0.16238 0.36190
# Poissons Ratio (y) = 0.16238 0.36190
# Poissons Ratio (z) = 0.15665 0.15665
#
# Static dielectric constant tensor:
#      x y z
#    x 1.705610 0.000000 0.000000 
#    y 0.000000 1.705610 0.000000 
#    z 0.000000 0.000000 1.705600 
# 
# From -- ./inp_files/2928.got.cif
#   From: 2010.05.17/outbox.cif.g08.bks.cpg/sg108_2_cif.got.tgz:2928.got - 2010.05.20 10:49:05.
