data_PCOD9554317
_publ_section_title
;
Structure prediction by ZEFSAII (Michael W. Deem and Ramdas Pophale) SiO2 
 PCOD9554317
Probable space group: I 41 M D
;
_chemical_formula_sum "Si O2"
_cell_formula_units_Z 28
_cell_length_a 11.404471
_cell_length_b 11.404471
_cell_length_c 7.997233
_cell_angle_alpha 90.000000
_cell_angle_beta 90.000000
_cell_angle_gamma 90.000000
_cell_volume 1040.135789
_symmetry_space_group_name_H-M "I 41 M D"
_symmetry_group_IT_number 109
_symmetry_cell_setting 'tetragonal'
loop_
_space_group_symop_operation_xyz
x,y,z
-y,1/2+x,1/4+z
-x,-y,z
y,1/2-x,1/4+z
-x,y,z
x,-y,z
-y,1/2-x,1/4+z
y,1/2+x,1/4+z
1/2+x,1/2+y,1/2+z
1/2-y,x,3/4+z
1/2-x,1/2-y,1/2+z
1/2+y,-x,3/4+z
1/2-x,1/2+y,1/2+z
1/2+x,1/2-y,1/2+z
1/2-y,-x,3/4+z
1/2+y,x,3/4+z
loop_
_atom_site_type_symbol
_atom_site_label
_atom_site_fract_x
_atom_site_fract_y
_atom_site_fract_z
Si Si1 0.136294 0.316506 0.356890
Si Si2 0.500000 0.732872 0.346856
Si Si3 0.000000 0.000000 0.616181
O O1 0.186228 0.343021 0.538672
O O2 0.209160 0.392052 0.222985
O O3 0.000000 0.345884 0.344308
O O4 0.500000 0.624418 0.218010
O O5 0.500000 0.868200 0.290766
#
# Coordination Sequence:
#
# PCOD9554317 Si02
#       3
#    16   8   4
#     4  12  24  45  75 105 146 195 250 305 376 446
#     4  12  20  40  72  96 134 193 233 297 355 446
#     4  12  24  40  72  96 138 186 258 270 384 420
#
# _framework density 26.919561999999999
#
# number of rings (size 3 to 8) (size 9 to 14) (size 15 to 20)
#    0.000    0.000   11.429    0.000    0.000    0.000 
#   10.286    0.000    0.000    0.000    0.000    0.000 
#    0.000    0.000    0.000    0.000    0.000    0.000 
#
# Total GULP energy -78469.153058 kJ/mol
# GULP energy per Si atom -5604.939504 kJ/mol
# Density = 2.685829 g / cm^3
# Si number density = 26.919562 Si / 1000 Ang^3
#
#
#
# Elastic Constant Matrix: (Units=GPa)
#
#
# Indices 1 2 3 4 5 6 
#
# 1 210.8039 40.9555 46.3872 0.0000 0.0000 0.0000
# 2 40.9555 210.8039 46.3872 0.0000 0.0000 0.0000
# 3 46.3872 46.3872 51.8327 0.0000 0.0000 0.0000
# 4 0.0000 0.0000 0.0000 39.0278 0.0000 0.0000
# 5 0.0000 0.0000 0.0000 0.0000 39.0278 0.0000
# 6 0.0000 0.0000 0.0000 0.0000 0.0000 1.3314
#
#
#
# Elastic Compliance Matrix: (Units=1/GPa)
#
#
# Indices 1 2 3 4 5 6 
#
# 1 0.005907 0.000019 -0.005304 0.000000 0.000000 0.000000
# 2 0.000019 0.005907 -0.005304 0.000000 0.000000 0.000000
# 3 -0.005304 -0.005304 0.028786 0.000000 0.000000 0.000000
# 4 0.000000 0.000000 0.000000 0.025623 0.000000 0.000000
# 5 0.000000 0.000000 0.000000 0.000000 0.025623 0.000000
# 6 0.000000 0.000000 0.000000 0.000000 0.000000 0.751108
#
#
# Mechanical properties :
#
#
# Convention : Reuss Voigt Hill
#
# Bulk Modulus (GPa) = 51.48360 82.32227 66.90294
# Shear Modulus (GPa) = 5.74313 38.52476 22.13395
#
# Velocity S-wave (km/s) = 1.46222 3.78710 2.87056
# Velocity P-wave (km/s) = 4.69226 7.05479 5.99113
#
# Compressibility (1/GPa) = 0.01942366
#
# Stress axis : x y z
#
# Youngs Moduli (GPa) = 169.28816 169.28816 34.73881
#
# Poissons Ratio (x) = -0.00330 0.18425
# Poissons Ratio (y) = -0.00330 0.18425
# Poissons Ratio (z) = 0.89789 0.89789
#
# Static dielectric constant tensor:
#      x y z
#    x 2.183070 0.000000 0.000000 
#    y 0.000000 2.183070 0.000000 
#    z 0.000000 0.000000 2.085120 
# 
# From -- ./inp_files/772.got.cif
#   From: 2010.05.17/outbox.cif.g08.bks.cpg/sg109_1_cif.got.tgz:772.got - 2010.05.20 10:51:12.
