data_PCOD9554293
_publ_section_title
;
Structure prediction by ZEFSAII (Michael W. Deem and Ramdas Pophale) SiO2 
 PCOD9554293
Probable space group: I 41 M D
;
_chemical_formula_sum "Si O2"
_cell_formula_units_Z 112
_cell_length_a 31.812352
_cell_length_b 31.812352
_cell_length_c 5.569082
_cell_angle_alpha 90.000000
_cell_angle_beta 90.000000
_cell_angle_gamma 90.000000
_cell_volume 5636.054331
_symmetry_space_group_name_H-M "I 41 M D"
_symmetry_group_IT_number 109
_symmetry_cell_setting 'tetragonal'
loop_
_space_group_symop_operation_xyz
x,y,z
-y,1/2+x,1/4+z
-x,-y,z
y,1/2-x,1/4+z
-x,y,z
x,-y,z
-y,1/2-x,1/4+z
y,1/2+x,1/4+z
1/2+x,1/2+y,1/2+z
1/2-y,x,3/4+z
1/2-x,1/2-y,1/2+z
1/2+y,-x,3/4+z
1/2-x,1/2+y,1/2+z
1/2+x,1/2-y,1/2+z
1/2-y,-x,3/4+z
1/2+y,x,3/4+z
loop_
_atom_site_type_symbol
_atom_site_label
_atom_site_fract_x
_atom_site_fract_y
_atom_site_fract_z
Si Si1 0.391498 0.854918 0.399800
Si Si2 0.325905 0.711730 0.719850
Si Si3 0.719716 0.332235 0.095883
Si Si4 0.136718 0.616277 0.383854
Si Si5 0.757554 0.403327 0.786097
Si Si6 0.289760 0.452090 0.397517
Si Si7 0.547825 0.696670 0.415708
O O1 0.348729 0.826892 0.402443
O O2 0.390575 0.883135 0.639721
O O3 0.428829 0.822192 0.468822
O O4 0.388036 0.878218 0.139221
O O5 0.315609 0.749728 0.546365
O O6 0.342337 0.666850 0.622549
O O7 0.287262 0.700595 0.886820
O O8 0.367990 0.726416 0.855548
O O9 0.741653 0.374449 0.002360
O O10 0.166897 0.576209 0.333847
O O11 0.720167 0.427868 0.648390
O O12 0.793951 0.432011 0.902623
O O13 0.303150 0.500000 0.442454
O O14 0.243350 0.453247 0.280230
O O15 0.500000 0.681462 0.395572
#
# Coordination Sequence:
#
# PCOD9554293 Si02
#       7
#    16  16  16  16  16  16  16
#     4  11  22  39  61  85 113 159 205 242 301 374
#     4  11  23  35  58  78 105 151 210 265 317 367
#     4  11  23  35  58  78 105 151 210 265 317 367
#     4  11  22  39  61  85 113 159 205 242 301 374
#     4  12  19  40  56  80 118 154 210 242 328 380
#     4  11  22  36  56  91 127 158 197 252 313 381
#     4  11  22  36  56  91 127 158 197 252 313 381
#
# _framework density 19.872059
#
# number of rings (size 3 to 8) (size 9 to 14) (size 15 to 20)
#    0.000    0.857    5.714    3.857    0.000    0.000 
#    0.000    0.000    3.143    1.714    0.000    0.000 
#    0.000    3.429    0.000    0.000    0.000    0.000 
#
# Total GULP energy -312367.594596 kJ/mol
# GULP energy per Si atom -5577.992761 kJ/mol
# Density = 1.982683 g / cm^3
# Si number density = 19.872059 Si / 1000 Ang^3
#
#
#
# Elastic Constant Matrix: (Units=GPa)
#
#
# Indices 1 2 3 4 5 6 
#
# 1 75.5566 21.9357 25.1097 0.0000 0.0000 0.0000
# 2 21.9357 75.5566 25.1097 0.0000 0.0000 0.0000
# 3 25.1097 25.1097 89.2735 0.0000 0.0000 0.0000
# 4 0.0000 0.0000 0.0000 22.8156 0.0000 0.0000
# 5 0.0000 0.0000 0.0000 0.0000 22.8156 0.0000
# 6 0.0000 0.0000 0.0000 0.0000 0.0000 14.5803
#
#
#
# Elastic Compliance Matrix: (Units=1/GPa)
#
#
# Indices 1 2 3 4 5 6 
#
# 1 0.015322 -0.003327 -0.003374 0.000000 0.000000 0.000000
# 2 -0.003327 0.015322 -0.003374 0.000000 0.000000 0.000000
# 3 -0.003374 -0.003374 0.013099 0.000000 0.000000 0.000000
# 4 0.000000 0.000000 0.000000 0.043830 0.000000 0.000000
# 5 0.000000 0.000000 0.000000 0.000000 0.043830 0.000000
# 6 0.000000 0.000000 0.000000 0.000000 0.000000 0.068586
#
#
# Mechanical properties :
#
#
# Convention : Reuss Voigt Hill
#
# Bulk Modulus (GPa) = 42.38304 42.74408 42.56356
# Shear Modulus (GPa) = 21.92950 23.25775 22.59363
#
# Velocity S-wave (km/s) = 3.32555 3.42478 3.37553
# Velocity P-wave (km/s) = 6.00999 6.09879 6.05455
#
# Compressibility (1/GPa) = 0.02359435
#
# Stress axis : x y z
#
# Youngs Moduli (GPa) = 65.26442 65.26442 76.33917
#
# Poissons Ratio (x) = 0.21715 0.25756
# Poissons Ratio (y) = 0.21715 0.25756
# Poissons Ratio (z) = 0.22019 0.22019
#
# Static dielectric constant tensor:
#      x y z
#    x 1.719630 0.000000 0.000000 
#    y 0.000000 1.719630 0.000000 
#    z 0.000000 0.000000 1.880160 
# 
# From -- ./inp_files/732.got.cif
#   From: 2010.05.17/outbox.cif.g08.bks.cpg/sg109_1_cif.got.tgz:732.got - 2010.05.20 10:51:12.
