data_PCOD9554247
_publ_section_title
;
Structure prediction by ZEFSAII (Michael W. Deem and Ramdas Pophale) SiO2 
 PCOD9554247
Probable space group: I 41 M D
;
_chemical_formula_sum "Si O2"
_cell_formula_units_Z 80
_cell_length_a 18.306890
_cell_length_b 18.306890
_cell_length_c 12.437754
_cell_angle_alpha 90.000000
_cell_angle_beta 90.000000
_cell_angle_gamma 90.000000
_cell_volume 4168.416506
_symmetry_space_group_name_H-M "I 41 M D"
_symmetry_group_IT_number 109
_symmetry_cell_setting 'tetragonal'
loop_
_space_group_symop_operation_xyz
x,y,z
-y,1/2+x,1/4+z
-x,-y,z
y,1/2-x,1/4+z
-x,y,z
x,-y,z
-y,1/2-x,1/4+z
y,1/2+x,1/4+z
1/2+x,1/2+y,1/2+z
1/2-y,x,3/4+z
1/2-x,1/2-y,1/2+z
1/2+y,-x,3/4+z
1/2-x,1/2+y,1/2+z
1/2+x,1/2-y,1/2+z
1/2-y,-x,3/4+z
1/2+y,x,3/4+z
loop_
_atom_site_type_symbol
_atom_site_label
_atom_site_fract_x
_atom_site_fract_y
_atom_site_fract_z
Si Si1 0.156663 0.293775 0.315260
Si Si2 0.820646 0.171559 0.827709
Si Si3 0.686948 0.587045 0.109495
Si Si4 0.917283 0.415116 0.448924
Si Si5 0.414287 0.652010 0.924239
O O1 0.133005 0.310357 0.193164
O O2 0.244161 0.285007 0.309409
O O3 0.138390 0.363979 0.386833
O O4 0.118319 0.226046 0.372969
O O5 0.829676 0.116731 0.729062
O O6 0.884543 0.231216 0.833531
O O7 0.681774 0.500000 0.103121
O O8 0.632084 0.624843 0.025122
O O9 0.905569 0.500000 0.421983
O O10 0.905554 0.407936 0.576489
O O11 0.000000 0.394344 0.420328
O O12 0.500000 0.661534 0.950097
#
# Coordination Sequence:
#
# PCOD9554247 Si02
#       5
#    16  16  16  16  16
#     4  11  20  41  66  92 125 165 216 268 318 375
#     4  10  24  42  65  91 126 167 213 264 314 382
#     4  11  25  43  64  93 131 169 211 264 321 382
#     4  10  22  38  59  92 129 163 206 265 326 383
#     4  11  23  39  64  94 127 168 212 260 317 383
#
# _framework density 19.191939999999999
#
# number of rings (size 3 to 8) (size 9 to 14) (size 15 to 20)
#    0.000    1.400    2.000    3.600    2.800    6.800 
#    0.000    0.000    0.000    0.000    0.000    0.000 
#    0.000    0.000    0.000    0.000    0.000    0.000 
#
# Total GULP energy -223466.483620 kJ/mol
# GULP energy per Si atom -5586.662091 kJ/mol
# Density = 1.914826 g / cm^3
# Si number density = 19.191940 Si / 1000 Ang^3
#
#
#
# Elastic Constant Matrix: (Units=GPa)
#
#
# Indices 1 2 3 4 5 6 
#
# 1 83.6921 53.6629 65.0279 0.0000 0.0000 0.0000
# 2 53.6629 83.6921 65.0279 0.0000 0.0000 0.0000
# 3 65.0279 65.0279 142.5680 0.0000 0.0000 0.0000
# 4 0.0000 0.0000 0.0000 17.0606 0.0000 0.0000
# 5 0.0000 0.0000 0.0000 0.0000 17.0606 0.0000
# 6 0.0000 0.0000 0.0000 0.0000 0.0000 16.5178
#
#
#
# Elastic Compliance Matrix: (Units=1/GPa)
#
#
# Indices 1 2 3 4 5 6 
#
# 1 0.023058 -0.010243 -0.005845 0.000000 0.000000 0.000000
# 2 -0.010243 0.023058 -0.005845 0.000000 0.000000 0.000000
# 3 -0.005845 -0.005845 0.012346 0.000000 0.000000 0.000000
# 4 0.000000 0.000000 0.000000 0.058615 0.000000 0.000000
# 5 0.000000 0.000000 0.000000 0.000000 0.058615 0.000000
# 6 0.000000 0.000000 0.000000 0.000000 0.000000 0.060541
#
#
# Mechanical properties :
#
#
# Convention : Reuss Voigt Hill
#
# Bulk Modulus (GPa) = 68.51344 75.26552 71.88948
# Shear Modulus (GPa) = 17.54609 18.54337 18.04473
#
# Velocity S-wave (km/s) = 3.02693 3.11176 3.06963
# Velocity P-wave (km/s) = 6.92769 7.22586 7.07835
#
# Compressibility (1/GPa) = 0.01459568
#
# Stress axis : x y z
#
# Youngs Moduli (GPa) = 43.36899 43.36899 80.99564
#
# Poissons Ratio (x) = 0.44423 0.47343
# Poissons Ratio (y) = 0.44423 0.47343
# Poissons Ratio (z) = 0.25350 0.25350
#
# Static dielectric constant tensor:
#      x y z
#    x 1.659960 0.000000 0.000000 
#    y 0.000000 1.659960 0.000000 
#    z 0.000000 0.000000 1.681710 
# 
# From -- ./inp_files/2488.got.cif
#   From: 2010.05.17/outbox.cif.g08.bks.cpg/sg109_2_cif.got.tgz:2488.got - 2010.05.20 10:51:12.
