data_PCOD9554875
_publ_section_title
;
Structure prediction by ZEFSAII (Michael W. Deem and Ramdas Pophale) SiO2 
 PCOD9554875
Probable space group: P -4 2 M 
;
_chemical_formula_sum "Si O2"
_cell_formula_units_Z 48
_cell_length_a 11.940546
_cell_length_b 11.940546
_cell_length_c 17.294263
_cell_angle_alpha 90.000000
_cell_angle_beta 90.000000
_cell_angle_gamma 90.000000
_cell_volume 2465.757889
_symmetry_space_group_name_H-M "P -4 2 M "
_symmetry_group_IT_number 111
_symmetry_cell_setting 'tetragonal'
loop_
_space_group_symop_operation_xyz
x,y,z
y,-x,-z
-x,-y,z
-y,x,-z
x,-y,-z
-x,y,-z
-y,-x,z
y,x,z
loop_
_atom_site_type_symbol
_atom_site_label
_atom_site_fract_x
_atom_site_fract_y
_atom_site_fract_z
Si Si1 0.245004 0.581093 0.568472
Si Si2 0.863153 0.326273 0.266316
Si Si3 0.815323 0.366730 0.994113
Si Si4 0.988855 0.365627 0.588364
Si Si5 0.999701 0.634300 0.875856
Si Si6 0.504839 0.319226 0.730084
O O1 0.206206 0.500000 0.500000
O O2 0.332920 0.667081 0.533377
O O3 0.142358 0.648414 0.606870
O O4 0.304444 0.515024 0.637502
O O5 0.770742 0.229259 0.259846
O O6 0.963159 0.314494 0.205053
O O7 0.798233 0.444735 0.247214
O O8 0.919664 0.324264 0.350938
O O9 0.702985 0.297016 0.000959
O O10 0.882190 0.337755 0.915377
O O11 0.796577 0.500000 0.000000
O O12 0.901474 0.337210 0.062986
O O13 0.000000 0.500000 0.591146
O O14 0.000000 0.325423 0.500000
O O15 0.000000 0.500000 0.868897
O O16 0.624963 0.375038 0.755153
O O17 0.413123 0.413123 0.749543
#
# Coordination Sequence:
#
# PCOD9554875 Si02
#       6
#     8   8   8   8   8   8
#     4  11  20  32  52  77 105 141 183 237 304 367
#     4  11  21  35  59  83 111 157 205 250 301 355
#     4   9  18  36  61  93 127 156 189 232 287 348
#     4  11  20  35  52  75 110 149 201 253 297 361
#     4   9  19  35  60  88 119 159 199 237 278 343
#     4   9  18  30  45  74 113 145 180 232 296 359
#
# _framework density 19.466632000000001
#
# number of rings (size 3 to 8) (size 9 to 14) (size 15 to 20)
#    0.000    2.000    3.333    2.500    0.000    3.000 
#    0.000    4.167    0.000   14.000    0.000    1.167 
#    0.000    0.000    0.000    0.000    0.000    0.000 
#
# Total GULP energy -267306.111887 kJ/mol
# GULP energy per Si atom -5568.877331 kJ/mol
# Density = 1.942233 g / cm^3
# Si number density = 19.466632 Si / 1000 Ang^3
#
#
#
# Elastic Constant Matrix: (Units=GPa)
#
#
# Indices 1 2 3 4 5 6 
#
# 1 64.6242 30.0286 23.5229 0.0000 0.0000 0.0000
# 2 30.0286 64.6225 23.5221 0.0000 0.0000 0.0000
# 3 23.5229 23.5221 72.6926 0.0000 0.0000 0.0000
# 4 0.0000 0.0000 0.0000 17.5714 0.0000 0.0000
# 5 0.0000 0.0000 0.0000 0.0000 17.5713 0.0000
# 6 0.0000 0.0000 0.0000 0.0000 0.0000 16.7818
#
#
#
# Elastic Compliance Matrix: (Units=1/GPa)
#
#
# Indices 1 2 3 4 5 6 
#
# 1 0.020748 -0.008158 -0.004074 0.000000 0.000000 0.000000
# 2 -0.008158 0.020748 -0.004074 0.000000 0.000000 0.000000
# 3 -0.004074 -0.004074 0.016393 0.000000 0.000000 0.000000
# 4 0.000000 0.000000 0.000000 0.056911 0.000000 0.000000
# 5 0.000000 0.000000 0.000000 0.000000 0.056911 0.000000
# 6 0.000000 0.000000 0.000000 0.000000 0.000000 0.059589
#
#
# Mechanical properties :
#
#
# Convention : Reuss Voigt Hill
#
# Bulk Modulus (GPa) = 39.56145 39.56517 39.56331
# Shear Modulus (GPa) = 18.35960 18.70927 18.53443
#
# Velocity S-wave (km/s) = 3.07438 3.10352 3.08898
# Velocity P-wave (km/s) = 5.74188 5.76291 5.75241
#
# Compressibility (1/GPa) = 0.02527713
#
# Stress axis : x y z
#
# Youngs Moduli (GPa) = 48.19784 48.19687 61.00115
#
# Poissons Ratio (x) = 0.39320 0.24852
# Poissons Ratio (y) = 0.39320 0.24851
# Poissons Ratio (z) = 0.19636 0.19635
#
# Static dielectric constant tensor:
#      x y z
#    x 1.726010 0.000000 0.000000 
#    y 0.000000 1.726010 0.000000 
#    z 0.000000 0.000000 1.714610 
# 
# From -- ./inp_files/3661.got.cif
#   From: 2010.05.17/outbox.cif.g08.bks.cpg/sg111_2_cif.got.tgz:3661.got - 2010.05.20 10:56:05.
