data_PCOD9554890
_publ_section_title
;
Structure prediction by ZEFSAII (Michael W. Deem and Ramdas Pophale) SiO2 
 PCOD9554890
Probable space group: P -4 2 M 
;
_chemical_formula_sum "Si O2"
_cell_formula_units_Z 24
_cell_length_a 13.741121
_cell_length_b 13.741121
_cell_length_c 6.492324
_cell_angle_alpha 90.000000
_cell_angle_beta 90.000000
_cell_angle_gamma 90.000000
_cell_volume 1225.870271
_symmetry_space_group_name_H-M "P -4 2 M "
_symmetry_group_IT_number 111
_symmetry_cell_setting 'tetragonal'
loop_
_space_group_symop_operation_xyz
x,y,z
y,-x,-z
-x,-y,z
-y,x,-z
x,-y,-z
-x,y,-z
-y,-x,z
y,x,z
loop_
_atom_site_type_symbol
_atom_site_label
_atom_site_fract_x
_atom_site_fract_y
_atom_site_fract_z
Si Si1 0.598655 0.598655 0.620288
Si Si2 0.251756 0.251756 0.788070
Si Si3 0.500000 0.500000 0.000000
Si Si4 0.317174 0.096572 0.105441
Si Si5 0.000000 0.500000 0.000000
Si Si6 0.000000 0.000000 0.500000
Si Si7 0.843457 0.156544 0.584363
O O1 0.631090 0.500000 0.500000
O O2 0.680347 0.680347 0.646698
O O3 0.565128 0.565128 0.847818
O O4 0.183314 0.183314 0.648260
O O5 0.313201 0.182811 0.939628
O O6 0.254913 0.122968 0.302592
O O7 0.428352 0.065045 0.137459
O O8 0.271904 0.000000 0.000000
O O9 0.074374 0.925627 0.611089
#
# Coordination Sequence:
#
# PCOD9554890 Si02
#       7
#     4   4   1   8   2   1   4
#     4   9  21  38  59  95 126 159 209 253 306 372
#     4  11  22  36  63  93 125 161 209 259 308 374
#     4   8  18  40  60  78 124 168 206 244 312 362
#     4   9  21  41  59  87 123 160 214 251 307 377
#     4   8  20  42  62  82 124 168 192 264 320 346
#     4  12  24  40  70  84 128 174 196 268 334 336
#     4  11  23  39  62  93 125 163 216 256 314 379
#
# _framework density 19.577928
#
# number of rings (size 3 to 8) (size 9 to 14) (size 15 to 20)
#    1.000    1.500    0.000    2.000    0.000   10.667 
#    0.000    5.000    0.000    0.000    0.000    0.000 
#    0.000    0.000    0.000    0.000    0.000    0.000 
#
# Total GULP energy -133658.070887 kJ/mol
# GULP energy per Si atom -5569.086287 kJ/mol
# Density = 1.953337 g / cm^3
# Si number density = 19.577928 Si / 1000 Ang^3
#
#
#
# Elastic Constant Matrix: (Units=GPa)
#
#
# Indices 1 2 3 4 5 6 
#
# 1 108.0804 53.6535 25.5190 0.0000 0.0000 0.0000
# 2 53.6535 108.0805 25.5195 0.0000 0.0000 0.0000
# 3 25.5190 25.5195 63.1539 0.0000 0.0000 0.0000
# 4 0.0000 0.0000 0.0000 8.9098 0.0000 0.0000
# 5 0.0000 0.0000 0.0000 0.0000 8.9097 0.0000
# 6 0.0000 0.0000 0.0000 0.0000 0.0000 35.2359
#
#
#
# Elastic Compliance Matrix: (Units=1/GPa)
#
#
# Indices 1 2 3 4 5 6 
#
# 1 0.012730 -0.005643 -0.002863 0.000000 0.000000 0.000000
# 2 -0.005643 0.012730 -0.002864 0.000000 0.000000 0.000000
# 3 -0.002863 -0.002864 0.018149 0.000000 0.000000 0.000000
# 4 0.000000 0.000000 0.000000 0.112236 0.000000 0.000000
# 5 0.000000 0.000000 0.000000 0.000000 0.112237 0.000000
# 6 0.000000 0.000000 0.000000 0.000000 0.000000 0.028380
#
#
# Mechanical properties :
#
#
# Convention : Reuss Voigt Hill
#
# Bulk Modulus (GPa) = 47.92128 54.29989 51.11058
# Shear Modulus (GPa) = 15.32999 22.25261 18.79130
#
# Velocity S-wave (km/s) = 2.80129 3.37503 3.10146
# Velocity P-wave (km/s) = 5.91552 6.55616 6.24406
#
# Compressibility (1/GPa) = 0.02086756
#
# Stress axis : x y z
#
# Youngs Moduli (GPa) = 78.55501 78.55473 55.10079
#
# Poissons Ratio (x) = 0.44331 0.15778
# Poissons Ratio (y) = 0.44331 0.15779
# Poissons Ratio (z) = 0.22494 0.22495
#
# Static dielectric constant tensor:
#      x y z
#    x 1.700530 0.000000 0.000000 
#    y 0.000000 1.700530 0.000000 
#    z 0.000000 0.000000 1.658650 
# 
# From -- ./inp_files/295.got.cif
#   From: 2010.05.17/outbox.cif.g08.bks.cpg/sg111_1_cif.got.tgz:295.got - 2010.05.20 10:56:05.
