data_PCOD9554109
_publ_section_title
;
Structure prediction by ZEFSAII (Michael W. Deem and Ramdas Pophale) SiO2 
 PCOD9554109
Probable space group: I 41 M D
;
_chemical_formula_sum "Si O2"
_cell_formula_units_Z 96
_cell_length_a 21.770921
_cell_length_b 21.770921
_cell_length_c 9.112037
_cell_angle_alpha 90.000000
_cell_angle_beta 90.000000
_cell_angle_gamma 90.000000
_cell_volume 4318.859524
_symmetry_space_group_name_H-M "I 41 M D"
_symmetry_group_IT_number 109
_symmetry_cell_setting 'tetragonal'
loop_
_space_group_symop_operation_xyz
x,y,z
-y,1/2+x,1/4+z
-x,-y,z
y,1/2-x,1/4+z
-x,y,z
x,-y,z
-y,1/2-x,1/4+z
y,1/2+x,1/4+z
1/2+x,1/2+y,1/2+z
1/2-y,x,3/4+z
1/2-x,1/2-y,1/2+z
1/2+y,-x,3/4+z
1/2-x,1/2+y,1/2+z
1/2+x,1/2-y,1/2+z
1/2-y,-x,3/4+z
1/2+y,x,3/4+z
loop_
_atom_site_type_symbol
_atom_site_label
_atom_site_fract_x
_atom_site_fract_y
_atom_site_fract_z
Si Si1 0.719327 0.798941 0.691610
Si Si2 0.933316 0.371734 0.971430
Si Si3 0.932851 0.323468 0.646947
Si Si4 0.313950 0.070442 0.388283
Si Si5 0.869923 0.194338 0.322184
Si Si6 0.932840 0.228997 0.048180
O O1 0.784522 0.784555 0.769724
O O2 0.675866 0.749207 0.773727
O O3 0.705228 0.868871 0.730229
O O4 0.934902 0.363488 0.794405
O O5 0.871036 0.409375 0.987919
O O6 0.928643 0.303409 0.039405
O O7 0.000000 0.397624 0.017041
O O8 0.927001 0.253956 0.706374
O O9 0.873679 0.341102 0.552118
O O10 0.000000 0.328071 0.572344
O O11 0.325196 0.000000 0.343485
O O12 0.305386 0.111069 0.241570
O O13 0.927162 0.205753 0.215401
O O14 0.000000 0.211559 0.987945
#
# Coordination Sequence:
#
# PCOD9554109 Si02
#       6
#    16  16  16  16  16  16
#     4  10  22  34  56  89 117 152 193 255 309 361
#     4   9  20  35  51  74 109 147 185 232 281 341
#     4   9  19  34  53  81 114 144 178 233 300 350
#     4  10  19  32  54  78 106 144 182 230 285 343
#     4  10  20  35  55  83 113 143 189 242 294 356
#     4  10  21  36  53  78 114 155 192 235 294 353
#
# _framework density 22.228089000000001
#
# number of rings (size 3 to 8) (size 9 to 14) (size 15 to 20)
#    0.000    2.333    0.000    2.500    7.000    1.667 
#    0.000    0.000    0.000    1.500    0.000    0.000 
#    0.000    4.000    0.000    0.000    0.000    0.000 
#
# Total GULP energy -267823.277923 kJ/mol
# GULP energy per Si atom -5579.651623 kJ/mol
# Density = 2.217750 g / cm^3
# Si number density = 22.228089 Si / 1000 Ang^3
#
#
#
# Elastic Constant Matrix: (Units=GPa)
#
#
# Indices 1 2 3 4 5 6 
#
# 1 115.3470 35.1510 8.5373 0.0000 0.0000 0.0000
# 2 35.1510 115.3470 8.5373 0.0000 0.0000 0.0000
# 3 8.5373 8.5373 51.5058 0.0000 0.0000 0.0000
# 4 0.0000 0.0000 0.0000 28.3927 0.0000 0.0000
# 5 0.0000 0.0000 0.0000 0.0000 28.3927 0.0000
# 6 0.0000 0.0000 0.0000 0.0000 0.0000 13.1163
#
#
#
# Elastic Compliance Matrix: (Units=1/GPa)
#
#
# Indices 1 2 3 4 5 6 
#
# 1 0.009621 -0.002849 -0.001122 0.000000 0.000000 0.000000
# 2 -0.002849 0.009621 -0.001122 0.000000 0.000000 0.000000
# 3 -0.001122 -0.001122 0.019787 0.000000 0.000000 0.000000
# 4 0.000000 0.000000 0.000000 0.035220 0.000000 0.000000
# 5 0.000000 0.000000 0.000000 0.000000 0.035220 0.000000
# 6 0.000000 0.000000 0.000000 0.000000 0.000000 0.076241
#
#
# Mechanical properties :
#
#
# Convention : Reuss Voigt Hill
#
# Bulk Modulus (GPa) = 34.67240 42.96124 38.81682
# Shear Modulus (GPa) = 24.32951 29.31193 26.82072
#
# Velocity S-wave (km/s) = 3.31197 3.63531 3.47740
# Velocity P-wave (km/s) = 5.50071 6.08195 5.79862
#
# Compressibility (1/GPa) = 0.02884138
#
# Stress axis : x y z
#
# Youngs Moduli (GPa) = 103.94248 103.94248 50.53717
#
# Poissons Ratio (x) = 0.29611 0.05673
# Poissons Ratio (y) = 0.29611 0.05673
# Poissons Ratio (z) = 0.11667 0.11667
#
# Static dielectric constant tensor:
#      x y z
#    x 1.880140 0.000000 0.000000 
#    y 0.000000 1.880140 0.000000 
#    z 0.000000 0.000000 1.904970 
# 
# From -- ./inp_files/2040.got.cif
#   From: 2010.05.17/outbox.cif.g08.bks.cpg/sg109_2_cif.got.tgz:2040.got - 2010.05.20 10:51:12.
