data_PCOD9554548
_publ_section_title
;
Structure prediction by ZEFSAII (Michael W. Deem and Ramdas Pophale) SiO2 
 PCOD9554548
Probable space group: I 41 C D
;
_chemical_formula_sum "Si O2"
_cell_formula_units_Z 88
_cell_length_a 11.474939
_cell_length_b 11.474939
_cell_length_c 28.444562
_cell_angle_alpha 90.000000
_cell_angle_beta 90.000000
_cell_angle_gamma 90.000000
_cell_volume 3745.415658
_symmetry_space_group_name_H-M "I 41 C D"
_symmetry_group_IT_number 110
_symmetry_cell_setting 'tetragonal'
loop_
_space_group_symop_operation_xyz
x,y,z
-y,1/2+x,1/4+z
-x,-y,z
y,1/2-x,1/4+z
-x,y,1/2+z
x,-y,1/2+z
1/2-y,-x,1/4+z
1/2+y,x,1/4+z
1/2+x,1/2+y,1/2+z
1/2-y,x,3/4+z
1/2-x,1/2-y,1/2+z
1/2+y,-x,3/4+z
1/2-x,1/2+y,z
1/2+x,1/2-y,z
-y,1/2-x,3/4+z
y,1/2+x,3/4+z
loop_
_atom_site_type_symbol
_atom_site_label
_atom_site_fract_x
_atom_site_fract_y
_atom_site_fract_z
Si Si1 0.900150 0.904143 0.591610
Si Si2 0.849243 0.910443 0.374474
Si Si3 0.424691 0.107988 0.714725
Si Si4 0.999646 0.203696 0.287703
Si Si5 0.033514 0.282535 0.427521
Si Si6 0.000000 0.000000 0.230411
O O1 0.940590 0.774711 0.602285
O O2 0.830368 0.953058 0.636146
O O3 0.797994 0.905400 0.553706
O O4 0.000000 0.000000 0.583817
O O5 0.931128 0.863417 0.330616
O O6 0.861067 0.796499 0.408256
O O7 0.872780 0.016009 0.412234
O O8 0.426778 0.215456 0.751063
O O9 0.299622 0.050335 0.707533
O O10 0.500000 0.000000 0.734417
O O11 0.939537 0.098153 0.261008
O O12 0.067466 0.401489 0.452296
#
# Coordination Sequence:
#
# PCOD9554548 Si02
#       6
#    16  16  16  16  16   8
#     4  11  24  45  72 103 145 186 248 305 379 459
#     4  10  25  45  74 104 148 191 246 316 385 450
#     4  10  23  46  75 101 148 191 253 309 382 448
#     4  11  27  42  71 110 145 196 241 310 376 462
#     4  10  24  44  72 102 140 194 240 310 374 449
#     4  12  26  44  66 108 146 188 258 296 372 462
#
# _framework density 23.495391999999999
#
# number of rings (size 3 to 8) (size 9 to 14) (size 15 to 20)
#    0.000    1.455    0.909    1.636   11.455    5.818 
#    0.000    0.000    0.000    0.000    0.000    0.000 
#    0.000    0.000    0.000    0.000    0.000    0.000 
#
# Total GULP energy -245069.750628 kJ/mol
# GULP energy per Si atom -5569.767060 kJ/mol
# Density = 2.344191 g / cm^3
# Si number density = 23.495392 Si / 1000 Ang^3
#
#
#
# Elastic Constant Matrix: (Units=GPa)
#
#
# Indices 1 2 3 4 5 6 
#
# 1 83.5667 -11.6042 18.1573 0.0000 0.0000 0.0000
# 2 -11.6042 83.5667 18.1573 0.0000 0.0000 0.0000
# 3 18.1573 18.1573 69.8778 0.0000 0.0000 0.0000
# 4 0.0000 0.0000 0.0000 -84.2045 0.0000 0.0000
# 5 0.0000 0.0000 0.0000 0.0000 -84.2045 0.0000
# 6 0.0000 0.0000 0.0000 0.0000 0.0000 17.0261
#
#
#
# Elastic Compliance Matrix: (Units=1/GPa)
#
#
# Indices 1 2 3 4 5 6 
#
# 1 0.013250 0.002743 -0.004156 0.000000 0.000000 0.000000
# 2 0.002743 0.013250 -0.004156 0.000000 0.000000 0.000000
# 3 -0.004156 -0.004156 0.016470 0.000000 0.000000 0.000000
# 4 0.000000 0.000000 0.000000 -0.011876 0.000000 0.000000
# 5 0.000000 0.000000 0.000000 0.000000 -0.011876 0.000000
# 6 0.000000 0.000000 0.000000 0.000000 0.000000 0.058733
#
#
# Mechanical properties :
#
#
# Convention : Reuss Voigt Hill
#
# Bulk Modulus (GPa) = 31.41307 31.82580 31.61943
# Shear Modulus (GPa) = 50.14978 -16.12323 17.01328
#
# Velocity S-wave (km/s) = 4.62502 -2.62244 2.69385
# Velocity P-wave (km/s) = 6.47457 2.09890 4.81277
#
# Compressibility (1/GPa) = 0.03183389
#
# Stress axis : x y z
#
# Youngs Moduli (GPa) = 75.46978 75.46978 60.71501
#
# Poissons Ratio (x) = -0.20701 0.25232
# Poissons Ratio (y) = -0.20701 0.25232
# Poissons Ratio (z) = 0.31363 0.31363
#
# Static dielectric constant tensor:
#      x y z
#    x 2.222260 0.000000 0.000000 
#    y 0.000000 2.222260 0.000000 
#    z 0.000000 0.000000 2.079900 
# 
# From -- ./inp_files/3148.got.cif
#   From: 2010.05.17/outbox.cif.g08.bks.cpg/sg110_2_cif.got.tgz:3148.got - 2010.05.20 10:54:03.
