data_PCOD9554143
_publ_section_title
;
Structure prediction by ZEFSAII (Michael W. Deem and Ramdas Pophale) SiO2 
 PCOD9554143
Probable space group: I 41 M D
;
_chemical_formula_sum "Si O2"
_cell_formula_units_Z 128
_cell_length_a 23.306977
_cell_length_b 23.306977
_cell_length_c 12.606632
_cell_angle_alpha 90.000000
_cell_angle_beta 90.000000
_cell_angle_gamma 90.000000
_cell_volume 6848.113832
_symmetry_space_group_name_H-M "I 41 M D"
_symmetry_group_IT_number 109
_symmetry_cell_setting 'tetragonal'
loop_
_space_group_symop_operation_xyz
x,y,z
-y,1/2+x,1/4+z
-x,-y,z
y,1/2-x,1/4+z
-x,y,z
x,-y,z
-y,1/2-x,1/4+z
y,1/2+x,1/4+z
1/2+x,1/2+y,1/2+z
1/2-y,x,3/4+z
1/2-x,1/2-y,1/2+z
1/2+y,-x,3/4+z
1/2-x,1/2+y,1/2+z
1/2+x,1/2-y,1/2+z
1/2-y,-x,3/4+z
1/2+y,x,3/4+z
loop_
_atom_site_type_symbol
_atom_site_label
_atom_site_fract_x
_atom_site_fract_y
_atom_site_fract_z
Si Si1 0.754364 0.645653 0.537920
Si Si2 0.568548 0.665360 0.654677
Si Si3 0.435659 0.255287 0.989183
Si Si4 0.327965 0.347478 0.225562
Si Si5 0.930760 0.064717 0.323278
Si Si6 0.875011 0.386289 0.778454
Si Si7 0.720166 0.653817 0.893756
Si Si8 0.807376 0.636243 0.208369
O O1 0.779994 0.603085 0.450067
O O2 0.745799 0.605839 0.640261
O O3 0.801586 0.693819 0.561390
O O4 0.696910 0.678157 0.511504
O O5 0.500000 0.672199 0.662080
O O6 0.584982 0.612496 0.734147
O O7 0.588867 0.661971 0.532825
O O8 0.500000 0.238482 0.965836
O O9 0.431050 0.322904 0.016191
O O10 0.408064 0.223955 0.089053
O O11 0.371106 0.384996 0.151351
O O12 0.327385 0.282444 0.180300
O O13 0.355106 0.335782 0.342083
O O14 0.262290 0.370497 0.214585
O O15 0.905575 0.079652 0.439639
O O16 0.000000 0.066992 0.331491
O O17 0.914220 0.000000 0.292099
O O18 0.850337 0.325519 0.736733
#
# Coordination Sequence:
#
# PCOD9554143 Si02
#       8
#    16  16  16  16  16  16  16  16
#     4  11  21  34  57  87 116 159 200 247 302 361
#     4  11  23  41  60  89 126 159 203 256 307 361
#     4  10  20  33  53  82 120 152 185 240 306 354
#     4  11  22  37  59  84 126 161 206 248 292 370
#     4  10  21  41  68  91 117 154 197 256 319 367
#     4  10  20  35  56  82 117 151 194 243 296 359
#     4  10  20  33  52  89 119 153 195 242 301 359
#     4  12  23  38  60  85 121 169 210 242 301 368
#
# _framework density 18.691279000000002
#
# number of rings (size 3 to 8) (size 9 to 14) (size 15 to 20)
#    0.000    1.375    5.000    2.250    3.500    0.500 
#    0.000    4.375    0.000    0.000    0.000    1.750 
#    0.000    0.000    0.000    0.000    0.000    0.000 
#
# Total GULP energy -356845.062196 kJ/mol
# GULP energy per Si atom -5575.704097 kJ/mol
# Density = 1.864874 g / cm^3
# Si number density = 18.691279 Si / 1000 Ang^3
#
#
#
# Elastic Constant Matrix: (Units=GPa)
#
#
# Indices 1 2 3 4 5 6 
#
# 1 46.1579 8.5902 19.6446 0.0000 0.0000 0.0000
# 2 8.5902 46.1579 19.6446 0.0000 0.0000 0.0000
# 3 19.6446 19.6446 102.8030 0.0000 0.0000 0.0000
# 4 0.0000 0.0000 0.0000 18.0189 0.0000 0.0000
# 5 0.0000 0.0000 0.0000 0.0000 18.0189 0.0000
# 6 0.0000 0.0000 0.0000 0.0000 0.0000 17.9254
#
#
#
# Elastic Compliance Matrix: (Units=1/GPa)
#
#
# Indices 1 2 3 4 5 6 
#
# 1 0.023893 -0.002725 -0.004045 0.000000 0.000000 0.000000
# 2 -0.002725 0.023893 -0.004045 0.000000 0.000000 0.000000
# 3 -0.004045 -0.004045 0.011273 0.000000 0.000000 0.000000
# 4 0.000000 0.000000 0.000000 0.055497 0.000000 0.000000
# 5 0.000000 0.000000 0.000000 0.000000 0.055497 0.000000
# 6 0.000000 0.000000 0.000000 0.000000 0.000000 0.055787
#
#
# Mechanical properties :
#
#
# Convention : Reuss Voigt Hill
#
# Bulk Modulus (GPa) = 26.71669 32.31973 29.51821
# Shear Modulus (GPa) = 19.23457 20.60860 19.92159
#
# Velocity S-wave (km/s) = 3.21139 3.32411 3.26824
# Velocity P-wave (km/s) = 5.29862 5.66232 5.48348
#
# Compressibility (1/GPa) = 0.03742979
#
# Stress axis : x y z
#
# Youngs Moduli (GPa) = 41.85239 41.85239 88.70537
#
# Poissons Ratio (x) = 0.11405 0.35882
# Poissons Ratio (y) = 0.11405 0.35882
# Poissons Ratio (z) = 0.16930 0.16930
#
# Static dielectric constant tensor:
#      x y z
#    x 1.646130 0.000000 0.000000 
#    y 0.000000 1.646130 0.000000 
#    z 0.000000 0.000000 1.743680 
# 
# From -- ./inp_files/2177.got.cif
#   From: 2010.05.17/outbox.cif.g08.bks.cpg/sg109_2_cif.got.tgz:2177.got - 2010.05.20 10:51:12.
