data_PCOD9554453
_publ_section_title
;
Structure prediction by ZEFSAII (Michael W. Deem and Ramdas Pophale) SiO2 
 PCOD9554453
Probable space group: I 41 C D
;
_chemical_formula_sum "Si O2"
_cell_formula_units_Z 120
_cell_length_a 19.142924
_cell_length_b 19.142924
_cell_length_c 15.639364
_cell_angle_alpha 90.000000
_cell_angle_beta 90.000000
_cell_angle_gamma 90.000000
_cell_volume 5731.069011
_symmetry_space_group_name_H-M "I 41 C D"
_symmetry_group_IT_number 110
_symmetry_cell_setting 'tetragonal'
loop_
_space_group_symop_operation_xyz
x,y,z
-y,1/2+x,1/4+z
-x,-y,z
y,1/2-x,1/4+z
-x,y,1/2+z
x,-y,1/2+z
1/2-y,-x,1/4+z
1/2+y,x,1/4+z
1/2+x,1/2+y,1/2+z
1/2-y,x,3/4+z
1/2-x,1/2-y,1/2+z
1/2+y,-x,3/4+z
1/2-x,1/2+y,z
1/2+x,1/2-y,z
-y,1/2-x,3/4+z
y,1/2+x,3/4+z
loop_
_atom_site_type_symbol
_atom_site_label
_atom_site_fract_x
_atom_site_fract_y
_atom_site_fract_z
Si Si1 0.786270 0.164862 0.250000
Si Si2 0.748589 0.905373 0.574782
Si Si3 0.000000 0.000000 0.586217
Si Si4 0.196151 0.861831 0.562961
Si Si5 0.948247 0.174651 0.861696
Si Si6 0.444752 0.885026 0.719352
Si Si7 0.635682 0.947928 0.918948
Si Si8 0.207959 0.047187 0.888771
O O1 0.764747 0.142628 0.155930
O O2 0.857868 0.206361 0.258299
O O3 0.719754 0.205047 0.290533
O O4 0.796543 0.095218 0.306308
O O5 0.820532 0.926394 0.530496
O O6 0.705512 0.973199 0.606790
O O7 0.065704 0.005457 0.523978
O O8 0.994107 0.070122 0.641527
O O9 0.260036 0.895317 0.614596
O O10 0.124934 0.867996 0.616848
O O11 0.194804 0.904528 0.473202
O O12 0.930052 0.120352 0.935922
O O13 0.936061 0.137402 0.770271
O O14 0.486539 0.848845 0.641928
O O15 0.712209 0.979313 0.896962
#
# Coordination Sequence:
#
# PCOD9554453 Si02
#       8
#    16  16   8  16  16  16  16  16
#     4  11  26  43  79  99 146 187 238 304 369 424
#     4  12  27  49  68 116 145 187 246 310 360 443
#     4  12  26  44  72 104 144 200 226 298 374 436
#     4  10  20  48  70  98 135 192 235 289 367 434
#     4  11  27  46  72 108 146 187 247 300 363 446
#     4  12  28  44  71 106 148 185 246 299 363 450
#     4  10  22  44  74  96 141 188 236 296 356 430
#     4  10  21  46  70  99 138 189 238 290 361 437
#
# _framework density 20.938502
#
# number of rings (size 3 to 8) (size 9 to 14) (size 15 to 20)
#    0.000    1.067    5.333    0.000    9.333    2.667 
#    0.000    0.000    0.000    0.000    0.000    0.000 
#    0.000    0.000    0.000    0.000    0.000    0.000 
#
# Total GULP energy -335458.938560 kJ/mol
# GULP energy per Si atom -5590.982309 kJ/mol
# Density = 2.089084 g / cm^3
# Si number density = 20.938502 Si / 1000 Ang^3
#
#
#
# Elastic Constant Matrix: (Units=GPa)
#
#
# Indices 1 2 3 4 5 6 
#
# 1 91.8094 66.7697 12.4084 0.0000 0.0000 0.0000
# 2 66.7697 91.8094 12.4084 0.0000 0.0000 0.0000
# 3 12.4084 12.4084 47.9576 0.0000 0.0000 0.0000
# 4 0.0000 0.0000 0.0000 90.2989 0.0000 0.0000
# 5 0.0000 0.0000 0.0000 0.0000 90.2989 0.0000
# 6 0.0000 0.0000 0.0000 0.0000 0.0000 32.7812
#
#
#
# Elastic Compliance Matrix: (Units=1/GPa)
#
#
# Indices 1 2 3 4 5 6 
#
# 1 0.023254 -0.016682 -0.001700 0.000000 0.000000 0.000000
# 2 -0.016682 0.023254 -0.001700 0.000000 0.000000 0.000000
# 3 -0.001700 -0.001700 0.021732 0.000000 0.000000 0.000000
# 4 0.000000 0.000000 0.000000 0.011074 0.000000 0.000000
# 5 0.000000 0.000000 0.000000 0.000000 0.011074 0.000000
# 6 0.000000 0.000000 0.000000 0.000000 0.000000 0.030505
#
#
# Mechanical properties :
#
#
# Convention : Reuss Voigt Hill
#
# Bulk Modulus (GPa) = 35.62001 46.08328 40.85165
# Shear Modulus (GPa) = 29.33954 52.00847 40.67401
#
# Velocity S-wave (km/s) = 3.74735 4.98925 4.41221
# Velocity P-wave (km/s) = 5.98099 7.43282 6.74607
#
# Compressibility (1/GPa) = 0.02807411
#
# Stress axis : x y z
#
# Youngs Moduli (GPa) = 43.00280 43.00280 46.01577
#
# Poissons Ratio (x) = 0.71738 0.07825
# Poissons Ratio (y) = 0.71738 0.07825
# Poissons Ratio (z) = 0.07312 0.07312
#
# Static dielectric constant tensor:
#      x y z
#    x 1.699720 0.000000 0.000000 
#    y 0.000000 1.699720 0.000000 
#    z 0.000000 0.000000 1.743040 
# 
# From -- ./inp_files/1779.got.cif
#   From: 2010.05.17/outbox.cif.g08.bks.cpg/sg110_1_cif.got.tgz:1779.got - 2010.05.20 10:54:03.
