data_PCOD9554774
_publ_section_title
;
Structure prediction by ZEFSAII (Michael W. Deem and Ramdas Pophale) SiO2 
 PCOD9554774
Probable space group: P -4 2 M 
;
_chemical_formula_sum "Si O2"
_cell_formula_units_Z 56
_cell_length_a 12.686478
_cell_length_b 12.686478
_cell_length_c 23.089366
_cell_angle_alpha 90.000000
_cell_angle_beta 90.000000
_cell_angle_gamma 90.000000
_cell_volume 3716.157818
_symmetry_space_group_name_H-M "P -4 2 M "
_symmetry_group_IT_number 111
_symmetry_cell_setting 'tetragonal'
loop_
_space_group_symop_operation_xyz
x,y,z
y,-x,-z
-x,-y,z
-y,x,-z
x,-y,-z
-x,y,-z
-y,-x,z
y,x,z
loop_
_atom_site_type_symbol
_atom_site_label
_atom_site_fract_x
_atom_site_fract_y
_atom_site_fract_z
Si Si1 0.176570 0.995662 0.438237
Si Si2 0.731934 0.443211 0.938531
Si Si3 0.231150 0.054961 0.938853
Si Si4 0.179249 0.998265 0.692050
Si Si5 0.801799 0.371207 0.136665
Si Si6 0.295810 0.129511 0.132817
Si Si7 0.985743 0.385345 0.228103
O O1 0.085664 0.085664 0.441971
O O2 0.222227 0.009133 0.374198
O O3 0.236192 0.000000 0.500000
O O4 0.114982 0.885019 0.436429
O O5 0.625412 0.374589 0.939228
O O6 0.738161 0.529736 0.887874
O O7 0.825405 0.362844 0.921104
O O8 0.744660 0.500000 0.000000
O O9 0.130150 0.130150 0.941659
O O10 0.328523 0.125540 0.916409
O O11 0.221975 0.963465 0.891092
O O12 0.247986 0.000000 0.000000
O O13 0.104858 0.895143 0.703303
O O14 0.280004 0.010416 0.733259
O O15 0.097796 0.097796 0.696492
O O16 0.721820 0.278180 0.151174
O O17 0.878730 0.389162 0.190446
O O18 0.225064 0.225064 0.155433
O O19 0.369810 0.078932 0.180941
O O20 0.000000 0.500000 0.257206
#
# Coordination Sequence:
#
# PCOD9554774 Si02
#       7
#     8   8   8   8   8   8   8
#     4   7  10  19  38  67 101 130 156 191 234 270
#     4  11  22  36  53  69  83 103 137 188 243 289
#     4  10  20  32  48  68  90 113 135 165 213 279
#     4   9  17  29  49  76 101 127 162 202 234 264
#     4  10  21  36  50  67  87 110 143 184 227 275
#     4  10  21  35  49  66  87 112 145 183 224 271
#     4  11  20  34  48  66  91 129 159 182 223 274
#
# _framework density 15.069328000000001
#
# number of rings (size 3 to 8) (size 9 to 14) (size 15 to 20)
#    0.000    2.286    1.429    3.857    0.000    4.857 
#    0.000    2.143    0.000    0.429    0.000    0.000 
#    0.000    0.000    0.000    0.000    0.000    0.000 
#
# Total GULP energy -311768.408744 kJ/mol
# GULP energy per Si atom -5567.293013 kJ/mol
# Density = 1.503503 g / cm^3
# Si number density = 15.069328 Si / 1000 Ang^3
#
#
#
# Elastic Constant Matrix: (Units=GPa)
#
#
# Indices 1 2 3 4 5 6 
#
# 1 64.7482 26.8882 36.7914 0.0000 0.0000 0.0000
# 2 26.8882 64.7496 36.7910 0.0000 0.0000 0.0000
# 3 36.7914 36.7910 85.9391 0.0000 0.0000 0.0000
# 4 0.0000 0.0000 0.0000 8.5998 0.0000 0.0000
# 5 0.0000 0.0000 0.0000 0.0000 8.6002 0.0000
# 6 0.0000 0.0000 0.0000 0.0000 0.0000 6.5789
#
#
#
# Elastic Compliance Matrix: (Units=1/GPa)
#
#
# Indices 1 2 3 4 5 6 
#
# 1 0.021521 -0.004892 -0.007119 0.000000 0.000000 0.000000
# 2 -0.004892 0.021520 -0.007119 0.000000 0.000000 0.000000
# 3 -0.007119 -0.007119 0.017732 0.000000 0.000000 0.000000
# 4 0.000000 0.000000 0.000000 0.116281 0.000000 0.000000
# 5 0.000000 0.000000 0.000000 0.000000 0.116276 0.000000
# 6 0.000000 0.000000 0.000000 0.000000 0.000000 0.152001
#
#
# Mechanical properties :
#
#
# Convention : Reuss Voigt Hill
#
# Bulk Modulus (GPa) = 44.41773 46.26423 45.34098
# Shear Modulus (GPa) = 10.18130 12.42020 11.30075
#
# Velocity S-wave (km/s) = 2.60211 2.87401 2.74143
# Velocity P-wave (km/s) = 6.21028 6.46381 6.33831
#
# Compressibility (1/GPa) = 0.02251353
#
# Stress axis : x y z
#
# Youngs Moduli (GPa) = 46.46589 46.46742 56.39665
#
# Poissons Ratio (x) = 0.22731 0.40150
# Poissons Ratio (y) = 0.22730 0.40148
# Poissons Ratio (z) = 0.33080 0.33079
#
# Static dielectric constant tensor:
#      x y z
#    x 1.515570 0.000000 0.000000 
#    y 0.000000 1.515560 0.000000 
#    z 0.000000 0.000000 1.518870 
# 
# From -- ./inp_files/4168.got.cif
#   From: 2010.05.17/outbox.cif.g08.bks.cpg/sg111_3_cif.got.tgz:4168.got - 2010.05.20 10:56:05.
