data_PCOD9554091
_publ_section_title
;
Structure prediction by ZEFSAII (Michael W. Deem and Ramdas Pophale) SiO2 
 PCOD9554091
Probable space group: I 41 M D
;
_chemical_formula_sum "Si O2"
_cell_formula_units_Z 80
_cell_length_a 27.901147
_cell_length_b 27.901147
_cell_length_c 5.578074
_cell_angle_alpha 90.000000
_cell_angle_beta 90.000000
_cell_angle_gamma 90.000000
_cell_volume 4342.385601
_symmetry_space_group_name_H-M "I 41 M D"
_symmetry_group_IT_number 109
_symmetry_cell_setting 'tetragonal'
loop_
_space_group_symop_operation_xyz
x,y,z
-y,1/2+x,1/4+z
-x,-y,z
y,1/2-x,1/4+z
-x,y,z
x,-y,z
-y,1/2-x,1/4+z
y,1/2+x,1/4+z
1/2+x,1/2+y,1/2+z
1/2-y,x,3/4+z
1/2-x,1/2-y,1/2+z
1/2+y,-x,3/4+z
1/2-x,1/2+y,1/2+z
1/2+x,1/2-y,1/2+z
1/2-y,-x,3/4+z
1/2+y,x,3/4+z
loop_
_atom_site_type_symbol
_atom_site_label
_atom_site_fract_x
_atom_site_fract_y
_atom_site_fract_z
Si Si1 0.500000 0.790010 0.599140
Si Si2 0.901274 0.170651 0.534206
Si Si3 0.743446 0.346196 0.025531
Si Si4 0.684994 0.827681 0.899066
Si Si5 0.100490 0.335125 0.022707
Si Si6 0.500000 0.273915 0.095333
O O1 0.546426 0.824780 0.596268
O O2 0.500000 0.756344 0.351521
O O3 0.500000 0.759201 0.850302
O O4 0.867712 0.208818 0.667583
O O5 0.880708 0.177336 0.265816
O O6 0.884407 0.119701 0.648573
O O7 0.954013 0.190753 0.575803
O O8 0.764675 0.323848 0.264480
O O9 0.706313 0.388386 0.080286
O O10 0.713423 0.314449 0.847227
O O11 0.637306 0.823165 0.737757
#
# Coordination Sequence:
#
# PCOD9554091 Si02
#       6
#     8  16  16  16  16   8
#     4  12  24  40  68 101 122 163 220 270 312 379
#     4  10  22  38  62  85 125 158 204 261 324 370
#     4  10  18  35  56  78 114 158 204 247 302 366
#     4  10  20  34  58  78 118 165 196 256 302 374
#     4  10  22  38  62  85 125 158 204 261 324 370
#     4  12  24  40  68 101 122 163 220 270 312 379
#
# _framework density 18.423052999999999
#
# number of rings (size 3 to 8) (size 9 to 14) (size 15 to 20)
#    0.000    1.600    2.000    3.600    5.600    0.000 
#    0.000    0.000  158.400    0.600    0.000    0.000 
#    0.000    0.000    0.000    0.000    0.000    0.000 
#
# Total GULP energy -222723.319705 kJ/mol
# GULP energy per Si atom -5568.082993 kJ/mol
# Density = 1.838112 g / cm^3
# Si number density = 18.423053 Si / 1000 Ang^3
#
#
#
# Elastic Constant Matrix: (Units=GPa)
#
#
# Indices 1 2 3 4 5 6 
#
# 1 110.3550 42.6222 32.6515 0.0000 0.0000 0.0000
# 2 42.6222 110.3550 32.6515 0.0000 0.0000 0.0000
# 3 32.6515 32.6515 76.5460 0.0000 0.0000 0.0000
# 4 0.0000 0.0000 0.0000 21.1415 0.0000 0.0000
# 5 0.0000 0.0000 0.0000 0.0000 21.1415 0.0000
# 6 0.0000 0.0000 0.0000 0.0000 0.0000 26.0772
#
#
#
# Elastic Compliance Matrix: (Units=1/GPa)
#
#
# Indices 1 2 3 4 5 6 
#
# 1 0.011378 -0.003386 -0.003409 0.000000 0.000000 0.000000
# 2 -0.003386 0.011378 -0.003409 0.000000 0.000000 0.000000
# 3 -0.003409 -0.003409 0.015972 0.000000 0.000000 0.000000
# 4 0.000000 0.000000 0.000000 0.047300 0.000000 0.000000
# 5 0.000000 0.000000 0.000000 0.000000 0.047300 0.000000
# 6 0.000000 0.000000 0.000000 0.000000 0.000000 0.038348
#
#
# Mechanical properties :
#
#
# Convention : Reuss Voigt Hill
#
# Bulk Modulus (GPa) = 54.58441 57.01184 55.79812
# Shear Modulus (GPa) = 25.22807 26.29411 25.76109
#
# Velocity S-wave (km/s) = 3.70452 3.78198 3.74345
# Velocity P-wave (km/s) = 6.92753 7.07702 7.00267
#
# Compressibility (1/GPa) = 0.01832025
#
# Stress axis : x y z
#
# Youngs Moduli (GPa) = 87.88845 87.88845 62.60771
#
# Poissons Ratio (x) = 0.29758 0.21344
# Poissons Ratio (y) = 0.29758 0.21344
# Poissons Ratio (z) = 0.29963 0.29963
#
# Static dielectric constant tensor:
#      x y z
#    x 1.658290 0.000000 0.000000 
#    y 0.000000 1.658290 0.000000 
#    z 0.000000 0.000000 1.892820 
# 
# From -- ./inp_files/606.got.cif
#   From: 2010.05.17/outbox.cif.g08.bks.cpg/sg109_1_cif.got.tgz:606.got - 2010.05.20 10:51:12.
