data_PCOD9554406
_publ_section_title
;
Structure prediction by ZEFSAII (Michael W. Deem and Ramdas Pophale) SiO2 
 PCOD9554406
Probable space group: I 41 C D
;
_chemical_formula_sum "Si O2"
_cell_formula_units_Z 88
_cell_length_a 17.936689
_cell_length_b 17.936689
_cell_length_c 13.235490
_cell_angle_alpha 90.000000
_cell_angle_beta 90.000000
_cell_angle_gamma 90.000000
_cell_volume 4258.185536
_symmetry_space_group_name_H-M "I 41 C D"
_symmetry_group_IT_number 110
_symmetry_cell_setting 'tetragonal'
loop_
_space_group_symop_operation_xyz
x,y,z
-y,1/2+x,1/4+z
-x,-y,z
y,1/2-x,1/4+z
-x,y,1/2+z
x,-y,1/2+z
1/2-y,-x,1/4+z
1/2+y,x,1/4+z
1/2+x,1/2+y,1/2+z
1/2-y,x,3/4+z
1/2-x,1/2-y,1/2+z
1/2+y,-x,3/4+z
1/2-x,1/2+y,z
1/2+x,1/2-y,z
-y,1/2-x,3/4+z
y,1/2+x,3/4+z
loop_
_atom_site_type_symbol
_atom_site_label
_atom_site_fract_x
_atom_site_fract_y
_atom_site_fract_z
Si Si1 0.018001 0.744867 0.834550
Si Si2 0.500000 0.500000 0.811554
Si Si3 0.850829 0.880599 0.954232
Si Si4 0.469077 0.617980 0.451211
Si Si5 0.442292 0.640905 0.685270
Si Si6 0.118365 0.715150 0.486648
O O1 0.988142 0.793185 0.739062
O O2 0.951999 0.719586 0.909967
O O3 0.067149 0.677718 0.793750
O O4 0.061292 0.807684 0.898660
O O5 0.554956 0.545880 0.886991
O O6 0.462286 0.563184 0.742315
O O7 0.839469 0.793345 0.979453
O O8 0.806064 0.900927 0.852243
O O9 0.940270 0.884292 0.940215
O O10 0.455157 0.623872 0.568743
O O11 0.356765 0.663316 0.701093
#
# Coordination Sequence:
#
# PCOD9554406 Si02
#       6
#    16   8  16  16  16  16
#     4  10  22  41  64  91 128 179 223 274 346 415
#     4  10  20  36  64  98 126 170 228 282 342 392
#     4  11  23  44  68  93 137 181 220 282 347 406
#     4  10  22  39  62  99 126 171 232 277 337 411
#     4  11  22  41  64  95 135 172 227 287 340 412
#     4  11  22  44  67  95 137 175 223 285 350 402
#
# _framework density 20.666079
#
# number of rings (size 3 to 8) (size 9 to 14) (size 15 to 20)
#    0.000    1.455    5.455    2.727    5.091    0.000 
#    3.273    0.000    0.000    0.000    0.000    0.000 
#    0.000    0.000    0.000    0.000    0.000    0.000 
#
# Total GULP energy -245362.377194 kJ/mol
# GULP energy per Si atom -5576.417664 kJ/mol
# Density = 2.061904 g / cm^3
# Si number density = 20.666079 Si / 1000 Ang^3
#
#
#
# Elastic Constant Matrix: (Units=GPa)
#
#
# Indices 1 2 3 4 5 6 
#
# 1 59.7591 18.9813 14.2693 0.0000 0.0000 0.0000
# 2 18.9813 59.7591 14.2693 0.0000 0.0000 0.0000
# 3 14.2693 14.2693 118.3135 0.0000 0.0000 0.0000
# 4 0.0000 0.0000 0.0000 26.2937 0.0000 0.0000
# 5 0.0000 0.0000 0.0000 0.0000 26.2937 0.0000
# 6 0.0000 0.0000 0.0000 0.0000 0.0000 18.0598
#
#
#
# Elastic Compliance Matrix: (Units=1/GPa)
#
#
# Indices 1 2 3 4 5 6 
#
# 1 0.018902 -0.005621 -0.001602 0.000000 0.000000 0.000000
# 2 -0.005621 0.018902 -0.001602 0.000000 0.000000 0.000000
# 3 -0.001602 -0.001602 0.008838 0.000000 0.000000 0.000000
# 4 0.000000 0.000000 0.000000 0.038032 0.000000 0.000000
# 5 0.000000 0.000000 0.000000 0.000000 0.038032 0.000000
# 6 0.000000 0.000000 0.000000 0.000000 0.000000 0.055372
#
#
# Mechanical properties :
#
#
# Convention : Reuss Voigt Hill
#
# Bulk Modulus (GPa) = 34.49152 36.98571 35.73862
# Shear Modulus (GPa) = 24.34375 26.81687 25.58031
#
# Velocity S-wave (km/s) = 3.43586 3.60617 3.52204
# Velocity P-wave (km/s) = 5.69792 5.93927 5.81985
#
# Compressibility (1/GPa) = 0.02899263
#
# Stress axis : x y z
#
# Youngs Moduli (GPa) = 52.90494 52.90494 113.14176
#
# Poissons Ratio (x) = 0.29740 0.18122
# Poissons Ratio (y) = 0.29740 0.18122
# Poissons Ratio (z) = 0.08474 0.08474
#
# Static dielectric constant tensor:
#      x y z
#    x 1.795970 0.000000 0.000000 
#    y 0.000000 1.795970 0.000000 
#    z 0.000000 0.000000 1.770110 
# 
# From -- ./inp_files/1282.got.cif
#   From: 2010.05.17/outbox.cif.g08.bks.cpg/sg110_1_cif.got.tgz:1282.got - 2010.05.20 10:54:03.
