data_PCOD9554410
_publ_section_title
;
Structure prediction by ZEFSAII (Michael W. Deem and Ramdas Pophale) SiO2 
 PCOD9554410
Probable space group: I 41 C D
;
_chemical_formula_sum "Si O2"
_cell_formula_units_Z 80
_cell_length_a 22.806293
_cell_length_b 22.806293
_cell_length_c 5.336184
_cell_angle_alpha 90.000000
_cell_angle_beta 90.000000
_cell_angle_gamma 90.000000
_cell_volume 2775.493378
_symmetry_space_group_name_H-M "I 41 C D"
_symmetry_group_IT_number 110
_symmetry_cell_setting 'tetragonal'
loop_
_space_group_symop_operation_xyz
x,y,z
-y,1/2+x,1/4+z
-x,-y,z
y,1/2-x,1/4+z
-x,y,1/2+z
x,-y,1/2+z
1/2-y,-x,1/4+z
1/2+y,x,1/4+z
1/2+x,1/2+y,1/2+z
1/2-y,x,3/4+z
1/2-x,1/2-y,1/2+z
1/2+y,-x,3/4+z
1/2-x,1/2+y,z
1/2+x,1/2-y,z
-y,1/2-x,3/4+z
y,1/2+x,3/4+z
loop_
_atom_site_type_symbol
_atom_site_label
_atom_site_fract_x
_atom_site_fract_y
_atom_site_fract_z
Si Si1 0.652003 0.870411 0.194360
Si Si2 0.530044 0.387677 0.757391
Si Si3 0.238558 0.446772 0.928774
Si Si4 0.741074 0.334251 0.715732
Si Si5 0.367200 0.531490 0.243291
O O1 0.617867 0.901019 0.433415
O O2 0.711989 0.904921 0.210050
O O3 0.670930 0.804317 0.232300
O O4 0.601533 0.877766 0.991872
O O5 0.503508 0.412260 0.012557
O O6 0.515431 0.317495 0.759722
O O7 0.249200 0.403716 0.170505
O O8 0.297240 0.472714 0.809401
O O9 0.701855 0.300819 0.922432
O O10 0.389943 0.501520 0.992076
#
# Coordination Sequence:
#
# PCOD9554410 Si02
#       5
#    16  16  16  16  16
#     4   8  20  39  58  89 128 163 214 264 325 384
#     4  10  20  37  62  86 114 154 210 261 304 360
#     4   8  18  37  58  88 123 162 214 256 313 384
#     4   9  16  34  53  82 132 167 206 246 317 401
#     4  11  22  39  63  94 128 163 207 267 328 383
#
# _framework density 28.823702999999998
#
# number of rings (size 3 to 8) (size 9 to 14) (size 15 to 20)
#    1.200    1.600    0.000    1.200    0.000    1.600 
#    3.600   14.000    0.000    3.600    0.000    0.000 
#    0.000    0.000    0.000    0.000    0.000    0.000 
#
# Total GULP energy -222868.767649 kJ/mol
# GULP energy per Si atom -5571.719191 kJ/mol
# Density = 2.875810 g / cm^3
# Si number density = 28.823703 Si / 1000 Ang^3
#
#
#
# Elastic Constant Matrix: (Units=GPa)
#
#
# Indices 1 2 3 4 5 6 
#
# 1 81.7694 30.4822 28.5349 0.0000 0.0000 0.0000
# 2 30.4822 81.7694 28.5349 0.0000 0.0000 0.0000
# 3 28.5349 28.5349 163.8392 0.0000 0.0000 0.0000
# 4 0.0000 0.0000 0.0000 16.2156 0.0000 0.0000
# 5 0.0000 0.0000 0.0000 0.0000 16.2156 0.0000
# 6 0.0000 0.0000 0.0000 0.0000 0.0000 44.0485
#
#
#
# Elastic Compliance Matrix: (Units=1/GPa)
#
#
# Indices 1 2 3 4 5 6 
#
# 1 0.014636 -0.004862 -0.001702 0.000000 0.000000 0.000000
# 2 -0.004862 0.014636 -0.001702 0.000000 0.000000 0.000000
# 3 -0.001702 -0.001702 0.006696 0.000000 0.000000 0.000000
# 4 0.000000 0.000000 0.000000 0.061669 0.000000 0.000000
# 5 0.000000 0.000000 0.000000 0.000000 0.061669 0.000000
# 6 0.000000 0.000000 0.000000 0.000000 0.000000 0.022702
#
#
# Mechanical properties :
#
#
# Convention : Reuss Voigt Hill
#
# Bulk Modulus (GPa) = 51.45252 55.83134 53.64193
# Shear Modulus (GPa) = 24.38780 31.28432 27.83606
#
# Velocity S-wave (km/s) = 2.91194 3.29807 3.11100
# Velocity P-wave (km/s) = 5.40327 5.82366 5.61740
#
# Compressibility (1/GPa) = 0.01943540
#
# Stress axis : x y z
#
# Youngs Moduli (GPa) = 68.32455 68.32455 149.33174
#
# Poissons Ratio (x) = 0.33219 0.25420
# Poissons Ratio (y) = 0.33219 0.25420
# Poissons Ratio (z) = 0.11631 0.11631
#
# Static dielectric constant tensor:
#      x y z
#    x 2.296920 0.000000 0.000000 
#    y 0.000000 2.296920 0.000000 
#    z 0.000000 0.000000 2.351140 
# 
# From -- ./inp_files/119.got.cif
#   From: 2010.05.17/outbox.cif.g08.bks.cpg/sg110_1_cif.got.tgz:119.got - 2010.05.20 10:54:03.
