data_PCOD9554472
_publ_section_title
;
Structure prediction by ZEFSAII (Michael W. Deem and Ramdas Pophale) SiO2 
 PCOD9554472
Probable space group: I 41 C D
;
_chemical_formula_sum "Si O2"
_cell_formula_units_Z 96
_cell_length_a 19.245534
_cell_length_b 19.245534
_cell_length_c 9.362141
_cell_angle_alpha 90.000000
_cell_angle_beta 90.000000
_cell_angle_gamma 90.000000
_cell_volume 3467.648825
_symmetry_space_group_name_H-M "I 41 C D"
_symmetry_group_IT_number 110
_symmetry_cell_setting 'tetragonal'
loop_
_space_group_symop_operation_xyz
x,y,z
-y,1/2+x,1/4+z
-x,-y,z
y,1/2-x,1/4+z
-x,y,1/2+z
x,-y,1/2+z
1/2-y,-x,1/4+z
1/2+y,x,1/4+z
1/2+x,1/2+y,1/2+z
1/2-y,x,3/4+z
1/2-x,1/2-y,1/2+z
1/2+y,-x,3/4+z
1/2-x,1/2+y,z
1/2+x,1/2-y,z
-y,1/2-x,3/4+z
y,1/2+x,3/4+z
loop_
_atom_site_type_symbol
_atom_site_label
_atom_site_fract_x
_atom_site_fract_y
_atom_site_fract_z
Si Si1 0.986445 0.303478 0.529150
Si Si2 0.558970 0.328253 0.644739
Si Si3 0.882624 0.417433 0.907340
Si Si4 0.337543 0.160470 0.639933
Si Si5 0.527547 0.109676 0.776553
Si Si6 0.293241 0.702299 0.299824
O O1 0.909884 0.303219 0.595515
O O2 0.978189 0.317184 0.362059
O O3 0.034768 0.238966 0.559672
O O4 0.015411 0.372109 0.612551
O O5 0.487979 0.353371 0.723888
O O6 0.622388 0.309914 0.749704
O O7 0.578786 0.397799 0.558730
O O8 0.848300 0.401233 0.752396
O O9 0.853544 0.350207 0.994201
O O10 0.961844 0.427638 0.850200
O O11 0.300794 0.221456 0.724527
O O12 0.312613 0.719828 0.466020
#
# Coordination Sequence:
#
# PCOD9554472 Si02
#       6
#    16  16  16  16  16  16
#     4  10  22  43  64  95 135 172 223 281 347 399
#     4  11  22  38  70  93 130 183 226 280 348 403
#     4  10  21  41  65  96 135 178 225 285 350 398
#     4   9  21  39  61  94 133 179 228 283 338 414
#     4  10  24  43  66 102 136 171 233 286 335 426
#     4  10  21  40  66  95 139 184 233 283 348 416
#
# _framework density 27.684464999999999
#
# number of rings (size 3 to 8) (size 9 to 14) (size 15 to 20)
#    0.000    2.000    1.667    0.500    2.333    4.000 
#    0.000    6.667    0.000    0.000    0.000    0.000 
#    0.000    0.000    0.000    0.000    0.000    0.000 
#
# Total GULP energy -268311.450577 kJ/mol
# GULP energy per Si atom -5589.821887 kJ/mol
# Density = 2.762145 g / cm^3
# Si number density = 27.684465 Si / 1000 Ang^3
#
#
#
# Elastic Constant Matrix: (Units=GPa)
#
#
# Indices 1 2 3 4 5 6 
#
# 1 134.3512 39.4965 16.8181 0.0000 0.0000 0.0000
# 2 39.4965 134.3512 16.8181 0.0000 0.0000 0.0000
# 3 16.8181 16.8181 119.7143 0.0000 0.0000 0.0000
# 4 0.0000 0.0000 0.0000 28.2054 0.0000 0.0000
# 5 0.0000 0.0000 0.0000 0.0000 28.2054 0.0000
# 6 0.0000 0.0000 0.0000 0.0000 0.0000 62.9756
#
#
#
# Elastic Compliance Matrix: (Units=1/GPa)
#
#
# Indices 1 2 3 4 5 6 
#
# 1 0.008228 -0.002315 -0.000831 0.000000 0.000000 0.000000
# 2 -0.002315 0.008228 -0.000831 0.000000 0.000000 0.000000
# 3 -0.000831 -0.000831 0.008587 0.000000 0.000000 0.000000
# 4 0.000000 0.000000 0.000000 0.035454 0.000000 0.000000
# 5 0.000000 0.000000 0.000000 0.000000 0.035454 0.000000
# 6 0.000000 0.000000 0.000000 0.000000 0.000000 0.015879
#
#
# Mechanical properties :
#
#
# Convention : Reuss Voigt Hill
#
# Bulk Modulus (GPa) = 58.51480 59.40910 58.96195
# Shear Modulus (GPa) = 39.84752 44.89622 42.37187
#
# Velocity S-wave (km/s) = 3.79799 4.03142 3.91644
# Velocity P-wave (km/s) = 6.35729 6.57082 6.46494
#
# Compressibility (1/GPa) = 0.01708969
#
# Stress axis : x y z
#
# Youngs Moduli (GPa) = 121.54118 121.54118 116.46030
#
# Poissons Ratio (x) = 0.28134 0.09674
# Poissons Ratio (y) = 0.28134 0.09674
# Poissons Ratio (z) = 0.10096 0.10096
#
# Static dielectric constant tensor:
#      x y z
#    x 2.233350 0.000000 0.000000 
#    y 0.000000 2.233350 0.000000 
#    z 0.000000 0.000000 2.188560 
# 
# From -- ./inp_files/911.got.cif
#   From: 2010.05.17/outbox.cif.g08.bks.cpg/sg110_1_cif.got.tgz:911.got - 2010.05.20 10:54:03.
