data_PCOD9554979
_publ_section_title
;
Structure prediction by ZEFSAII (Michael W. Deem and Ramdas Pophale) SiO2 
 PCOD9554979
Probable space group: P -4 2 C
;
_chemical_formula_sum "Si O2"
_cell_formula_units_Z 48
_cell_length_a 11.012292
_cell_length_b 11.012292
_cell_length_c 15.634821
_cell_angle_alpha 90.000000
_cell_angle_beta 90.000000
_cell_angle_gamma 90.000000
_cell_volume 1896.043734
_symmetry_space_group_name_H-M "P -4 2 C"
_symmetry_group_IT_number 112
_symmetry_cell_setting 'tetragonal'
loop_
_space_group_symop_operation_xyz
x,y,z
y,-x,-z
-x,-y,z
-y,x,-z
x,-y,1/2-z
-x,y,1/2-z
-y,-x,1/2+z
y,x,1/2+z
loop_
_atom_site_type_symbol
_atom_site_label
_atom_site_fract_x
_atom_site_fract_y
_atom_site_fract_z
Si Si1 0.672707 0.489544 0.380871
Si Si2 0.005722 0.806553 0.971733
Si Si3 0.376384 0.927410 0.613882
Si Si4 0.725335 0.432611 0.571503
Si Si5 0.619580 0.756635 0.191838
Si Si6 0.157578 0.210246 0.827836
O O1 0.793695 0.568520 0.380312
O O2 0.687315 0.426251 0.473628
O O3 0.571814 0.594904 0.380802
O O4 0.666984 0.381862 0.313141
O O5 0.970750 0.813995 0.871688
O O6 0.123349 0.890598 0.986156
O O7 0.025139 0.680242 0.023574
O O8 0.250624 0.903643 0.666903
O O9 0.500000 0.000000 0.637441
O O10 0.786777 0.559481 0.599906
O O11 0.798410 0.317965 0.605784
O O12 0.500000 0.768871 0.250000
O O13 0.724065 0.832335 0.236991
#
# Coordination Sequence:
#
# PCOD9554979 Si02
#       6
#     8   8   8   8   8   8
#     4  11  20  32  54  88 132 185 226 264 323 412
#     4   9  18  38  67  94 124 171 235 290 340 403
#     4  10  21  35  57  92 128 166 218 287 342 395
#     4  10  19  31  53  87 134 179 227 253 316 416
#     4  10  21  35  55  88 142 182 214 266 339 412
#     4   9  20  36  58  91 128 171 223 279 342 395
#
# _framework density 25.31587
#
# number of rings (size 3 to 8) (size 9 to 14) (size 15 to 20)
#    0.000    2.167    1.667    1.500    0.000    9.333 
#    0.000    1.667    0.000    1.000    0.000    4.667 
#    5.000    0.000    1.000    0.000    0.000    0.000 
#
# Total GULP energy -267564.701158 kJ/mol
# GULP energy per Si atom -5574.264607 kJ/mol
# Density = 2.525825 g / cm^3
# Si number density = 25.315870 Si / 1000 Ang^3
#
#
#
# Elastic Constant Matrix: (Units=GPa)
#
#
# Indices 1 2 3 4 5 6 
#
# 1 79.9069 38.4593 42.9482 0.0000 0.0000 0.0000
# 2 38.4593 79.9069 42.9482 0.0000 0.0000 0.0000
# 3 42.9482 42.9482 82.6117 0.0000 0.0000 0.0000
# 4 0.0000 0.0000 0.0000 40.4535 0.0000 0.0000
# 5 0.0000 0.0000 0.0000 0.0000 40.4535 0.0000
# 6 0.0000 0.0000 0.0000 0.0000 0.0000 16.9623
#
#
#
# Elastic Compliance Matrix: (Units=1/GPa)
#
#
# Indices 1 2 3 4 5 6 
#
# 1 0.018847 -0.005280 -0.007053 0.000000 0.000000 0.000000
# 2 -0.005280 0.018847 -0.007053 0.000000 0.000000 0.000000
# 3 -0.007053 -0.007053 0.019438 0.000000 0.000000 0.000000
# 4 0.000000 0.000000 0.000000 0.024720 0.000000 0.000000
# 5 0.000000 0.000000 0.000000 0.000000 0.024720 0.000000
# 6 0.000000 0.000000 0.000000 0.000000 0.000000 0.058954
#
#
# Mechanical properties :
#
#
# Convention : Reuss Voigt Hill
#
# Bulk Modulus (GPa) = 54.46789 54.57076 54.51933
# Shear Modulus (GPa) = 23.76228 27.44517 25.60373
#
# Velocity S-wave (km/s) = 3.06703 3.29615 3.18366
# Velocity P-wave (km/s) = 5.83989 6.00741 5.92424
#
# Compressibility (1/GPa) = 0.01835944
#
# Stress axis : x y z
#
# Youngs Moduli (GPa) = 53.05961 53.05961 51.44485
#
# Poissons Ratio (x) = 0.28016 0.36284
# Poissons Ratio (y) = 0.28016 0.36284
# Poissons Ratio (z) = 0.37423 0.37423
#
# Static dielectric constant tensor:
#      x y z
#    x 2.079030 0.000000 0.000000 
#    y 0.000000 2.079030 0.000000 
#    z 0.000000 0.000000 2.093170 
# 
# From -- ./inp_files/4152.got.cif
#   From: 2010.05.17/outbox.cif.g08.bks.cpg/sg112_3_cif.got.tgz:4152.got - 2010.05.20 10:59:04.
