data_PCOD9554181
_publ_section_title
;
Structure prediction by ZEFSAII (Michael W. Deem and Ramdas Pophale) SiO2 
 PCOD9554181
Probable space group: I 41 M D
;
_chemical_formula_sum "Si O2"
_cell_formula_units_Z 128
_cell_length_a 23.918763
_cell_length_b 23.918763
_cell_length_c 11.340315
_cell_angle_alpha 90.000000
_cell_angle_beta 90.000000
_cell_angle_gamma 90.000000
_cell_volume 6487.876128
_symmetry_space_group_name_H-M "I 41 M D"
_symmetry_group_IT_number 109
_symmetry_cell_setting 'tetragonal'
loop_
_space_group_symop_operation_xyz
x,y,z
-y,1/2+x,1/4+z
-x,-y,z
y,1/2-x,1/4+z
-x,y,z
x,-y,z
-y,1/2-x,1/4+z
y,1/2+x,1/4+z
1/2+x,1/2+y,1/2+z
1/2-y,x,3/4+z
1/2-x,1/2-y,1/2+z
1/2+y,-x,3/4+z
1/2-x,1/2+y,1/2+z
1/2+x,1/2-y,1/2+z
1/2-y,-x,3/4+z
1/2+y,x,3/4+z
loop_
_atom_site_type_symbol
_atom_site_label
_atom_site_fract_x
_atom_site_fract_y
_atom_site_fract_z
Si Si1 0.434797 0.843034 0.166940
Si Si2 0.681152 0.633770 0.547487
Si Si3 0.438328 0.822206 0.595054
Si Si4 0.265876 0.783398 0.664340
Si Si5 0.061309 0.190191 0.087575
Si Si6 0.140679 0.670801 0.894994
Si Si7 0.107996 0.758654 0.519348
Si Si8 0.852198 0.561083 0.601092
O O1 0.500000 0.855834 0.176858
O O2 0.403807 0.837750 0.291958
O O3 0.399290 0.891369 0.102118
O O4 0.425762 0.785001 0.098006
O O5 0.674299 0.574238 0.484823
O O6 0.713792 0.669399 0.447547
O O7 0.619515 0.660581 0.553920
O O8 0.718225 0.635809 0.667289
O O9 0.500000 0.844904 0.568018
O O10 0.438759 0.756251 0.564779
O O11 0.389538 0.849131 0.514404
O O12 0.242323 0.756923 0.785468
O O13 0.235660 0.842819 0.656516
O O14 0.060832 0.179652 0.227672
O O15 0.000000 0.168598 0.042819
O O16 0.200801 0.644512 0.855647
O O17 0.073566 0.804814 0.447568
O O18 0.877345 0.500000 0.621998
#
# Coordination Sequence:
#
# PCOD9554181 Si02
#       8
#    16  16  16  16  16  16  16  16
#     4  11  24  40  62  91 123 160 208 267 316 377
#     4  12  21  38  61  92 123 166 211 263 324 389
#     4  11  23  40  63  88 122 172 220 259 308 384
#     4  12  23  36  58  91 133 170 208 255 323 398
#     4  10  20  37  61  91 126 165 211 261 314 383
#     4  11  23  40  58  86 128 167 206 251 317 388
#     4  11  23  37  62  93 127 162 204 255 322 390
#     4  10  21  40  62  88 125 164 203 252 315 384
#
# _framework density 19.729106000000002
#
# number of rings (size 3 to 8) (size 9 to 14) (size 15 to 20)
#    0.000    1.000    5.000    2.250    0.000    1.750 
#    0.000    0.000    0.000    1.125    0.000    0.000 
#    0.000    0.000    0.000    0.000    0.000    0.000 
#
# Total GULP energy -356545.802110 kJ/mol
# GULP energy per Si atom -5571.028158 kJ/mol
# Density = 1.968420 g / cm^3
# Si number density = 19.729106 Si / 1000 Ang^3
#
#
#
# Elastic Constant Matrix: (Units=GPa)
#
#
# Indices 1 2 3 4 5 6 
#
# 1 88.7669 25.2098 23.0310 0.0000 0.0000 0.0000
# 2 25.2098 88.7669 23.0310 0.0000 0.0000 0.0000
# 3 23.0310 23.0310 82.1506 0.0000 0.0000 0.0000
# 4 0.0000 0.0000 0.0000 19.5809 0.0000 0.0000
# 5 0.0000 0.0000 0.0000 0.0000 19.5809 0.0000
# 6 0.0000 0.0000 0.0000 0.0000 0.0000 10.2632
#
#
#
# Elastic Compliance Matrix: (Units=1/GPa)
#
#
# Indices 1 2 3 4 5 6 
#
# 1 0.012814 -0.002920 -0.002774 0.000000 0.000000 0.000000
# 2 -0.002920 0.012814 -0.002774 0.000000 0.000000 0.000000
# 3 -0.002774 -0.002774 0.013728 0.000000 0.000000 0.000000
# 4 0.000000 0.000000 0.000000 0.051070 0.000000 0.000000
# 5 0.000000 0.000000 0.000000 0.000000 0.051070 0.000000
# 6 0.000000 0.000000 0.000000 0.000000 0.000000 0.097435
#
#
# Mechanical properties :
#
#
# Convention : Reuss Voigt Hill
#
# Bulk Modulus (GPa) = 44.59963 44.69197 44.64580
# Shear Modulus (GPa) = 18.98676 22.44585 20.71630
#
# Velocity S-wave (km/s) = 3.10558 3.37664 3.24394
# Velocity P-wave (km/s) = 5.95941 6.15665 6.05883
#
# Compressibility (1/GPa) = 0.02242171
#
# Stress axis : x y z
#
# Youngs Moduli (GPa) = 78.03753 78.03753 72.84295
#
# Poissons Ratio (x) = 0.22783 0.20207
# Poissons Ratio (y) = 0.22783 0.20207
# Poissons Ratio (z) = 0.21648 0.21648
#
# Static dielectric constant tensor:
#      x y z
#    x 1.733570 0.000000 0.000000 
#    y 0.000000 1.733570 0.000000 
#    z 0.000000 0.000000 1.739300 
# 
# From -- ./inp_files/2204.got.cif
#   From: 2010.05.17/outbox.cif.g08.bks.cpg/sg109_2_cif.got.tgz:2204.got - 2010.05.20 10:51:12.
