data_PCOD9554948
_publ_section_title
;
Structure prediction by ZEFSAII (Michael W. Deem and Ramdas Pophale) SiO2 
 PCOD9554948
Probable space group: P -4 2 C
;
_chemical_formula_sum "Si O2"
_cell_formula_units_Z 56
_cell_length_a 12.820491
_cell_length_b 12.820491
_cell_length_c 21.265682
_cell_angle_alpha 90.000000
_cell_angle_beta 90.000000
_cell_angle_gamma 90.000000
_cell_volume 3495.333598
_symmetry_space_group_name_H-M "P -4 2 C"
_symmetry_group_IT_number 112
_symmetry_cell_setting 'tetragonal'
loop_
_space_group_symop_operation_xyz
x,y,z
y,-x,-z
-x,-y,z
-y,x,-z
x,-y,1/2-z
-x,y,1/2-z
-y,-x,1/2+z
y,x,1/2+z
loop_
_atom_site_type_symbol
_atom_site_label
_atom_site_fract_x
_atom_site_fract_y
_atom_site_fract_z
Si Si1 0.729053 0.586723 0.075364
Si Si2 0.927087 0.719028 0.555606
Si Si3 0.439321 0.243795 0.034373
Si Si4 0.245156 0.355480 0.882271
Si Si5 0.257271 0.848185 0.995973
Si Si6 0.618914 0.472434 0.176584
Si Si7 0.376116 0.022752 0.322812
O O1 0.643033 0.672905 0.058797
O O2 0.704255 0.546860 0.144090
O O3 0.717417 0.486846 0.030764
O O4 0.832404 0.645287 0.051653
O O5 0.867448 0.616718 0.529606
O O6 0.845684 0.811213 0.540542
O O7 0.035221 0.742469 0.521398
O O8 0.953666 0.690695 0.627976
O O9 0.532957 0.239253 0.083428
O O10 0.225257 0.277155 0.941741
O O11 0.353669 0.353565 0.843989
O O12 0.143309 0.350854 0.838339
O O13 0.500000 0.500000 0.153695
O O14 0.619240 0.500000 0.250000
O O15 0.500000 0.000000 0.333564
O O16 0.354211 0.000000 0.250000
#
# Coordination Sequence:
#
# PCOD9554948 Si02
#       7
#     8   8   8   8   8   8   8
#     4  10  19  30  45  72  94 141 168 197 253 303
#     4  10  19  36  50  82 102 130 170 218 271 316
#     4  10  18  29  51  68 104 129 173 214 245 312
#     4  10  19  34  46  77 103 143 179 212 254 310
#     4   9  21  33  56  74 101 126 173 222 269 311
#     4  11  22  31  44  68 108 147 177 205 242 300
#     4  10  20  32  54  76 107 146 175 214 267 314
#
# _framework density 16.021362
#
# number of rings (size 3 to 8) (size 9 to 14) (size 15 to 20)
#    0.000    2.000    2.857    2.571    0.000    4.857 
#    0.000    0.000    0.000    0.000    0.000   24.000 
#    0.000    0.000    0.000    0.000    0.000    0.000 
#
# Total GULP energy -311804.978074 kJ/mol
# GULP energy per Si atom -5567.946037 kJ/mol
# Density = 1.598490 g / cm^3
# Si number density = 16.021362 Si / 1000 Ang^3
#
#
#
# Elastic Constant Matrix: (Units=GPa)
#
#
# Indices 1 2 3 4 5 6 
#
# 1 72.9127 31.7378 43.5020 0.0000 0.0000 0.0000
# 2 31.7378 72.9127 43.5020 0.0000 0.0000 0.0000
# 3 43.5020 43.5020 103.1426 0.0000 0.0000 0.0000
# 4 0.0000 0.0000 0.0000 20.6850 0.0000 0.0000
# 5 0.0000 0.0000 0.0000 0.0000 20.6850 0.0000
# 6 0.0000 0.0000 0.0000 0.0000 0.0000 13.1897
#
#
#
# Elastic Compliance Matrix: (Units=1/GPa)
#
#
# Indices 1 2 3 4 5 6 
#
# 1 0.019501 -0.004786 -0.006207 0.000000 0.000000 0.000000
# 2 -0.004786 0.019501 -0.006207 0.000000 0.000000 0.000000
# 3 -0.006207 -0.006207 0.014931 0.000000 0.000000 0.000000
# 4 0.000000 0.000000 0.000000 0.048344 0.000000 0.000000
# 5 0.000000 0.000000 0.000000 0.000000 0.048344 0.000000
# 6 0.000000 0.000000 0.000000 0.000000 0.000000 0.075817
#
#
# Mechanical properties :
#
#
# Convention : Reuss Voigt Hill
#
# Bulk Modulus (GPa) = 51.18815 54.05016 52.61916
# Shear Modulus (GPa) = 18.70229 19.59371 19.14800
#
# Velocity S-wave (km/s) = 3.42033 3.50090 3.46085
# Velocity P-wave (km/s) = 6.90055 7.08176 6.99174
#
# Compressibility (1/GPa) = 0.01953577
#
# Stress axis : x y z
#
# Youngs Moduli (GPa) = 51.27921 51.27921 66.97615
#
# Poissons Ratio (x) = 0.24540 0.41569
# Poissons Ratio (y) = 0.24540 0.41569
# Poissons Ratio (z) = 0.31826 0.31826
#
# Static dielectric constant tensor:
#      x y z
#    x 1.555040 0.000000 0.000000 
#    y 0.000000 1.555040 0.000000 
#    z 0.000000 0.000000 1.543660 
# 
# From -- ./inp_files/4939.got.cif
#   From: 2010.05.17/outbox.cif.g08.bks.cpg/sg112_3_cif.got.tgz:4939.got - 2010.05.20 10:59:04.
