data_PCOD9554662
_publ_section_title
;
Structure prediction by ZEFSAII (Michael W. Deem and Ramdas Pophale) SiO2 
 PCOD9554662
Probable space group: P -4 2 M 
;
_chemical_formula_sum "Si O2"
_cell_formula_units_Z 64
_cell_length_a 20.192728
_cell_length_b 20.192728
_cell_length_c 9.598079
_cell_angle_alpha 90.000000
_cell_angle_beta 90.000000
_cell_angle_gamma 90.000000
_cell_volume 3913.580855
_symmetry_space_group_name_H-M "P -4 2 M "
_symmetry_group_IT_number 111
_symmetry_cell_setting 'tetragonal'
loop_
_space_group_symop_operation_xyz
x,y,z
y,-x,-z
-x,-y,z
-y,x,-z
x,-y,-z
-x,y,-z
-y,-x,z
y,x,z
loop_
_atom_site_type_symbol
_atom_site_label
_atom_site_fract_x
_atom_site_fract_y
_atom_site_fract_z
Si Si1 0.222456 0.334158 0.485106
Si Si2 0.914148 0.559460 0.712908
Si Si3 0.261125 0.632106 0.820940
Si Si4 0.073862 0.337980 0.473264
Si Si5 0.433324 0.325990 0.591162
Si Si6 0.161277 0.423508 0.971780
Si Si7 0.415910 0.938745 0.789065
Si Si8 0.373347 0.479872 0.161673
O O1 0.271699 0.271699 0.489857
O O2 0.225335 0.365478 0.328844
O O3 0.146891 0.311296 0.512809
O O4 0.258063 0.390892 0.580128
O O5 0.924578 0.594587 0.566111
O O6 0.907887 0.480561 0.712571
O O7 0.983125 0.573168 0.792331
O O8 0.855705 0.586358 0.810835
O O9 0.299863 0.700138 0.834618
O O10 0.214869 0.620957 0.952942
O O11 0.315109 0.573822 0.820230
O O12 0.074519 0.354190 0.310127
O O13 0.000000 0.307740 0.500000
O O14 0.500000 0.320774 0.500000
O O15 0.383037 0.383037 0.535527
O O16 0.459128 0.350814 0.741532
O O17 0.094996 0.412841 0.062373
O O18 0.180976 0.500000 0.000000
O O19 0.441528 0.441528 0.202350
O O20 0.378625 0.500000 0.000000
#
# Coordination Sequence:
#
# PCOD9554662 Si02
#       8
#     8   8   8   8   8   8   8   8
#     4  10  21  37  54  73  99 131 164 204 247 297
#     4   9  18  27  42  68  95 118 151 192 239 274
#     4  10  20  35  50  66  91 124 166 204 247 306
#     4  10  19  32  51  73  96 125 161 198 234 289
#     4  11  22  36  54  73  91 122 166 209 253 303
#     4  10  18  29  46  66  85 117 155 190 240 289
#     4   9  16  29  43  63  95 125 149 188 231 285
#     4  11  23  38  52  71  95 121 157 213 277 319
#
# _framework density 16.35331
#
# number of rings (size 3 to 8) (size 9 to 14) (size 15 to 20)
#    0.000    2.000    2.500    1.875    0.000    8.500 
#    0.000    1.875    0.000    0.000    0.000    0.000 
#    0.000    0.250    0.000    0.000    0.000    0.000 
#
# Total GULP energy -356511.413455 kJ/mol
# GULP energy per Si atom -5570.490835 kJ/mol
# Density = 1.631609 g / cm^3
# Si number density = 16.353310 Si / 1000 Ang^3
#
#
#
# Elastic Constant Matrix: (Units=GPa)
#
#
# Indices 1 2 3 4 5 6 
#
# 1 68.6545 25.8938 18.7594 0.0000 0.0000 0.0000
# 2 25.8938 68.6534 18.7601 0.0000 0.0000 0.0000
# 3 18.7594 18.7601 60.2914 0.0000 0.0000 0.0000
# 4 0.0000 0.0000 0.0000 19.4295 0.0000 0.0000
# 5 0.0000 0.0000 0.0000 0.0000 19.4299 0.0000
# 6 0.0000 0.0000 0.0000 0.0000 0.0000 7.3634
#
#
#
# Elastic Compliance Matrix: (Units=1/GPa)
#
#
# Indices 1 2 3 4 5 6 
#
# 1 0.017726 -0.005660 -0.003754 0.000000 0.000000 0.000000
# 2 -0.005660 0.017727 -0.003755 0.000000 0.000000 0.000000
# 3 -0.003754 -0.003755 0.018923 0.000000 0.000000 0.000000
# 4 0.000000 0.000000 0.000000 0.051468 0.000000 0.000000
# 5 0.000000 0.000000 0.000000 0.000000 0.051467 0.000000
# 6 0.000000 0.000000 0.000000 0.000000 0.000000 0.135806
#
#
# Mechanical properties :
#
#
# Convention : Reuss Voigt Hill
#
# Bulk Modulus (GPa) = 35.66637 36.04730 35.85684
# Shear Modulus (GPa) = 15.20678 18.19030 16.69854
#
# Velocity S-wave (km/s) = 3.05272 3.33878 3.19895
# Velocity P-wave (km/s) = 5.85514 6.07898 5.96811
#
# Compressibility (1/GPa) = 0.02803762
#
# Stress axis : x y z
#
# Youngs Moduli (GPa) = 56.41370 56.41230 52.84692
#
# Poissons Ratio (x) = 0.31928 0.19841
# Poissons Ratio (y) = 0.31929 0.19843
# Poissons Ratio (z) = 0.21180 0.21181
#
# Static dielectric constant tensor:
#      x y z
#    x 1.569060 0.000000 0.000000 
#    y 0.000000 1.569060 0.000000 
#    z 0.000000 0.000000 1.572950 
# 
# From -- ./inp_files/2021.got.cif
#   From: 2010.05.17/outbox.cif.g08.bks.cpg/sg111_2_cif.got.tgz:2021.got - 2010.05.20 10:56:05.
