data_PCOD9554465
_publ_section_title
;
Structure prediction by ZEFSAII (Michael W. Deem and Ramdas Pophale) SiO2 
 PCOD9554465
Probable space group: I 41 C D
;
_chemical_formula_sum "Si O2"
_cell_formula_units_Z 120
_cell_length_a 20.553000
_cell_length_b 20.553000
_cell_length_c 13.541808
_cell_angle_alpha 90.000000
_cell_angle_beta 90.000000
_cell_angle_gamma 90.000000
_cell_volume 5720.409200
_symmetry_space_group_name_H-M "I 41 C D"
_symmetry_group_IT_number 110
_symmetry_cell_setting 'tetragonal'
loop_
_space_group_symop_operation_xyz
x,y,z
-y,1/2+x,1/4+z
-x,-y,z
y,1/2-x,1/4+z
-x,y,1/2+z
x,-y,1/2+z
1/2-y,-x,1/4+z
1/2+y,x,1/4+z
1/2+x,1/2+y,1/2+z
1/2-y,x,3/4+z
1/2-x,1/2-y,1/2+z
1/2+y,-x,3/4+z
1/2-x,1/2+y,z
1/2+x,1/2-y,z
-y,1/2-x,3/4+z
y,1/2+x,3/4+z
loop_
_atom_site_type_symbol
_atom_site_label
_atom_site_fract_x
_atom_site_fract_y
_atom_site_fract_z
Si Si1 0.920527 0.157904 0.356450
Si Si2 0.861914 0.123036 0.860166
Si Si3 0.000000 0.500000 0.939090
Si Si4 0.137923 0.527512 0.944001
Si Si5 0.758974 0.558320 0.280967
Si Si6 0.980940 0.382972 0.593376
Si Si7 0.721959 0.162123 0.783400
Si Si8 0.693721 0.205652 0.994066
O O1 0.959023 0.202901 0.431950
O O2 0.902323 0.086112 0.398081
O O3 0.853902 0.191046 0.320920
O O4 0.964579 0.148590 0.261021
O O5 0.912248 0.134478 0.770728
O O6 0.788805 0.127051 0.814425
O O7 0.875803 0.049656 0.898858
O O8 0.867153 0.176121 0.947905
O O9 0.009874 0.438361 0.011213
O O10 0.068752 0.515935 0.888446
O O11 0.197326 0.536597 0.871278
O O12 0.686121 0.532664 0.291461
O O13 0.753254 0.636570 0.275798
O O14 0.683625 0.173687 0.886231
O O15 0.737724 0.235388 0.745682
#
# Coordination Sequence:
#
# PCOD9554465 Si02
#       8
#    16  16   8  16  16  16  16  16
#     4  10  22  42  62  90 129 171 207 276 329 394
#     4  10  23  40  61  97 124 169 213 275 317 397
#     4   8  18  48  62  86 130 178 206 272 330 388
#     4  10  23  39  66  91 130 164 223 269 326 387
#     4  11  23  37  64  99 125 168 219 273 322 405
#     4   9  21  41  66  91 128 167 222 263 329 401
#     4  10  22  37  66  86 130 168 212 261 328 390
#     4  10  21  40  59  88 128 170 206 260 336 394
#
# _framework density 20.977519999999998
#
# number of rings (size 3 to 8) (size 9 to 14) (size 15 to 20)
#    0.000    2.133    1.333    0.000    9.333    0.000 
#    0.000   10.667    0.000    0.000    0.000    0.000 
#    0.000    0.000    0.000    0.000    0.000    0.000 
#
# Total GULP energy -334684.691329 kJ/mol
# GULP energy per Si atom -5578.078189 kJ/mol
# Density = 2.092977 g / cm^3
# Si number density = 20.977520 Si / 1000 Ang^3
#
#
#
# Elastic Constant Matrix: (Units=GPa)
#
#
# Indices 1 2 3 4 5 6 
#
# 1 106.1239 23.9143 18.5585 0.0000 0.0000 0.0000
# 2 23.9143 106.1239 18.5585 0.0000 0.0000 0.0000
# 3 18.5585 18.5585 60.5776 0.0000 0.0000 0.0000
# 4 0.0000 0.0000 0.0000 26.9769 0.0000 0.0000
# 5 0.0000 0.0000 0.0000 0.0000 26.9769 0.0000
# 6 0.0000 0.0000 0.0000 0.0000 0.0000 27.6593
#
#
#
# Elastic Compliance Matrix: (Units=1/GPa)
#
#
# Indices 1 2 3 4 5 6 
#
# 1 0.010295 -0.001869 -0.002582 0.000000 0.000000 0.000000
# 2 -0.001869 0.010295 -0.002582 0.000000 0.000000 0.000000
# 3 -0.002582 -0.002582 0.018090 0.000000 0.000000 0.000000
# 4 0.000000 0.000000 0.000000 0.037069 0.000000 0.000000
# 5 0.000000 0.000000 0.000000 0.000000 0.037069 0.000000
# 6 0.000000 0.000000 0.000000 0.000000 0.000000 0.036154
#
#
# Mechanical properties :
#
#
# Convention : Reuss Voigt Hill
#
# Bulk Modulus (GPa) = 40.62273 43.87648 42.24960
# Shear Modulus (GPa) = 29.19849 30.44221 29.82035
#
# Velocity S-wave (km/s) = 3.73486 3.81357 3.77442
# Velocity P-wave (km/s) = 6.16488 6.35236 6.25932
#
# Compressibility (1/GPa) = 0.02461676
#
# Stress axis : x y z
#
# Youngs Moduli (GPa) = 97.12999 97.12999 55.28044
#
# Poissons Ratio (x) = 0.18149 0.14272
# Poissons Ratio (y) = 0.18149 0.14272
# Poissons Ratio (z) = 0.25076 0.25076
#
# Static dielectric constant tensor:
#      x y z
#    x 1.790650 0.000000 0.000000 
#    y 0.000000 1.790650 0.000000 
#    z 0.000000 0.000000 1.750960 
# 
# From -- ./inp_files/1398.got.cif
#   From: 2010.05.17/outbox.cif.g08.bks.cpg/sg110_1_cif.got.tgz:1398.got - 2010.05.20 10:54:03.
