data_PCOD9554270
_publ_section_title
;
Structure prediction by ZEFSAII (Michael W. Deem and Ramdas Pophale) SiO2 
 PCOD9554270
Probable space group: I 41 M D
;
_chemical_formula_sum "Si O2"
_cell_formula_units_Z 112
_cell_length_a 31.236353
_cell_length_b 31.236353
_cell_length_c 5.005095
_cell_angle_alpha 90.000000
_cell_angle_beta 90.000000
_cell_angle_gamma 90.000000
_cell_volume 4883.519985
_symmetry_space_group_name_H-M "I 41 M D"
_symmetry_group_IT_number 109
_symmetry_cell_setting 'tetragonal'
loop_
_space_group_symop_operation_xyz
x,y,z
-y,1/2+x,1/4+z
-x,-y,z
y,1/2-x,1/4+z
-x,y,z
x,-y,z
-y,1/2-x,1/4+z
y,1/2+x,1/4+z
1/2+x,1/2+y,1/2+z
1/2-y,x,3/4+z
1/2-x,1/2-y,1/2+z
1/2+y,-x,3/4+z
1/2-x,1/2+y,1/2+z
1/2+x,1/2-y,1/2+z
1/2-y,-x,3/4+z
1/2+y,x,3/4+z
loop_
_atom_site_type_symbol
_atom_site_label
_atom_site_fract_x
_atom_site_fract_y
_atom_site_fract_z
Si Si1 0.716081 0.124288 0.625000
Si Si2 0.743651 0.453371 0.789332
Si Si3 0.549242 0.452294 0.443436
Si Si4 0.649886 0.808032 0.435528
Si Si5 0.178325 0.452495 0.413063
Si Si6 0.101027 0.333334 0.435838
Si Si7 0.926007 0.903900 0.443802
O O1 0.737114 0.086415 0.450209
O O2 0.692025 0.163652 0.484645
O O3 0.757739 0.145877 0.764910
O O4 0.680686 0.094292 0.772962
O O5 0.746187 0.500000 0.922457
O O6 0.774235 0.455261 0.533344
O O7 0.695569 0.440996 0.719412
O O8 0.500000 0.452937 0.356417
O O9 0.567481 0.500000 0.417631
O O10 0.550157 0.437044 0.748435
O O11 0.571915 0.418901 0.247211
O O12 0.637822 0.812229 0.124114
O O13 0.615153 0.830369 0.629758
O O14 0.169079 0.500000 0.285812
O O15 0.142643 0.446516 0.642966
O O16 0.095405 0.379025 0.568140
#
# Coordination Sequence:
#
# PCOD9554270 Si02
#       7
#    16  16  16  16  16  16  16
#     4  11  23  43  66  98 132 182 217 286 333 409
#     4  10  23  41  65  96 137 180 225 279 340 407
#     4  11  25  45  65  92 133 175 218 278 342 400
#     4  11  24  42  71  93 136 172 228 264 346 395
#     4  11  22  37  65  99 133 173 221 276 338 402
#     4  11  23  44  65  99 130 184 213 282 333 405
#     4  12  24  41  69  99 131 172 230 279 332 404
#
# _framework density 22.934277999999999
#
# number of rings (size 3 to 8) (size 9 to 14) (size 15 to 20)
#    0.000    1.000    2.857    3.857    2.000    2.286 
#    0.000    2.857    0.000    0.000    0.000    0.000 
#    0.000    0.000    0.000    0.000    0.000    0.000 
#
# Total GULP energy -312436.867612 kJ/mol
# GULP energy per Si atom -5579.229779 kJ/mol
# Density = 2.288208 g / cm^3
# Si number density = 22.934278 Si / 1000 Ang^3
#
#
#
# Elastic Constant Matrix: (Units=GPa)
#
#
# Indices 1 2 3 4 5 6 
#
# 1 113.7840 37.1941 9.0781 0.0000 0.0000 0.0000
# 2 37.1941 113.7840 9.0781 0.0000 0.0000 0.0000
# 3 9.0781 9.0781 52.3505 0.0000 0.0000 0.0000
# 4 0.0000 0.0000 0.0000 26.9388 0.0000 0.0000
# 5 0.0000 0.0000 0.0000 0.0000 26.9388 0.0000
# 6 0.0000 0.0000 0.0000 0.0000 0.0000 22.9885
#
#
#
# Elastic Compliance Matrix: (Units=1/GPa)
#
#
# Indices 1 2 3 4 5 6 
#
# 1 0.009911 -0.003146 -0.001173 0.000000 0.000000 0.000000
# 2 -0.003146 0.009911 -0.001173 0.000000 0.000000 0.000000
# 3 -0.001173 -0.001173 0.019509 0.000000 0.000000 0.000000
# 4 0.000000 0.000000 0.000000 0.037121 0.000000 0.000000
# 5 0.000000 0.000000 0.000000 0.000000 0.037121 0.000000
# 6 0.000000 0.000000 0.000000 0.000000 0.000000 0.043500
#
#
# Mechanical properties :
#
#
# Convention : Reuss Voigt Hill
#
# Bulk Modulus (GPa) = 35.27862 43.40212 39.34037
# Shear Modulus (GPa) = 28.16822 30.34443 29.25632
#
# Velocity S-wave (km/s) = 3.50839 3.64140 3.57551
# Velocity P-wave (km/s) = 5.64160 6.05354 5.85119
#
# Compressibility (1/GPa) = 0.02834578
#
# Stress axis : x y z
#
# Youngs Moduli (GPa) = 100.90252 100.90252 51.25879
#
# Poissons Ratio (x) = 0.31744 0.06013
# Poissons Ratio (y) = 0.31744 0.06013
# Poissons Ratio (z) = 0.11836 0.11836
#
# Static dielectric constant tensor:
#      x y z
#    x 1.901800 0.000000 0.000000 
#    y 0.000000 1.901800 0.000000 
#    z 0.000000 0.000000 1.889650 
# 
# From -- ./inp_files/698.got.cif
#   From: 2010.05.17/outbox.cif.g08.bks.cpg/sg109_1_cif.got.tgz:698.got - 2010.05.20 10:51:12.
