data_PCOD9554082
_publ_section_title
;
Structure prediction by ZEFSAII (Michael W. Deem and Ramdas Pophale) SiO2 
 PCOD9554082
Probable space group: I 41 M D
;
_chemical_formula_sum "Si O2"
_cell_formula_units_Z 80
_cell_length_a 10.789162
_cell_length_b 10.789162
_cell_length_c 37.134656
_cell_angle_alpha 90.000000
_cell_angle_beta 90.000000
_cell_angle_gamma 90.000000
_cell_volume 4322.697385
_symmetry_space_group_name_H-M "I 41 M D"
_symmetry_group_IT_number 109
_symmetry_cell_setting 'tetragonal'
loop_
_space_group_symop_operation_xyz
x,y,z
-y,1/2+x,1/4+z
-x,-y,z
y,1/2-x,1/4+z
-x,y,z
x,-y,z
-y,1/2-x,1/4+z
y,1/2+x,1/4+z
1/2+x,1/2+y,1/2+z
1/2-y,x,3/4+z
1/2-x,1/2-y,1/2+z
1/2+y,-x,3/4+z
1/2-x,1/2+y,1/2+z
1/2+x,1/2-y,1/2+z
1/2-y,-x,3/4+z
1/2+y,x,3/4+z
loop_
_atom_site_type_symbol
_atom_site_label
_atom_site_fract_x
_atom_site_fract_y
_atom_site_fract_z
Si Si1 0.358688 0.772643 0.272460
Si Si2 0.139096 0.142670 0.222128
Si Si3 0.647800 0.140533 0.352073
Si Si4 0.361660 0.500000 0.257431
Si Si5 0.760954 0.139798 0.899412
Si Si6 0.637494 0.000000 0.701060
O O1 0.500000 0.801969 0.260061
O O2 0.252855 0.796442 0.243147
O O3 0.335219 0.845645 0.309191
O O4 0.355278 0.625532 0.280120
O O5 0.155924 0.154155 0.179150
O O6 0.000000 0.194154 0.230041
O O7 0.138780 0.000000 0.232822
O O8 0.500000 0.159549 0.358919
O O9 0.723953 0.248281 0.371772
O O10 0.679109 0.000000 0.363426
O O11 0.500000 0.500000 0.239779
O O12 0.250930 0.500000 0.228691
O O13 0.881859 0.144645 0.925111
O O14 0.753802 0.000000 0.883755
O O15 0.500000 0.000000 0.718412
#
# Coordination Sequence:
#
# PCOD9554082 Si02
#       6
#    16  16  16   8  16   8
#     4  10  21  36  55  82 114 147 183 228 281 334
#     4  10  21  38  59  80 107 146 189 230 274 329
#     4  10  21  35  53  79 111 145 182 225 273 329
#     4  10  20  32  52  84 114 142 180 232 278 330
#     4  10  20  34  54  79 107 138 177 225 277 330
#     4  10  18  32  54  82 106 134 176 222 274 332
#
# _framework density 18.506962000000001
#
# number of rings (size 3 to 8) (size 9 to 14) (size 15 to 20)
#    0.000    2.000    3.000    0.600    1.400    2.800 
#    0.000    1.000    0.000    1.200    0.000    0.000 
#    0.000    0.000    0.000    0.000    0.000    0.000 
#
# Total GULP energy -222875.591328 kJ/mol
# GULP energy per Si atom -5571.889783 kJ/mol
# Density = 1.846484 g / cm^3
# Si number density = 18.506962 Si / 1000 Ang^3
#
#
#
# Elastic Constant Matrix: (Units=GPa)
#
#
# Indices 1 2 3 4 5 6 
#
# 1 99.5998 33.2248 34.9948 0.0000 0.0000 0.0000
# 2 33.2248 99.5998 34.9948 0.0000 0.0000 0.0000
# 3 34.9948 34.9948 46.3489 0.0000 0.0000 0.0000
# 4 0.0000 0.0000 0.0000 25.6829 0.0000 0.0000
# 5 0.0000 0.0000 0.0000 0.0000 25.6829 0.0000
# 6 0.0000 0.0000 0.0000 0.0000 0.0000 16.7813
#
#
#
# Elastic Compliance Matrix: (Units=1/GPa)
#
#
# Indices 1 2 3 4 5 6 
#
# 1 0.013784 -0.001281 -0.009440 0.000000 0.000000 0.000000
# 2 -0.001281 0.013784 -0.009440 0.000000 0.000000 0.000000
# 3 -0.009440 -0.009440 0.035831 0.000000 0.000000 0.000000
# 4 0.000000 0.000000 0.000000 0.038936 0.000000 0.000000
# 5 0.000000 0.000000 0.000000 0.000000 0.038936 0.000000
# 6 0.000000 0.000000 0.000000 0.000000 0.000000 0.059590
#
#
# Mechanical properties :
#
#
# Convention : Reuss Voigt Hill
#
# Bulk Modulus (GPa) = 43.33484 50.21970 46.77727
# Shear Modulus (GPa) = 20.09014 23.11836 21.60425
#
# Velocity S-wave (km/s) = 3.29833 3.53820 3.42037
# Velocity P-wave (km/s) = 6.16211 6.62467 6.39757
#
# Compressibility (1/GPa) = 0.02307612
#
# Stress axis : x y z
#
# Youngs Moduli (GPa) = 72.54528 72.54529 27.90898
#
# Poissons Ratio (x) = 0.09296 0.26347
# Poissons Ratio (y) = 0.09296 0.26347
# Poissons Ratio (z) = 0.68484 0.68484
#
# Static dielectric constant tensor:
#      x y z
#    x 1.686730 0.000000 0.000000 
#    y 0.000000 1.686730 0.000000 
#    z 0.000000 0.000000 1.605830 
# 
# From -- ./inp_files/5494.got.cif
#   From: 2010.05.17/outbox.cif.g08.bks.cpg/sg109_3_cif.got.tgz:5494.got - 2010.05.20 10:51:12.
