data_PCOD9554244
_publ_section_title
;
Structure prediction by ZEFSAII (Michael W. Deem and Ramdas Pophale) SiO2 
 PCOD9554244
Probable space group: I 41 M D
;
_chemical_formula_sum "Si O2"
_cell_formula_units_Z 112
_cell_length_a 27.578634
_cell_length_b 27.578634
_cell_length_c 6.421033
_cell_angle_alpha 90.000000
_cell_angle_beta 90.000000
_cell_angle_gamma 90.000000
_cell_volume 4883.716042
_symmetry_space_group_name_H-M "I 41 M D"
_symmetry_group_IT_number 109
_symmetry_cell_setting 'tetragonal'
loop_
_space_group_symop_operation_xyz
x,y,z
-y,1/2+x,1/4+z
-x,-y,z
y,1/2-x,1/4+z
-x,y,z
x,-y,z
-y,1/2-x,1/4+z
y,1/2+x,1/4+z
1/2+x,1/2+y,1/2+z
1/2-y,x,3/4+z
1/2-x,1/2-y,1/2+z
1/2+y,-x,3/4+z
1/2-x,1/2+y,1/2+z
1/2+x,1/2-y,1/2+z
1/2-y,-x,3/4+z
1/2+y,x,3/4+z
loop_
_atom_site_type_symbol
_atom_site_label
_atom_site_fract_x
_atom_site_fract_y
_atom_site_fract_z
Si Si1 0.946192 0.444547 0.078220
Si Si2 0.095859 0.633184 0.785628
Si Si3 0.946097 0.768457 0.087447
Si Si4 0.447586 0.622892 0.714592
Si Si5 0.900836 0.288100 0.454812
Si Si6 0.202737 0.631866 0.984110
Si Si7 0.207087 0.799322 0.062409
O O1 0.943675 0.500000 0.986974
O O2 0.901833 0.442434 0.239714
O O3 0.000000 0.441752 0.177319
O O4 0.939993 0.397145 0.934203
O O5 0.105208 0.594998 0.604792
O O6 0.080388 0.681211 0.654989
O O7 0.147263 0.638582 0.908298
O O8 0.947974 0.819203 0.210957
O O9 0.931619 0.725828 0.249448
O O10 0.000000 0.758747 0.002905
O O11 0.908669 0.783021 0.906599
O O12 0.500000 0.606751 0.795887
O O13 0.882268 0.237047 0.545049
O O14 0.851811 0.313549 0.372164
O O15 0.217937 0.680693 0.102477
O O16 0.198038 0.762859 0.248755
#
# Coordination Sequence:
#
# PCOD9554244 Si02
#       7
#    16  16  16  16  16  16  16
#     4  10  23  43  69 103 136 171 225 289 355 422
#     4  12  24  39  71  98 138 179 223 284 351 416
#     4  11  24  44  68  94 132 182 234 280 332 410
#     4  10  21  42  70  97 127 173 224 277 338 409
#     4  12  26  43  64 101 139 177 227 286 343 408
#     4  12  24  44  66  98 134 180 233 282 335 408
#     4  12  23  41  67  96 131 174 221 275 342 405
#
# _framework density 22.933356
#
# number of rings (size 3 to 8) (size 9 to 14) (size 15 to 20)
#    0.000    0.714    4.286    3.857    0.000    2.286 
#    0.000    2.857    0.000    0.000    0.000    0.000 
#    0.000    0.000    0.000    0.000    0.000    0.000 
#
# Total GULP energy -312521.473366 kJ/mol
# GULP energy per Si atom -5580.740596 kJ/mol
# Density = 2.288116 g / cm^3
# Si number density = 22.933356 Si / 1000 Ang^3
#
#
#
# Elastic Constant Matrix: (Units=GPa)
#
#
# Indices 1 2 3 4 5 6 
#
# 1 88.5307 17.2825 25.6682 0.0000 0.0000 0.0000
# 2 17.2825 88.5307 25.6682 0.0000 0.0000 0.0000
# 3 25.6682 25.6682 65.8163 0.0000 0.0000 0.0000
# 4 0.0000 0.0000 0.0000 3.7077 0.0000 0.0000
# 5 0.0000 0.0000 0.0000 0.0000 3.7077 0.0000
# 6 0.0000 0.0000 0.0000 0.0000 0.0000 23.7706
#
#
#
# Elastic Compliance Matrix: (Units=1/GPa)
#
#
# Indices 1 2 3 4 5 6 
#
# 1 0.012846 -0.001190 -0.004546 0.000000 0.000000 0.000000
# 2 -0.001190 0.012846 -0.004546 0.000000 0.000000 0.000000
# 3 -0.004546 -0.004546 0.018740 0.000000 0.000000 0.000000
# 4 0.000000 0.000000 0.000000 0.269709 0.000000 0.000000
# 5 0.000000 0.000000 0.000000 0.000000 0.269709 0.000000
# 6 0.000000 0.000000 0.000000 0.000000 0.000000 0.042069
#
#
# Mechanical properties :
#
#
# Convention : Reuss Voigt Hill
#
# Bulk Modulus (GPa) = 41.89653 42.23506 42.06580
# Shear Modulus (GPa) = 7.64017 17.85447 12.74732
#
# Velocity S-wave (km/s) = 1.82721 2.79325 2.36019
# Velocity P-wave (km/s) = 4.77075 5.37210 5.08033
#
# Compressibility (1/GPa) = 0.02386832
#
# Stress axis : x y z
#
# Youngs Moduli (GPa) = 77.84676 77.84676 53.36316
#
# Poissons Ratio (x) = 0.09261 0.24258
# Poissons Ratio (y) = 0.09261 0.24258
# Poissons Ratio (z) = 0.35388 0.35388
#
# Static dielectric constant tensor:
#      x y z
#    x 2.117940 0.000000 0.000000 
#    y 0.000000 2.117940 0.000000 
#    z 0.000000 0.000000 1.869680 
# 
# From -- ./inp_files/705.got.cif
#   From: 2010.05.17/outbox.cif.g08.bks.cpg/sg109_1_cif.got.tgz:705.got - 2010.05.20 10:51:12.
