data_PCOD9554593
_publ_section_title
;
Structure prediction by ZEFSAII (Michael W. Deem and Ramdas Pophale) SiO2 
 PCOD9554593
Probable space group: I 41 C D
;
_chemical_formula_sum "Si O2"
_cell_formula_units_Z 112
_cell_length_a 14.246743
_cell_length_b 14.246743
_cell_length_c 23.799409
_cell_angle_alpha 90.000000
_cell_angle_beta 90.000000
_cell_angle_gamma 90.000000
_cell_volume 4830.558574
_symmetry_space_group_name_H-M "I 41 C D"
_symmetry_group_IT_number 110
_symmetry_cell_setting 'tetragonal'
loop_
_space_group_symop_operation_xyz
x,y,z
-y,1/2+x,1/4+z
-x,-y,z
y,1/2-x,1/4+z
-x,y,1/2+z
x,-y,1/2+z
1/2-y,-x,1/4+z
1/2+y,x,1/4+z
1/2+x,1/2+y,1/2+z
1/2-y,x,3/4+z
1/2-x,1/2-y,1/2+z
1/2+y,-x,3/4+z
1/2-x,1/2+y,z
1/2+x,1/2-y,z
-y,1/2-x,3/4+z
y,1/2+x,3/4+z
loop_
_atom_site_type_symbol
_atom_site_label
_atom_site_fract_x
_atom_site_fract_y
_atom_site_fract_z
Si Si1 0.193623 0.763529 0.531660
Si Si2 0.110018 0.377126 0.116052
Si Si3 0.500000 0.000000 0.833742
Si Si4 0.792740 0.057576 0.476091
Si Si5 0.126648 0.637128 0.257680
Si Si6 0.101680 0.584604 0.934222
Si Si7 0.264453 0.025673 0.691043
Si Si8 0.000000 0.500000 0.033469
O O1 0.147530 0.715415 0.585505
O O2 0.198207 0.877049 0.530859
O O3 0.295957 0.713507 0.526379
O O4 0.119270 0.749521 0.479658
O O5 0.068379 0.373210 0.178995
O O6 0.197883 0.444759 0.129599
O O7 0.033373 0.418024 0.074058
O O8 0.553557 0.079600 0.797731
O O9 0.418673 0.032737 0.876538
O O10 0.708480 0.109029 0.443410
O O11 0.786797 0.946647 0.482605
O O12 0.168927 0.553367 0.219664
O O13 0.027030 0.666732 0.936154
O O14 0.082396 0.524378 0.990476
#
# Coordination Sequence:
#
# PCOD9554593 Si02
#       8
#    16  16   8  16  16  16  16   8
#     4  11  24  46  70 103 144 191 242 300 369 446
#     4  11  23  42  71 101 141 185 246 296 364 445
#     4  11  26  41  76 104 144 201 244 311 382 442
#     4  11  26  44  71 107 141 189 249 303 368 444
#     4  12  25  49  74 104 152 194 246 314 372 446
#     4  11  24  44  68 103 145 185 247 304 370 444
#     4  11  24  47  71 108 147 191 248 310 368 447
#     4  11  22  43  68  96 136 193 230 299 370 432
#
# _framework density 23.185722999999999
#
# number of rings (size 3 to 8) (size 9 to 14) (size 15 to 20)
#    0.000    0.857    2.857    4.286    6.000    0.000 
#    0.000    0.000    0.000    0.000    0.000    0.000 
#    0.000    0.000    0.000    0.000    0.000    0.000 
#
# Total GULP energy -312159.528654 kJ/mol
# GULP energy per Si atom -5574.277297 kJ/mol
# Density = 2.313295 g / cm^3
# Si number density = 23.185723 Si / 1000 Ang^3
#
#
#
# Elastic Constant Matrix: (Units=GPa)
#
#
# Indices 1 2 3 4 5 6 
#
# 1 69.3989 21.4207 19.7292 0.0000 0.0000 0.0000
# 2 21.4207 69.3989 19.7292 0.0000 0.0000 0.0000
# 3 19.7292 19.7292 73.9609 0.0000 0.0000 0.0000
# 4 0.0000 0.0000 0.0000 -17.1483 0.0000 0.0000
# 5 0.0000 0.0000 0.0000 0.0000 -17.1483 0.0000
# 6 0.0000 0.0000 0.0000 0.0000 0.0000 41.1752
#
#
#
# Elastic Compliance Matrix: (Units=1/GPa)
#
#
# Indices 1 2 3 4 5 6 
#
# 1 0.016649 -0.004194 -0.003322 0.000000 0.000000 0.000000
# 2 -0.004194 0.016649 -0.003322 0.000000 0.000000 0.000000
# 3 -0.003322 -0.003322 0.015293 0.000000 0.000000 0.000000
# 4 0.000000 0.000000 0.000000 -0.058315 0.000000 0.000000
# 5 0.000000 0.000000 0.000000 0.000000 -0.058315 0.000000
# 6 0.000000 0.000000 0.000000 0.000000 0.000000 0.024286
#
#
# Mechanical properties :
#
#
# Convention : Reuss Voigt Hill
#
# Bulk Modulus (GPa) = 37.15707 37.16852 37.16279
# Shear Modulus (GPa) = -381.54485 11.50101 -185.02192
#
# Velocity S-wave (km/s) = -12.84202 2.22961 -8.94277
# Velocity P-wave (km/s) = 14.27688 4.76380 9.51671
#
# Compressibility (1/GPa) = 0.02691278
#
# Stress axis : x y z
#
# Youngs Moduli (GPa) = 60.06544 60.06544 65.38919
#
# Poissons Ratio (x) = 0.25193 0.21723
# Poissons Ratio (y) = 0.25193 0.21723
# Poissons Ratio (z) = 0.19955 0.19955
#
# Static dielectric constant tensor:
#      x y z
#    x 2.071250 0.000000 0.000000 
#    y 0.000000 2.071250 0.000000 
#    z 0.000000 0.000000 1.873550 
# 
# From -- ./inp_files/2702.got.cif
#   From: 2010.05.17/outbox.cif.g08.bks.cpg/sg110_2_cif.got.tgz:2702.got - 2010.05.20 10:54:03.
