data_PCOD9554460
_publ_section_title
;
Structure prediction by ZEFSAII (Michael W. Deem and Ramdas Pophale) SiO2 
 PCOD9554460
Probable space group: I 41 C D
;
_chemical_formula_sum "Si O2"
_cell_formula_units_Z 112
_cell_length_a 29.390448
_cell_length_b 29.390448
_cell_length_c 5.539532
_cell_angle_alpha 90.000000
_cell_angle_beta 90.000000
_cell_angle_gamma 90.000000
_cell_volume 4785.039065
_symmetry_space_group_name_H-M "I 41 C D"
_symmetry_group_IT_number 110
_symmetry_cell_setting 'tetragonal'
loop_
_space_group_symop_operation_xyz
x,y,z
-y,1/2+x,1/4+z
-x,-y,z
y,1/2-x,1/4+z
-x,y,1/2+z
x,-y,1/2+z
1/2-y,-x,1/4+z
1/2+y,x,1/4+z
1/2+x,1/2+y,1/2+z
1/2-y,x,3/4+z
1/2-x,1/2-y,1/2+z
1/2+y,-x,3/4+z
1/2-x,1/2+y,z
1/2+x,1/2-y,z
-y,1/2-x,3/4+z
y,1/2+x,3/4+z
loop_
_atom_site_type_symbol
_atom_site_label
_atom_site_fract_x
_atom_site_fract_y
_atom_site_fract_z
Si Si1 0.321628 0.508565 0.915830
Si Si2 0.319151 0.900611 0.873810
Si Si3 0.379285 0.027521 0.164187
Si Si4 0.315365 0.181272 0.014097
Si Si5 0.158695 0.113099 0.899953
Si Si6 0.148252 0.253047 0.870468
Si Si7 0.525175 0.078167 0.673627
O O1 0.296216 0.498657 0.667175
O O2 0.341482 0.559440 0.908929
O O3 0.366660 0.476642 0.921039
O O4 0.334137 0.942972 0.716628
O O5 0.306792 0.859766 0.694659
O O6 0.362646 0.885329 0.035864
O O7 0.275791 0.896627 0.047473
O O8 0.424194 0.058968 0.175135
O O9 0.380340 0.994363 0.397805
O O10 0.320326 0.228432 0.153401
O O11 0.365015 0.169019 0.907759
O O12 0.279066 0.177164 0.799108
O O13 0.201478 0.130420 0.745198
O O14 0.500162 0.063820 0.423035
#
# Coordination Sequence:
#
# PCOD9554460 Si02
#       7
#    16  16  16  16  16  16  16
#     4  10  22  37  63 102 136 177 234 293 349 407
#     4  10  23  43  72  96 139 193 237 289 350 436
#     4  12  28  44  68 104 144 194 244 291 359 429
#     4  10  22  41  78 101 141 183 235 287 357 429
#     4  10  22  40  73 100 138 190 237 287 358 432
#     4  10  22  43  73 108 138 182 232 293 351 433
#     4  10  21  38  63  94 137 177 227 294 348 404
#
# _framework density 23.406288
#
# number of rings (size 3 to 8) (size 9 to 14) (size 15 to 20)
#    0.000    1.714    0.000    3.429   12.000    1.714 
#    0.000    1.429  113.143    0.000    0.000    0.000 
#    0.000    0.000    0.000    0.000    0.000    0.000 
#
# Total GULP energy -312979.917301 kJ/mol
# GULP energy per Si atom -5588.927095 kJ/mol
# Density = 2.335301 g / cm^3
# Si number density = 23.406288 Si / 1000 Ang^3
#
#
#
# Elastic Constant Matrix: (Units=GPa)
#
#
# Indices 1 2 3 4 5 6 
#
# 1 56.2818 7.2261 14.0890 0.0000 0.0000 0.0000
# 2 7.2261 56.2818 14.0890 0.0000 0.0000 0.0000
# 3 14.0890 14.0890 123.1081 0.0000 0.0000 0.0000
# 4 0.0000 0.0000 0.0000 30.1725 0.0000 0.0000
# 5 0.0000 0.0000 0.0000 0.0000 30.1725 0.0000
# 6 0.0000 0.0000 0.0000 0.0000 0.0000 20.2135
#
#
#
# Elastic Compliance Matrix: (Units=1/GPa)
#
#
# Indices 1 2 3 4 5 6 
#
# 1 0.018487 -0.001898 -0.001898 0.000000 0.000000 0.000000
# 2 -0.001898 0.018487 -0.001898 0.000000 0.000000 0.000000
# 3 -0.001898 -0.001898 0.008557 0.000000 0.000000 0.000000
# 4 0.000000 0.000000 0.000000 0.033143 0.000000 0.000000
# 5 0.000000 0.000000 0.000000 0.000000 0.033143 0.000000
# 6 0.000000 0.000000 0.000000 0.000000 0.000000 0.049472
#
#
# Mechanical properties :
#
#
# Convention : Reuss Voigt Hill
#
# Bulk Modulus (GPa) = 29.29073 34.05333 31.67203
# Shear Modulus (GPa) = 27.16522 29.46286 28.31404
#
# Velocity S-wave (km/s) = 3.41045 3.55175 3.48181
# Velocity P-wave (km/s) = 5.29617 5.60359 5.45205
#
# Compressibility (1/GPa) = 0.03414050
#
# Stress axis : x y z
#
# Youngs Moduli (GPa) = 54.09293 54.09293 116.85685
#
# Poissons Ratio (x) = 0.10268 0.22185
# Poissons Ratio (y) = 0.10268 0.22185
# Poissons Ratio (z) = 0.10269 0.10269
#
# Static dielectric constant tensor:
#      x y z
#    x 1.867240 0.000000 0.000000 
#    y 0.000000 1.867240 0.000000 
#    z 0.000000 0.000000 2.027190 
# 
# From -- ./inp_files/145.got.cif
#   From: 2010.05.17/outbox.cif.g08.bks.cpg/sg110_1_cif.got.tgz:145.got - 2010.05.20 10:54:03.
