data_PCOD9554424
_publ_section_title
;
Structure prediction by ZEFSAII (Michael W. Deem and Ramdas Pophale) SiO2 
 PCOD9554424
Probable space group: I 41 C D
;
_chemical_formula_sum "Si O2"
_cell_formula_units_Z 128
_cell_length_a 20.915351
_cell_length_b 20.915351
_cell_length_c 12.387310
_cell_angle_alpha 90.000000
_cell_angle_beta 90.000000
_cell_angle_gamma 90.000000
_cell_volume 5418.852388
_symmetry_space_group_name_H-M "I 41 C D"
_symmetry_group_IT_number 110
_symmetry_cell_setting 'tetragonal'
loop_
_space_group_symop_operation_xyz
x,y,z
-y,1/2+x,1/4+z
-x,-y,z
y,1/2-x,1/4+z
-x,y,1/2+z
x,-y,1/2+z
1/2-y,-x,1/4+z
1/2+y,x,1/4+z
1/2+x,1/2+y,1/2+z
1/2-y,x,3/4+z
1/2-x,1/2-y,1/2+z
1/2+y,-x,3/4+z
1/2-x,1/2+y,z
1/2+x,1/2-y,z
-y,1/2-x,3/4+z
y,1/2+x,3/4+z
loop_
_atom_site_type_symbol
_atom_site_label
_atom_site_fract_x
_atom_site_fract_y
_atom_site_fract_z
Si Si1 0.135432 0.179646 0.221540
Si Si2 0.003693 0.244427 0.290563
Si Si3 0.083528 0.428208 0.299693
Si Si4 0.833267 0.391841 0.606536
Si Si5 0.663220 0.476837 0.743072
Si Si6 0.586197 0.168439 0.645878
Si Si7 0.766620 0.857588 0.787595
Si Si8 0.430447 0.926246 0.827912
O O1 0.107839 0.123916 0.142296
O O2 0.175956 0.147034 0.317174
O O3 0.169930 0.228235 0.139044
O O4 0.074933 0.220266 0.266523
O O5 0.963048 0.182503 0.322817
O O6 0.002393 0.294951 0.390787
O O7 0.955668 0.275261 0.200669
O O8 0.106416 0.398172 0.186815
O O9 0.097855 0.503514 0.315744
O O10 0.006850 0.425821 0.303157
O O11 0.777972 0.366820 0.687094
O O12 0.827044 0.335372 0.519402
O O13 0.637531 0.533368 0.816073
O O14 0.711171 0.431211 0.808869
O O15 0.605449 0.433865 0.696074
O O16 0.602646 0.120989 0.743378
#
# Coordination Sequence:
#
# PCOD9554424 Si02
#       8
#    16  16  16  16  16  16  16  16
#     4  11  22  38  63  95 123 170 213 257 324 387
#     4  10  23  39  62  92 126 161 217 267 321 385
#     4  10  21  37  59  92 130 159 205 257 319 404
#     4  10  22  42  61  86 119 170 212 267 319 375
#     4  10  20  39  63  88 125 166 202 258 329 388
#     4  11  21  40  63  91 124 168 211 260 328 385
#     4  10  22  40  64  84 120 167 214 258 324 377
#     4  10  21  37  59  96 130 157 200 260 323 403
#
# _framework density 23.621236
#
# number of rings (size 3 to 8) (size 9 to 14) (size 15 to 20)
#    0.000    1.750    2.500    1.500    3.500    0.000 
#    6.750    0.000    0.000    0.000    0.000    0.000 
#    0.000    0.000    0.000    0.000    0.000    0.000 
#
# Total GULP energy -356794.751104 kJ/mol
# GULP energy per Si atom -5574.917986 kJ/mol
# Density = 2.356747 g / cm^3
# Si number density = 23.621236 Si / 1000 Ang^3
#
#
#
# Elastic Constant Matrix: (Units=GPa)
#
#
# Indices 1 2 3 4 5 6 
#
# 1 43.0324 -11.9415 -2.4792 0.0000 0.0000 0.0000
# 2 -11.9415 43.0324 -2.4792 0.0000 0.0000 0.0000
# 3 -2.4792 -2.4792 58.6199 0.0000 0.0000 0.0000
# 4 0.0000 0.0000 0.0000 21.6047 0.0000 0.0000
# 5 0.0000 0.0000 0.0000 0.0000 21.6047 0.0000
# 6 0.0000 0.0000 0.0000 0.0000 0.0000 28.3562
#
#
#
# Elastic Compliance Matrix: (Units=1/GPa)
#
#
# Indices 1 2 3 4 5 6 
#
# 1 0.025286 0.007096 0.001370 0.000000 0.000000 0.000000
# 2 0.007096 0.025286 0.001370 0.000000 0.000000 0.000000
# 3 0.001370 0.001370 0.017175 0.000000 0.000000 0.000000
# 4 0.000000 0.000000 0.000000 0.046286 0.000000 0.000000
# 5 0.000000 0.000000 0.000000 0.000000 0.046286 0.000000
# 6 0.000000 0.000000 0.000000 0.000000 0.000000 0.035266
#
#
# Mechanical properties :
#
#
# Convention : Reuss Voigt Hill
#
# Bulk Modulus (GPa) = 11.43940 12.32057 11.87998
# Shear Modulus (GPa) = 24.38370 25.08542 24.73456
#
# Velocity S-wave (km/s) = 3.21639 3.26235 3.23945
# Velocity P-wave (km/s) = 4.31821 4.40656 4.36261
#
# Compressibility (1/GPa) = 0.08741721
#
# Stress axis : x y z
#
# Youngs Moduli (GPa) = 39.54713 39.54713 58.22456
#
# Poissons Ratio (x) = -0.28062 -0.07974
# Poissons Ratio (y) = -0.28062 -0.07974
# Poissons Ratio (z) = -0.05416 -0.05416
#
# Static dielectric constant tensor:
#      x y z
#    x 1.919420 0.000000 0.000000 
#    y 0.000000 1.919420 0.000000 
#    z 0.000000 0.000000 1.964690 
# 
# From -- ./inp_files/1010.got.cif
#   From: 2010.05.17/outbox.cif.g08.bks.cpg/sg110_1_cif.got.tgz:1010.got - 2010.05.20 10:54:03.
