data_PCOD9554059
_publ_section_title
;
Structure prediction by ZEFSAII (Michael W. Deem and Ramdas Pophale) SiO2 
 PCOD9554059
Probable space group: I 41 M D
;
_chemical_formula_sum "Si O2"
_cell_formula_units_Z 64
_cell_length_a 10.549811
_cell_length_b 10.549811
_cell_length_c 36.793367
_cell_angle_alpha 90.000000
_cell_angle_beta 90.000000
_cell_angle_gamma 90.000000
_cell_volume 4095.047004
_symmetry_space_group_name_H-M "I 41 M D"
_symmetry_group_IT_number 109
_symmetry_cell_setting 'tetragonal'
loop_
_space_group_symop_operation_xyz
x,y,z
-y,1/2+x,1/4+z
-x,-y,z
y,1/2-x,1/4+z
-x,y,z
x,-y,z
-y,1/2-x,1/4+z
y,1/2+x,1/4+z
1/2+x,1/2+y,1/2+z
1/2-y,x,3/4+z
1/2-x,1/2-y,1/2+z
1/2+y,-x,3/4+z
1/2-x,1/2+y,1/2+z
1/2+x,1/2-y,1/2+z
1/2-y,-x,3/4+z
1/2+y,x,3/4+z
loop_
_atom_site_type_symbol
_atom_site_label
_atom_site_fract_x
_atom_site_fract_y
_atom_site_fract_z
Si Si1 0.500000 0.653839 0.770710
Si Si2 0.761851 0.846141 0.320500
Si Si3 0.761851 0.346141 0.649187
Si Si4 0.845895 0.000000 0.532392
Si Si5 0.000000 0.154105 0.187294
Si Si6 0.346161 0.500000 0.948976
O O1 0.500000 0.500000 0.769487
O O2 0.625060 0.690592 0.793045
O O3 0.500000 0.698456 0.729109
O O4 0.787789 0.787789 0.359843
O O5 0.627432 0.808937 0.303384
O O6 0.765338 0.000000 0.324169
O O7 0.765338 0.500000 0.645518
O O8 0.627433 0.308937 0.666302
O O9 0.874940 0.309408 0.676642
O O10 0.801544 0.000000 0.490578
O O11 0.000000 0.000000 0.531206
O O12 0.000000 0.000000 0.188480
O O13 0.500000 0.500000 0.950200
#
# Coordination Sequence:
#
# PCOD9554059 Si02
#       6
#     8  16  16   8   8   8
#     4   9  16  26  44  65  94 124 153 192 237 275
#     4  10  17  27  44  67  94 126 154 190 233 275
#     4  10  17  27  44  67  94 126 154 190 233 275
#     4   9  18  28  40  67  98 122 155 192 233 277
#     4   9  18  28  40  67  98 122 155 192 233 277
#     4   9  16  26  44  65  94 124 153 192 237 275
#
# _framework density 15.628638
#
# number of rings (size 3 to 8) (size 9 to 14) (size 15 to 20)
#    0.000    2.500    2.500    1.500    0.000    6.000 
#    0.000    0.000    0.000    0.750    0.000   10.500 
#    0.000    0.000    0.000    0.000    0.000    0.000 
#
# Total GULP energy -178311.493683 kJ/mol
# GULP energy per Si atom -5572.234178 kJ/mol
# Density = 1.559307 g / cm^3
# Si number density = 15.628638 Si / 1000 Ang^3
#
#
#
# Elastic Constant Matrix: (Units=GPa)
#
#
# Indices 1 2 3 4 5 6 
#
# 1 90.6108 31.2019 73.3720 0.0000 0.0000 0.0000
# 2 31.2019 90.6108 73.3720 0.0000 0.0000 0.0000
# 3 73.3720 73.3720 199.8685 0.0000 0.0000 0.0000
# 4 0.0000 0.0000 0.0000 1.2767 0.0000 0.0000
# 5 0.0000 0.0000 0.0000 0.0000 1.2767 0.0000
# 6 0.0000 0.0000 0.0000 0.0000 0.0000 5.9662
#
#
#
# Elastic Compliance Matrix: (Units=1/GPa)
#
#
# Indices 1 2 3 4 5 6 
#
# 1 0.015775 -0.001057 -0.005403 0.000000 0.000000 0.000000
# 2 -0.001057 0.015775 -0.005403 0.000000 0.000000 0.000000
# 3 -0.005403 -0.005403 0.008970 0.000000 0.000000 0.000000
# 4 0.000000 0.000000 0.000000 0.783262 0.000001 0.000000
# 5 0.000000 0.000000 0.000000 0.000001 0.783259 0.000000
# 6 0.000000 0.000000 0.000000 0.000000 0.000000 0.167610
#
#
# Mechanical properties :
#
#
# Convention : Reuss Voigt Hill
#
# Bulk Modulus (GPa) = 59.54362 81.88687 70.71524
# Shear Modulus (GPa) = 2.77165 15.24688 9.00927
#
# Velocity S-wave (km/s) = 1.33315 3.12680 2.40356
# Velocity P-wave (km/s) = 6.36800 8.09599 7.28342
#
# Compressibility (1/GPa) = 0.01679441
#
# Stress axis : x y z
#
# Youngs Moduli (GPa) = 63.38990 63.38990 111.47955
#
# Poissons Ratio (x) = 0.06701 0.60233
# Poissons Ratio (y) = 0.06701 0.60233
# Poissons Ratio (z) = 0.34250 0.34250
#
# Static dielectric constant tensor:
#      x y z
#    x 1.503520 0.000000 0.000000 
#    y 0.000000 1.503520 0.000000 
#    z 0.000000 0.000000 1.511480 
# 
# From -- ./inp_files/4824.got.cif
#   From: 2010.05.17/outbox.cif.g08.bks.cpg/sg109_3_cif.got.tgz:4824.got - 2010.05.20 10:51:12.
