data_PCOD9554216
_publ_section_title
;
Structure prediction by ZEFSAII (Michael W. Deem and Ramdas Pophale) SiO2 
 PCOD9554216
Probable space group: I 41 M D
;
_chemical_formula_sum "Si O2"
_cell_formula_units_Z 112
_cell_length_a 29.479367
_cell_length_b 29.479367
_cell_length_c 6.488170
_cell_angle_alpha 90.000000
_cell_angle_beta 90.000000
_cell_angle_gamma 90.000000
_cell_volume 5638.434350
_symmetry_space_group_name_H-M "I 41 M D"
_symmetry_group_IT_number 109
_symmetry_cell_setting 'tetragonal'
loop_
_space_group_symop_operation_xyz
x,y,z
-y,1/2+x,1/4+z
-x,-y,z
y,1/2-x,1/4+z
-x,y,z
x,-y,z
-y,1/2-x,1/4+z
y,1/2+x,1/4+z
1/2+x,1/2+y,1/2+z
1/2-y,x,3/4+z
1/2-x,1/2-y,1/2+z
1/2+y,-x,3/4+z
1/2-x,1/2+y,1/2+z
1/2+x,1/2-y,1/2+z
1/2-y,-x,3/4+z
1/2+y,x,3/4+z
loop_
_atom_site_type_symbol
_atom_site_label
_atom_site_fract_x
_atom_site_fract_y
_atom_site_fract_z
Si Si1 0.248542 0.370103 0.659510
Si Si2 0.553004 0.949530 0.911573
Si Si3 0.946427 0.627731 0.066314
Si Si4 0.404945 0.697783 0.285747
Si Si5 0.765028 0.052857 0.863806
Si Si6 0.847771 0.168278 0.167352
Si Si7 0.379771 0.084930 0.239134
O O1 0.245670 0.419697 0.556655
O O2 0.218813 0.339868 0.505531
O O3 0.300202 0.356118 0.659718
O O4 0.226095 0.372877 0.882118
O O5 0.500000 0.945549 0.980896
O O6 0.589532 0.947134 0.095542
O O7 0.557073 0.000000 0.812540
O O8 0.561240 0.907081 0.757501
O O9 0.936709 0.681142 0.099742
O O10 0.000000 0.624346 0.017702
O O11 0.915758 0.610964 0.880558
O O12 0.433260 0.734769 0.415849
O O13 0.373955 0.671440 0.451528
O O14 0.430958 0.660320 0.145440
O O15 0.760496 0.000000 0.896968
O O16 0.880372 0.144298 0.332408
#
# Coordination Sequence:
#
# PCOD9554216 Si02
#       7
#    16  16  16  16  16  16  16
#     4  10  21  39  59  84 115 152 189 236 293 349
#     4  10  22  38  56  85 122 156 200 253 299 358
#     4  10  21  38  63  90 117 157 203 248 298 355
#     4  10  22  38  59  85 119 154 193 243 299 355
#     4  10  21  37  59  87 116 148 196 247 287 347
#     4  10  22  40  59  86 116 151 193 242 293 354
#     4  11  20  36  61  84 115 158 194 235 303 361
#
# _framework density 19.863672000000001
#
# number of rings (size 3 to 8) (size 9 to 14) (size 15 to 20)
#    0.000    1.857    0.000    3.857    0.000    5.143 
#    2.571   15.000    0.000    0.000    0.000    0.000 
#    0.000    0.000    0.000    0.000    0.000    0.000 
#
# Total GULP energy -312342.169233 kJ/mol
# GULP energy per Si atom -5577.538736 kJ/mol
# Density = 1.981846 g / cm^3
# Si number density = 19.863672 Si / 1000 Ang^3
#
#
#
# Elastic Constant Matrix: (Units=GPa)
#
#
# Indices 1 2 3 4 5 6 
#
# 1 74.2341 61.8997 49.6261 0.0000 0.0000 0.0000
# 2 61.8997 74.2341 49.6261 0.0000 0.0000 0.0000
# 3 49.6261 49.6261 108.2085 0.0000 0.0000 0.0000
# 4 0.0000 0.0000 0.0000 15.2005 0.0000 0.0000
# 5 0.0000 0.0000 0.0000 0.0000 15.2005 0.0000
# 6 0.0000 0.0000 0.0000 0.0000 0.0000 15.5542
#
#
#
# Elastic Compliance Matrix: (Units=1/GPa)
#
#
# Indices 1 2 3 4 5 6 
#
# 1 0.046055 -0.035019 -0.005061 0.000000 0.000000 0.000000
# 2 -0.035019 0.046055 -0.005061 0.000000 0.000000 0.000000
# 3 -0.005061 -0.005061 0.013884 0.000000 0.000000 0.000000
# 4 0.000000 0.000000 0.000000 0.065787 0.000000 0.000000
# 5 0.000000 0.000000 0.000000 0.000000 0.065787 0.000000
# 6 0.000000 0.000000 0.000000 0.000000 0.000000 0.064291
#
#
# Mechanical properties :
#
#
# Convention : Reuss Voigt Hill
#
# Bulk Modulus (GPa) = 63.65184 64.33118 63.99151
# Shear Modulus (GPa) = 12.58247 15.55937 14.07092
#
# Velocity S-wave (km/s) = 2.51956 2.80180 2.66442
# Velocity P-wave (km/s) = 6.37010 6.55160 6.46148
#
# Compressibility (1/GPa) = 0.01571046
#
# Stress axis : x y z
#
# Youngs Moduli (GPa) = 21.71329 21.71329 72.02717
#
# Poissons Ratio (x) = 0.76038 0.36454
# Poissons Ratio (y) = 0.76038 0.36454
# Poissons Ratio (z) = 0.10989 0.10989
#
# Static dielectric constant tensor:
#      x y z
#    x 1.711170 0.000000 0.000000 
#    y 0.000000 1.711170 0.000000 
#    z 0.000000 0.000000 1.694800 
# 
# From -- ./inp_files/722.got.cif
#   From: 2010.05.17/outbox.cif.g08.bks.cpg/sg109_1_cif.got.tgz:722.got - 2010.05.20 10:51:12.
