data_PCOD9554245
_publ_section_title
;
Structure prediction by ZEFSAII (Michael W. Deem and Ramdas Pophale) SiO2 
 PCOD9554245
Probable space group: I 41 M D
;
_chemical_formula_sum "Si O2"
_cell_formula_units_Z 80
_cell_length_a 28.331792
_cell_length_b 28.331792
_cell_length_c 4.883922
_cell_angle_alpha 90.000000
_cell_angle_beta 90.000000
_cell_angle_gamma 90.000000
_cell_volume 3920.277489
_symmetry_space_group_name_H-M "I 41 M D"
_symmetry_group_IT_number 109
_symmetry_cell_setting 'tetragonal'
loop_
_space_group_symop_operation_xyz
x,y,z
-y,1/2+x,1/4+z
-x,-y,z
y,1/2-x,1/4+z
-x,y,z
x,-y,z
-y,1/2-x,1/4+z
y,1/2+x,1/4+z
1/2+x,1/2+y,1/2+z
1/2-y,x,3/4+z
1/2-x,1/2-y,1/2+z
1/2+y,-x,3/4+z
1/2-x,1/2+y,1/2+z
1/2+x,1/2-y,1/2+z
1/2-y,-x,3/4+z
1/2+y,x,3/4+z
loop_
_atom_site_type_symbol
_atom_site_label
_atom_site_fract_x
_atom_site_fract_y
_atom_site_fract_z
Si Si1 0.159696 0.945726 0.421650
Si Si2 0.852577 0.115253 0.904076
Si Si3 0.446073 0.271359 0.300894
Si Si4 0.888621 0.199567 0.302440
Si Si5 0.182102 0.731131 0.093241
O O1 0.130353 0.911907 0.630187
O O2 0.215837 0.943722 0.485453
O O3 0.144611 0.000000 0.447378
O O4 0.156935 0.927243 0.112797
O O5 0.807529 0.143115 0.779403
O O6 0.874443 0.153791 0.120275
O O7 0.500000 0.287170 0.269177
O O8 0.428277 0.277169 0.609568
O O9 0.411685 0.301666 0.101707
O O10 0.844052 0.235569 0.318430
O O11 0.228354 0.700786 0.148989
#
# Coordination Sequence:
#
# PCOD9554245 Si02
#       5
#    16  16  16  16  16
#     4  11  21  37  57  79 109 146 187 226 285 336
#     4  11  22  38  55  81 111 145 191 236 272 319
#     4  11  21  37  57  79 109 146 187 226 285 336
#     4  11  22  38  55  81 111 145 191 236 272 319
#     4  10  22  34  49  72 108 156 199 230 264 308
#
# _framework density 20.406718999999999
#
# number of rings (size 3 to 8) (size 9 to 14) (size 15 to 20)
#    0.000    1.200    4.000    2.400    0.000    9.600 
#    0.000    0.000    0.000    0.000    0.000    0.000 
#    0.000   56.000    0.000    0.000    0.000    0.000 
#
# Total GULP energy -222770.802752 kJ/mol
# GULP energy per Si atom -5569.270069 kJ/mol
# Density = 2.036027 g / cm^3
# Si number density = 20.406719 Si / 1000 Ang^3
#
#
#
# Elastic Constant Matrix: (Units=GPa)
#
#
# Indices 1 2 3 4 5 6 
#
# 1 53.0750 0.7977 14.4741 0.0000 0.0000 0.0000
# 2 0.7977 53.0750 14.4741 0.0000 0.0000 0.0000
# 3 14.4741 14.4741 91.7114 0.0000 0.0000 0.0000
# 4 0.0000 0.0000 0.0000 15.6235 0.0000 0.0000
# 5 0.0000 0.0000 0.0000 0.0000 15.6235 0.0000
# 6 0.0000 0.0000 0.0000 0.0000 0.0000 8.7340
#
#
#
# Elastic Compliance Matrix: (Units=1/GPa)
#
#
# Indices 1 2 3 4 5 6 
#
# 1 0.019706 0.000577 -0.003201 0.000000 0.000000 0.000000
# 2 0.000577 0.019706 -0.003201 0.000000 0.000000 0.000000
# 3 -0.003201 -0.003201 0.011914 0.000000 0.000000 0.000000
# 4 0.000000 0.000000 0.000000 0.064006 0.000000 0.000000
# 5 0.000000 0.000000 0.000000 0.000000 0.064006 0.000000
# 6 0.000000 0.000000 0.000000 0.000000 0.000000 0.114495
#
#
# Mechanical properties :
#
#
# Convention : Reuss Voigt Hill
#
# Bulk Modulus (GPa) = 25.20494 28.59481 26.89987
# Shear Modulus (GPa) = 15.68835 19.20389 17.44612
#
# Velocity S-wave (km/s) = 2.77570 3.07099 2.92707
# Velocity P-wave (km/s) = 4.75929 5.15922 4.96328
#
# Compressibility (1/GPa) = 0.03967477
#
# Stress axis : x y z
#
# Youngs Moduli (GPa) = 50.74713 50.74713 83.93377
#
# Poissons Ratio (x) = -0.02927 0.26867
# Poissons Ratio (y) = -0.02927 0.26867
# Poissons Ratio (z) = 0.16244 0.16244
#
# Static dielectric constant tensor:
#      x y z
#    x 1.770140 0.000000 0.000000 
#    y 0.000000 1.770140 0.000000 
#    z 0.000000 0.000000 1.751330 
# 
# From -- ./inp_files/600.got.cif
#   From: 2010.05.17/outbox.cif.g08.bks.cpg/sg109_1_cif.got.tgz:600.got - 2010.05.20 10:51:12.
