data_PCOD9554863
_publ_section_title
;
Structure prediction by ZEFSAII (Michael W. Deem and Ramdas Pophale) SiO2 
 PCOD9554863
Probable space group: P -4 2 M 
;
_chemical_formula_sum "Si O2"
_cell_formula_units_Z 40
_cell_length_a 15.426209
_cell_length_b 15.426209
_cell_length_c 8.698379
_cell_angle_alpha 90.000000
_cell_angle_beta 90.000000
_cell_angle_gamma 90.000000
_cell_volume 2069.935194
_symmetry_space_group_name_H-M "P -4 2 M "
_symmetry_group_IT_number 111
_symmetry_cell_setting 'tetragonal'
loop_
_space_group_symop_operation_xyz
x,y,z
y,-x,-z
-x,-y,z
-y,x,-z
x,-y,-z
-x,y,-z
-y,-x,z
y,x,z
loop_
_atom_site_type_symbol
_atom_site_label
_atom_site_fract_x
_atom_site_fract_y
_atom_site_fract_z
Si Si1 0.075019 0.207867 0.396269
Si Si2 0.819391 0.953135 0.856657
Si Si3 0.505699 0.103430 0.315125
Si Si4 0.804514 0.665578 0.196297
Si Si5 0.321480 0.814545 0.174399
O O1 0.142975 0.142975 0.475751
O O2 0.129524 0.273626 0.292346
O O3 0.000000 0.250094 0.500000
O O4 0.018650 0.154217 0.274248
O O5 0.899620 0.899620 0.920643
O O6 0.751046 0.885888 0.790125
O O7 0.775854 0.000000 0.000000
O O8 0.500000 0.104362 0.500000
O O9 0.428832 0.164084 0.248893
O O10 0.592975 0.150403 0.256323
O O11 0.500000 0.000000 0.268215
O O12 0.709533 0.709533 0.228569
O O13 0.814189 0.669404 0.011459
O O14 0.278500 0.721501 0.218872
#
# Coordination Sequence:
#
# PCOD9554863 Si02
#       5
#     8   8   8   8   8
#     4  11  23  36  52  77 115 163 209 256 309 366
#     4  11  21  34  54  79 112 156 206 257 303 359
#     4  11  25  39  62  98 128 162 207 257 309 377
#     4  10  22  41  63  87 119 160 204 256 319 378
#     4  10  22  41  63  88 119 159 204 256 319 376
#
# _framework density 19.324276000000001
#
# number of rings (size 3 to 8) (size 9 to 14) (size 15 to 20)
#    0.000    1.400    2.000    3.000    5.600    4.000 
#    0.000    0.000    0.000    0.600    0.000    4.200 
#    0.000    0.000    0.000    0.000    0.000    0.000 
#
# Total GULP energy -222918.569321 kJ/mol
# GULP energy per Si atom -5572.964233 kJ/mol
# Density = 1.928029 g / cm^3
# Si number density = 19.324276 Si / 1000 Ang^3
#
#
#
# Elastic Constant Matrix: (Units=GPa)
#
#
# Indices 1 2 3 4 5 6 
#
# 1 126.5527 70.6228 37.1495 0.0000 0.0000 0.0000
# 2 70.6228 126.5543 37.1496 0.0000 0.0000 0.0000
# 3 37.1495 37.1496 68.7920 0.0000 0.0000 0.0000
# 4 0.0000 0.0000 0.0000 30.7117 0.0000 0.0000
# 5 0.0000 0.0000 0.0000 0.0000 30.7115 0.0000
# 6 0.0000 0.0000 0.0000 0.0000 0.0000 23.1980
#
#
#
# Elastic Compliance Matrix: (Units=1/GPa)
#
#
# Indices 1 2 3 4 5 6 
#
# 1 0.012123 -0.005756 -0.003439 0.000000 0.000000 0.000000
# 2 -0.005756 0.012123 -0.003438 0.000000 0.000000 0.000000
# 3 -0.003439 -0.003438 0.018250 0.000000 0.000000 0.000000
# 4 0.000000 0.000000 0.000000 0.032561 0.000000 0.000000
# 5 0.000000 0.000000 0.000000 0.000000 0.032561 0.000000
# 6 0.000000 0.000000 0.000000 0.000000 0.000000 0.043107
#
#
# Mechanical properties :
#
#
# Convention : Reuss Voigt Hill
#
# Bulk Modulus (GPa) = 58.03528 67.97142 63.00335
# Shear Modulus (GPa) = 27.51250 28.72273 28.11761
#
# Velocity S-wave (km/s) = 3.77732 3.85951 3.81864
# Velocity P-wave (km/s) = 7.00869 7.42372 7.21919
#
# Compressibility (1/GPa) = 0.01723090
#
# Stress axis : x y z
#
# Youngs Moduli (GPa) = 82.48537 82.48658 54.79347
#
# Poissons Ratio (x) = 0.47479 0.18841
# Poissons Ratio (y) = 0.47478 0.18841
# Poissons Ratio (z) = 0.28363 0.28363
#
# Static dielectric constant tensor:
#      x y z
#    x 1.705530 0.000000 0.000000 
#    y 0.000000 1.705530 0.000000 
#    z 0.000000 0.000000 1.743800 
# 
# From -- ./inp_files/1520.got.cif
#   From: 2010.05.17/outbox.cif.g08.bks.cpg/sg111_1_cif.got.tgz:1520.got - 2010.05.20 10:56:05.
