data_PCOD9554596
_publ_section_title
;
Structure prediction by ZEFSAII (Michael W. Deem and Ramdas Pophale) SiO2 
 PCOD9554596
Probable space group: I 41 C D
;
_chemical_formula_sum "Si O2"
_cell_formula_units_Z 88
_cell_length_a 15.936050
_cell_length_b 15.936050
_cell_length_c 14.099176
_cell_angle_alpha 90.000000
_cell_angle_beta 90.000000
_cell_angle_gamma 90.000000
_cell_volume 3580.594162
_symmetry_space_group_name_H-M "I 41 C D"
_symmetry_group_IT_number 110
_symmetry_cell_setting 'tetragonal'
loop_
_space_group_symop_operation_xyz
x,y,z
-y,1/2+x,1/4+z
-x,-y,z
y,1/2-x,1/4+z
-x,y,1/2+z
x,-y,1/2+z
1/2-y,-x,1/4+z
1/2+y,x,1/4+z
1/2+x,1/2+y,1/2+z
1/2-y,x,3/4+z
1/2-x,1/2-y,1/2+z
1/2+y,-x,3/4+z
1/2-x,1/2+y,z
1/2+x,1/2-y,z
-y,1/2-x,3/4+z
y,1/2+x,3/4+z
loop_
_atom_site_type_symbol
_atom_site_label
_atom_site_fract_x
_atom_site_fract_y
_atom_site_fract_z
Si Si1 0.753017 0.875225 0.153290
Si Si2 0.069080 0.318740 0.608773
Si Si3 0.322670 0.281857 0.370223
Si Si4 0.500000 0.000000 0.380713
Si Si5 0.629756 0.423808 0.991383
Si Si6 0.614543 0.643472 0.181877
O O1 0.652292 0.869119 0.143403
O O2 0.795800 0.915690 0.247186
O O3 0.777628 0.775486 0.148588
O O4 0.789467 0.921418 0.060795
O O5 0.063474 0.225917 0.654716
O O6 0.989686 0.364659 0.655210
O O7 0.375496 0.332075 0.447005
O O8 0.359591 0.189120 0.354526
O O9 0.334207 0.333678 0.275126
O O10 0.557109 0.054465 0.311326
O O11 0.438801 0.059843 0.438740
#
# Coordination Sequence:
#
# PCOD9554596 Si02
#       6
#    16  16  16   8  16  16
#     4  11  22  49  82 114 160 213 274 327 409 485
#     4  11  24  47  80 114 155 212 267 334 392 486
#     4  11  22  48  82 109 147 218 268 323 398 498
#     4  12  30  48  68 120 162 196 258 342 404 474
#     4  12  27  48  73 118 158 206 268 324 405 484
#     4  11  24  48  75 110 157 202 264 329 400 479
#
# _framework density 24.576924999999999
#
# number of rings (size 3 to 8) (size 9 to 14) (size 15 to 20)
#    0.000    0.727    3.636    5.455    5.091    0.727 
#    9.818    0.000    0.000    0.000    0.000    0.000 
#    0.000    0.000    0.000    0.000    0.000    0.000 
#
# Total GULP energy -246239.500523 kJ/mol
# GULP energy per Si atom -5596.352285 kJ/mol
# Density = 2.452099 g / cm^3
# Si number density = 24.576925 Si / 1000 Ang^3
#
#
#
# Elastic Constant Matrix: (Units=GPa)
#
#
# Indices 1 2 3 4 5 6 
#
# 1 76.7271 39.9253 17.1753 0.0000 0.0000 0.0000
# 2 39.9253 76.7271 17.1753 0.0000 0.0000 0.0000
# 3 17.1753 17.1753 93.2713 0.0000 0.0000 0.0000
# 4 0.0000 0.0000 0.0000 24.8923 0.0000 0.0000
# 5 0.0000 0.0000 0.0000 0.0000 24.8923 0.0000
# 6 0.0000 0.0000 0.0000 0.0000 0.0000 32.9867
#
#
#
# Elastic Compliance Matrix: (Units=1/GPa)
#
#
# Indices 1 2 3 4 5 6 
#
# 1 0.018118 -0.009054 -0.001669 0.000000 0.000000 0.000000
# 2 -0.009054 0.018118 -0.001669 0.000000 0.000000 0.000000
# 3 -0.001669 -0.001669 0.011336 0.000000 0.000000 0.000000
# 4 0.000000 0.000000 0.000000 0.040173 0.000000 0.000000
# 5 0.000000 0.000000 0.000000 0.000000 0.040173 0.000000
# 6 0.000000 0.000000 0.000000 0.000000 0.000000 0.030315
#
#
# Mechanical properties :
#
#
# Convention : Reuss Voigt Hill
#
# Bulk Modulus (GPa) = 43.88318 43.91968 43.90143
# Shear Modulus (GPa) = 26.23091 28.05090 27.14091
#
# Velocity S-wave (km/s) = 3.27050 3.38205 3.32674
# Velocity P-wave (km/s) = 5.67060 5.75848 5.71471
#
# Compressibility (1/GPa) = 0.02278777
#
# Stress axis : x y z
#
# Youngs Moduli (GPa) = 55.19299 55.19299 88.21367
#
# Poissons Ratio (x) = 0.49973 0.14723
# Poissons Ratio (y) = 0.49973 0.14723
# Poissons Ratio (z) = 0.09212 0.09212
#
# Static dielectric constant tensor:
#      x y z
#    x 1.965790 0.000000 0.000000 
#    y 0.000000 1.965790 0.000000 
#    z 0.000000 0.000000 2.027190 
# 
# From -- ./inp_files/1268.got.cif
#   From: 2010.05.17/outbox.cif.g08.bks.cpg/sg110_1_cif.got.tgz:1268.got - 2010.05.20 10:54:03.
