data_PCOD9554452
_publ_section_title
;
Structure prediction by ZEFSAII (Michael W. Deem and Ramdas Pophale) SiO2 
 PCOD9554452
Probable space group: I 41 C D
;
_chemical_formula_sum "Si O2"
_cell_formula_units_Z 88
_cell_length_a 10.686293
_cell_length_b 10.686293
_cell_length_c 31.764358
_cell_angle_alpha 90.000000
_cell_angle_beta 90.000000
_cell_angle_gamma 90.000000
_cell_volume 3627.389883
_symmetry_space_group_name_H-M "I 41 C D"
_symmetry_group_IT_number 110
_symmetry_cell_setting 'tetragonal'
loop_
_space_group_symop_operation_xyz
x,y,z
-y,1/2+x,1/4+z
-x,-y,z
y,1/2-x,1/4+z
-x,y,1/2+z
x,-y,1/2+z
1/2-y,-x,1/4+z
1/2+y,x,1/4+z
1/2+x,1/2+y,1/2+z
1/2-y,x,3/4+z
1/2-x,1/2-y,1/2+z
1/2+y,-x,3/4+z
1/2-x,1/2+y,z
1/2+x,1/2-y,z
-y,1/2-x,3/4+z
y,1/2+x,3/4+z
loop_
_atom_site_type_symbol
_atom_site_label
_atom_site_fract_x
_atom_site_fract_y
_atom_site_fract_z
Si Si1 0.500000 0.000000 0.458930
Si Si2 0.590702 0.823933 0.888766
Si Si3 0.500000 0.500000 0.353796
Si Si4 0.676067 0.909298 0.529095
Si Si5 0.148649 0.859332 0.509086
Si Si6 0.851351 0.640668 0.158775
Si Si7 0.500000 0.000000 0.314065
O O1 0.413387 0.921361 0.427782
O O2 0.578639 0.913387 0.490079
O O3 0.736656 0.788473 0.888089
O O4 0.488195 0.720755 0.899233
O O5 0.537972 0.892031 0.847377
O O6 0.537972 0.607969 0.320484
O O7 0.382066 0.485223 0.385902
O O8 0.711527 0.763344 0.529772
O O9 0.779244 0.011805 0.518628
O O10 0.147649 0.852351 0.458931
O O11 0.014777 0.882066 0.531959
#
# Coordination Sequence:
#
# PCOD9554452 Si02
#       7
#     8  16   8  16  16  16   8
#     4  10  20  44  70 104 146 204 250 328 388 498
#     4  11  25  47  75 111 156 211 272 338 421 498
#     4  11  27  45  71 110 160 206 271 331 415 497
#     4  11  25  47  75 111 156 211 272 338 421 498
#     4  12  26  47  78 116 157 214 274 353 419 510
#     4  12  26  47  78 116 157 214 274 353 419 510
#     4  11  27  45  71 110 160 206 271 331 415 497
#
# _framework density 24.259867
#
# number of rings (size 3 to 8) (size 9 to 14) (size 15 to 20)
#    0.000    0.727    3.636    2.727    0.000   11.636 
#    0.000    0.000    0.000    0.000    0.000    0.000 
#    0.000    0.000    0.000    0.000    0.000    0.000 
#
# Total GULP energy -245359.656986 kJ/mol
# GULP energy per Si atom -5576.355841 kJ/mol
# Density = 2.420465 g / cm^3
# Si number density = 24.259867 Si / 1000 Ang^3
#
#
#
# Elastic Constant Matrix: (Units=GPa)
#
#
# Indices 1 2 3 4 5 6 
#
# 1 130.8214 69.3150 44.6988 0.0000 0.0000 0.0000
# 2 69.3150 130.8214 44.6988 0.0000 0.0000 0.0000
# 3 44.6988 44.6988 174.1283 0.0000 0.0000 0.0000
# 4 0.0000 0.0000 0.0000 6.7840 0.0000 0.0000
# 5 0.0000 0.0000 0.0000 0.0000 6.7840 0.0000
# 6 0.0000 0.0000 0.0000 0.0000 0.0000 47.8613
#
#
#
# Elastic Compliance Matrix: (Units=1/GPa)
#
#
# Indices 1 2 3 4 5 6 
#
# 1 0.010951 -0.005307 -0.001449 0.000000 0.000000 0.000000
# 2 -0.005307 0.010951 -0.001449 0.000000 0.000000 0.000000
# 3 -0.001449 -0.001449 0.006487 0.000000 0.000000 0.000000
# 4 0.000000 0.000000 0.000000 0.147406 0.000000 0.000000
# 5 0.000000 0.000000 0.000000 0.000000 0.147406 0.000000
# 6 0.000000 0.000000 0.000000 0.000000 0.000000 0.020894
#
#
# Mechanical properties :
#
#
# Convention : Reuss Voigt Hill
#
# Bulk Modulus (GPa) = 83.47845 83.68850 83.58347
# Shear Modulus (GPa) = 13.71751 30.75640 22.23695
#
# Velocity S-wave (km/s) = 2.38048 3.56447 3.03085
# Velocity P-wave (km/s) = 6.48386 7.17719 6.83932
#
# Compressibility (1/GPa) = 0.01197914
#
# Stress axis : x y z
#
# Youngs Moduli (GPa) = 91.31499 91.31499 154.16202
#
# Poissons Ratio (x) = 0.48464 0.22334
# Poissons Ratio (y) = 0.48464 0.22334
# Poissons Ratio (z) = 0.13229 0.13229
#
# Static dielectric constant tensor:
#      x y z
#    x 2.080140 0.000000 0.000000 
#    y 0.000000 2.080140 0.000000 
#    z 0.000000 0.000000 1.909400 
# 
# From -- ./inp_files/3185.got.cif
#   From: 2010.05.17/outbox.cif.g08.bks.cpg/sg110_2_cif.got.tgz:3185.got - 2010.05.20 10:54:03.
