data_PCOD9554580
_publ_section_title
;
Structure prediction by ZEFSAII (Michael W. Deem and Ramdas Pophale) SiO2 
 PCOD9554580
Probable space group: I 41 C D
;
_chemical_formula_sum "Si O2"
_cell_formula_units_Z 120
_cell_length_a 23.326237
_cell_length_b 23.326237
_cell_length_c 8.917404
_cell_angle_alpha 90.000000
_cell_angle_beta 90.000000
_cell_angle_gamma 90.000000
_cell_volume 4852.078408
_symmetry_space_group_name_H-M "I 41 C D"
_symmetry_group_IT_number 110
_symmetry_cell_setting 'tetragonal'
loop_
_space_group_symop_operation_xyz
x,y,z
-y,1/2+x,1/4+z
-x,-y,z
y,1/2-x,1/4+z
-x,y,1/2+z
x,-y,1/2+z
1/2-y,-x,1/4+z
1/2+y,x,1/4+z
1/2+x,1/2+y,1/2+z
1/2-y,x,3/4+z
1/2-x,1/2-y,1/2+z
1/2+y,-x,3/4+z
1/2-x,1/2+y,z
1/2+x,1/2-y,z
-y,1/2-x,3/4+z
y,1/2+x,3/4+z
loop_
_atom_site_type_symbol
_atom_site_label
_atom_site_fract_x
_atom_site_fract_y
_atom_site_fract_z
Si Si1 0.940945 0.173171 0.483170
Si Si2 0.287987 0.795709 0.619755
Si Si3 0.259756 0.913328 0.537937
Si Si4 0.721694 0.397782 0.540771
Si Si5 0.500000 0.000000 0.139410
Si Si6 0.657999 0.600182 0.330451
Si Si7 0.067163 0.552850 0.878929
Si Si8 0.034936 0.672529 0.014576
O O1 0.934944 0.204512 0.645470
O O2 0.932448 0.226009 0.367637
O O3 0.897078 0.129097 0.401060
O O4 0.979543 0.120917 0.550119
O O5 0.229014 0.785073 0.704344
O O6 0.296609 0.863984 0.616687
O O7 0.339919 0.763363 0.701701
O O8 0.205949 0.885475 0.453578
O O9 0.228934 0.954429 0.659268
O O10 0.679629 0.376908 0.672142
O O11 0.689099 0.437662 0.422911
O O12 0.517249 0.049773 0.254392
O O13 0.450268 0.018050 0.026343
O O14 0.657447 0.531497 0.296577
O O15 0.067478 0.618742 0.937226
#
# Coordination Sequence:
#
# PCOD9554580 Si02
#       8
#    16  16  16  16   8  16  16  16
#     4  11  24  47  72 108 158 196 255 326 406 468
#     4  12  25  39  67  98 145 192 245 306 388 470
#     4  11  24  45  67 107 152 198 257 324 394 482
#     4  11  26  44  70 112 150 201 265 325 391 495
#     4  10  26  50  82 116 144 202 280 332 418 474
#     4  11  24  43  74 103 148 206 257 321 387 482
#     4  11  24  50  79 110 152 200 263 340 394 483
#     4  12  24  48  78 110 151 209 270 320 398 490
#
# _framework density 24.731670000000001
#
# number of rings (size 3 to 8) (size 9 to 14) (size 15 to 20)
#    0.000    0.800    2.667    4.000    7.467    0.000 
#    9.600    0.000    0.000    0.000    0.000    0.000 
#    0.000    0.000    0.000    0.000    0.000    0.000 
#
# Total GULP energy -334472.589876 kJ/mol
# GULP energy per Si atom -5574.543165 kJ/mol
# Density = 2.467538 g / cm^3
# Si number density = 24.731670 Si / 1000 Ang^3
#
#
#
# Elastic Constant Matrix: (Units=GPa)
#
#
# Indices 1 2 3 4 5 6 
#
# 1 69.9967 16.8338 31.8649 0.0000 0.0000 0.0000
# 2 16.8338 69.9967 31.8649 0.0000 0.0000 0.0000
# 3 31.8649 31.8649 134.1042 0.0000 0.0000 0.0000
# 4 0.0000 0.0000 0.0000 33.0385 0.0000 0.0000
# 5 0.0000 0.0000 0.0000 0.0000 33.0385 0.0000
# 6 0.0000 0.0000 0.0000 0.0000 0.0000 17.9284
#
#
#
# Elastic Compliance Matrix: (Units=1/GPa)
#
#
# Indices 1 2 3 4 5 6 
#
# 1 0.016380 -0.002430 -0.003315 0.000000 0.000000 0.000000
# 2 -0.002430 0.016380 -0.003315 0.000000 0.000000 0.000000
# 3 -0.003315 -0.003315 0.009032 0.000000 0.000000 0.000000
# 4 0.000000 0.000000 0.000000 0.030268 0.000000 0.000000
# 5 0.000000 0.000000 0.000000 0.000000 0.030268 0.000000
# 6 0.000000 0.000000 0.000000 0.000000 0.000000 0.055777
#
#
# Mechanical properties :
#
#
# Convention : Reuss Voigt Hill
#
# Bulk Modulus (GPa) = 42.24279 48.35829 45.30054
# Shear Modulus (GPa) = 27.15704 29.70334 28.43019
#
# Velocity S-wave (km/s) = 3.31730 3.46934 3.39417
# Velocity P-wave (km/s) = 5.63828 5.97026 5.80665
#
# Compressibility (1/GPa) = 0.02367268
#
# Stress axis : x y z
#
# Youngs Moduli (GPa) = 61.05093 61.05093 110.71683
#
# Poissons Ratio (x) = 0.14837 0.36698
# Poissons Ratio (y) = 0.14837 0.36698
# Poissons Ratio (z) = 0.20236 0.20236
#
# Static dielectric constant tensor:
#      x y z
#    x 2.092920 0.000000 0.000000 
#    y 0.000000 2.092920 0.000000 
#    z 0.000000 0.000000 1.960920 
# 
# From -- ./inp_files/551.got.cif
#   From: 2010.05.17/outbox.cif.g08.bks.cpg/sg110_1_cif.got.tgz:551.got - 2010.05.20 10:54:03.
