data_PCOD9554594
_publ_section_title
;
Structure prediction by ZEFSAII (Michael W. Deem and Ramdas Pophale) SiO2 
 PCOD9554594
Probable space group: I 41 C D
;
_chemical_formula_sum "Si O2"
_cell_formula_units_Z 72
_cell_length_a 17.964394
_cell_length_b 17.964394
_cell_length_c 10.022087
_cell_angle_alpha 90.000000
_cell_angle_beta 90.000000
_cell_angle_gamma 90.000000
_cell_volume 3234.322422
_symmetry_space_group_name_H-M "I 41 C D"
_symmetry_group_IT_number 110
_symmetry_cell_setting 'tetragonal'
loop_
_space_group_symop_operation_xyz
x,y,z
-y,1/2+x,1/4+z
-x,-y,z
y,1/2-x,1/4+z
-x,y,1/2+z
x,-y,1/2+z
1/2-y,-x,1/4+z
1/2+y,x,1/4+z
1/2+x,1/2+y,1/2+z
1/2-y,x,3/4+z
1/2-x,1/2-y,1/2+z
1/2+y,-x,3/4+z
1/2-x,1/2+y,z
1/2+x,1/2-y,z
-y,1/2-x,3/4+z
y,1/2+x,3/4+z
loop_
_atom_site_type_symbol
_atom_site_label
_atom_site_fract_x
_atom_site_fract_y
_atom_site_fract_z
Si Si1 0.996115 0.352633 0.463400
Si Si2 0.516845 0.757357 0.715096
Si Si3 0.262086 0.314443 0.481902
Si Si4 0.500000 0.000000 0.600225
Si Si5 0.861862 0.587799 0.099518
O O1 0.010076 0.287424 0.571775
O O2 0.030124 0.431033 0.511232
O O3 0.908455 0.369027 0.484730
O O4 0.015605 0.327110 0.317100
O O5 0.602054 0.730830 0.717294
O O6 0.463832 0.697444 0.779968
O O7 0.262213 0.281475 0.629247
O O8 0.176185 0.348528 0.186886
O O9 0.427095 0.036940 0.667761
#
# Coordination Sequence:
#
# PCOD9554594 Si02
#       5
#    16  16  16   8  16
#     4   9  22  40  63  97 130 168 222 274 334 405
#     4  11  22  44  68  94 134 178 222 276 347 403
#     4  11  26  46  67  98 139 180 228 285 341 420
#     4   8  20  42  64 106 126 170 220 290 326 414
#     4   9  20  43  66  97 134 174 216 286 335 407
#
# _framework density 22.261230999999999
#
# number of rings (size 3 to 8) (size 9 to 14) (size 15 to 20)
#    1.333    0.889    0.000    2.667    3.111    2.667 
#    8.000    0.000    0.000    0.000    0.000    0.000 
#    0.000    0.000    0.000    0.000    0.000    0.000 
#
# Total GULP energy -200704.261207 kJ/mol
# GULP energy per Si atom -5575.118367 kJ/mol
# Density = 2.221056 g / cm^3
# Si number density = 22.261231 Si / 1000 Ang^3
#
#
#
# Elastic Constant Matrix: (Units=GPa)
#
#
# Indices 1 2 3 4 5 6 
#
# 1 27.9740 21.6659 -11.3394 0.0000 0.0000 0.0000
# 2 21.6659 27.9740 -11.3394 0.0000 0.0000 0.0000
# 3 -11.3394 -11.3394 45.1758 0.0000 0.0000 0.0000
# 4 0.0000 0.0000 0.0000 23.7063 0.0000 0.0000
# 5 0.0000 0.0000 0.0000 0.0000 23.7063 0.0000
# 6 0.0000 0.0000 0.0000 0.0000 0.0000 16.8138
#
#
#
# Elastic Compliance Matrix: (Units=1/GPa)
#
#
# Indices 1 2 3 4 5 6 
#
# 1 0.090640 -0.067885 0.005712 0.000000 0.000000 0.000000
# 2 -0.067885 0.090640 0.005712 0.000000 0.000000 0.000000
# 3 0.005712 0.005712 0.025003 0.000000 0.000000 0.000000
# 4 0.000000 0.000000 0.000000 0.042183 0.000000 0.000000
# 5 0.000000 0.000000 0.000000 0.000000 0.042183 0.000000
# 6 0.000000 0.000000 0.000000 0.000000 0.000000 0.059475
#
#
# Mechanical properties :
#
#
# Convention : Reuss Voigt Hill
#
# Bulk Modulus (GPa) = 10.71143 11.01087 10.86115
# Shear Modulus (GPa) = 10.11803 19.65440 14.88622
#
# Velocity S-wave (km/s) = 2.13425 2.97458 2.58874
# Velocity P-wave (km/s) = 3.30083 4.09322 3.71820
#
# Compressibility (1/GPa) = 0.09335823
#
# Stress axis : x y z
#
# Youngs Moduli (GPa) = 11.03267 11.03267 39.99514
#
# Poissons Ratio (x) = 0.74896 -0.22843
# Poissons Ratio (y) = 0.74896 -0.22843
# Poissons Ratio (z) = -0.06301 -0.06301
#
# Static dielectric constant tensor:
#      x y z
#    x 1.863420 0.000000 0.000000 
#    y 0.000000 1.863420 0.000000 
#    z 0.000000 0.000000 1.811750 
# 
# From -- ./inp_files/392.got.cif
#   From: 2010.05.17/outbox.cif.g08.bks.cpg/sg110_1_cif.got.tgz:392.got - 2010.05.20 10:54:03.
