data_PCOD9554178
_publ_section_title
;
Structure prediction by ZEFSAII (Michael W. Deem and Ramdas Pophale) SiO2 
 PCOD9554178
Probable space group: I 41 M D
;
_chemical_formula_sum "Si O2"
_cell_formula_units_Z 48
_cell_length_a 7.904051
_cell_length_b 7.904051
_cell_length_c 38.713448
_cell_angle_alpha 90.000000
_cell_angle_beta 90.000000
_cell_angle_gamma 90.000000
_cell_volume 2418.584810
_symmetry_space_group_name_H-M "I 41 M D"
_symmetry_group_IT_number 109
_symmetry_cell_setting 'tetragonal'
loop_
_space_group_symop_operation_xyz
x,y,z
-y,1/2+x,1/4+z
-x,-y,z
y,1/2-x,1/4+z
-x,y,z
x,-y,z
-y,1/2-x,1/4+z
y,1/2+x,1/4+z
1/2+x,1/2+y,1/2+z
1/2-y,x,3/4+z
1/2-x,1/2-y,1/2+z
1/2+y,-x,3/4+z
1/2-x,1/2+y,1/2+z
1/2+x,1/2-y,1/2+z
1/2-y,-x,3/4+z
1/2+y,x,3/4+z
loop_
_atom_site_type_symbol
_atom_site_label
_atom_site_fract_x
_atom_site_fract_y
_atom_site_fract_z
Si Si1 0.000000 0.296385 0.606750
Si Si2 0.294870 0.810522 0.903591
Si Si3 0.294870 0.689478 0.230001
Si Si4 0.000000 0.203615 0.526842
O O1 0.833588 0.235959 0.627171
O O2 0.000000 0.250000 0.566796
O O3 0.000000 0.500000 0.608893
O O4 0.500000 0.802089 0.905624
O O5 0.226624 0.773376 0.941796
O O6 0.247407 0.000000 0.892771
O O7 0.500000 0.697912 0.227968
O O8 0.247408 0.500000 0.240821
O O9 0.235958 0.833588 0.256421
O O10 0.000000 0.000000 0.524698
#
# Coordination Sequence:
#
# PCOD9554178 Si02
#       4
#     8  16  16   8
#     4  10  22  38  58  84 124 164 202 254 314 368
#     4  10  20  36  61  88 115 156 208 254 303 366
#     4  10  20  36  61  88 115 156 208 254 303 366
#     4  10  22  38  58  84 124 164 202 254 314 368
#
# _framework density 19.846319000000001
#
# number of rings (size 3 to 8) (size 9 to 14) (size 15 to 20)
#    0.000    2.000    3.333    0.000    0.000    4.667 
#    0.000    0.000    0.000    0.000    0.000    0.000 
#    0.000    0.000    0.000    0.000    0.000    0.000 
#
# Total GULP energy -134087.426806 kJ/mol
# GULP energy per Si atom -5586.976117 kJ/mol
# Density = 1.980115 g / cm^3
# Si number density = 19.846319 Si / 1000 Ang^3
#
#
#
# Elastic Constant Matrix: (Units=GPa)
#
#
# Indices 1 2 3 4 5 6 
#
# 1 96.3370 59.0882 68.0676 0.0000 0.0000 0.0000
# 2 59.0882 96.3369 68.0676 0.0000 0.0000 0.0000
# 3 68.0676 68.0676 170.9072 0.0000 0.0000 0.0000
# 4 0.0000 0.0000 0.0000 19.9963 0.0000 0.0000
# 5 0.0000 0.0000 0.0000 0.0000 19.9963 0.0000
# 6 0.0000 0.0000 0.0000 0.0000 0.0000 10.6256
#
#
#
# Elastic Compliance Matrix: (Units=1/GPa)
#
#
# Indices 1 2 3 4 5 6 
#
# 1 0.018364 -0.008483 -0.003935 0.000000 0.000000 0.000000
# 2 -0.008483 0.018364 -0.003935 0.000000 0.000000 0.000000
# 3 -0.003935 -0.003935 0.008986 0.000000 0.000000 0.000000
# 4 0.000000 0.000000 0.000000 0.050009 0.000000 0.000000
# 5 0.000000 0.000000 0.000000 0.000000 0.050009 0.000000
# 6 0.000000 0.000000 0.000000 0.000000 0.000000 0.094113
#
#
# Mechanical properties :
#
#
# Convention : Reuss Voigt Hill
#
# Bulk Modulus (GPa) = 76.88556 83.78088 80.33322
# Shear Modulus (GPa) = 18.05794 21.34747 19.70271
#
# Velocity S-wave (km/s) = 3.01971 3.28325 3.15423
# Velocity P-wave (km/s) = 7.14022 7.52858 7.33697
#
# Compressibility (1/GPa) = 0.01300634
#
# Stress axis : x y z
#
# Youngs Moduli (GPa) = 54.45535 54.45534 111.28747
#
# Poissons Ratio (x) = 0.46194 0.43794
# Poissons Ratio (y) = 0.46194 0.43794
# Poissons Ratio (z) = 0.21430 0.21430
#
# Static dielectric constant tensor:
#      x y z
#    x 1.715400 0.000000 0.000000 
#    y 0.000000 1.715400 0.000000 
#    z 0.000000 0.000000 1.625330 
# 
# From -- ./inp_files/5257.got.cif
#   From: 2010.05.17/outbox.cif.g08.bks.cpg/sg109_3_cif.got.tgz:5257.got - 2010.05.20 10:51:12.
