data_PCOD9554866
_publ_section_title
;
Structure prediction by ZEFSAII (Michael W. Deem and Ramdas Pophale) SiO2 
 PCOD9554866
Probable space group: P -4 2 M 
;
_chemical_formula_sum "Si O2"
_cell_formula_units_Z 32
_cell_length_a 13.809797
_cell_length_b 13.809797
_cell_length_c 8.787680
_cell_angle_alpha 90.000000
_cell_angle_beta 90.000000
_cell_angle_gamma 90.000000
_cell_volume 1675.902787
_symmetry_space_group_name_H-M "P -4 2 M "
_symmetry_group_IT_number 111
_symmetry_cell_setting 'tetragonal'
loop_
_space_group_symop_operation_xyz
x,y,z
y,-x,-z
-x,-y,z
-y,x,-z
x,-y,-z
-x,y,-z
-y,-x,z
y,x,z
loop_
_atom_site_type_symbol
_atom_site_label
_atom_site_fract_x
_atom_site_fract_y
_atom_site_fract_z
Si Si1 0.943873 0.397504 0.142063
Si Si2 0.399457 0.240500 0.407034
Si Si3 0.256838 0.902794 0.419501
Si Si4 0.593432 0.250670 0.952142
O O1 0.935609 0.326180 0.282153
O O2 0.000000 0.500000 0.174936
O O3 0.837956 0.411661 0.070036
O O4 0.000000 0.351276 0.000000
O O5 0.500000 0.238254 0.500000
O O6 0.342059 0.342059 0.428181
O O7 0.328032 0.157800 0.469714
O O8 0.412638 0.225256 0.226457
O O9 0.170240 0.829761 0.375190
O O10 0.219688 0.000000 0.500000
O O11 0.691411 0.308590 0.975319
O O12 0.500000 0.313014 0.000000
#
# Coordination Sequence:
#
# PCOD9554866 Si02
#       4
#     8   8   8   8
#     4  11  22  38  64  99 125 165 213 263 323 377
#     4  10  23  39  61  93 129 172 216 260 313 374
#     4  11  25  42  65  95 126 168 212 267 325 379
#     4  11  22  39  59  89 131 169 210 257 308 373
#
# _framework density 19.094185
#
# number of rings (size 3 to 8) (size 9 to 14) (size 15 to 20)
#    0.000    1.250    2.500    3.750    3.500    3.750 
#    0.000    3.750    0.000    0.000    0.000    0.000 
#    0.000    0.000    0.000    0.000    0.000    0.000 
#
# Total GULP energy -178525.585718 kJ/mol
# GULP energy per Si atom -5578.924554 kJ/mol
# Density = 1.905073 g / cm^3
# Si number density = 19.094185 Si / 1000 Ang^3
#
#
#
# Elastic Constant Matrix: (Units=GPa)
#
#
# Indices 1 2 3 4 5 6 
#
# 1 109.2061 56.8594 51.3130 0.0000 0.0000 0.0000
# 2 56.8594 109.2107 51.3146 0.0000 0.0000 0.0000
# 3 51.3130 51.3146 98.8848 0.0000 0.0000 0.0000
# 4 0.0000 0.0000 0.0000 25.9421 0.0000 0.0000
# 5 0.0000 0.0000 0.0000 0.0000 25.9408 0.0000
# 6 0.0000 0.0000 0.0000 0.0000 0.0000 19.9801
#
#
#
# Elastic Compliance Matrix: (Units=1/GPa)
#
#
# Indices 1 2 3 4 5 6 
#
# 1 0.013984 -0.005119 -0.004600 0.000000 0.000000 0.000000
# 2 -0.005119 0.013983 -0.004600 0.000000 0.000000 0.000000
# 3 -0.004600 -0.004600 0.014887 0.000000 0.000000 0.000000
# 4 0.000000 0.000000 0.000000 0.038547 0.000000 0.000000
# 5 0.000000 0.000000 0.000000 0.000000 0.038549 0.000000
# 6 0.000000 0.000000 0.000000 0.000000 0.000000 0.050050
#
#
# Mechanical properties :
#
#
# Convention : Reuss Voigt Hill
#
# Bulk Modulus (GPa) = 70.34437 70.69727 70.52082
# Shear Modulus (GPa) = 24.58494 24.89358 24.73926
#
# Velocity S-wave (km/s) = 3.59215 3.61463 3.60341
# Velocity P-wave (km/s) = 7.35700 7.38422 7.37062
#
# Compressibility (1/GPa) = 0.01421578
#
# Stress axis : x y z
#
# Youngs Moduli (GPa) = 71.51194 71.51445 67.17359
#
# Poissons Ratio (x) = 0.36609 0.30899
# Poissons Ratio (y) = 0.36608 0.30899
# Poissons Ratio (z) = 0.32895 0.32896
#
# Static dielectric constant tensor:
#      x y z
#    x 1.711180 0.000000 0.000000 
#    y 0.000000 1.711180 0.000000 
#    z 0.000000 0.000000 1.652430 
# 
# From -- ./inp_files/1301.got.cif
#   From: 2010.05.17/outbox.cif.g08.bks.cpg/sg111_1_cif.got.tgz:1301.got - 2010.05.20 10:56:05.
