data_PCOD9554200
_publ_section_title
;
Structure prediction by ZEFSAII (Michael W. Deem and Ramdas Pophale) SiO2 
 PCOD9554200
Probable space group: I 41 M D
;
_chemical_formula_sum "Si O2"
_cell_formula_units_Z 72
_cell_length_a 20.103633
_cell_length_b 20.103633
_cell_length_c 8.807065
_cell_angle_alpha 90.000000
_cell_angle_beta 90.000000
_cell_angle_gamma 90.000000
_cell_volume 3559.428689
_symmetry_space_group_name_H-M "I 41 M D"
_symmetry_group_IT_number 109
_symmetry_cell_setting 'tetragonal'
loop_
_space_group_symop_operation_xyz
x,y,z
-y,1/2+x,1/4+z
-x,-y,z
y,1/2-x,1/4+z
-x,y,z
x,-y,z
-y,1/2-x,1/4+z
y,1/2+x,1/4+z
1/2+x,1/2+y,1/2+z
1/2-y,x,3/4+z
1/2-x,1/2-y,1/2+z
1/2+y,-x,3/4+z
1/2-x,1/2+y,1/2+z
1/2+x,1/2-y,1/2+z
1/2-y,-x,3/4+z
1/2+y,x,3/4+z
loop_
_atom_site_type_symbol
_atom_site_label
_atom_site_fract_x
_atom_site_fract_y
_atom_site_fract_z
Si Si1 0.668598 0.750000 0.116680
Si Si2 0.671522 0.364603 0.328590
Si Si3 0.000000 0.500000 0.241679
Si Si4 0.114681 0.500000 0.493977
Si Si5 0.614681 0.500000 0.239382
Si Si6 0.135397 0.828478 0.154769
Si Si7 0.500000 0.500000 0.991680
O O1 0.711489 0.788511 0.241680
O O2 0.638532 0.691509 0.219997
O O3 0.638532 0.808491 0.013363
O O4 0.660216 0.434833 0.249025
O O5 0.750000 0.352075 0.366680
O O6 0.637152 0.362848 0.491680
O O7 0.935682 0.500000 0.350430
O O8 0.000000 0.435682 0.132929
O O9 0.160216 0.565167 0.484334
O O10 0.065882 0.500000 0.637987
O O11 0.565882 0.500000 0.095372
#
# Coordination Sequence:
#
# PCOD9554200 Si02
#       7
#    16  16   4   8   8  16   4
#     4  12  20  38  66  98 136 178 212 270 344 404
#     4  12  23  40  67 101 133 177 223 279 338 403
#     4  10  20  46  68  74 120 198 208 258 332 418
#     4  11  25  44  65  91 130 172 232 275 335 402
#     4  11  25  44  65  91 130 172 232 275 335 402
#     4  12  23  40  67 101 133 177 223 279 338 403
#     4  10  28  46  64  86 120 186 220 270 344 402
#
# _framework density 20.227964
#
# number of rings (size 3 to 8) (size 9 to 14) (size 15 to 20)
#    0.000    0.444    8.889    0.667    3.111    0.000 
#    0.000    0.000    0.000    8.000    0.000    0.000 
#    0.000    0.000    0.000    0.000    0.000    0.000 
#
# Total GULP energy -200752.398282 kJ/mol
# GULP energy per Si atom -5576.455508 kJ/mol
# Density = 2.018192 g / cm^3
# Si number density = 20.227964 Si / 1000 Ang^3
#
#
#
# Elastic Constant Matrix: (Units=GPa)
#
#
# Indices 1 2 3 4 5 6 
#
# 1 68.1268 33.7886 22.8351 0.0000 0.0000 0.0000
# 2 33.7886 68.1268 22.8351 0.0000 0.0000 0.0000
# 3 22.8351 22.8351 135.4180 0.0000 0.0000 0.0000
# 4 0.0000 0.0000 0.0000 14.7280 0.0000 0.0000
# 5 0.0000 0.0000 0.0000 0.0000 14.7280 0.0000
# 6 0.0000 0.0000 0.0000 0.0000 0.0000 18.8775
#
#
#
# Elastic Compliance Matrix: (Units=1/GPa)
#
#
# Indices 1 2 3 4 5 6 
#
# 1 0.019868 -0.009254 -0.001790 0.000000 0.000000 0.000000
# 2 -0.009254 0.019868 -0.001790 0.000000 0.000000 0.000000
# 3 -0.001790 -0.001790 0.007988 0.000000 0.000000 0.000000
# 4 0.000000 0.000000 0.000000 0.067898 0.000000 0.000000
# 5 0.000000 0.000000 0.000000 0.000000 0.067898 0.000000
# 6 0.000000 0.000000 0.000000 0.000000 0.000000 0.052973
#
#
# Mechanical properties :
#
#
# Convention : Reuss Voigt Hill
#
# Bulk Modulus (GPa) = 45.33688 47.84326 46.59007
# Shear Modulus (GPa) = 18.55201 22.48090 20.51646
#
# Velocity S-wave (km/s) = 3.03173 3.33735 3.18820
# Velocity P-wave (km/s) = 5.89210 6.20918 6.05271
#
# Compressibility (1/GPa) = 0.02205710
#
# Stress axis : x y z
#
# Youngs Moduli (GPa) = 50.33188 50.33188 125.18512
#
# Poissons Ratio (x) = 0.46577 0.22406
# Poissons Ratio (y) = 0.46577 0.22406
# Poissons Ratio (z) = 0.09009 0.09009
#
# Static dielectric constant tensor:
#      x y z
#    x 1.714580 0.000000 0.000000 
#    y 0.000000 1.714580 0.000000 
#    z 0.000000 0.000000 1.725910 
# 
# From -- ./inp_files/1312.got.cif
#   From: 2010.05.17/outbox.cif.g08.bks.cpg/sg109_1_cif.got.tgz:1312.got - 2010.05.20 10:51:12.
