data_PCOD9554205
_publ_section_title
;
Structure prediction by ZEFSAII (Michael W. Deem and Ramdas Pophale) SiO2 
 PCOD9554205
Probable space group: I 41 M D
;
_chemical_formula_sum "Si O2"
_cell_formula_units_Z 128
_cell_length_a 22.035722
_cell_length_b 22.035722
_cell_length_c 14.490870
_cell_angle_alpha 90.000000
_cell_angle_beta 90.000000
_cell_angle_gamma 90.000000
_cell_volume 7036.375857
_symmetry_space_group_name_H-M "I 41 M D"
_symmetry_group_IT_number 109
_symmetry_cell_setting 'tetragonal'
loop_
_space_group_symop_operation_xyz
x,y,z
-y,1/2+x,1/4+z
-x,-y,z
y,1/2-x,1/4+z
-x,y,z
x,-y,z
-y,1/2-x,1/4+z
y,1/2+x,1/4+z
1/2+x,1/2+y,1/2+z
1/2-y,x,3/4+z
1/2-x,1/2-y,1/2+z
1/2+y,-x,3/4+z
1/2-x,1/2+y,1/2+z
1/2+x,1/2-y,1/2+z
1/2-y,-x,3/4+z
1/2+y,x,3/4+z
loop_
_atom_site_type_symbol
_atom_site_label
_atom_site_fract_x
_atom_site_fract_y
_atom_site_fract_z
Si Si1 0.194257 0.100428 0.776820
Si Si2 0.565019 0.241309 0.855754
Si Si3 0.264446 0.668290 0.745487
Si Si4 0.431526 0.403350 0.371545
Si Si5 0.600428 0.694257 0.674842
Si Si6 0.758692 0.434981 0.095908
Si Si7 0.764446 0.668290 0.956175
Si Si8 0.096651 0.931526 0.080119
O O1 0.130418 0.076787 0.819161
O O2 0.250000 0.103893 0.850831
O O3 0.220546 0.065576 0.689233
O O4 0.178575 0.166180 0.733900
O O5 0.500000 0.247508 0.903124
O O6 0.618104 0.259838 0.924606
O O7 0.565577 0.279453 0.762429
O O8 0.572518 0.170268 0.829560
O O9 0.333820 0.678575 0.717761
O O10 0.250000 0.651240 0.850831
O O11 0.230878 0.730878 0.725832
O O12 0.500000 0.418737 0.335828
O O13 0.427482 0.329732 0.372103
O O14 0.426511 0.426511 0.475831
O O15 0.576787 0.630418 0.632502
O O16 0.752493 0.500000 0.048538
O O17 0.740162 0.381897 0.027056
O O18 0.081263 0.000000 0.115835
#
# Coordination Sequence:
#
# PCOD9554205 Si02
#       8
#    16  16  16  16  16  16  16  16
#     4  11  21  34  59  85 114 149 187 232 283 343
#     4  10  22  37  55  83 114 148 189 230 282 343
#     4  11  21  34  57  85 111 139 184 235 288 329
#     4  10  21  36  54  82 118 153 190 234 285 339
#     4  11  21  34  59  85 114 149 187 232 283 343
#     4  10  22  37  55  83 114 148 189 230 282 343
#     4  11  21  34  57  85 111 139 184 235 288 329
#     4  10  21  36  54  82 118 153 190 234 285 339
#
# _framework density 18.191182999999999
#
# number of rings (size 3 to 8) (size 9 to 14) (size 15 to 20)
#    0.000    1.500    5.000    0.750    3.500    2.250 
#    0.000    0.000    0.000    0.000    0.000    0.000 
#    0.000    0.000    0.000    0.000    0.000    0.000 
#
# Total GULP energy -356722.259155 kJ/mol
# GULP energy per Si atom -5573.785299 kJ/mol
# Density = 1.814978 g / cm^3
# Si number density = 18.191183 Si / 1000 Ang^3
#
#
#
# Elastic Constant Matrix: (Units=GPa)
#
#
# Indices 1 2 3 4 5 6 
#
# 1 79.6931 18.8866 26.8538 0.0000 0.0000 0.0000
# 2 18.8866 79.6931 26.8538 0.0000 0.0000 0.0000
# 3 26.8538 26.8538 99.3571 0.0000 0.0000 0.0000
# 4 0.0000 0.0000 0.0000 2.6769 0.0000 0.0000
# 5 0.0000 0.0000 0.0000 0.0000 2.6769 0.0000
# 6 0.0000 0.0000 0.0000 0.0000 0.0000 -51.4501
#
#
#
# Elastic Compliance Matrix: (Units=1/GPa)
#
#
# Indices 1 2 3 4 5 6 
#
# 1 0.014171 -0.002275 -0.003215 0.000000 0.000000 0.000000
# 2 -0.002275 0.014171 -0.003215 0.000000 0.000000 0.000000
# 3 -0.003215 -0.003215 0.011803 0.000000 0.000000 0.000000
# 4 0.000000 0.000000 0.000000 0.373565 0.000000 0.000000
# 5 0.000000 0.000000 0.000000 0.000000 0.373565 0.000000
# 6 0.000000 0.000000 0.000000 0.000000 0.000000 -0.019436
#
#
# Mechanical properties :
#
#
# Convention : Reuss Voigt Hill
#
# Bulk Modulus (GPa) = 43.98775 44.88128 44.43451
# Shear Modulus (GPa) = 6.30656 3.19069 4.74862
#
# Velocity S-wave (km/s) = 1.86396 1.32581 1.61743
# Velocity P-wave (km/s) = 5.37269 5.20281 5.28843
#
# Compressibility (1/GPa) = 0.02273360
#
# Stress axis : x y z
#
# Youngs Moduli (GPa) = 70.56838 70.56838 84.72678
#
# Poissons Ratio (x) = 0.16054 0.27241
# Poissons Ratio (y) = 0.16054 0.27241
# Poissons Ratio (z) = 0.22689 0.22689
#
# Static dielectric constant tensor:
#      x y z
#    x 1.641620 0.000000 0.000000 
#    y 0.000000 1.641620 0.000000 
#    z 0.000000 0.000000 1.600010 
# 
# From -- ./inp_files/2197.got.cif
#   From: 2010.05.17/outbox.cif.g08.bks.cpg/sg109_2_cif.got.tgz:2197.got - 2010.05.20 10:51:12.
