data_PCOD9554749
_publ_section_title
;
Structure prediction by ZEFSAII (Michael W. Deem and Ramdas Pophale) SiO2 
 PCOD9554749
Probable space group: P -4 2 M 
;
_chemical_formula_sum "Si O2"
_cell_formula_units_Z 24
_cell_length_a 14.759740
_cell_length_b 14.759740
_cell_length_c 4.911849
_cell_angle_alpha 90.000000
_cell_angle_beta 90.000000
_cell_angle_gamma 90.000000
_cell_volume 1070.045936
_symmetry_space_group_name_H-M "P -4 2 M "
_symmetry_group_IT_number 111
_symmetry_cell_setting 'tetragonal'
loop_
_space_group_symop_operation_xyz
x,y,z
y,-x,-z
-x,-y,z
-y,x,-z
x,-y,-z
-x,y,-z
-y,-x,z
y,x,z
loop_
_atom_site_type_symbol
_atom_site_label
_atom_site_fract_x
_atom_site_fract_y
_atom_site_fract_z
Si Si1 0.639037 0.903289 0.093226
Si Si2 0.906605 0.239264 0.411337
Si Si3 0.438876 0.289001 0.230395
O O1 0.671366 0.907749 0.403639
O O2 0.590133 0.806784 0.091462
O O3 0.727309 0.900243 0.897688
O O4 0.596769 0.000000 0.000000
O O5 0.822126 0.177875 0.478679
O O6 0.000000 0.191633 0.500000
O O7 0.500000 0.275092 0.500000
O O8 0.350629 0.350629 0.291239
O O9 0.500000 0.336155 0.000000
#
# Coordination Sequence:
#
# PCOD9554749 Si02
#       3
#     8   8   8
#     4  10  22  41  64  91 123 164 214 269 328 389
#     4  10  19  33  56  85 122 166 211 263 321 386
#     4  12  26  44  69  98 132 176 222 274 333 396
#
# _framework density 22.428944000000001
#
# number of rings (size 3 to 8) (size 9 to 14) (size 15 to 20)
#    0.000    1.333    0.000    6.000    0.000    3.000 
#    0.000    1.667    0.000    6.000    0.000    0.000 
#    0.000    0.000    0.000    0.000    0.000    0.000 
#
# Total GULP energy -133825.242999 kJ/mol
# GULP energy per Si atom -5576.051792 kJ/mol
# Density = 2.237789 g / cm^3
# Si number density = 22.428944 Si / 1000 Ang^3
#
#
#
# Elastic Constant Matrix: (Units=GPa)
#
#
# Indices 1 2 3 4 5 6 
#
# 1 116.9470 73.8540 14.8058 0.0000 0.0000 0.0000
# 2 73.8540 116.9428 14.8057 0.0000 0.0000 0.0000
# 3 14.8058 14.8057 76.6537 0.0000 0.0000 0.0000
# 4 0.0000 0.0000 0.0000 22.6081 0.0000 0.0000
# 5 0.0000 0.0000 0.0000 0.0000 22.6100 0.0000
# 6 0.0000 0.0000 0.0000 0.0000 0.0000 -53.5680
#
#
#
# Elastic Compliance Matrix: (Units=1/GPa)
#
#
# Indices 1 2 3 4 5 6 
#
# 1 0.014305 -0.008902 -0.001044 0.000000 0.000000 0.000000
# 2 -0.008902 0.014305 -0.001044 0.000000 0.000000 0.000000
# 3 -0.001044 -0.001044 0.013449 0.000000 0.000000 0.000000
# 4 0.000000 0.000000 0.000000 0.044232 0.000000 0.000000
# 5 0.000000 0.000000 0.000000 0.000000 0.044228 0.000000
# 6 0.000000 0.000000 0.000000 0.000000 0.000000 -0.018668
#
#
# Mechanical properties :
#
#
# Convention : Reuss Voigt Hill
#
# Bulk Modulus (GPa) = 49.79940 57.49715 53.64827
# Shear Modulus (GPa) = 35.58149 12.13523 23.85836
#
# Velocity S-wave (km/s) = 3.98730 2.32858 3.26503
# Velocity P-wave (km/s) = 6.59162 5.73765 6.17940
#
# Compressibility (1/GPa) = 0.02008056
#
# Stress axis : x y z
#
# Youngs Moduli (GPa) = 69.90731 69.90476 74.35590
#
# Poissons Ratio (x) = 0.62228 0.07760
# Poissons Ratio (y) = 0.62230 0.07760
# Poissons Ratio (z) = 0.07295 0.07296
#
# Static dielectric constant tensor:
#      x y z
#    x 1.874170 0.000000 0.000000 
#    y 0.000000 1.874170 0.000000 
#    z 0.000000 0.000000 1.782320 
# 
# From -- ./inp_files/165.got.cif
#   From: 2010.05.17/outbox.cif.g08.bks.cpg/sg111_1_cif.got.tgz:165.got - 2010.05.20 10:56:05.
