data_PCOD9554428
_publ_section_title
;
Structure prediction by ZEFSAII (Michael W. Deem and Ramdas Pophale) SiO2 
 PCOD9554428
Probable space group: I 41 C D
;
_chemical_formula_sum "Si O2"
_cell_formula_units_Z 120
_cell_length_a 16.385283
_cell_length_b 16.385283
_cell_length_c 19.570587
_cell_angle_alpha 90.000000
_cell_angle_beta 90.000000
_cell_angle_gamma 90.000000
_cell_volume 5254.262252
_symmetry_space_group_name_H-M "I 41 C D"
_symmetry_group_IT_number 110
_symmetry_cell_setting 'tetragonal'
loop_
_space_group_symop_operation_xyz
x,y,z
-y,1/2+x,1/4+z
-x,-y,z
y,1/2-x,1/4+z
-x,y,1/2+z
x,-y,1/2+z
1/2-y,-x,1/4+z
1/2+y,x,1/4+z
1/2+x,1/2+y,1/2+z
1/2-y,x,3/4+z
1/2-x,1/2-y,1/2+z
1/2+y,-x,3/4+z
1/2-x,1/2+y,z
1/2+x,1/2-y,z
-y,1/2-x,3/4+z
y,1/2+x,3/4+z
loop_
_atom_site_type_symbol
_atom_site_label
_atom_site_fract_x
_atom_site_fract_y
_atom_site_fract_z
Si Si1 0.821056 0.341230 0.296600
Si Si2 0.000000 0.500000 0.027903
Si Si3 0.798929 0.518793 0.249894
Si Si4 0.745853 0.406585 0.876905
Si Si5 0.976818 0.739559 0.756990
Si Si6 0.223227 0.726587 0.165532
Si Si7 0.861248 0.894284 0.748841
Si Si8 0.445396 0.349650 0.868773
O O1 0.780122 0.426554 0.275530
O O2 0.917111 0.334551 0.278945
O O3 0.778829 0.274103 0.247530
O O4 0.799867 0.316767 0.373027
O O5 0.962830 0.572144 0.983692
O O6 0.929730 0.458953 0.074015
O O7 0.814166 0.560943 0.322917
O O8 0.724714 0.573110 0.220081
O O9 0.857146 0.501493 0.186451
O O10 0.774228 0.317813 0.898495
O O11 0.664511 0.398499 0.829911
O O12 0.729299 0.465208 0.941275
O O13 0.913476 0.812652 0.739332
O O14 0.026616 0.773959 0.821390
O O15 0.172229 0.646542 0.142085
#
# Coordination Sequence:
#
# PCOD9554428 Si02
#       8
#    16   8  16  16  16  16  16  16
#     4  11  21  36  65  92 122 166 214 270 328 398
#     4  10  20  40  66  86 124 170 214 248 332 400
#     4   9  21  39  58  90 130 161 215 273 334 390
#     4  10  22  41  58  91 129 165 212 273 321 400
#     4  11  22  40  64  93 123 171 221 258 340 403
#     4  11  22  40  63  93 125 168 217 272 329 394
#     4   9  21  40  60  89 124 170 213 267 321 405
#     4  10  23  39  63  94 121 168 213 267 327 406
#
# _framework density 22.838602000000002
#
# number of rings (size 3 to 8) (size 9 to 14) (size 15 to 20)
#    0.800    1.067    1.333    2.400    3.733    6.400 
#    4.800    0.000    0.000    6.400    0.000    0.000 
#    0.000    0.000    0.000    0.000    0.000    0.000 
#
# Total GULP energy -334292.621671 kJ/mol
# GULP energy per Si atom -5571.543695 kJ/mol
# Density = 2.278662 g / cm^3
# Si number density = 22.838602 Si / 1000 Ang^3
#
#
#
# Elastic Constant Matrix: (Units=GPa)
#
#
# Indices 1 2 3 4 5 6 
#
# 1 48.2677 -5.2591 -7.9991 0.0000 0.0000 0.0000
# 2 -5.2591 48.2677 -7.9991 0.0000 0.0000 0.0000
# 3 -7.9991 -7.9991 73.2390 0.0000 0.0000 0.0000
# 4 0.0000 0.0000 0.0000 27.2578 0.0000 0.0000
# 5 0.0000 0.0000 0.0000 0.0000 27.2578 0.0000
# 6 0.0000 0.0000 0.0000 0.0000 0.0000 14.6922
#
#
#
# Elastic Compliance Matrix: (Units=1/GPa)
#
#
# Indices 1 2 3 4 5 6 
#
# 1 0.021459 0.002777 0.002647 0.000000 0.000000 0.000000
# 2 0.002777 0.021459 0.002647 0.000000 0.000000 0.000000
# 3 0.002647 0.002647 0.014232 0.000000 0.000000 0.000000
# 4 0.000000 0.000000 0.000000 0.036687 0.000000 0.000000
# 5 0.000000 0.000000 0.000000 0.000000 0.036687 0.000000
# 6 0.000000 0.000000 0.000000 0.000000 0.000000 0.068063
#
#
# Mechanical properties :
#
#
# Convention : Reuss Voigt Hill
#
# Bulk Modulus (GPa) = 13.64409 14.13997 13.89203
# Shear Modulus (GPa) = 24.16908 26.57702 25.37305
#
# Velocity S-wave (km/s) = 3.25661 3.41499 3.33674
# Velocity P-wave (km/s) = 4.48640 4.66414 4.57614
#
# Compressibility (1/GPa) = 0.07329179
#
# Stress axis : x y z
#
# Youngs Moduli (GPa) = 46.60046 46.60046 70.26354
#
# Poissons Ratio (x) = -0.12940 -0.18599
# Poissons Ratio (y) = -0.12940 -0.18599
# Poissons Ratio (z) = -0.12335 -0.12335
#
# Static dielectric constant tensor:
#      x y z
#    x 1.924900 0.000000 0.000000 
#    y 0.000000 1.924900 0.000000 
#    z 0.000000 0.000000 1.885970 
# 
# From -- ./inp_files/2345.got.cif
#   From: 2010.05.17/outbox.cif.g08.bks.cpg/sg110_2_cif.got.tgz:2345.got - 2010.05.20 10:54:03.
