data_PCOD9554274
_publ_section_title
;
Structure prediction by ZEFSAII (Michael W. Deem and Ramdas Pophale) SiO2 
 PCOD9554274
Probable space group: I 41 M D
;
_chemical_formula_sum "Si O2"
_cell_formula_units_Z 116
_cell_length_a 18.103943
_cell_length_b 18.103943
_cell_length_c 17.074206
_cell_angle_alpha 90.000000
_cell_angle_beta 90.000000
_cell_angle_gamma 90.000000
_cell_volume 5596.118007
_symmetry_space_group_name_H-M "I 41 M D"
_symmetry_group_IT_number 109
_symmetry_cell_setting 'tetragonal'
loop_
_space_group_symop_operation_xyz
x,y,z
-y,1/2+x,1/4+z
-x,-y,z
y,1/2-x,1/4+z
-x,y,z
x,-y,z
-y,1/2-x,1/4+z
y,1/2+x,1/4+z
1/2+x,1/2+y,1/2+z
1/2-y,x,3/4+z
1/2-x,1/2-y,1/2+z
1/2+y,-x,3/4+z
1/2-x,1/2+y,1/2+z
1/2+x,1/2-y,1/2+z
1/2-y,-x,3/4+z
1/2+y,x,3/4+z
loop_
_atom_site_type_symbol
_atom_site_label
_atom_site_fract_x
_atom_site_fract_y
_atom_site_fract_z
Si Si1 0.167083 0.698193 0.086440
Si Si2 0.311864 0.581838 0.489496
Si Si3 0.354173 0.084254 0.851730
Si Si4 0.875679 0.850870 0.276465
Si Si5 0.500000 0.000000 0.407413
Si Si6 0.206759 0.341275 0.805184
Si Si7 0.913063 0.914099 0.444179
Si Si8 0.144912 0.418914 0.952494
O O1 0.140654 0.671871 0.171689
O O2 0.130714 0.779476 0.084027
O O3 0.255023 0.702583 0.077025
O O4 0.139591 0.641350 0.020621
O O5 0.302219 0.500000 0.454575
O O6 0.377563 0.583962 0.550349
O O7 0.235689 0.602851 0.532738
O O8 0.342243 0.000000 0.830427
O O9 0.373263 0.090605 0.943354
O O10 0.787343 0.856394 0.270354
O O11 0.902768 0.894013 0.352745
O O12 0.565545 0.936855 0.414289
O O13 0.142764 0.365132 0.745098
O O14 0.196839 0.388141 0.884322
O O15 0.000000 0.905259 0.465367
O O16 0.894138 0.000000 0.457984
O O17 0.170881 0.500000 0.982178
#
# Coordination Sequence:
#
# PCOD9554274 Si02
#       8
#    16  16  16  16   4  16  16  16
#     4  11  23  42  66  97 131 171 222 273 325 393
#     4  11  24  42  68  98 131 172 222 273 333 392
#     4  11  24  42  68  98 131 172 220 272 337 392
#     4  11  23  43  67  96 131 176 219 276 332 397
#     4   8  24  44  64  88 144 172 218 272 324 404
#     4  12  24  39  71  96 135 171 221 278 324 397
#     4  11  26  44  67  99 136 177 226 278 331 397
#     4  10  24  42  64  94 130 179 218 263 333 394
#
# _framework density 20.728656000000001
#
# number of rings (size 3 to 8) (size 9 to 14) (size 15 to 20)
#    0.414    0.690    1.379    5.379    6.759    4.138 
#    0.000    0.000    0.000    0.000    0.000    0.000 
#    0.000    0.000    0.000    0.000    0.000    0.000 
#
# Total GULP energy -323654.603315 kJ/mol
# GULP energy per Si atom -5580.251781 kJ/mol
# Density = 2.068148 g / cm^3
# Si number density = 20.728656 Si / 1000 Ang^3
#
#
#
# Elastic Constant Matrix: (Units=GPa)
#
#
# Indices 1 2 3 4 5 6 
#
# 1 70.8283 37.2709 19.1885 0.0000 0.0000 0.0000
# 2 37.2709 70.8283 19.1885 0.0000 0.0000 0.0000
# 3 19.1885 19.1885 51.5086 0.0000 0.0000 0.0000
# 4 0.0000 0.0000 0.0000 -6.9408 0.0000 0.0000
# 5 0.0000 0.0000 0.0000 0.0000 -6.9408 0.0000
# 6 0.0000 0.0000 0.0000 0.0000 0.0000 14.6229
#
#
#
# Elastic Compliance Matrix: (Units=1/GPa)
#
#
# Indices 1 2 3 4 5 6 
#
# 1 0.020230 -0.009569 -0.003971 0.000000 0.000000 0.000000
# 2 -0.009569 0.020230 -0.003971 0.000000 0.000000 0.000000
# 3 -0.003971 -0.003971 0.022373 0.000000 0.000000 0.000000
# 4 0.000000 0.000000 0.000000 -0.144076 0.000000 0.000000
# 5 0.000000 0.000000 0.000000 0.000000 -0.144076 0.000000
# 6 0.000000 0.000000 0.000000 0.000000 0.000000 0.068386
#
#
# Mechanical properties :
#
#
# Convention : Reuss Voigt Hill
#
# Bulk Modulus (GPa) = 35.95977 38.27345 37.11661
# Shear Modulus (GPa) = -44.39014 7.98276 -18.20369
#
# Velocity S-wave (km/s) = -4.63264 1.96454 -2.96664
# Velocity P-wave (km/s) = 3.35106 4.86313 2.49203
#
# Compressibility (1/GPa) = 0.02780886
#
# Stress axis : x y z
#
# Youngs Moduli (GPa) = 49.43113 49.43113 44.69636
#
# Poissons Ratio (x) = 0.47303 0.17751
# Poissons Ratio (y) = 0.47303 0.17751
# Poissons Ratio (z) = 0.19631 0.19631
#
# Static dielectric constant tensor:
#      x y z
#    x 1.743160 0.000000 0.000000 
#    y 0.000000 1.743160 0.000000 
#    z 0.000000 0.000000 1.755330 
# 
# From -- ./inp_files/3229.got.cif
#   From: 2010.05.17/outbox.cif.g08.bks.cpg/sg109_2_cif.got.tgz:3229.got - 2010.05.20 10:51:12.
