data_PCOD9554353
_publ_section_title
;
Structure prediction by ZEFSAII (Michael W. Deem and Ramdas Pophale) SiO2 
 PCOD9554353
Probable space group: I 41 C D
;
_chemical_formula_sum "Si O2"
_cell_formula_units_Z 112
_cell_length_a 23.176142
_cell_length_b 23.176142
_cell_length_c 10.344471
_cell_angle_alpha 90.000000
_cell_angle_beta 90.000000
_cell_angle_gamma 90.000000
_cell_volume 5556.362514
_symmetry_space_group_name_H-M "I 41 C D"
_symmetry_group_IT_number 110
_symmetry_cell_setting 'tetragonal'
loop_
_space_group_symop_operation_xyz
x,y,z
-y,1/2+x,1/4+z
-x,-y,z
y,1/2-x,1/4+z
-x,y,1/2+z
x,-y,1/2+z
1/2-y,-x,1/4+z
1/2+y,x,1/4+z
1/2+x,1/2+y,1/2+z
1/2-y,x,3/4+z
1/2-x,1/2-y,1/2+z
1/2+y,-x,3/4+z
1/2-x,1/2+y,z
1/2+x,1/2-y,z
-y,1/2-x,3/4+z
y,1/2+x,3/4+z
loop_
_atom_site_type_symbol
_atom_site_label
_atom_site_fract_x
_atom_site_fract_y
_atom_site_fract_z
Si Si1 0.094704 0.732018 0.233070
Si Si2 0.123340 0.836573 0.059087
Si Si3 0.298436 0.046675 0.111650
Si Si4 0.606457 0.018330 0.958894
Si Si5 0.806824 0.033055 0.449948
Si Si6 0.931607 0.915983 0.990960
Si Si7 0.287373 0.062248 0.750182
O O1 0.121620 0.774257 0.127208
O O2 0.135873 0.685264 0.296847
O O3 0.077953 0.771475 0.354406
O O4 0.035726 0.702023 0.183703
O O5 0.078277 0.877471 0.137106
O O6 0.103777 0.828072 0.910725
O O7 0.302288 0.005515 0.236176
O O8 0.232142 0.050306 0.073294
O O9 0.335729 0.017757 0.998521
O O10 0.571955 0.976386 0.859316
O O11 0.582081 0.034882 0.101922
O O12 0.873365 0.047560 0.471935
O O13 0.769764 0.065936 0.337901
O O14 0.909943 0.849993 0.021389
#
# Coordination Sequence:
#
# PCOD9554353 Si02
#       7
#    16  16  16  16  16  16  16
#     4  11  24  39  66  91 126 169 223 267 328 401
#     4  12  21  41  64  91 128 173 216 273 340 392
#     4  10  18  36  65  84 121 164 214 258 317 394
#     4  11  19  40  64  92 126 175 206 268 345 382
#     4  11  21  40  64  97 121 168 232 263 312 408
#     4  11  21  36  71  91 131 172 216 271 329 394
#     4  10  18  38  61  90 118 164 215 262 320 385
#
# _framework density 20.157071999999999
#
# number of rings (size 3 to 8) (size 9 to 14) (size 15 to 20)
#    0.000    1.143   10.000    0.857    0.000    1.143 
#    0.000    2.143    3.143    0.000    0.000    0.000 
#    0.000    0.000    0.000    0.000    0.000    0.000 
#
# Total GULP energy -311776.841591 kJ/mol
# GULP energy per Si atom -5567.443600 kJ/mol
# Density = 2.011119 g / cm^3
# Si number density = 20.157072 Si / 1000 Ang^3
#
#
#
# Elastic Constant Matrix: (Units=GPa)
#
#
# Indices 1 2 3 4 5 6 
#
# 1 54.5087 46.4330 22.6906 0.0000 0.0000 0.0000
# 2 46.4330 54.5087 22.6906 0.0000 0.0000 0.0000
# 3 22.6906 22.6906 95.3752 0.0000 0.0000 0.0000
# 4 0.0000 0.0000 0.0000 23.2188 0.0000 0.0000
# 5 0.0000 0.0000 0.0000 0.0000 23.2188 0.0000
# 6 0.0000 0.0000 0.0000 0.0000 0.0000 34.1601
#
#
#
# Elastic Compliance Matrix: (Units=1/GPa)
#
#
# Indices 1 2 3 4 5 6 
#
# 1 0.067460 -0.056367 -0.002639 0.000000 0.000000 0.000000
# 2 -0.056367 0.067460 -0.002639 0.000000 0.000000 0.000000
# 3 -0.002639 -0.002639 0.011741 0.000000 0.000000 0.000000
# 4 0.000000 0.000000 0.000000 0.043068 0.000000 0.000000
# 5 0.000000 0.000000 0.000000 0.000000 0.043068 0.000000
# 6 0.000000 0.000000 0.000000 0.000000 0.000000 0.029274
#
#
# Mechanical properties :
#
#
# Convention : Reuss Voigt Hill
#
# Bulk Modulus (GPa) = 42.78914 43.11345 42.95129
# Shear Modulus (GPa) = 12.71767 23.62479 18.17123
#
# Velocity S-wave (km/s) = 2.51455 3.42721 3.00573
# Velocity P-wave (km/s) = 5.45019 6.09067 5.77931
#
# Compressibility (1/GPa) = 0.02337042
#
# Stress axis : x y z
#
# Youngs Moduli (GPa) = 14.82350 14.82350 85.17401
#
# Poissons Ratio (x) = 0.83556 0.22479
# Poissons Ratio (y) = 0.83556 0.22479
# Poissons Ratio (z) = 0.03912 0.03912
#
# Static dielectric constant tensor:
#      x y z
#    x 1.736920 0.000000 0.000000 
#    y 0.000000 1.736920 0.000000 
#    z 0.000000 0.000000 1.782840 
# 
# From -- ./inp_files/977.got.cif
#   From: 2010.05.17/outbox.cif.g08.bks.cpg/sg110_1_cif.got.tgz:977.got - 2010.05.20 10:54:03.
