data_PCOD9554320
_publ_section_title
;
Structure prediction by ZEFSAII (Michael W. Deem and Ramdas Pophale) SiO2 
 PCOD9554320
Probable space group: I 41 M D
;
_chemical_formula_sum "Si O2"
_cell_formula_units_Z 128
_cell_length_a 14.321098
_cell_length_b 14.321098
_cell_length_c 25.394963
_cell_angle_alpha 90.000000
_cell_angle_beta 90.000000
_cell_angle_gamma 90.000000
_cell_volume 5208.350680
_symmetry_space_group_name_H-M "I 41 M D"
_symmetry_group_IT_number 109
_symmetry_cell_setting 'tetragonal'
loop_
_space_group_symop_operation_xyz
x,y,z
-y,1/2+x,1/4+z
-x,-y,z
y,1/2-x,1/4+z
-x,y,z
x,-y,z
-y,1/2-x,1/4+z
y,1/2+x,1/4+z
1/2+x,1/2+y,1/2+z
1/2-y,x,3/4+z
1/2-x,1/2-y,1/2+z
1/2+y,-x,3/4+z
1/2-x,1/2+y,1/2+z
1/2+x,1/2-y,1/2+z
1/2-y,-x,3/4+z
1/2+y,x,3/4+z
loop_
_atom_site_type_symbol
_atom_site_label
_atom_site_fract_x
_atom_site_fract_y
_atom_site_fract_z
Si Si1 0.357981 0.188995 0.258460
Si Si2 0.140468 0.899670 0.737026
Si Si3 0.635746 0.806446 0.370886
Si Si4 0.141108 0.399797 0.262955
Si Si5 0.364254 0.306446 0.784616
Si Si6 0.641108 0.600203 0.392547
Si Si7 0.100330 0.859532 0.168476
Si Si8 0.357981 0.688995 0.897042
O O1 0.394124 0.295257 0.249985
O O2 0.390969 0.150001 0.314781
O O3 0.246466 0.194326 0.270663
O O4 0.365045 0.134955 0.202751
O O5 0.149071 0.903361 0.673661
O O6 0.246338 0.899144 0.759863
O O7 0.099822 0.000000 0.753351
O O8 0.610143 0.696511 0.366788
O O9 0.746466 0.805674 0.384839
O O10 0.111777 0.500000 0.284650
O O11 0.110143 0.303489 0.288714
O O12 0.107587 0.392413 0.202751
O O13 0.403361 0.350929 0.731841
O O14 0.390969 0.349999 0.840721
O O15 0.611777 0.500000 0.370852
O O16 0.753661 0.600856 0.395639
O O17 0.204743 0.894124 0.155517
O O18 0.000000 0.900178 0.152151
#
# Coordination Sequence:
#
# PCOD9554320 Si02
#       8
#    16  16  16  16  16  16  16  16
#     4   8  13  20  29  40  53  71  95 121 147 174
#     4   8  13  20  28  38  53  72  93 116 142 171
#     4   8  13  20  28  38  53  72  93 120 151 173
#     4   8  13  19  25  34  49  70  97 124 145 164
#     4   8  13  20  28  38  53  72  93 120 151 173
#     4   8  13  19  25  34  49  70  97 124 145 164
#     4   8  13  20  28  38  53  72  93 116 142 171
#     4   8  13  20  29  40  53  71  95 121 147 174
#
# _framework density 24.575917
#
# number of rings (size 3 to 8) (size 9 to 14) (size 15 to 20)
#    0.000    4.000    0.000    3.000    0.000    1.250 
#    0.000    5.000    0.000    0.000    0.000    0.000 
#    0.000    0.000    0.000   18.000    0.000    2.750 
#
# Total GULP energy -356394.662802 kJ/mol
# GULP energy per Si atom -5568.666606 kJ/mol
# Density = 2.451998 g / cm^3
# Si number density = 24.575917 Si / 1000 Ang^3
#
#
#
# Elastic Constant Matrix: (Units=GPa)
#
#
# Indices 1 2 3 4 5 6 
#
# 1 59.5940 -2.1598 0.5608 0.0000 0.0000 0.0000
# 2 -2.1598 59.5940 0.5608 0.0000 0.0000 0.0000
# 3 0.5608 0.5608 216.4896 0.0000 0.0000 0.0000
# 4 0.0000 0.0000 0.0000 -18.4949 0.0000 0.0000
# 5 0.0000 0.0000 0.0000 0.0000 -18.4949 0.0000
# 6 0.0000 0.0000 0.0000 0.0000 0.0000 -12.1084
#
#
#
# Elastic Compliance Matrix: (Units=1/GPa)
#
#
# Indices 1 2 3 4 5 6 
#
# 1 0.016803 0.000609 -0.000045 0.000000 0.000000 0.000000
# 2 0.000609 0.016803 -0.000045 0.000000 0.000000 0.000000
# 3 -0.000045 -0.000045 0.004619 0.000000 0.000000 0.000000
# 4 0.000000 0.000000 0.000000 -0.054069 0.000000 0.000000
# 5 0.000000 0.000000 0.000000 0.000000 -0.054069 0.000000
# 6 0.000000 0.000000 0.000000 0.000000 0.000000 -0.082587
#
#
# Mechanical properties :
#
#
# Convention : Reuss Voigt Hill
#
# Bulk Modulus (GPa) = 25.46916 37.06682 31.26799
# Shear Modulus (GPa) = -35.59957 12.62809 -11.48574
#
# Velocity S-wave (km/s) = -3.81012 2.26926 -2.16419
# Velocity P-wave (km/s) = 2.99500 4.68843 2.55062
#
# Compressibility (1/GPa) = 0.03926317
#
# Stress axis : x y z
#
# Youngs Moduli (GPa) = 59.51416 59.51416 216.47867
#
# Poissons Ratio (x) = -0.03627 0.00976
# Poissons Ratio (y) = -0.03627 0.00976
# Poissons Ratio (z) = 0.00268 0.00268
#
# Static dielectric constant tensor:
#      x y z
#    x 1.970360 0.000000 0.000000 
#    y 0.000000 1.970360 0.000000 
#    z 0.000000 0.000000 1.993560 
# 
# From -- ./inp_files/4571.got.cif
#   From: 2010.05.17/outbox.cif.g08.bks.cpg/sg109_3_cif.got.tgz:4571.got - 2010.05.20 10:51:12.
