data_PCOD9554271
_publ_section_title
;
Structure prediction by ZEFSAII (Michael W. Deem and Ramdas Pophale) SiO2 
 PCOD9554271
Probable space group: I 41 M D
;
_chemical_formula_sum "Si O2"
_cell_formula_units_Z 84
_cell_length_a 12.413596
_cell_length_b 12.413596
_cell_length_c 28.629496
_cell_angle_alpha 90.000000
_cell_angle_beta 90.000000
_cell_angle_gamma 90.000000
_cell_volume 4411.729914
_symmetry_space_group_name_H-M "I 41 M D"
_symmetry_group_IT_number 109
_symmetry_cell_setting 'tetragonal'
loop_
_space_group_symop_operation_xyz
x,y,z
-y,1/2+x,1/4+z
-x,-y,z
y,1/2-x,1/4+z
-x,y,z
x,-y,z
-y,1/2-x,1/4+z
y,1/2+x,1/4+z
1/2+x,1/2+y,1/2+z
1/2-y,x,3/4+z
1/2-x,1/2-y,1/2+z
1/2+y,-x,3/4+z
1/2-x,1/2+y,1/2+z
1/2+x,1/2-y,1/2+z
1/2-y,-x,3/4+z
1/2+y,x,3/4+z
loop_
_atom_site_type_symbol
_atom_site_label
_atom_site_fract_x
_atom_site_fract_y
_atom_site_fract_z
Si Si1 0.869659 0.500000 0.905921
Si Si2 0.809288 0.160582 0.872105
Si Si3 0.000000 0.129920 0.545542
Si Si4 0.713693 0.374393 0.210576
Si Si5 0.626985 0.000000 0.016105
Si Si6 0.000000 0.500000 0.094348
Si Si7 0.204320 0.263014 0.539134
Si Si8 0.871753 0.500000 0.403238
O O1 0.841833 0.500000 0.851218
O O2 0.836294 0.395177 0.934909
O O3 0.000000 0.500000 0.906048
O O4 0.858687 0.194633 0.921727
O O5 0.903285 0.092325 0.847263
O O6 0.777531 0.260282 0.839900
O O7 0.697549 0.098675 0.882493
O O8 0.895999 0.188653 0.524366
O O9 0.000000 0.000000 0.540573
O O10 0.702459 0.500000 0.222904
O O11 0.740746 0.303816 0.255041
O O12 0.500000 0.000000 0.026159
O O13 0.639683 0.000000 0.959615
O O14 0.675549 0.110890 0.036023
O O15 0.000000 0.500000 0.392416
#
# Coordination Sequence:
#
# PCOD9554271 Si02
#       8
#     8  16   8  16   8   4  16   8
#     4   9  20  41  65  89 127 166 212 264 328 388
#     4  11  23  42  67  95 131 176 217 275 336 389
#     4  11  24  43  69  96 129 177 216 271 334 398
#     4  11  23  42  65  98 128 170 216 274 330 395
#     4  11  23  45  65  92 130 182 229 269 327 397
#     4  10  24  40  66  94 132 182 218 272 344 398
#     4  12  26  42  69  99 133 174 228 272 333 398
#     4  10  23  43  64  90 131 179 222 270 325 389
#
# _framework density 19.040150000000001
#
# number of rings (size 3 to 8) (size 9 to 14) (size 15 to 20)
#    0.000    1.143    5.714    0.000    6.667    0.000 
#    1.714    0.000    0.000    1.143    0.000    0.000 
#    0.000    0.000    0.000    0.000    0.000    0.000 
#
# Total GULP energy -233854.130852 kJ/mol
# GULP energy per Si atom -5567.955496 kJ/mol
# Density = 1.899681 g / cm^3
# Si number density = 19.040150 Si / 1000 Ang^3
#
#
#
# Elastic Constant Matrix: (Units=GPa)
#
#
# Indices 1 2 3 4 5 6 
#
# 1 125.9772 53.3297 19.0989 0.0000 0.0000 0.0000
# 2 53.3297 125.9772 19.0989 0.0000 0.0000 0.0000
# 3 19.0989 19.0989 44.1873 0.0000 0.0000 0.0000
# 4 0.0000 0.0000 0.0000 16.3424 0.0000 0.0000
# 5 0.0000 0.0000 0.0000 0.0000 16.3424 0.0000
# 6 0.0000 0.0000 0.0000 0.0000 0.0000 31.7547
#
#
#
# Elastic Compliance Matrix: (Units=1/GPa)
#
#
# Indices 1 2 3 4 5 6 
#
# 1 0.009954 -0.003811 -0.002655 0.000000 0.000000 0.000000
# 2 -0.003811 0.009954 -0.002655 0.000000 0.000000 0.000000
# 3 -0.002655 -0.002655 0.024926 0.000000 0.000000 0.000000
# 4 0.000000 0.000000 0.000000 0.061190 0.000000 0.000000
# 5 0.000000 0.000000 0.000000 0.000000 0.061190 0.000000
# 6 0.000000 0.000000 0.000000 0.000000 0.000000 0.031491
#
#
# Mechanical properties :
#
#
# Convention : Reuss Voigt Hill
#
# Bulk Modulus (GPa) = 37.60631 53.24410 45.42520
# Shear Modulus (GPa) = 22.14229 26.52885 24.33557
#
# Velocity S-wave (km/s) = 3.41387 3.73676 3.57896
# Velocity P-wave (km/s) = 5.94418 6.82954 6.40218
#
# Compressibility (1/GPa) = 0.02659129
#
# Stress axis : x y z
#
# Youngs Moduli (GPa) = 100.46348 100.46348 40.11866
#
# Poissons Ratio (x) = 0.38289 0.10652
# Poissons Ratio (y) = 0.38289 0.10652
# Poissons Ratio (z) = 0.26673 0.26673
#
# Static dielectric constant tensor:
#      x y z
#    x 1.657770 0.000000 0.000000 
#    y 0.000000 1.657770 0.000000 
#    z 0.000000 0.000000 1.647590 
# 
# From -- ./inp_files/5641.got.cif
#   From: 2010.05.17/outbox.cif.g08.bks.cpg/sg109_3_cif.got.tgz:5641.got - 2010.05.20 10:51:12.
