data_PCOD9554217
_publ_section_title
;
Structure prediction by ZEFSAII (Michael W. Deem and Ramdas Pophale) SiO2 
 PCOD9554217
Probable space group: I 41 M D
;
_chemical_formula_sum "Si O2"
_cell_formula_units_Z 96
_cell_length_a 20.197956
_cell_length_b 20.197956
_cell_length_c 12.448275
_cell_angle_alpha 90.000000
_cell_angle_beta 90.000000
_cell_angle_gamma 90.000000
_cell_volume 5078.366234
_symmetry_space_group_name_H-M "I 41 M D"
_symmetry_group_IT_number 109
_symmetry_cell_setting 'tetragonal'
loop_
_space_group_symop_operation_xyz
x,y,z
-y,1/2+x,1/4+z
-x,-y,z
y,1/2-x,1/4+z
-x,y,z
x,-y,z
-y,1/2-x,1/4+z
y,1/2+x,1/4+z
1/2+x,1/2+y,1/2+z
1/2-y,x,3/4+z
1/2-x,1/2-y,1/2+z
1/2+y,-x,3/4+z
1/2-x,1/2+y,1/2+z
1/2+x,1/2-y,1/2+z
1/2-y,-x,3/4+z
1/2+y,x,3/4+z
loop_
_atom_site_type_symbol
_atom_site_label
_atom_site_fract_x
_atom_site_fract_y
_atom_site_fract_z
Si Si1 0.642552 0.636654 0.667720
Si Si2 0.316926 0.316747 0.125674
Si Si3 0.000000 0.419292 0.089953
Si Si4 0.080036 0.000000 0.090845
Si Si5 0.333861 0.292746 0.887566
Si Si6 0.140438 0.424988 0.024855
Si Si7 0.076170 0.221884 0.985596
O O1 0.607971 0.566527 0.645603
O O2 0.641502 0.662014 0.790274
O O3 0.720447 0.633323 0.637330
O O4 0.607218 0.691961 0.593461
O O5 0.281450 0.245448 0.123436
O O6 0.379847 0.312656 0.203790
O O7 0.272779 0.373726 0.178785
O O8 0.340467 0.327249 0.003715
O O9 0.065856 0.398484 0.028330
O O10 0.000000 0.500000 0.091032
O O11 0.000000 0.399098 0.214717
O O12 0.000000 0.000000 0.094686
O O13 0.141532 0.500000 0.984408
O O14 0.162830 0.426149 0.148290
O O15 0.000000 0.244511 0.000936
#
# Coordination Sequence:
#
# PCOD9554217 Si02
#       7
#    16  16   8   8  16  16  16
#     4  11  23  42  63  95 125 168 215 260 325 376
#     4  11  21  42  62  89 125 169 208 262 328 372
#     4   9  18  36  61  87 125 163 195 249 325 385
#     4  11  22  42  65  91 133 172 197 253 333 390
#     4  10  24  43  63  86 127 174 215 265 310 388
#     4  10  21  37  59  88 121 161 204 252 315 386
#     4  11  22  36  62  96 124 157 207 267 319 377
#
# _framework density 18.903718000000001
#
# number of rings (size 3 to 8) (size 9 to 14) (size 15 to 20)
#    0.000    1.500    3.333    2.500    3.500    0.000 
#   10.500    0.000    0.000    1.000    0.000    0.000 
#    0.000    0.000    0.000    0.000    0.000    0.000 
#
# Total GULP energy -267884.629030 kJ/mol
# GULP energy per Si atom -5580.929771 kJ/mol
# Density = 1.886069 g / cm^3
# Si number density = 18.903718 Si / 1000 Ang^3
#
#
#
# Elastic Constant Matrix: (Units=GPa)
#
#
# Indices 1 2 3 4 5 6 
#
# 1 81.0891 41.5217 28.7502 0.0000 0.0000 0.0000
# 2 41.5217 81.0891 28.7502 0.0000 0.0000 0.0000
# 3 28.7502 28.7502 113.1578 0.0000 0.0000 0.0000
# 4 0.0000 0.0000 0.0000 16.7499 0.0000 0.0000
# 5 0.0000 0.0000 0.0000 0.0000 16.7499 0.0000
# 6 0.0000 0.0000 0.0000 0.0000 0.0000 30.3770
#
#
#
# Elastic Compliance Matrix: (Units=1/GPa)
#
#
# Indices 1 2 3 4 5 6 
#
# 1 0.017266 -0.008007 -0.002352 0.000000 0.000000 0.000000
# 2 -0.008007 0.017266 -0.002352 0.000000 0.000000 0.000000
# 3 -0.002352 -0.002352 0.010033 0.000000 0.000000 0.000000
# 4 0.000000 0.000000 0.000000 0.059702 0.000000 0.000000
# 5 0.000000 0.000000 0.000000 0.000000 0.059702 0.000000
# 6 0.000000 0.000000 0.000000 0.000000 0.000000 0.032920
#
#
# Mechanical properties :
#
#
# Convention : Reuss Voigt Hill
#
# Bulk Modulus (GPa) = 52.24405 52.59780 52.42093
# Shear Modulus (GPa) = 21.86340 24.52963 23.19652
#
# Velocity S-wave (km/s) = 3.40452 3.60614 3.50678
# Velocity P-wave (km/s) = 6.56896 6.72484 6.64736
#
# Compressibility (1/GPa) = 0.01914094
#
# Stress axis : x y z
#
# Youngs Moduli (GPa) = 57.91647 57.91647 99.67490
#
# Poissons Ratio (x) = 0.46374 0.23448
# Poissons Ratio (y) = 0.46374 0.23448
# Poissons Ratio (z) = 0.13625 0.13625
#
# Static dielectric constant tensor:
#      x y z
#    x 1.683320 0.000000 0.000000 
#    y 0.000000 1.683320 0.000000 
#    z 0.000000 0.000000 1.645170 
# 
# From -- ./inp_files/2076.got.cif
#   From: 2010.05.17/outbox.cif.g08.bks.cpg/sg109_2_cif.got.tgz:2076.got - 2010.05.20 10:51:12.
