data_PCOD9554649
_publ_section_title
;
Structure prediction by ZEFSAII (Michael W. Deem and Ramdas Pophale) SiO2 
 PCOD9554649
Probable space group: P -4 2 M 
;
_chemical_formula_sum "Si O2"
_cell_formula_units_Z 56
_cell_length_a 27.699687
_cell_length_b 27.699687
_cell_length_c 5.090381
_cell_angle_alpha 90.000000
_cell_angle_beta 90.000000
_cell_angle_gamma 90.000000
_cell_volume 3905.710170
_symmetry_space_group_name_H-M "P -4 2 M "
_symmetry_group_IT_number 111
_symmetry_cell_setting 'tetragonal'
loop_
_space_group_symop_operation_xyz
x,y,z
y,-x,-z
-x,-y,z
-y,x,-z
x,-y,-z
-x,y,-z
-y,-x,z
y,x,z
loop_
_atom_site_type_symbol
_atom_site_label
_atom_site_fract_x
_atom_site_fract_y
_atom_site_fract_z
Si Si1 0.698214 0.779744 0.123644
Si Si2 0.552982 0.367538 0.046518
Si Si3 0.968494 0.111574 0.259797
Si Si4 0.814507 0.102787 0.494977
Si Si5 0.696889 0.553497 0.454552
Si Si6 0.345375 0.263366 0.631135
Si Si7 0.143335 0.773437 0.992515
O O1 0.741096 0.741096 0.080004
O O2 0.679966 0.770855 0.416559
O O3 0.723038 0.831150 0.075027
O O4 0.658819 0.762733 0.911461
O O5 0.595189 0.404812 0.995777
O O6 0.557489 0.323095 0.841449
O O7 0.500000 0.389093 0.000000
O O8 0.554817 0.348079 0.342678
O O9 0.925631 0.074370 0.190300
O O10 0.944483 0.159710 0.382122
O O11 0.000000 0.090717 0.500000
O O12 0.000000 0.120063 0.000000
O O13 0.857797 0.142204 0.506967
O O14 0.790223 0.103766 0.779633
O O15 0.776476 0.122146 0.282696
O O16 0.719092 0.500000 0.500000
O O17 0.726837 0.600423 0.536584
O O18 0.313486 0.313486 0.636893
O O19 0.185432 0.814569 0.980433
#
# Coordination Sequence:
#
# PCOD9554649 Si02
#       7
#     8   8   8   8   8   8   8
#     4   9  17  25  38  60  79  95 113 141 185 236
#     4  10  19  30  42  54  66  83 111 148 191 235
#     4  11  22  34  46  61  80 105 143 185 226 262
#     4   9  17  28  43  58  75 102 128 158 200 245
#     4  10  20  31  42  54  70  95 124 150 180 224
#     4  10  17  26  39  55  75  95 117 148 189 228
#     4   9  15  26  41  58  79  97 118 146 187 244
#
# _framework density 14.337982999999999
#
# number of rings (size 3 to 8) (size 9 to 14) (size 15 to 20)
#    0.000    2.286    0.000    4.286    0.000    7.857 
#    0.000    0.000    0.000    2.571    0.000    0.000 
#    0.000    0.000    0.000    0.000    0.000    0.000 
#
# Total GULP energy -312052.440304 kJ/mol
# GULP energy per Si atom -5572.365005 kJ/mol
# Density = 1.430535 g / cm^3
# Si number density = 14.337983 Si / 1000 Ang^3
#
#
#
# Elastic Constant Matrix: (Units=GPa)
#
#
# Indices 1 2 3 4 5 6 
#
# 1 18.9950 13.7388 -9.2383 0.0000 0.0000 0.0000
# 2 13.7388 18.9960 -9.2390 0.0000 0.0000 0.0000
# 3 -9.2383 -9.2390 45.7946 0.0000 0.0000 0.0000
# 4 0.0000 0.0000 0.0000 12.3894 0.0000 0.0000
# 5 0.0000 0.0000 0.0000 0.0000 12.3893 0.0000
# 6 0.0000 0.0000 0.0000 0.0000 0.0000 11.5886
#
#
#
# Elastic Compliance Matrix: (Units=1/GPa)
#
#
# Indices 1 2 3 4 5 6 
#
# 1 0.112356 -0.077879 0.006954 0.000000 0.000000 0.000000
# 2 -0.077879 0.112351 0.006956 0.000000 0.000000 0.000000
# 3 0.006954 0.006956 0.024643 0.000000 0.000000 0.000000
# 4 0.000000 0.000000 0.000000 0.080714 0.000000 0.000000
# 5 0.000000 0.000000 0.000000 0.000000 0.080715 0.000000
# 6 0.000000 0.000000 0.000000 0.000000 0.000000 0.086292
#
#
# Mechanical properties :
#
#
# Convention : Reuss Voigt Hill
#
# Bulk Modulus (GPa) = 8.23638 8.25650 8.24644
# Shear Modulus (GPa) = 7.51338 13.17506 10.34422
#
# Velocity S-wave (km/s) = 2.29163 3.03461 2.68891
# Velocity P-wave (km/s) = 3.57198 4.24847 3.92482
#
# Compressibility (1/GPa) = 0.12141260
#
# Stress axis : x y z
#
# Youngs Moduli (GPa) = 8.90031 8.90064 40.57971
#
# Poissons Ratio (x) = 0.69317 -0.28219
# Poissons Ratio (y) = 0.69314 -0.28228
# Poissons Ratio (z) = -0.06189 -0.06191
#
# Static dielectric constant tensor:
#      x y z
#    x 1.476450 0.000000 0.000000 
#    y 0.000000 1.476450 0.000000 
#    z 0.000000 0.000000 1.497520 
# 
# From -- ./inp_files/768.got.cif
#   From: 2010.05.17/outbox.cif.g08.bks.cpg/sg111_1_cif.got.tgz:768.got - 2010.05.20 10:56:05.
