data_PCOD9554902
_publ_section_title
;
Structure prediction by ZEFSAII (Michael W. Deem and Ramdas Pophale) SiO2 
 PCOD9554902
Probable space group: P -4 2 M 
;
_chemical_formula_sum "Si O2"
_cell_formula_units_Z 24
_cell_length_a 13.606254
_cell_length_b 13.606254
_cell_length_c 6.065599
_cell_angle_alpha 90.000000
_cell_angle_beta 90.000000
_cell_angle_gamma 90.000000
_cell_volume 1122.925240
_symmetry_space_group_name_H-M "P -4 2 M "
_symmetry_group_IT_number 111
_symmetry_cell_setting 'tetragonal'
loop_
_space_group_symop_operation_xyz
x,y,z
y,-x,-z
-x,-y,z
-y,x,-z
x,-y,-z
-x,y,-z
-y,-x,z
y,x,z
loop_
_atom_site_type_symbol
_atom_site_label
_atom_site_fract_x
_atom_site_fract_y
_atom_site_fract_z
Si Si1 0.364211 0.635790 0.686295
Si Si2 0.273904 0.273904 0.704799
Si Si3 0.500000 0.500000 0.000000
Si Si4 0.352597 0.844086 0.894523
Si Si5 0.000000 0.500000 0.000000
Si Si6 0.000000 0.000000 0.500000
Si Si7 0.844809 0.155192 0.668728
O O1 0.348561 0.651440 0.422994
O O2 0.434340 0.565661 0.829063
O O3 0.384630 0.747513 0.761634
O O4 0.206650 0.206650 0.544335
O O5 0.199575 0.334725 0.861091
O O6 0.248215 0.882721 0.807571
O O7 0.430492 0.928313 0.866309
O O8 0.073732 0.926269 0.627272
#
# Coordination Sequence:
#
# PCOD9554902 Si02
#       7
#     4   4   1   8   2   1   4
#     4   9  20  42  63  91 131 168 203 278 323 392
#     4   8  18  44  66  78 136 168 205 273 331 376
#     4  12  20  36  74 100 128 158 232 264 334 412
#     4   9  21  42  61  90 128 170 214 274 327 386
#     4  12  22  36  70  92 120 170 226 264 338 400
#     4  12  24  36  74 100 128 182 224 264 354 424
#     4   9  22  42  61  93 135 162 217 277 327 405
#
# _framework density 21.37275
#
# number of rings (size 3 to 8) (size 9 to 14) (size 15 to 20)
#    0.000    3.333    0.000    1.000    4.667    0.000 
#    0.000   40.000    0.000    0.000    0.000    0.000 
#    0.000    0.000    0.000    0.000    0.000    0.000 
#
# Total GULP energy -133744.448963 kJ/mol
# GULP energy per Si atom -5572.685373 kJ/mol
# Density = 2.132410 g / cm^3
# Si number density = 21.372750 Si / 1000 Ang^3
#
#
#
# Elastic Constant Matrix: (Units=GPa)
#
#
# Indices 1 2 3 4 5 6 
#
# 1 128.4260 108.6589 32.2509 0.0000 0.0000 0.0000
# 2 108.6589 128.4277 32.2511 0.0000 0.0000 0.0000
# 3 32.2509 32.2511 98.0103 0.0000 0.0000 0.0000
# 4 0.0000 0.0000 0.0000 11.2311 0.0000 0.0000
# 5 0.0000 0.0000 0.0000 0.0000 11.2316 0.0000
# 6 0.0000 0.0000 0.0000 0.0000 0.0000 63.9768
#
#
#
# Elastic Compliance Matrix: (Units=1/GPa)
#
#
# Indices 1 2 3 4 5 6 
#
# 1 0.027610 -0.022977 -0.001524 0.000000 0.000000 0.000000
# 2 -0.022977 0.027610 -0.001524 0.000000 0.000000 0.000000
# 3 -0.001524 -0.001524 0.011206 0.000000 0.000000 0.000000
# 4 0.000000 0.000000 0.000000 0.089038 0.000000 0.000000
# 5 0.000000 0.000000 0.000000 0.000000 0.089035 0.000000
# 6 0.000000 0.000000 0.000000 0.000000 0.000000 0.015631
#
#
# Mechanical properties :
#
#
# Convention : Reuss Voigt Hill
#
# Bulk Modulus (GPa) = 69.57064 77.90954 73.74009
# Shear Modulus (GPa) = 15.77422 29.40143 22.58783
#
# Velocity S-wave (km/s) = 2.71966 3.71300 3.25445
# Velocity P-wave (km/s) = 6.51796 7.41038 6.97845
#
# Compressibility (1/GPa) = 0.01437388
#
# Stress axis : x y z
#
# Youngs Moduli (GPa) = 36.21879 36.21927 89.23603
#
# Poissons Ratio (x) = 0.83222 0.13603
# Poissons Ratio (y) = 0.83221 0.13603
# Poissons Ratio (z) = 0.05521 0.05521
#
# Static dielectric constant tensor:
#      x y z
#    x 1.783560 0.000000 0.000000 
#    y 0.000000 1.783550 0.000000 
#    z 0.000000 0.000000 1.850640 
# 
# From -- ./inp_files/294.got.cif
#   From: 2010.05.17/outbox.cif.g08.bks.cpg/sg111_1_cif.got.tgz:294.got - 2010.05.20 10:56:05.
