data_PCOD9554956
_publ_section_title
;
Structure prediction by ZEFSAII (Michael W. Deem and Ramdas Pophale) SiO2 
 PCOD9554956
Probable space group: P -4 2 C
;
_chemical_formula_sum "Si O2"
_cell_formula_units_Z 58
_cell_length_a 17.581343
_cell_length_b 17.581343
_cell_length_c 9.880313
_cell_angle_alpha 90.000000
_cell_angle_beta 90.000000
_cell_angle_gamma 90.000000
_cell_volume 3054.040532
_symmetry_space_group_name_H-M "P -4 2 C"
_symmetry_group_IT_number 112
_symmetry_cell_setting 'tetragonal'
loop_
_space_group_symop_operation_xyz
x,y,z
y,-x,-z
-x,-y,z
-y,x,-z
x,-y,1/2-z
-x,y,1/2-z
-y,-x,1/2+z
y,x,1/2+z
loop_
_atom_site_type_symbol
_atom_site_label
_atom_site_fract_x
_atom_site_fract_y
_atom_site_fract_z
Si Si1 0.816340 0.579187 0.047585
Si Si2 0.829641 0.995805 0.907109
Si Si3 0.855111 0.743186 0.076228
Si Si4 0.419588 0.309854 0.779300
Si Si5 0.413200 0.273535 0.270149
Si Si6 0.841767 0.750370 0.398866
Si Si7 0.000000 0.000000 0.000000
Si Si8 0.809309 0.588074 0.500370
O O1 0.869010 0.653045 0.060450
O O2 0.762430 0.580375 0.178860
O O3 0.848141 0.493638 0.028564
O O4 0.763123 0.592278 0.917516
O O5 0.790659 0.070536 0.968229
O O6 0.808995 0.000000 0.750000
O O7 0.794843 0.916000 0.953791
O O8 0.920384 0.997785 0.920800
O O9 0.836039 0.758916 0.235432
O O10 0.786572 0.770904 0.979741
O O11 0.500000 0.350435 0.750000
O O12 0.344748 0.358089 0.755149
O O13 0.418535 0.273656 0.928536
O O14 0.500000 0.299367 0.250000
O O15 0.399313 0.208598 0.157685
O O16 0.847891 0.661598 0.435528
#
# Coordination Sequence:
#
# PCOD9554956 Si02
#       8
#     8   8   8   8   8   8   2   8
#     4  10  21  35  54  79 113 152 193 246 296 343
#     4  10  23  39  62  92 123 161 189 233 295 357
#     4  11  22  38  61  89 119 153 202 244 286 352
#     4  10  18  31  50  75 105 145 191 239 303 353
#     4  10  20  33  50  75 107 149 195 241 301 355
#     4  11  22  38  61  89 119 153 202 244 286 352
#     4  12  18  44  60  86 140 152 182 236 298 352
#     4  10  21  35  54  79 113 152 193 246 296 343
#
# _framework density 18.991235
#
# number of rings (size 3 to 8) (size 9 to 14) (size 15 to 20)
#    0.000    1.655    2.759    2.690    1.931    0.276 
#    0.000    1.379    0.000    7.448    0.000    2.897 
#    0.000    0.000    0.000    0.000    0.000    0.000 
#
# Total GULP energy -323446.337607 kJ/mol
# GULP energy per Si atom -5576.660993 kJ/mol
# Density = 1.894801 g / cm^3
# Si number density = 18.991235 Si / 1000 Ang^3
#
#
#
# Elastic Constant Matrix: (Units=GPa)
#
#
# Indices 1 2 3 4 5 6 
#
# 1 81.1980 38.3659 4.7610 0.0000 0.0000 0.0000
# 2 38.3659 81.1980 4.7610 0.0000 0.0000 0.0000
# 3 4.7610 4.7610 59.3346 0.0000 0.0000 0.0000
# 4 0.0000 0.0000 0.0000 19.3782 0.0000 0.0000
# 5 0.0000 0.0000 0.0000 0.0000 19.3782 0.0000
# 6 0.0000 0.0000 0.0000 0.0000 0.0000 29.5559
#
#
#
# Elastic Compliance Matrix: (Units=1/GPa)
#
#
# Indices 1 2 3 4 5 6 
#
# 1 0.015882 -0.007465 -0.000675 0.000000 0.000000 0.000000
# 2 -0.007465 0.015882 -0.000675 0.000000 0.000000 0.000000
# 3 -0.000675 -0.000675 0.016962 0.000000 0.000000 0.000000
# 4 0.000000 0.000000 0.000000 0.051604 0.000000 0.000000
# 5 0.000000 0.000000 0.000000 0.000000 0.051604 0.000000
# 6 0.000000 0.000000 0.000000 0.000000 0.000000 0.033834
#
#
# Mechanical properties :
#
#
# Convention : Reuss Voigt Hill
#
# Bulk Modulus (GPa) = 32.15916 35.27847 33.71882
# Shear Modulus (GPa) = 23.39009 25.25197 24.32103
#
# Velocity S-wave (km/s) = 3.51326 3.65041 3.58249
# Velocity P-wave (km/s) = 5.78168 6.03190 5.90811
#
# Compressibility (1/GPa) = 0.03109534
#
# Stress axis : x y z
#
# Youngs Moduli (GPa) = 62.96345 62.96345 58.95543
#
# Poissons Ratio (x) = 0.47000 0.03982
# Poissons Ratio (y) = 0.47000 0.03982
# Poissons Ratio (z) = 0.04253 0.04253
#
# Static dielectric constant tensor:
#      x y z
#    x 1.685980 0.000000 0.000000 
#    y 0.000000 1.685980 0.000000 
#    z 0.000000 0.000000 1.653430 
# 
# From -- ./inp_files/1522.got.cif
#   From: 2010.05.17/outbox.cif.g08.bks.cpg/sg112_1_cif.got.tgz:1522.got - 2010.05.20 10:59:04.
