data_PCOD9554272
_publ_section_title
;
Structure prediction by ZEFSAII (Michael W. Deem and Ramdas Pophale) SiO2 
 PCOD9554272
Probable space group: I 41 M D
;
_chemical_formula_sum "Si O2"
_cell_formula_units_Z 120
_cell_length_a 26.422210
_cell_length_b 26.422210
_cell_length_c 9.045323
_cell_angle_alpha 90.000000
_cell_angle_beta 90.000000
_cell_angle_gamma 90.000000
_cell_volume 6314.840122
_symmetry_space_group_name_H-M "I 41 M D"
_symmetry_group_IT_number 109
_symmetry_cell_setting 'tetragonal'
loop_
_space_group_symop_operation_xyz
x,y,z
-y,1/2+x,1/4+z
-x,-y,z
y,1/2-x,1/4+z
-x,y,z
x,-y,z
-y,1/2-x,1/4+z
y,1/2+x,1/4+z
1/2+x,1/2+y,1/2+z
1/2-y,x,3/4+z
1/2-x,1/2-y,1/2+z
1/2+y,-x,3/4+z
1/2-x,1/2+y,1/2+z
1/2+x,1/2-y,1/2+z
1/2-y,-x,3/4+z
1/2+y,x,3/4+z
loop_
_atom_site_type_symbol
_atom_site_label
_atom_site_fract_x
_atom_site_fract_y
_atom_site_fract_z
Si Si1 0.200777 0.727881 0.099540
Si Si2 0.403096 0.177499 0.258554
Si Si3 0.858235 0.000000 0.312662
Si Si4 0.418725 0.847661 0.822014
Si Si5 0.940446 0.779894 0.905862
Si Si6 0.845112 0.176893 0.272818
Si Si7 0.630179 0.631726 0.298034
Si Si8 0.230271 0.557524 0.511333
O O1 0.250336 0.709743 0.186623
O O2 0.180771 0.773493 0.204197
O O3 0.161433 0.682344 0.086925
O O4 0.454147 0.160606 0.174746
O O5 0.414640 0.230435 0.337560
O O6 0.355965 0.183348 0.145826
O O7 0.386953 0.136511 0.381488
O O8 0.872090 0.043619 0.187669
O O9 0.415562 0.871238 0.659900
O O10 0.434389 0.788623 0.806889
O O11 0.362762 0.851906 0.890090
O O12 0.914066 0.829189 0.837083
O O13 0.000000 0.779612 0.872938
O O14 0.935317 0.776183 0.084260
O O15 0.899206 0.195926 0.332794
O O16 0.216213 0.500000 0.549137
#
# Coordination Sequence:
#
# PCOD9554272 Si02
#       8
#    16  16   8  16  16  16  16  16
#     4  12  24  36  53  83 129 176 222 252 312 400
#     4  11  24  40  63  90 134 164 217 265 328 377
#     4  10  24  40  60  96 117 162 216 275 312 386
#     4  11  20  39  63  83 127 164 216 260 316 374
#     4  11  23  41  62  94 131 168 222 274 314 390
#     4  11  22  38  53  88 126 164 209 267 311 392
#     4  12  23  40  62  89 124 176 210 265 332 396
#     4  11  20  37  64  88 120 167 215 262 314 382
#
# _framework density 19.002856999999999
#
# number of rings (size 3 to 8) (size 9 to 14) (size 15 to 20)
#    0.000    0.800    6.667    0.800    3.733    2.667 
#    0.000    0.000    0.000    0.000    0.000   17.733 
#    0.000    0.000    0.000    0.000    0.000    0.000 
#
# Total GULP energy -334134.918284 kJ/mol
# GULP energy per Si atom -5568.915305 kJ/mol
# Density = 1.895961 g / cm^3
# Si number density = 19.002857 Si / 1000 Ang^3
#
#
#
# Elastic Constant Matrix: (Units=GPa)
#
#
# Indices 1 2 3 4 5 6 
#
# 1 61.3015 21.5529 -7.5087 0.0000 0.0000 0.0000
# 2 21.5529 61.3015 -7.5087 0.0000 0.0000 0.0000
# 3 -7.5087 -7.5087 32.8154 0.0000 0.0000 0.0000
# 4 0.0000 0.0000 0.0000 17.8933 0.0000 0.0000
# 5 0.0000 0.0000 0.0000 0.0000 17.8933 0.0000
# 6 0.0000 0.0000 0.0000 0.0000 0.0000 10.8447
#
#
#
# Elastic Compliance Matrix: (Units=1/GPa)
#
#
# Indices 1 2 3 4 5 6 
#
# 1 0.018875 -0.006283 0.002881 0.000000 0.000000 0.000000
# 2 -0.006283 0.018875 0.002881 0.000000 0.000000 0.000000
# 3 0.002881 0.002881 0.031792 0.000000 0.000000 0.000000
# 4 0.000000 0.000000 0.000000 0.055887 0.000000 0.000000
# 5 0.000000 0.000000 0.000000 0.000000 0.055887 0.000000
# 6 0.000000 0.000000 0.000000 0.000000 0.000000 0.092211
#
#
# Mechanical properties :
#
#
# Convention : Reuss Voigt Hill
#
# Bulk Modulus (GPa) = 14.59857 18.72104 16.65981
# Shear Modulus (GPa) = 16.81229 19.25181 18.03205
#
# Velocity S-wave (km/s) = 2.97766 3.18638 3.08378
# Velocity P-wave (km/s) = 4.41825 4.83843 4.63311
#
# Compressibility (1/GPa) = 0.06849985
#
# Stress axis : x y z
#
# Youngs Moduli (GPa) = 52.98057 52.98057 31.45442
#
# Poissons Ratio (x) = 0.33289 -0.09063
# Poissons Ratio (y) = 0.33289 -0.09063
# Poissons Ratio (z) = -0.15265 -0.15265
#
# Static dielectric constant tensor:
#      x y z
#    x 1.662760 0.000000 0.000000 
#    y 0.000000 1.662760 0.000000 
#    z 0.000000 0.000000 1.714280 
# 
# From -- ./inp_files/1556.got.cif
#   From: 2010.05.17/outbox.cif.g08.bks.cpg/sg109_1_cif.got.tgz:1556.got - 2010.05.20 10:51:12.
