data_PCOD9554141
_publ_section_title
;
Structure prediction by ZEFSAII (Michael W. Deem and Ramdas Pophale) SiO2 
 PCOD9554141
Probable space group: I 41 M D
;
_chemical_formula_sum "Si O2"
_cell_formula_units_Z 112
_cell_length_a 15.163690
_cell_length_b 15.163690
_cell_length_c 26.184306
_cell_angle_alpha 90.000000
_cell_angle_beta 90.000000
_cell_angle_gamma 90.000000
_cell_volume 6020.753715
_symmetry_space_group_name_H-M "I 41 M D"
_symmetry_group_IT_number 109
_symmetry_cell_setting 'tetragonal'
loop_
_space_group_symop_operation_xyz
x,y,z
-y,1/2+x,1/4+z
-x,-y,z
y,1/2-x,1/4+z
-x,y,z
x,-y,z
-y,1/2-x,1/4+z
y,1/2+x,1/4+z
1/2+x,1/2+y,1/2+z
1/2-y,x,3/4+z
1/2-x,1/2-y,1/2+z
1/2+y,-x,3/4+z
1/2-x,1/2+y,1/2+z
1/2+x,1/2-y,1/2+z
1/2-y,-x,3/4+z
1/2+y,x,3/4+z
loop_
_atom_site_type_symbol
_atom_site_label
_atom_site_fract_x
_atom_site_fract_y
_atom_site_fract_z
Si Si1 0.395993 0.762640 0.446580
Si Si2 0.401206 0.680915 0.816248
Si Si3 0.599681 0.102700 0.539151
Si Si4 0.717965 0.602668 0.084914
Si Si5 0.402245 0.732080 0.025696
Si Si6 0.398454 0.191757 0.912630
Si Si7 0.098152 0.266160 0.203931
O O1 0.500000 0.739305 0.445066
O O2 0.383059 0.830201 0.492922
O O3 0.374887 0.808515 0.392567
O O4 0.336619 0.676050 0.450239
O O5 0.500000 0.643178 0.823146
O O6 0.323015 0.612287 0.806810
O O7 0.383506 0.745703 0.863844
O O8 0.402248 0.734929 0.763100
O O9 0.500000 0.117780 0.558054
O O10 0.676701 0.115114 0.580023
O O11 0.604522 0.000000 0.522163
O O12 0.698802 0.500000 0.075045
O O13 0.670236 0.664327 0.044776
O O14 0.500000 0.697210 0.035304
O O15 0.393712 0.753559 0.965660
O O16 0.500000 0.157160 0.909280
O O17 0.320232 0.121399 0.919820
O O18 0.000000 0.298842 0.191362
#
# Coordination Sequence:
#
# PCOD9554141 Si02
#       7
#    16  16  16  16  16  16  16
#     4  10  21  36  53  74 103 136 168 209 258 303
#     4   9  18  34  54  75 103 136 169 210 256 299
#     4   9  18  34  56  78  98 127 170 214 256 305
#     4  10  21  36  53  74 103 136 168 209 258 303
#     4  10  20  33  52  77 104 137 173 207 247 299
#     4   9  18  34  54  75 103 136 169 210 256 299
#     4  10  20  33  52  77 104 137 173 207 247 299
#
# _framework density 18.602322999999998
#
# number of rings (size 3 to 8) (size 9 to 14) (size 15 to 20)
#    0.000    2.429    0.000    2.571    0.000    2.286 
#    0.000   10.000    0.000    5.143    0.000    0.000 
#    0.000    0.000    0.000    0.000    0.000    0.000 
#
# Total GULP energy -312217.619040 kJ/mol
# GULP energy per Si atom -5575.314626 kJ/mol
# Density = 1.855998 g / cm^3
# Si number density = 18.602323 Si / 1000 Ang^3
#
#
#
# Elastic Constant Matrix: (Units=GPa)
#
#
# Indices 1 2 3 4 5 6 
#
# 1 44.0640 21.0632 10.8310 0.0000 0.0000 0.0000
# 2 21.0632 44.0640 10.8310 0.0000 0.0000 0.0000
# 3 10.8310 10.8310 55.9620 0.0000 0.0000 0.0000
# 4 0.0000 0.0000 0.0000 14.6423 0.0000 0.0000
# 5 0.0000 0.0000 0.0000 0.0000 14.6423 0.0000
# 6 0.0000 0.0000 0.0000 0.0000 0.0000 10.2159
#
#
#
# Elastic Compliance Matrix: (Units=1/GPa)
#
#
# Indices 1 2 3 4 5 6 
#
# 1 0.029944 -0.013533 -0.003176 0.000000 0.000000 0.000000
# 2 -0.013533 0.029944 -0.003176 0.000000 0.000000 0.000000
# 3 -0.003176 -0.003176 0.019099 0.000000 0.000000 0.000000
# 4 0.000000 0.000000 0.000000 0.068295 0.000000 0.000000
# 5 0.000000 0.000000 0.000000 0.000000 0.068295 0.000000
# 6 0.000000 0.000000 0.000000 0.000000 0.000000 0.097887
#
#
# Mechanical properties :
#
#
# Convention : Reuss Voigt Hill
#
# Bulk Modulus (GPa) = 25.49990 25.50452 25.50221
# Shear Modulus (GPa) = 13.64976 14.65773 14.15375
#
# Velocity S-wave (km/s) = 2.71175 2.81009 2.76136
# Velocity P-wave (km/s) = 4.85206 4.92636 4.88935
#
# Compressibility (1/GPa) = 0.03921583
#
# Stress axis : x y z
#
# Youngs Moduli (GPa) = 33.39578 33.39578 52.35949
#
# Poissons Ratio (x) = 0.45194 0.16631
# Poissons Ratio (y) = 0.45194 0.16631
# Poissons Ratio (z) = 0.10607 0.10607
#
# Static dielectric constant tensor:
#      x y z
#    x 1.644760 0.000000 0.000000 
#    y 0.000000 1.644760 0.000000 
#    z 0.000000 0.000000 1.628470 
# 
# From -- ./inp_files/4456.got.cif
#   From: 2010.05.17/outbox.cif.g08.bks.cpg/sg109_3_cif.got.tgz:4456.got - 2010.05.20 10:51:12.
