data_PCOD9554288
_publ_section_title
;
Structure prediction by ZEFSAII (Michael W. Deem and Ramdas Pophale) SiO2 
 PCOD9554288
Probable space group: I 41 M D
;
_chemical_formula_sum "Si O2"
_cell_formula_units_Z 128
_cell_length_a 27.113872
_cell_length_b 27.113872
_cell_length_c 10.409643
_cell_angle_alpha 90.000000
_cell_angle_beta 90.000000
_cell_angle_gamma 90.000000
_cell_volume 7652.774538
_symmetry_space_group_name_H-M "I 41 M D"
_symmetry_group_IT_number 109
_symmetry_cell_setting 'tetragonal'
loop_
_space_group_symop_operation_xyz
x,y,z
-y,1/2+x,1/4+z
-x,-y,z
y,1/2-x,1/4+z
-x,y,z
x,-y,z
-y,1/2-x,1/4+z
y,1/2+x,1/4+z
1/2+x,1/2+y,1/2+z
1/2-y,x,3/4+z
1/2-x,1/2-y,1/2+z
1/2+y,-x,3/4+z
1/2-x,1/2+y,1/2+z
1/2+x,1/2-y,1/2+z
1/2-y,-x,3/4+z
1/2+y,x,3/4+z
loop_
_atom_site_type_symbol
_atom_site_label
_atom_site_fract_x
_atom_site_fract_y
_atom_site_fract_z
Si Si1 0.057061 0.364694 0.519460
Si Si2 0.057438 0.859590 0.266247
Si Si3 0.862152 0.784765 0.361356
Si Si4 0.371573 0.782632 0.112586
Si Si5 0.359590 0.557438 0.461550
Si Si6 0.717368 0.871573 0.615211
Si Si7 0.637848 0.784765 0.616441
Si Si8 0.135306 0.442939 0.208336
O O1 0.089693 0.413416 0.544488
O O2 0.082551 0.319423 0.591979
O O3 0.060646 0.353448 0.366399
O O4 0.000000 0.371348 0.551851
O O5 0.088255 0.816093 0.332938
O O6 0.060646 0.853448 0.111397
O O7 0.000000 0.860625 0.301862
O O8 0.817710 0.823692 0.372157
O O9 0.866707 0.752098 0.488285
O O10 0.853351 0.750000 0.238898
O O11 0.376507 0.750000 0.238898
O O12 0.360625 0.500000 0.425934
O O13 0.316093 0.588255 0.394858
O O14 0.410307 0.586584 0.433308
O O15 0.682290 0.823692 0.605639
O O16 0.752098 0.866707 0.739512
O O17 0.680577 0.917449 0.635817
O O18 0.128652 0.500000 0.175945
#
# Coordination Sequence:
#
# PCOD9554288 Si02
#       8
#    16  16  16  16  16  16  16  16
#     4   9  18  34  54  78 109 138 170 217 266 314
#     4   9  18  33  55  81 105 135 176 218 262 314
#     4  11  21  36  55  77 106 140 179 221 261 307
#     4  11  23  36  52  78 108 141 179 217 261 312
#     4   9  18  33  55  81 105 135 176 218 262 314
#     4  11  23  36  52  78 108 141 179 217 261 312
#     4  11  21  36  55  77 106 140 179 221 261 307
#     4   9  18  34  54  78 109 138 170 217 266 314
#
# _framework density 16.725960000000001
#
# number of rings (size 3 to 8) (size 9 to 14) (size 15 to 20)
#    0.000    2.000    2.500    1.500    0.000    5.500 
#    0.000    2.500    0.000    0.000    0.000    0.000 
#    0.000    8.000    0.000    0.000    0.000    0.000 
#
# Total GULP energy -357207.274936 kJ/mol
# GULP energy per Si atom -5581.363671 kJ/mol
# Density = 1.668789 g / cm^3
# Si number density = 16.725960 Si / 1000 Ang^3
#
#
#
# Elastic Constant Matrix: (Units=GPa)
#
#
# Indices 1 2 3 4 5 6 
#
# 1 132.7171 57.7529 43.8371 0.0000 0.0000 0.0000
# 2 57.7529 132.7171 43.8371 0.0000 0.0000 0.0000
# 3 43.8371 43.8371 83.7387 0.0000 0.0000 0.0000
# 4 0.0000 0.0000 0.0000 9.3049 0.0000 0.0000
# 5 0.0000 0.0000 0.0000 0.0000 9.3049 0.0000
# 6 0.0000 0.0000 0.0000 0.0000 0.0000 6.9790
#
#
#
# Elastic Compliance Matrix: (Units=1/GPa)
#
#
# Indices 1 2 3 4 5 6 
#
# 1 0.010128 -0.003211 -0.003621 0.000000 0.000000 0.000000
# 2 -0.003211 0.010128 -0.003621 0.000000 0.000000 0.000000
# 3 -0.003621 -0.003621 0.015733 0.000000 0.000000 0.000000
# 4 0.000000 0.000000 0.000000 0.107470 0.000000 0.000000
# 5 0.000000 0.000000 0.000000 0.000000 0.107470 0.000000
# 6 0.000000 0.000000 0.000000 0.000000 0.000000 0.143286
#
#
# Mechanical properties :
#
#
# Convention : Reuss Voigt Hill
#
# Bulk Modulus (GPa) = 66.30006 71.11411 68.70709
# Shear Modulus (GPa) = 11.90049 18.70082 15.30066
#
# Velocity S-wave (km/s) = 2.67029 3.34739 3.02782
# Velocity P-wave (km/s) = 7.01657 7.58614 7.30691
#
# Compressibility (1/GPa) = 0.01508294
#
# Stress axis : x y z
#
# Youngs Moduli (GPa) = 98.73299 98.73299 63.56028
#
# Poissons Ratio (x) = 0.31707 0.23015
# Poissons Ratio (y) = 0.31707 0.23015
# Poissons Ratio (z) = 0.35751 0.35751
#
# Static dielectric constant tensor:
#      x y z
#    x 1.551420 0.000000 0.000000 
#    y 0.000000 1.551420 0.000000 
#    z 0.000000 0.000000 1.534140 
# 
# From -- ./inp_files/2174.got.cif
#   From: 2010.05.17/outbox.cif.g08.bks.cpg/sg109_2_cif.got.tgz:2174.got - 2010.05.20 10:51:12.
