data_PCOD9554938
_publ_section_title
;
Structure prediction by ZEFSAII (Michael W. Deem and Ramdas Pophale) SiO2 
 PCOD9554938
Probable space group: P -4 2 C
;
_chemical_formula_sum "Si O2"
_cell_formula_units_Z 40
_cell_length_a 14.417291
_cell_length_b 14.417291
_cell_length_c 8.712706
_cell_angle_alpha 90.000000
_cell_angle_beta 90.000000
_cell_angle_gamma 90.000000
_cell_volume 1811.008081
_symmetry_space_group_name_H-M "P -4 2 C"
_symmetry_group_IT_number 112
_symmetry_cell_setting 'tetragonal'
loop_
_space_group_symop_operation_xyz
x,y,z
y,-x,-z
-x,-y,z
-y,x,-z
x,-y,1/2-z
-x,y,1/2-z
-y,-x,1/2+z
y,x,1/2+z
loop_
_atom_site_type_symbol
_atom_site_label
_atom_site_fract_x
_atom_site_fract_y
_atom_site_fract_z
Si Si1 0.177155 0.267111 0.940121
Si Si2 0.500000 0.694584 0.750000
Si Si3 0.164276 0.330384 0.276508
Si Si4 0.000000 0.719713 0.750000
Si Si5 0.725145 0.469100 0.585143
Si Si6 0.427341 0.919096 0.477621
O O1 0.255479 0.192665 0.903359
O O2 0.084817 0.238352 0.847259
O O3 0.230842 0.365066 0.900664
O O4 0.149165 0.280852 0.116124
O O5 0.405067 0.753695 0.745335
O O6 0.510885 0.662750 0.568573
O O7 0.083988 0.390949 0.349728
O O8 0.943704 0.655178 0.633890
O O9 0.682944 0.500000 0.750000
O O10 0.818795 0.530040 0.560617
O O11 0.500000 0.000000 0.455409
#
# Coordination Sequence:
#
# PCOD9554938 Si02
#       6
#     8   4   8   4   8   8
#     4  11  22  37  54  85 126 174 215 263 331 390
#     4   8  20  34  51  82 111 160 210 258 324 393
#     4  10  23  39  56  85 132 172 215 271 333 397
#     4  12  21  34  56  90 128 167 220 252 333 394
#     4  10  17  32  53  81 116 161 204 255 322 378
#     4  11  19  35  55  88 126 165 211 266 325 398
#
# _framework density 22.087145
#
# number of rings (size 3 to 8) (size 9 to 14) (size 15 to 20)
#    0.000    1.600    4.000    1.500    2.800    0.800 
#   10.800    0.000    0.000    0.000    0.000    0.700 
#    0.000   38.400    0.000    0.000    0.000    0.100 
#
# Total GULP energy -222909.133888 kJ/mol
# GULP energy per Si atom -5572.728347 kJ/mol
# Density = 2.203687 g / cm^3
# Si number density = 22.087145 Si / 1000 Ang^3
#
#
#
# Elastic Constant Matrix: (Units=GPa)
#
#
# Indices 1 2 3 4 5 6 
#
# 1 28.7623 11.3003 12.1150 0.0000 0.0000 0.0000
# 2 11.3003 28.7623 12.1150 0.0000 0.0000 0.0000
# 3 12.1150 12.1150 157.3171 0.0000 0.0000 0.0000
# 4 0.0000 0.0000 0.0000 17.1467 0.0000 0.0000
# 5 0.0000 0.0000 0.0000 0.0000 17.1467 0.0000
# 6 0.0000 0.0000 0.0000 0.0000 0.0000 7.6828
#
#
#
# Elastic Compliance Matrix: (Units=1/GPa)
#
#
# Indices 1 2 3 4 5 6 
#
# 1 0.041724 -0.015543 -0.002016 0.000000 0.000000 0.000000
# 2 -0.015543 0.041724 -0.002016 0.000000 0.000000 0.000000
# 3 -0.002016 -0.002016 0.006667 0.000000 0.000000 0.000000
# 4 0.000000 0.000000 0.000000 0.058320 0.000000 0.000000
# 5 0.000000 0.000000 0.000000 0.000000 0.058320 0.000000
# 6 0.000000 0.000000 0.000000 0.000000 0.000000 0.130161
#
#
# Mechanical properties :
#
#
# Convention : Reuss Voigt Hill
#
# Bulk Modulus (GPa) = 19.62205 31.76693 25.69449
# Shear Modulus (GPa) = 12.72084 20.34932 16.53508
#
# Velocity S-wave (km/s) = 2.40248 3.03862 2.73908
# Velocity P-wave (km/s) = 4.07419 5.16959 4.65423
#
# Compressibility (1/GPa) = 0.05096306
#
# Stress axis : x y z
#
# Youngs Moduli (GPa) = 23.96716 23.96716 149.98991
#
# Poissons Ratio (x) = 0.37253 0.30240
# Poissons Ratio (y) = 0.37253 0.30240
# Poissons Ratio (z) = 0.04832 0.04832
#
# Static dielectric constant tensor:
#      x y z
#    x 1.817190 0.000000 0.000000 
#    y 0.000000 1.817190 0.000000 
#    z 0.000000 0.000000 1.910960 
# 
# From -- ./inp_files/1277.got.cif
#   From: 2010.05.17/outbox.cif.g08.bks.cpg/sg112_1_cif.got.tgz:1277.got - 2010.05.20 10:59:04.
