data_PCOD9554936
_publ_section_title
;
Structure prediction by ZEFSAII (Michael W. Deem and Ramdas Pophale) SiO2 
 PCOD9554936
Probable space group: P -4 2 C
;
_chemical_formula_sum "Si O2"
_cell_formula_units_Z 48
_cell_length_a 11.411419
_cell_length_b 11.411419
_cell_length_c 18.132525
_cell_angle_alpha 90.000000
_cell_angle_beta 90.000000
_cell_angle_gamma 90.000000
_cell_volume 2361.226174
_symmetry_space_group_name_H-M "P -4 2 C"
_symmetry_group_IT_number 112
_symmetry_cell_setting 'tetragonal'
loop_
_space_group_symop_operation_xyz
x,y,z
y,-x,-z
-x,-y,z
-y,x,-z
x,-y,1/2-z
-x,y,1/2-z
-y,-x,1/2+z
y,x,1/2+z
loop_
_atom_site_type_symbol
_atom_site_label
_atom_site_fract_x
_atom_site_fract_y
_atom_site_fract_z
Si Si1 0.500000 0.000000 0.250000
Si Si2 0.664907 0.081463 0.015062
Si Si3 0.183233 0.281749 0.518446
Si Si4 0.763746 0.594822 0.363205
Si Si5 0.207891 0.588501 0.658975
Si Si6 0.360205 0.382842 0.623490
Si Si7 0.500000 0.500000 0.500000
Si Si8 0.000000 0.500000 0.115791
O O1 0.580161 0.911582 0.296269
O O2 0.593845 0.159638 0.074223
O O3 0.688734 0.948842 0.039259
O O4 0.787153 0.150303 0.006966
O O5 0.591687 0.064918 0.939513
O O6 0.220788 0.365876 0.449557
O O7 0.267087 0.296266 0.588289
O O8 0.698444 0.706116 0.327824
O O9 0.682257 0.479370 0.352727
O O10 0.895928 0.563389 0.340131
O O11 0.287168 0.473088 0.672256
O O12 0.398764 0.463587 0.554660
#
# Coordination Sequence:
#
# PCOD9554936 Si02
#       8
#     2   8   8   8   8   8   2   4
#     4  12  26  44  54  76 106 148 202 250 280 336
#     4  10  19  32  49  80 115 156 184 212 263 339
#     4  10  19  28  47  75 121 155 181 211 262 336
#     4  10  19  30  51  82 115 148 179 223 283 346
#     4  11  22  36  55  76 109 151 194 234 284 329
#     4  12  17  29  49  84 113 147 175 221 283 353
#     4  12  16  24  48  82 120 140 168 200 268 374
#     4  10  17  30  50  83 125 142 173 216 276 354
#
# _framework density 20.328420999999999
#
# number of rings (size 3 to 8) (size 9 to 14) (size 15 to 20)
#    0.000    1.333    5.000    4.500    0.000    0.333 
#    0.000    1.667    0.000    0.000    0.000    3.500 
#    0.000    0.000    0.000    0.000    0.000    0.000 
#
# Total GULP energy -267693.174909 kJ/mol
# GULP energy per Si atom -5576.941144 kJ/mol
# Density = 2.028215 g / cm^3
# Si number density = 20.328421 Si / 1000 Ang^3
#
#
#
# Elastic Constant Matrix: (Units=GPa)
#
#
# Indices 1 2 3 4 5 6 
#
# 1 144.7226 61.6137 21.7100 0.0000 0.0000 0.0000
# 2 61.6137 144.7226 21.7100 0.0000 0.0000 0.0000
# 3 21.7100 21.7100 25.2851 0.0000 0.0000 0.0000
# 4 0.0000 0.0000 0.0000 2.1110 0.0000 0.0000
# 5 0.0000 0.0000 0.0000 0.0000 2.1110 0.0000
# 6 0.0000 0.0000 0.0000 0.0000 0.0000 27.6434
#
#
#
# Elastic Compliance Matrix: (Units=1/GPa)
#
#
# Indices 1 2 3 4 5 6 
#
# 1 0.008974 -0.003059 -0.005079 0.000000 0.000000 0.000000
# 2 -0.003059 0.008974 -0.005079 0.000000 0.000000 0.000000
# 3 -0.005079 -0.005079 0.048270 0.000000 0.000000 0.000000
# 4 0.000000 0.000000 0.000000 0.473713 0.000000 0.000000
# 5 0.000000 0.000000 0.000000 0.000000 0.473713 0.000000
# 6 0.000000 0.000000 0.000000 0.000000 0.000000 0.036175
#
#
# Mechanical properties :
#
#
# Convention : Reuss Voigt Hill
#
# Bulk Modulus (GPa) = 25.13483 58.31087 41.72285
# Shear Modulus (GPa) = 4.58920 20.35283 12.47102
#
# Velocity S-wave (km/s) = 1.50414 3.16761 2.47953
# Velocity P-wave (km/s) = 3.92528 6.49038 5.36343
#
# Compressibility (1/GPa) = 0.03978542
#
# Stress axis : x y z
#
# Youngs Moduli (GPa) = 111.43535 111.43535 20.71662
#
# Poissons Ratio (x) = 0.34084 0.10522
# Poissons Ratio (y) = 0.34084 0.10522
# Poissons Ratio (z) = 0.56596 0.56596
#
# Static dielectric constant tensor:
#      x y z
#    x 1.742540 0.000000 0.000000 
#    y 0.000000 1.742540 0.000000 
#    z 0.000000 0.000000 1.788930 
# 
# From -- ./inp_files/4903.got.cif
#   From: 2010.05.17/outbox.cif.g08.bks.cpg/sg112_3_cif.got.tgz:4903.got - 2010.05.20 10:59:04.
