data_PCOD9554786
_publ_section_title
;
Structure prediction by ZEFSAII (Michael W. Deem and Ramdas Pophale) SiO2 
 PCOD9554786
Probable space group: P -4 2 M 
;
_chemical_formula_sum "Si O2"
_cell_formula_units_Z 40
_cell_length_a 14.841724
_cell_length_b 14.841724
_cell_length_c 7.230923
_cell_angle_alpha 90.000000
_cell_angle_beta 90.000000
_cell_angle_gamma 90.000000
_cell_volume 1592.804372
_symmetry_space_group_name_H-M "P -4 2 M "
_symmetry_group_IT_number 111
_symmetry_cell_setting 'tetragonal'
loop_
_space_group_symop_operation_xyz
x,y,z
y,-x,-z
-x,-y,z
-y,x,-z
x,-y,-z
-x,y,-z
-y,-x,z
y,x,z
loop_
_atom_site_type_symbol
_atom_site_label
_atom_site_fract_x
_atom_site_fract_y
_atom_site_fract_z
Si Si1 0.346043 0.013532 0.209300
Si Si2 0.997020 0.857453 0.723508
Si Si3 0.336833 0.475567 0.704887
Si Si4 0.813420 0.326699 0.258792
Si Si5 0.810508 0.411953 0.880444
O O1 0.238864 0.022943 0.202265
O O2 0.390289 0.109169 0.263045
O O3 0.351167 0.916402 0.310663
O O4 0.380606 0.000000 0.000000
O O5 0.071093 0.928908 0.781856
O O6 0.000000 0.851981 0.500000
O O7 0.901133 0.901133 0.776133
O O8 0.364795 0.500000 0.500000
O O9 0.419472 0.419472 0.795978
O O10 0.255141 0.404410 0.681835
O O11 0.287353 0.559953 0.802174
O O12 0.766899 0.233102 0.321936
O O13 0.809384 0.333274 0.033766
O O14 0.835892 0.500000 0.000000
#
# Coordination Sequence:
#
# PCOD9554786 Si02
#       5
#     8   8   8   8   8
#     4  10  20  33  57  88 116 150 196 245 290 340
#     4   9  19  35  52  76 119 169 206 237 280 336
#     4  10  22  40  60  82 109 143 186 240 299 355
#     4   9  19  36  57  83 117 153 188 233 290 350
#     4   9  20  38  59  84 116 153 191 238 297 358
#
# _framework density 25.112942
#
# number of rings (size 3 to 8) (size 9 to 14) (size 15 to 20)
#    0.000    2.600    0.000    1.200    0.000   15.800 
#    0.000    7.000    0.000    1.200    0.000    0.000 
#    0.000    0.000    0.000    0.000    0.000    0.000 
#
# Total GULP energy -223048.212633 kJ/mol
# GULP energy per Si atom -5576.205316 kJ/mol
# Density = 2.505578 g / cm^3
# Si number density = 25.112942 Si / 1000 Ang^3
#
#
#
# Elastic Constant Matrix: (Units=GPa)
#
#
# Indices 1 2 3 4 5 6 
#
# 1 95.3619 92.4237 12.7549 0.0000 0.0000 0.0000
# 2 92.4237 95.3606 12.7539 0.0000 0.0000 0.0000
# 3 12.7549 12.7539 61.7032 0.0000 0.0000 0.0000
# 4 0.0000 0.0000 0.0000 17.7107 0.0000 0.0000
# 5 0.0000 0.0000 0.0000 0.0000 17.7108 0.0000
# 6 0.0000 0.0000 0.0000 0.0000 0.0000 53.0801
#
#
#
# Elastic Compliance Matrix: (Units=1/GPa)
#
#
# Indices 1 2 3 4 5 6 
#
# 1 0.172949 -0.167471 -0.001135 0.000000 0.000000 0.000000
# 2 -0.167471 0.172951 -0.001130 0.000000 0.000000 0.000000
# 3 -0.001135 -0.001130 0.016675 0.000000 0.000000 0.000000
# 4 0.000000 0.000000 0.000000 0.056463 0.000000 0.000000
# 5 0.000000 0.000000 0.000000 0.000000 0.056463 0.000000
# 6 0.000000 0.000000 0.000000 0.000000 0.000000 0.018839
#
#
# Mechanical properties :
#
#
# Convention : Reuss Voigt Hill
#
# Bulk Modulus (GPa) = 43.28486 54.25453 48.76969
# Shear Modulus (GPa) = 5.94168 26.66653 16.30411
#
# Velocity S-wave (km/s) = 1.53984 3.26216 2.55077
# Velocity P-wave (km/s) = 4.52051 5.98665 5.30448
#
# Compressibility (1/GPa) = 0.02310276
#
# Stress axis : x y z
#
# Youngs Moduli (GPa) = 5.78205 5.78200 59.97063
#
# Poissons Ratio (x) = 0.96831 0.06807
# Poissons Ratio (y) = 0.96832 0.06777
# Poissons Ratio (z) = 0.00656 0.00653
#
# Static dielectric constant tensor:
#      x y z
#    x 2.083010 0.000000 0.000000 
#    y 0.000000 2.082990 0.000000 
#    z 0.000000 0.000000 2.018480 
# 
# From -- ./inp_files/1563.got.cif
#   From: 2010.05.17/outbox.cif.g08.bks.cpg/sg111_1_cif.got.tgz:1563.got - 2010.05.20 10:56:05.
