data_PCOD9554540
_publ_section_title
;
Structure prediction by ZEFSAII (Michael W. Deem and Ramdas Pophale) SiO2 
 PCOD9554540
Probable space group: I 41 C D
;
_chemical_formula_sum "Si O2"
_cell_formula_units_Z 64
_cell_length_a 21.383462
_cell_length_b 21.383462
_cell_length_c 5.358748
_cell_angle_alpha 90.000000
_cell_angle_beta 90.000000
_cell_angle_gamma 90.000000
_cell_volume 2450.300636
_symmetry_space_group_name_H-M "I 41 C D"
_symmetry_group_IT_number 110
_symmetry_cell_setting 'tetragonal'
loop_
_space_group_symop_operation_xyz
x,y,z
-y,1/2+x,1/4+z
-x,-y,z
y,1/2-x,1/4+z
-x,y,1/2+z
x,-y,1/2+z
1/2-y,-x,1/4+z
1/2+y,x,1/4+z
1/2+x,1/2+y,1/2+z
1/2-y,x,3/4+z
1/2-x,1/2-y,1/2+z
1/2+y,-x,3/4+z
1/2-x,1/2+y,z
1/2+x,1/2-y,z
-y,1/2-x,3/4+z
y,1/2+x,3/4+z
loop_
_atom_site_type_symbol
_atom_site_label
_atom_site_fract_x
_atom_site_fract_y
_atom_site_fract_z
Si Si1 0.979788 0.151611 0.691990
Si Si2 0.343960 0.253373 0.075057
Si Si3 0.918667 0.040642 0.195436
Si Si4 0.636483 0.848089 0.710487
O O1 0.008181 0.185605 0.451520
O O2 0.976767 0.089165 0.205289
O O3 0.908360 0.134376 0.643505
O O4 0.300004 0.197976 0.167014
O O5 0.356755 0.296213 0.319864
O O6 0.381328 0.213997 0.864372
O O7 0.859434 0.085492 0.243313
O O8 0.919751 0.004448 0.935759
#
# Coordination Sequence:
#
# PCOD9554540 Si02
#       4
#    16  16  16  16
#     4  10  23  42  71 111 151 203 256 314 391 471
#     4  12  24  50  78 112 150 214 275 337 414 491
#     4  11  25  47  77 115 159 212 262 316 401 491
#     4  11  26  44  82 116 160 209 277 340 404 490
#
# _framework density 26.119243000000001
#
# number of rings (size 3 to 8) (size 9 to 14) (size 15 to 20)
#    0.000    1.000    2.500    3.000   10.500   12.000 
#    0.000    5.000    0.000    0.000    0.000    0.000 
#    0.000    0.000    0.000    0.000    0.000    0.000 
#
# Total GULP energy -178805.704950 kJ/mol
# GULP energy per Si atom -5587.678280 kJ/mol
# Density = 2.605979 g / cm^3
# Si number density = 26.119243 Si / 1000 Ang^3
#
#
#
# Elastic Constant Matrix: (Units=GPa)
#
#
# Indices 1 2 3 4 5 6 
#
# 1 65.7473 60.2818 34.8270 0.0000 0.0000 0.0000
# 2 60.2818 65.7473 34.8270 0.0000 0.0000 0.0000
# 3 34.8270 34.8270 182.5561 0.0000 0.0000 0.0000
# 4 0.0000 0.0000 0.0000 35.5578 0.0000 0.0000
# 5 0.0000 0.0000 0.0000 0.0000 35.5578 0.0000
# 6 0.0000 0.0000 0.0000 0.0000 0.0000 -48.8533
#
#
#
# Elastic Compliance Matrix: (Units=1/GPa)
#
#
# Indices 1 2 3 4 5 6 
#
# 1 0.095919 -0.087049 -0.001692 0.000000 0.000000 0.000000
# 2 -0.087049 0.095919 -0.001692 0.000000 0.000000 0.000000
# 3 -0.001692 -0.001692 0.006123 0.000000 0.000000 0.000000
# 4 0.000000 0.000000 0.000000 0.028123 0.000000 0.000000
# 5 0.000000 0.000000 0.000000 0.000000 0.028123 0.000000
# 6 0.000000 0.000000 0.000000 0.000000 0.000000 -0.020469
#
#
# Mechanical properties :
#
#
# Convention : Reuss Voigt Hill
#
# Bulk Modulus (GPa) = 58.49799 63.76914 61.13357
# Shear Modulus (GPa) = 11.89621 16.72678 14.31150
#
# Velocity S-wave (km/s) = 2.13646 2.53336 2.34333
# Velocity P-wave (km/s) = 5.34145 5.74672 5.54779
#
# Compressibility (1/GPa) = 0.01709460
#
# Stress axis : x y z
#
# Youngs Moduli (GPa) = 10.42551 10.42551 163.30783
#
# Poissons Ratio (x) = 0.90753 0.27634
# Poissons Ratio (y) = 0.90753 0.27634
# Poissons Ratio (z) = 0.01764 0.01764
#
# Static dielectric constant tensor:
#      x y z
#    x 2.070340 0.000000 0.000000 
#    y 0.000000 2.070340 0.000000 
#    z 0.000000 0.000000 2.368800 
# 
# From -- ./inp_files/91.got.cif
#   From: 2010.05.17/outbox.cif.g08.bks.cpg/sg110_1_cif.got.tgz:91.got - 2010.05.20 10:54:03.
