data_PCOD9554015
_publ_section_title
;
Structure prediction by ZEFSAII (Michael W. Deem and Ramdas Pophale) SiO2 
 PCOD9554015
Probable space group: I 4 C M
;
_chemical_formula_sum "Si O2"
_cell_formula_units_Z 112
_cell_length_a 13.693224
_cell_length_b 13.693224
_cell_length_c 33.265298
_cell_angle_alpha 90.000000
_cell_angle_beta 90.000000
_cell_angle_gamma 90.000000
_cell_volume 6237.389194
_symmetry_space_group_name_H-M "I 4 C M"
_symmetry_group_IT_number 108
_symmetry_cell_setting 'tetragonal'
loop_
_space_group_symop_operation_xyz
x,y,z
-y,x,z
-x,-y,z
y,-x,z
-x,y,1/2+z
x,-y,1/2+z
-y,-x,1/2+z
y,x,1/2+z
1/2+x,1/2+y,1/2+z
1/2-y,1/2+x,1/2+z
1/2-x,1/2-y,1/2+z
1/2+y,1/2-x,1/2+z
1/2-x,1/2+y,z
1/2+x,1/2-y,z
1/2-y,1/2-x,z
1/2+y,1/2+x,z
loop_
_atom_site_type_symbol
_atom_site_label
_atom_site_fract_x
_atom_site_fract_y
_atom_site_fract_z
Si Si1 0.588329 0.745932 0.954450
Si Si2 0.088950 0.139314 0.828382
Si Si3 0.754069 0.911672 0.613325
Si Si4 1.000000 0.165652 0.033887
Si Si5 0.606695 0.264918 0.912273
Si Si6 0.639314 0.588950 0.739393
Si Si7 0.606695 0.264918 0.655502
O O1 0.664376 0.835625 0.956909
O O2 0.651400 0.650423 0.941785
O O3 0.506143 0.755362 0.920476
O O4 0.526210 0.730763 0.995175
O O5 0.122878 0.199339 0.866779
O O6 0.113865 0.178204 0.783888
O O7 0.971324 0.128949 0.830835
O O8 0.664378 0.835623 0.610866
O O9 0.849579 0.848603 0.625991
O O10 0.769238 0.973791 0.572600
O O11 0.744637 0.993857 0.647299
O O12 0.093153 0.093154 0.033887
O O13 0.669305 0.169305 0.920318
O O14 0.528676 0.628949 0.736941
O O15 0.699339 0.622878 0.700996
O O16 0.669307 0.169307 0.647456
#
# Coordination Sequence:
#
# PCOD9554015 Si02
#       7
#    16  16  16  16  16  16  16
#     4  11  24  40  61  90 119 151 199 251 296 353
#     4   9  17  31  56  88 117 149 196 254 303 346
#     4  11  24  40  61  90 119 151 199 251 296 353
#     4  11  22  38  64  91 112 152 199 244 294 353
#     4  11  22  37  60  86 119 161 200 242 295 361
#     4   9  17  31  56  88 117 149 196 254 303 346
#     4  11  22  37  60  86 119 161 200 242 295 361
#
# _framework density 17.956230999999999
#
# number of rings (size 3 to 8) (size 9 to 14) (size 15 to 20)
#    0.000    1.571    5.714    0.857    0.000    3.429 
#    0.000    0.000    0.000    0.857    0.000    2.000 
#    0.000    0.000    0.000    0.000    0.000    0.000 
#
# Total GULP energy -312052.249152 kJ/mol
# GULP energy per Si atom -5572.361592 kJ/mol
# Density = 1.791536 g / cm^3
# Si number density = 17.956231 Si / 1000 Ang^3
#
#
#
# Elastic Constant Matrix: (Units=GPa)
#
#
# Indices 1 2 3 4 5 6 
#
# 1 62.9494 30.4365 23.5782 0.0000 0.0000 -0.0009
# 2 30.4365 62.9494 23.5782 0.0000 0.0000 0.0009
# 3 23.5782 23.5782 109.6738 0.0000 0.0000 0.0000
# 4 0.0000 0.0000 0.0000 19.7111 0.0000 0.0000
# 5 0.0000 0.0000 0.0000 0.0000 19.7111 0.0000
# 6 -0.0009 0.0009 0.0000 0.0000 0.0000 9.0094
#
#
#
# Elastic Compliance Matrix: (Units=1/GPa)
#
#
# Indices 1 2 3 4 5 6 
#
# 1 0.021385 -0.009372 -0.002582 0.000000 0.000000 0.000003
# 2 -0.009372 0.021385 -0.002582 0.000000 0.000000 -0.000003
# 3 -0.002582 -0.002582 0.010228 0.000000 0.000000 0.000000
# 4 0.000000 0.000000 0.000000 0.050733 0.000000 0.000000
# 5 0.000000 0.000000 0.000000 0.000000 0.050733 0.000000
# 6 0.000003 -0.000003 0.000000 0.000000 0.000000 0.110995
#
#
# Mechanical properties :
#
#
# Convention : Reuss Voigt Hill
#
# Bulk Modulus (GPa) = 41.80064 43.41762 42.60913
# Shear Modulus (GPa) = 16.52851 20.21828 18.37339
#
# Velocity S-wave (km/s) = 3.03725 3.35920 3.20227
# Velocity P-wave (km/s) = 5.96905 6.26720 6.11994
#
# Compressibility (1/GPa) = 0.02392308
#
# Stress axis : x y z
#
# Youngs Moduli (GPa) = 46.76254 46.76254 97.76771
#
# Poissons Ratio (x) = 0.43827 0.25248
# Poissons Ratio (y) = 0.43827 0.25248
# Poissons Ratio (z) = 0.12076 0.12076
#
# Static dielectric constant tensor:
#      x y z
#    x 1.594860 0.000000 0.000000 
#    y 0.000000 1.594860 0.000000 
#    z 0.000000 0.000000 1.659470 
# 
# From -- ./inp_files/3545.got.cif
#   From: 2010.05.17/outbox.cif.g08.bks.cpg/sg108_2_cif.got.tgz:3545.got - 2010.05.20 10:49:05.
