data_PCOD9554055
_publ_section_title
;
Structure prediction by ZEFSAII (Michael W. Deem and Ramdas Pophale) SiO2 
 PCOD9554055
Probable space group: I 41 M D
;
_chemical_formula_sum "Si O2"
_cell_formula_units_Z 68
_cell_length_a 20.317268
_cell_length_b 20.317268
_cell_length_c 6.836349
_cell_angle_alpha 90.000000
_cell_angle_beta 90.000000
_cell_angle_gamma 90.000000
_cell_volume 2821.985931
_symmetry_space_group_name_H-M "I 41 M D"
_symmetry_group_IT_number 109
_symmetry_cell_setting 'tetragonal'
loop_
_space_group_symop_operation_xyz
x,y,z
-y,1/2+x,1/4+z
-x,-y,z
y,1/2-x,1/4+z
-x,y,z
x,-y,z
-y,1/2-x,1/4+z
y,1/2+x,1/4+z
1/2+x,1/2+y,1/2+z
1/2-y,x,3/4+z
1/2-x,1/2-y,1/2+z
1/2+y,-x,3/4+z
1/2-x,1/2+y,1/2+z
1/2+x,1/2-y,1/2+z
1/2-y,-x,3/4+z
1/2+y,x,3/4+z
loop_
_atom_site_type_symbol
_atom_site_label
_atom_site_fract_x
_atom_site_fract_y
_atom_site_fract_z
Si Si1 0.075364 0.694034 0.785040
Si Si2 0.073819 0.268695 0.242803
Si Si3 0.500000 0.000000 0.934759
Si Si4 0.375841 0.097547 0.863744
Si Si5 0.075479 0.160172 0.657438
O O1 0.079053 0.714221 0.013077
O O2 0.090505 0.761689 0.669931
O O3 0.120575 0.629887 0.786040
O O4 0.000000 0.675850 0.743786
O O5 0.082605 0.190512 0.233907
O O6 0.000000 0.282594 0.307206
O O7 0.116612 0.323203 0.353424
O O8 0.559132 0.942433 0.925777
O O9 0.364027 0.078058 0.634492
O O10 0.000000 0.149615 0.594233
#
# Coordination Sequence:
#
# PCOD9554055 Si02
#       5
#    16  16   4  16  16
#     4   8  15  22  32  47  70 100 125 150 181 219
#     4   9  15  24  33  49  76 107 129 162 189 234
#     4  12  16  20  36  56  76 112 136 150 192 236
#     4  10  17  23  34  52  77 111 133 155 191 241
#     4   9  15  23  32  48  72 101 127 150 179 224
#
# _framework density 24.096505000000001
#
# number of rings (size 3 to 8) (size 9 to 14) (size 15 to 20)
#    0.000    2.824    3.529    1.412    1.647    0.471 
#    0.000    0.000    0.000    0.000    0.000    0.000 
#    0.000    3.765   61.882    0.000    3.059    0.000 
#
# Total GULP energy -189550.312718 kJ/mol
# GULP energy per Si atom -5575.009198 kJ/mol
# Density = 2.404166 g / cm^3
# Si number density = 24.096505 Si / 1000 Ang^3
#
#
#
# Elastic Constant Matrix: (Units=GPa)
#
#
# Indices 1 2 3 4 5 6 
#
# 1 207.3223 120.5303 47.6465 0.0000 0.0000 0.0000
# 2 120.5303 207.3223 47.6465 0.0000 0.0000 0.0000
# 3 47.6465 47.6465 52.9516 0.0000 0.0000 0.0000
# 4 0.0000 0.0000 0.0000 36.2033 0.0000 0.0000
# 5 0.0000 0.0000 0.0000 0.0000 36.2033 0.0000
# 6 0.0000 0.0000 0.0000 0.0000 0.0000 45.7481
#
#
#
# Elastic Compliance Matrix: (Units=1/GPa)
#
#
# Indices 1 2 3 4 5 6 
#
# 1 0.007826 -0.003696 -0.003717 0.000000 0.000000 0.000000
# 2 -0.003696 0.007826 -0.003717 0.000000 0.000000 0.000000
# 3 -0.003717 -0.003717 0.025574 0.000000 0.000000 0.000000
# 4 0.000000 0.000000 0.000000 0.027622 0.000000 0.000000
# 5 0.000000 0.000000 0.000000 0.000000 0.027622 0.000000
# 6 0.000000 0.000000 0.000000 0.000000 0.000000 0.021859
#
#
# Mechanical properties :
#
#
# Convention : Reuss Voigt Hill
#
# Bulk Modulus (GPa) = 52.72013 99.91587 76.31800
# Shear Modulus (GPa) = 34.03474 40.41581 37.22528
#
# Velocity S-wave (km/s) = 3.76231 4.09986 3.93471
# Velocity P-wave (km/s) = 6.38746 7.99792 7.23762
#
# Compressibility (1/GPa) = 0.01896809
#
# Stress axis : x y z
#
# Youngs Moduli (GPa) = 127.77745 127.77745 39.10274
#
# Poissons Ratio (x) = 0.47223 0.14533
# Poissons Ratio (y) = 0.47223 0.14533
# Poissons Ratio (z) = 0.47490 0.47490
#
# Static dielectric constant tensor:
#      x y z
#    x 1.874770 0.000000 0.000000 
#    y 0.000000 1.874770 0.000000 
#    z 0.000000 0.000000 2.049150 
# 
# From -- ./inp_files/1888.got.cif
#   From: 2010.05.17/outbox.cif.g08.bks.cpg/sg109_1_cif.got.tgz:1888.got - 2010.05.20 10:51:12.
