data_PCOD9554163
_publ_section_title
;
Structure prediction by ZEFSAII (Michael W. Deem and Ramdas Pophale) SiO2 
 PCOD9554163
Probable space group: I 41 M D
;
_chemical_formula_sum "Si O2"
_cell_formula_units_Z 96
_cell_length_a 16.286645
_cell_length_b 16.286645
_cell_length_c 17.738436
_cell_angle_alpha 90.000000
_cell_angle_beta 90.000000
_cell_angle_gamma 90.000000
_cell_volume 4705.205389
_symmetry_space_group_name_H-M "I 41 M D"
_symmetry_group_IT_number 109
_symmetry_cell_setting 'tetragonal'
loop_
_space_group_symop_operation_xyz
x,y,z
-y,1/2+x,1/4+z
-x,-y,z
y,1/2-x,1/4+z
-x,y,z
x,-y,z
-y,1/2-x,1/4+z
y,1/2+x,1/4+z
1/2+x,1/2+y,1/2+z
1/2-y,x,3/4+z
1/2-x,1/2-y,1/2+z
1/2+y,-x,3/4+z
1/2-x,1/2+y,1/2+z
1/2+x,1/2-y,1/2+z
1/2-y,-x,3/4+z
1/2+y,x,3/4+z
loop_
_atom_site_type_symbol
_atom_site_label
_atom_site_fract_x
_atom_site_fract_y
_atom_site_fract_z
Si Si1 0.589882 0.000000 0.381290
Si Si2 0.705026 0.788397 0.622126
Si Si3 0.408934 0.500000 0.597624
Si Si4 0.000000 0.229844 0.399603
Si Si5 0.673975 0.588215 0.043675
Si Si6 0.249714 0.500000 0.819951
Si Si7 0.675697 0.904063 0.765292
Si Si8 0.651112 0.163453 0.130881
O O1 0.588999 0.912051 0.338708
O O2 0.500000 0.000000 0.423371
O O3 0.689076 0.000000 0.393895
O O4 0.760164 0.844978 0.567871
O O5 0.677884 0.845548 0.691728
O O6 0.634655 0.740100 0.575874
O O7 0.772186 0.721993 0.648559
O O8 0.500000 0.500000 0.634063
O O9 0.328301 0.500000 0.648881
O O10 0.403177 0.416410 0.549023
O O11 0.000000 0.206506 0.488220
O O12 0.921520 0.192285 0.358614
O O13 0.712486 0.500000 0.057848
O O14 0.651812 0.600472 0.957150
O O15 0.299436 0.584993 0.823709
O O16 0.696398 0.000000 0.749201
#
# Coordination Sequence:
#
# PCOD9554163 Si02
#       8
#     8  16   8   8  16   8  16  16
#     4  10  20  34  57  85 122 171 209 258 328 384
#     4  12  23  41  69  99 129 174 230 279 340 408
#     4  10  24  48  67  89 129 177 220 278 345 395
#     4  12  24  43  62  94 137 166 216 283 325 394
#     4  11  21  38  61  90 132 174 214 268 331 401
#     4  12  24  39  64  98 132 176 221 261 330 419
#     4  11  26  45  70 102 133 178 230 286 348 413
#     4  12  22  38  63  94 131 171 217 264 328 400
#
# _framework density 20.402934999999999
#
# number of rings (size 3 to 8) (size 9 to 14) (size 15 to 20)
#    0.000    0.667    7.500    0.500    1.167    0.333 
#    1.500    0.000    0.000    0.000    0.000    0.000 
#    0.000    0.000    0.000    0.000    0.000    0.000 
#
# Total GULP energy -267459.865094 kJ/mol
# GULP energy per Si atom -5572.080523 kJ/mol
# Density = 2.035650 g / cm^3
# Si number density = 20.402935 Si / 1000 Ang^3
#
#
#
# Elastic Constant Matrix: (Units=GPa)
#
#
# Indices 1 2 3 4 5 6 
#
# 1 144.5309 49.8904 19.6435 0.0000 0.0000 0.0000
# 2 49.8904 144.5309 19.6435 0.0000 0.0000 0.0000
# 3 19.6435 19.6435 43.9300 0.0000 0.0000 0.0000
# 4 0.0000 0.0000 0.0000 18.8597 0.0000 0.0000
# 5 0.0000 0.0000 0.0000 0.0000 18.8597 0.0000
# 6 0.0000 0.0000 0.0000 0.0000 0.0000 35.1408
#
#
#
# Elastic Compliance Matrix: (Units=1/GPa)
#
#
# Indices 1 2 3 4 5 6 
#
# 1 0.008110 -0.002456 -0.002528 0.000000 0.000000 0.000000
# 2 -0.002456 0.008110 -0.002528 0.000000 0.000000 0.000000
# 3 -0.002528 -0.002528 0.025025 0.000000 0.000000 0.000000
# 4 0.000000 0.000000 0.000000 0.053023 0.000000 0.000000
# 5 0.000000 0.000000 0.000000 0.000000 0.053023 0.000000
# 6 0.000000 0.000000 0.000000 0.000000 0.000000 0.028457
#
#
# Mechanical properties :
#
#
# Convention : Reuss Voigt Hill
#
# Bulk Modulus (GPa) = 38.13899 56.81629 47.47764
# Shear Modulus (GPa) = 25.06092 30.82634 27.94363
#
# Velocity S-wave (km/s) = 3.50851 3.89122 3.70481
# Velocity P-wave (km/s) = 5.92844 6.93515 6.45146
#
# Compressibility (1/GPa) = 0.02621989
#
# Stress axis : x y z
#
# Youngs Moduli (GPa) = 123.29940 123.29940 39.96060
#
# Poissons Ratio (x) = 0.30282 0.10104
# Poissons Ratio (y) = 0.30282 0.10104
# Poissons Ratio (z) = 0.31175 0.31175
#
# Static dielectric constant tensor:
#      x y z
#    x 1.786470 0.000000 0.000000 
#    y 0.000000 1.786470 0.000000 
#    z 0.000000 0.000000 1.726450 
# 
# From -- ./inp_files/3847.got.cif
#   From: 2010.05.17/outbox.cif.g08.bks.cpg/sg109_2_cif.got.tgz:3847.got - 2010.05.20 10:51:12.
