data_PCOD9554725
_publ_section_title
;
Structure prediction by ZEFSAII (Michael W. Deem and Ramdas Pophale) SiO2 
 PCOD9554725
Probable space group: P -4 2 M 
;
_chemical_formula_sum "Si O2"
_cell_formula_units_Z 64
_cell_length_a 11.937256
_cell_length_b 11.937256
_cell_length_c 27.622967
_cell_angle_alpha 90.000000
_cell_angle_beta 90.000000
_cell_angle_gamma 90.000000
_cell_volume 3936.219784
_symmetry_space_group_name_H-M "P -4 2 M "
_symmetry_group_IT_number 111
_symmetry_cell_setting 'tetragonal'
loop_
_space_group_symop_operation_xyz
x,y,z
y,-x,-z
-x,-y,z
-y,x,-z
x,-y,-z
-x,y,-z
-y,-x,z
y,x,z
loop_
_atom_site_type_symbol
_atom_site_label
_atom_site_fract_x
_atom_site_fract_y
_atom_site_fract_z
Si Si1 0.863861 0.500368 0.555075
Si Si2 0.684626 0.867564 0.632686
Si Si3 0.546932 0.271680 0.095366
Si Si4 0.103167 0.281311 0.936760
Si Si5 0.333639 0.152086 0.048871
Si Si6 0.498549 0.316425 0.206006
Si Si7 0.499128 0.131191 0.714451
Si Si8 0.133555 0.683397 0.632876
O O1 0.823283 0.500000 0.500000
O O2 0.832794 0.609242 0.586425
O O3 0.832066 0.391977 0.586576
O O4 0.000000 0.500000 0.554122
O O5 0.796353 0.796353 0.634678
O O6 0.607842 0.847196 0.679951
O O7 0.704345 0.000654 0.629693
O O8 0.615286 0.384715 0.078391
O O9 0.642293 0.176677 0.098433
O O10 0.447937 0.216128 0.063460
O O11 0.499376 0.295075 0.148519
O O12 0.154516 0.154516 0.933993
O O13 0.972073 0.307934 0.930284
O O14 0.134855 0.324627 0.990887
O O15 0.233708 0.233708 0.063948
O O16 0.606819 0.393182 0.216294
O O17 0.390569 0.390569 0.218385
O O18 0.501321 0.206881 0.238431
O O19 0.606160 0.153395 0.680034
O O20 0.500000 0.000000 0.726680
O O21 0.205308 0.794693 0.635035
#
# Coordination Sequence:
#
# PCOD9554725 Si02
#       8
#     8   8   8   8   8   8   8   8
#     4   8  15  28  44  62  86 119 156 187 217 258
#     4   9  17  29  46  68  93 120 151 187 227 273
#     4  10  20  33  48  70 100 128 157 193 235 290
#     4   9  19  34  51  72  97 127 163 199 235 280
#     4  10  19  32  52  74  97 127 160 197 240 282
#     4  10  20  33  50  71  94 119 150 194 241 277
#     4   9  18  32  49  69  91 119 156 189 223 274
#     4   9  17  29  46  68  93 120 151 188 227 271
#
# _framework density 16.259256000000001
#
# number of rings (size 3 to 8) (size 9 to 14) (size 15 to 20)
#    0.000    2.750    0.000    3.375    0.000    3.750 
#    0.000    1.875    0.000    7.875    0.000    7.000 
#    0.000    6.000    0.000    0.000    0.000    0.000 
#
# Total GULP energy -356357.277930 kJ/mol
# GULP energy per Si atom -5568.082468 kJ/mol
# Density = 1.622225 g / cm^3
# Si number density = 16.259256 Si / 1000 Ang^3
#
#
#
# Elastic Constant Matrix: (Units=GPa)
#
#
# Indices 1 2 3 4 5 6 
#
# 1 82.4034 59.7446 25.5473 0.0000 0.0000 0.0000
# 2 59.7446 82.4000 25.5480 0.0000 0.0000 0.0000
# 3 25.5473 25.5480 31.8412 0.0000 0.0000 0.0000
# 4 0.0000 0.0000 0.0000 11.4787 0.0000 0.0000
# 5 0.0000 0.0000 0.0000 0.0000 11.4766 0.0000
# 6 0.0000 0.0000 0.0000 0.0000 0.0000 -9.3392
#
#
#
# Elastic Compliance Matrix: (Units=1/GPa)
#
#
# Indices 1 2 3 4 5 6 
#
# 1 0.027010 -0.017125 -0.007931 0.000000 0.000000 0.000000
# 2 -0.017125 0.027012 -0.007933 0.000000 0.000000 0.000000
# 3 -0.007931 -0.007933 0.044135 0.000000 0.000000 0.000000
# 4 0.000000 0.000000 0.000000 0.087118 0.000000 0.000000
# 5 0.000000 0.000000 0.000000 0.000000 0.087134 0.000000
# 6 0.000000 0.000000 0.000000 0.000000 0.000000 -0.107076
#
#
# Mechanical properties :
#
#
# Convention : Reuss Voigt Hill
#
# Bulk Modulus (GPa) = 31.07686 46.48048 38.77867
# Shear Modulus (GPa) = 20.65792 8.44354 14.55073
#
# Velocity S-wave (km/s) = 3.56832 2.28130 2.99477
# Velocity P-wave (km/s) = 6.01099 5.96559 5.98834
#
# Compressibility (1/GPa) = 0.03217828
#
# Stress axis : x y z
#
# Youngs Moduli (GPa) = 37.02291 37.02019 22.65801
#
# Poissons Ratio (x) = 0.63397 0.17970
# Poissons Ratio (y) = 0.63402 0.17976
# Poissons Ratio (z) = 0.29363 0.29370
#
# Static dielectric constant tensor:
#      x y z
#    x 1.547320 0.000000 0.000000 
#    y 0.000000 1.547320 0.000000 
#    z 0.000000 0.000000 1.546970 
# 
# From -- ./inp_files/4231.got.cif
#   From: 2010.05.17/outbox.cif.g08.bks.cpg/sg111_3_cif.got.tgz:4231.got - 2010.05.20 10:56:05.
