data_PCOD9554193
_publ_section_title
;
Structure prediction by ZEFSAII (Michael W. Deem and Ramdas Pophale) SiO2 
 PCOD9554193
Probable space group: I 41 M D
;
_chemical_formula_sum "Si O2"
_cell_formula_units_Z 36
_cell_length_a 7.899780
_cell_length_b 7.899780
_cell_length_c 33.429088
_cell_angle_alpha 90.000000
_cell_angle_beta 90.000000
_cell_angle_gamma 90.000000
_cell_volume 2086.193184
_symmetry_space_group_name_H-M "I 41 M D"
_symmetry_group_IT_number 109
_symmetry_cell_setting 'tetragonal'
loop_
_space_group_symop_operation_xyz
x,y,z
-y,1/2+x,1/4+z
-x,-y,z
y,1/2-x,1/4+z
-x,y,z
x,-y,z
-y,1/2-x,1/4+z
y,1/2+x,1/4+z
1/2+x,1/2+y,1/2+z
1/2-y,x,3/4+z
1/2-x,1/2-y,1/2+z
1/2+y,-x,3/4+z
1/2-x,1/2+y,1/2+z
1/2+x,1/2-y,1/2+z
1/2-y,-x,3/4+z
1/2+y,x,3/4+z
loop_
_atom_site_type_symbol
_atom_site_label
_atom_site_fract_x
_atom_site_fract_y
_atom_site_fract_z
Si Si1 0.798549 0.312292 0.081670
Si Si2 0.500000 0.000000 0.718272
Si Si3 0.188485 0.500000 0.529105
Si Si4 0.307167 0.500000 0.156644
O O1 0.774189 0.500000 0.062644
O O2 0.713978 0.164567 0.056925
O O3 0.726523 0.342185 0.126321
O O4 0.000000 0.281639 0.084181
O O5 0.500000 0.165053 0.746166
O O6 0.666407 0.000000 0.690588
O O7 0.000000 0.500000 0.511852
O O8 0.500000 0.500000 0.170773
#
# Coordination Sequence:
#
# PCOD9554193 Si02
#       4
#    16   4   8   8
#     4   9  18  39  65  86 113 153 209 252 287 356
#     4  12  24  40  52  88 136 160 196 248 324 360
#     4  12  24  38  62  95 121 164 204 250 303 366
#     4  10  20  40  64  87 119 162 210 254 299 360
#
# _framework density 17.256309999999999
#
# number of rings (size 3 to 8) (size 9 to 14) (size 15 to 20)
#    1.333    0.444    4.444    1.333    0.000    1.778 
#    4.000    0.000    0.000    0.000    0.000    0.000 
#    0.000    0.000    0.000    0.000    0.000    0.000 
#
# Total GULP energy -100233.054430 kJ/mol
# GULP energy per Si atom -5568.503024 kJ/mol
# Density = 1.721703 g / cm^3
# Si number density = 17.256310 Si / 1000 Ang^3
#
#
#
# Elastic Constant Matrix: (Units=GPa)
#
#
# Indices 1 2 3 4 5 6 
#
# 1 127.2307 51.6109 57.0108 0.0000 0.0000 0.0000
# 2 51.6109 127.2307 57.0108 0.0000 0.0000 0.0000
# 3 57.0108 57.0108 102.9291 0.0000 0.0000 0.0000
# 4 0.0000 0.0000 0.0000 -4.9097 0.0000 0.0000
# 5 0.0000 0.0000 0.0000 0.0000 -4.9097 0.0000
# 6 0.0000 0.0000 0.0000 0.0000 0.0000 15.6274
#
#
#
# Elastic Compliance Matrix: (Units=1/GPa)
#
#
# Indices 1 2 3 4 5 6 
#
# 1 0.010934 -0.002290 -0.004788 0.000000 0.000000 0.000000
# 2 -0.002290 0.010934 -0.004788 0.000000 0.000000 0.000000
# 3 -0.004788 -0.004788 0.015019 0.000000 0.000000 0.000000
# 4 0.000000 0.000000 0.000000 -0.203679 0.000000 0.000000
# 5 0.000000 0.000000 0.000000 0.000000 -0.203679 0.000000
# 6 0.000000 0.000000 0.000000 0.000000 0.000000 0.063990
#
#
# Mechanical properties :
#
#
# Convention : Reuss Voigt Hill
#
# Bulk Modulus (GPa) = 76.01051 76.51731 76.26391
# Shear Modulus (GPa) = -17.96210 13.94547 -2.00832
#
# Velocity S-wave (km/s) = -3.22980 2.84586 -1.07997
# Velocity P-wave (km/s) = 5.49862 7.43212 6.53725
#
# Compressibility (1/GPa) = 0.01315608
#
# Stress axis : x y z
#
# Youngs Moduli (GPa) = 91.45753 91.45753 66.58146
#
# Poissons Ratio (x) = 0.20944 0.31878
# Poissons Ratio (y) = 0.20944 0.31878
# Poissons Ratio (z) = 0.43788 0.43788
#
# Static dielectric constant tensor:
#      x y z
#    x 1.590280 0.000000 0.000000 
#    y 0.000000 1.590280 0.000000 
#    z 0.000000 0.000000 1.560570 
# 
# From -- ./inp_files/4122.got.cif
#   From: 2010.05.17/outbox.cif.g08.bks.cpg/sg109_3_cif.got.tgz:4122.got - 2010.05.20 10:51:12.
