data_PCOD9554444
_publ_section_title
;
Structure prediction by ZEFSAII (Michael W. Deem and Ramdas Pophale) SiO2 
 PCOD9554444
Probable space group: I 41 C D
;
_chemical_formula_sum "Si O2"
_cell_formula_units_Z 112
_cell_length_a 14.131786
_cell_length_b 14.131786
_cell_length_c 26.304281
_cell_angle_alpha 90.000000
_cell_angle_beta 90.000000
_cell_angle_gamma 90.000000
_cell_volume 5253.158924
_symmetry_space_group_name_H-M "I 41 C D"
_symmetry_group_IT_number 110
_symmetry_cell_setting 'tetragonal'
loop_
_space_group_symop_operation_xyz
x,y,z
-y,1/2+x,1/4+z
-x,-y,z
y,1/2-x,1/4+z
-x,y,1/2+z
x,-y,1/2+z
1/2-y,-x,1/4+z
1/2+y,x,1/4+z
1/2+x,1/2+y,1/2+z
1/2-y,x,3/4+z
1/2-x,1/2-y,1/2+z
1/2+y,-x,3/4+z
1/2-x,1/2+y,z
1/2+x,1/2-y,z
-y,1/2-x,3/4+z
y,1/2+x,3/4+z
loop_
_atom_site_type_symbol
_atom_site_label
_atom_site_fract_x
_atom_site_fract_y
_atom_site_fract_z
Si Si1 0.024020 0.203171 0.737380
Si Si2 0.215908 0.218405 0.533154
Si Si3 0.669771 0.599644 0.552837
Si Si4 0.835244 0.597129 0.696000
Si Si5 0.623260 0.729077 0.134094
Si Si6 0.000000 0.000000 0.215883
Si Si7 0.970953 0.308608 0.402781
Si Si8 0.500000 0.500000 0.506191
O O1 0.118574 0.234611 0.768172
O O2 0.041149 0.211126 0.676206
O O3 0.941025 0.268557 0.756523
O O4 0.001552 0.094837 0.748376
O O5 0.293793 0.292153 0.554274
O O6 0.161072 0.234765 0.480402
O O7 0.129088 0.216499 0.573667
O O8 0.691910 0.533739 0.601596
O O9 0.561720 0.573264 0.539548
O O10 0.850962 0.663461 0.647289
O O11 0.782245 0.501666 0.683871
O O12 0.933739 0.570420 0.723266
O O13 0.693223 0.642041 0.147470
O O14 0.905914 0.003098 0.181381
#
# Coordination Sequence:
#
# PCOD9554444 Si02
#       8
#    16  16  16  16  16   8  16   8
#     4  10  22  43  67  98 135 175 232 285 341 424
#     4  11  22  42  72  98 135 183 224 288 350 412
#     4  12  23  41  70  99 139 177 229 288 347 413
#     4  11  24  43  67 101 136 182 229 287 348 415
#     4  10  20  42  69  92 134 178 224 276 343 408
#     4  10  23  40  65  96 136 178 231 280 345 430
#     4  11  22  41  69  95 136 181 224 283 348 420
#     4  12  25  42  69 100 136 180 235 286 339 416
#
# _framework density 21.320505000000001
#
# number of rings (size 3 to 8) (size 9 to 14) (size 15 to 20)
#    0.000    1.143    5.714    1.286    6.000    1.143 
#    0.000    0.714    6.286    0.000    0.000    0.000 
#    0.000    0.000    0.000    0.000    0.000    0.000 
#
# Total GULP energy -311786.784226 kJ/mol
# GULP energy per Si atom -5567.621147 kJ/mol
# Density = 2.127198 g / cm^3
# Si number density = 21.320505 Si / 1000 Ang^3
#
#
#
# Elastic Constant Matrix: (Units=GPa)
#
#
# Indices 1 2 3 4 5 6 
#
# 1 75.0220 5.1919 -3.2539 0.0000 0.0000 0.0000
# 2 5.1919 75.0220 -3.2539 0.0000 0.0000 0.0000
# 3 -3.2539 -3.2539 39.9092 0.0000 0.0000 0.0000
# 4 0.0000 0.0000 0.0000 10.2027 0.0000 0.0000
# 5 0.0000 0.0000 0.0000 0.0000 10.2027 0.0000
# 6 0.0000 0.0000 0.0000 0.0000 0.0000 33.4006
#
#
#
# Elastic Compliance Matrix: (Units=1/GPa)
#
#
# Indices 1 2 3 4 5 6 
#
# 1 0.013435 -0.000885 0.001023 0.000000 0.000000 0.000000
# 2 -0.000885 0.013435 0.001023 0.000000 0.000000 0.000000
# 3 0.001023 0.001023 0.025224 0.000000 0.000000 0.000000
# 4 0.000000 0.000000 0.000000 0.098014 0.000000 0.000000
# 5 0.000000 0.000000 0.000000 0.000000 0.098014 0.000000
# 6 0.000000 0.000000 0.000000 0.000000 0.000000 0.029940
#
#
# Mechanical properties :
#
#
# Convention : Reuss Voigt Hill
#
# Bulk Modulus (GPa) = 18.37697 20.81349 19.59523
# Shear Modulus (GPa) = 17.01391 23.51247 20.26319
#
# Velocity S-wave (km/s) = 2.82797 3.32446 3.08621
# Velocity P-wave (km/s) = 4.39332 4.95171 4.68085
#
# Compressibility (1/GPa) = 0.05441594
#
# Stress axis : x y z
#
# Youngs Moduli (GPa) = 74.43207 74.43207 39.64523
#
# Poissons Ratio (x) = 0.06590 -0.04057
# Poissons Ratio (y) = 0.06590 -0.04057
# Poissons Ratio (z) = -0.07616 -0.07616
#
# Static dielectric constant tensor:
#      x y z
#    x 1.782010 0.000000 0.000000 
#    y 0.000000 1.782010 0.000000 
#    z 0.000000 0.000000 1.818330 
# 
# From -- ./inp_files/2685.got.cif
#   From: 2010.05.17/outbox.cif.g08.bks.cpg/sg110_2_cif.got.tgz:2685.got - 2010.05.20 10:54:03.
