data_PCOD9554496
_publ_section_title
;
Structure prediction by ZEFSAII (Michael W. Deem and Ramdas Pophale) SiO2 
 PCOD9554496
Probable space group: I 41 C D
;
_chemical_formula_sum "Si O2"
_cell_formula_units_Z 120
_cell_length_a 16.658048
_cell_length_b 16.658048
_cell_length_c 18.045094
_cell_angle_alpha 90.000000
_cell_angle_beta 90.000000
_cell_angle_gamma 90.000000
_cell_volume 5007.343297
_symmetry_space_group_name_H-M "I 41 C D"
_symmetry_group_IT_number 110
_symmetry_cell_setting 'tetragonal'
loop_
_space_group_symop_operation_xyz
x,y,z
-y,1/2+x,1/4+z
-x,-y,z
y,1/2-x,1/4+z
-x,y,1/2+z
x,-y,1/2+z
1/2-y,-x,1/4+z
1/2+y,x,1/4+z
1/2+x,1/2+y,1/2+z
1/2-y,x,3/4+z
1/2-x,1/2-y,1/2+z
1/2+y,-x,3/4+z
1/2-x,1/2+y,z
1/2+x,1/2-y,z
-y,1/2-x,3/4+z
y,1/2+x,3/4+z
loop_
_atom_site_type_symbol
_atom_site_label
_atom_site_fract_x
_atom_site_fract_y
_atom_site_fract_z
Si Si1 0.478879 0.871233 0.215260
Si Si2 0.817270 0.832527 0.041474
Si Si3 0.226485 0.756222 0.168715
Si Si4 0.479220 0.633365 0.864528
Si Si5 0.775254 0.514576 0.357093
Si Si6 0.000000 0.000000 0.759252
Si Si7 0.413052 0.364642 0.214546
Si Si8 0.904146 0.837313 0.480856
O O1 0.427837 0.830404 0.281623
O O2 0.418198 0.934707 0.177768
O O3 0.492582 0.809002 0.148159
O O4 0.565480 0.904017 0.239971
O O5 0.752871 0.791311 0.095675
O O6 0.901349 0.793994 0.068285
O O7 0.791940 0.803901 0.959600
O O8 0.162202 0.828499 0.171956
O O9 0.186726 0.686976 0.218506
O O10 0.528528 0.570465 0.813772
O O11 0.418049 0.664734 0.800964
O O12 0.542371 0.685423 0.908783
O O13 0.836545 0.493769 0.423311
O O14 0.925084 0.960364 0.717678
O O15 0.445944 0.290956 0.047213
#
# Coordination Sequence:
#
# PCOD9554496 Si02
#       8
#    16  16  16  16  16   8  16  16
#     4  12  23  50  74 107 157 200 257 323 382 474
#     4  12  28  46  73 107 157 205 254 311 404 468
#     4  12  27  45  71 111 155 200 254 325 395 458
#     4  10  21  45  76 106 141 201 257 314 383 460
#     4  12  26  46  73 110 147 196 258 315 385 465
#     4   8  20  38  74 108 140 192 250 312 372 448
#     4  10  22  45  71 106 152 190 254 317 373 458
#     4  12  25  45  80 108 147 201 263 320 393 455
#
# _framework density 23.964801999999999
#
# number of rings (size 3 to 8) (size 9 to 14) (size 15 to 20)
#    0.800    0.000    5.333    1.600    1.867    1.067 
#    2.400    1.333    0.000    0.000    0.000    0.000 
#    0.000    0.000    0.000    0.000    0.000    0.000 
#
# Total GULP energy -334896.332176 kJ/mol
# GULP energy per Si atom -5581.605536 kJ/mol
# Density = 2.391026 g / cm^3
# Si number density = 23.964802 Si / 1000 Ang^3
#
#
#
# Elastic Constant Matrix: (Units=GPa)
#
#
# Indices 1 2 3 4 5 6 
#
# 1 75.0518 32.6417 29.7124 0.0000 0.0000 0.0000
# 2 32.6417 75.0518 29.7124 0.0000 0.0000 0.0000
# 3 29.7124 29.7124 69.0721 0.0000 0.0000 0.0000
# 4 0.0000 0.0000 0.0000 35.9263 0.0000 0.0000
# 5 0.0000 0.0000 0.0000 0.0000 35.9263 0.0000
# 6 0.0000 0.0000 0.0000 0.0000 0.0000 34.9546
#
#
#
# Elastic Compliance Matrix: (Units=1/GPa)
#
#
# Indices 1 2 3 4 5 6 
#
# 1 0.017877 -0.005702 -0.005238 0.000000 0.000000 0.000000
# 2 -0.005702 0.017877 -0.005238 0.000000 0.000000 0.000000
# 3 -0.005238 -0.005238 0.018984 0.000000 0.000000 0.000000
# 4 0.000000 0.000000 0.000000 0.027835 0.000000 0.000000
# 5 0.000000 0.000000 0.000000 0.000000 0.027835 0.000000
# 6 0.000000 0.000000 0.000000 0.000000 0.000000 0.028609
#
#
# Mechanical properties :
#
#
# Convention : Reuss Voigt Hill
#
# Bulk Modulus (GPa) = 44.67317 44.81206 44.74262
# Shear Modulus (GPa) = 27.95918 29.83537 28.89728
#
# Velocity S-wave (km/s) = 3.41937 3.53224 3.47626
# Velocity P-wave (km/s) = 5.85415 5.94771 5.90112
#
# Compressibility (1/GPa) = 0.02238480
#
# Stress axis : x y z
#
# Youngs Moduli (GPa) = 55.93630 55.93630 52.67690
#
# Poissons Ratio (x) = 0.31894 0.27590
# Poissons Ratio (y) = 0.31894 0.27590
# Poissons Ratio (z) = 0.29297 0.29297
#
# Static dielectric constant tensor:
#      x y z
#    x 1.988180 0.000000 0.000000 
#    y 0.000000 1.988180 0.000000 
#    z 0.000000 0.000000 1.965670 
# 
# From -- ./inp_files/1794.got.cif
#   From: 2010.05.17/outbox.cif.g08.bks.cpg/sg110_1_cif.got.tgz:1794.got - 2010.05.20 10:54:03.
