data_PCOD9554372
_publ_section_title
;
Structure prediction by ZEFSAII (Michael W. Deem and Ramdas Pophale) SiO2 
 PCOD9554372
Probable space group: I 41 C D
;
_chemical_formula_sum "Si O2"
_cell_formula_units_Z 72
_cell_length_a 17.035016
_cell_length_b 17.035016
_cell_length_c 12.222393
_cell_angle_alpha 90.000000
_cell_angle_beta 90.000000
_cell_angle_gamma 90.000000
_cell_volume 3546.837860
_symmetry_space_group_name_H-M "I 41 C D"
_symmetry_group_IT_number 110
_symmetry_cell_setting 'tetragonal'
loop_
_space_group_symop_operation_xyz
x,y,z
-y,1/2+x,1/4+z
-x,-y,z
y,1/2-x,1/4+z
-x,y,1/2+z
x,-y,1/2+z
1/2-y,-x,1/4+z
1/2+y,x,1/4+z
1/2+x,1/2+y,1/2+z
1/2-y,x,3/4+z
1/2-x,1/2-y,1/2+z
1/2+y,-x,3/4+z
1/2-x,1/2+y,z
1/2+x,1/2-y,z
-y,1/2-x,3/4+z
y,1/2+x,3/4+z
loop_
_atom_site_type_symbol
_atom_site_label
_atom_site_fract_x
_atom_site_fract_y
_atom_site_fract_z
Si Si1 0.588405 0.728801 0.731320
Si Si2 0.911595 0.271199 0.482598
Si Si3 0.500000 0.500000 0.231959
Si Si4 0.656042 0.075749 0.036361
Si Si5 0.075749 0.656042 0.927557
O O1 0.606099 0.750000 0.606959
O O2 0.496627 0.704326 0.736603
O O3 0.599286 0.797568 0.818420
O O4 0.640721 0.651223 0.753763
O O5 0.900714 0.202432 0.395498
O O6 0.859279 0.348777 0.460155
O O7 0.003373 0.295674 0.477315
O O8 0.459666 0.431551 0.303424
O O9 0.431551 0.540334 0.160494
#
# Coordination Sequence:
#
# PCOD9554372 Si02
#       5
#    16  16   8  16  16
#     4  10  19  36  56  80 110 144 182 226 276 329
#     4  10  19  36  56  80 110 144 182 226 276 329
#     4   8  16  36  58  80 108 146 188 228 274 328
#     4   9  19  35  56  81 110 141 183 227 271 331
#     4   9  19  35  56  81 110 141 183 227 271 331
#
# _framework density 20.299772000000001
#
# number of rings (size 3 to 8) (size 9 to 14) (size 15 to 20)
#    0.000    2.667    0.000    1.333    0.000    0.000 
#    0.000   55.556    0.000    0.000    0.000    0.000 
#    0.000    0.000    0.000    0.000    0.000    0.000 
#
# Total GULP energy -200516.699658 kJ/mol
# GULP energy per Si atom -5569.908324 kJ/mol
# Density = 2.025357 g / cm^3
# Si number density = 20.299772 Si / 1000 Ang^3
#
#
#
# Elastic Constant Matrix: (Units=GPa)
#
#
# Indices 1 2 3 4 5 6 
#
# 1 103.4589 68.5050 42.9068 0.0000 0.0000 0.0000
# 2 68.5050 103.4589 42.9068 0.0000 0.0000 0.0000
# 3 42.9068 42.9068 44.7117 0.0000 0.0000 0.0000
# 4 0.0000 0.0000 0.0000 26.3945 0.0000 0.0000
# 5 0.0000 0.0000 0.0000 0.0000 26.3945 0.0000
# 6 0.0000 0.0000 0.0000 0.0000 0.0000 24.1809
#
#
#
# Elastic Compliance Matrix: (Units=1/GPa)
#
#
# Indices 1 2 3 4 5 6 
#
# 1 0.019884 -0.008725 -0.010708 0.000000 0.000000 0.000000
# 2 -0.008725 0.019884 -0.010708 0.000000 0.000000 0.000000
# 3 -0.010708 -0.010708 0.042918 0.000000 0.000000 0.000000
# 4 0.000000 0.000000 0.000000 0.037887 0.000000 0.000000
# 5 0.000000 0.000000 0.000000 0.000000 0.037887 0.000000
# 6 0.000000 0.000000 0.000000 0.000000 0.000000 0.041355
#
#
# Mechanical properties :
#
#
# Convention : Reuss Voigt Hill
#
# Bulk Modulus (GPa) = 44.63910 62.25189 53.44550
# Shear Modulus (GPa) = 18.68699 21.88137 20.28418
#
# Velocity S-wave (km/s) = 3.03735 3.28672 3.16449
# Velocity P-wave (km/s) = 5.85989 6.71835 6.30375
#
# Compressibility (1/GPa) = 0.02240188
#
# Stress axis : x y z
#
# Youngs Moduli (GPa) = 50.29160 50.29160 23.30025
#
# Poissons Ratio (x) = 0.43880 0.24951
# Poissons Ratio (y) = 0.43880 0.24951
# Poissons Ratio (z) = 0.53855 0.53855
#
# Static dielectric constant tensor:
#      x y z
#    x 1.757560 0.000000 0.000000 
#    y 0.000000 1.757560 0.000000 
#    z 0.000000 0.000000 1.669070 
# 
# From -- ./inp_files/792.got.cif
#   From: 2010.05.17/outbox.cif.g08.bks.cpg/sg110_1_cif.got.tgz:792.got - 2010.05.20 10:54:03.
