data_PCOD9554302
_publ_section_title
;
Structure prediction by ZEFSAII (Michael W. Deem and Ramdas Pophale) SiO2 
 PCOD9554302
Probable space group: I 41 M D
;
_chemical_formula_sum "Si O2"
_cell_formula_units_Z 48
_cell_length_a 7.663778
_cell_length_b 7.663778
_cell_length_c 40.051293
_cell_angle_alpha 90.000000
_cell_angle_beta 90.000000
_cell_angle_gamma 90.000000
_cell_volume 2352.352346
_symmetry_space_group_name_H-M "I 41 M D"
_symmetry_group_IT_number 109
_symmetry_cell_setting 'tetragonal'
loop_
_space_group_symop_operation_xyz
x,y,z
-y,1/2+x,1/4+z
-x,-y,z
y,1/2-x,1/4+z
-x,y,z
x,-y,z
-y,1/2-x,1/4+z
y,1/2+x,1/4+z
1/2+x,1/2+y,1/2+z
1/2-y,x,3/4+z
1/2-x,1/2-y,1/2+z
1/2+y,-x,3/4+z
1/2-x,1/2+y,1/2+z
1/2+x,1/2-y,1/2+z
1/2-y,-x,3/4+z
1/2+y,x,3/4+z
loop_
_atom_site_type_symbol
_atom_site_label
_atom_site_fract_x
_atom_site_fract_y
_atom_site_fract_z
Si Si1 0.696921 0.791050 0.034410
Si Si2 0.799969 0.212951 0.357971
Si Si3 0.793544 0.000000 0.733522
Si Si4 0.000000 0.285958 0.907936
O O1 0.500000 0.724549 0.028297
O O2 0.761849 0.732136 0.070997
O O3 0.830364 0.754032 0.005014
O O4 0.685669 0.000000 0.037749
O O5 0.670247 0.268600 0.387069
O O6 0.000000 0.271685 0.362627
O O7 0.802861 0.000000 0.357558
O O8 0.721890 0.000000 0.695933
O O9 0.000000 0.000000 0.730208
O O10 0.000000 0.500000 0.908118
#
# Coordination Sequence:
#
# PCOD9554302 Si02
#       4
#    16  16   8   8
#     4   9  19  37  60  80 104 149 200 240 283 341
#     4   8  15  30  54  79 102 141 195 240 282 337
#     4  11  23  33  51  89 125 149 181 237 303 357
#     4   9  18  31  49  79 117 149 181 233 297 348
#
# _framework density 20.405104000000001
#
# number of rings (size 3 to 8) (size 9 to 14) (size 15 to 20)
#    0.000    3.000    0.000    2.500    2.333    2.000 
#    0.000    3.333    7.333    0.000    0.000    0.000 
#    0.000    0.000    0.000    0.000    0.000    0.000 
#
# Total GULP energy -133913.811296 kJ/mol
# GULP energy per Si atom -5579.742137 kJ/mol
# Density = 2.035866 g / cm^3
# Si number density = 20.405104 Si / 1000 Ang^3
#
#
#
# Elastic Constant Matrix: (Units=GPa)
#
#
# Indices 1 2 3 4 5 6 
#
# 1 76.5495 18.5528 68.9988 0.0000 0.0000 0.0000
# 2 18.5528 76.5495 68.9988 0.0000 0.0000 0.0000
# 3 68.9988 68.9988 235.9711 0.0000 0.0000 0.0000
# 4 0.0000 0.0000 0.0000 59.3787 0.0000 0.0000
# 5 0.0000 0.0000 0.0000 0.0000 59.3787 0.0000
# 6 0.0000 0.0000 0.0000 0.0000 0.0000 16.1652
#
#
#
# Elastic Compliance Matrix: (Units=1/GPa)
#
#
# Indices 1 2 3 4 5 6 
#
# 1 0.017753 0.000511 -0.005341 0.000000 0.000000 0.000000
# 2 0.000511 0.017753 -0.005341 0.000000 0.000000 0.000000
# 3 -0.005341 -0.005341 0.007361 0.000000 0.000000 0.000000
# 4 0.000000 0.000000 0.000000 0.016841 0.000000 0.000000
# 5 0.000000 0.000000 0.000000 0.000000 0.016841 0.000000
# 6 0.000000 0.000000 0.000000 0.000000 0.000000 0.061861
#
#
# Mechanical properties :
#
#
# Convention : Reuss Voigt Hill
#
# Bulk Modulus (GPa) = 44.39014 78.01901 61.20458
# Shear Modulus (GPa) = 30.07329 42.48582 36.27955
#
# Velocity S-wave (km/s) = 3.84319 4.56797 4.22117
# Velocity P-wave (km/s) = 6.44167 8.13264 7.33604
#
# Compressibility (1/GPa) = 0.02252752
#
# Stress axis : x y z
#
# Youngs Moduli (GPa) = 56.32725 56.32725 135.85073
#
# Poissons Ratio (x) = -0.02878 0.72552
# Poissons Ratio (y) = -0.02878 0.72552
# Poissons Ratio (z) = 0.30082 0.30082
#
# Static dielectric constant tensor:
#      x y z
#    x 1.724350 0.000000 0.000000 
#    y 0.000000 1.724350 0.000000 
#    z 0.000000 0.000000 1.729930 
# 
# From -- ./inp_files/5251.got.cif
#   From: 2010.05.17/outbox.cif.g08.bks.cpg/sg109_3_cif.got.tgz:5251.got - 2010.05.20 10:51:12.
