data_PCOD9554733
_publ_section_title
;
Structure prediction by ZEFSAII (Michael W. Deem and Ramdas Pophale) SiO2 
 PCOD9554733
Probable space group: P -4 2 M 
;
_chemical_formula_sum "Si O2"
_cell_formula_units_Z 52
_cell_length_a 18.186412
_cell_length_b 18.186412
_cell_length_c 9.006429
_cell_angle_alpha 90.000000
_cell_angle_beta 90.000000
_cell_angle_gamma 90.000000
_cell_volume 2978.836596
_symmetry_space_group_name_H-M "P -4 2 M "
_symmetry_group_IT_number 111
_symmetry_cell_setting 'tetragonal'
loop_
_space_group_symop_operation_xyz
x,y,z
y,-x,-z
-x,-y,z
-y,x,-z
x,-y,-z
-x,y,-z
-y,-x,z
y,x,z
loop_
_atom_site_type_symbol
_atom_site_label
_atom_site_fract_x
_atom_site_fract_y
_atom_site_fract_z
Si Si1 0.798977 0.320252 0.974136
Si Si2 0.000000 0.123287 0.000000
Si Si3 0.188029 0.617907 0.291643
Si Si4 0.421605 0.694365 0.523120
Si Si5 0.449053 0.825974 0.754118
Si Si6 0.652890 0.079725 0.559189
Si Si7 0.216743 0.904548 0.785480
O O1 0.723006 0.276995 0.940184
O O2 0.805474 0.400314 0.897162
O O3 0.862912 0.268925 0.905287
O O4 0.807283 0.330716 0.149280
O O5 0.972210 0.175359 0.865687
O O6 0.068843 0.068843 0.963694
O O7 0.266219 0.605391 0.372480
O O8 0.162798 0.536322 0.237712
O O9 0.135150 0.649578 0.419684
O O10 0.500000 0.656225 0.500000
O O11 0.360172 0.639829 0.578700
O O12 0.436644 0.759321 0.638809
O O13 0.408939 0.894156 0.675506
O O14 0.730224 0.079133 0.647102
O O15 0.635955 0.000000 0.500000
O O16 0.153990 0.846011 0.741601
#
# Coordination Sequence:
#
# PCOD9554733 Si02
#       7
#     8   4   8   8   8   8   8
#     4  10  19  32  53  79 104 134 173 223 266 308
#     4   9  18  36  62  82 103 138 174 212 263 328
#     4  10  20  32  51  76 102 138 178 218 262 319
#     4   9  17  30  48  70  98 132 171 214 260 313
#     4   9  19  35  50  70 103 141 178 212 264 319
#     4  10  21  35  53  75 105 140 174 217 263 314
#     4   9  20  36  55  80 108 135 169 211 263 314
#
# _framework density 17.456479000000002
#
# number of rings (size 3 to 8) (size 9 to 14) (size 15 to 20)
#    0.000    2.538    0.000    2.769    2.154    5.692 
#    0.000    0.769    0.000    1.846    0.000    0.000 
#    0.000   11.077    0.000    0.000    0.000    0.000 
#
# Total GULP energy -289711.956372 kJ/mol
# GULP energy per Si atom -5571.383776 kJ/mol
# Density = 1.741675 g / cm^3
# Si number density = 17.456479 Si / 1000 Ang^3
#
#
#
# Elastic Constant Matrix: (Units=GPa)
#
#
# Indices 1 2 3 4 5 6 
#
# 1 75.7207 37.9997 24.0318 0.0000 0.0000 0.0000
# 2 37.9997 75.7153 24.0303 0.0000 0.0000 0.0000
# 3 24.0318 24.0303 82.1244 0.0000 0.0000 0.0000
# 4 0.0000 0.0000 0.0000 16.9473 0.0000 0.0000
# 5 0.0000 0.0000 0.0000 0.0000 16.9492 0.0000
# 6 0.0000 0.0000 0.0000 0.0000 0.0000 7.6917
#
#
#
# Elastic Compliance Matrix: (Units=1/GPa)
#
#
# Indices 1 2 3 4 5 6 
#
# 1 0.018273 -0.008239 -0.002936 0.000000 0.000000 0.000000
# 2 -0.008239 0.018274 -0.002936 0.000000 0.000000 0.000000
# 3 -0.002936 -0.002936 0.013895 0.000000 0.000000 0.000000
# 4 0.000000 0.000000 0.000000 0.059007 0.000000 0.000000
# 5 0.000000 0.000000 0.000000 0.000000 0.059000 0.000000
# 6 0.000000 0.000000 0.000000 0.000000 0.000000 0.130011
#
#
# Mechanical properties :
#
#
# Convention : Reuss Voigt Hill
#
# Bulk Modulus (GPa) = 45.00614 45.07603 45.04109
# Shear Modulus (GPa) = 14.96608 18.15086 16.55847
#
# Velocity S-wave (km/s) = 2.93121 3.22806 3.08321
# Velocity P-wave (km/s) = 6.10687 6.30649 6.20748
#
# Compressibility (1/GPa) = 0.02221919
#
# Stress axis : x y z
#
# Youngs Moduli (GPa) = 54.72577 54.72217 71.96783
#
# Poissons Ratio (x) = 0.45085 0.21133
# Poissons Ratio (y) = 0.45087 0.21132
# Poissons Ratio (z) = 0.16070 0.16068
#
# Static dielectric constant tensor:
#      x y z
#    x 1.603260 0.000000 0.000000 
#    y 0.000000 1.603260 0.000000 
#    z 0.000000 0.000000 1.584950 
# 
# From -- ./inp_files/1827.got.cif
#   From: 2010.05.17/outbox.cif.g08.bks.cpg/sg111_1_cif.got.tgz:1827.got - 2010.05.20 10:56:05.
