data_PCOD9554663
_publ_section_title
;
Structure prediction by ZEFSAII (Michael W. Deem and Ramdas Pophale) SiO2 
 PCOD9554663
Probable space group: P -4 2 M 
;
_chemical_formula_sum "Si O2"
_cell_formula_units_Z 56
_cell_length_a 14.491286
_cell_length_b 14.491286
_cell_length_c 12.646871
_cell_angle_alpha 90.000000
_cell_angle_beta 90.000000
_cell_angle_gamma 90.000000
_cell_volume 2655.809648
_symmetry_space_group_name_H-M "P -4 2 M "
_symmetry_group_IT_number 111
_symmetry_cell_setting 'tetragonal'
loop_
_space_group_symop_operation_xyz
x,y,z
y,-x,-z
-x,-y,z
-y,x,-z
x,-y,-z
-x,y,-z
-y,-x,z
y,x,z
loop_
_atom_site_type_symbol
_atom_site_label
_atom_site_fract_x
_atom_site_fract_y
_atom_site_fract_z
Si Si1 0.210742 0.360925 0.701808
Si Si2 0.299224 0.550657 0.710987
Si Si3 0.248293 0.400949 0.055800
Si Si4 0.004105 0.151653 0.166342
Si Si5 0.189580 0.652647 0.534361
Si Si6 0.289737 0.130649 0.909317
Si Si7 0.945815 0.209420 0.607318
O O1 0.264640 0.264640 0.697379
O O2 0.286566 0.441343 0.717526
O O3 0.165990 0.374348 0.586041
O O4 0.146667 0.352722 0.804560
O O5 0.399663 0.600338 0.706345
O O6 0.251485 0.589341 0.817687
O O7 0.243348 0.580227 0.606537
O O8 0.335317 0.335317 0.026511
O O9 0.258477 0.500000 0.000000
O O10 0.157569 0.351198 0.009990
O O11 0.931035 0.068966 0.153476
O O12 0.965687 0.237072 0.100721
O O13 0.999154 0.188266 0.286699
O O14 0.104204 0.104204 0.144222
O O15 0.263036 0.736965 0.526455
O O16 0.100926 0.690827 0.596274
O O17 0.208384 0.208384 0.907697
O O18 0.863882 0.136118 0.612168
O O19 0.000000 0.192309 0.500000
#
# Coordination Sequence:
#
# PCOD9554663 Si02
#       7
#     8   8   8   8   8   8   8
#     4  10  18  30  50  74 106 146 186 234 291 348
#     4  10  20  33  50  73 104 145 196 242 281 335
#     4  10  19  32  51  79 110 147 196 246 296 347
#     4   9  17  29  49  80 113 142 179 234 292 347
#     4   9  19  33  48  71 104 144 186 228 276 339
#     4   9  17  30  49  77 112 148 186 229 286 353
#     4  10  18  29  49  78 110 141 176 222 281 350
#
# _framework density 21.085849
#
# number of rings (size 3 to 8) (size 9 to 14) (size 15 to 20)
#    0.000    2.429    1.429    1.714    0.000    3.429 
#    0.000    1.429    0.000    9.429    0.000    5.000 
#    0.000   16.000    0.000    0.429    0.000    0.000 
#
# Total GULP energy -312137.525443 kJ/mol
# GULP energy per Si atom -5573.884383 kJ/mol
# Density = 2.103786 g / cm^3
# Si number density = 21.085849 Si / 1000 Ang^3
#
#
#
# Elastic Constant Matrix: (Units=GPa)
#
#
# Indices 1 2 3 4 5 6 
#
# 1 31.6047 28.6857 19.2717 0.0000 0.0000 0.0000
# 2 28.6857 31.6060 19.2702 0.0000 0.0000 0.0000
# 3 19.2717 19.2702 86.2569 0.0000 0.0000 0.0000
# 4 0.0000 0.0000 0.0000 11.4794 0.0000 0.0000
# 5 0.0000 0.0000 0.0000 0.0000 11.4797 0.0000
# 6 0.0000 0.0000 0.0000 0.0000 0.0000 22.2480
#
#
#
# Elastic Compliance Matrix: (Units=1/GPa)
#
#
# Indices 1 2 3 4 5 6 
#
# 1 0.180933 -0.161577 -0.004327 0.000000 0.000000 0.000000
# 2 -0.161577 0.180920 -0.004319 0.000000 0.000000 0.000000
# 3 -0.004327 -0.004319 0.013525 0.000000 0.000000 0.000000
# 4 0.000000 0.000000 0.000000 0.087113 0.000000 0.000000
# 5 0.000000 0.000000 0.000000 0.000000 0.087111 0.000000
# 6 0.000000 0.000000 0.000000 0.000000 0.000000 0.044948
#
#
# Mechanical properties :
#
#
# Convention : Reuss Voigt Hill
#
# Bulk Modulus (GPa) = 28.62672 31.54699 30.08686
# Shear Modulus (GPa) = 5.28185 14.52408 9.90297
#
# Velocity S-wave (km/s) = 1.58441 2.62736 2.16949
# Velocity P-wave (km/s) = 4.11739 4.91912 4.53600
#
# Compressibility (1/GPa) = 0.03493240
#
# Stress axis : x y z
#
# Youngs Moduli (GPa) = 5.52691 5.52730 73.93762
#
# Poissons Ratio (x) = 0.89308 0.31995
# Poissons Ratio (y) = 0.89302 0.31931
# Poissons Ratio (z) = 0.02392 0.02387
#
# Static dielectric constant tensor:
#      x y z
#    x 1.786290 0.000000 0.000000 
#    y 0.000000 1.786290 0.000000 
#    z 0.000000 0.000000 1.759550 
# 
# From -- ./inp_files/2804.got.cif
#   From: 2010.05.17/outbox.cif.g08.bks.cpg/sg111_2_cif.got.tgz:2804.got - 2010.05.20 10:56:05.
