data_PCOD9554176
_publ_section_title
;
Structure prediction by ZEFSAII (Michael W. Deem and Ramdas Pophale) SiO2 
 PCOD9554176
Probable space group: I 41 M D
;
_chemical_formula_sum "Si O2"
_cell_formula_units_Z 112
_cell_length_a 13.790563
_cell_length_b 13.790563
_cell_length_c 26.425496
_cell_angle_alpha 90.000000
_cell_angle_beta 90.000000
_cell_angle_gamma 90.000000
_cell_volume 5025.590995
_symmetry_space_group_name_H-M "I 41 M D"
_symmetry_group_IT_number 109
_symmetry_cell_setting 'tetragonal'
loop_
_space_group_symop_operation_xyz
x,y,z
-y,1/2+x,1/4+z
-x,-y,z
y,1/2-x,1/4+z
-x,y,z
x,-y,z
-y,1/2-x,1/4+z
y,1/2+x,1/4+z
1/2+x,1/2+y,1/2+z
1/2-y,x,3/4+z
1/2-x,1/2-y,1/2+z
1/2+y,-x,3/4+z
1/2-x,1/2+y,1/2+z
1/2+x,1/2-y,1/2+z
1/2-y,-x,3/4+z
1/2+y,x,3/4+z
loop_
_atom_site_type_symbol
_atom_site_label
_atom_site_fract_x
_atom_site_fract_y
_atom_site_fract_z
Si Si1 0.768628 0.104411 0.268120
Si Si2 0.807494 0.610448 0.137115
Si Si3 0.611196 0.689843 0.170413
Si Si4 0.692407 0.314316 0.280473
Si Si5 0.198552 0.604841 0.432891
Si Si6 0.642623 0.609213 0.577494
Si Si7 0.362729 0.109925 0.115325
O O1 0.704437 0.197496 0.280924
O O2 0.825633 0.135324 0.217788
O O3 0.845181 0.095002 0.313817
O O4 0.719692 0.000000 0.261587
O O5 0.827745 0.500000 0.151669
O O6 0.692385 0.632665 0.138950
O O7 0.843416 0.633170 0.080291
O O8 0.853037 0.694648 0.172079
O O9 0.500000 0.665080 0.159265
O O10 0.639154 0.664969 0.228162
O O11 0.623256 0.805296 0.157110
O O12 0.801771 0.358041 0.287412
O O13 0.206599 0.500000 0.458278
O O14 0.147217 0.594200 0.378787
O O15 0.613834 0.500000 0.561655
O O16 0.751645 0.604313 0.598504
O O17 0.393309 0.000000 0.128259
#
# Coordination Sequence:
#
# PCOD9554176 Si02
#       7
#    16  16  16  16  16  16  16
#     4  11  20  34  61  97 138 172 201 240 301 382
#     4  11  24  46  68  90 122 164 217 276 330 372
#     4  12  23  40  63  91 123 163 216 269 320 374
#     4  10  21  41  61  93 126 167 205 263 320 374
#     4  11  22  38  64  98 134 171 210 252 308 379
#     4   9  18  36  61  89 128 170 207 250 305 372
#     4  10  20  36  58  90 134 176 207 242 302 382
#
# _framework density 22.285936
#
# number of rings (size 3 to 8) (size 9 to 14) (size 15 to 20)
#    0.000    1.429    5.714    1.714    0.000    5.714 
#    0.000    2.857    0.000    6.000    0.000    0.000 
#    0.000    0.000    0.000    0.000    0.000    0.000 
#
# Total GULP energy -312465.270784 kJ/mol
# GULP energy per Si atom -5579.736978 kJ/mol
# Density = 2.223521 g / cm^3
# Si number density = 22.285936 Si / 1000 Ang^3
#
#
#
# Elastic Constant Matrix: (Units=GPa)
#
#
# Indices 1 2 3 4 5 6 
#
# 1 64.7211 -11.7579 -15.2727 0.0000 0.0000 0.0000
# 2 -11.7579 64.7211 -15.2727 0.0000 0.0000 0.0000
# 3 -15.2727 -15.2727 90.4516 0.0000 0.0000 0.0000
# 4 0.0000 0.0000 0.0000 -3.5161 0.0000 0.0000
# 5 0.0000 0.0000 0.0000 0.0000 -3.5161 0.0000
# 6 0.0000 0.0000 0.0000 0.0000 0.0000 -12.0357
#
#
#
# Elastic Compliance Matrix: (Units=1/GPa)
#
#
# Indices 1 2 3 4 5 6 
#
# 1 0.016997 0.003921 0.003532 0.000000 0.000000 0.000000
# 2 0.003921 0.016997 0.003532 0.000000 0.000000 0.000000
# 3 0.003532 0.003532 0.012248 0.000000 0.000000 0.000000
# 4 0.000000 0.000000 0.000000 -0.284409 0.000000 0.000000
# 5 0.000000 0.000000 0.000000 0.000000 -0.284409 0.000000
# 6 0.000000 0.000000 0.000000 0.000000 0.000000 -0.083086
#
#
# Mechanical properties :
#
#
# Convention : Reuss Voigt Hill
#
# Bulk Modulus (GPa) = 14.66010 15.03193 14.84602
# Shear Modulus (GPa) = -8.26590 13.66622 2.70016
#
# Velocity S-wave (km/s) = -1.92797 2.47902 1.10192
# Velocity P-wave (km/s) = 1.27921 3.86700 2.88011
#
# Compressibility (1/GPa) = 0.06821236
#
# Stress axis : x y z
#
# Youngs Moduli (GPa) = 58.83476 58.83476 81.64340
#
# Poissons Ratio (x) = -0.23071 -0.28836
# Poissons Ratio (y) = -0.23071 -0.28836
# Poissons Ratio (z) = -0.20780 -0.20780
#
# Static dielectric constant tensor:
#      x y z
#    x 1.918880 0.000000 0.000000 
#    y 0.000000 1.918880 0.000000 
#    z 0.000000 0.000000 1.842280 
# 
# From -- ./inp_files/5066.got.cif
#   From: 2010.05.17/outbox.cif.g08.bks.cpg/sg109_3_cif.got.tgz:5066.got - 2010.05.20 10:51:12.
