data_PCOD9554071
_publ_section_title
;
Structure prediction by ZEFSAII (Michael W. Deem and Ramdas Pophale) SiO2 
 PCOD9554071
Probable space group: I 41 M D
;
_chemical_formula_sum "Si O2"
_cell_formula_units_Z 80
_cell_length_a 21.162105
_cell_length_b 21.162105
_cell_length_c 7.491486
_cell_angle_alpha 90.000000
_cell_angle_beta 90.000000
_cell_angle_gamma 90.000000
_cell_volume 3354.947296
_symmetry_space_group_name_H-M "I 41 M D"
_symmetry_group_IT_number 109
_symmetry_cell_setting 'tetragonal'
loop_
_space_group_symop_operation_xyz
x,y,z
-y,1/2+x,1/4+z
-x,-y,z
y,1/2-x,1/4+z
-x,y,z
x,-y,z
-y,1/2-x,1/4+z
y,1/2+x,1/4+z
1/2+x,1/2+y,1/2+z
1/2-y,x,3/4+z
1/2-x,1/2-y,1/2+z
1/2+y,-x,3/4+z
1/2-x,1/2+y,1/2+z
1/2+x,1/2-y,1/2+z
1/2-y,-x,3/4+z
1/2+y,x,3/4+z
loop_
_atom_site_type_symbol
_atom_site_label
_atom_site_fract_x
_atom_site_fract_y
_atom_site_fract_z
Si Si1 0.000000 0.927830 0.488621
Si Si2 0.571918 0.000000 0.666825
Si Si3 0.667782 0.112549 0.722439
Si Si4 0.756183 0.835650 0.411840
Si Si5 0.927820 0.296445 0.130153
Si Si6 0.926099 0.640510 0.730059
O O1 0.069334 0.900015 0.448064
O O2 0.000000 0.932105 0.702944
O O3 0.000000 0.000000 0.419071
O O4 0.613534 0.939962 0.717246
O O5 0.500000 0.000000 0.735440
O O6 0.706223 0.127851 0.539853
O O7 0.628041 0.175777 0.748592
O O8 0.723427 0.088594 0.848479
O O9 0.797048 0.783790 0.519705
O O10 0.807762 0.888549 0.369813
O O11 0.923721 0.334877 0.938364
O O12 0.000000 0.304305 0.192114
O O13 0.000000 0.639496 0.685650
#
# Coordination Sequence:
#
# PCOD9554071 Si02
#       6
#     8   8  16  16  16  16
#     4   9  14  24  42  68  99 131 162 215 272 312
#     4  11  18  26  42  70 103 136 172 221 280 319
#     4  11  18  28  44  68 103 138 170 216 269 330
#     4  11  21  35  51  78 109 146 180 216 271 328
#     4  10  18  28  41  66 102 134 173 213 269 330
#     4   9  17  28  46  75 105 132 174 222 270 317
#
# _framework density 23.845383999999999
#
# number of rings (size 3 to 8) (size 9 to 14) (size 15 to 20)
#    0.000    1.800    7.000    0.600    1.400    0.000 
#    1.800    0.000    0.000    0.000    7.800    0.000 
#    0.000    1.600    0.000    0.000    0.000    0.000 
#
# Total GULP energy -223390.070848 kJ/mol
# GULP energy per Si atom -5584.751771 kJ/mol
# Density = 2.379111 g / cm^3
# Si number density = 23.845384 Si / 1000 Ang^3
#
#
#
# Elastic Constant Matrix: (Units=GPa)
#
#
# Indices 1 2 3 4 5 6 
#
# 1 174.4911 72.6508 11.9886 0.0000 0.0000 0.0000
# 2 72.6508 174.4911 11.9886 0.0000 0.0000 0.0000
# 3 11.9886 11.9886 45.3787 0.0000 0.0000 0.0000
# 4 0.0000 0.0000 0.0000 -15.3859 0.0000 0.0000
# 5 0.0000 0.0000 0.0000 0.0000 -15.3859 0.0000
# 6 0.0000 0.0000 0.0000 0.0000 0.0000 51.6975
#
#
#
# Elastic Compliance Matrix: (Units=1/GPa)
#
#
# Indices 1 2 3 4 5 6 
#
# 1 0.006986 -0.002833 -0.001097 0.000000 0.000000 0.000000
# 2 -0.002833 0.006986 -0.001097 0.000000 0.000000 0.000000
# 3 -0.001097 -0.001097 0.022616 0.000000 0.000000 0.000000
# 4 0.000000 0.000000 0.000000 -0.064995 0.000000 0.000000
# 5 0.000000 0.000000 0.000000 0.000000 -0.064995 0.000000
# 6 0.000000 0.000000 0.000000 0.000000 0.000000 0.019343
#
#
# Mechanical properties :
#
#
# Convention : Reuss Voigt Hill
#
# Bulk Modulus (GPa) = 37.68825 65.29077 51.48951
# Shear Modulus (GPa) = -90.64848 24.03400 -33.30724
#
# Velocity S-wave (km/s) = -6.17233 3.17820 -3.74143
# Velocity P-wave (km/s) = 5.91247 6.39596 1.72497
#
# Compressibility (1/GPa) = 0.02653347
#
# Stress axis : x y z
#
# Youngs Moduli (GPa) = 143.14349 143.14349 44.21555
#
# Poissons Ratio (x) = 0.40557 0.04851
# Poissons Ratio (y) = 0.40557 0.04851
# Poissons Ratio (z) = 0.15704 0.15704
#
# Static dielectric constant tensor:
#      x y z
#    x 1.934540 0.000000 0.000000 
#    y 0.000000 1.934540 0.000000 
#    z 0.000000 0.000000 2.004330 
# 
# From -- ./inp_files/2598.got.cif
#   From: 2010.05.17/outbox.cif.g08.bks.cpg/sg109_2_cif.got.tgz:2598.got - 2010.05.20 10:51:12.
