data_PCOD9554127
_publ_section_title
;
Structure prediction by ZEFSAII (Michael W. Deem and Ramdas Pophale) SiO2 
 PCOD9554127
Probable space group: I 41 M D
;
_chemical_formula_sum "Si O2"
_cell_formula_units_Z 64
_cell_length_a 19.829225
_cell_length_b 19.829225
_cell_length_c 7.147258
_cell_angle_alpha 90.000000
_cell_angle_beta 90.000000
_cell_angle_gamma 90.000000
_cell_volume 2810.288724
_symmetry_space_group_name_H-M "I 41 M D"
_symmetry_group_IT_number 109
_symmetry_cell_setting 'tetragonal'
loop_
_space_group_symop_operation_xyz
x,y,z
-y,1/2+x,1/4+z
-x,-y,z
y,1/2-x,1/4+z
-x,y,z
x,-y,z
-y,1/2-x,1/4+z
y,1/2+x,1/4+z
1/2+x,1/2+y,1/2+z
1/2-y,x,3/4+z
1/2-x,1/2-y,1/2+z
1/2+y,-x,3/4+z
1/2-x,1/2+y,1/2+z
1/2+x,1/2-y,1/2+z
1/2-y,-x,3/4+z
1/2+y,x,3/4+z
loop_
_atom_site_type_symbol
_atom_site_label
_atom_site_fract_x
_atom_site_fract_y
_atom_site_fract_z
Si Si1 0.075606 0.133196 0.494330
Si Si2 0.168949 0.244490 0.591720
Si Si3 0.323679 0.879070 0.851346
Si Si4 0.423589 0.169507 0.539546
O O1 0.098071 0.208312 0.564442
O O2 0.224428 0.188675 0.538145
O O3 0.081106 0.139257 0.270029
O O4 0.000000 0.115958 0.551152
O O5 0.179874 0.304596 0.445028
O O6 0.085466 0.368070 0.838844
O O7 0.370085 0.869441 0.670895
O O8 0.249887 0.909474 0.810467
O O9 0.500000 0.158757 0.603261
#
# Coordination Sequence:
#
# PCOD9554127 Si02
#       4
#    16  16  16  16
#     4  11  26  44  69 105 148 193 242 295 366 444
#     4  10  19  35  65  97 133 175 222 293 359 407
#     4  11  24  44  76 107 147 184 244 310 373 430
#     4  12  28  47  74 111 147 193 249 304 367 443
#
# _framework density 22.773461000000001
#
# number of rings (size 3 to 8) (size 9 to 14) (size 15 to 20)
#    0.000    1.000    5.000    2.250    7.000    3.500 
#    0.000    0.000    0.000    0.000    0.000    0.000 
#    0.000    0.000    0.000    0.000    0.000    0.000 
#
# Total GULP energy -178696.964554 kJ/mol
# GULP energy per Si atom -5584.280142 kJ/mol
# Density = 2.272163 g / cm^3
# Si number density = 22.773461 Si / 1000 Ang^3
#
#
#
# Elastic Constant Matrix: (Units=GPa)
#
#
# Indices 1 2 3 4 5 6 
#
# 1 111.6123 16.7799 23.5781 0.0000 0.0000 0.0000
# 2 16.7799 111.6123 23.5781 0.0000 0.0000 0.0000
# 3 23.5781 23.5781 92.9344 0.0000 0.0000 0.0000
# 4 0.0000 0.0000 0.0000 22.5729 0.0000 0.0000
# 5 0.0000 0.0000 0.0000 0.0000 22.5729 0.0000
# 6 0.0000 0.0000 0.0000 0.0000 0.0000 8.7443
#
#
#
# Elastic Compliance Matrix: (Units=1/GPa)
#
#
# Indices 1 2 3 4 5 6 
#
# 1 0.009567 -0.000978 -0.002179 0.000000 0.000000 0.000000
# 2 -0.000978 0.009567 -0.002179 0.000000 0.000000 0.000000
# 3 -0.002179 -0.002179 0.011866 0.000000 0.000000 0.000000
# 4 0.000000 0.000000 0.000000 0.044301 0.000000 0.000000
# 5 0.000000 0.000000 0.000000 0.000000 0.044301 0.000000
# 6 0.000000 0.000000 0.000000 0.000000 0.000000 0.114361
#
#
# Mechanical properties :
#
#
# Convention : Reuss Voigt Hill
#
# Bulk Modulus (GPa) = 49.19421 49.33680 49.26550
# Shear Modulus (GPa) = 19.88779 27.59288 23.74033
#
# Velocity S-wave (km/s) = 2.95835 3.48462 3.23221
# Velocity P-wave (km/s) = 5.77214 6.15640 5.96736
#
# Compressibility (1/GPa) = 0.02032760
#
# Stress axis : x y z
#
# Youngs Moduli (GPa) = 104.52659 104.52659 84.27462
#
# Poissons Ratio (x) = 0.10222 0.18364
# Poissons Ratio (y) = 0.10222 0.18364
# Poissons Ratio (z) = 0.22777 0.22777
#
# Static dielectric constant tensor:
#      x y z
#    x 1.854700 0.000000 0.000000 
#    y 0.000000 1.854700 0.000000 
#    z 0.000000 0.000000 1.971870 
# 
# From -- ./inp_files/1208.got.cif
#   From: 2010.05.17/outbox.cif.g08.bks.cpg/sg109_1_cif.got.tgz:1208.got - 2010.05.20 10:51:12.
