data_PCOD9554337
_publ_section_title
;
Structure prediction by ZEFSAII (Michael W. Deem and Ramdas Pophale) SiO2 
 PCOD9554337
Probable space group: I 41 C D
;
_chemical_formula_sum "Si O2"
_cell_formula_units_Z 80
_cell_length_a 24.057156
_cell_length_b 24.057156
_cell_length_c 5.604997
_cell_angle_alpha 90.000000
_cell_angle_beta 90.000000
_cell_angle_gamma 90.000000
_cell_volume 3243.873824
_symmetry_space_group_name_H-M "I 41 C D"
_symmetry_group_IT_number 110
_symmetry_cell_setting 'tetragonal'
loop_
_space_group_symop_operation_xyz
x,y,z
-y,1/2+x,1/4+z
-x,-y,z
y,1/2-x,1/4+z
-x,y,1/2+z
x,-y,1/2+z
1/2-y,-x,1/4+z
1/2+y,x,1/4+z
1/2+x,1/2+y,1/2+z
1/2-y,x,3/4+z
1/2-x,1/2-y,1/2+z
1/2+y,-x,3/4+z
1/2-x,1/2+y,z
1/2+x,1/2-y,z
-y,1/2-x,3/4+z
y,1/2+x,3/4+z
loop_
_atom_site_type_symbol
_atom_site_label
_atom_site_fract_x
_atom_site_fract_y
_atom_site_fract_z
Si Si1 0.180998 0.113878 0.539330
Si Si2 0.527525 0.733797 0.255458
Si Si3 0.604427 0.503647 0.000539
Si Si4 0.611058 0.014604 0.448151
Si Si5 0.379890 0.858819 0.297330
O O1 0.242382 0.088235 0.557943
O O2 0.141454 0.058948 0.508539
O O3 0.175080 0.141168 0.278000
O O4 0.160899 0.141220 0.787125
O O5 0.492400 0.752028 0.490168
O O6 0.520825 0.667686 0.232545
O O7 0.573678 0.500466 0.250616
O O8 0.642410 0.447495 0.009793
O O9 0.627886 0.077482 0.382631
O O10 0.584191 0.989817 0.209547
#
# Coordination Sequence:
#
# PCOD9554337 Si02
#       5
#    16  16  16  16  16
#     4  10  17  28  48  69  88 115 166 223 256 283
#     4  10  18  30  48  71  94 120 164 210 256 311
#     4   8  14  23  39  59  78 102 143 198 243 266
#     4  10  21  34  47  65  97 137 169 198 257 326
#     4  10  18  29  46  66  91 124 164 211 260 299
#
# _framework density 24.661871999999999
#
# number of rings (size 3 to 8) (size 9 to 14) (size 15 to 20)
#    0.000    2.400    0.000    6.000    0.000    0.000 
#    0.000    0.000    0.000   32.400    0.000    0.000 
#    0.000    0.000    0.000    0.000    0.000 1480.000 
#
# Total GULP energy -222991.769234 kJ/mol
# GULP energy per Si atom -5574.794231 kJ/mol
# Density = 2.460574 g / cm^3
# Si number density = 24.661872 Si / 1000 Ang^3
#
#
#
# Elastic Constant Matrix: (Units=GPa)
#
#
# Indices 1 2 3 4 5 6 
#
# 1 41.6967 8.5515 22.0582 0.0000 0.0000 0.0000
# 2 8.5515 41.6967 22.0582 0.0000 0.0000 0.0000
# 3 22.0582 22.0582 327.5517 0.0000 0.0000 0.0000
# 4 0.0000 0.0000 0.0000 20.0219 0.0000 0.0000
# 5 0.0000 0.0000 0.0000 0.0000 20.0219 0.0000
# 6 0.0000 0.0000 0.0000 0.0000 0.0000 1.9871
#
#
#
# Elastic Compliance Matrix: (Units=1/GPa)
#
#
# Indices 1 2 3 4 5 6 
#
# 1 0.025661 -0.004509 -0.001424 0.000000 0.000000 0.000000
# 2 -0.004509 0.025661 -0.001424 0.000000 0.000000 0.000000
# 3 -0.001424 -0.001424 0.003245 0.000000 0.000000 0.000000
# 4 0.000000 0.000000 0.000000 0.049945 0.000000 0.000000
# 5 0.000000 0.000000 0.000000 0.000000 0.049945 0.000000
# 6 0.000000 0.000000 0.000000 0.000000 0.000000 0.503244
#
#
# Mechanical properties :
#
#
# Convention : Reuss Voigt Hill
#
# Bulk Modulus (GPa) = 25.09365 57.36453 41.22909
# Shear Modulus (GPa) = 7.29180 32.29134 19.79157
#
# Velocity S-wave (km/s) = 1.72137 3.62244 2.83595
# Velocity P-wave (km/s) = 3.76138 6.38803 5.24190
#
# Compressibility (1/GPa) = 0.03985073
#
# Stress axis : x y z
#
# Youngs Moduli (GPa) = 38.96962 38.96962 308.18529
#
# Poissons Ratio (x) = 0.17572 0.43898
# Poissons Ratio (y) = 0.17572 0.43898
# Poissons Ratio (z) = 0.05551 0.05551
#
# Static dielectric constant tensor:
#      x y z
#    x 2.009420 0.000000 0.000000 
#    y 0.000000 2.009420 0.000000 
#    z 0.000000 0.000000 2.088420 
# 
# From -- ./inp_files/126.got.cif
#   From: 2010.05.17/outbox.cif.g08.bks.cpg/sg110_1_cif.got.tgz:126.got - 2010.05.20 10:54:03.
