data_PCOD9554960
_publ_section_title
;
Structure prediction by ZEFSAII (Michael W. Deem and Ramdas Pophale) SiO2 
 PCOD9554960
Probable space group: P -4 2 C
;
_chemical_formula_sum "Si O2"
_cell_formula_units_Z 56
_cell_length_a 12.390921
_cell_length_b 12.390921
_cell_length_c 22.973630
_cell_angle_alpha 90.000000
_cell_angle_beta 90.000000
_cell_angle_gamma 90.000000
_cell_volume 3527.254518
_symmetry_space_group_name_H-M "P -4 2 C"
_symmetry_group_IT_number 112
_symmetry_cell_setting 'tetragonal'
loop_
_space_group_symop_operation_xyz
x,y,z
y,-x,-z
-x,-y,z
-y,x,-z
x,-y,1/2-z
-x,y,1/2-z
-y,-x,1/2+z
y,x,1/2+z
loop_
_atom_site_type_symbol
_atom_site_label
_atom_site_fract_x
_atom_site_fract_y
_atom_site_fract_z
Si Si1 0.995625 0.875860 0.594073
Si Si2 0.622489 0.493813 0.593787
Si Si3 0.288085 0.390177 0.482090
Si Si4 0.887997 0.552877 0.002083
Si Si5 0.320730 0.992500 0.181586
Si Si6 0.845522 0.502453 0.864681
Si Si7 0.197120 0.158932 0.505429
O O1 0.883817 0.857250 0.559019
O O2 0.005553 0.788467 0.644871
O O3 0.092642 0.853768 0.548228
O O4 0.000000 0.000000 0.613324
O O5 0.500000 0.500000 0.614169
O O6 0.644013 0.574972 0.539489
O O7 0.637523 0.374201 0.567140
O O8 0.718064 0.515169 0.638571
O O9 0.211275 0.490959 0.468081
O O10 0.214234 0.286187 0.494232
O O11 0.000000 0.500000 0.020328
O O12 0.872358 0.525537 0.933035
O O13 0.884877 0.680544 0.012473
O O14 0.391998 0.886177 0.168733
O O15 0.302250 0.000000 0.250000
O O16 0.400206 0.087396 0.158120
#
# Coordination Sequence:
#
# PCOD9554960 Si02
#       7
#     8   8   8   8   8   8   8
#     4  12  23  36  54  79 107 148 174 220 292 330
#     4  11  17  29  44  76 115 145 177 211 266 329
#     4  11  18  27  44  69 110 153 179 210 259 328
#     4  11  19  29  50  75 111 148 184 217 266 334
#     4  11  22  39  59  77 104 139 195 241 269 317
#     4  10  18  33  53  80 101 142 185 229 270 309
#     4  12  19  35  49  77 116 144 177 221 267 346
#
# _framework density 15.876372
#
# number of rings (size 3 to 8) (size 9 to 14) (size 15 to 20)
#    0.000    0.857    8.571    3.429    0.000    0.286 
#    0.000    0.000    0.000    1.714    0.000    0.000 
#    0.000    0.000    0.286    0.000    0.000    0.000 
#
# Total GULP energy -312501.138893 kJ/mol
# GULP energy per Si atom -5580.377480 kJ/mol
# Density = 1.584024 g / cm^3
# Si number density = 15.876372 Si / 1000 Ang^3
#
#
#
# Elastic Constant Matrix: (Units=GPa)
#
#
# Indices 1 2 3 4 5 6 
#
# 1 112.8490 20.0616 22.6063 0.0000 0.0000 0.0000
# 2 20.0616 112.8490 22.6063 0.0000 0.0000 0.0000
# 3 22.6063 22.6063 54.7100 0.0000 0.0000 0.0000
# 4 0.0000 0.0000 0.0000 8.3793 0.0000 0.0000
# 5 0.0000 0.0000 0.0000 0.0000 8.3793 0.0000
# 6 0.0000 0.0000 0.0000 0.0000 0.0000 25.1135
#
#
#
# Elastic Compliance Matrix: (Units=1/GPa)
#
#
# Indices 1 2 3 4 5 6 
#
# 1 0.009766 -0.001011 -0.003617 0.000000 0.000000 0.000000
# 2 -0.001011 0.009766 -0.003617 0.000000 0.000000 0.000000
# 3 -0.003617 -0.003617 0.021268 0.000000 0.000000 0.000000
# 4 0.000000 0.000000 0.000000 0.119342 0.000000 0.000000
# 5 0.000000 0.000000 0.000000 0.000000 0.119342 0.000000
# 6 0.000000 0.000000 0.000000 0.000000 0.000000 0.039819
#
#
# Mechanical properties :
#
#
# Convention : Reuss Voigt Hill
#
# Bulk Modulus (GPa) = 41.14041 45.66183 43.40112
# Shear Modulus (GPa) = 14.53926 22.71667 18.62797
#
# Velocity S-wave (km/s) = 3.02947 3.78676 3.42908
# Velocity P-wave (km/s) = 6.18111 6.92407 6.56311
#
# Compressibility (1/GPa) = 0.02430700
#
# Stress axis : x y z
#
# Youngs Moduli (GPa) = 102.39761 102.39761 47.01988
#
# Poissons Ratio (x) = 0.10357 0.17009
# Poissons Ratio (y) = 0.10357 0.17009
# Poissons Ratio (z) = 0.37041 0.37041
#
# Static dielectric constant tensor:
#      x y z
#    x 1.559640 0.000000 0.000000 
#    y 0.000000 1.559640 0.000000 
#    z 0.000000 0.000000 1.514020 
# 
# From -- ./inp_files/5543.got.cif
#   From: 2010.05.17/outbox.cif.g08.bks.cpg/sg112_3_cif.got.tgz:5543.got - 2010.05.20 10:59:04.
