data_PCOD9554001
_publ_section_title
;
Structure prediction by ZEFSAII (Michael W. Deem and Ramdas Pophale) SiO2 
 PCOD9554001
Probable space group: I 4 C M
;
_chemical_formula_sum "Si O2"
_cell_formula_units_Z 96
_cell_length_a 23.710680
_cell_length_b 23.710680
_cell_length_c 8.427844
_cell_angle_alpha 90.000000
_cell_angle_beta 90.000000
_cell_angle_gamma 90.000000
_cell_volume 4738.103102
_symmetry_space_group_name_H-M "I 4 C M"
_symmetry_group_IT_number 108
_symmetry_cell_setting 'tetragonal'
loop_
_space_group_symop_operation_xyz
x,y,z
-y,x,z
-x,-y,z
y,-x,z
-x,y,1/2+z
x,-y,1/2+z
-y,-x,1/2+z
y,x,1/2+z
1/2+x,1/2+y,1/2+z
1/2-y,1/2+x,1/2+z
1/2-x,1/2-y,1/2+z
1/2+y,1/2-x,1/2+z
1/2-x,1/2+y,z
1/2+x,1/2-y,z
1/2-y,1/2-x,z
1/2+y,1/2+x,z
loop_
_atom_site_type_symbol
_atom_site_label
_atom_site_fract_x
_atom_site_fract_y
_atom_site_fract_z
Si Si1 0.176834 0.676834 0.070398
Si Si2 0.204928 0.295073 0.204977
Si Si3 0.508585 0.750943 0.637446
Si Si4 0.126208 0.803803 0.743468
Si Si5 0.408106 0.908106 0.400643
Si Si6 0.613363 0.290271 0.622108
Si Si7 0.989086 0.333801 0.385605
Si Si8 0.121807 0.378194 0.035827
O O1 0.230606 0.647062 0.154315
O O2 0.196562 0.696562 0.894313
O O3 0.130685 0.630685 0.015366
O O4 0.178941 0.233948 0.179398
O O5 0.167181 0.332820 0.090065
O O6 0.567738 0.719599 0.668584
O O7 0.451314 0.718159 0.672544
O O8 0.505296 0.814901 0.708399
O O9 0.500965 0.770947 0.456170
O O10 0.152295 0.863980 0.700920
O O11 0.118643 0.797298 0.931756
O O12 0.470605 0.885689 0.430606
O O13 0.398405 0.898405 0.211326
O O14 0.926533 0.350887 0.429051
#
# Coordination Sequence:
#
# PCOD9554001 Si02
#       8
#     8   8  16  16   8  16  16   8
#     4   9  17  36  58  86 124 162 198 253 317 375
#     4   9  17  35  59  86 127 157 198 256 317 372
#     4  12  23  43  64  92 127 168 214 259 322 386
#     4  11  23  39  62  93 127 166 208 263 319 384
#     4  11  20  39  60  86 128 166 217 275 314 364
#     4  11  24  38  63  94 128 165 209 262 319 386
#     4  12  23  40  66  89 124 176 219 263 318 367
#     4  11  22  38  61  90 121 171 221 270 314 373
#
# _framework density 20.261272999999999
#
# number of rings (size 3 to 8) (size 9 to 14) (size 15 to 20)
#    0.000    1.000    6.667    1.500    2.333    1.667 
#    0.000    0.833    0.000    0.500    0.000    2.333 
#    0.000    0.000    0.000    0.000    0.000    0.000 
#
# Total GULP energy -267287.664235 kJ/mol
# GULP energy per Si atom -5568.493005 kJ/mol
# Density = 2.021516 g / cm^3
# Si number density = 20.261273 Si / 1000 Ang^3
#
#
#
# Elastic Constant Matrix: (Units=GPa)
#
#
# Indices 1 2 3 4 5 6 
#
# 1 49.1463 94.1711 22.2340 0.0000 0.0000 0.0756
# 2 94.1711 49.1463 22.2340 0.0000 0.0000 -0.0756
# 3 22.2340 22.2340 22.7137 0.0000 0.0000 0.0000
# 4 0.0000 0.0000 0.0000 25.6938 0.0000 0.0000
# 5 0.0000 0.0000 0.0000 0.0000 25.6938 0.0000
# 6 0.0756 -0.0756 0.0000 0.0000 0.0000 -11.9125
#
#
#
# Elastic Compliance Matrix: (Units=1/GPa)
#
#
# Indices 1 2 3 4 5 6 
#
# 1 -0.006095 0.016116 -0.009810 0.000000 0.000000 -0.000141
# 2 0.016116 -0.006095 -0.009810 0.000000 0.000000 0.000141
# 3 -0.009810 -0.009810 0.063231 0.000000 0.000000 0.000000
# 4 0.000000 0.000000 0.000000 0.038920 0.000000 0.000000
# 5 0.000000 0.000000 0.000000 0.000000 0.038920 0.000000
# 6 -0.000141 0.000141 0.000000 0.000000 0.000000 -0.083948
#
#
# Mechanical properties :
#
#
# Convention : Reuss Voigt Hill
#
# Bulk Modulus (GPa) = 22.70905 44.25385 33.48145
# Shear Modulus (GPa) = 75.05303 6.71950 40.88627
#
# Velocity S-wave (km/s) = 6.09287 1.82308 4.49703
# Velocity P-wave (km/s) = 7.79293 5.13035 6.59736
#
# Compressibility (1/GPa) = 0.04403530
#
# Stress axis : x y z
#
# Youngs Moduli (GPa) = -164.07936 -164.07936 15.81495
#
# Poissons Ratio (x) = 2.64427 0.15514
# Poissons Ratio (y) = 2.64427 0.15514
# Poissons Ratio (z) = -1.60955 -1.60955
#
# Static dielectric constant tensor:
#      x y z
#    x 1.699800 0.000000 0.000000 
#    y 0.000000 1.699800 0.000000 
#    z 0.000000 0.000000 1.804900 
# 
# From -- ./inp_files/828.got.cif
#   From: 2010.05.17/outbox.cif.g08.bks.cpg/sg108_1_cif.got.tgz:828.got - 2010.05.20 10:49:05.
