data_PCOD9554723
_publ_section_title
;
Structure prediction by ZEFSAII (Michael W. Deem and Ramdas Pophale) SiO2 
 PCOD9554723
Probable space group: P -4 2 M 
;
_chemical_formula_sum "Si O2"
_cell_formula_units_Z 32
_cell_length_a 14.642236
_cell_length_b 14.642236
_cell_length_c 7.091707
_cell_angle_alpha 90.000000
_cell_angle_beta 90.000000
_cell_angle_gamma 90.000000
_cell_volume 1520.427055
_symmetry_space_group_name_H-M "P -4 2 M "
_symmetry_group_IT_number 111
_symmetry_cell_setting 'tetragonal'
loop_
_space_group_symop_operation_xyz
x,y,z
y,-x,-z
-x,-y,z
-y,x,-z
x,-y,-z
-x,y,-z
-y,-x,z
y,x,z
loop_
_atom_site_type_symbol
_atom_site_label
_atom_site_fract_x
_atom_site_fract_y
_atom_site_fract_z
Si Si1 0.395079 0.013824 0.772473
Si Si2 0.679932 0.461895 0.695487
Si Si3 0.317498 0.825509 0.730233
Si Si4 0.638547 0.783330 0.828582
O O1 0.368076 0.117721 0.733655
O O2 0.500000 0.000000 0.715022
O O3 0.333241 0.931919 0.694180
O O4 0.393209 0.000000 0.000000
O O5 0.642499 0.500000 0.500000
O O6 0.601729 0.398272 0.788987
O O7 0.762127 0.393993 0.634923
O O8 0.725305 0.545604 0.806929
O O9 0.218823 0.781178 0.693638
O O10 0.341815 0.805295 0.951248
O O11 0.721226 0.721226 0.757837
#
# Coordination Sequence:
#
# PCOD9554723 Si02
#       4
#     8   8   8   8
#     4   9  15  28  51  73  96 122 155 202 245 272
#     4  11  22  34  47  66  98 134 161 192 239 284
#     4   9  18  33  53  73  93 124 166 201 233 281
#     4  10  19  32  52  74  95 125 165 200 232 282
#
# _framework density 21.046719
#
# number of rings (size 3 to 8) (size 9 to 14) (size 15 to 20)
#    0.000    2.250    2.500    1.500    0.000    1.750 
#    0.000    3.750    0.000    9.750    0.000    5.250 
#    0.000    0.000    0.000    6.250    0.000    8.000 
#
# Total GULP energy -178782.889858 kJ/mol
# GULP energy per Si atom -5586.965308 kJ/mol
# Density = 2.099882 g / cm^3
# Si number density = 21.046719 Si / 1000 Ang^3
#
#
#
# Elastic Constant Matrix: (Units=GPa)
#
#
# Indices 1 2 3 4 5 6 
#
# 1 182.9555 120.5161 14.5041 0.0000 0.0000 0.0000
# 2 120.5161 182.9546 14.5048 0.0000 0.0000 0.0000
# 3 14.5041 14.5048 60.7112 0.0000 0.0000 0.0000
# 4 0.0000 0.0000 0.0000 13.5842 0.0000 0.0000
# 5 0.0000 0.0000 0.0000 0.0000 13.5844 0.0000
# 6 0.0000 0.0000 0.0000 0.0000 0.0000 27.0550
#
#
#
# Elastic Compliance Matrix: (Units=1/GPa)
#
#
# Indices 1 2 3 4 5 6 
#
# 1 0.009694 -0.006322 -0.000806 0.000000 0.000000 0.000000
# 2 -0.006322 0.009694 -0.000806 0.000000 0.000000 0.000000
# 3 -0.000806 -0.000806 0.016856 0.000000 0.000000 0.000000
# 4 0.000000 0.000000 0.000000 0.073615 0.000000 0.000000
# 5 0.000000 0.000000 0.000000 0.000000 0.073614 0.000000
# 6 0.000000 0.000000 0.000000 0.000000 0.000000 0.036962
#
#
# Mechanical properties :
#
#
# Convention : Reuss Voigt Hill
#
# Bulk Modulus (GPa) = 49.07200 80.63012 64.85106
# Shear Modulus (GPa) = 20.56823 29.31782 24.94302
#
# Velocity S-wave (km/s) = 3.12952 3.73632 3.44630
# Velocity P-wave (km/s) = 6.03530 7.55028 6.83490
#
# Compressibility (1/GPa) = 0.02037822
#
# Stress axis : x y z
#
# Youngs Moduli (GPa) = 103.15761 103.15689 59.32469
#
# Poissons Ratio (x) = 0.65213 0.04779
# Poissons Ratio (y) = 0.65213 0.04780
# Poissons Ratio (z) = 0.08310 0.08312
#
# Static dielectric constant tensor:
#      x y z
#    x 1.741440 0.000000 0.000000 
#    y 0.000000 1.741450 0.000000 
#    z 0.000000 0.000000 1.905730 
# 
# From -- ./inp_files/1260.got.cif
#   From: 2010.05.17/outbox.cif.g08.bks.cpg/sg111_1_cif.got.tgz:1260.got - 2010.05.20 10:56:05.
