data_PCOD9554226
_publ_section_title
;
Structure prediction by ZEFSAII (Michael W. Deem and Ramdas Pophale) SiO2 
 PCOD9554226
Probable space group: I 41 M D
;
_chemical_formula_sum "Si O2"
_cell_formula_units_Z 64
_cell_length_a 15.342243
_cell_length_b 15.342243
_cell_length_c 14.977550
_cell_angle_alpha 90.000000
_cell_angle_beta 90.000000
_cell_angle_gamma 90.000000
_cell_volume 3525.481924
_symmetry_space_group_name_H-M "I 41 M D"
_symmetry_group_IT_number 109
_symmetry_cell_setting 'tetragonal'
loop_
_space_group_symop_operation_xyz
x,y,z
-y,1/2+x,1/4+z
-x,-y,z
y,1/2-x,1/4+z
-x,y,z
x,-y,z
-y,1/2-x,1/4+z
y,1/2+x,1/4+z
1/2+x,1/2+y,1/2+z
1/2-y,x,3/4+z
1/2-x,1/2-y,1/2+z
1/2+y,-x,3/4+z
1/2-x,1/2+y,1/2+z
1/2+x,1/2-y,1/2+z
1/2-y,-x,3/4+z
1/2+y,x,3/4+z
loop_
_atom_site_type_symbol
_atom_site_label
_atom_site_fract_x
_atom_site_fract_y
_atom_site_fract_z
Si Si1 0.339876 0.224894 0.125000
Si Si2 0.741107 0.406249 0.070492
Si Si3 0.000000 0.896404 0.888596
Si Si4 0.816588 0.101395 0.179764
Si Si5 0.500000 0.395251 0.601116
O O1 0.301007 0.321775 0.113523
O O2 0.395543 0.226487 0.215039
O O3 0.259297 0.159162 0.137151
O O4 0.389986 0.196399 0.036109
O O5 0.702744 0.500000 0.100062
O O6 0.843261 0.418676 0.095725
O O7 0.000000 0.878989 0.995032
O O8 0.000000 0.000000 0.873613
O O9 0.910905 0.135252 0.147512
O O10 0.808182 0.000000 0.153792
O O11 0.500000 0.500000 0.612411
#
# Coordination Sequence:
#
# PCOD9554226 Si02
#       5
#    16  16   8  16   8
#     4  10  21  38  61  88 114 160 199 242 309 350
#     4   9  21  37  57  84 120 152 197 245 293 362
#     4   9  20  38  58  85 121 156 195 250 300 365
#     4  10  22  38  61  87 120 156 200 253 297 362
#     4   9  20  38  56  87 121 152 199 248 306 361
#
# _framework density 18.153545999999999
#
# number of rings (size 3 to 8) (size 9 to 14) (size 15 to 20)
#    0.750    1.750    0.000    0.750    8.750    1.000 
#    2.250    0.000    0.000    3.000    0.000    0.000 
#    0.000    0.000    0.000    0.000    0.000    0.000 
#
# Total GULP energy -178181.312260 kJ/mol
# GULP energy per Si atom -5568.166008 kJ/mol
# Density = 1.811223 g / cm^3
# Si number density = 18.153546 Si / 1000 Ang^3
#
#
#
# Elastic Constant Matrix: (Units=GPa)
#
#
# Indices 1 2 3 4 5 6 
#
# 1 93.7547 33.0994 14.6553 0.0000 0.0000 0.0000
# 2 33.0994 93.7547 14.6553 0.0000 0.0000 0.0000
# 3 14.6553 14.6553 27.7223 0.0000 0.0000 0.0000
# 4 0.0000 0.0000 0.0000 10.7943 0.0000 0.0000
# 5 0.0000 0.0000 0.0000 0.0000 10.7943 0.0000
# 6 0.0000 0.0000 0.0000 0.0000 0.0000 33.0580
#
#
#
# Elastic Compliance Matrix: (Units=1/GPa)
#
#
# Indices 1 2 3 4 5 6 
#
# 1 0.012733 -0.003753 -0.004747 0.000000 0.000000 0.000000
# 2 -0.003753 0.012733 -0.004747 0.000000 0.000000 0.000000
# 3 -0.004747 -0.004747 0.041091 0.000000 0.000000 0.000000
# 4 0.000000 0.000000 0.000000 0.092642 0.000000 0.000000
# 5 0.000000 0.000000 0.000000 0.000000 0.092642 0.000000
# 6 0.000000 0.000000 0.000000 0.000000 0.000000 0.030250
#
#
# Mechanical properties :
#
#
# Convention : Reuss Voigt Hill
#
# Bulk Modulus (GPa) = 24.96117 37.78355 31.37236
# Shear Modulus (GPa) = 15.53082 21.11742 18.32412
#
# Velocity S-wave (km/s) = 2.92811 3.41437 3.18055
# Velocity P-wave (km/s) = 5.02112 6.03344 5.55041
#
# Compressibility (1/GPa) = 0.04006222
#
# Stress axis : x y z
#
# Youngs Moduli (GPa) = 78.53434 78.53434 24.33608
#
# Poissons Ratio (x) = 0.29476 0.11553
# Poissons Ratio (y) = 0.29476 0.11553
# Poissons Ratio (z) = 0.37282 0.37282
#
# Static dielectric constant tensor:
#      x y z
#    x 1.623290 0.000000 0.000000 
#    y 0.000000 1.623290 0.000000 
#    z 0.000000 0.000000 1.619390 
# 
# From -- ./inp_files/2997.got.cif
#   From: 2010.05.17/outbox.cif.g08.bks.cpg/sg109_2_cif.got.tgz:2997.got - 2010.05.20 10:51:12.
