data_PCOD9554696
_publ_section_title
;
Structure prediction by ZEFSAII (Michael W. Deem and Ramdas Pophale) SiO2 
 PCOD9554696
Probable space group: P -4 2 M 
;
_chemical_formula_sum "Si O2"
_cell_formula_units_Z 48
_cell_length_a 12.879708
_cell_length_b 12.879708
_cell_length_c 17.434669
_cell_angle_alpha 90.000000
_cell_angle_beta 90.000000
_cell_angle_gamma 90.000000
_cell_volume 2892.182812
_symmetry_space_group_name_H-M "P -4 2 M "
_symmetry_group_IT_number 111
_symmetry_cell_setting 'tetragonal'
loop_
_space_group_symop_operation_xyz
x,y,z
y,-x,-z
-x,-y,z
-y,x,-z
x,-y,-z
-x,y,-z
-y,-x,z
y,x,z
loop_
_atom_site_type_symbol
_atom_site_label
_atom_site_fract_x
_atom_site_fract_y
_atom_site_fract_z
Si Si1 0.705834 0.878227 0.681897
Si Si2 0.625741 0.882578 1.000000
Si Si3 0.787995 0.375993 0.836005
Si Si4 0.874046 0.499999 0.412064
Si Si5 0.878226 0.294168 0.681898
Si Si6 0.787994 0.375993 0.163995
O O1 0.803886 0.803886 0.666505
O O2 0.605501 0.844264 0.631925
O O3 0.671279 0.861213 0.770195
O O4 0.726975 0.000001 0.667702
O O5 0.653641 0.827098 0.920801
O O6 0.500000 0.886455 0.000000
O O7 0.653640 0.827097 0.079198
O O8 0.665449 0.000000 0.000000
O O9 0.675817 0.324184 0.824132
O O10 0.861215 0.328722 0.770196
O O11 0.786703 0.500000 0.829561
O O12 0.838396 0.500000 0.500000
O O13 0.844264 0.605499 0.368074
O O14 0.000000 0.500000 0.411944
O O15 0.803884 0.196117 0.666506
O O16 0.675816 0.324185 0.175868
#
# Coordination Sequence:
#
# PCOD9554696 Si02
#       6
#     8   8   8   8   8   8
#     4  10  20  34  54  79 107 139 175 217 263 310
#     4   9  17  28  45  67  93 129 173 219 260 302
#     4  10  19  31  48  72 102 137 176 218 263 310
#     4   9  18  34  56  78 102 134 171 210 255 313
#     4  10  20  34  54  79 107 139 175 217 263 310
#     4  10  19  31  48  72 102 137 176 218 263 310
#
# _framework density 16.59646
#
# number of rings (size 3 to 8) (size 9 to 14) (size 15 to 20)
#    0.000    2.333    1.667    1.500    0.000    2.667 
#    0.000    0.000    0.000    3.500    0.000    5.833 
#    0.000   12.000    0.000    0.000    0.000    0.000 
#
# Total GULP energy -267444.312532 kJ/mol
# GULP energy per Si atom -5571.756511 kJ/mol
# Density = 1.655869 g / cm^3
# Si number density = 16.596460 Si / 1000 Ang^3
#
#
#
# Elastic Constant Matrix: (Units=GPa)
#
#
# Indices 1 2 3 4 5 6 
#
# 1 92.5179 63.6371 30.9252 0.0000 0.0000 0.0000
# 2 63.6371 92.5158 30.9246 0.0000 0.0000 0.0000
# 3 30.9252 30.9246 106.4624 0.0000 0.0000 0.0000
# 4 0.0000 0.0000 0.0000 13.6109 0.0000 0.0000
# 5 0.0000 0.0000 0.0000 0.0000 13.6116 0.0000
# 6 0.0000 0.0000 0.0000 0.0000 0.0000 14.3948
#
#
#
# Elastic Compliance Matrix: (Units=1/GPa)
#
#
# Indices 1 2 3 4 5 6 
#
# 1 0.020931 -0.013695 -0.002102 0.000000 0.000000 0.000000
# 2 -0.013695 0.020932 -0.002102 0.000000 0.000000 0.000000
# 3 -0.002102 -0.002102 0.010614 0.000000 0.000000 0.000000
# 4 0.000000 0.000000 0.000000 0.073470 0.000000 0.000000
# 5 0.000000 0.000000 0.000000 0.000000 0.073467 0.000000
# 6 0.000000 0.000000 0.000000 0.000000 0.000000 0.069469
#
#
# Mechanical properties :
#
#
# Convention : Reuss Voigt Hill
#
# Bulk Modulus (GPa) = 59.95547 60.27443 60.11495
# Shear Modulus (GPa) = 16.11650 19.39076 17.75363
#
# Velocity S-wave (km/s) = 3.11960 3.42185 3.27421
# Velocity P-wave (km/s) = 7.01283 7.21169 7.11296
#
# Compressibility (1/GPa) = 0.01667904
#
# Stress axis : x y z
#
# Youngs Moduli (GPa) = 47.77554 47.77456 94.21361
#
# Poissons Ratio (x) = 0.65427 0.19804
# Poissons Ratio (y) = 0.65428 0.19804
# Poissons Ratio (z) = 0.10043 0.10042
#
# Static dielectric constant tensor:
#      x y z
#    x 1.547250 0.000000 0.000000 
#    y 0.000000 1.547250 0.000000 
#    z 0.000000 0.000000 1.569610 
# 
# From -- ./inp_files/3669.got.cif
#   From: 2010.05.17/outbox.cif.g08.bks.cpg/sg111_2_cif.got.tgz:3669.got - 2010.05.20 10:56:05.
