data_PCOD9554050
_publ_section_title
;
Structure prediction by ZEFSAII (Michael W. Deem and Ramdas Pophale) SiO2 
 PCOD9554050
Probable space group: I 41 M D
;
_chemical_formula_sum "Si O2"
_cell_formula_units_Z 68
_cell_length_a 17.961735
_cell_length_b 17.961735
_cell_length_c 8.300481
_cell_angle_alpha 90.000000
_cell_angle_beta 90.000000
_cell_angle_gamma 90.000000
_cell_volume 2677.933753
_symmetry_space_group_name_H-M "I 41 M D"
_symmetry_group_IT_number 109
_symmetry_cell_setting 'tetragonal'
loop_
_space_group_symop_operation_xyz
x,y,z
-y,1/2+x,1/4+z
-x,-y,z
y,1/2-x,1/4+z
-x,y,z
x,-y,z
-y,1/2-x,1/4+z
y,1/2+x,1/4+z
1/2+x,1/2+y,1/2+z
1/2-y,x,3/4+z
1/2-x,1/2-y,1/2+z
1/2+y,-x,3/4+z
1/2-x,1/2+y,1/2+z
1/2+x,1/2-y,1/2+z
1/2-y,-x,3/4+z
1/2+y,x,3/4+z
loop_
_atom_site_type_symbol
_atom_site_label
_atom_site_fract_x
_atom_site_fract_y
_atom_site_fract_z
Si Si1 0.124632 0.658459 0.851290
Si Si2 0.683333 0.705455 0.562135
Si Si3 0.500000 0.500000 0.849800
Si Si4 0.000000 0.173458 0.488463
Si Si5 0.828872 0.000000 0.333517
Si Si6 0.915712 0.416557 0.173824
O O1 0.163359 0.731712 0.926266
O O2 0.171532 0.584620 0.809179
O O3 0.070739 0.678953 0.704823
O O4 0.082156 0.628540 0.008548
O O5 0.680195 0.737437 0.741252
O O6 0.625308 0.639137 0.543291
O O7 0.500000 0.585800 0.924696
O O8 0.415522 0.500000 0.786194
O O9 0.000000 0.263830 0.448163
O O10 0.886323 0.500000 0.144327
O O11 0.000000 0.422688 0.224685
#
# Coordination Sequence:
#
# PCOD9554050 Si02
#       6
#    16  16   4   8   8  16
#     4  10  18  28  48  80 111 144 180 225 293 345
#     4  10  22  36  55  82 118 150 191 236 286 345
#     4   8  20  28  40  72 104 144 190 220 280 366
#     4  10  18  30  46  72 113 150 178 229 286 349
#     4  10  16  26  44  68 111 146 171 224 296 346
#     4  10  19  31  53  83 114 143 186 242 296 340
#
# _framework density 25.392710999999998
#
# number of rings (size 3 to 8) (size 9 to 14) (size 15 to 20)
#    0.000    2.118    2.353    2.824    1.647    0.941 
#    0.000    0.000    2.588    0.000    3.059    0.000 
#    0.000   15.059    0.000    0.000    0.000    0.000 
#
# Total GULP energy -189397.235636 kJ/mol
# GULP energy per Si atom -5570.506930 kJ/mol
# Density = 2.533492 g / cm^3
# Si number density = 25.392711 Si / 1000 Ang^3
#
#
#
# Elastic Constant Matrix: (Units=GPa)
#
#
# Indices 1 2 3 4 5 6 
#
# 1 149.8505 43.3786 15.6798 0.0000 0.0000 0.0000
# 2 43.3786 149.8505 15.6798 0.0000 0.0000 0.0000
# 3 15.6798 15.6798 51.0639 0.0000 0.0000 0.0000
# 4 0.0000 0.0000 0.0000 -0.6313 0.0000 0.0000
# 5 0.0000 0.0000 0.0000 0.0000 -0.6313 0.0000
# 6 0.0000 0.0000 0.0000 0.0000 0.0000 -77.3746
#
#
#
# Elastic Compliance Matrix: (Units=1/GPa)
#
#
# Indices 1 2 3 4 5 6 
#
# 1 0.007419 -0.001973 -0.001672 0.000000 0.000000 0.000000
# 2 -0.001973 0.007419 -0.001672 0.000000 0.000000 0.000000
# 3 -0.001672 -0.001672 0.020610 0.000000 0.000000 0.000000
# 4 0.000000 0.000000 0.000000 -1.584106 0.000000 0.000000
# 5 0.000000 0.000000 0.000000 0.000000 -1.584106 0.000000
# 6 0.000000 0.000000 0.000000 0.000000 0.000000 -0.012924
#
#
# Mechanical properties :
#
#
# Convention : Reuss Voigt Hill
#
# Bulk Modulus (GPa) = 40.30011 55.58239 47.94125
# Shear Modulus (GPa) = -1.59909 2.67436 0.53764
#
# Velocity S-wave (km/s) = -0.79442 1.02737 0.46064
# Velocity P-wave (km/s) = 3.88120 4.83156 4.38222
#
# Compressibility (1/GPa) = 0.02481383
#
# Stress axis : x y z
#
# Youngs Moduli (GPa) = 134.78198 134.78198 48.51921
#
# Poissons Ratio (x) = 0.26589 0.08115
# Poissons Ratio (y) = 0.26589 0.08115
# Poissons Ratio (z) = 0.22542 0.22542
#
# Static dielectric constant tensor:
#      x y z
#    x 2.084610 0.000000 0.000000 
#    y 0.000000 2.084610 0.000000 
#    z 0.000000 0.000000 2.030900 
# 
# From -- ./inp_files/1920.got.cif
#   From: 2010.05.17/outbox.cif.g08.bks.cpg/sg109_1_cif.got.tgz:1920.got - 2010.05.20 10:51:12.
