data_PCOD9554654
_publ_section_title
;
Structure prediction by ZEFSAII (Michael W. Deem and Ramdas Pophale) SiO2 
 PCOD9554654
Probable space group: P -4 2 M 
;
_chemical_formula_sum "Si O2"
_cell_formula_units_Z 52
_cell_length_a 18.958733
_cell_length_b 18.958733
_cell_length_c 9.306190
_cell_angle_alpha 90.000000
_cell_angle_beta 90.000000
_cell_angle_gamma 90.000000
_cell_volume 3344.956973
_symmetry_space_group_name_H-M "P -4 2 M "
_symmetry_group_IT_number 111
_symmetry_cell_setting 'tetragonal'
loop_
_space_group_symop_operation_xyz
x,y,z
y,-x,-z
-x,-y,z
-y,x,-z
x,-y,-z
-x,y,-z
-y,-x,z
y,x,z
loop_
_atom_site_type_symbol
_atom_site_label
_atom_site_fract_x
_atom_site_fract_y
_atom_site_fract_z
Si Si1 0.000000 0.500000 0.235765
Si Si2 0.034445 0.244169 0.845739
Si Si3 0.428032 0.872961 0.055388
Si Si4 0.701715 0.182521 0.221273
Si Si5 0.959175 0.148703 0.632454
Si Si6 0.153501 0.267703 0.446661
Si Si7 0.634170 0.070542 0.756609
O O1 0.941915 0.457473 0.140652
O O2 0.957518 0.561810 0.313694
O O3 0.117449 0.256123 0.850717
O O4 0.013339 0.180243 0.744463
O O5 0.994872 0.312394 0.777515
O O6 0.000000 0.234428 0.000000
O O7 0.376088 0.826234 0.153091
O O8 0.500000 0.836376 0.000000
O O9 0.386161 0.900588 0.914831
O O10 0.744829 0.255172 0.198185
O O11 0.704445 0.165033 0.391788
O O12 0.905788 0.094213 0.702727
O O13 0.910888 0.211506 0.564665
O O14 0.000000 0.115874 0.500000
O O15 0.223174 0.223174 0.405503
O O16 0.130239 0.328375 0.337336
#
# Coordination Sequence:
#
# PCOD9554654 Si02
#       7
#     4   8   8   8   8   8   8
#     4  10  17  30  51  74 103 132 163 206 263 304
#     4  11  19  32  50  69  95 123 164 208 255 301
#     4  10  19  33  52  74 103 135 166 204 252 307
#     4  11  21  34  51  71  97 133 169 204 253 306
#     4  10  20  33  48  65  87 121 165 216 266 306
#     4   9  20  34  47  67  98 130 168 212 249 297
#     4  10  17  29  51  71  98 127 163 208 249 295
#
# _framework density 15.545788999999999
#
# number of rings (size 3 to 8) (size 9 to 14) (size 15 to 20)
#    0.000    1.846    4.615    2.077    0.000    1.385 
#    0.000    3.846    0.000    0.000    0.000    1.077 
#    0.000    0.308    0.000    0.000    0.000   14.769 
#
# Total GULP energy -289761.901118 kJ/mol
# GULP energy per Si atom -5572.344252 kJ/mol
# Density = 1.551041 g / cm^3
# Si number density = 15.545789 Si / 1000 Ang^3
#
#
#
# Elastic Constant Matrix: (Units=GPa)
#
#
# Indices 1 2 3 4 5 6 
#
# 1 67.9835 32.0452 27.3357 0.0000 0.0000 0.0000
# 2 32.0452 67.9801 27.3348 0.0000 0.0000 0.0000
# 3 27.3357 27.3348 32.5903 0.0000 0.0000 0.0000
# 4 0.0000 0.0000 0.0000 20.6650 0.0000 0.0000
# 5 0.0000 0.0000 0.0000 0.0000 20.6648 0.0000
# 6 0.0000 0.0000 0.0000 0.0000 0.0000 27.7968
#
#
#
# Elastic Compliance Matrix: (Units=1/GPa)
#
#
# Indices 1 2 3 4 5 6 
#
# 1 0.023143 -0.004683 -0.015483 0.000000 0.000000 0.000000
# 2 -0.004683 0.023144 -0.015483 0.000000 0.000000 0.000000
# 3 -0.015483 -0.015483 0.056657 0.000000 0.000000 0.000000
# 4 0.000000 0.000000 0.000000 0.048391 0.000000 0.000000
# 5 0.000000 0.000000 0.000000 0.000000 0.048392 0.000000
# 6 0.000000 0.000000 0.000000 0.000000 0.000000 0.035975
#
#
# Mechanical properties :
#
#
# Convention : Reuss Voigt Hill
#
# Bulk Modulus (GPa) = 31.60166 37.99836 34.80001
# Shear Modulus (GPa) = 15.74557 19.28120 17.51338
#
# Velocity S-wave (km/s) = 3.18598 3.52559 3.36008
# Velocity P-wave (km/s) = 5.82291 6.40851 6.12271
#
# Compressibility (1/GPa) = 0.03164391
#
# Stress axis : x y z
#
# Youngs Moduli (GPa) = 43.21003 43.20814 17.64996
#
# Poissons Ratio (x) = 0.20236 0.27328
# Poissons Ratio (y) = 0.20237 0.27328
# Poissons Ratio (z) = 0.66903 0.66900
#
# Static dielectric constant tensor:
#      x y z
#    x 1.536930 0.000000 0.000000 
#    y 0.000000 1.536930 0.000000 
#    z 0.000000 0.000000 1.538470 
# 
# From -- ./inp_files/1852.got.cif
#   From: 2010.05.17/outbox.cif.g08.bks.cpg/sg111_1_cif.got.tgz:1852.got - 2010.05.20 10:56:05.
