data_PCOD9554702
_publ_section_title
;
Structure prediction by ZEFSAII (Michael W. Deem and Ramdas Pophale) SiO2 
 PCOD9554702
Probable space group: P -4 2 M 
;
_chemical_formula_sum "Si O2"
_cell_formula_units_Z 64
_cell_length_a 11.843402
_cell_length_b 11.843402
_cell_length_c 24.663144
_cell_angle_alpha 90.000000
_cell_angle_beta 90.000000
_cell_angle_gamma 90.000000
_cell_volume 3459.404772
_symmetry_space_group_name_H-M "P -4 2 M "
_symmetry_group_IT_number 111
_symmetry_cell_setting 'tetragonal'
loop_
_space_group_symop_operation_xyz
x,y,z
y,-x,-z
-x,-y,z
-y,x,-z
x,-y,-z
-x,y,-z
-y,-x,z
y,x,z
loop_
_atom_site_type_symbol
_atom_site_label
_atom_site_fract_x
_atom_site_fract_y
_atom_site_fract_z
Si Si1 0.868247 0.515906 0.726150
Si Si2 0.310740 0.499774 0.177130
Si Si3 0.186182 0.994999 0.435812
Si Si4 0.246555 0.063383 0.726650
Si Si5 0.259985 0.555572 0.058788
Si Si6 0.814901 0.992069 0.161660
Si Si7 0.742641 0.071089 0.052240
Si Si8 0.873518 0.691411 0.350703
O O1 0.784677 0.496374 0.776531
O O2 0.863405 0.646471 0.708379
O O3 0.850582 0.430292 0.675900
O O4 0.000000 0.500000 0.742048
O O5 0.381388 0.618613 0.179611
O O6 0.400816 0.400816 0.187082
O O7 0.265047 0.487351 0.115290
O O8 0.088258 0.088258 0.425118
O O9 0.292281 0.040766 0.401420
O O10 0.208926 0.000000 0.500000
O O11 0.125660 0.874341 0.422648
O O12 0.131994 0.131994 0.719616
O O13 0.261904 0.036036 0.790096
O O14 0.244953 0.946201 0.695474
O O15 0.379030 0.620971 0.054917
O O16 0.162415 0.648093 0.065909
O O17 0.241565 0.500000 0.000000
O O18 0.875215 0.875215 0.175727
O O19 0.758240 0.990256 0.103523
O O20 0.913607 0.086394 0.157212
O O21 0.857932 0.142069 0.042001
O O22 0.712619 0.000000 0.000000
O O23 0.758337 0.758337 0.361623
#
# Coordination Sequence:
#
# PCOD9554702 Si02
#       8
#     8   8   8   8   8   8   8   8
#     4  10  21  35  49  73 110 143 171 206 262 321
#     4  10  20  37  62  81  95 127 178 229 271 317
#     4   8  14  26  47  77 111 147 189 232 268 306
#     4  10  19  32  51  73 100 138 178 217 256 304
#     4  10  21  38  56  75  96 121 162 219 275 326
#     4   9  17  30  50  74  97 123 163 212 257 306
#     4  10  20  34  51  73 100 131 163 200 251 319
#     4  10  19  31  49  76 110 143 173 216 266 316
#
# _framework density 18.500291000000001
#
# number of rings (size 3 to 8) (size 9 to 14) (size 15 to 20)
#    0.000    2.375    0.000    3.375    0.000    4.750 
#    6.750    0.000    0.000    3.375    0.000    0.000 
#    0.000    0.000    0.000    0.000    0.000  114.125 
#
# Total GULP energy -356615.575082 kJ/mol
# GULP energy per Si atom -5572.118361 kJ/mol
# Density = 1.845818 g / cm^3
# Si number density = 18.500291 Si / 1000 Ang^3
#
#
#
# Elastic Constant Matrix: (Units=GPa)
#
#
# Indices 1 2 3 4 5 6 
#
# 1 44.9245 5.5723 18.9336 0.0000 0.0000 0.0000
# 2 5.5723 44.9252 18.9340 0.0000 0.0000 0.0000
# 3 18.9336 18.9340 85.1495 0.0000 0.0000 0.0000
# 4 0.0000 0.0000 0.0000 15.3248 0.0000 0.0000
# 5 0.0000 0.0000 0.0000 0.0000 15.3248 0.0000
# 6 0.0000 0.0000 0.0000 0.0000 0.0000 11.7271
#
#
#
# Elastic Compliance Matrix: (Units=1/GPa)
#
#
# Indices 1 2 3 4 5 6 
#
# 1 0.024589 -0.000823 -0.005285 0.000000 0.000000 0.000000
# 2 -0.000823 0.024589 -0.005285 0.000000 0.000000 0.000000
# 3 -0.005285 -0.005285 0.014094 0.000000 0.000000 0.000000
# 4 0.000000 0.000000 0.000000 0.065254 0.000000 0.000000
# 5 0.000000 0.000000 0.000000 0.000000 0.065254 0.000000
# 6 0.000000 0.000000 0.000000 0.000000 0.000000 0.085273
#
#
# Mechanical properties :
#
#
# Convention : Reuss Voigt Hill
#
# Bulk Modulus (GPa) = 24.69879 29.09767 26.89823
# Shear Modulus (GPa) = 15.85633 17.24595 16.55114
#
# Velocity S-wave (km/s) = 2.93078 3.05651 2.99430
# Velocity P-wave (km/s) = 4.98318 5.31212 5.15028
#
# Compressibility (1/GPa) = 0.04048781
#
# Stress axis : x y z
#
# Youngs Moduli (GPa) = 40.66893 40.66941 70.95118
#
# Poissons Ratio (x) = 0.03346 0.37495
# Poissons Ratio (y) = 0.03346 0.37495
# Poissons Ratio (z) = 0.21492 0.21492
#
# Static dielectric constant tensor:
#      x y z
#    x 1.673160 0.000000 0.000000 
#    y 0.000000 1.673160 0.000000 
#    z 0.000000 0.000000 1.650050 
# 
# From -- ./inp_files/4262.got.cif
#   From: 2010.05.17/outbox.cif.g08.bks.cpg/sg111_3_cif.got.tgz:4262.got - 2010.05.20 10:56:05.
