data_PCOD9554306
_publ_section_title
;
Structure prediction by ZEFSAII (Michael W. Deem and Ramdas Pophale) SiO2 
 PCOD9554306
Probable space group: I 41 M D
;
_chemical_formula_sum "Si O2"
_cell_formula_units_Z 64
_cell_length_a 15.109863
_cell_length_b 15.109863
_cell_length_c 12.361111
_cell_angle_alpha 90.000000
_cell_angle_beta 90.000000
_cell_angle_gamma 90.000000
_cell_volume 2822.140034
_symmetry_space_group_name_H-M "I 41 M D"
_symmetry_group_IT_number 109
_symmetry_cell_setting 'tetragonal'
loop_
_space_group_symop_operation_xyz
x,y,z
-y,1/2+x,1/4+z
-x,-y,z
y,1/2-x,1/4+z
-x,y,z
x,-y,z
-y,1/2-x,1/4+z
y,1/2+x,1/4+z
1/2+x,1/2+y,1/2+z
1/2-y,x,3/4+z
1/2-x,1/2-y,1/2+z
1/2+y,-x,3/4+z
1/2-x,1/2+y,1/2+z
1/2+x,1/2-y,1/2+z
1/2-y,-x,3/4+z
1/2+y,x,3/4+z
loop_
_atom_site_type_symbol
_atom_site_label
_atom_site_fract_x
_atom_site_fract_y
_atom_site_fract_z
Si Si1 0.593889 0.710336 0.532320
Si Si2 0.150995 0.899562 0.459372
Si Si3 0.361860 0.901994 0.454211
Si Si4 0.737457 0.098392 0.022935
O O1 0.500000 0.679553 0.483984
O O2 0.598207 0.815636 0.511200
O O3 0.683959 0.665928 0.495657
O O4 0.593157 0.687207 0.659286
O O5 0.256729 0.897921 0.473858
O O6 0.109067 0.878155 0.575597
O O7 0.126603 0.826893 0.369652
O O8 0.125713 0.000000 0.426943
O O9 0.393630 0.000000 0.486142
O O10 0.773035 0.000000 0.047073
#
# Coordination Sequence:
#
# PCOD9554306 Si02
#       4
#    16  16  16  16
#     4  11  24  41  62  89 124 167 215 267 326 396
#     4  11  23  40  66  98 133 174 220 275 340 410
#     4  11  23  40  66  98 133 174 220 275 340 410
#     4  11  24  41  62  89 124 167 215 267 326 396
#
# _framework density 22.677827000000001
#
# number of rings (size 3 to 8) (size 9 to 14) (size 15 to 20)
#    0.000    1.000    0.000    7.500    0.000   10.000 
#    0.000    5.000    0.000    0.000    0.000    0.000 
#    0.000    0.000    0.000    0.000    0.000    0.000 
#
# Total GULP energy -178879.097996 kJ/mol
# GULP energy per Si atom -5589.971812 kJ/mol
# Density = 2.262621 g / cm^3
# Si number density = 22.677827 Si / 1000 Ang^3
#
#
#
# Elastic Constant Matrix: (Units=GPa)
#
#
# Indices 1 2 3 4 5 6 
#
# 1 102.9013 25.0505 6.4651 0.0000 0.0000 0.0000
# 2 25.0505 102.9013 6.4651 0.0000 0.0000 0.0000
# 3 6.4651 6.4651 96.1514 0.0000 0.0000 0.0000
# 4 0.0000 0.0000 0.0000 0.2652 0.0000 0.0000
# 5 0.0000 0.0000 0.0000 0.0000 0.2652 0.0000
# 6 0.0000 0.0000 0.0000 0.0000 0.0000 -46.4900
#
#
#
# Elastic Compliance Matrix: (Units=1/GPa)
#
#
# Indices 1 2 3 4 5 6 
#
# 1 0.010357 -0.002488 -0.000529 0.000000 0.000000 0.000000
# 2 -0.002488 0.010357 -0.000529 0.000000 0.000000 0.000000
# 3 -0.000529 -0.000529 0.010471 0.000000 0.000000 0.000000
# 4 0.000000 0.000000 0.000000 3.770849 0.000000 0.000000
# 5 0.000000 0.000000 0.000000 0.000000 3.770849 0.000000
# 6 0.000000 0.000000 0.000000 0.000000 0.000000 -0.021510
#
#
# Mechanical properties :
#
#
# Convention : Reuss Voigt Hill
#
# Bulk Modulus (GPa) = 41.50611 41.99063 41.74837
# Shear Modulus (GPa) = 0.66081 8.40630 4.53355
#
# Velocity S-wave (km/s) = 0.54039 1.92740 1.41543
# Velocity P-wave (km/s) = 4.32800 4.84866 4.59571
#
# Compressibility (1/GPa) = 0.02409284
#
# Stress axis : x y z
#
# Youngs Moduli (GPa) = 96.55307 96.55307 95.49810
#
# Poissons Ratio (x) = 0.24023 0.05053
# Poissons Ratio (y) = 0.24023 0.05053
# Poissons Ratio (z) = 0.05109 0.05109
#
# Static dielectric constant tensor:
#      x y z
#    x 1.869160 0.000000 0.000000 
#    y 0.000000 1.869160 0.000000 
#    z 0.000000 0.000000 1.816500 
# 
# From -- ./inp_files/2405.got.cif
#   From: 2010.05.17/outbox.cif.g08.bks.cpg/sg109_2_cif.got.tgz:2405.got - 2010.05.20 10:51:12.
