data_PCOD9554571
_publ_section_title
;
Structure prediction by ZEFSAII (Michael W. Deem and Ramdas Pophale) SiO2 
 PCOD9554571
Probable space group: I 41 C D
;
_chemical_formula_sum "Si O2"
_cell_formula_units_Z 72
_cell_length_a 11.440884
_cell_length_b 11.440884
_cell_length_c 22.951571
_cell_angle_alpha 90.000000
_cell_angle_beta 90.000000
_cell_angle_gamma 90.000000
_cell_volume 3004.218957
_symmetry_space_group_name_H-M "I 41 C D"
_symmetry_group_IT_number 110
_symmetry_cell_setting 'tetragonal'
loop_
_space_group_symop_operation_xyz
x,y,z
-y,1/2+x,1/4+z
-x,-y,z
y,1/2-x,1/4+z
-x,y,1/2+z
x,-y,1/2+z
1/2-y,-x,1/4+z
1/2+y,x,1/4+z
1/2+x,1/2+y,1/2+z
1/2-y,x,3/4+z
1/2-x,1/2-y,1/2+z
1/2+y,-x,3/4+z
1/2-x,1/2+y,z
1/2+x,1/2-y,z
-y,1/2-x,3/4+z
y,1/2+x,3/4+z
loop_
_atom_site_type_symbol
_atom_site_label
_atom_site_fract_x
_atom_site_fract_y
_atom_site_fract_z
Si Si1 0.638244 0.638244 0.340950
Si Si2 0.500000 0.000000 0.174283
Si Si3 0.500000 0.000000 0.340950
Si Si4 0.361756 0.361756 0.007617
Si Si5 0.638244 0.138244 0.424284
Si Si6 0.000000 0.000000 0.757617
O O1 0.530934 0.612575 0.385325
O O2 0.638679 0.750000 0.299283
O O3 0.750000 0.638679 0.382617
O O4 0.612576 0.530934 0.296575
O O5 0.530934 0.887425 0.213242
O O6 0.612575 0.969066 0.301992
O O7 0.469066 0.887425 0.379909
O O8 0.361321 0.250000 0.965950
O O9 0.612575 0.030934 0.468658
#
# Coordination Sequence:
#
# PCOD9554571 Si02
#       6
#    16   8   8  16  16   8
#     4  11  24  42  68  99 130 170 218 269 322 384
#     4  10  24  46  68  94 132 174 216 266 324 386
#     4  10  24  46  68  94 132 174 216 266 324 386
#     4  11  24  42  68  99 130 170 218 269 322 384
#     4  11  24  42  68  99 130 170 218 269 322 384
#     4  10  24  46  68  94 132 174 216 266 324 386
#
# _framework density 23.966294000000001
#
# number of rings (size 3 to 8) (size 9 to 14) (size 15 to 20)
#    0.000    1.333    0.000    4.000    0.000   16.000 
#    0.000    0.000    0.000    0.000    0.000    0.000 
#    0.000    0.000    0.000    0.000    0.000    0.000 
#
# Total GULP energy -200532.371227 kJ/mol
# GULP energy per Si atom -5570.343645 kJ/mol
# Density = 2.391175 g / cm^3
# Si number density = 23.966294 Si / 1000 Ang^3
#
#
#
# Elastic Constant Matrix: (Units=GPa)
#
#
# Indices 1 2 3 4 5 6 
#
# 1 131.7212 62.8617 94.8196 0.0000 0.0000 0.0000
# 2 62.8617 131.7212 94.8196 0.0000 0.0000 0.0000
# 3 94.8196 94.8196 182.2959 0.0000 0.0000 0.0000
# 4 0.0000 0.0000 0.0000 26.8337 0.0000 0.0000
# 5 0.0000 0.0000 0.0000 0.0000 26.8337 0.0000
# 6 0.0000 0.0000 0.0000 0.0000 0.0000 6.9212
#
#
#
# Elastic Compliance Matrix: (Units=1/GPa)
#
#
# Indices 1 2 3 4 5 6 
#
# 1 0.012473 -0.002050 -0.005421 0.000000 0.000000 0.000000
# 2 -0.002050 0.012473 -0.005421 0.000000 0.000000 0.000000
# 3 -0.005421 -0.005421 0.011125 0.000000 0.000000 0.000000
# 4 0.000000 0.000000 0.000000 0.037267 0.000000 0.000000
# 5 0.000000 0.000000 0.000000 0.000000 0.037267 0.000000
# 6 0.000000 0.000000 0.000000 0.000000 0.000000 0.144485
#
#
# Mechanical properties :
#
#
# Convention : Reuss Voigt Hill
#
# Bulk Modulus (GPa) = 97.22352 105.63779 101.43065
# Shear Modulus (GPa) = 17.58697 25.00020 21.29358
#
# Velocity S-wave (km/s) = 2.71185 3.23327 2.98397
# Velocity P-wave (km/s) = 7.10355 7.62313 7.36792
#
# Compressibility (1/GPa) = 0.01028558
#
# Stress axis : x y z
#
# Youngs Moduli (GPa) = 80.17607 80.17607 89.88529
#
# Poissons Ratio (x) = 0.16434 0.48730
# Poissons Ratio (y) = 0.16434 0.48730
# Poissons Ratio (z) = 0.43466 0.43466
#
# Static dielectric constant tensor:
#      x y z
#    x 1.883420 0.000000 0.000000 
#    y 0.000000 1.883420 0.000000 
#    z 0.000000 0.000000 2.010120 
# 
# From -- ./inp_files/2896.got.cif
#   From: 2010.05.17/outbox.cif.g08.bks.cpg/sg110_2_cif.got.tgz:2896.got - 2010.05.20 10:54:03.
