data_PCOD9554371
_publ_section_title
;
Structure prediction by ZEFSAII (Michael W. Deem and Ramdas Pophale) SiO2 
 PCOD9554371
Probable space group: I 41 C D
;
_chemical_formula_sum "Si O2"
_cell_formula_units_Z 96
_cell_length_a 19.524248
_cell_length_b 19.524248
_cell_length_c 9.303375
_cell_angle_alpha 90.000000
_cell_angle_beta 90.000000
_cell_angle_gamma 90.000000
_cell_volume 3546.411755
_symmetry_space_group_name_H-M "I 41 C D"
_symmetry_group_IT_number 110
_symmetry_cell_setting 'tetragonal'
loop_
_space_group_symop_operation_xyz
x,y,z
-y,1/2+x,1/4+z
-x,-y,z
y,1/2-x,1/4+z
-x,y,1/2+z
x,-y,1/2+z
1/2-y,-x,1/4+z
1/2+y,x,1/4+z
1/2+x,1/2+y,1/2+z
1/2-y,x,3/4+z
1/2-x,1/2-y,1/2+z
1/2+y,-x,3/4+z
1/2-x,1/2+y,z
1/2+x,1/2-y,z
-y,1/2-x,3/4+z
y,1/2+x,3/4+z
loop_
_atom_site_type_symbol
_atom_site_label
_atom_site_fract_x
_atom_site_fract_y
_atom_site_fract_z
Si Si1 0.531304 0.704532 0.808200
Si Si2 0.426815 0.576432 0.491101
Si Si3 0.379918 0.356858 0.261086
Si Si4 0.546226 0.830359 0.018632
Si Si5 0.577720 0.621203 0.553155
Si Si6 0.815869 0.743121 0.587241
O O1 0.454127 0.678811 0.780812
O O2 0.521719 0.772334 0.905079
O O3 0.561496 0.691716 0.645582
O O4 0.573965 0.651989 0.910757
O O5 0.395818 0.582103 0.650978
O O6 0.379417 0.523481 0.402735
O O7 0.509555 0.578646 0.505216
O O8 0.366868 0.370012 0.427168
O O9 0.323842 0.312019 0.181003
O O10 0.573885 0.889549 0.919482
O O11 0.610040 0.790914 0.093101
O O12 0.759018 0.701002 0.672869
#
# Coordination Sequence:
#
# PCOD9554371 Si02
#       6
#    16  16  16  16  16  16
#     4   9  18  34  57  84 117 155 206 248 302 380
#     4   9  17  36  55  82 120 159 195 246 312 378
#     4  10  19  36  54  81 121 163 202 247 297 383
#     4  11  19  37  58  86 119 157 201 261 312 367
#     4   9  20  32  58  83 120 153 207 251 311 368
#     4  12  25  37  54  84 131 166 195 245 323 389
#
# _framework density 27.069616
#
# number of rings (size 3 to 8) (size 9 to 14) (size 15 to 20)
#    0.000    2.000    3.333    2.000    2.333    1.333 
#    0.000    0.000    0.000    0.000    0.000    3.500 
#    0.000    0.000    0.000    0.000    0.000    0.000 
#
# Total GULP energy -267440.883445 kJ/mol
# GULP energy per Si atom -5571.685072 kJ/mol
# Density = 2.700800 g / cm^3
# Si number density = 27.069616 Si / 1000 Ang^3
#
#
#
# Elastic Constant Matrix: (Units=GPa)
#
#
# Indices 1 2 3 4 5 6 
#
# 1 69.1198 12.5162 31.0272 0.0000 0.0000 0.0000
# 2 12.5162 69.1198 31.0272 0.0000 0.0000 0.0000
# 3 31.0272 31.0272 158.2999 0.0000 0.0000 0.0000
# 4 0.0000 0.0000 0.0000 22.9696 0.0000 0.0000
# 5 0.0000 0.0000 0.0000 0.0000 22.9696 0.0000
# 6 0.0000 0.0000 0.0000 0.0000 0.0000 15.7690
#
#
#
# Elastic Compliance Matrix: (Units=1/GPa)
#
#
# Indices 1 2 3 4 5 6 
#
# 1 0.016030 -0.001636 -0.002821 0.000000 0.000000 0.000000
# 2 -0.001636 0.016030 -0.002821 0.000000 0.000000 0.000000
# 3 -0.002821 -0.002821 0.007423 0.000000 0.000000 0.000000
# 4 0.000000 0.000000 0.000000 0.043536 0.000000 0.000000
# 5 0.000000 0.000000 0.000000 0.000000 0.043536 0.000000
# 6 0.000000 0.000000 0.000000 0.000000 0.000000 0.063416
#
#
# Mechanical properties :
#
#
# Convention : Reuss Voigt Hill
#
# Bulk Modulus (GPa) = 40.11864 49.52011 44.81937
# Shear Modulus (GPa) = 23.49210 27.13956 25.31583
#
# Velocity S-wave (km/s) = 2.94911 3.16980 3.06144
# Velocity P-wave (km/s) = 5.14286 5.63295 5.39348
#
# Compressibility (1/GPa) = 0.02492607
#
# Stress axis : x y z
#
# Youngs Moduli (GPa) = 62.38154 62.38154 134.71496
#
# Poissons Ratio (x) = 0.10208 0.38007
# Poissons Ratio (y) = 0.10208 0.38007
# Poissons Ratio (z) = 0.17600 0.17600
#
# Static dielectric constant tensor:
#      x y z
#    x 2.214210 0.000000 0.000000 
#    y 0.000000 2.214210 0.000000 
#    z 0.000000 0.000000 2.237950 
# 
# From -- ./inp_files/454.got.cif
#   From: 2010.05.17/outbox.cif.g08.bks.cpg/sg110_1_cif.got.tgz:454.got - 2010.05.20 10:54:03.
