data_PCOD9554880
_publ_section_title
;
Structure prediction by ZEFSAII (Michael W. Deem and Ramdas Pophale) SiO2 
 PCOD9554880
Probable space group: P -4 2 M 
;
_chemical_formula_sum "Si O2"
_cell_formula_units_Z 40
_cell_length_a 15.389347
_cell_length_b 15.389347
_cell_length_c 8.556264
_cell_angle_alpha 90.000000
_cell_angle_beta 90.000000
_cell_angle_gamma 90.000000
_cell_volume 2026.397125
_symmetry_space_group_name_H-M "P -4 2 M "
_symmetry_group_IT_number 111
_symmetry_cell_setting 'tetragonal'
loop_
_space_group_symop_operation_xyz
x,y,z
y,-x,-z
-x,-y,z
-y,x,-z
x,-y,-z
-x,y,-z
-y,-x,z
y,x,z
loop_
_atom_site_type_symbol
_atom_site_label
_atom_site_fract_x
_atom_site_fract_y
_atom_site_fract_z
Si Si1 0.976846 0.848544 0.676242
Si Si2 0.905024 0.672823 0.584565
Si Si3 0.227942 0.093342 0.074642
Si Si4 0.485873 0.104014 0.812790
Si Si5 0.651312 0.793452 0.278105
O O1 0.930823 0.930823 0.750011
O O2 0.913803 0.766225 0.663865
O O3 0.000000 0.868886 0.500000
O O4 0.059076 0.816350 0.767645
O O5 0.883242 0.604991 0.721602
O O6 0.835877 0.675338 0.445044
O O7 0.000000 0.655085 0.500000
O O8 0.156863 0.156863 0.996328
O O9 0.306032 0.152211 0.134513
O O10 0.252348 0.000000 0.000000
O O11 0.550915 0.176782 0.740176
O O12 0.500000 0.000000 0.780557
O O13 0.500000 0.112342 0.000000
O O14 0.697880 0.697880 0.271229
#
# Coordination Sequence:
#
# PCOD9554880 Si02
#       5
#     8   8   8   8   8
#     4  11  21  34  53  76 110 155 208 260 304 354
#     4  11  20  37  59  83 116 154 208 255 310 363
#     4  11  23  36  49  72 111 163 212 257 306 359
#     4  11  23  37  62  92 122 162 210 259 315 382
#     4  11  23  39  59  86 123 159 201 261 322 373
#
# _framework density 19.739467000000001
#
# number of rings (size 3 to 8) (size 9 to 14) (size 15 to 20)
#    0.000    1.000    6.000    2.400    5.600    2.400 
#    0.000    1.000    0.000    0.000    0.000    0.000 
#    0.000   22.000    0.000    0.000    0.000    0.000 
#
# Total GULP energy -222724.119569 kJ/mol
# GULP energy per Si atom -5568.102989 kJ/mol
# Density = 1.969454 g / cm^3
# Si number density = 19.739467 Si / 1000 Ang^3
#
#
#
# Elastic Constant Matrix: (Units=GPa)
#
#
# Indices 1 2 3 4 5 6 
#
# 1 -142.3605 267.1812 10.6055 0.0000 0.0000 0.0000
# 2 267.1812 -142.3605 10.6055 0.0000 0.0000 0.0000
# 3 10.6055 10.6055 62.2264 0.0000 0.0000 0.0000
# 4 0.0000 0.0000 0.0000 -58.8174 0.0000 0.0000
# 5 0.0000 0.0000 0.0000 0.0000 -58.8174 0.0000
# 6 0.0000 0.0000 0.0000 0.0000 0.0000 24.3417
#
#
#
# Elastic Compliance Matrix: (Units=1/GPa)
#
#
# Indices 1 2 3 4 5 6 
#
# 1 0.002904 0.005346 -0.001406 0.000000 0.000000 0.000000
# 2 0.005346 0.002904 -0.001406 0.000000 0.000000 0.000000
# 3 -0.001406 -0.001406 0.016550 0.000000 0.000000 0.000000
# 4 0.000000 0.000000 0.000000 -0.017002 0.000000 0.000000
# 5 0.000000 0.000000 0.000000 0.000000 -0.017002 0.000000
# 6 0.000000 0.000000 0.000000 0.000000 0.000000 0.041082
#
#
# Mechanical properties :
#
#
# Convention : Reuss Voigt Hill
#
# Bulk Modulus (GPa) = 36.46188 39.36556 37.91372
# Shear Modulus (GPa) = 149.20472 -52.71774 48.24349
#
# Velocity S-wave (km/s) = 8.70351 -5.17347 4.94906
# Velocity P-wave (km/s) = 10.93221 3.96238 7.20460
#
# Compressibility (1/GPa) = 0.02742590
#
# Stress axis : x y z
#
# Youngs Moduli (GPa) = 344.31183 344.31183 60.42420
#
# Poissons Ratio (x) = -1.84072 0.08497
# Poissons Ratio (y) = -1.84072 0.08497
# Poissons Ratio (z) = 0.48416 0.48416
#
# Static dielectric constant tensor:
#      x y z
#    x 1.745370 0.000000 0.000000 
#    y 0.000000 1.745370 0.000000 
#    z 0.000000 0.000000 1.754680 
# 
# From -- ./inp_files/1525.got.cif
#   From: 2010.05.17/outbox.cif.g08.bks.cpg/sg111_1_cif.got.tgz:1525.got - 2010.05.20 10:56:05.
