data_PCOD9554857
_publ_section_title
;
Structure prediction by ZEFSAII (Michael W. Deem and Ramdas Pophale) SiO2 
 PCOD9554857
Probable space group: P -4 2 M 
;
_chemical_formula_sum "Si O2"
_cell_formula_units_Z 32
_cell_length_a 14.421610
_cell_length_b 14.421610
_cell_length_c 8.208519
_cell_angle_alpha 90.000000
_cell_angle_beta 90.000000
_cell_angle_gamma 90.000000
_cell_volume 1707.231053
_symmetry_space_group_name_H-M "P -4 2 M "
_symmetry_group_IT_number 111
_symmetry_cell_setting 'tetragonal'
loop_
_space_group_symop_operation_xyz
x,y,z
y,-x,-z
-x,-y,z
-y,x,-z
x,-y,-z
-x,y,-z
-y,-x,z
y,x,z
loop_
_atom_site_type_symbol
_atom_site_label
_atom_site_fract_x
_atom_site_fract_y
_atom_site_fract_z
Si Si1 0.458301 0.308933 0.178800
Si Si2 0.366544 0.781625 0.331077
Si Si3 0.683106 0.830920 0.299378
Si Si4 0.983191 0.605946 0.807157
O O1 0.397982 0.397982 0.231018
O O2 0.541971 0.278275 0.294408
O O3 0.386338 0.222805 0.176775
O O4 0.500000 0.324753 0.000000
O O5 0.279545 0.720456 0.276992
O O6 0.354123 0.803794 0.521640
O O7 0.370694 0.878467 0.237505
O O8 0.783886 0.783886 0.281367
O O9 0.672035 0.939865 0.273525
O O10 0.000000 0.500000 0.750351
O O11 0.000000 0.608923 0.000000
#
# Coordination Sequence:
#
# PCOD9554857 Si02
#       4
#     8   8   8   8
#     4  11  22  36  54  79 114 157 198 236 281 334
#     4  11  23  38  59  86 116 152 194 238 287 341
#     4  10  22  39  60  86 114 149 194 242 288 339
#     4  11  22  37  61  88 114 151 193 236 290 340
#
# _framework density 18.743801000000001
#
# number of rings (size 3 to 8) (size 9 to 14) (size 15 to 20)
#    0.000    1.250    2.500    3.750    0.000    5.750 
#    0.000    1.250    0.000    9.750    0.000    5.250 
#    0.000    0.000    0.000    0.000    0.000    0.000 
#
# Total GULP energy -178880.089025 kJ/mol
# GULP energy per Si atom -5590.002782 kJ/mol
# Density = 1.870114 g / cm^3
# Si number density = 18.743801 Si / 1000 Ang^3
#
#
#
# Elastic Constant Matrix: (Units=GPa)
#
#
# Indices 1 2 3 4 5 6 
#
# 1 131.3935 84.0151 34.8225 0.0000 0.0000 0.0000
# 2 84.0151 131.3935 34.8242 0.0000 0.0000 0.0000
# 3 34.8225 34.8242 38.4542 0.0000 0.0000 0.0000
# 4 0.0000 0.0000 0.0000 26.4310 0.0000 0.0000
# 5 0.0000 0.0000 0.0000 0.0000 26.4316 0.0000
# 6 0.0000 0.0000 0.0000 0.0000 0.0000 21.5926
#
#
#
# Elastic Compliance Matrix: (Units=1/GPa)
#
#
# Indices 1 2 3 4 5 6 
#
# 1 0.013835 -0.007271 -0.005944 0.000000 0.000000 0.000000
# 2 -0.007271 0.013836 -0.005945 0.000000 0.000000 0.000000
# 3 -0.005944 -0.005945 0.036771 0.000000 0.000000 0.000000
# 4 0.000000 0.000000 0.000000 0.037834 0.000000 0.000000
# 5 0.000000 0.000000 0.000000 0.000000 0.037834 0.000000
# 6 0.000000 0.000000 0.000000 0.000000 0.000000 0.046312
#
#
# Mechanical properties :
#
#
# Convention : Reuss Voigt Hill
#
# Bulk Modulus (GPa) = 38.28192 67.61832 52.95012
# Shear Modulus (GPa) = 21.41782 24.72965 23.07373
#
# Velocity S-wave (km/s) = 3.38399 3.63623 3.51238
# Velocity P-wave (km/s) = 5.97802 7.33368 6.69027
#
# Compressibility (1/GPa) = 0.02612199
#
# Stress axis : x y z
#
# Youngs Moduli (GPa) = 72.27890 72.27662 27.19501
#
# Poissons Ratio (x) = 0.52554 0.16164
# Poissons Ratio (y) = 0.52555 0.16168
# Poissons Ratio (z) = 0.42962 0.42970
#
# Static dielectric constant tensor:
#      x y z
#    x 1.640590 0.000000 0.000000 
#    y 0.000000 1.640590 0.000000 
#    z 0.000000 0.000000 1.681450 
# 
# From -- ./inp_files/1298.got.cif
#   From: 2010.05.17/outbox.cif.g08.bks.cpg/sg111_1_cif.got.tgz:1298.got - 2010.05.20 10:56:05.
