data_PCOD9554478
_publ_section_title
;
Structure prediction by ZEFSAII (Michael W. Deem and Ramdas Pophale) SiO2 
 PCOD9554478
Probable space group: I 41 C D
;
_chemical_formula_sum "Si O2"
_cell_formula_units_Z 120
_cell_length_a 14.902141
_cell_length_b 14.902141
_cell_length_c 26.246084
_cell_angle_alpha 90.000000
_cell_angle_beta 90.000000
_cell_angle_gamma 90.000000
_cell_volume 5828.567777
_symmetry_space_group_name_H-M "I 41 C D"
_symmetry_group_IT_number 110
_symmetry_cell_setting 'tetragonal'
loop_
_space_group_symop_operation_xyz
x,y,z
-y,1/2+x,1/4+z
-x,-y,z
y,1/2-x,1/4+z
-x,y,1/2+z
x,-y,1/2+z
1/2-y,-x,1/4+z
1/2+y,x,1/4+z
1/2+x,1/2+y,1/2+z
1/2-y,x,3/4+z
1/2-x,1/2-y,1/2+z
1/2+y,-x,3/4+z
1/2-x,1/2+y,z
1/2+x,1/2-y,z
-y,1/2-x,3/4+z
y,1/2+x,3/4+z
loop_
_atom_site_type_symbol
_atom_site_label
_atom_site_fract_x
_atom_site_fract_y
_atom_site_fract_z
Si Si1 0.500000 0.500000 0.260280
Si Si2 0.105073 0.525507 0.166759
Si Si3 0.376945 0.362685 0.815022
Si Si4 0.683854 0.218396 0.803900
Si Si5 0.565901 0.768310 0.727358
Si Si6 0.712595 0.159184 0.157562
Si Si7 0.084366 0.953632 0.023931
Si Si8 0.102070 0.166670 0.710803
O O1 0.577163 0.453131 0.294082
O O2 0.553498 0.575245 0.228382
O O3 0.138089 0.597863 0.124804
O O4 0.164663 0.437115 0.159134
O O5 0.109146 0.558383 0.225431
O O6 0.000000 0.500000 0.157763
O O7 0.273262 0.342212 0.803094
O O8 0.425029 0.288833 0.779004
O O9 0.695254 0.286536 0.850420
O O10 0.600921 0.149954 0.809763
O O11 0.652040 0.278484 0.756234
O O12 0.656096 0.776910 0.695201
O O13 0.535215 0.864807 0.746422
O O14 0.482451 0.728938 0.695144
O O15 0.816651 0.151732 0.172630
O O16 0.000000 0.000000 0.049869
#
# Coordination Sequence:
#
# PCOD9554478 Si02
#       8
#     8  16  16  16  16  16  16  16
#     4  10  22  42  70  88 134 174 228 272 340 416
#     4  11  22  38  69  99 132 184 234 275 343 424
#     4  11  23  41  66  99 130 176 222 282 336 408
#     4  11  26  40  67  99 136 172 223 287 339 411
#     4  10  21  42  66  94 137 173 222 289 338 410
#     4  12  23  44  65 100 136 180 229 286 349 415
#     4  10  21  41  66  94 130 180 226 275 336 405
#     4  10  24  45  66  99 133 175 226 285 347 404
#
# _framework density 20.588249000000001
#
# number of rings (size 3 to 8) (size 9 to 14) (size 15 to 20)
#    0.000    1.333    4.667    2.400    5.600    0.000 
#    3.600    0.000    0.000    0.000    0.000    0.000 
#    0.000    0.000    0.000    0.000    0.000    0.000 
#
# Total GULP energy -334553.147523 kJ/mol
# GULP energy per Si atom -5575.885792 kJ/mol
# Density = 2.054139 g / cm^3
# Si number density = 20.588249 Si / 1000 Ang^3
#
#
#
# Elastic Constant Matrix: (Units=GPa)
#
#
# Indices 1 2 3 4 5 6 
#
# 1 83.7992 10.7176 18.1803 0.0000 0.0000 0.0000
# 2 10.7176 83.7992 18.1803 0.0000 0.0000 0.0000
# 3 18.1803 18.1803 53.0204 0.0000 0.0000 0.0000
# 4 0.0000 0.0000 0.0000 16.7398 0.0000 0.0000
# 5 0.0000 0.0000 0.0000 0.0000 16.7398 0.0000
# 6 0.0000 0.0000 0.0000 0.0000 0.0000 33.9760
#
#
#
# Elastic Compliance Matrix: (Units=1/GPa)
#
#
# Indices 1 2 3 4 5 6 
#
# 1 0.012936 -0.000748 -0.004179 0.000000 0.000000 0.000000
# 2 -0.000748 0.012936 -0.004179 0.000000 0.000000 0.000000
# 3 -0.004179 -0.004179 0.021727 0.000000 0.000000 0.000000
# 4 0.000000 0.000000 0.000000 0.059738 0.000000 0.000000
# 5 0.000000 0.000000 0.000000 0.000000 0.059738 0.000000
# 6 0.000000 0.000000 0.000000 0.000000 0.000000 0.029433
#
#
# Mechanical properties :
#
#
# Convention : Reuss Voigt Hill
#
# Bulk Modulus (GPa) = 34.03002 34.97504 34.50253
# Shear Modulus (GPa) = 22.27039 25.06049 23.66544
#
# Velocity S-wave (km/s) = 3.29249 3.49266 3.39405
# Velocity P-wave (km/s) = 5.56945 5.76972 5.67047
#
# Compressibility (1/GPa) = 0.02938582
#
# Stress axis : x y z
#
# Youngs Moduli (GPa) = 77.30609 77.30609 46.02645
#
# Poissons Ratio (x) = 0.05780 0.19235
# Poissons Ratio (y) = 0.05780 0.19235
# Poissons Ratio (z) = 0.32307 0.32307
#
# Static dielectric constant tensor:
#      x y z
#    x 1.754190 0.000000 0.000000 
#    y 0.000000 1.754190 0.000000 
#    z 0.000000 0.000000 1.775470 
# 
# From -- ./inp_files/3291.got.cif
#   From: 2010.05.17/outbox.cif.g08.bks.cpg/sg110_2_cif.got.tgz:3291.got - 2010.05.20 10:54:03.
