data_PCOD9554916
_publ_section_title
;
Structure prediction by ZEFSAII (Michael W. Deem and Ramdas Pophale) SiO2 
 PCOD9554916
Probable space group: P -4 2 C
;
_chemical_formula_sum "Si O2"
_cell_formula_units_Z 36
_cell_length_a 10.935995
_cell_length_b 10.935995
_cell_length_c 14.309298
_cell_angle_alpha 90.000000
_cell_angle_beta 90.000000
_cell_angle_gamma 90.000000
_cell_volume 1711.334612
_symmetry_space_group_name_H-M "P -4 2 C"
_symmetry_group_IT_number 112
_symmetry_cell_setting 'tetragonal'
loop_
_space_group_symop_operation_xyz
x,y,z
y,-x,-z
-x,-y,z
-y,x,-z
x,-y,1/2-z
-x,y,1/2-z
-y,-x,1/2+z
y,x,1/2+z
loop_
_atom_site_type_symbol
_atom_site_label
_atom_site_fract_x
_atom_site_fract_y
_atom_site_fract_z
Si Si1 0.286222 0.374138 0.089572
Si Si2 0.358134 0.148387 0.395695
Si Si3 0.639956 0.872332 0.100159
Si Si4 0.187268 0.628791 0.122282
Si Si5 0.500000 0.500000 0.000000
Si Si6 0.000000 0.500000 0.250000
O O1 0.285101 0.243395 0.138687
O O2 0.263679 0.503527 0.136789
O O3 0.425396 0.394610 0.052825
O O4 0.188584 0.365223 0.005231
O O5 0.500139 0.143092 0.365792
O O6 0.270634 0.253864 0.355807
O O7 0.314130 0.009231 0.381474
O O8 0.640569 0.853480 0.986686
O O9 0.072675 0.594418 0.184527
#
# Coordination Sequence:
#
# PCOD9554916 Si02
#       6
#     8   8   8   8   2   2
#     4  10  15  26  48  79 110 137 172 231 290 333
#     4   9  15  26  47  79 108 130 171 229 283 327
#     4   9  16  28  53  85 109 131 169 233 297 333
#     4  10  19  32  50  76 109 150 185 219 281 335
#     4  12  12  24  48  86 108 144 156 232 306 348
#     4  12  24  36  52  72 112 160 200 224 254 360
#
# _framework density 21.036211999999999
#
# number of rings (size 3 to 8) (size 9 to 14) (size 15 to 20)
#    0.000    2.222    6.667    2.667    0.000    0.000 
#    0.000    0.000    0.000   31.333    0.000    3.111 
#    0.000   10.667    0.000    0.000    0.000    0.000 
#
# Total GULP energy -200424.272100 kJ/mol
# GULP energy per Si atom -5567.340892 kJ/mol
# Density = 2.098833 g / cm^3
# Si number density = 21.036212 Si / 1000 Ang^3
#
#
#
# Elastic Constant Matrix: (Units=GPa)
#
#
# Indices 1 2 3 4 5 6 
#
# 1 159.4280 53.5338 21.5023 0.0000 0.0000 0.0000
# 2 53.5338 159.4280 21.5023 0.0000 0.0000 0.0000
# 3 21.5023 21.5023 68.7214 0.0000 0.0000 0.0000
# 4 0.0000 0.0000 0.0000 -11.1626 0.0000 0.0000
# 5 0.0000 0.0000 0.0000 0.0000 -11.1626 0.0000
# 6 0.0000 0.0000 0.0000 0.0000 0.0000 19.7166
#
#
#
# Elastic Compliance Matrix: (Units=1/GPa)
#
#
# Indices 1 2 3 4 5 6 
#
# 1 0.007228 -0.002216 -0.001568 0.000000 0.000000 0.000000
# 2 -0.002216 0.007228 -0.001568 0.000000 0.000000 0.000000
# 3 -0.001568 -0.001568 0.015533 0.000000 0.000000 0.000000
# 4 0.000000 0.000000 0.000000 -0.089585 0.000000 0.000000
# 5 0.000000 0.000000 0.000000 0.000000 -0.089585 0.000000
# 6 0.000000 0.000000 0.000000 0.000000 0.000000 0.050719
#
#
# Mechanical properties :
#
#
# Convention : Reuss Voigt Hill
#
# Bulk Modulus (GPa) = 51.85543 64.51714 58.18629
# Shear Modulus (GPa) = -61.47766 18.88089 -21.29839
#
# Velocity S-wave (km/s) = -5.41185 2.99915 -3.18537
# Velocity P-wave (km/s) = 3.78771 6.53677 3.76713
#
# Compressibility (1/GPa) = 0.01928438
#
# Stress axis : x y z
#
# Youngs Moduli (GPa) = 138.35306 138.35306 64.37935
#
# Poissons Ratio (x) = 0.30652 0.10097
# Poissons Ratio (y) = 0.30652 0.10097
# Poissons Ratio (z) = 0.21698 0.21698
#
# Static dielectric constant tensor:
#      x y z
#    x 1.817100 0.000000 0.000000 
#    y 0.000000 1.817100 0.000000 
#    z 0.000000 0.000000 1.844490 
# 
# From -- ./inp_files/3247.got.cif
#   From: 2010.05.17/outbox.cif.g08.bks.cpg/sg112_2_cif.got.tgz:3247.got - 2010.05.20 10:59:04.
