data_PCOD9554961
_publ_section_title
;
Structure prediction by ZEFSAII (Michael W. Deem and Ramdas Pophale) SiO2 
 PCOD9554961
Probable space group: P -4 2 C
;
_chemical_formula_sum "Si O2"
_cell_formula_units_Z 56
_cell_length_a 11.991453
_cell_length_b 11.991453
_cell_length_c 19.179505
_cell_angle_alpha 90.000000
_cell_angle_beta 90.000000
_cell_angle_gamma 90.000000
_cell_volume 2757.915868
_symmetry_space_group_name_H-M "P -4 2 C"
_symmetry_group_IT_number 112
_symmetry_cell_setting 'tetragonal'
loop_
_space_group_symop_operation_xyz
x,y,z
y,-x,-z
-x,-y,z
-y,x,-z
x,-y,1/2-z
-x,y,1/2-z
-y,-x,1/2+z
y,x,1/2+z
loop_
_atom_site_type_symbol
_atom_site_label
_atom_site_fract_x
_atom_site_fract_y
_atom_site_fract_z
Si Si1 0.266265 0.377141 0.738030
Si Si2 0.109205 0.739148 0.119475
Si Si3 0.872137 0.524381 0.461068
Si Si4 0.151509 0.628018 0.258048
Si Si5 0.070509 0.742088 0.681816
Si Si6 0.662530 0.138511 0.402515
Si Si7 0.713600 0.864549 0.584019
O O1 0.307469 0.500000 0.750000
O O2 0.355143 0.282966 0.755921
O O3 0.157847 0.345029 0.784628
O O4 0.223576 0.369237 0.658813
O O5 0.169245 0.629970 0.084899
O O6 0.089939 0.697371 0.198548
O O7 0.174680 0.854130 0.134493
O O8 0.994107 0.749118 0.075870
O O9 0.869021 0.569311 0.539049
O O10 0.824543 0.399895 0.454050
O O11 0.000000 0.500000 0.437701
O O12 0.121322 0.500000 0.250000
O O13 0.139721 0.678790 0.334605
O O14 0.000000 0.789064 0.750000
O O15 0.980161 0.684740 0.632741
O O16 0.779225 0.187428 0.431821
#
# Coordination Sequence:
#
# PCOD9554961 Si02
#       7
#     8   8   8   8   8   8   8
#     4   9  20  36  56  86 114 149 197 248 301 356
#     4  10  20  35  58  90 120 155 191 243 297 358
#     4  10  22  37  58  86 113 159 206 241 292 359
#     4  10  18  33  58  83 117 150 188 249 299 349
#     4   9  20  37  60  91 121 155 200 242 304 364
#     4  10  22  38  57  85 120 155 195 250 290 358
#     4  10  21  38  57  87 118 149 202 238 294 360
#
# _framework density 20.305187
#
# number of rings (size 3 to 8) (size 9 to 14) (size 15 to 20)
#    0.000    2.286    1.429    1.286    2.000    5.714 
#    2.571    3.571    0.000    3.857    0.000    0.000 
#    0.000    0.000    0.000    0.000    0.000    0.000 
#
# Total GULP energy -312064.213665 kJ/mol
# GULP energy per Si atom -5572.575244 kJ/mol
# Density = 2.025897 g / cm^3
# Si number density = 20.305187 Si / 1000 Ang^3
#
#
#
# Elastic Constant Matrix: (Units=GPa)
#
#
# Indices 1 2 3 4 5 6 
#
# 1 63.1706 10.2931 21.1028 0.0000 0.0000 0.0000
# 2 10.2931 63.1706 21.1028 0.0000 0.0000 0.0000
# 3 21.1028 21.1028 79.6469 0.0000 0.0000 0.0000
# 4 0.0000 0.0000 0.0000 -25.0703 0.0000 0.0000
# 5 0.0000 0.0000 0.0000 0.0000 -25.0703 0.0000
# 6 0.0000 0.0000 0.0000 0.0000 0.0000 -40.9213
#
#
#
# Elastic Compliance Matrix: (Units=1/GPa)
#
#
# Indices 1 2 3 4 5 6 
#
# 1 0.017484 -0.001428 -0.004254 0.000000 0.000000 0.000000
# 2 -0.001428 0.017484 -0.004254 0.000000 0.000000 0.000000
# 3 -0.004254 -0.004254 0.014810 0.000000 0.000000 0.000000
# 4 0.000000 0.000000 0.000000 -0.039888 0.000000 0.000000
# 5 0.000000 0.000000 0.000000 0.000000 -0.039888 0.000000
# 6 0.000000 0.000000 0.000000 0.000000 0.000000 -0.024437
#
#
# Mechanical properties :
#
#
# Convention : Reuss Voigt Hill
#
# Bulk Modulus (GPa) = 33.43864 34.55394 33.99629
# Shear Modulus (GPa) = -203.29744 -7.97977 -105.63861
#
# Velocity S-wave (km/s) = -10.01690 -1.98455 -7.22069
# Velocity P-wave (km/s) = 10.82962 3.43555 7.26215
#
# Compressibility (1/GPa) = 0.02990552
#
# Stress axis : x y z
#
# Youngs Moduli (GPa) = 57.19538 57.19538 67.52310
#
# Poissons Ratio (x) = 0.08166 0.28726
# Poissons Ratio (y) = 0.08166 0.28726
# Poissons Ratio (z) = 0.24332 0.24332
#
# Static dielectric constant tensor:
#      x y z
#    x 1.758450 0.000000 0.000000 
#    y 0.000000 1.758450 0.000000 
#    z 0.000000 0.000000 1.767560 
# 
# From -- ./inp_files/4915.got.cif
#   From: 2010.05.17/outbox.cif.g08.bks.cpg/sg112_3_cif.got.tgz:4915.got - 2010.05.20 10:59:04.
