data_PCOD9554821
_publ_section_title
;
Structure prediction by ZEFSAII (Michael W. Deem and Ramdas Pophale) SiO2 
 PCOD9554821
Probable space group: P -4 2 M 
;
_chemical_formula_sum "Si O2"
_cell_formula_units_Z 56
_cell_length_a 15.398114
_cell_length_b 15.398114
_cell_length_c 11.379757
_cell_angle_alpha 90.000000
_cell_angle_beta 90.000000
_cell_angle_gamma 90.000000
_cell_volume 2698.162174
_symmetry_space_group_name_H-M "P -4 2 M "
_symmetry_group_IT_number 111
_symmetry_cell_setting 'tetragonal'
loop_
_space_group_symop_operation_xyz
x,y,z
y,-x,-z
-x,-y,z
-y,x,-z
x,-y,-z
-x,y,-z
-y,-x,z
y,x,z
loop_
_atom_site_type_symbol
_atom_site_label
_atom_site_fract_x
_atom_site_fract_y
_atom_site_fract_z
Si Si1 0.715412 0.986214 0.863436
Si Si2 0.659267 0.795206 0.815242
Si Si3 0.133061 0.723924 0.547664
Si Si4 0.868094 0.594811 0.244776
Si Si5 0.143863 0.998331 0.332129
Si Si6 0.719864 0.415230 0.943392
Si Si7 0.843800 0.438671 0.393704
O O1 0.669370 0.896732 0.831928
O O2 0.646932 0.059043 0.824802
O O3 0.803476 0.985410 0.787678
O O4 0.734470 0.000000 0.000000
O O5 0.751379 0.751379 0.791635
O O6 0.598931 0.777170 0.702534
O O7 0.626909 0.761646 0.940319
O O8 0.211392 0.788609 0.512568
O O9 0.162462 0.666089 0.659398
O O10 0.052567 0.784394 0.590261
O O11 0.113866 0.648916 0.449899
O O12 0.794027 0.568303 0.152359
O O13 0.897397 0.509376 0.317150
O O14 0.067809 0.067809 0.317613
O O15 0.090985 0.909016 0.368897
O O16 0.650187 0.349814 0.891586
O O17 0.677504 0.500000 0.000000
O O18 0.810174 0.500000 0.500000
#
# Coordination Sequence:
#
# PCOD9554821 Si02
#       7
#     8   8   8   8   8   8   8
#     4  11  22  37  60  91 127 170 213 265 327 398
#     4  11  23  39  62  94 131 167 213 271 331 399
#     4   9  18  35  62  90 125 170 218 269 325 384
#     4  10  20  38  58  93 130 166 214 265 332 394
#     4   9  19  36  58  88 127 170 221 273 320 377
#     4  11  22  39  63  91 129 172 215 264 331 408
#     4  10  21  39  63  90 127 165 218 270 331 392
#
# _framework density 20.754867000000001
#
# number of rings (size 3 to 8) (size 9 to 14) (size 15 to 20)
#    0.000    1.857    2.857    1.286    0.000    2.429 
#    0.000   12.143    0.000    2.571    0.000    4.000 
#    0.000    0.000    0.000    0.000    0.000    0.000 
#
# Total GULP energy -312011.850079 kJ/mol
# GULP energy per Si atom -5571.640180 kJ/mol
# Density = 2.070763 g / cm^3
# Si number density = 20.754867 Si / 1000 Ang^3
#
#
#
# Elastic Constant Matrix: (Units=GPa)
#
#
# Indices 1 2 3 4 5 6 
#
# 1 103.3755 44.4091 44.0542 0.0000 0.0000 0.0000
# 2 44.4091 103.3772 44.0532 0.0000 0.0000 0.0000
# 3 44.0542 44.0532 102.0365 0.0000 0.0000 0.0000
# 4 0.0000 0.0000 0.0000 27.4729 0.0000 0.0000
# 5 0.0000 0.0000 0.0000 0.0000 27.4730 0.0000
# 6 0.0000 0.0000 0.0000 0.0000 0.0000 21.0394
#
#
#
# Elastic Compliance Matrix: (Units=1/GPa)
#
#
# Indices 1 2 3 4 5 6 
#
# 1 0.013035 -0.003923 -0.003934 0.000000 0.000000 0.000000
# 2 -0.003923 0.013035 -0.003934 0.000000 0.000000 0.000000
# 3 -0.003934 -0.003934 0.013197 0.000000 0.000000 0.000000
# 4 0.000000 0.000000 0.000000 0.036399 0.000000 0.000000
# 5 0.000000 0.000000 0.000000 0.000000 0.036399 0.000000
# 6 0.000000 0.000000 0.000000 0.000000 0.000000 0.047530
#
#
# Mechanical properties :
#
#
# Convention : Reuss Voigt Hill
#
# Bulk Modulus (GPa) = 63.75441 63.75804 63.75623
# Shear Modulus (GPa) = 26.53818 26.94858 26.74338
#
# Velocity S-wave (km/s) = 3.57970 3.60727 3.59351
# Velocity P-wave (km/s) = 6.91883 6.93802 6.92843
#
# Compressibility (1/GPa) = 0.01568519
#
# Stress axis : x y z
#
# Youngs Moduli (GPa) = 76.71378 76.71610 75.77234
#
# Poissons Ratio (x) = 0.30098 0.29810
# Poissons Ratio (y) = 0.30097 0.29808
# Poissons Ratio (z) = 0.30181 0.30179
#
# Static dielectric constant tensor:
#      x y z
#    x 1.756100 0.000000 0.000000 
#    y 0.000000 1.756100 0.000000 
#    z 0.000000 0.000000 1.789010 
# 
# From -- ./inp_files/2819.got.cif
#   From: 2010.05.17/outbox.cif.g08.bks.cpg/sg111_2_cif.got.tgz:2819.got - 2010.05.20 10:56:05.
