data_PCOD9554794
_publ_section_title
;
Structure prediction by ZEFSAII (Michael W. Deem and Ramdas Pophale) SiO2 
 PCOD9554794
Probable space group: P -4 2 M 
;
_chemical_formula_sum "Si O2"
_cell_formula_units_Z 32
_cell_length_a 16.379327
_cell_length_b 16.379327
_cell_length_c 7.135293
_cell_angle_alpha 90.000000
_cell_angle_beta 90.000000
_cell_angle_gamma 90.000000
_cell_volume 1914.273195
_symmetry_space_group_name_H-M "P -4 2 M "
_symmetry_group_IT_number 111
_symmetry_cell_setting 'tetragonal'
loop_
_space_group_symop_operation_xyz
x,y,z
y,-x,-z
-x,-y,z
-y,x,-z
x,-y,-z
-x,y,-z
-y,-x,z
y,x,z
loop_
_atom_site_type_symbol
_atom_site_label
_atom_site_fract_x
_atom_site_fract_y
_atom_site_fract_z
Si Si1 0.740522 0.868199 0.229594
Si Si2 0.153745 0.715916 0.329153
Si Si3 0.408033 0.097671 0.965831
Si Si4 0.979254 0.148654 0.277613
O O1 0.785631 0.785631 0.177385
O O2 0.717986 0.864617 0.449243
O O3 0.807642 0.940098 0.197623
O O4 0.658449 0.875214 0.116145
O O5 0.243433 0.756568 0.300161
O O6 0.129820 0.631406 0.229065
O O7 0.089332 0.782298 0.252653
O O8 0.500000 0.127520 0.000000
O O9 0.409786 0.000000 0.000000
O O10 0.935392 0.064609 0.213694
O O11 0.000000 0.137633 0.500000
#
# Coordination Sequence:
#
# PCOD9554794 Si02
#       4
#     8   8   8   8
#     4  10  20  34  53  72  97 134 171 212 259 297
#     4   9  18  34  53  72  99 131 166 213 254 291
#     4  11  22  34  50  71  99 135 174 214 249 292
#     4   9  16  27  45  69  96 129 170 211 249 286
#
# _framework density 16.716529000000001
#
# number of rings (size 3 to 8) (size 9 to 14) (size 15 to 20)
#    0.000    2.250    2.500    3.000    0.000    2.750 
#    0.000    2.500    0.000    0.000    0.000    0.000 
#    0.000    8.000    0.000   22.000    0.000    0.000 
#
# Total GULP energy -178295.507466 kJ/mol
# GULP energy per Si atom -5571.734608 kJ/mol
# Density = 1.667848 g / cm^3
# Si number density = 16.716529 Si / 1000 Ang^3
#
#
#
# Elastic Constant Matrix: (Units=GPa)
#
#
# Indices 1 2 3 4 5 6 
#
# 1 97.6352 71.4423 36.1722 0.0000 0.0000 0.0000
# 2 71.4423 97.6379 36.1734 0.0000 0.0000 0.0000
# 3 36.1722 36.1734 60.0771 0.0000 0.0000 0.0000
# 4 0.0000 0.0000 0.0000 15.5542 0.0000 0.0000
# 5 0.0000 0.0000 0.0000 0.0000 15.5534 0.0000
# 6 0.0000 0.0000 0.0000 0.0000 0.0000 16.4201
#
#
#
# Elastic Compliance Matrix: (Units=1/GPa)
#
#
# Indices 1 2 3 4 5 6 
#
# 1 0.023072 -0.015105 -0.004797 0.000000 0.000000 0.000000
# 2 -0.015105 0.023071 -0.004797 0.000000 0.000000 0.000000
# 3 -0.004797 -0.004797 0.022422 0.000000 0.000000 0.000000
# 4 0.000000 0.000000 0.000000 0.064291 0.000000 0.000000
# 5 0.000000 0.000000 0.000000 0.000000 0.064294 0.000000
# 6 0.000000 0.000000 0.000000 0.000000 0.000000 0.060901
#
#
# Mechanical properties :
#
#
# Convention : Reuss Voigt Hill
#
# Bulk Modulus (GPa) = 52.17051 60.32510 56.24780
# Shear Modulus (GPa) = 15.93175 16.94301 16.43738
#
# Velocity S-wave (km/s) = 3.09051 3.18708 3.13917
# Velocity P-wave (km/s) = 6.63413 7.05044 6.84545
#
# Compressibility (1/GPa) = 0.01916792
#
# Stress axis : x y z
#
# Youngs Moduli (GPa) = 43.34287 43.34363 44.59943
#
# Poissons Ratio (x) = 0.65469 0.21393
# Poissons Ratio (y) = 0.65468 0.21395
# Poissons Ratio (z) = 0.20790 0.20793
#
# Static dielectric constant tensor:
#      x y z
#    x 1.555730 0.000000 0.000000 
#    y 0.000000 1.555730 0.000000 
#    z 0.000000 0.000000 1.654740 
# 
# From -- ./inp_files/1292.got.cif
#   From: 2010.05.17/outbox.cif.g08.bks.cpg/sg111_1_cif.got.tgz:1292.got - 2010.05.20 10:56:05.
