data_PCOD9554171
_publ_section_title
;
Structure prediction by ZEFSAII (Michael W. Deem and Ramdas Pophale) SiO2 
 PCOD9554171
Probable space group: I 41 M D
;
_chemical_formula_sum "Si O2"
_cell_formula_units_Z 112
_cell_length_a 23.790933
_cell_length_b 23.790933
_cell_length_c 10.361750
_cell_angle_alpha 90.000000
_cell_angle_beta 90.000000
_cell_angle_gamma 90.000000
_cell_volume 5864.838502
_symmetry_space_group_name_H-M "I 41 M D"
_symmetry_group_IT_number 109
_symmetry_cell_setting 'tetragonal'
loop_
_space_group_symop_operation_xyz
x,y,z
-y,1/2+x,1/4+z
-x,-y,z
y,1/2-x,1/4+z
-x,y,z
x,-y,z
-y,1/2-x,1/4+z
y,1/2+x,1/4+z
1/2+x,1/2+y,1/2+z
1/2-y,x,3/4+z
1/2-x,1/2-y,1/2+z
1/2+y,-x,3/4+z
1/2-x,1/2+y,1/2+z
1/2+x,1/2-y,1/2+z
1/2-y,-x,3/4+z
1/2+y,x,3/4+z
loop_
_atom_site_type_symbol
_atom_site_label
_atom_site_fract_x
_atom_site_fract_y
_atom_site_fract_z
Si Si1 0.772517 0.282923 0.494860
Si Si2 0.436437 0.211346 0.414847
Si Si3 0.829615 0.433920 0.756104
Si Si4 0.819323 0.124972 0.921628
Si Si5 0.128594 0.063510 0.424950
Si Si6 0.935574 0.162583 0.812388
Si Si7 0.295776 0.398292 0.696816
O O1 0.768506 0.268797 0.645304
O O2 0.719147 0.321024 0.456942
O O3 0.832645 0.311271 0.470510
O O4 0.500000 0.203133 0.462170
O O5 0.397528 0.205545 0.538147
O O6 0.426915 0.166367 0.302429
O O7 0.432652 0.272031 0.349800
O O8 0.819969 0.500000 0.736648
O O9 0.884163 0.413871 0.677122
O O10 0.771282 0.403670 0.718517
O O11 0.841704 0.425468 0.908796
O O12 0.885053 0.134763 0.892395
O O13 0.810997 0.087394 0.049502
O O14 0.169906 0.067374 0.302441
O O15 0.104618 0.000000 0.431493
O O16 0.000000 0.143055 0.838609
#
# Coordination Sequence:
#
# PCOD9554171 Si02
#       7
#    16  16  16  16  16  16  16
#     4  10  22  33  52  85 122 162 200 241 307 373
#     4  10  20  35  58  86 114 156 205 248 306 364
#     4  11  23  40  65  93 125 170 215 263 314 369
#     4  11  22  38  58  89 126 162 202 255 315 368
#     4  11  22  39  63  90 121 162 212 260 309 374
#     4  10  21  38  62  91 125 167 213 254 310 382
#     4  11  23  39  59  93 130 161 209 256 319 388
#
# _framework density 19.096858999999998
#
# number of rings (size 3 to 8) (size 9 to 14) (size 15 to 20)
#    0.000    1.429    2.857    3.857    2.000    3.714 
#    0.000    2.143    0.000    0.429    0.000    0.000 
#    0.000    0.000    0.000    0.000    0.000    0.000 
#
# Total GULP energy -312372.638325 kJ/mol
# GULP energy per Si atom -5578.082827 kJ/mol
# Density = 1.905339 g / cm^3
# Si number density = 19.096859 Si / 1000 Ang^3
#
#
#
# Elastic Constant Matrix: (Units=GPa)
#
#
# Indices 1 2 3 4 5 6 
#
# 1 71.0677 23.4589 34.2310 0.0000 0.0000 0.0000
# 2 23.4589 71.0677 34.2310 0.0000 0.0000 0.0000
# 3 34.2310 34.2310 54.6094 0.0000 0.0000 0.0000
# 4 0.0000 0.0000 0.0000 15.3462 0.0000 0.0000
# 5 0.0000 0.0000 0.0000 0.0000 15.3462 0.0000
# 6 0.0000 0.0000 0.0000 0.0000 0.0000 20.7785
#
#
#
# Elastic Compliance Matrix: (Units=1/GPa)
#
#
# Indices 1 2 3 4 5 6 
#
# 1 0.020190 -0.000815 -0.012145 0.000000 0.000000 0.000000
# 2 -0.000815 0.020190 -0.012145 0.000000 0.000000 0.000000
# 3 -0.012145 -0.012145 0.033538 0.000000 0.000000 0.000000
# 4 0.000000 0.000000 0.000000 0.065163 0.000000 0.000000
# 5 0.000000 0.000000 0.000000 0.000000 0.065163 0.000000
# 6 0.000000 0.000000 0.000000 0.000000 0.000000 0.048127
#
#
# Mechanical properties :
#
#
# Convention : Reuss Voigt Hill
#
# Bulk Modulus (GPa) = 42.17986 42.28739 42.23363
# Shear Modulus (GPa) = 16.10401 17.28244 16.69323
#
# Velocity S-wave (km/s) = 2.90708 3.01157 2.95978
# Velocity P-wave (km/s) = 5.77957 5.85529 5.81755
#
# Compressibility (1/GPa) = 0.02370799
#
# Stress axis : x y z
#
# Youngs Moduli (GPa) = 49.52973 49.52973 29.81713
#
# Poissons Ratio (x) = 0.04035 0.36213
# Poissons Ratio (y) = 0.04035 0.36213
# Poissons Ratio (z) = 0.60154 0.60154
#
# Static dielectric constant tensor:
#      x y z
#    x 1.681460 0.000000 0.000000 
#    y 0.000000 1.681460 0.000000 
#    z 0.000000 0.000000 1.681300 
# 
# From -- ./inp_files/2155.got.cif
#   From: 2010.05.17/outbox.cif.g08.bks.cpg/sg109_2_cif.got.tgz:2155.got - 2010.05.20 10:51:12.
