data_PCOD9554404
_publ_section_title
;
Structure prediction by ZEFSAII (Michael W. Deem and Ramdas Pophale) SiO2 
 PCOD9554404
Probable space group: I 41 C D
;
_chemical_formula_sum "Si O2"
_cell_formula_units_Z 88
_cell_length_a 19.952909
_cell_length_b 19.952909
_cell_length_c 9.474957
_cell_angle_alpha 90.000000
_cell_angle_beta 90.000000
_cell_angle_gamma 90.000000
_cell_volume 3772.156403
_symmetry_space_group_name_H-M "I 41 C D"
_symmetry_group_IT_number 110
_symmetry_cell_setting 'tetragonal'
loop_
_space_group_symop_operation_xyz
x,y,z
-y,1/2+x,1/4+z
-x,-y,z
y,1/2-x,1/4+z
-x,y,1/2+z
x,-y,1/2+z
1/2-y,-x,1/4+z
1/2+y,x,1/4+z
1/2+x,1/2+y,1/2+z
1/2-y,x,3/4+z
1/2-x,1/2-y,1/2+z
1/2+y,-x,3/4+z
1/2-x,1/2+y,z
1/2+x,1/2-y,z
-y,1/2-x,3/4+z
y,1/2+x,3/4+z
loop_
_atom_site_type_symbol
_atom_site_label
_atom_site_fract_x
_atom_site_fract_y
_atom_site_fract_z
Si Si1 0.063954 0.361153 0.149860
Si Si2 0.500000 0.000000 0.150289
Si Si3 0.305889 0.487967 0.139694
Si Si4 0.700717 0.300138 0.370592
Si Si5 0.096351 0.802108 0.268276
Si Si6 0.910112 0.882037 0.504379
O O1 0.031831 0.431373 0.093647
O O2 0.141260 0.366656 0.110654
O O3 0.051414 0.338311 0.310709
O O4 0.018904 0.310850 0.056920
O O5 0.433577 0.031302 0.220026
O O6 0.232402 0.464538 0.098628
O O7 0.352972 0.428768 0.076002
O O8 0.701628 0.231083 0.462406
O O9 0.751593 0.347149 0.460643
O O10 0.628494 0.337354 0.387107
O O11 0.066475 0.833967 0.127529
#
# Coordination Sequence:
#
# PCOD9554404 Si02
#       6
#    16   8  16  16  16  16
#     4  10  21  37  59  84 116 157 197 248 304 355
#     4  10  20  36  58  88 118 150 206 256 296 356
#     4   9  19  36  57  82 114 152 197 245 297 357
#     4   9  17  34  58  83 116 158 202 246 301 365
#     4   9  18  35  57  81 115 156 196 243 302 359
#     4   8  17  34  58  81 110 157 199 242 298 354
#
# _framework density 23.328828999999999
#
# number of rings (size 3 to 8) (size 9 to 14) (size 15 to 20)
#    0.000    2.909    0.000    1.091    0.000    8.000 
#    0.000    9.091    0.000    0.000    0.000    0.000 
#    0.000    0.000    0.000    0.000    0.000    0.000 
#
# Total GULP energy -245082.604872 kJ/mol
# GULP energy per Si atom -5570.059202 kJ/mol
# Density = 2.327573 g / cm^3
# Si number density = 23.328829 Si / 1000 Ang^3
#
#
#
# Elastic Constant Matrix: (Units=GPa)
#
#
# Indices 1 2 3 4 5 6 
#
# 1 80.7171 30.8741 25.9866 0.0000 0.0000 0.0000
# 2 30.8741 80.7171 25.9866 0.0000 0.0000 0.0000
# 3 25.9866 25.9866 33.6709 0.0000 0.0000 0.0000
# 4 0.0000 0.0000 0.0000 20.9088 0.0000 0.0000
# 5 0.0000 0.0000 0.0000 0.0000 20.9088 0.0000
# 6 0.0000 0.0000 0.0000 0.0000 0.0000 26.7778
#
#
#
# Elastic Compliance Matrix: (Units=1/GPa)
#
#
# Indices 1 2 3 4 5 6 
#
# 1 0.017027 -0.003036 -0.010797 0.000000 0.000000 0.000000
# 2 -0.003036 0.017027 -0.010797 0.000000 0.000000 0.000000
# 3 -0.010797 -0.010797 0.046365 0.000000 0.000000 0.000000
# 4 0.000000 0.000000 0.000000 0.047827 0.000000 0.000000
# 5 0.000000 0.000000 0.000000 0.000000 0.047827 0.000000
# 6 0.000000 0.000000 0.000000 0.000000 0.000000 0.037344
#
#
# Mechanical properties :
#
#
# Convention : Reuss Voigt Hill
#
# Bulk Modulus (GPa) = 32.09601 40.08884 36.09242
# Shear Modulus (GPa) = 18.31073 21.20292 19.75683
#
# Velocity S-wave (km/s) = 2.80464 3.01802 2.91329
# Velocity P-wave (km/s) = 4.92707 5.41905 5.17891
#
# Compressibility (1/GPa) = 0.03115652
#
# Stress axis : x y z
#
# Youngs Moduli (GPa) = 58.73191 58.73191 21.56782
#
# Poissons Ratio (x) = 0.17834 0.23287
# Poissons Ratio (y) = 0.17834 0.23287
# Poissons Ratio (z) = 0.63414 0.63414
#
# Static dielectric constant tensor:
#      x y z
#    x 2.018000 0.000000 0.000000 
#    y 0.000000 2.018000 0.000000 
#    z 0.000000 0.000000 1.960850 
# 
# From -- ./inp_files/884.got.cif
#   From: 2010.05.17/outbox.cif.g08.bks.cpg/sg110_1_cif.got.tgz:884.got - 2010.05.20 10:54:03.
