data_PCOD9554392
_publ_section_title
;
Structure prediction by ZEFSAII (Michael W. Deem and Ramdas Pophale) SiO2 
 PCOD9554392
Probable space group: I 41 C D
;
_chemical_formula_sum "Si O2"
_cell_formula_units_Z 112
_cell_length_a 15.047033
_cell_length_b 15.047033
_cell_length_c 21.929575
_cell_angle_alpha 90.000000
_cell_angle_beta 90.000000
_cell_angle_gamma 90.000000
_cell_volume 4965.145297
_symmetry_space_group_name_H-M "I 41 C D"
_symmetry_group_IT_number 110
_symmetry_cell_setting 'tetragonal'
loop_
_space_group_symop_operation_xyz
x,y,z
-y,1/2+x,1/4+z
-x,-y,z
y,1/2-x,1/4+z
-x,y,1/2+z
x,-y,1/2+z
1/2-y,-x,1/4+z
1/2+y,x,1/4+z
1/2+x,1/2+y,1/2+z
1/2-y,x,3/4+z
1/2-x,1/2-y,1/2+z
1/2+y,-x,3/4+z
1/2-x,1/2+y,z
1/2+x,1/2-y,z
-y,1/2-x,3/4+z
y,1/2+x,3/4+z
loop_
_atom_site_type_symbol
_atom_site_label
_atom_site_fract_x
_atom_site_fract_y
_atom_site_fract_z
Si Si1 0.888338 0.102290 0.869870
Si Si2 0.000000 0.500000 0.524493
Si Si3 0.756277 0.548563 0.707171
Si Si4 0.616128 0.577946 0.166710
Si Si5 0.414732 0.675503 0.046529
Si Si6 0.500000 0.500000 0.059580
Si Si7 0.218572 0.338372 0.512713
Si Si8 0.008071 0.765810 0.669367
O O1 0.930358 0.149579 0.927719
O O2 0.837754 0.178288 0.830934
O O3 0.829183 0.020877 0.893552
O O4 0.958848 0.071026 0.819803
O O5 0.034154 0.573565 0.477366
O O6 0.708132 0.475637 0.663913
O O7 0.766207 0.493787 0.769138
O O8 0.709836 0.642518 0.722339
O O9 0.566291 0.551355 0.104920
O O10 0.585438 0.680003 0.174356
O O11 0.440554 0.574710 0.028087
O O12 0.318502 0.699989 0.019812
O O13 0.427045 0.687408 0.119115
O O14 0.231409 0.435324 0.481349
#
# Coordination Sequence:
#
# PCOD9554392 Si02
#       8
#    16   8  16  16  16   8  16  16
#     4  12  26  44  71 109 146 189 254 315 369 459
#     4  11  20  43  72  96 140 195 237 300 380 446
#     4  12  26  45  67 109 150 188 252 310 368 462
#     4  10  19  44  71  94 136 198 236 287 371 456
#     4  11  25  44  71 105 145 187 238 310 368 446
#     4   9  20  39  68  94 130 179 241 280 366 430
#     4  12  24  47  73 103 147 196 245 312 375 446
#     4  11  24  46  75 103 145 196 246 304 379 452
#
# _framework density 22.557245999999999
#
# number of rings (size 3 to 8) (size 9 to 14) (size 15 to 20)
#    0.000    0.857    4.286    3.429    6.000    0.000 
#    0.000    0.000    0.000    0.000    0.000    0.000 
#    0.000    0.000    0.000    0.000    0.000    0.000 
#
# Total GULP energy -312247.844300 kJ/mol
# GULP energy per Si atom -5575.854362 kJ/mol
# Density = 2.250590 g / cm^3
# Si number density = 22.557246 Si / 1000 Ang^3
#
#
#
# Elastic Constant Matrix: (Units=GPa)
#
#
# Indices 1 2 3 4 5 6 
#
# 1 74.6760 30.6716 16.9915 0.0000 0.0000 0.0000
# 2 30.6716 74.6760 16.9915 0.0000 0.0000 0.0000
# 3 16.9915 16.9915 59.8026 0.0000 0.0000 0.0000
# 4 0.0000 0.0000 0.0000 72.9072 0.0000 0.0000
# 5 0.0000 0.0000 0.0000 0.0000 72.9072 0.0000
# 6 0.0000 0.0000 0.0000 0.0000 0.0000 29.2076
#
#
#
# Elastic Compliance Matrix: (Units=1/GPa)
#
#
# Indices 1 2 3 4 5 6 
#
# 1 0.016588 -0.006137 -0.002969 0.000000 0.000000 0.000000
# 2 -0.006137 0.016588 -0.002969 0.000000 0.000000 0.000000
# 3 -0.002969 -0.002969 0.018409 0.000000 0.000000 0.000000
# 4 0.000000 0.000000 0.000000 0.013716 0.000000 0.000000
# 5 0.000000 0.000000 0.000000 0.000000 0.013716 0.000000
# 6 0.000000 0.000000 0.000000 0.000000 0.000000 0.034238
#
#
# Mechanical properties :
#
#
# Convention : Reuss Voigt Hill
#
# Bulk Modulus (GPa) = 36.45297 37.60708 37.03003
# Shear Modulus (GPa) = 34.11813 44.63773 39.37793
#
# Velocity S-wave (km/s) = 3.89332 4.45327 4.18268
# Velocity P-wave (km/s) = 6.03373 6.56888 6.30698
#
# Compressibility (1/GPa) = 0.02743260
#
# Stress axis : x y z
#
# Youngs Moduli (GPa) = 60.28603 60.28603 54.32146
#
# Poissons Ratio (x) = 0.37000 0.16129
# Poissons Ratio (y) = 0.37000 0.16129
# Poissons Ratio (z) = 0.17900 0.17900
#
# Static dielectric constant tensor:
#      x y z
#    x 1.772460 0.000000 0.000000 
#    y 0.000000 1.772460 0.000000 
#    z 0.000000 0.000000 1.807700 
# 
# From -- ./inp_files/2683.got.cif
#   From: 2010.05.17/outbox.cif.g08.bks.cpg/sg110_2_cif.got.tgz:2683.got - 2010.05.20 10:54:03.
