data_PCOD9554437
_publ_section_title
;
Structure prediction by ZEFSAII (Michael W. Deem and Ramdas Pophale) SiO2 
 PCOD9554437
Probable space group: I 41 C D
;
_chemical_formula_sum "Si O2"
_cell_formula_units_Z 112
_cell_length_a 14.003280
_cell_length_b 14.003280
_cell_length_c 29.107019
_cell_angle_alpha 90.000000
_cell_angle_beta 90.000000
_cell_angle_gamma 90.000000
_cell_volume 5707.649226
_symmetry_space_group_name_H-M "I 41 C D"
_symmetry_group_IT_number 110
_symmetry_cell_setting 'tetragonal'
loop_
_space_group_symop_operation_xyz
x,y,z
-y,1/2+x,1/4+z
-x,-y,z
y,1/2-x,1/4+z
-x,y,1/2+z
x,-y,1/2+z
1/2-y,-x,1/4+z
1/2+y,x,1/4+z
1/2+x,1/2+y,1/2+z
1/2-y,x,3/4+z
1/2-x,1/2-y,1/2+z
1/2+y,-x,3/4+z
1/2-x,1/2+y,z
1/2+x,1/2-y,z
-y,1/2-x,3/4+z
y,1/2+x,3/4+z
loop_
_atom_site_type_symbol
_atom_site_label
_atom_site_fract_x
_atom_site_fract_y
_atom_site_fract_z
Si Si1 0.262509 0.063544 0.630770
Si Si2 0.220588 0.473874 0.983489
Si Si3 0.696626 0.322110 0.794597
Si Si4 0.956363 0.102775 0.143239
Si Si5 0.212504 0.614558 0.066559
Si Si6 0.289192 0.514450 0.337097
Si Si7 0.548631 0.898963 0.679151
O O1 0.287177 0.136525 0.589193
O O2 0.156717 0.088800 0.645617
O O3 0.338983 0.082422 0.671068
O O4 0.266707 0.955232 0.610120
O O5 0.148280 0.488011 0.941479
O O6 0.323214 0.511848 0.966337
O O7 0.217642 0.364201 0.001542
O O8 0.192957 0.540371 0.025867
O O9 0.806178 0.290011 0.801601
O O10 0.694918 0.436866 0.797494
O O11 0.983441 0.180393 0.104633
O O12 0.000000 0.000000 0.133932
O O13 0.118952 0.677093 0.074442
O O14 0.354777 0.485037 0.380460
O O15 0.500000 0.000000 0.687207
#
# Coordination Sequence:
#
# PCOD9554437 Si02
#       7
#    16  16  16  16  16  16  16
#     4  10  21  38  70  88 123 165 215 263 309 386
#     4  10  26  39  59  97 132 161 211 265 325 383
#     4  10  22  41  63  92 124 166 215 263 309 381
#     4  11  23  42  61  99 129 163 212 271 323 378
#     4  11  21  42  65  95 122 173 215 262 319 386
#     4  10  21  40  71  87 121 171 221 257 308 391
#     4  10  20  42  63  94 124 169 210 258 318 392
#
# _framework density 19.622789999999998
#
# number of rings (size 3 to 8) (size 9 to 14) (size 15 to 20)
#    0.000    1.714    2.857    0.857    4.000    0.000 
#    5.143    1.429    0.000    0.000    0.000    0.000 
#    0.000    0.000    0.000    0.000    0.000    0.000 
#
# Total GULP energy -312495.662119 kJ/mol
# GULP energy per Si atom -5580.279681 kJ/mol
# Density = 1.957813 g / cm^3
# Si number density = 19.622790 Si / 1000 Ang^3
#
#
#
# Elastic Constant Matrix: (Units=GPa)
#
#
# Indices 1 2 3 4 5 6 
#
# 1 54.2729 -40.4894 25.6616 0.0000 0.0000 0.0000
# 2 -40.4894 54.2729 25.6616 0.0000 0.0000 0.0000
# 3 25.6616 25.6616 44.5866 0.0000 0.0000 0.0000
# 4 0.0000 0.0000 0.0000 5.6321 0.0000 0.0000
# 5 0.0000 0.0000 0.0000 0.0000 5.6321 0.0000
# 6 0.0000 0.0000 0.0000 0.0000 0.0000 28.7948
#
#
#
# Elastic Compliance Matrix: (Units=1/GPa)
#
#
# Indices 1 2 3 4 5 6 
#
# 1 -0.026459 -0.037012 0.036530 0.000000 0.000000 0.000000
# 2 -0.037012 -0.026459 0.036530 0.000000 0.000000 0.000000
# 3 0.036530 0.036530 -0.019621 0.000000 0.000000 0.000000
# 4 0.000000 0.000000 0.000000 0.177552 0.000000 0.000000
# 5 0.000000 0.000000 0.000000 0.000000 0.177552 0.000000
# 6 0.000000 0.000000 0.000000 0.000000 0.000000 0.034729
#
#
# Mechanical properties :
#
#
# Convention : Reuss Voigt Hill
#
# Bulk Modulus (GPa) = -2264.32335 19.42220 -1122.45057
# Shear Modulus (GPa) = 20.40405 17.49839 18.95122
#
# Velocity S-wave (km/s) = 3.22811 2.98944 3.11106
# Velocity P-wave (km/s) = 33.80142 4.67278 23.67173
#
# Compressibility (1/GPa) = -0.00044163
#
# Stress axis : x y z
#
# Youngs Moduli (GPa) = -37.79451 -37.79451 -50.96531
#
# Poissons Ratio (x) = -1.39883 1.86177
# Poissons Ratio (y) = -1.39883 1.86177
# Poissons Ratio (z) = 1.38064 1.38064
#
# Static dielectric constant tensor:
#      x y z
#    x 1.700820 0.000000 0.000000 
#    y 0.000000 1.700820 0.000000 
#    z 0.000000 0.000000 1.690730 
# 
# From -- ./inp_files/3264.got.cif
#   From: 2010.05.17/outbox.cif.g08.bks.cpg/sg110_2_cif.got.tgz:3264.got - 2010.05.20 10:54:03.
