data_PCOD9554578
_publ_section_title
;
Structure prediction by ZEFSAII (Michael W. Deem and Ramdas Pophale) SiO2 
 PCOD9554578
Probable space group: I 41 C D
;
_chemical_formula_sum "Si O2"
_cell_formula_units_Z 64
_cell_length_a 10.258812
_cell_length_b 10.258812
_cell_length_c 24.326315
_cell_angle_alpha 90.000000
_cell_angle_beta 90.000000
_cell_angle_gamma 90.000000
_cell_volume 2560.179810
_symmetry_space_group_name_H-M "I 41 C D"
_symmetry_group_IT_number 110
_symmetry_cell_setting 'tetragonal'
loop_
_space_group_symop_operation_xyz
x,y,z
-y,1/2+x,1/4+z
-x,-y,z
y,1/2-x,1/4+z
-x,y,1/2+z
x,-y,1/2+z
1/2-y,-x,1/4+z
1/2+y,x,1/4+z
1/2+x,1/2+y,1/2+z
1/2-y,x,3/4+z
1/2-x,1/2-y,1/2+z
1/2+y,-x,3/4+z
1/2-x,1/2+y,z
1/2+x,1/2-y,z
-y,1/2-x,3/4+z
y,1/2+x,3/4+z
loop_
_atom_site_type_symbol
_atom_site_label
_atom_site_fract_x
_atom_site_fract_y
_atom_site_fract_z
Si Si1 0.104445 0.101591 0.205870
Si Si2 0.742451 0.993421 0.349191
Si Si3 0.216906 0.247341 0.778419
Si Si4 0.891789 0.594263 0.691669
O O1 0.057900 0.157026 0.147387
O O2 0.145368 0.209802 0.250880
O O3 0.246883 0.035699 0.194081
O O4 0.000000 0.000000 0.226885
O O5 0.777260 0.109670 0.307624
O O6 0.682281 0.867116 0.319461
O O7 0.867031 0.935997 0.381122
O O8 0.124089 0.271845 0.726106
O O9 0.000000 0.500000 0.715874
#
# Coordination Sequence:
#
# PCOD9554578 Si02
#       4
#    16  16  16  16
#     4  10  26  47  74 115 160 212 276 349 408 521
#     4  12  24  52  74 114 160 213 277 337 436 493
#     4  10  26  46  81 116 154 224 263 346 429 494
#     4  10  26  47  74 118 159 212 278 355 416 516
#
# _framework density 24.998245000000001
#
# number of rings (size 3 to 8) (size 9 to 14) (size 15 to 20)
#    1.500    0.000    2.500    0.000   10.500    2.000 
#    0.000    0.000    0.000    0.000    0.000    0.000 
#    0.000    0.000    0.000    0.000    0.000    0.000 
#
# Total GULP energy -178863.598225 kJ/mol
# GULP energy per Si atom -5589.487445 kJ/mol
# Density = 2.494135 g / cm^3
# Si number density = 24.998245 Si / 1000 Ang^3
#
#
#
# Elastic Constant Matrix: (Units=GPa)
#
#
# Indices 1 2 3 4 5 6 
#
# 1 135.0397 38.8945 44.3538 0.0000 0.0000 0.0000
# 2 38.8945 135.0397 44.3538 0.0000 0.0000 0.0000
# 3 44.3538 44.3538 128.3813 0.0000 0.0000 0.0000
# 4 0.0000 0.0000 0.0000 37.7082 0.0000 0.0000
# 5 0.0000 0.0000 0.0000 0.0000 37.7082 0.0000
# 6 0.0000 0.0000 0.0000 0.0000 0.0000 34.1896
#
#
#
# Elastic Compliance Matrix: (Units=1/GPa)
#
#
# Indices 1 2 3 4 5 6 
#
# 1 0.008690 -0.001711 -0.002411 0.000000 0.000000 0.000000
# 2 -0.001711 0.008690 -0.002411 0.000000 0.000000 0.000000
# 3 -0.002411 -0.002411 0.009455 0.000000 0.000000 0.000000
# 4 0.000000 0.000000 0.000000 0.026519 0.000000 0.000000
# 5 0.000000 0.000000 0.000000 0.000000 0.026519 0.000000
# 6 0.000000 0.000000 0.000000 0.000000 0.000000 0.029249
#
#
# Mechanical properties :
#
#
# Convention : Reuss Voigt Hill
#
# Bulk Modulus (GPa) = 72.62817 72.62943 72.62880
# Shear Modulus (GPa) = 39.43876 39.97844 39.70860
#
# Velocity S-wave (km/s) = 3.97629 4.00340 3.98987
# Velocity P-wave (km/s) = 7.08502 7.10539 7.09521
#
# Compressibility (1/GPa) = 0.01376876
#
# Stress axis : x y z
#
# Youngs Moduli (GPa) = 115.07521 115.07521 105.76051
#
# Poissons Ratio (x) = 0.19689 0.25500
# Poissons Ratio (y) = 0.19689 0.25500
# Poissons Ratio (z) = 0.27746 0.27746
#
# Static dielectric constant tensor:
#      x y z
#    x 2.031550 0.000000 0.000000 
#    y 0.000000 2.031550 0.000000 
#    z 0.000000 0.000000 1.972090 
# 
# From -- ./inp_files/2827.got.cif
#   From: 2010.05.17/outbox.cif.g08.bks.cpg/sg110_2_cif.got.tgz:2827.got - 2010.05.20 10:54:03.
