data_PCOD9554716
_publ_section_title
;
Structure prediction by ZEFSAII (Michael W. Deem and Ramdas Pophale) SiO2 
 PCOD9554716
Probable space group: P -4 2 M 
;
_chemical_formula_sum "Si O2"
_cell_formula_units_Z 48
_cell_length_a 12.455317
_cell_length_b 12.455317
_cell_length_c 19.609575
_cell_angle_alpha 90.000000
_cell_angle_beta 90.000000
_cell_angle_gamma 90.000000
_cell_volume 3042.129880
_symmetry_space_group_name_H-M "P -4 2 M "
_symmetry_group_IT_number 111
_symmetry_cell_setting 'tetragonal'
loop_
_space_group_symop_operation_xyz
x,y,z
y,-x,-z
-x,-y,z
-y,x,-z
x,-y,-z
-x,y,-z
-y,-x,z
y,x,z
loop_
_atom_site_type_symbol
_atom_site_label
_atom_site_fract_x
_atom_site_fract_y
_atom_site_fract_z
Si Si1 0.629587 0.000000 0.394481
Si Si2 0.623774 0.800684 0.853442
Si Si3 0.199320 0.376231 0.146559
Si Si4 0.696483 0.125934 0.999998
Si Si5 0.369153 0.187627 0.500000
Si Si6 0.000002 0.630800 0.760971
O O1 0.656965 0.108557 0.436029
O O2 0.668971 0.000001 0.316900
O O3 0.500000 0.000000 0.392882
O O4 0.656965 0.891443 0.436028
O O5 0.697259 0.697259 0.845749
O O6 0.500003 0.777508 0.838555
O O7 0.662701 0.894827 0.803204
O O8 0.634684 0.841949 0.931152
O O9 0.302749 0.302749 0.154248
O O10 0.158048 0.365319 0.068852
O O11 0.105184 0.337301 0.196800
O O12 0.805952 0.194049 0.999996
O O13 0.715935 0.000000 0.000000
O O14 0.500000 0.208943 0.500000
O O15 0.293726 0.293726 0.500000
O O16 0.000000 0.500000 0.760460
#
# Coordination Sequence:
#
# PCOD9554716 Si02
#       6
#     8   8   8   8   8   8
#     4   8  16  31  49  70  96 130 167 199 233 278
#     4  10  20  32  49  73  99 129 163 201 247 296
#     4  10  20  32  49  73  99 129 163 201 247 296
#     4  10  19  32  50  72  98 129 166 209 254 296
#     4   9  17  30  50  76 103 131 162 196 238 287
#     4   9  17  31  51  70  92 126 169 207 236 278
#
# _framework density 15.778418
#
# number of rings (size 3 to 8) (size 9 to 14) (size 15 to 20)
#    0.000    2.667    1.667    1.500    0.000    2.667 
#    0.000    0.000    0.000    7.500    0.000   14.000 
#    0.000    0.000    0.000    0.000    0.000    0.000 
#
# Total GULP energy -267287.625549 kJ/mol
# GULP energy per Si atom -5568.492199 kJ/mol
# Density = 1.574251 g / cm^3
# Si number density = 15.778418 Si / 1000 Ang^3
#
#
#
# Elastic Constant Matrix: (Units=GPa)
#
#
# Indices 1 2 3 4 5 6 
#
# 1 83.9326 61.5532 41.8953 0.0000 0.0000 0.0000
# 2 61.5532 83.9238 41.8977 0.0000 0.0000 0.0000
# 3 41.8953 41.8977 129.2895 0.0000 0.0000 0.0000
# 4 0.0000 0.0000 0.0000 2.4806 0.0000 0.0000
# 5 0.0000 0.0000 0.0000 0.0000 2.4838 0.0000
# 6 0.0000 0.0000 0.0000 0.0000 0.0000 -0.1806
#
#
#
# Elastic Compliance Matrix: (Units=1/GPa)
#
#
# Indices 1 2 3 4 5 6 
#
# 1 0.026570 -0.018121 -0.002738 0.000000 0.000000 0.000000
# 2 -0.018121 0.026574 -0.002740 0.000000 0.000000 0.000000
# 3 -0.002738 -0.002740 0.009509 0.000000 0.000000 0.000000
# 4 0.000000 0.000000 0.000000 0.403126 0.000000 0.000000
# 5 0.000000 0.000000 0.000000 0.000000 0.402611 0.000000
# 6 0.000000 0.000000 0.000000 0.000000 0.000000 -5.536202
#
#
# Mechanical properties :
#
#
# Convention : Reuss Voigt Hill
#
# Bulk Modulus (GPa) = 64.69445 65.31536 65.00491
# Shear Modulus (GPa) = -1.08331 11.07673 4.99671
#
# Velocity S-wave (km/s) = -0.82950 2.65244 1.78148
# Velocity P-wave (km/s) = 6.33825 7.13203 6.74682
#
# Compressibility (1/GPa) = 0.01545728
#
# Stress axis : x y z
#
# Youngs Moduli (GPa) = 37.63651 37.63095 105.15827
#
# Poissons Ratio (x) = 0.68190 0.28787
# Poissons Ratio (y) = 0.68200 0.28810
# Poissons Ratio (z) = 0.10303 0.10310
#
# Static dielectric constant tensor:
#      x y z
#    x 1.506380 0.000000 0.000000 
#    y 0.000000 1.506380 0.000000 
#    z 0.000000 0.000000 1.550110 
# 
# From -- ./inp_files/3617.got.cif
#   From: 2010.05.17/outbox.cif.g08.bks.cpg/sg111_2_cif.got.tgz:3617.got - 2010.05.20 10:56:05.
