data_PCOD9554915
_publ_section_title
;
Structure prediction by ZEFSAII (Michael W. Deem and Ramdas Pophale) SiO2 
 PCOD9554915
Probable space group: P -4 2 C
;
_chemical_formula_sum "Si O2"
_cell_formula_units_Z 40
_cell_length_a 16.586278
_cell_length_b 16.586278
_cell_length_c 9.029726
_cell_angle_alpha 90.000000
_cell_angle_beta 90.000000
_cell_angle_gamma 90.000000
_cell_volume 2484.119321
_symmetry_space_group_name_H-M "P -4 2 C"
_symmetry_group_IT_number 112
_symmetry_cell_setting 'tetragonal'
loop_
_space_group_symop_operation_xyz
x,y,z
y,-x,-z
-x,-y,z
-y,x,-z
x,-y,1/2-z
-x,y,1/2-z
-y,-x,1/2+z
y,x,1/2+z
loop_
_atom_site_type_symbol
_atom_site_label
_atom_site_fract_x
_atom_site_fract_y
_atom_site_fract_z
Si Si1 0.887141 0.791015 0.401205
Si Si2 0.076589 0.781185 0.447133
Si Si3 0.147838 0.385195 0.499512
Si Si4 0.500000 0.863563 0.250000
Si Si5 0.871162 0.500000 0.250000
Si Si6 0.398711 0.953427 0.003729
O O1 0.839738 0.869411 0.454806
O O2 0.893199 0.783925 0.223208
O O3 0.844800 0.710455 0.469975
O O4 0.980673 0.798263 0.451186
O O5 0.082960 0.690117 0.503889
O O6 0.179407 0.432668 0.645193
O O7 0.175088 0.438876 0.359008
O O8 0.049815 0.393829 0.506176
O O9 0.552257 0.917818 0.360445
O O10 0.924050 0.556935 0.144264
#
# Coordination Sequence:
#
# PCOD9554915 Si02
#       6
#     8   8   8   4   4   8
#     4  10  22  37  51  67  90 125 170 216 255 287
#     4  10  22  37  51  67  90 125 170 216 255 287
#     4  10  17  28  45  69  93 117 148 189 238 294
#     4  10  19  26  44  74  98 116 142 183 236 293
#     4  10  15  26  48  66  90 116 142 183 236 301
#     4  10  17  28  45  69  93 117 148 189 238 294
#
# _framework density 16.102287
#
# number of rings (size 3 to 8) (size 9 to 14) (size 15 to 20)
#    0.000    2.000    2.000    4.800    2.800    1.200 
#    0.000    2.000    0.000    0.000    0.000    0.000 
#    0.000    0.000    0.000    0.000    0.000   70.000 
#
# Total GULP energy -222865.536496 kJ/mol
# GULP energy per Si atom -5571.638412 kJ/mol
# Density = 1.606564 g / cm^3
# Si number density = 16.102287 Si / 1000 Ang^3
#
#
#
# Elastic Constant Matrix: (Units=GPa)
#
#
# Indices 1 2 3 4 5 6 
#
# 1 63.4620 39.4022 28.4671 0.0000 0.0000 0.0000
# 2 39.4022 63.4620 28.4671 0.0000 0.0000 0.0000
# 3 28.4671 28.4671 81.5050 0.0000 0.0000 0.0000
# 4 0.0000 0.0000 0.0000 19.0546 0.0000 0.0000
# 5 0.0000 0.0000 0.0000 0.0000 19.0546 0.0000
# 6 0.0000 0.0000 0.0000 0.0000 0.0000 -1.6295
#
#
#
# Elastic Compliance Matrix: (Units=1/GPa)
#
#
# Indices 1 2 3 4 5 6 
#
# 1 0.026807 -0.014756 -0.004209 0.000000 0.000000 0.000000
# 2 -0.014756 0.026807 -0.004209 0.000000 0.000000 0.000000
# 3 -0.004209 -0.004209 0.015209 0.000000 0.000000 0.000000
# 4 0.000000 0.000000 0.000000 0.052481 0.000000 0.000000
# 5 0.000000 0.000000 0.000000 0.000000 0.052481 0.000000
# 6 0.000000 0.000000 0.000000 0.000000 0.000000 -0.613699
#
#
# Mechanical properties :
#
#
# Convention : Reuss Voigt Hill
#
# Bulk Modulus (GPa) = 44.49301 44.56687 44.52994
# Shear Modulus (GPa) = -12.95091 14.76877 0.90893
#
# Velocity S-wave (km/s) = -2.83908 3.03179 0.75213
# Velocity P-wave (km/s) = 4.11635 6.32401 5.33561
#
# Compressibility (1/GPa) = 0.02247544
#
# Stress axis : x y z
#
# Youngs Moduli (GPa) = 37.30346 37.30346 65.74875
#
# Poissons Ratio (x) = 0.55045 0.27675
# Poissons Ratio (y) = 0.55045 0.27675
# Poissons Ratio (z) = 0.15702 0.15702
#
# Static dielectric constant tensor:
#      x y z
#    x 1.542690 0.000000 0.000000 
#    y 0.000000 1.542690 0.000000 
#    z 0.000000 0.000000 1.596040 
# 
# From -- ./inp_files/1397.got.cif
#   From: 2010.05.17/outbox.cif.g08.bks.cpg/sg112_1_cif.got.tgz:1397.got - 2010.05.20 10:59:04.
