data_PCOD9554194
_publ_section_title
;
Structure prediction by ZEFSAII (Michael W. Deem and Ramdas Pophale) SiO2 
 PCOD9554194
Probable space group: I 41 M D
;
_chemical_formula_sum "Si O2"
_cell_formula_units_Z 96
_cell_length_a 25.065743
_cell_length_b 25.065743
_cell_length_c 7.660025
_cell_angle_alpha 90.000000
_cell_angle_beta 90.000000
_cell_angle_gamma 90.000000
_cell_volume 4812.728384
_symmetry_space_group_name_H-M "I 41 M D"
_symmetry_group_IT_number 109
_symmetry_cell_setting 'tetragonal'
loop_
_space_group_symop_operation_xyz
x,y,z
-y,1/2+x,1/4+z
-x,-y,z
y,1/2-x,1/4+z
-x,y,z
x,-y,z
-y,1/2-x,1/4+z
y,1/2+x,1/4+z
1/2+x,1/2+y,1/2+z
1/2-y,x,3/4+z
1/2-x,1/2-y,1/2+z
1/2+y,-x,3/4+z
1/2-x,1/2+y,1/2+z
1/2+x,1/2-y,1/2+z
1/2-y,-x,3/4+z
1/2+y,x,3/4+z
loop_
_atom_site_type_symbol
_atom_site_label
_atom_site_fract_x
_atom_site_fract_y
_atom_site_fract_z
Si Si1 0.792627 0.197598 0.867780
Si Si2 0.500000 0.720587 0.396001
Si Si3 0.308807 0.103876 0.427170
Si Si4 0.500000 0.648264 0.747814
Si Si5 0.890570 0.893735 0.369248
Si Si6 0.000000 0.259620 0.386428
Si Si7 0.330607 0.500000 0.985166
Si Si8 0.284945 0.615355 0.656341
O O1 0.755307 0.199939 0.701009
O O2 0.849422 0.176313 0.809493
O O3 0.769488 0.160325 0.018988
O O4 0.551636 0.701659 0.289474
O O5 0.500000 0.687239 0.577558
O O6 0.500000 0.786505 0.392794
O O7 0.353168 0.102953 0.278738
O O8 0.254380 0.116876 0.322052
O O9 0.552576 0.611822 0.770428
O O10 0.500000 0.695538 0.894605
O O11 0.844213 0.877813 0.232230
O O12 0.868564 0.948719 0.455020
O O13 0.000000 0.289755 0.571530
O O14 0.942503 0.277279 0.314061
#
# Coordination Sequence:
#
# PCOD9554194 Si02
#       8
#    16   8  16   8  16   8   8  16
#     4  12  26  39  56  92 133 174 207 264 339 409
#     4  12  24  42  67  97 126 174 227 275 317 403
#     4  12  22  41  66  89 128 170 217 273 326 398
#     4  12  24  39  69 100 129 169 229 273 333 399
#     4  11  22  42  66  99 127 173 219 280 338 398
#     4  10  20  40  66  85 118 168 210 263 310 385
#     4  10  22  43  70  94 131 171 222 269 338 397
#     4  11  21  40  65  90 124 169 217 270 323 395
#
# _framework density 19.947105000000001
#
# number of rings (size 3 to 8) (size 9 to 14) (size 15 to 20)
#    0.000    0.667    5.000    4.500    2.333    0.333 
#    0.000    0.000    0.000    1.000    0.000    0.000 
#    0.000    0.000    0.000    0.000    0.000    0.000 
#
# Total GULP energy -267908.124811 kJ/mol
# GULP energy per Si atom -5581.419267 kJ/mol
# Density = 1.990170 g / cm^3
# Si number density = 19.947105 Si / 1000 Ang^3
#
#
#
# Elastic Constant Matrix: (Units=GPa)
#
#
# Indices 1 2 3 4 5 6 
#
# 1 104.5301 10.7883 16.7165 0.0000 0.0000 0.0000
# 2 10.7883 104.5301 16.7165 0.0000 0.0000 0.0000
# 3 16.7165 16.7165 56.2404 0.0000 0.0000 0.0000
# 4 0.0000 0.0000 0.0000 24.3136 0.0000 0.0000
# 5 0.0000 0.0000 0.0000 0.0000 24.3136 0.0000
# 6 0.0000 0.0000 0.0000 0.0000 0.0000 12.8199
#
#
#
# Elastic Compliance Matrix: (Units=1/GPa)
#
#
# Indices 1 2 3 4 5 6 
#
# 1 0.010078 -0.000589 -0.002821 0.000000 0.000000 0.000000
# 2 -0.000589 0.010078 -0.002821 0.000000 0.000000 0.000000
# 3 -0.002821 -0.002821 0.019458 0.000000 0.000000 0.000000
# 4 0.000000 0.000000 0.000000 0.041129 0.000000 0.000000
# 5 0.000000 0.000000 0.000000 0.000000 0.041129 0.000000
# 6 0.000000 0.000000 0.000000 0.000000 0.000000 0.078004
#
#
# Mechanical properties :
#
#
# Convention : Reuss Voigt Hill
#
# Bulk Modulus (GPa) = 36.82692 39.30482 38.06587
# Shear Modulus (GPa) = 22.58476 27.02807 24.80641
#
# Velocity S-wave (km/s) = 3.36852 3.68501 3.53031
# Velocity P-wave (km/s) = 5.79927 6.15248 5.97849
#
# Compressibility (1/GPa) = 0.02715405
#
# Stress axis : x y z
#
# Youngs Moduli (GPa) = 99.22127 99.22127 51.39401
#
# Poissons Ratio (x) = 0.05845 0.14496
# Poissons Ratio (y) = 0.05845 0.14496
# Poissons Ratio (z) = 0.27986 0.27986
#
# Static dielectric constant tensor:
#      x y z
#    x 1.755580 0.000000 0.000000 
#    y 0.000000 1.755580 0.000000 
#    z 0.000000 0.000000 1.736320 
# 
# From -- ./inp_files/1489.got.cif
#   From: 2010.05.17/outbox.cif.g08.bks.cpg/sg109_1_cif.got.tgz:1489.got - 2010.05.20 10:51:12.
