data_PCOD9554507
_publ_section_title
;
Structure prediction by ZEFSAII (Michael W. Deem and Ramdas Pophale) SiO2 
 PCOD9554507
Probable space group: I 41 C D
;
_chemical_formula_sum "Si O2"
_cell_formula_units_Z 48
_cell_length_a 18.719441
_cell_length_b 18.719441
_cell_length_c 5.261875
_cell_angle_alpha 90.000000
_cell_angle_beta 90.000000
_cell_angle_gamma 90.000000
_cell_volume 1843.852932
_symmetry_space_group_name_H-M "I 41 C D"
_symmetry_group_IT_number 110
_symmetry_cell_setting 'tetragonal'
loop_
_space_group_symop_operation_xyz
x,y,z
-y,1/2+x,1/4+z
-x,-y,z
y,1/2-x,1/4+z
-x,y,1/2+z
x,-y,1/2+z
1/2-y,-x,1/4+z
1/2+y,x,1/4+z
1/2+x,1/2+y,1/2+z
1/2-y,x,3/4+z
1/2-x,1/2-y,1/2+z
1/2+y,-x,3/4+z
1/2-x,1/2+y,z
1/2+x,1/2-y,z
-y,1/2-x,3/4+z
y,1/2+x,3/4+z
loop_
_atom_site_type_symbol
_atom_site_label
_atom_site_fract_x
_atom_site_fract_y
_atom_site_fract_z
Si Si1 0.665598 0.034156 0.126110
Si Si2 0.672565 0.827435 0.958676
Si Si3 0.834404 0.965844 0.541242
O O1 0.664259 0.112954 0.242470
O O2 0.750001 0.016971 0.083677
O O3 0.634477 0.984286 0.350491
O O4 0.665234 0.750000 0.833677
O O5 0.612954 0.835742 0.174880
O O6 0.865525 0.015714 0.316861
#
# Coordination Sequence:
#
# PCOD9554507 Si02
#       3
#    16  16  16
#     4  10  22  41  62  88 129 176 211 249 322 406
#     4  12  24  38  66 103 132 158 214 287 328 360
#     4  10  22  41  62  88 129 176 211 249 322 406
#
# _framework density 26.032443000000001
#
# number of rings (size 3 to 8) (size 9 to 14) (size 15 to 20)
#    0.000    1.333    0.000    8.000    0.000    8.000 
#    0.000    0.000    0.000    6.000    0.000    0.000 
#    0.000    0.000    0.000    0.000    0.000    0.000 
#
# Total GULP energy -134524.231614 kJ/mol
# GULP energy per Si atom -5605.176317 kJ/mol
# Density = 2.597319 g / cm^3
# Si number density = 26.032443 Si / 1000 Ang^3
#
#
#
# Elastic Constant Matrix: (Units=GPa)
#
#
# Indices 1 2 3 4 5 6 
#
# 1 175.5872 7.1310 85.5645 0.0000 0.0000 0.0000
# 2 7.1310 175.5872 85.5645 0.0000 0.0000 0.0000
# 3 85.5645 85.5645 259.6126 0.0000 0.0000 0.0000
# 4 0.0000 0.0000 0.0000 45.0772 0.0000 0.0000
# 5 0.0000 0.0000 0.0000 0.0000 45.0772 0.0000
# 6 0.0000 0.0000 0.0000 0.0000 0.0000 5.7744
#
#
#
# Elastic Compliance Matrix: (Units=1/GPa)
#
#
# Indices 1 2 3 4 5 6 
#
# 1 0.006926 0.000990 -0.002609 0.000000 0.000000 0.000000
# 2 0.000990 0.006926 -0.002609 0.000000 0.000000 0.000000
# 3 -0.002609 -0.002609 0.005572 0.000000 0.000000 0.000000
# 4 0.000000 0.000000 0.000000 0.022184 0.000000 0.000000
# 5 0.000000 0.000000 0.000000 0.000000 0.022184 0.000000
# 6 0.000000 0.000000 0.000000 0.000000 0.000000 0.173178
#
#
# Mechanical properties :
#
#
# Convention : Reuss Voigt Hill
#
# Bulk Modulus (GPa) = 91.17240 107.47854 99.32547
# Shear Modulus (GPa) = 20.07356 48.02091 34.04723
#
# Velocity S-wave (km/s) = 2.77988 4.29961 3.62038
# Velocity P-wave (km/s) = 6.73812 8.12557 7.46415
#
# Compressibility (1/GPa) = 0.01096823
#
# Stress axis : x y z
#
# Youngs Moduli (GPa) = 144.37441 144.37441 179.47530
#
# Poissons Ratio (x) = -0.14296 0.46829
# Poissons Ratio (y) = -0.14296 0.46829
# Poissons Ratio (z) = 0.37670 0.37670
#
# Static dielectric constant tensor:
#      x y z
#    x 2.059370 0.000000 0.000000 
#    y 0.000000 2.059370 0.000000 
#    z 0.000000 0.000000 2.073030 
# 
# From -- ./inp_files/55.got.cif
#   From: 2010.05.17/outbox.cif.g08.bks.cpg/sg110_1_cif.got.tgz:55.got - 2010.05.20 10:54:03.
