data_PCOD9554712
_publ_section_title
;
Structure prediction by ZEFSAII (Michael W. Deem and Ramdas Pophale) SiO2 
 PCOD9554712
Probable space group: P -4 2 M 
;
_chemical_formula_sum "Si O2"
_cell_formula_units_Z 64
_cell_length_a 11.965481
_cell_length_b 11.965481
_cell_length_c 28.291373
_cell_angle_alpha 90.000000
_cell_angle_beta 90.000000
_cell_angle_gamma 90.000000
_cell_volume 4050.553265
_symmetry_space_group_name_H-M "P -4 2 M "
_symmetry_group_IT_number 111
_symmetry_cell_setting 'tetragonal'
loop_
_space_group_symop_operation_xyz
x,y,z
y,-x,-z
-x,-y,z
-y,x,-z
x,-y,-z
-x,y,-z
-y,-x,z
y,x,z
loop_
_atom_site_type_symbol
_atom_site_label
_atom_site_fract_x
_atom_site_fract_y
_atom_site_fract_z
Si Si1 0.330406 0.853657 0.046016
Si Si2 0.690316 0.499771 0.207319
Si Si3 0.128599 0.519154 0.875187
Si Si4 0.314297 0.869684 0.628584
Si Si5 0.314862 0.869144 0.371325
Si Si6 0.500351 0.128534 0.709390
Si Si7 0.500204 0.864090 0.446131
Si Si8 0.897628 0.716352 0.058116
O O1 0.252350 0.747651 0.054816
O O2 0.436102 0.854373 0.080300
O O3 0.267501 0.969863 0.057175
O O4 0.350875 0.863060 0.989716
O O5 0.608358 0.391643 0.207515
O O6 0.607700 0.607700 0.206969
O O7 0.774605 0.499737 0.162739
O O8 0.774077 0.500765 0.252060
O O9 0.133918 0.643101 0.896702
O O10 0.000000 0.500000 0.858016
O O11 0.207094 0.792907 0.632792
O O12 0.392916 0.860767 0.674773
O O13 0.390992 0.832553 0.584221
O O14 0.286628 0.000340 0.622460
O O15 0.207868 0.792133 0.367101
O O16 0.393464 0.860392 0.325126
O O17 0.391694 0.832201 0.415665
O O18 0.500000 0.000000 0.728320
O O19 0.500000 0.824490 0.500000
O O20 0.500000 0.000000 0.446575
O O21 0.830401 0.830401 0.056568
#
# Coordination Sequence:
#
# PCOD9554712 Si02
#       8
#     8   8   8   8   8   8   8   8
#     4   9  17  29  46  67  90 117 148 182 219 259
#     4  11  22  33  48  70  93 115 143 187 236 270
#     4  10  19  32  48  65  89 120 152 181 214 266
#     4   9  17  29  47  70  94 120 150 186 227 271
#     4   9  17  29  47  70  94 120 150 186 227 271
#     4   9  18  34  52  68  88 118 155 185 216 267
#     4   8  15  28  44  62  87 123 162 189 212 252
#     4   9  17  29  46  67  90 117 148 182 219 259
#
# _framework density 15.800311000000001
#
# number of rings (size 3 to 8) (size 9 to 14) (size 15 to 20)
#    0.000    2.750    0.000    3.750    0.000    2.500 
#    0.000    1.250    0.000    3.375    0.000   12.250 
#    0.000   18.000    0.000    0.000    0.000    0.000 
#
# Total GULP energy -356416.343719 kJ/mol
# GULP energy per Si atom -5569.005371 kJ/mol
# Density = 1.576435 g / cm^3
# Si number density = 15.800311 Si / 1000 Ang^3
#
#
#
# Elastic Constant Matrix: (Units=GPa)
#
#
# Indices 1 2 3 4 5 6 
#
# 1 86.2389 52.3399 34.3327 0.0000 0.0000 0.0000
# 2 52.3399 86.2391 34.3344 0.0000 0.0000 0.0000
# 3 34.3327 34.3344 69.8717 0.0000 0.0000 0.0000
# 4 0.0000 0.0000 0.0000 12.1939 0.0000 0.0000
# 5 0.0000 0.0000 0.0000 0.0000 12.1918 0.0000
# 6 0.0000 0.0000 0.0000 0.0000 0.0000 23.9316
#
#
#
# Elastic Compliance Matrix: (Units=1/GPa)
#
#
# Indices 1 2 3 4 5 6 
#
# 1 0.019519 -0.009980 -0.004687 0.000000 0.000000 0.000000
# 2 -0.009980 0.019519 -0.004688 0.000000 0.000000 0.000000
# 3 -0.004687 -0.004688 0.018918 0.000000 0.000000 0.000000
# 4 0.000000 0.000000 0.000000 0.082009 0.000000 0.000000
# 5 0.000000 0.000000 0.000000 0.000000 0.082023 0.000000
# 6 0.000000 0.000000 0.000000 0.000000 0.000000 0.041786
#
#
# Mechanical properties :
#
#
# Convention : Reuss Voigt Hill
#
# Bulk Modulus (GPa) = 51.95587 53.81820 52.88703
# Shear Modulus (GPa) = 16.18658 17.75294 16.96976
#
# Velocity S-wave (km/s) = 3.20417 3.35562 3.28077
# Velocity P-wave (km/s) = 6.82958 7.01064 6.92070
#
# Compressibility (1/GPa) = 0.01924710
#
# Stress axis : x y z
#
# Youngs Moduli (GPa) = 51.23270 51.23164 52.85913
#
# Poissons Ratio (x) = 0.51131 0.24773
# Poissons Ratio (y) = 0.51132 0.24778
# Poissons Ratio (z) = 0.24011 0.24015
#
# Static dielectric constant tensor:
#      x y z
#    x 1.510280 0.000000 0.000000 
#    y 0.000000 1.510280 0.000000 
#    z 0.000000 0.000000 1.535140 
# 
# From -- ./inp_files/4380.got.cif
#   From: 2010.05.17/outbox.cif.g08.bks.cpg/sg111_3_cif.got.tgz:4380.got - 2010.05.20 10:56:05.
