data_PCOD9554095
_publ_section_title
;
Structure prediction by ZEFSAII (Michael W. Deem and Ramdas Pophale) SiO2 
 PCOD9554095
Probable space group: I 41 M D
;
_chemical_formula_sum "Si O2"
_cell_formula_units_Z 56
_cell_length_a 16.535300
_cell_length_b 16.535300
_cell_length_c 8.817874
_cell_angle_alpha 90.000000
_cell_angle_beta 90.000000
_cell_angle_gamma 90.000000
_cell_volume 2410.949126
_symmetry_space_group_name_H-M "I 41 M D"
_symmetry_group_IT_number 109
_symmetry_cell_setting 'tetragonal'
loop_
_space_group_symop_operation_xyz
x,y,z
-y,1/2+x,1/4+z
-x,-y,z
y,1/2-x,1/4+z
-x,y,z
x,-y,z
-y,1/2-x,1/4+z
y,1/2+x,1/4+z
1/2+x,1/2+y,1/2+z
1/2-y,x,3/4+z
1/2-x,1/2-y,1/2+z
1/2+y,-x,3/4+z
1/2-x,1/2+y,1/2+z
1/2+x,1/2-y,1/2+z
1/2-y,-x,3/4+z
1/2+y,x,3/4+z
loop_
_atom_site_type_symbol
_atom_site_label
_atom_site_fract_x
_atom_site_fract_y
_atom_site_fract_z
Si Si1 0.251144 0.826647 0.361530
Si Si2 0.500000 0.594928 0.450507
Si Si3 0.585635 0.653000 0.730727
Si Si4 0.912504 0.000000 0.456311
Si Si5 0.500000 0.730941 0.196498
O O1 0.231177 0.816414 0.537554
O O2 0.169321 0.805089 0.269229
O O3 0.274082 0.919879 0.343893
O O4 0.500000 0.500000 0.414172
O O5 0.575512 0.616516 0.562158
O O6 0.500000 0.656752 0.312071
O O7 0.500000 0.698943 0.751582
O O8 0.586016 0.577695 0.846830
O O9 0.821420 0.000000 0.523912
O O10 0.000000 0.000000 0.540877
#
# Coordination Sequence:
#
# PCOD9554095 Si02
#       5
#    16   8  16   8   8
#     4  11  26  44  69  99 144 182 232 286 355 419
#     4  10  18  37  70 103 136 173 234 286 351 416
#     4   8  16  34  66  93 122 175 231 272 328 409
#     4   8  12  32  59  93 125 170 231 273 325 404
#     4  10  24  41  65 104 141 175 231 295 348 414
#
# _framework density 23.227366
#
# number of rings (size 3 to 8) (size 9 to 14) (size 15 to 20)
#    0.857    1.714    1.429    0.000    6.000    0.000 
#    2.571    0.000    0.000    0.000    0.000    0.000 
#    0.000    0.000    0.000    0.000    0.000    0.000 
#
# Total GULP energy -155998.728164 kJ/mol
# GULP energy per Si atom -5571.383149 kJ/mol
# Density = 2.317450 g / cm^3
# Si number density = 23.227366 Si / 1000 Ang^3
#
#
#
# Elastic Constant Matrix: (Units=GPa)
#
#
# Indices 1 2 3 4 5 6 
#
# 1 86.2018 0.3933 32.7044 0.0000 0.0000 0.0000
# 2 0.3933 86.2018 32.7044 0.0000 0.0000 0.0000
# 3 32.7044 32.7044 72.5156 0.0000 0.0000 0.0000
# 4 0.0000 0.0000 0.0000 23.1181 0.0000 0.0000
# 5 0.0000 0.0000 0.0000 0.0000 23.1181 0.0000
# 6 0.0000 0.0000 0.0000 0.0000 0.0000 19.1892
#
#
#
# Elastic Compliance Matrix: (Units=1/GPa)
#
#
# Indices 1 2 3 4 5 6 
#
# 1 0.014584 0.002930 -0.007899 0.000000 0.000000 0.000000
# 2 0.002930 0.014584 -0.007899 0.000000 0.000000 0.000000
# 3 -0.007899 -0.007899 0.020915 0.000000 0.000000 0.000000
# 4 0.000000 0.000000 0.000000 0.043256 0.000000 0.000000
# 5 0.000000 0.000000 0.000000 0.000000 0.043256 0.000000
# 6 0.000000 0.000000 0.000000 0.000000 0.000000 0.052113
#
#
# Mechanical properties :
#
#
# Convention : Reuss Voigt Hill
#
# Bulk Modulus (GPa) = 41.07126 41.83594 41.45360
# Shear Modulus (GPa) = 22.46591 25.02622 23.74607
#
# Velocity S-wave (km/s) = 3.11339 3.28601 3.20086
# Velocity P-wave (km/s) = 5.53578 5.69629 5.61661
#
# Compressibility (1/GPa) = 0.02434793
#
# Stress axis : x y z
#
# Youngs Moduli (GPa) = 68.56765 68.56765 47.81264
#
# Poissons Ratio (x) = -0.20092 0.37767
# Poissons Ratio (y) = -0.20092 0.37767
# Poissons Ratio (z) = 0.54161 0.54161
#
# Static dielectric constant tensor:
#      x y z
#    x 1.925740 0.000000 0.000000 
#    y 0.000000 1.925740 0.000000 
#    z 0.000000 0.000000 1.891450 
# 
# From -- ./inp_files/1082.got.cif
#   From: 2010.05.17/outbox.cif.g08.bks.cpg/sg109_1_cif.got.tgz:1082.got - 2010.05.20 10:51:12.
