data_PCOD9554211
_publ_section_title
;
Structure prediction by ZEFSAII (Michael W. Deem and Ramdas Pophale) SiO2 
 PCOD9554211
Probable space group: I 41 M D
;
_chemical_formula_sum "Si O2"
_cell_formula_units_Z 96
_cell_length_a 21.332856
_cell_length_b 21.332856
_cell_length_c 8.867691
_cell_angle_alpha 90.000000
_cell_angle_beta 90.000000
_cell_angle_gamma 90.000000
_cell_volume 4035.604105
_symmetry_space_group_name_H-M "I 41 M D"
_symmetry_group_IT_number 109
_symmetry_cell_setting 'tetragonal'
loop_
_space_group_symop_operation_xyz
x,y,z
-y,1/2+x,1/4+z
-x,-y,z
y,1/2-x,1/4+z
-x,y,z
x,-y,z
-y,1/2-x,1/4+z
y,1/2+x,1/4+z
1/2+x,1/2+y,1/2+z
1/2-y,x,3/4+z
1/2-x,1/2-y,1/2+z
1/2+y,-x,3/4+z
1/2-x,1/2+y,1/2+z
1/2+x,1/2-y,1/2+z
1/2-y,-x,3/4+z
1/2+y,x,3/4+z
loop_
_atom_site_type_symbol
_atom_site_label
_atom_site_fract_x
_atom_site_fract_y
_atom_site_fract_z
Si Si1 0.688055 0.566248 0.788940
Si Si2 0.334178 0.926483 0.551867
Si Si3 0.568831 0.392723 0.627119
Si Si4 0.632830 0.796185 0.439316
Si Si5 0.772728 0.800659 0.320765
Si Si6 0.250607 0.931018 0.976211
O O1 0.692600 0.500000 0.874523
O O2 0.623297 0.567713 0.699050
O O3 0.696289 0.633447 0.868468
O O4 0.737973 0.566810 0.653631
O O5 0.377843 0.925351 0.700509
O O6 0.365570 0.874172 0.440059
O O7 0.263147 0.905583 0.609824
O O8 0.331754 0.000000 0.500234
O O9 0.500000 0.418249 0.657476
O O10 0.575059 0.324300 0.702089
O O11 0.704167 0.788245 0.388584
O O12 0.618134 0.782357 0.615615
O O13 0.806684 0.741039 0.393103
O O14 0.230942 0.000000 0.916638
#
# Coordination Sequence:
#
# PCOD9554211 Si02
#       6
#    16  16  16  16  16  16
#     4  11  23  39  60  90 131 167 212 271 327 398
#     4  10  21  36  61  95 132 173 217 270 337 405
#     4   9  18  34  58  88 122 165 215 264 315 386
#     4  11  20  38  61  93 131 169 214 272 331 401
#     4  12  28  41  63  96 129 172 218 276 340 405
#     4   9  19  36  63  92 126 170 209 265 329 392
#
# _framework density 23.788260000000001
#
# number of rings (size 3 to 8) (size 9 to 14) (size 15 to 20)
#    0.000    1.667    3.333    2.500    7.000    1.000 
#    0.000    0.000    0.000    2.000    0.000    0.000 
#    0.000    0.000    0.000    0.000    0.000    0.000 
#
# Total GULP energy -267210.252796 kJ/mol
# GULP energy per Si atom -5566.880267 kJ/mol
# Density = 2.373412 g / cm^3
# Si number density = 23.788260 Si / 1000 Ang^3
#
#
#
# Elastic Constant Matrix: (Units=GPa)
#
#
# Indices 1 2 3 4 5 6 
#
# 1 96.5840 39.1785 7.2299 0.0000 0.0000 0.0000
# 2 39.1785 96.5840 7.2299 0.0000 0.0000 0.0000
# 3 7.2299 7.2299 22.4258 0.0000 0.0000 0.0000
# 4 0.0000 0.0000 0.0000 31.1288 0.0000 0.0000
# 5 0.0000 0.0000 0.0000 0.0000 31.1288 0.0000
# 6 0.0000 0.0000 0.0000 0.0000 0.0000 -70.0554
#
#
#
# Elastic Compliance Matrix: (Units=1/GPa)
#
#
# Indices 1 2 3 4 5 6 
#
# 1 0.012524 -0.004896 -0.002459 0.000000 0.000000 0.000000
# 2 -0.004896 0.012524 -0.002459 0.000000 0.000000 0.000000
# 3 -0.002459 -0.002459 0.046177 0.000000 0.000000 0.000000
# 4 0.000000 0.000000 0.000000 0.032125 0.000000 0.000000
# 5 0.000000 0.000000 0.000000 0.000000 0.032125 0.000000
# 6 0.000000 0.000000 0.000000 0.000000 0.000000 -0.014274
#
#
# Mechanical properties :
#
#
# Convention : Reuss Voigt Hill
#
# Bulk Modulus (GPa) = 19.38132 35.87447 27.62789
# Shear Modulus (GPa) = 31.64021 9.23748 20.43884
#
# Velocity S-wave (km/s) = 3.65098 1.97272 2.93439
# Velocity P-wave (km/s) = 5.09293 4.50581 4.80834
#
# Compressibility (1/GPa) = 0.05159608
#
# Stress axis : x y z
#
# Youngs Moduli (GPa) = 79.84782 79.84782 21.65576
#
# Poissons Ratio (x) = 0.39094 0.05325
# Poissons Ratio (y) = 0.39094 0.05325
# Poissons Ratio (z) = 0.19635 0.19635
#
# Static dielectric constant tensor:
#      x y z
#    x 1.983050 0.000000 0.000000 
#    y 0.000000 1.983050 0.000000 
#    z 0.000000 0.000000 2.049220 
# 
# From -- ./inp_files/2057.got.cif
#   From: 2010.05.17/outbox.cif.g08.bks.cpg/sg109_2_cif.got.tgz:2057.got - 2010.05.20 10:51:12.
