data_PCOD9554349
_publ_section_title
;
Structure prediction by ZEFSAII (Michael W. Deem and Ramdas Pophale) SiO2 
 PCOD9554349
Probable space group: I 41 C D
;
_chemical_formula_sum "Si O2"
_cell_formula_units_Z 120
_cell_length_a 18.373653
_cell_length_b 18.373653
_cell_length_c 15.389326
_cell_angle_alpha 90.000000
_cell_angle_beta 90.000000
_cell_angle_gamma 90.000000
_cell_volume 5195.299871
_symmetry_space_group_name_H-M "I 41 C D"
_symmetry_group_IT_number 110
_symmetry_cell_setting 'tetragonal'
loop_
_space_group_symop_operation_xyz
x,y,z
-y,1/2+x,1/4+z
-x,-y,z
y,1/2-x,1/4+z
-x,y,1/2+z
x,-y,1/2+z
1/2-y,-x,1/4+z
1/2+y,x,1/4+z
1/2+x,1/2+y,1/2+z
1/2-y,x,3/4+z
1/2-x,1/2-y,1/2+z
1/2+y,-x,3/4+z
1/2-x,1/2+y,z
1/2+x,1/2-y,z
-y,1/2-x,3/4+z
y,1/2+x,3/4+z
loop_
_atom_site_type_symbol
_atom_site_label
_atom_site_fract_x
_atom_site_fract_y
_atom_site_fract_z
Si Si1 0.805088 0.865763 0.598700
Si Si2 0.780741 0.502916 0.565899
Si Si3 0.051586 0.414914 0.950514
Si Si4 0.489966 0.663019 0.119790
Si Si5 0.612615 0.900127 0.174836
Si Si6 0.735163 0.380274 0.301532
Si Si7 0.500000 0.500000 0.360519
Si Si8 0.594531 0.844986 0.881528
O O1 0.845805 0.896062 0.684429
O O2 0.855201 0.878880 0.512727
O O3 0.812339 0.778845 0.594772
O O4 0.736722 0.918249 0.585360
O O5 0.811446 0.511712 0.469827
O O6 0.830213 0.539332 0.640395
O O7 0.705617 0.549035 0.566803
O O8 0.050694 0.454717 0.043131
O O9 0.084717 0.470217 0.879257
O O10 0.970148 0.387647 0.932606
O O11 0.544325 0.719157 0.070715
O O12 0.406611 0.647858 0.093077
O O13 0.612440 0.839702 0.101247
O O14 0.537957 0.942374 0.171186
O O15 0.710345 0.369756 0.201824
#
# Coordination Sequence:
#
# PCOD9554349 Si02
#       8
#    16  16  16  16  16  16   8  16
#     4  10  24  37  58  96 124 164 210 267 311 389
#     4  11  21  37  63  88 121 167 213 254 317 384
#     4  10  18  35  59  86 114 160 203 258 319 361
#     4  11  20  36  62  88 120 161 208 258 313 388
#     4  12  22  39  63  92 123 166 213 263 325 385
#     4  11  21  37  63  87 122 165 207 254 326 378
#     4  12  20  34  64  92 114 164 210 264 320 382
#     4  11  20  36  62  87 121 160 207 258 315 383
#
# _framework density 23.097799999999999
#
# number of rings (size 3 to 8) (size 9 to 14) (size 15 to 20)
#    0.000    1.067    8.000    0.000    0.000    0.533 
#    2.400    0.000    8.800    1.600    0.000    0.000 
#    0.000    0.000    0.000    0.000    0.000    0.000 
#
# Total GULP energy -334500.675575 kJ/mol
# GULP energy per Si atom -5575.011260 kJ/mol
# Density = 2.304523 g / cm^3
# Si number density = 23.097800 Si / 1000 Ang^3
#
#
#
# Elastic Constant Matrix: (Units=GPa)
#
#
# Indices 1 2 3 4 5 6 
#
# 1 76.2930 32.7702 2.3144 0.0000 0.0000 0.0000
# 2 32.7702 76.2930 2.3144 0.0000 0.0000 0.0000
# 3 2.3144 2.3144 58.9320 0.0000 0.0000 0.0000
# 4 0.0000 0.0000 0.0000 24.4064 0.0000 0.0000
# 5 0.0000 0.0000 0.0000 0.0000 24.4064 0.0000
# 6 0.0000 0.0000 0.0000 0.0000 0.0000 41.4440
#
#
#
# Elastic Compliance Matrix: (Units=1/GPa)
#
#
# Indices 1 2 3 4 5 6 
#
# 1 0.016080 -0.006896 -0.000361 0.000000 0.000000 0.000000
# 2 -0.006896 0.016080 -0.000361 0.000000 0.000000 0.000000
# 3 -0.000361 -0.000361 0.016997 0.000000 0.000000 0.000000
# 4 0.000000 0.000000 0.000000 0.040973 0.000000 0.000000
# 5 0.000000 0.000000 0.000000 0.000000 0.040973 0.000000
# 6 0.000000 0.000000 0.000000 0.000000 0.000000 0.024129
#
#
# Mechanical properties :
#
#
# Convention : Reuss Voigt Hill
#
# Bulk Modulus (GPa) = 29.47863 31.81289 30.64576
# Shear Modulus (GPa) = 27.50656 29.65931 28.58293
#
# Velocity S-wave (km/s) = 3.45465 3.58729 3.52159
# Velocity P-wave (km/s) = 5.35752 5.56428 5.46188
#
# Compressibility (1/GPa) = 0.03392288
#
# Stress axis : x y z
#
# Youngs Moduli (GPa) = 62.18765 62.18765 58.83378
#
# Poissons Ratio (x) = 0.42885 0.02122
# Poissons Ratio (y) = 0.42885 0.02122
# Poissons Ratio (z) = 0.02243 0.02243
#
# Static dielectric constant tensor:
#      x y z
#    x 1.976230 0.000000 0.000000 
#    y 0.000000 1.976230 0.000000 
#    z 0.000000 0.000000 1.841650 
# 
# From -- ./inp_files/1807.got.cif
#   From: 2010.05.17/outbox.cif.g08.bks.cpg/sg110_1_cif.got.tgz:1807.got - 2010.05.20 10:54:03.
