data_PCOD9554731
_publ_section_title
;
Structure prediction by ZEFSAII (Michael W. Deem and Ramdas Pophale) SiO2 
 PCOD9554731
Probable space group: P -4 2 M 
;
_chemical_formula_sum "Si O2"
_cell_formula_units_Z 32
_cell_length_a 14.405670
_cell_length_b 14.405670
_cell_length_c 8.317012
_cell_angle_alpha 90.000000
_cell_angle_beta 90.000000
_cell_angle_gamma 90.000000
_cell_volume 1725.974010
_symmetry_space_group_name_H-M "P -4 2 M "
_symmetry_group_IT_number 111
_symmetry_cell_setting 'tetragonal'
loop_
_space_group_symop_operation_xyz
x,y,z
y,-x,-z
-x,-y,z
-y,x,-z
x,-y,-z
-x,y,-z
-y,-x,z
y,x,z
loop_
_atom_site_type_symbol
_atom_site_label
_atom_site_fract_x
_atom_site_fract_y
_atom_site_fract_z
Si Si1 0.414239 0.190446 0.390196
Si Si2 0.389491 0.984207 0.813583
Si Si3 0.313119 0.171571 0.706704
Si Si4 0.462229 0.687598 0.179435
O O1 0.500000 0.151250 0.500000
O O2 0.338689 0.202879 0.526693
O O3 0.456900 0.280015 0.300817
O O4 0.378078 0.118021 0.258563
O O5 0.331768 0.062872 0.721215
O O6 0.500000 0.000000 0.796804
O O7 0.366675 0.000000 0.000000
O O8 0.212983 0.212983 0.749307
O O9 0.389439 0.226057 0.815587
O O10 0.402915 0.597086 0.228194
O O11 0.500000 0.675228 0.000000
#
# Coordination Sequence:
#
# PCOD9554731 Si02
#       4
#     8   8   8   8
#     4  10  19  32  53  74 102 140 181 228 271 332
#     4  11  19  31  56  81 104 137 180 220 275 333
#     4  10  21  34  51  78 111 139 176 233 277 321
#     4  10  20  33  48  68  99 144 193 238 275 311
#
# _framework density 18.540257
#
# number of rings (size 3 to 8) (size 9 to 14) (size 15 to 20)
#    0.000    1.750    5.000    2.250    0.000    1.250 
#    0.000    5.000    0.000    1.500    0.000    0.000 
#    0.000   16.500    0.000    0.000    0.000    0.000 
#
# Total GULP energy -178347.675368 kJ/mol
# GULP energy per Si atom -5573.364855 kJ/mol
# Density = 1.849806 g / cm^3
# Si number density = 18.540257 Si / 1000 Ang^3
#
#
#
# Elastic Constant Matrix: (Units=GPa)
#
#
# Indices 1 2 3 4 5 6 
#
# 1 60.7572 54.5318 34.0277 0.0000 0.0000 0.0000
# 2 54.5318 60.7567 34.0259 0.0000 0.0000 0.0000
# 3 34.0277 34.0259 96.7371 0.0000 0.0000 0.0000
# 4 0.0000 0.0000 0.0000 9.9850 0.0000 0.0000
# 5 0.0000 0.0000 0.0000 0.0000 9.9851 0.0000
# 6 0.0000 0.0000 0.0000 0.0000 0.0000 23.0173
#
#
#
# Elastic Compliance Matrix: (Units=1/GPa)
#
#
# Indices 1 2 3 4 5 6 
#
# 1 0.085793 -0.074846 -0.003852 0.000000 0.000000 0.000000
# 2 -0.074846 0.085792 -0.003849 0.000000 0.000000 0.000000
# 3 -0.003852 -0.003849 0.013046 0.000000 0.000000 0.000000
# 4 0.000000 0.000000 0.000000 0.100150 0.000000 0.000000
# 5 0.000000 0.000000 0.000000 0.000000 0.100149 0.000000
# 6 0.000000 0.000000 0.000000 0.000000 0.000000 0.043446
#
#
# Mechanical properties :
#
#
# Convention : Reuss Voigt Hill
#
# Bulk Modulus (GPa) = 51.18309 51.49132 51.33721
# Shear Modulus (GPa) = 8.33359 14.97518 11.65438
#
# Velocity S-wave (km/s) = 2.12241 2.84511 2.50991
# Velocity P-wave (km/s) = 5.80281 6.21497 6.01242
#
# Compressibility (1/GPa) = 0.01953770
#
# Stress axis : x y z
#
# Youngs Moduli (GPa) = 11.65595 11.65614 76.65144
#
# Poissons Ratio (x) = 0.87241 0.29528
# Poissons Ratio (y) = 0.87240 0.29501
# Poissons Ratio (z) = 0.04490 0.04486
#
# Static dielectric constant tensor:
#      x y z
#    x 1.655910 0.000000 0.000000 
#    y 0.000000 1.655910 0.000000 
#    z 0.000000 0.000000 1.671730 
# 
# From -- ./inp_files/1250.got.cif
#   From: 2010.05.17/outbox.cif.g08.bks.cpg/sg111_1_cif.got.tgz:1250.got - 2010.05.20 10:56:05.
