data_PCOD9554434
_publ_section_title
;
Structure prediction by ZEFSAII (Michael W. Deem and Ramdas Pophale) SiO2 
 PCOD9554434
Probable space group: I 41 C D
;
_chemical_formula_sum "Si O2"
_cell_formula_units_Z 120
_cell_length_a 16.472886
_cell_length_b 16.472886
_cell_length_c 18.015550
_cell_angle_alpha 90.000000
_cell_angle_beta 90.000000
_cell_angle_gamma 90.000000
_cell_volume 4888.627102
_symmetry_space_group_name_H-M "I 41 C D"
_symmetry_group_IT_number 110
_symmetry_cell_setting 'tetragonal'
loop_
_space_group_symop_operation_xyz
x,y,z
-y,1/2+x,1/4+z
-x,-y,z
y,1/2-x,1/4+z
-x,y,1/2+z
x,-y,1/2+z
1/2-y,-x,1/4+z
1/2+y,x,1/4+z
1/2+x,1/2+y,1/2+z
1/2-y,x,3/4+z
1/2-x,1/2-y,1/2+z
1/2+y,-x,3/4+z
1/2-x,1/2+y,z
1/2+x,1/2-y,z
-y,1/2-x,3/4+z
y,1/2+x,3/4+z
loop_
_atom_site_type_symbol
_atom_site_label
_atom_site_fract_x
_atom_site_fract_y
_atom_site_fract_z
Si Si1 0.043896 0.128456 0.246270
Si Si2 0.721373 0.400396 0.291048
Si Si3 0.167722 0.995873 0.409637
Si Si4 0.500000 0.000000 0.594495
Si Si5 0.237785 0.705644 0.164410
Si Si6 0.131169 0.399434 0.344422
Si Si7 0.808575 0.372836 0.687617
Si Si8 0.782875 0.012647 0.067793
O O1 0.132694 0.090406 0.254095
O O2 0.033034 0.133802 0.158697
O O3 0.048752 0.211165 0.292671
O O4 0.979649 0.073673 0.289209
O O5 0.724157 0.480042 0.340934
O O6 0.776247 0.366026 0.224736
O O7 0.717808 0.330535 0.353384
O O8 0.076108 0.024248 0.393123
O O9 0.159493 0.898281 0.413412
O O10 0.196751 0.041678 0.484112
O O11 0.322113 0.682311 0.123909
O O12 0.255407 0.792339 0.203167
O O13 0.164426 0.418937 0.262647
O O14 0.039514 0.361802 0.339603
O O15 0.757462 0.427235 0.628217
#
# Coordination Sequence:
#
# PCOD9554434 Si02
#       8
#    16  16  16   8  16  16  16  16
#     4  10  20  42  66  92 130 174 230 274 348 432
#     4  10  21  37  65  92 127 182 224 280 348 423
#     4  10  22  40  67  98 136 179 231 290 359 434
#     4  10  20  42  70  94 134 186 218 294 370 420
#     4  11  20  41  63  93 133 176 235 283 355 417
#     4  10  20  41  63  91 132 178 226 284 344 431
#     4  11  23  41  68 100 137 180 229 302 359 412
#     4  11  22  42  66 102 133 178 236 288 357 430
#
# _framework density 24.546768
#
# number of rings (size 3 to 8) (size 9 to 14) (size 15 to 20)
#    0.000    1.600    4.000    2.400    1.867    0.000 
#   14.400    4.000    0.000    0.000    0.000    0.000 
#    0.000    0.000    0.000    0.000    0.000    0.000 
#
# Total GULP energy -334585.165615 kJ/mol
# GULP energy per Si atom -5576.419427 kJ/mol
# Density = 2.449090 g / cm^3
# Si number density = 24.546768 Si / 1000 Ang^3
#
#
#
# Elastic Constant Matrix: (Units=GPa)
#
#
# Indices 1 2 3 4 5 6 
#
# 1 49.9613 14.2374 42.1338 0.0000 0.0000 0.0000
# 2 14.2374 49.9613 42.1338 0.0000 0.0000 0.0000
# 3 42.1338 42.1338 147.3160 0.0000 0.0000 0.0000
# 4 0.0000 0.0000 0.0000 42.3812 0.0000 0.0000
# 5 0.0000 0.0000 0.0000 0.0000 42.3812 0.0000
# 6 0.0000 0.0000 0.0000 0.0000 0.0000 23.0779
#
#
#
# Elastic Compliance Matrix: (Units=1/GPa)
#
#
# Indices 1 2 3 4 5 6 
#
# 1 0.026466 -0.001527 -0.007133 0.000000 0.000000 0.000000
# 2 -0.001527 0.026466 -0.007133 0.000000 0.000000 0.000000
# 3 -0.007133 -0.007133 0.010868 0.000000 0.000000 0.000000
# 4 0.000000 0.000000 0.000000 0.023595 0.000000 0.000000
# 5 0.000000 0.000000 0.000000 0.000000 0.023595 0.000000
# 6 0.000000 0.000000 0.000000 0.000000 0.000000 0.043332
#
#
# Mechanical properties :
#
#
# Convention : Reuss Voigt Hill
#
# Bulk Modulus (GPa) = 31.04111 49.36095 40.20103
# Shear Modulus (GPa) = 25.42647 31.48361 28.45504
#
# Velocity S-wave (km/s) = 3.22193 3.58522 3.40842
# Velocity P-wave (km/s) = 5.14920 6.10664 5.64824
#
# Compressibility (1/GPa) = 0.03221534
#
# Stress axis : x y z
#
# Youngs Moduli (GPa) = 37.78451 37.78452 92.01093
#
# Poissons Ratio (x) = 0.05768 0.65630
# Poissons Ratio (y) = 0.05768 0.65630
# Poissons Ratio (z) = 0.26951 0.26951
#
# Static dielectric constant tensor:
#      x y z
#    x 2.037670 0.000000 0.000000 
#    y 0.000000 2.037670 0.000000 
#    z 0.000000 0.000000 2.010950 
# 
# From -- ./inp_files/1803.got.cif
#   From: 2010.05.17/outbox.cif.g08.bks.cpg/sg110_1_cif.got.tgz:1803.got - 2010.05.20 10:54:03.
