data_PCOD9554074
_publ_section_title
;
Structure prediction by ZEFSAII (Michael W. Deem and Ramdas Pophale) SiO2 
 PCOD9554074
Probable space group: I 41 M D
;
_chemical_formula_sum "Si O2"
_cell_formula_units_Z 128
_cell_length_a 20.965127
_cell_length_b 20.965127
_cell_length_c 18.914658
_cell_angle_alpha 90.000000
_cell_angle_beta 90.000000
_cell_angle_gamma 90.000000
_cell_volume 8313.683524
_symmetry_space_group_name_H-M "I 41 M D"
_symmetry_group_IT_number 109
_symmetry_cell_setting 'tetragonal'
loop_
_space_group_symop_operation_xyz
x,y,z
-y,1/2+x,1/4+z
-x,-y,z
y,1/2-x,1/4+z
-x,y,z
x,-y,z
-y,1/2-x,1/4+z
y,1/2+x,1/4+z
1/2+x,1/2+y,1/2+z
1/2-y,x,3/4+z
1/2-x,1/2-y,1/2+z
1/2+y,-x,3/4+z
1/2-x,1/2+y,1/2+z
1/2+x,1/2-y,1/2+z
1/2-y,-x,3/4+z
1/2+y,x,3/4+z
loop_
_atom_site_type_symbol
_atom_site_label
_atom_site_fract_x
_atom_site_fract_y
_atom_site_fract_z
Si Si1 0.072102 0.115868 0.317010
Si Si2 0.572014 0.730947 0.219157
Si Si3 0.769073 0.689355 0.067401
Si Si4 0.927986 0.269053 0.316751
Si Si5 0.884132 0.927898 0.468898
Si Si6 0.269073 0.310645 0.468506
Si Si7 0.615227 0.189380 0.968544
Si Si8 0.384773 0.310620 0.067364
O O1 0.078925 0.192458 0.327461
O O2 0.084729 0.084729 0.392954
O O3 0.125626 0.096423 0.260558
O O4 0.000000 0.102544 0.293493
O O5 0.500000 0.718528 0.243182
O O6 0.625450 0.712429 0.275842
O O7 0.578925 0.807542 0.208446
O O8 0.584451 0.698354 0.143768
O O9 0.801510 0.698490 0.142954
O O10 0.692127 0.689167 0.077383
O O11 0.783765 0.750000 0.017954
O O12 0.874550 0.287571 0.260065
O O13 0.915549 0.301646 0.392140
O O14 0.000000 0.281472 0.292725
O O15 0.903577 0.874374 0.525350
O O16 0.897455 0.000000 0.492414
O O17 0.192127 0.310833 0.458525
O O18 0.599433 0.250000 0.017954
#
# Coordination Sequence:
#
# PCOD9554074 Si02
#       8
#    16  16  16  16  16  16  16  16
#     4  10  20  32  46  69 103 137 167 199 239 289
#     4  10  20  32  49  75 103 131 162 204 251 291
#     4  10  18  30  52  77  99 126 165 209 244 284
#     4  10  20  32  49  75 103 131 162 204 251 291
#     4  10  20  32  46  69 103 137 167 199 239 289
#     4  10  18  30  52  77  99 126 165 209 244 284
#     4  10  18  29  50  73  98 131 169 200 236 289
#     4  10  18  29  50  73  98 131 169 200 236 289
#
# _framework density 15.396305
#
# number of rings (size 3 to 8) (size 9 to 14) (size 15 to 20)
#    0.000    2.000    5.000    0.000    0.000    1.750 
#    0.000    0.000    0.000    2.250    0.000    0.000 
#    0.000    0.000    0.000    0.000    0.000    0.000 
#
# Total GULP energy -357086.035442 kJ/mol
# GULP energy per Si atom -5579.469304 kJ/mol
# Density = 1.536126 g / cm^3
# Si number density = 15.396305 Si / 1000 Ang^3
#
#
#
# Elastic Constant Matrix: (Units=GPa)
#
#
# Indices 1 2 3 4 5 6 
#
# 1 76.1082 40.1152 46.1639 0.0000 0.0000 0.0000
# 2 40.1152 76.1082 46.1639 0.0000 0.0000 0.0000
# 3 46.1639 46.1639 91.9430 0.0000 0.0000 0.0000
# 4 0.0000 0.0000 0.0000 19.4108 0.0000 0.0000
# 5 0.0000 0.0000 0.0000 0.0000 19.4108 0.0000
# 6 0.0000 0.0000 0.0000 0.0000 0.0000 10.4384
#
#
#
# Elastic Compliance Matrix: (Units=1/GPa)
#
#
# Indices 1 2 3 4 5 6 
#
# 1 0.021048 -0.006735 -0.007186 0.000000 0.000000 0.000000
# 2 -0.006735 0.021048 -0.007186 0.000000 0.000000 0.000000
# 3 -0.007186 -0.007186 0.018093 0.000000 0.000000 0.000000
# 4 0.000000 0.000000 0.000000 0.051518 0.000000 0.000000
# 5 0.000000 0.000000 0.000000 0.000000 0.051518 0.000000
# 6 0.000000 0.000000 0.000000 0.000000 0.000000 0.095801
#
#
# Mechanical properties :
#
#
# Convention : Reuss Voigt Hill
#
# Bulk Modulus (GPa) = 55.63883 56.56058 56.09970
# Shear Modulus (GPa) = 16.27433 17.29973 16.78703
#
# Velocity S-wave (km/s) = 3.25472 3.35569 3.30559
# Velocity P-wave (km/s) = 7.09511 7.19934 7.14741
#
# Compressibility (1/GPa) = 0.01797306
#
# Stress axis : x y z
#
# Youngs Moduli (GPa) = 47.51014 47.51014 55.27047
#
# Poissons Ratio (x) = 0.31999 0.39720
# Poissons Ratio (y) = 0.31999 0.39720
# Poissons Ratio (z) = 0.34143 0.34143
#
# Static dielectric constant tensor:
#      x y z
#    x 1.518680 0.000000 0.000000 
#    y 0.000000 1.518680 0.000000 
#    z 0.000000 0.000000 1.477120 
# 
# From -- ./inp_files/3299.got.cif
#   From: 2010.05.17/outbox.cif.g08.bks.cpg/sg109_2_cif.got.tgz:3299.got - 2010.05.20 10:51:12.
