data_PCOD9554719
_publ_section_title
;
Structure prediction by ZEFSAII (Michael W. Deem and Ramdas Pophale) SiO2 
 PCOD9554719
Probable space group: P -4 2 M 
;
_chemical_formula_sum "Si O2"
_cell_formula_units_Z 64
_cell_length_a 12.180827
_cell_length_b 12.180827
_cell_length_c 25.553115
_cell_angle_alpha 90.000000
_cell_angle_beta 90.000000
_cell_angle_gamma 90.000000
_cell_volume 3791.380741
_symmetry_space_group_name_H-M "P -4 2 M "
_symmetry_group_IT_number 111
_symmetry_cell_setting 'tetragonal'
loop_
_space_group_symop_operation_xyz
x,y,z
y,-x,-z
-x,-y,z
-y,x,-z
x,-y,-z
-x,y,-z
-y,-x,z
y,x,z
loop_
_atom_site_type_symbol
_atom_site_label
_atom_site_fract_x
_atom_site_fract_y
_atom_site_fract_z
Si Si1 0.283607 0.104288 0.435089
Si Si2 0.806101 0.627367 0.990964
Si Si3 0.499962 0.311941 0.274363
Si Si4 0.323140 0.141829 0.552377
Si Si5 0.898770 0.282893 0.114146
Si Si6 0.313731 0.861361 0.892260
Si Si7 0.515166 0.127249 0.636592
Si Si8 0.125686 0.514778 0.186362
O O1 0.172957 0.172957 0.433282
O O2 0.343194 0.136207 0.489958
O O3 0.363522 0.133336 0.387641
O O4 0.264531 0.974235 0.435644
O O5 0.693719 0.693719 0.981715
O O6 0.880969 0.652697 0.940802
O O7 0.786435 0.500000 0.000000
O O8 0.855453 0.669769 0.045461
O O9 0.606328 0.393673 0.273354
O O10 0.393699 0.393699 0.275566
O O11 0.502662 0.226226 0.322880
O O12 0.497472 0.227024 0.225537
O O13 0.243958 0.243958 0.563382
O O14 0.429933 0.141946 0.588575
O O15 0.820903 0.179098 0.113233
O O16 0.867400 0.365452 0.160568
O O17 0.025433 0.253144 0.119912
O O18 0.243201 0.756800 0.875951
O O19 0.427370 0.865105 0.860948
O O20 0.500000 0.000000 0.656095
O O21 0.000000 0.500000 0.207921
#
# Coordination Sequence:
#
# PCOD9554719 Si02
#       8
#     8   8   8   8   8   8   8   8
#     4   9  17  29  47  72 101 132 164 200 241 284
#     4  10  19  32  50  74 104 135 168 203 240 286
#     4  11  23  37  53  73  99 127 157 202 255 299
#     4   9  17  29  47  72 101 132 164 200 241 284
#     4  10  20  33  52  76 102 132 163 198 240 287
#     4  10  20  33  52  76 102 132 163 198 240 287
#     4  10  19  33  52  72  96 128 169 205 237 285
#     4  10  20  36  57  75  95 125 164 203 242 291
#
# _framework density 16.880393000000002
#
# number of rings (size 3 to 8) (size 9 to 14) (size 15 to 20)
#    0.000    2.125    1.250    2.625    0.000    2.625 
#    0.000    1.250    0.000    2.250    0.000    5.250 
#    0.000   18.000    0.000    0.000    0.000    0.000 
#
# Total GULP energy -356605.978774 kJ/mol
# GULP energy per Si atom -5571.968418 kJ/mol
# Density = 1.684197 g / cm^3
# Si number density = 16.880393 Si / 1000 Ang^3
#
#
#
# Elastic Constant Matrix: (Units=GPa)
#
#
# Indices 1 2 3 4 5 6 
#
# 1 61.2018 15.5397 11.0110 0.0000 0.0000 0.0000
# 2 15.5397 61.2090 11.0125 0.0000 0.0000 0.0000
# 3 11.0110 11.0125 47.9040 0.0000 0.0000 0.0000
# 4 0.0000 0.0000 0.0000 21.7090 0.0000 0.0000
# 5 0.0000 0.0000 0.0000 0.0000 21.7095 0.0000
# 6 0.0000 0.0000 0.0000 0.0000 0.0000 19.2843
#
#
#
# Elastic Compliance Matrix: (Units=1/GPa)
#
#
# Indices 1 2 3 4 5 6 
#
# 1 0.017925 -0.003974 -0.003207 0.000000 0.000000 0.000000
# 2 -0.003974 0.017923 -0.003207 0.000000 0.000000 0.000000
# 3 -0.003207 -0.003207 0.022349 0.000000 0.000000 0.000000
# 4 0.000000 0.000000 0.000000 0.046064 0.000000 0.000000
# 5 0.000000 0.000000 0.000000 0.000000 0.046063 0.000000
# 6 0.000000 0.000000 0.000000 0.000000 0.000000 0.051856
#
#
# Mechanical properties :
#
#
# Convention : Reuss Voigt Hill
#
# Bulk Modulus (GPa) = 26.72154 27.27126 26.99640
# Shear Modulus (GPa) = 21.23775 21.39066 21.31421
#
# Velocity S-wave (km/s) = 3.55086 3.56362 3.55725
# Velocity P-wave (km/s) = 5.71627 5.75528 5.73581
#
# Compressibility (1/GPa) = 0.03742299
#
# Stress axis : x y z
#
# Youngs Moduli (GPa) = 55.78694 55.79319 44.74394
#
# Poissons Ratio (x) = 0.22172 0.14348
# Poissons Ratio (y) = 0.22169 0.14349
# Poissons Ratio (z) = 0.17889 0.17892
#
# Static dielectric constant tensor:
#      x y z
#    x 1.551530 0.000000 0.000000 
#    y 0.000000 1.551530 0.000000 
#    z 0.000000 0.000000 1.581720 
# 
# From -- ./inp_files/4274.got.cif
#   From: 2010.05.17/outbox.cif.g08.bks.cpg/sg111_3_cif.got.tgz:4274.got - 2010.05.20 10:56:05.
