data_PCOD9554030
_publ_section_title
;
Structure prediction by ZEFSAII (Michael W. Deem and Ramdas Pophale) SiO2 
 PCOD9554030
Probable space group: I 4 C M
;
_chemical_formula_sum "Si O2"
_cell_formula_units_Z 112
_cell_length_a 15.538909
_cell_length_b 15.538909
_cell_length_c 27.846920
_cell_angle_alpha 90.000000
_cell_angle_beta 90.000000
_cell_angle_gamma 90.000000
_cell_volume 6723.853058
_symmetry_space_group_name_H-M "I 4 C M"
_symmetry_group_IT_number 108
_symmetry_cell_setting 'tetragonal'
loop_
_space_group_symop_operation_xyz
x,y,z
-y,x,z
-x,-y,z
y,-x,z
-x,y,1/2+z
x,-y,1/2+z
-y,-x,1/2+z
y,x,1/2+z
1/2+x,1/2+y,1/2+z
1/2-y,1/2+x,1/2+z
1/2-x,1/2-y,1/2+z
1/2+y,1/2-x,1/2+z
1/2-x,1/2+y,z
1/2+x,1/2-y,z
1/2-y,1/2-x,z
1/2+y,1/2+x,z
loop_
_atom_site_type_symbol
_atom_site_label
_atom_site_fract_x
_atom_site_fract_y
_atom_site_fract_z
Si Si1 0.814442 0.167928 0.258070
Si Si2 0.601581 0.603099 0.462743
Si Si3 0.986027 0.241184 0.099207
Si Si4 0.013974 0.241184 0.714435
Si Si5 0.568413 0.931588 0.098558
Si Si6 0.068412 0.431589 0.715081
Si Si7 0.667929 0.314443 0.055574
Si Si8 0.601581 0.603100 0.850901
O O1 0.744600 0.244600 0.250824
O O2 0.904619 0.185046 0.230862
O O3 0.840008 0.154767 0.313702
O O4 0.780416 0.077117 0.238030
O O5 0.499078 0.617107 0.470807
O O6 0.654768 0.659991 0.499942
O O7 0.620423 0.620422 0.406822
O O8 0.994798 0.237052 0.156821
O O9 0.958798 0.336999 0.084006
O O10 0.904621 0.185044 0.082782
O O11 0.077119 0.219585 0.075613
O O12 0.041202 0.337001 0.729633
O O13 0.567583 0.932418 0.156819
O O14 0.500000 0.000000 0.080784
O O15 0.000000 0.500000 0.732855
O O16 0.744603 0.244603 0.062820
O O17 0.499078 0.617107 0.842837
#
# Coordination Sequence:
#
# PCOD9554030 Si02
#       8
#    16  16  16  16   8   8  16  16
#     4  12  23  37  59  86 114 150 194 238 288 341
#     4   9  18  36  61  84 108 141 183 233 291 351
#     4  11  23  37  55  82 117 154 192 236 279 332
#     4  11  23  37  55  82 117 154 192 236 279 332
#     4   9  18  36  56  74 105 153 199 231 270 326
#     4   9  18  36  56  74 105 153 199 231 270 326
#     4  12  23  37  59  86 114 150 194 238 288 341
#     4   9  18  36  61  84 108 141 183 233 291 351
#
# _framework density 16.657115000000001
#
# number of rings (size 3 to 8) (size 9 to 14) (size 15 to 20)
#    0.000    1.571    4.286    2.571    0.000    4.000 
#    0.000    1.429    0.000    0.000    0.000    0.000 
#    0.000    4.571    0.000    0.000    0.000    0.000 
#
# Total GULP energy -312337.621408 kJ/mol
# GULP energy per Si atom -5577.457525 kJ/mol
# Density = 1.661920 g / cm^3
# Si number density = 16.657115 Si / 1000 Ang^3
#
#
#
# Elastic Constant Matrix: (Units=GPa)
#
#
# Indices 1 2 3 4 5 6 
#
# 1 93.6163 43.1259 29.5333 0.0000 0.0000 0.0002
# 2 43.1259 93.6163 29.5333 0.0000 0.0000 -0.0002
# 3 29.5333 29.5333 73.9736 0.0000 0.0000 0.0000
# 4 0.0000 0.0000 0.0000 18.6084 0.0000 0.0000
# 5 0.0000 0.0000 0.0000 0.0000 18.6084 0.0000
# 6 0.0002 -0.0002 0.0000 0.0000 0.0000 35.8954
#
#
#
# Elastic Compliance Matrix: (Units=1/GPa)
#
#
# Indices 1 2 3 4 5 6 
#
# 1 0.014321 -0.005484 -0.003528 0.000000 0.000000 0.000000
# 2 -0.005484 0.014321 -0.003528 0.000000 0.000000 0.000000
# 3 -0.003528 -0.003528 0.016335 0.000000 0.000000 0.000000
# 4 0.000000 0.000000 0.000000 0.053739 0.000000 0.000000
# 5 0.000000 0.000000 0.000000 0.000000 0.053739 0.000000
# 6 0.000000 0.000000 0.000000 0.000000 0.000000 0.027859
#
#
# Mechanical properties :
#
#
# Convention : Reuss Voigt Hill
#
# Bulk Modulus (GPa) = 50.25860 51.73235 50.99547
# Shear Modulus (GPa) = 23.58172 25.22337 24.40254
#
# Velocity S-wave (km/s) = 3.76668 3.89558 3.83167
# Velocity P-wave (km/s) = 7.01107 7.16650 7.08921
#
# Compressibility (1/GPa) = 0.01989709
#
# Stress axis : x y z
#
# Youngs Moduli (GPa) = 69.82571 69.82571 61.21658
#
# Poissons Ratio (x) = 0.38295 0.21598
# Poissons Ratio (y) = 0.38295 0.21598
# Poissons Ratio (z) = 0.24635 0.24635
#
# Static dielectric constant tensor:
#      x y z
#    x 1.566710 0.000000 0.000000 
#    y 0.000000 1.566710 0.000000 
#    z 0.000000 0.000000 1.552470 
# 
# From -- ./inp_files/3392.got.cif
#   From: 2010.05.17/outbox.cif.g08.bks.cpg/sg108_2_cif.got.tgz:3392.got - 2010.05.20 10:49:05.
