data_PCOD9554438
_publ_section_title
;
Structure prediction by ZEFSAII (Michael W. Deem and Ramdas Pophale) SiO2 
 PCOD9554438
Probable space group: I 41 C D
;
_chemical_formula_sum "Si O2"
_cell_formula_units_Z 112
_cell_length_a 13.909240
_cell_length_b 13.909240
_cell_length_c 29.932354
_cell_angle_alpha 90.000000
_cell_angle_beta 90.000000
_cell_angle_gamma 90.000000
_cell_volume 5790.921456
_symmetry_space_group_name_H-M "I 41 C D"
_symmetry_group_IT_number 110
_symmetry_cell_setting 'tetragonal'
loop_
_space_group_symop_operation_xyz
x,y,z
-y,1/2+x,1/4+z
-x,-y,z
y,1/2-x,1/4+z
-x,y,1/2+z
x,-y,1/2+z
1/2-y,-x,1/4+z
1/2+y,x,1/4+z
1/2+x,1/2+y,1/2+z
1/2-y,x,3/4+z
1/2-x,1/2-y,1/2+z
1/2+y,-x,3/4+z
1/2-x,1/2+y,z
1/2+x,1/2-y,z
-y,1/2-x,3/4+z
y,1/2+x,3/4+z
loop_
_atom_site_type_symbol
_atom_site_label
_atom_site_fract_x
_atom_site_fract_y
_atom_site_fract_z
Si Si1 0.449343 0.593742 0.877450
Si Si2 0.770982 0.892474 0.259361
Si Si3 0.836940 0.799282 0.747285
Si Si4 0.541166 0.103098 0.344653
Si Si5 0.066191 0.745290 0.575829
Si Si6 0.542862 0.209201 0.929419
Si Si7 0.034029 0.199633 0.292436
O O1 0.500000 0.500000 0.896793
O O2 0.343514 0.568026 0.859785
O O3 0.449673 0.683565 0.910195
O O4 0.508899 0.629926 0.834044
O O5 0.691880 0.812144 0.248296
O O6 0.792823 0.961474 0.217577
O O7 0.865255 0.832552 0.272706
O O8 0.745724 0.964412 0.300091
O O9 0.780645 0.854674 0.787569
O O10 0.948789 0.812754 0.757430
O O11 0.814202 0.855396 0.702006
O O12 0.655548 0.091059 0.349979
O O13 0.487680 0.138072 0.389553
O O14 0.530081 0.191030 0.309993
O O15 0.500000 0.000000 0.329924
#
# Coordination Sequence:
#
# PCOD9554438 Si02
#       7
#    16  16  16  16  16  16  16
#     4  10  20  42  63  94 125 169 212 265 319 390
#     4  11  21  42  65  95 123 170 220 263 318 394
#     4  10  22  41  63  93 123 166 211 263 316 387
#     4  11  23  42  61  99 128 164 214 269 318 384
#     4  10  21  38  70  87 120 167 218 261 309 384
#     4  10  26  39  59  97 133 163 214 267 330 383
#     4  10  21  40  71  87 121 169 219 256 313 388
#
# _framework density 19.340617000000002
#
# number of rings (size 3 to 8) (size 9 to 14) (size 15 to 20)
#    0.000    1.714    2.857    0.857    4.000    0.000 
#    5.143    1.429    0.000    0.000    0.000    0.000 
#    0.000    0.000    0.000    0.000    0.000    0.000 
#
# Total GULP energy -312804.404863 kJ/mol
# GULP energy per Si atom -5585.792944 kJ/mol
# Density = 1.929660 g / cm^3
# Si number density = 19.340617 Si / 1000 Ang^3
#
#
#
# Elastic Constant Matrix: (Units=GPa)
#
#
# Indices 1 2 3 4 5 6 
#
# 1 92.1020 17.1556 21.9222 0.0000 0.0000 0.0000
# 2 17.1556 92.1020 21.9222 0.0000 0.0000 0.0000
# 3 21.9222 21.9222 56.0938 0.0000 0.0000 0.0000
# 4 0.0000 0.0000 0.0000 8.7617 0.0000 0.0000
# 5 0.0000 0.0000 0.0000 0.0000 8.7617 0.0000
# 6 0.0000 0.0000 0.0000 0.0000 0.0000 25.4687
#
#
#
# Elastic Compliance Matrix: (Units=1/GPa)
#
#
# Indices 1 2 3 4 5 6 
#
# 1 0.012099 -0.001244 -0.004242 0.000000 0.000000 0.000000
# 2 -0.001244 0.012099 -0.004242 0.000000 0.000000 0.000000
# 3 -0.004242 -0.004242 0.021143 0.000000 0.000000 0.000000
# 4 0.000000 0.000000 0.000000 0.114133 0.000000 0.000000
# 5 0.000000 0.000000 0.000000 0.000000 0.114133 0.000000
# 6 0.000000 0.000000 0.000000 0.000000 0.000000 0.039264
#
#
# Mechanical properties :
#
#
# Convention : Reuss Voigt Hill
#
# Bulk Modulus (GPa) = 38.63372 40.25530 39.44451
# Shear Modulus (GPa) = 14.66464 20.55160 17.60812
#
# Velocity S-wave (km/s) = 2.75659 3.26331 3.02059
# Velocity P-wave (km/s) = 5.49095 5.92098 5.71001
#
# Compressibility (1/GPa) = 0.02588412
#
# Stress axis : x y z
#
# Youngs Moduli (GPa) = 82.65154 82.65154 47.29660
#
# Poissons Ratio (x) = 0.10281 0.20065
# Poissons Ratio (y) = 0.10281 0.20065
# Poissons Ratio (z) = 0.35063 0.35063
#
# Static dielectric constant tensor:
#      x y z
#    x 1.670190 0.000000 0.000000 
#    y 0.000000 1.670190 0.000000 
#    z 0.000000 0.000000 1.660030 
# 
# From -- ./inp_files/3258.got.cif
#   From: 2010.05.17/outbox.cif.g08.bks.cpg/sg110_2_cif.got.tgz:3258.got - 2010.05.20 10:54:03.
