data_PCOD9554545
_publ_section_title
;
Structure prediction by ZEFSAII (Michael W. Deem and Ramdas Pophale) SiO2 
 PCOD9554545
Probable space group: I 41 C D
;
_chemical_formula_sum "Si O2"
_cell_formula_units_Z 64
_cell_length_a 15.514553
_cell_length_b 15.514553
_cell_length_c 8.729951
_cell_angle_alpha 90.000000
_cell_angle_beta 90.000000
_cell_angle_gamma 90.000000
_cell_volume 2101.311033
_symmetry_space_group_name_H-M "I 41 C D"
_symmetry_group_IT_number 110
_symmetry_cell_setting 'tetragonal'
loop_
_space_group_symop_operation_xyz
x,y,z
-y,1/2+x,1/4+z
-x,-y,z
y,1/2-x,1/4+z
-x,y,1/2+z
x,-y,1/2+z
1/2-y,-x,1/4+z
1/2+y,x,1/4+z
1/2+x,1/2+y,1/2+z
1/2-y,x,3/4+z
1/2-x,1/2-y,1/2+z
1/2+y,-x,3/4+z
1/2-x,1/2+y,z
1/2+x,1/2-y,z
-y,1/2-x,3/4+z
y,1/2+x,3/4+z
loop_
_atom_site_type_symbol
_atom_site_label
_atom_site_fract_x
_atom_site_fract_y
_atom_site_fract_z
Si Si1 0.321660 0.547977 0.649690
Si Si2 0.513604 0.324292 0.211363
Si Si3 0.777817 0.336117 0.281816
Si Si4 0.932684 0.416606 0.702519
O O1 0.254496 0.479491 0.581884
O O2 0.285502 0.641366 0.608901
O O3 0.341602 0.551922 0.827093
O O4 0.418982 0.360468 0.587006
O O5 0.429290 0.298234 0.108527
O O6 0.480524 0.092744 0.304829
O O7 0.489245 0.401783 0.330091
O O8 0.690598 0.298073 0.355834
#
# Coordination Sequence:
#
# PCOD9554545 Si02
#       4
#    16  16  16  16
#     4  10  23  45  71 109 151 201 266 334 410 507
#     4  10  23  45  72 112 153 201 269 335 405 506
#     4   9  20  42  69 100 145 196 253 320 394 482
#     4  11  24  42  72 103 153 207 252 331 417 492
#
# _framework density 30.457174999999999
#
# number of rings (size 3 to 8) (size 9 to 14) (size 15 to 20)
#    0.000    2.000    0.000    1.500    0.000   14.000 
#    0.000   30.000    0.000    0.000    0.000    0.000 
#    0.000    0.000    0.000    0.000    0.000    0.000 
#
# Total GULP energy -178486.269827 kJ/mol
# GULP energy per Si atom -5577.695932 kJ/mol
# Density = 3.038785 g / cm^3
# Si number density = 30.457175 Si / 1000 Ang^3
#
#
#
# Elastic Constant Matrix: (Units=GPa)
#
#
# Indices 1 2 3 4 5 6 
#
# 1 123.9774 40.3240 56.1754 0.0000 0.0000 0.0000
# 2 40.3240 123.9774 56.1754 0.0000 0.0000 0.0000
# 3 56.1754 56.1754 295.2450 0.0000 0.0000 0.0000
# 4 0.0000 0.0000 0.0000 67.1652 0.0000 0.0000
# 5 0.0000 0.0000 0.0000 0.0000 67.1652 0.0000
# 6 0.0000 0.0000 0.0000 0.0000 0.0000 49.3598
#
#
#
# Elastic Compliance Matrix: (Units=1/GPa)
#
#
# Indices 1 2 3 4 5 6 
#
# 1 0.009475 -0.002479 -0.001331 0.000000 0.000000 0.000000
# 2 -0.002479 0.009475 -0.001331 0.000000 0.000000 0.000000
# 3 -0.001331 -0.001331 0.003894 0.000000 0.000000 0.000000
# 4 0.000000 0.000000 0.000000 0.014889 0.000000 0.000000
# 5 0.000000 0.000000 0.000000 0.000000 0.014889 0.000000
# 6 0.000000 0.000000 0.000000 0.000000 0.000000 0.020259
#
#
# Mechanical properties :
#
#
# Convention : Reuss Voigt Hill
#
# Bulk Modulus (GPa) = 79.60505 94.28328 86.94416
# Shear Modulus (GPa) = 57.24046 62.77304 60.00675
#
# Velocity S-wave (km/s) = 4.33988 4.54478 4.44351
# Velocity P-wave (km/s) = 7.16283 7.65266 7.41180
#
# Compressibility (1/GPa) = 0.01256202
#
# Stress axis : x y z
#
# Youngs Moduli (GPa) = 105.53656 105.53656 256.83172
#
# Poissons Ratio (x) = 0.26159 0.34190
# Poissons Ratio (y) = 0.26159 0.34190
# Poissons Ratio (z) = 0.14049 0.14049
#
# Static dielectric constant tensor:
#      x y z
#    x 2.612400 0.000000 0.000000 
#    y 0.000000 2.612400 0.000000 
#    z 0.000000 0.000000 2.273350 
# 
# From -- ./inp_files/773.got.cif
#   From: 2010.05.17/outbox.cif.g08.bks.cpg/sg110_1_cif.got.tgz:773.got - 2010.05.20 10:54:03.
