data_PCOD9554330
_publ_section_title
;
Structure prediction by ZEFSAII (Michael W. Deem and Ramdas Pophale) SiO2 
 PCOD9554330
Probable space group: I 41 C D
;
_chemical_formula_sum "Si O2"
_cell_formula_units_Z 96
_cell_length_a 14.726476
_cell_length_b 14.726476
_cell_length_c 18.838251
_cell_angle_alpha 90.000000
_cell_angle_beta 90.000000
_cell_angle_gamma 90.000000
_cell_volume 4085.434453
_symmetry_space_group_name_H-M "I 41 C D"
_symmetry_group_IT_number 110
_symmetry_cell_setting 'tetragonal'
loop_
_space_group_symop_operation_xyz
x,y,z
-y,1/2+x,1/4+z
-x,-y,z
y,1/2-x,1/4+z
-x,y,1/2+z
x,-y,1/2+z
1/2-y,-x,1/4+z
1/2+y,x,1/4+z
1/2+x,1/2+y,1/2+z
1/2-y,x,3/4+z
1/2-x,1/2-y,1/2+z
1/2+y,-x,3/4+z
1/2-x,1/2+y,z
1/2+x,1/2-y,z
-y,1/2-x,3/4+z
y,1/2+x,3/4+z
loop_
_atom_site_type_symbol
_atom_site_label
_atom_site_fract_x
_atom_site_fract_y
_atom_site_fract_z
Si Si1 0.805059 0.915852 0.248600
Si Si2 0.079844 0.093521 0.523281
Si Si3 0.718391 0.205521 0.278598
Si Si4 0.660323 0.789288 0.388070
Si Si5 0.708172 0.460059 0.404066
Si Si6 0.381898 0.082015 0.875700
O O1 0.696389 0.930368 0.240494
O O2 0.806738 0.805768 0.252409
O O3 0.829185 0.959743 0.324029
O O4 0.879772 0.941029 0.190305
O O5 0.151479 0.095147 0.588838
O O6 0.128258 0.035538 0.461661
O O7 0.985878 0.083435 0.565272
O O8 0.803016 0.216166 0.331969
O O9 0.741971 0.140547 0.212639
O O10 0.642006 0.170081 0.330297
O O11 0.740402 0.861733 0.408924
O O12 0.790350 0.532699 0.406011
#
# Coordination Sequence:
#
# PCOD9554330 Si02
#       6
#    16  16  16  16  16  16
#     4   9  16  30  54  77 103 129 173 232 263 301
#     4   9  18  33  50  77 110 131 168 225 266 312
#     4  10  15  28  48  80  98 124 168 227 265 304
#     4   9  15  27  53  69 103 123 165 228 272 281
#     4   9  17  32  49  76 107 132 167 220 269 307
#     4  10  19  28  52  85  99 136 178 210 271 323
#
# _framework density 23.498113
#
# number of rings (size 3 to 8) (size 9 to 14) (size 15 to 20)
#    0.000    3.333    5.000    1.000    0.000    0.000 
#    3.000    0.000    0.000    1.000   17.333    0.000 
#    0.000    0.000    0.000    0.000    0.000    0.000 
#
# Total GULP energy -267475.008979 kJ/mol
# GULP energy per Si atom -5572.396020 kJ/mol
# Density = 2.344463 g / cm^3
# Si number density = 23.498113 Si / 1000 Ang^3
#
#
#
# Elastic Constant Matrix: (Units=GPa)
#
#
# Indices 1 2 3 4 5 6 
#
# 1 63.0044 6.8968 27.2016 0.0000 0.0000 0.0000
# 2 6.8968 63.0044 27.2016 0.0000 0.0000 0.0000
# 3 27.2016 27.2016 134.5205 0.0000 0.0000 0.0000
# 4 0.0000 0.0000 0.0000 18.5219 0.0000 0.0000
# 5 0.0000 0.0000 0.0000 0.0000 18.5219 0.0000
# 6 0.0000 0.0000 0.0000 0.0000 0.0000 -5.3745
#
#
#
# Elastic Compliance Matrix: (Units=1/GPa)
#
#
# Indices 1 2 3 4 5 6 
#
# 1 0.017400 -0.000423 -0.003433 0.000000 0.000000 0.000000
# 2 -0.000423 0.017400 -0.003433 0.000000 0.000000 0.000000
# 3 -0.003433 -0.003433 0.008822 0.000000 0.000000 0.000000
# 4 0.000000 0.000000 0.000000 0.053990 0.000000 0.000000
# 5 0.000000 0.000000 0.000000 0.000000 0.053990 0.000000
# 6 0.000000 0.000000 0.000000 0.000000 0.000000 -0.186063
#
#
# Mechanical properties :
#
#
# Convention : Reuss Voigt Hill
#
# Bulk Modulus (GPa) = 34.42876 42.56994 38.49935
# Shear Modulus (GPa) = -490.17030 19.61581 -235.27724
#
# Velocity S-wave (km/s) = -14.45866 2.89239 -10.01715
# Velocity P-wave (km/s) = 16.24972 5.41389 10.83382
#
# Compressibility (1/GPa) = 0.02904548
#
# Stress axis : x y z
#
# Youngs Moduli (GPa) = 57.46999 57.46998 113.34980
#
# Poissons Ratio (x) = 0.02428 0.38914
# Poissons Ratio (y) = 0.02428 0.38914
# Poissons Ratio (z) = 0.19730 0.19730
#
# Static dielectric constant tensor:
#      x y z
#    x 2.389740 0.000000 0.000000 
#    y 0.000000 2.389740 0.000000 
#    z 0.000000 0.000000 1.894790 
# 
# From -- ./inp_files/2270.got.cif
#   From: 2010.05.17/outbox.cif.g08.bks.cpg/sg110_2_cif.got.tgz:2270.got - 2010.05.20 10:54:03.
