data_PCOD9554239
_publ_section_title
;
Structure prediction by ZEFSAII (Michael W. Deem and Ramdas Pophale) SiO2 
 PCOD9554239
Probable space group: I 41 M D
;
_chemical_formula_sum "Si O2"
_cell_formula_units_Z 64
_cell_length_a 23.046173
_cell_length_b 23.046173
_cell_length_c 5.886199
_cell_angle_alpha 90.000000
_cell_angle_beta 90.000000
_cell_angle_gamma 90.000000
_cell_volume 3126.313860
_symmetry_space_group_name_H-M "I 41 M D"
_symmetry_group_IT_number 109
_symmetry_cell_setting 'tetragonal'
loop_
_space_group_symop_operation_xyz
x,y,z
-y,1/2+x,1/4+z
-x,-y,z
y,1/2-x,1/4+z
-x,y,z
x,-y,z
-y,1/2-x,1/4+z
y,1/2+x,1/4+z
1/2+x,1/2+y,1/2+z
1/2-y,x,3/4+z
1/2-x,1/2-y,1/2+z
1/2+y,-x,3/4+z
1/2-x,1/2+y,1/2+z
1/2+x,1/2-y,1/2+z
1/2-y,-x,3/4+z
1/2+y,x,3/4+z
loop_
_atom_site_type_symbol
_atom_site_label
_atom_site_fract_x
_atom_site_fract_y
_atom_site_fract_z
Si Si1 0.334477 0.834477 0.857570
Si Si2 0.647405 0.932464 0.224216
Si Si3 0.750000 0.126063 0.482570
Si Si4 0.432464 0.147405 0.490924
O O1 0.279974 0.837231 0.685399
O O2 0.392963 0.838031 0.708453
O O3 0.338031 0.892963 0.006687
O O4 0.337231 0.779974 0.029740
O O5 0.699545 0.914948 0.390887
O O6 0.590722 0.909278 0.357570
O O7 0.644737 0.000000 0.173098
O O8 0.800455 0.085052 0.574252
O O9 0.500000 0.144737 0.542042
#
# Coordination Sequence:
#
# PCOD9554239 Si02
#       4
#    16  16  16  16
#     4  10  22  38  64  91 128 158 216 258 318 377
#     4  10  22  40  64  90 123 163 210 260 313 375
#     4  10  21  40  66  88 120 166 213 256 310 378
#     4  10  22  40  64  90 123 163 210 260 313 375
#
# _framework density 20.471395000000001
#
# number of rings (size 3 to 8) (size 9 to 14) (size 15 to 20)
#    0.000    2.000    0.000    2.250    0.000   12.500 
#    0.000    0.000  198.000    0.000    0.000    0.000 
#    0.000    0.000    0.000    0.000    0.000    0.000 
#
# Total GULP energy -178751.685254 kJ/mol
# GULP energy per Si atom -5585.990164 kJ/mol
# Density = 2.042480 g / cm^3
# Si number density = 20.471395 Si / 1000 Ang^3
#
#
#
# Elastic Constant Matrix: (Units=GPa)
#
#
# Indices 1 2 3 4 5 6 
#
# 1 89.4497 66.9177 36.7352 0.0000 0.0000 0.0000
# 2 66.9177 89.4497 36.7352 0.0000 0.0000 0.0000
# 3 36.7352 36.7352 97.2053 0.0000 0.0000 0.0000
# 4 0.0000 0.0000 0.0000 17.0015 0.0000 0.0000
# 5 0.0000 0.0000 0.0000 0.0000 17.0015 0.0000
# 6 0.0000 0.0000 0.0000 0.0000 0.0000 13.0659
#
#
#
# Elastic Compliance Matrix: (Units=1/GPa)
#
#
# Indices 1 2 3 4 5 6 
#
# 1 0.026079 -0.018303 -0.002939 0.000000 0.000000 0.000000
# 2 -0.018303 0.026079 -0.002939 0.000000 0.000000 0.000000
# 3 -0.002939 -0.002939 0.012509 0.000000 0.000000 0.000000
# 4 0.000000 0.000000 0.000000 0.058818 0.000000 0.000000
# 5 0.000000 0.000000 0.000000 0.000000 0.058818 0.000000
# 6 0.000000 0.000000 0.000000 0.000000 0.000000 0.076535
#
#
# Mechanical properties :
#
#
# Convention : Reuss Voigt Hill
#
# Bulk Modulus (GPa) = 61.32734 61.87567 61.60150
# Shear Modulus (GPa) = 15.99320 18.46157 17.22738
#
# Velocity S-wave (km/s) = 2.79811 3.00629 2.90407
# Velocity P-wave (km/s) = 6.36096 6.50703 6.43441
#
# Compressibility (1/GPa) = 0.01630594
#
# Stress axis : x y z
#
# Youngs Moduli (GPa) = 38.34546 38.34546 79.94502
#
# Poissons Ratio (x) = 0.70183 0.23493
# Poissons Ratio (y) = 0.70183 0.23493
# Poissons Ratio (z) = 0.11268 0.11268
#
# Static dielectric constant tensor:
#      x y z
#    x 1.709710 0.000000 0.000000 
#    y 0.000000 1.709710 0.000000 
#    z 0.000000 0.000000 1.813830 
# 
# From -- ./inp_files/451.got.cif
#   From: 2010.05.17/outbox.cif.g08.bks.cpg/sg109_1_cif.got.tgz:451.got - 2010.05.20 10:51:12.
