data_PCOD9554642
_publ_section_title
;
Structure prediction by ZEFSAII (Michael W. Deem and Ramdas Pophale) SiO2 
 PCOD9554642
Probable space group: I 41 C D
;
_chemical_formula_sum "Si O2"
_cell_formula_units_Z 48
_cell_length_a 11.371054
_cell_length_b 11.371054
_cell_length_c 11.476445
_cell_angle_alpha 90.000000
_cell_angle_beta 90.000000
_cell_angle_gamma 90.000000
_cell_volume 1483.914312
_symmetry_space_group_name_H-M "I 41 C D"
_symmetry_group_IT_number 110
_symmetry_cell_setting 'tetragonal'
loop_
_space_group_symop_operation_xyz
x,y,z
-y,1/2+x,1/4+z
-x,-y,z
y,1/2-x,1/4+z
-x,y,1/2+z
x,-y,1/2+z
1/2-y,-x,1/4+z
1/2+y,x,1/4+z
1/2+x,1/2+y,1/2+z
1/2-y,x,3/4+z
1/2-x,1/2-y,1/2+z
1/2+y,-x,3/4+z
1/2-x,1/2+y,z
1/2+x,1/2-y,z
-y,1/2-x,3/4+z
y,1/2+x,3/4+z
loop_
_atom_site_type_symbol
_atom_site_label
_atom_site_fract_x
_atom_site_fract_y
_atom_site_fract_z
Si Si1 0.018173 0.724974 0.183590
Si Si2 0.174158 0.720139 0.000727
Si Si3 0.805996 0.567080 0.193673
O O1 0.914415 0.832101 0.198260
O O2 0.938811 0.605843 0.171673
O O3 0.049919 0.732280 0.325752
O O4 0.036445 0.766367 0.033958
O O5 0.179086 0.836664 0.898619
O O6 0.316159 0.738971 0.007009
#
# Coordination Sequence:
#
# PCOD9554642 Si02
#       3
#    16  16  16
#     4   8  16  32  60  94 130 172 230 292 366 444
#     4   8  16  32  62  96 124 180 224 302 354 454
#     4   8  16  32  60  94 134 168 232 292 368 444
#
# _framework density 32.346882000000001
#
# number of rings (size 3 to 8) (size 9 to 14) (size 15 to 20)
#    4.000    0.000    0.000    0.000    0.000    0.000 
#    0.000    3.333    0.000   12.000    0.000    0.000 
#    0.000    0.000    0.000    0.000    0.000    0.000 
#
# Total GULP energy -133801.634929 kJ/mol
# GULP energy per Si atom -5575.068122 kJ/mol
# Density = 3.227326 g / cm^3
# Si number density = 32.346882 Si / 1000 Ang^3
#
#
#
# Elastic Constant Matrix: (Units=GPa)
#
#
# Indices 1 2 3 4 5 6 
#
# 1 293.2213 88.6739 144.7797 0.0000 0.0000 0.0000
# 2 88.6739 293.2213 144.7797 0.0000 0.0000 0.0000
# 3 144.7797 144.7797 393.9757 0.0000 0.0000 0.0000
# 4 0.0000 0.0000 0.0000 111.7307 0.0000 0.0000
# 5 0.0000 0.0000 0.0000 0.0000 111.7307 0.0000
# 6 0.0000 0.0000 0.0000 0.0000 0.0000 98.2399
#
#
#
# Elastic Compliance Matrix: (Units=1/GPa)
#
#
# Indices 1 2 3 4 5 6 
#
# 1 0.004259 -0.000629 -0.001334 0.000000 0.000000 0.000000
# 2 -0.000629 0.004259 -0.001334 0.000000 0.000000 0.000000
# 3 -0.001334 -0.001334 0.003519 0.000000 0.000000 0.000000
# 4 0.000000 0.000000 0.000000 0.008950 0.000000 0.000000
# 5 0.000000 0.000000 0.000000 0.000000 0.008950 0.000000
# 6 0.000000 0.000000 0.000000 0.000000 0.000000 0.010179
#
#
# Mechanical properties :
#
#
# Convention : Reuss Voigt Hill
#
# Bulk Modulus (GPa) = 183.73116 192.98720 188.35918
# Shear Modulus (GPa) = 103.03823 104.48593 103.76208
#
# Velocity S-wave (km/s) = 5.65007 5.68962 5.66988
# Velocity P-wave (km/s) = 9.97437 10.14661 10.06086
#
# Compressibility (1/GPa) = 0.00544273
#
# Stress axis : x y z
#
# Youngs Moduli (GPa) = 234.77544 234.77544 284.20134
#
# Poissons Ratio (x) = 0.14778 0.37911
# Poissons Ratio (y) = 0.14778 0.37911
# Poissons Ratio (z) = 0.31318 0.31318
#
# Static dielectric constant tensor:
#      x y z
#    x 2.514960 0.000000 0.000000 
#    y 0.000000 2.514960 0.000000 
#    z 0.000000 0.000000 2.904950 
# 
# From -- ./inp_files/250.got.cif
#   From: 2010.05.17/outbox.cif.g08.bks.cpg/sg110_1_cif.got.tgz:250.got - 2010.05.20 10:54:03.
