data_PCOD9554089
_publ_section_title
;
Structure prediction by ZEFSAII (Michael W. Deem and Ramdas Pophale) SiO2 
 PCOD9554089
Probable space group: I 41 M D
;
_chemical_formula_sum "Si O2"
_cell_formula_units_Z 112
_cell_length_a 15.229795
_cell_length_b 15.229795
_cell_length_c 24.243235
_cell_angle_alpha 90.000000
_cell_angle_beta 90.000000
_cell_angle_gamma 90.000000
_cell_volume 5623.137283
_symmetry_space_group_name_H-M "I 41 M D"
_symmetry_group_IT_number 109
_symmetry_cell_setting 'tetragonal'
loop_
_space_group_symop_operation_xyz
x,y,z
-y,1/2+x,1/4+z
-x,-y,z
y,1/2-x,1/4+z
-x,y,z
x,-y,z
-y,1/2-x,1/4+z
y,1/2+x,1/4+z
1/2+x,1/2+y,1/2+z
1/2-y,x,3/4+z
1/2-x,1/2-y,1/2+z
1/2+y,-x,3/4+z
1/2-x,1/2+y,1/2+z
1/2+x,1/2-y,1/2+z
1/2-y,-x,3/4+z
1/2+y,x,3/4+z
loop_
_atom_site_type_symbol
_atom_site_label
_atom_site_fract_x
_atom_site_fract_y
_atom_site_fract_z
Si Si1 0.095093 0.268386 0.706240
Si Si2 0.597038 0.155707 0.091618
Si Si3 0.097560 0.646710 0.017593
Si Si4 0.906334 0.245464 0.477308
Si Si5 0.601582 0.193935 0.636618
Si Si6 0.398226 0.358786 0.502992
Si Si7 0.704958 0.631260 0.612194
O O1 0.097512 0.271132 0.639887
O O2 0.104835 0.173402 0.731991
O O3 0.175864 0.328424 0.724737
O O4 0.000000 0.305786 0.722704
O O5 0.500000 0.111199 0.096912
O O6 0.691913 0.111605 0.100587
O O7 0.601415 0.197360 0.031685
O O8 0.108479 0.630917 0.083250
O O9 0.103474 0.752516 0.008831
O O10 0.000000 0.618715 0.001405
O O11 0.906341 0.306984 0.423365
O O12 0.000000 0.197560 0.478388
O O13 0.500000 0.229090 0.634543
O O14 0.616005 0.149670 0.695953
O O15 0.674602 0.268052 0.624174
O O16 0.500000 0.386157 0.501742
O O17 0.349698 0.394219 0.557955
#
# Coordination Sequence:
#
# PCOD9554089 Si02
#       7
#    16  16  16  16  16  16  16
#     4  10  20  34  53  76 105 141 176 221 279 332
#     4   9  18  33  54  79 105 134 175 229 286 338
#     4   9  19  35  54  79 109 147 194 233 274 337
#     4  10  20  34  54  78 102 134 177 224 278 337
#     4  10  20  34  54  79 112 155 195 234 282 337
#     4  10  20  34  54  81 114 151 191 237 283 332
#     4  10  18  34  57  79 105 143 190 235 281 341
#
# _framework density 19.917705999999999
#
# number of rings (size 3 to 8) (size 9 to 14) (size 15 to 20)
#    0.000    2.286    0.000    5.571    0.000    2.000 
#    0.000    3.571    0.000    4.714    0.000   16.000 
#    0.000    0.000    0.000    0.000    0.000    0.000 
#
# Total GULP energy -311824.525883 kJ/mol
# GULP energy per Si atom -5568.295105 kJ/mol
# Density = 1.987237 g / cm^3
# Si number density = 19.917706 Si / 1000 Ang^3
#
#
#
# Elastic Constant Matrix: (Units=GPa)
#
#
# Indices 1 2 3 4 5 6 
#
# 1 66.9658 2.7362 23.2206 0.0000 0.0000 0.0000
# 2 2.7362 66.9658 23.2206 0.0000 0.0000 0.0000
# 3 23.2206 23.2206 117.8950 0.0000 0.0000 0.0000
# 4 0.0000 0.0000 0.0000 7.1393 0.0000 0.0000
# 5 0.0000 0.0000 0.0000 0.0000 7.1393 0.0000
# 6 0.0000 0.0000 0.0000 0.0000 0.0000 -12.5096
#
#
#
# Elastic Compliance Matrix: (Units=1/GPa)
#
#
# Indices 1 2 3 4 5 6 
#
# 1 0.016042 0.000472 -0.003253 0.000000 0.000000 0.000000
# 2 0.000472 0.016042 -0.003253 0.000000 0.000000 0.000000
# 3 -0.003253 -0.003253 0.009763 0.000000 0.000000 0.000000
# 4 0.000000 0.000000 0.000000 0.140070 0.000000 0.000000
# 5 0.000000 0.000000 0.000000 0.000000 0.140070 0.000000
# 6 0.000000 0.000000 0.000000 0.000000 0.000000 -0.079939
#
#
# Mechanical properties :
#
#
# Convention : Reuss Voigt Hill
#
# Bulk Modulus (GPa) = 33.57857 38.90903 36.24380
# Shear Modulus (GPa) = 18.93656 13.86375 16.40016
#
# Velocity S-wave (km/s) = 3.08675 2.64114 2.87260
# Velocity P-wave (km/s) = 5.44052 5.37384 5.40728
#
# Compressibility (1/GPa) = 0.02978090
#
# Stress axis : x y z
#
# Youngs Moduli (GPa) = 62.33819 62.33819 102.42357
#
# Poissons Ratio (x) = -0.02945 0.33314
# Poissons Ratio (y) = -0.02945 0.33314
# Poissons Ratio (z) = 0.20276 0.20276
#
# Static dielectric constant tensor:
#      x y z
#    x 1.734840 0.000000 0.000000 
#    y 0.000000 1.734840 0.000000 
#    z 0.000000 0.000000 1.696500 
# 
# From -- ./inp_files/4463.got.cif
#   From: 2010.05.17/outbox.cif.g08.bks.cpg/sg109_3_cif.got.tgz:4463.got - 2010.05.20 10:51:12.
