data_PCOD9554086
_publ_section_title
;
Structure prediction by ZEFSAII (Michael W. Deem and Ramdas Pophale) SiO2 
 PCOD9554086
Probable space group: I 41 M D
;
_chemical_formula_sum "Si O2"
_cell_formula_units_Z 96
_cell_length_a 32.182320
_cell_length_b 32.182320
_cell_length_c 5.526088
_cell_angle_alpha 90.000000
_cell_angle_beta 90.000000
_cell_angle_gamma 90.000000
_cell_volume 5723.378850
_symmetry_space_group_name_H-M "I 41 M D"
_symmetry_group_IT_number 109
_symmetry_cell_setting 'tetragonal'
loop_
_space_group_symop_operation_xyz
x,y,z
-y,1/2+x,1/4+z
-x,-y,z
y,1/2-x,1/4+z
-x,y,z
x,-y,z
-y,1/2-x,1/4+z
y,1/2+x,1/4+z
1/2+x,1/2+y,1/2+z
1/2-y,x,3/4+z
1/2-x,1/2-y,1/2+z
1/2+y,-x,3/4+z
1/2-x,1/2+y,1/2+z
1/2+x,1/2-y,1/2+z
1/2-y,-x,3/4+z
1/2+y,x,3/4+z
loop_
_atom_site_type_symbol
_atom_site_label
_atom_site_fract_x
_atom_site_fract_y
_atom_site_fract_z
Si Si1 0.292092 0.291893 0.598950
Si Si2 0.385014 0.678249 0.575977
Si Si3 0.000000 0.734405 0.074379
Si Si4 0.774443 0.091270 0.853594
Si Si5 0.132323 0.731959 0.609335
Si Si6 0.323650 0.908659 0.331283
Si Si7 0.500000 0.287195 0.072891
O O1 0.297489 0.243660 0.654171
O O2 0.337057 0.309976 0.547838
O O3 0.274552 0.318704 0.825364
O O4 0.408761 0.723279 0.595437
O O5 0.399778 0.655018 0.336799
O O6 0.393659 0.656567 0.831380
O O7 0.956049 0.711057 0.081478
O O8 0.000000 0.760576 0.325337
O O9 0.000000 0.760365 0.821791
O O10 0.786322 0.116202 0.611419
O O11 0.785655 0.111629 0.111195
O O12 0.117943 0.780243 0.600415
O O13 0.312687 0.957218 0.320400
#
# Coordination Sequence:
#
# PCOD9554086 Si02
#       7
#    16  16   8  16  16  16   8
#     4  12  26  34  46  62  76 126 168 198 226 261
#     4  10  20  34  43  57  85 101 139 187 218 255
#     4  12  16  26  50  68  80 100 116 152 246 298
#     4  10  18  33  45  65  82  98 124 180 229 279
#     4  10  20  34  43  57  85 101 139 187 218 255
#     4  10  18  33  45  65  82  98 124 180 229 279
#     4  12  16  26  50  68  80 100 116 152 246 298
#
# _framework density 16.773309000000001
#
# number of rings (size 3 to 8) (size 9 to 14) (size 15 to 20)
#    0.000    1.333   10.000    0.000    4.667    1.333 
#    0.000    0.000    0.000    0.000    0.000    0.000 
#    0.000    0.000    0.000    0.000    0.000    0.000 
#
# Total GULP energy -267613.225129 kJ/mol
# GULP energy per Si atom -5575.275524 kJ/mol
# Density = 1.673513 g / cm^3
# Si number density = 16.773309 Si / 1000 Ang^3
#
#
#
# Elastic Constant Matrix: (Units=GPa)
#
#
# Indices 1 2 3 4 5 6 
#
# 1 44.6220 2.1765 13.7676 0.0000 0.0000 0.0000
# 2 2.1765 44.6220 13.7676 0.0000 0.0000 0.0000
# 3 13.7676 13.7676 171.3655 0.0000 0.0000 0.0000
# 4 0.0000 0.0000 0.0000 11.5454 0.0000 0.0000
# 5 0.0000 0.0000 0.0000 0.0000 11.5454 0.0000
# 6 0.0000 0.0000 0.0000 0.0000 0.0000 -0.7136
#
#
#
# Elastic Compliance Matrix: (Units=1/GPa)
#
#
# Indices 1 2 3 4 5 6 
#
# 1 0.022994 -0.000566 -0.001802 0.000000 0.000000 0.000000
# 2 -0.000566 0.022994 -0.001802 0.000000 0.000000 0.000000
# 3 -0.001802 -0.001802 0.006125 0.000000 0.000000 0.000000
# 4 0.000000 0.000000 0.000000 0.086614 0.000000 0.000000
# 5 0.000000 0.000000 0.000000 0.000000 0.086614 0.000000
# 6 0.000000 0.000000 0.000000 0.000000 0.000000 -1.401357
#
#
# Mechanical properties :
#
#
# Convention : Reuss Voigt Hill
#
# Bulk Modulus (GPa) = 22.84454 35.55924 29.20189
# Shear Modulus (GPa) = -4.33619 19.86864 7.76622
#
# Velocity S-wave (km/s) = -1.60959 3.44545 2.15410
# Velocity P-wave (km/s) = 3.19292 6.08885 4.86152
#
# Compressibility (1/GPa) = 0.04377414
#
# Stress axis : x y z
#
# Youngs Moduli (GPa) = 43.48959 43.48959 163.26490
#
# Poissons Ratio (x) = 0.02460 0.29419
# Poissons Ratio (y) = 0.02460 0.29419
# Poissons Ratio (z) = 0.07836 0.07836
#
# Static dielectric constant tensor:
#      x y z
#    x 1.575960 0.000000 0.000000 
#    y 0.000000 1.575960 0.000000 
#    z 0.000000 0.000000 1.689770 
# 
# From -- ./inp_files/691.got.cif
#   From: 2010.05.17/outbox.cif.g08.bks.cpg/sg109_1_cif.got.tgz:691.got - 2010.05.20 10:51:12.
