data_PCOD9554667
_publ_section_title
;
Structure prediction by ZEFSAII (Michael W. Deem and Ramdas Pophale) SiO2 
 PCOD9554667
Probable space group: P -4 2 M 
;
_chemical_formula_sum "Si O2"
_cell_formula_units_Z 26
_cell_length_a 14.879573
_cell_length_b 14.879573
_cell_length_c 5.633206
_cell_angle_alpha 90.000000
_cell_angle_beta 90.000000
_cell_angle_gamma 90.000000
_cell_volume 1247.201344
_symmetry_space_group_name_H-M "P -4 2 M "
_symmetry_group_IT_number 111
_symmetry_cell_setting 'tetragonal'
loop_
_space_group_symop_operation_xyz
x,y,z
y,-x,-z
-x,-y,z
-y,x,-z
x,-y,-z
-x,y,-z
-y,-x,z
y,x,z
loop_
_atom_site_type_symbol
_atom_site_label
_atom_site_fract_x
_atom_site_fract_y
_atom_site_fract_z
Si Si1 0.675022 0.175614 0.272945
Si Si2 0.629398 0.140754 0.772501
Si Si3 0.000000 0.500000 0.000000
Si Si4 0.789136 0.007338 0.749830
O O1 0.757956 0.242045 0.301764
O O2 0.615926 0.181297 0.511665
O O3 0.715721 0.074237 0.254029
O O4 0.629025 0.195757 0.019111
O O5 0.730035 0.098045 0.754777
O O6 0.560154 0.061648 0.830519
O O7 0.838801 0.000000 0.500000
O O8 0.838630 0.000000 0.000000
#
# Coordination Sequence:
#
# PCOD9554667 Si02
#       4
#     8   8   2   8
#     4  10  18  31  44  63  93 125 165 200 238 286
#     4  10  20  30  46  70  91 130 158 204 238 293
#     4  12  20  34  52  70 112 126 162 212 248 298
#     4   8  14  27  39  59  84 106 150 189 223 271
#
# _framework density 20.846674
#
# number of rings (size 3 to 8) (size 9 to 14) (size 15 to 20)
#    0.000    2.462    4.615    0.923    0.000    2.462 
#    0.000    0.000    0.000    0.000    0.000    0.000 
#    0.000  299.077    0.000    0.000    0.000   53.846 
#
# Total GULP energy -144845.402542 kJ/mol
# GULP energy per Si atom -5570.977021 kJ/mol
# Density = 2.079923 g / cm^3
# Si number density = 20.846674 Si / 1000 Ang^3
#
#
#
# Elastic Constant Matrix: (Units=GPa)
#
#
# Indices 1 2 3 4 5 6 
#
# 1 22.3170 24.9608 13.3102 0.0000 0.0000 0.0000
# 2 24.9608 22.3242 13.3156 0.0000 0.0000 0.0000
# 3 13.3102 13.3156 276.8229 0.0000 0.0000 0.0000
# 4 0.0000 0.0000 0.0000 2.2717 0.0000 0.0000
# 5 0.0000 0.0000 0.0000 0.0000 2.2748 0.0000
# 6 0.0000 0.0000 0.0000 0.0000 0.0000 24.0565
#
#
#
# Elastic Compliance Matrix: (Units=1/GPa)
#
#
# Indices 1 2 3 4 5 6 
#
# 1 -0.178540 0.200251 -0.001048 0.000000 0.000000 0.000000
# 2 0.200251 -0.178485 -0.001043 0.000000 0.000000 0.000000
# 3 -0.001048 -0.001043 0.003713 0.000000 0.000000 0.000000
# 4 0.000000 0.000000 0.000000 0.440201 0.000000 0.000000
# 5 0.000000 0.000000 0.000000 0.000000 0.439605 0.000000
# 6 0.000000 0.000000 0.000000 0.000000 0.000000 0.041569
#
#
# Mechanical properties :
#
#
# Convention : Reuss Voigt Hill
#
# Bulk Modulus (GPa) = 23.25118 47.18190 35.21654
# Shear Modulus (GPa) = 26.87031 23.71243 25.29137
#
# Velocity S-wave (km/s) = 3.59409 3.37630 3.48689
# Velocity P-wave (km/s) = 5.32925 6.15476 5.75682
#
# Compressibility (1/GPa) = 0.04300856
#
# Stress axis : x y z
#
# Youngs Moduli (GPa) = -5.60099 -5.60272 269.32593
#
# Poissons Ratio (x) = 1.12195 0.28220
# Poissons Ratio (y) = 1.12160 0.28093
# Poissons Ratio (z) = -0.00587 -0.00584
#
# Static dielectric constant tensor:
#      x y z
#    x 1.739800 0.000000 0.000000 
#    y 0.000000 1.739800 0.000000 
#    z 0.000000 0.000000 1.916870 
# 
# From -- ./inp_files/268.got.cif
#   From: 2010.05.17/outbox.cif.g08.bks.cpg/sg111_1_cif.got.tgz:268.got - 2010.05.20 10:56:05.
