data_PCOD9554052
_publ_section_title
;
Structure prediction by ZEFSAII (Michael W. Deem and Ramdas Pophale) SiO2 
 PCOD9554052
Probable space group: I 41 M D
;
_chemical_formula_sum "Si O2"
_cell_formula_units_Z 96
_cell_length_a 24.214187
_cell_length_b 24.214187
_cell_length_c 11.578776
_cell_angle_alpha 90.000000
_cell_angle_beta 90.000000
_cell_angle_gamma 90.000000
_cell_volume 6788.947283
_symmetry_space_group_name_H-M "I 41 M D"
_symmetry_group_IT_number 109
_symmetry_cell_setting 'tetragonal'
loop_
_space_group_symop_operation_xyz
x,y,z
-y,1/2+x,1/4+z
-x,-y,z
y,1/2-x,1/4+z
-x,y,z
x,-y,z
-y,1/2-x,1/4+z
y,1/2+x,1/4+z
1/2+x,1/2+y,1/2+z
1/2-y,x,3/4+z
1/2-x,1/2-y,1/2+z
1/2+y,-x,3/4+z
1/2-x,1/2+y,1/2+z
1/2+x,1/2-y,1/2+z
1/2-y,-x,3/4+z
1/2+y,x,3/4+z
loop_
_atom_site_type_symbol
_atom_site_label
_atom_site_fract_x
_atom_site_fract_y
_atom_site_fract_z
Si Si1 0.138898 0.732078 0.861600
Si Si2 0.436846 0.188130 0.553419
Si Si3 0.361102 0.732078 0.854365
Si Si4 0.436846 0.688129 0.662545
Si Si5 0.161552 0.750000 0.607982
Si Si6 0.648855 0.648854 0.482982
O O1 0.128351 0.738833 0.725331
O O2 0.197055 0.700681 0.876758
O O3 0.145111 0.792693 0.916841
O O4 0.093532 0.697373 0.931507
O O5 0.500000 0.169502 0.543488
O O6 0.437200 0.250000 0.607982
O O7 0.399988 0.150578 0.638663
O O8 0.406469 0.697373 0.784458
O O9 0.302945 0.700681 0.839207
O O10 0.354889 0.792693 0.799124
O O11 0.371649 0.738833 0.990634
O O12 0.500000 0.669502 0.672476
O O13 0.399988 0.650577 0.577301
#
# Coordination Sequence:
#
# PCOD9554052 Si02
#       6
#    16  16  16  16  16  16
#     4  10  17  26  41  65  94 120 153 193 232 284
#     4   9  18  29  43  63  90 122 152 186 237 289
#     4  10  17  26  41  65  94 120 153 193 232 284
#     4   9  18  29  43  63  90 122 152 186 237 289
#     4  10  18  24  41  70  93 120 154 194 230 284
#     4  10  16  28  44  61  86 122 150 190 234 274
#
# _framework density 14.140632
#
# number of rings (size 3 to 8) (size 9 to 14) (size 15 to 20)
#    0.000    2.333    3.333    2.000    2.333    0.000 
#    0.000    0.833    0.000    0.500    0.000    0.000 
#    0.000    0.000    0.000    0.000    0.000    0.000 
#
# Total GULP energy -267274.672669 kJ/mol
# GULP energy per Si atom -5568.222347 kJ/mol
# Density = 1.410845 g / cm^3
# Si number density = 14.140632 Si / 1000 Ang^3
#
#
#
# Elastic Constant Matrix: (Units=GPa)
#
#
# Indices 1 2 3 4 5 6 
#
# 1 79.3315 28.9204 50.3900 0.0000 0.0000 0.0000
# 2 28.9204 79.3315 50.3900 0.0000 0.0000 0.0000
# 3 50.3900 50.3900 138.4881 0.0000 0.0000 0.0000
# 4 0.0000 0.0000 0.0000 16.1482 0.0000 0.0000
# 5 0.0000 0.0000 0.0000 0.0000 16.1482 0.0000
# 6 0.0000 0.0000 0.0000 0.0000 0.0000 8.6879
#
#
#
# Elastic Compliance Matrix: (Units=1/GPa)
#
#
# Indices 1 2 3 4 5 6 
#
# 1 0.016903 -0.002933 -0.005083 0.000000 0.000000 0.000000
# 2 -0.002933 0.016903 -0.005083 0.000000 0.000000 0.000000
# 3 -0.005083 -0.005083 0.010920 0.000000 0.000000 0.000000
# 4 0.000000 0.000000 0.000000 0.061926 0.000000 0.000000
# 5 0.000000 0.000000 0.000000 0.000000 0.061926 0.000000
# 6 0.000000 0.000000 0.000000 0.000000 0.000000 0.115102
#
#
# Mechanical properties :
#
#
# Convention : Reuss Voigt Hill
#
# Bulk Modulus (GPa) = 53.97398 61.83909 57.90654
# Shear Modulus (GPa) = 15.81994 19.36025 17.59010
#
# Velocity S-wave (km/s) = 3.34841 3.70418 3.53078
# Velocity P-wave (km/s) = 7.29393 7.88169 7.59350
#
# Compressibility (1/GPa) = 0.01852744
#
# Stress axis : x y z
#
# Youngs Moduli (GPa) = 59.15968 59.15968 91.57621
#
# Poissons Ratio (x) = 0.17354 0.46549
# Poissons Ratio (y) = 0.17354 0.46549
# Poissons Ratio (z) = 0.30071 0.30071
#
# Static dielectric constant tensor:
#      x y z
#    x 1.445770 0.000000 0.000000 
#    y 0.000000 1.445770 0.000000 
#    z 0.000000 0.000000 1.502110 
# 
# From -- ./inp_files/2044.got.cif
#   From: 2010.05.17/outbox.cif.g08.bks.cpg/sg109_2_cif.got.tgz:2044.got - 2010.05.20 10:51:12.
