data_PCOD9554409
_publ_section_title
;
Structure prediction by ZEFSAII (Michael W. Deem and Ramdas Pophale) SiO2 
 PCOD9554409
Probable space group: I 41 C D
;
_chemical_formula_sum "Si O2"
_cell_formula_units_Z 112
_cell_length_a 21.385872
_cell_length_b 21.385872
_cell_length_c 9.268611
_cell_angle_alpha 90.000000
_cell_angle_beta 90.000000
_cell_angle_gamma 90.000000
_cell_volume 4239.050415
_symmetry_space_group_name_H-M "I 41 C D"
_symmetry_group_IT_number 110
_symmetry_cell_setting 'tetragonal'
loop_
_space_group_symop_operation_xyz
x,y,z
-y,1/2+x,1/4+z
-x,-y,z
y,1/2-x,1/4+z
-x,y,1/2+z
x,-y,1/2+z
1/2-y,-x,1/4+z
1/2+y,x,1/4+z
1/2+x,1/2+y,1/2+z
1/2-y,x,3/4+z
1/2-x,1/2-y,1/2+z
1/2+y,-x,3/4+z
1/2-x,1/2+y,z
1/2+x,1/2-y,z
-y,1/2-x,3/4+z
y,1/2+x,3/4+z
loop_
_atom_site_type_symbol
_atom_site_label
_atom_site_fract_x
_atom_site_fract_y
_atom_site_fract_z
Si Si1 0.540716 0.084217 0.217140
Si Si2 0.557842 0.229606 0.866943
Si Si3 0.860312 0.956628 0.231507
Si Si4 0.318450 0.757813 0.733802
Si Si5 0.325972 0.089439 0.021325
Si Si6 0.368913 0.195562 0.653838
Si Si7 0.991634 0.148809 0.483138
O O1 0.521138 0.081226 0.382070
O O2 0.598961 0.133843 0.216300
O O3 0.577250 0.020828 0.184042
O O4 0.488836 0.120497 0.129580
O O5 0.490521 0.196622 0.896334
O O6 0.608852 0.219617 0.742112
O O7 0.545309 0.302662 0.881938
O O8 0.593655 0.206870 0.007488
O O9 0.862764 0.882688 0.248647
O O10 0.302312 0.730692 0.573523
O O11 0.315546 0.700779 0.850803
O O12 0.259080 0.121143 0.993911
O O13 0.336915 0.035446 0.894432
O O14 0.334695 0.061500 0.182248
#
# Coordination Sequence:
#
# PCOD9554409 Si02
#       7
#    16  16  16  16  16  16  16
#     4  10  20  38  61  85 120 165 206 255 306 372
#     4   9  18  37  63  86 123 163 204 249 310 379
#     4  10  22  37  59  90 120 160 204 255 315 361
#     4  10  20  37  61  93 123 164 205 255 313 372
#     4  10  22  38  61  92 122 163 207 261 307 372
#     4   9  18  37  64  87 122 164 207 251 314 374
#     4  10  20  38  61  87 118 162 213 248 311 367
#
# _framework density 26.421011
#
# number of rings (size 3 to 8) (size 9 to 14) (size 15 to 20)
#    0.000    2.286    1.429    0.857    2.000    1.714 
#    2.571    4.286    0.000    0.000    0.000    0.000 
#    0.000    0.000    0.000    0.000    0.000    0.000 
#
# Total GULP energy -312161.581230 kJ/mol
# GULP energy per Si atom -5574.313951 kJ/mol
# Density = 2.636088 g / cm^3
# Si number density = 26.421011 Si / 1000 Ang^3
#
#
#
# Elastic Constant Matrix: (Units=GPa)
#
#
# Indices 1 2 3 4 5 6 
#
# 1 80.2165 19.0278 -2.9409 0.0000 0.0000 0.0000
# 2 19.0278 80.2165 -2.9409 0.0000 0.0000 0.0000
# 3 -2.9409 -2.9409 43.5139 0.0000 0.0000 0.0000
# 4 0.0000 0.0000 0.0000 21.1331 0.0000 0.0000
# 5 0.0000 0.0000 0.0000 0.0000 21.1331 0.0000
# 6 0.0000 0.0000 0.0000 0.0000 0.0000 49.2856
#
#
#
# Elastic Compliance Matrix: (Units=1/GPa)
#
#
# Indices 1 2 3 4 5 6 
#
# 1 0.013230 -0.003113 0.000684 0.000000 0.000000 0.000000
# 2 -0.003113 0.013230 0.000684 0.000000 0.000000 0.000000
# 3 0.000684 0.000684 0.023074 0.000000 0.000000 0.000000
# 4 0.000000 0.000000 0.000000 0.047319 0.000000 0.000000
# 5 0.000000 0.000000 0.000000 0.000000 0.047319 0.000000
# 6 0.000000 0.000000 0.000000 0.000000 0.000000 0.020290
#
#
# Mechanical properties :
#
#
# Convention : Reuss Voigt Hill
#
# Bulk Modulus (GPa) = 21.71936 25.58210 23.65073
# Shear Modulus (GPa) = 27.27770 31.03041 29.15406
#
# Velocity S-wave (km/s) = 3.21662 3.43076 3.32541
# Velocity P-wave (km/s) = 4.69403 5.03954 4.86985
#
# Compressibility (1/GPa) = 0.04604188
#
# Stress axis : x y z
#
# Youngs Moduli (GPa) = 75.58706 75.58706 43.33964
#
# Poissons Ratio (x) = 0.23531 -0.02963
# Poissons Ratio (y) = 0.23531 -0.02963
# Poissons Ratio (z) = -0.05168 -0.05168
#
# Static dielectric constant tensor:
#      x y z
#    x 2.202390 0.000000 0.000000 
#    y 0.000000 2.202390 0.000000 
#    z 0.000000 0.000000 2.083550 
# 
# From -- ./inp_files/994.got.cif
#   From: 2010.05.17/outbox.cif.g08.bks.cpg/sg110_1_cif.got.tgz:994.got - 2010.05.20 10:54:03.
