data_PCOD9554756
_publ_section_title
;
Structure prediction by ZEFSAII (Michael W. Deem and Ramdas Pophale) SiO2 
 PCOD9554756
Probable space group: P -4 2 M 
;
_chemical_formula_sum "Si O2"
_cell_formula_units_Z 48
_cell_length_a 11.926081
_cell_length_b 11.926081
_cell_length_c 17.603709
_cell_angle_alpha 90.000000
_cell_angle_beta 90.000000
_cell_angle_gamma 90.000000
_cell_volume 2503.800317
_symmetry_space_group_name_H-M "P -4 2 M "
_symmetry_group_IT_number 111
_symmetry_cell_setting 'tetragonal'
loop_
_space_group_symop_operation_xyz
x,y,z
y,-x,-z
-x,-y,z
-y,x,-z
x,-y,-z
-x,y,-z
-y,-x,z
y,x,z
loop_
_atom_site_type_symbol
_atom_site_label
_atom_site_fract_x
_atom_site_fract_y
_atom_site_fract_z
Si Si1 0.619814 0.203219 0.696923
Si Si2 0.717489 0.895418 0.880434
Si Si3 0.328808 0.148572 0.137311
Si Si4 0.171984 0.645764 0.290914
Si Si5 0.546005 0.280685 0.080353
Si Si6 0.013764 0.635375 0.585464
O O1 0.674023 0.325978 0.697254
O O2 0.668801 0.140426 0.771023
O O3 0.486123 0.197830 0.703877
O O4 0.656027 0.134525 0.622659
O O5 0.842902 0.842902 0.887196
O O6 0.676683 0.870462 0.793695
O O7 0.637590 0.817059 0.931167
O O8 0.690522 0.024888 0.895398
O O9 0.226612 0.226612 0.113149
O O10 0.442160 0.218685 0.120207
O O11 0.282483 0.717518 0.304799
O O12 0.079674 0.674654 0.354516
O O13 0.615954 0.384047 0.117690
O O14 0.500000 0.320116 0.000000
O O15 0.000000 0.500000 0.582848
O O16 0.000000 0.678473 0.500000
#
# Coordination Sequence:
#
# PCOD9554756 Si02
#       6
#     8   8   8   8   8   8
#     4  10  20  33  53  83 117 149 189 240 293 353
#     4  10  21  38  60  85 115 157 206 247 291 350
#     4  11  22  36  59  87 118 159 197 242 303 355
#     4  10  19  34  56  82 113 152 194 237 287 351
#     4  11  24  41  62  89 122 158 194 239 292 357
#     4   9  18  33  55  79 107 151 195 234 284 340
#
# _framework density 19.170857999999999
#
# number of rings (size 3 to 8) (size 9 to 14) (size 15 to 20)
#    0.000    1.833    3.333    1.000    0.000    3.833 
#    0.000    1.667    0.000    0.500    0.000    8.167 
#    0.000    0.000    0.000    0.000    0.000    0.000 
#
# Total GULP energy -267618.916121 kJ/mol
# GULP energy per Si atom -5575.394086 kJ/mol
# Density = 1.912722 g / cm^3
# Si number density = 19.170858 Si / 1000 Ang^3
#
#
#
# Elastic Constant Matrix: (Units=GPa)
#
#
# Indices 1 2 3 4 5 6 
#
# 1 78.6917 81.9334 12.3046 0.0000 0.0000 0.0000
# 2 81.9334 78.6914 12.3057 0.0000 0.0000 0.0000
# 3 12.3046 12.3057 44.0666 0.0000 0.0000 0.0000
# 4 0.0000 0.0000 0.0000 18.1914 0.0000 0.0000
# 5 0.0000 0.0000 0.0000 0.0000 18.1916 0.0000
# 6 0.0000 0.0000 0.0000 0.0000 0.0000 10.5349
#
#
#
# Elastic Compliance Matrix: (Units=1/GPa)
#
#
# Indices 1 2 3 4 5 6 
#
# 1 -0.150979 0.157484 -0.001820 0.000000 0.000000 0.000000
# 2 0.157484 -0.150981 -0.001812 0.000000 0.000000 0.000000
# 3 -0.001820 -0.001812 0.023707 0.000000 0.000000 0.000000
# 4 0.000000 0.000000 0.000000 0.054971 0.000000 0.000000
# 5 0.000000 0.000000 0.000000 0.000000 0.054970 0.000000
# 6 0.000000 0.000000 0.000000 0.000000 0.000000 0.094923
#
#
# Mechanical properties :
#
#
# Convention : Reuss Voigt Hill
#
# Bulk Modulus (GPa) = 33.95532 46.05968 40.00750
# Shear Modulus (GPa) = -13.46715 15.71064 1.12175
#
# Velocity S-wave (km/s) = -2.65331 2.86581 0.76577
# Velocity P-wave (km/s) = 2.89200 5.91849 4.65791
#
# Compressibility (1/GPa) = 0.02945047
#
# Stress axis : x y z
#
# Youngs Moduli (GPa) = -6.62345 -6.62336 42.18125
#
# Poissons Ratio (x) = 1.04307 0.07679
# Poissons Ratio (y) = 1.04308 0.07643
# Poissons Ratio (z) = -0.01206 -0.01200
#
# Static dielectric constant tensor:
#      x y z
#    x 1.677320 0.000000 0.000000 
#    y 0.000000 1.677320 0.000000 
#    z 0.000000 0.000000 1.713630 
# 
# From -- ./inp_files/3651.got.cif
#   From: 2010.05.17/outbox.cif.g08.bks.cpg/sg111_2_cif.got.tgz:3651.got - 2010.05.20 10:56:05.
