data_PCOD9554053
_publ_section_title
;
Structure prediction by ZEFSAII (Michael W. Deem and Ramdas Pophale) SiO2 
 PCOD9554053
Probable space group: I 41 M D
;
_chemical_formula_sum "Si O2"
_cell_formula_units_Z 64
_cell_length_a 18.711040
_cell_length_b 18.711040
_cell_length_c 7.005107
_cell_angle_alpha 90.000000
_cell_angle_beta 90.000000
_cell_angle_gamma 90.000000
_cell_volume 2452.509101
_symmetry_space_group_name_H-M "I 41 M D"
_symmetry_group_IT_number 109
_symmetry_cell_setting 'tetragonal'
loop_
_space_group_symop_operation_xyz
x,y,z
-y,1/2+x,1/4+z
-x,-y,z
y,1/2-x,1/4+z
-x,y,z
x,-y,z
-y,1/2-x,1/4+z
y,1/2+x,1/4+z
1/2+x,1/2+y,1/2+z
1/2-y,x,3/4+z
1/2-x,1/2-y,1/2+z
1/2+y,-x,3/4+z
1/2-x,1/2+y,1/2+z
1/2+x,1/2-y,1/2+z
1/2-y,-x,3/4+z
1/2+y,x,3/4+z
loop_
_atom_site_type_symbol
_atom_site_label
_atom_site_fract_x
_atom_site_fract_y
_atom_site_fract_z
Si Si1 0.360091 0.108862 0.738850
Si Si2 0.500000 0.240028 0.469177
Si Si3 0.915592 0.500000 0.546901
Si Si4 0.500000 0.269635 0.934654
Si Si5 0.234492 0.842174 0.254660
Si Si6 0.500000 0.086174 0.485093
O O1 0.392755 0.068502 0.923973
O O2 0.336481 0.185170 0.814120
O O3 0.425608 0.100360 0.595632
O O4 0.290105 0.067196 0.673354
O O5 0.500000 0.243034 0.708390
O O6 0.500000 0.162132 0.371076
O O7 0.856164 0.500000 0.709594
O O8 0.000000 0.500000 0.574355
O O9 0.573477 0.243775 0.020728
O O10 0.197279 0.806385 0.436462
O O11 0.500000 0.000000 0.446324
#
# Coordination Sequence:
#
# PCOD9554053 Si02
#       6
#    16   8   8   8  16   8
#     4  10  16  29  44  76 112 141 177 232 298 343
#     4  10  18  27  44  73 107 140 186 238 285 341
#     4  10  16  28  50  85 111 149 194 254 294 348
#     4  10  20  32  54  84 115 153 200 252 297 358
#     4  12  22  36  58  88 125 157 199 252 312 366
#     4  12  16  24  45  69 102 139 179 235 290 338
#
# _framework density 26.095725999999999
#
# number of rings (size 3 to 8) (size 9 to 14) (size 15 to 20)
#    0.000    1.500   11.250    0.000    0.000    0.000 
#    0.000    0.000    0.000    4.500    3.250    0.000 
#    0.000    0.000    0.000    0.000    0.000    0.000 
#
# Total GULP energy -178817.676793 kJ/mol
# GULP energy per Si atom -5588.052400 kJ/mol
# Density = 2.603633 g / cm^3
# Si number density = 26.095726 Si / 1000 Ang^3
#
#
#
# Elastic Constant Matrix: (Units=GPa)
#
#
# Indices 1 2 3 4 5 6 
#
# 1 171.1112 28.6010 12.7979 0.0000 0.0000 0.0000
# 2 28.6010 171.1112 12.7979 0.0000 0.0000 0.0000
# 3 12.7979 12.7979 67.4309 0.0000 0.0000 0.0000
# 4 0.0000 0.0000 0.0000 -9.0064 0.0000 0.0000
# 5 0.0000 0.0000 0.0000 0.0000 -9.0064 0.0000
# 6 0.0000 0.0000 0.0000 0.0000 0.0000 31.7798
#
#
#
# Elastic Compliance Matrix: (Units=1/GPa)
#
#
# Indices 1 2 3 4 5 6 
#
# 1 0.006075 -0.000943 -0.000974 0.000000 0.000000 0.000000
# 2 -0.000943 0.006075 -0.000974 0.000000 0.000000 0.000000
# 3 -0.000974 -0.000974 0.015200 0.000000 0.000000 0.000000
# 4 0.000000 0.000000 0.000000 -0.111032 0.000000 0.000000
# 5 0.000000 0.000000 0.000000 0.000000 -0.111032 0.000000
# 6 0.000000 0.000000 0.000000 0.000000 0.000000 0.031467
#
#
# Mechanical properties :
#
#
# Convention : Reuss Voigt Hill
#
# Bulk Modulus (GPa) = 46.36564 57.56077 51.96321
# Shear Modulus (GPa) = -33.27167 26.45050 -3.41058
#
# Velocity S-wave (km/s) = -3.57457 3.18715 -1.14446
# Velocity P-wave (km/s) = 0.87715 5.97071 4.26724
#
# Compressibility (1/GPa) = 0.02156770
#
# Stress axis : x y z
#
# Youngs Moduli (GPa) = 164.62150 164.62150 65.79072
#
# Poissons Ratio (x) = 0.15516 0.06408
# Poissons Ratio (y) = 0.15516 0.06408
# Poissons Ratio (z) = 0.16035 0.16035
#
# Static dielectric constant tensor:
#      x y z
#    x 2.322550 0.000000 0.000000 
#    y 0.000000 2.322550 0.000000 
#    z 0.000000 0.000000 2.139800 
# 
# From -- ./inp_files/1974.got.cif
#   From: 2010.05.17/outbox.cif.g08.bks.cpg/sg109_1_cif.got.tgz:1974.got - 2010.05.20 10:51:12.
