data_PCOD9554550
_publ_section_title
;
Structure prediction by ZEFSAII (Michael W. Deem and Ramdas Pophale) SiO2 
 PCOD9554550
Probable space group: I 41 C D
;
_chemical_formula_sum "Si O2"
_cell_formula_units_Z 64
_cell_length_a 9.967650
_cell_length_b 9.967650
_cell_length_c 23.020467
_cell_angle_alpha 90.000000
_cell_angle_beta 90.000000
_cell_angle_gamma 90.000000
_cell_volume 2287.176549
_symmetry_space_group_name_H-M "I 41 C D"
_symmetry_group_IT_number 110
_symmetry_cell_setting 'tetragonal'
loop_
_space_group_symop_operation_xyz
x,y,z
-y,1/2+x,1/4+z
-x,-y,z
y,1/2-x,1/4+z
-x,y,1/2+z
x,-y,1/2+z
1/2-y,-x,1/4+z
1/2+y,x,1/4+z
1/2+x,1/2+y,1/2+z
1/2-y,x,3/4+z
1/2-x,1/2-y,1/2+z
1/2+y,-x,3/4+z
1/2-x,1/2+y,z
1/2+x,1/2-y,z
-y,1/2-x,3/4+z
y,1/2+x,3/4+z
loop_
_atom_site_type_symbol
_atom_site_label
_atom_site_fract_x
_atom_site_fract_y
_atom_site_fract_z
Si Si1 0.859401 0.053460 0.189210
Si Si2 0.735233 0.509759 0.517043
Si Si3 0.410428 0.867595 0.142004
Si Si4 0.591666 0.251147 0.545496
O O1 0.250361 0.386724 0.145089
O O2 0.911874 0.148876 0.241523
O O3 0.780751 0.944582 0.227792
O O4 0.000000 0.000000 0.164212
O O5 0.677462 0.566300 0.457572
O O6 0.631858 0.405530 0.543470
O O7 0.796746 0.632011 0.554507
O O8 0.474556 0.772265 0.092908
O O9 0.500000 0.000000 0.133563
#
# Coordination Sequence:
#
# PCOD9554550 Si02
#       4
#    16  16  16  16
#     4  10  23  47  77 113 166 216 286 364 427 528
#     4  11  23  47  74 119 173 217 290 360 429 536
#     4  12  24  44  81 116 170 230 286 363 449 520
#     4  11  25  47  78 118 174 225 286 368 440 529
#
# _framework density 27.982099000000002
#
# number of rings (size 3 to 8) (size 9 to 14) (size 15 to 20)
#    0.000    1.000    5.000    2.250    0.000    4.000 
#    0.000    0.000   11.000    0.000    0.000    0.000 
#    0.000    0.000    0.000    0.000    0.000    0.000 
#
# Total GULP energy -179109.151420 kJ/mol
# GULP energy per Si atom -5597.160982 kJ/mol
# Density = 2.791841 g / cm^3
# Si number density = 27.982099 Si / 1000 Ang^3
#
#
#
# Elastic Constant Matrix: (Units=GPa)
#
#
# Indices 1 2 3 4 5 6 
#
# 1 183.7889 53.0991 74.5585 0.0000 0.0000 0.0000
# 2 53.0991 183.7889 74.5585 0.0000 0.0000 0.0000
# 3 74.5585 74.5585 149.3505 0.0000 0.0000 0.0000
# 4 0.0000 0.0000 0.0000 45.6159 0.0000 0.0000
# 5 0.0000 0.0000 0.0000 0.0000 45.6159 0.0000
# 6 0.0000 0.0000 0.0000 0.0000 0.0000 46.7328
#
#
#
# Elastic Compliance Matrix: (Units=1/GPa)
#
#
# Indices 1 2 3 4 5 6 
#
# 1 0.006904 -0.000748 -0.003073 0.000000 0.000000 0.000000
# 2 -0.000748 0.006904 -0.003073 0.000000 0.000000 0.000000
# 3 -0.003073 -0.003073 0.009764 0.000000 0.000000 0.000000
# 4 0.000000 0.000000 0.000000 0.021922 0.000000 0.000000
# 5 0.000000 0.000000 0.000000 0.000000 0.021922 0.000000
# 6 0.000000 0.000000 0.000000 0.000000 0.000000 0.021398
#
#
# Mechanical properties :
#
#
# Convention : Reuss Voigt Hill
#
# Bulk Modulus (GPa) = 102.21570 102.37341 102.29456
# Shear Modulus (GPa) = 47.23057 48.57372 47.90214
#
# Velocity S-wave (km/s) = 4.11284 4.17092 4.14198
# Velocity P-wave (km/s) = 7.69170 7.73693 7.71435
#
# Compressibility (1/GPa) = 0.00978323
#
# Stress axis : x y z
#
# Youngs Moduli (GPa) = 144.84780 144.84780 102.41719
#
# Poissons Ratio (x) = 0.10833 0.31474
# Poissons Ratio (y) = 0.10833 0.31474
# Poissons Ratio (z) = 0.44514 0.44514
#
# Static dielectric constant tensor:
#      x y z
#    x 2.443230 0.000000 0.000000 
#    y 0.000000 2.443230 0.000000 
#    z 0.000000 0.000000 2.170980 
# 
# From -- ./inp_files/2492.got.cif
#   From: 2010.05.17/outbox.cif.g08.bks.cpg/sg110_2_cif.got.tgz:2492.got - 2010.05.20 10:54:03.
