data_PCOD9554526
_publ_section_title
;
Structure prediction by ZEFSAII (Michael W. Deem and Ramdas Pophale) SiO2 
 PCOD9554526
Probable space group: I 41 C D
;
_chemical_formula_sum "Si O2"
_cell_formula_units_Z 80
_cell_length_a 10.397071
_cell_length_b 10.397071
_cell_length_c 29.745927
_cell_angle_alpha 90.000000
_cell_angle_beta 90.000000
_cell_angle_gamma 90.000000
_cell_volume 3215.507502
_symmetry_space_group_name_H-M "I 41 C D"
_symmetry_group_IT_number 110
_symmetry_cell_setting 'tetragonal'
loop_
_space_group_symop_operation_xyz
x,y,z
-y,1/2+x,1/4+z
-x,-y,z
y,1/2-x,1/4+z
-x,y,1/2+z
x,-y,1/2+z
1/2-y,-x,1/4+z
1/2+y,x,1/4+z
1/2+x,1/2+y,1/2+z
1/2-y,x,3/4+z
1/2-x,1/2-y,1/2+z
1/2+y,-x,3/4+z
1/2-x,1/2+y,z
1/2+x,1/2-y,z
-y,1/2-x,3/4+z
y,1/2+x,3/4+z
loop_
_atom_site_type_symbol
_atom_site_label
_atom_site_fract_x
_atom_site_fract_y
_atom_site_fract_z
Si Si1 0.447677 0.134411 0.877800
Si Si2 0.462596 0.134927 0.074557
Si Si3 0.713052 0.814001 0.398392
Si Si4 0.696978 0.545516 0.530833
Si Si5 0.193738 0.821016 0.249660
O O1 0.573035 0.226983 0.880492
O O2 0.323484 0.204507 0.897857
O O3 0.426163 0.114805 0.824921
O O4 0.500000 0.000000 0.897164
O O5 0.421589 0.234123 0.113462
O O6 0.335592 0.100105 0.046254
O O7 0.567921 0.167323 0.036471
O O8 0.500000 0.000000 0.097066
O O9 0.683626 0.857676 0.448992
O O10 0.704576 0.394735 0.519893
O O11 0.667462 0.651660 0.493343
#
# Coordination Sequence:
#
# PCOD9554526 Si02
#       5
#    16  16  16  16  16
#     4  11  25  47  75 104 149 205 256 329 405 488
#     4   9  21  45  71  98 148 203 244 325 403 469
#     4  11  26  44  75 112 148 200 270 321 403 491
#     4  10  22  44  67 100 138 190 247 306 394 472
#     4  11  24  42  71 104 149 192 255 322 396 475
#
# _framework density 24.879432000000001
#
# number of rings (size 3 to 8) (size 9 to 14) (size 15 to 20)
#    0.000    1.600    0.000    3.600    5.600    4.000 
#    0.000    0.000    0.000    0.000    0.000    0.000 
#    0.000    0.000    0.000    0.000    0.000    0.000 
#
# Total GULP energy -222880.220373 kJ/mol
# GULP energy per Si atom -5572.005509 kJ/mol
# Density = 2.482281 g / cm^3
# Si number density = 24.879432 Si / 1000 Ang^3
#
#
#
# Elastic Constant Matrix: (Units=GPa)
#
#
# Indices 1 2 3 4 5 6 
#
# 1 125.1393 51.3411 27.4818 0.0000 0.0000 0.0000
# 2 51.3411 125.1393 27.4818 0.0000 0.0000 0.0000
# 3 27.4818 27.4818 129.6102 0.0000 0.0000 0.0000
# 4 0.0000 0.0000 0.0000 10.6172 0.0000 0.0000
# 5 0.0000 0.0000 0.0000 0.0000 10.6172 0.0000
# 6 0.0000 0.0000 0.0000 0.0000 0.0000 27.9497
#
#
#
# Elastic Compliance Matrix: (Units=1/GPa)
#
#
# Indices 1 2 3 4 5 6 
#
# 1 0.009809 -0.003742 -0.001286 0.000000 0.000000 0.000000
# 2 -0.003742 0.009809 -0.001286 0.000000 0.000000 0.000000
# 3 -0.001286 -0.001286 0.008261 0.000000 0.000000 0.000000
# 4 0.000000 0.000000 0.000000 0.094187 0.000000 0.000000
# 5 0.000000 0.000000 0.000000 0.000000 0.094187 0.000000
# 6 0.000000 0.000000 0.000000 0.000000 0.000000 0.035779
#
#
# Mechanical properties :
#
#
# Convention : Reuss Voigt Hill
#
# Bulk Modulus (GPa) = 65.57674 65.83317 65.70495
# Shear Modulus (GPa) = 18.53618 28.07576 23.30597
#
# Velocity S-wave (km/s) = 2.73250 3.36292 3.06397
# Velocity P-wave (km/s) = 6.03079 6.44960 6.24371
#
# Compressibility (1/GPa) = 0.01524931
#
# Stress axis : x y z
#
# Youngs Moduli (GPa) = 101.95003 101.95003 121.05117
#
# Poissons Ratio (x) = 0.38147 0.15572
# Poissons Ratio (y) = 0.38147 0.15572
# Poissons Ratio (z) = 0.13115 0.13115
#
# Static dielectric constant tensor:
#      x y z
#    x 2.104780 0.000000 0.000000 
#    y 0.000000 2.104780 0.000000 
#    z 0.000000 0.000000 1.944420 
# 
# From -- ./inp_files/3092.got.cif
#   From: 2010.05.17/outbox.cif.g08.bks.cpg/sg110_2_cif.got.tgz:3092.got - 2010.05.20 10:54:03.
