data_PCOD9554020
_publ_section_title
;
Structure prediction by ZEFSAII (Michael W. Deem and Ramdas Pophale) SiO2 
 PCOD9554020
Probable space group: I 4 C M
;
_chemical_formula_sum "Si O2"
_cell_formula_units_Z 64
_cell_length_a 16.849889
_cell_length_b 16.849889
_cell_length_c 10.468344
_cell_angle_alpha 90.000000
_cell_angle_beta 90.000000
_cell_angle_gamma 90.000000
_cell_volume 2972.159241
_symmetry_space_group_name_H-M "I 4 C M"
_symmetry_group_IT_number 108
_symmetry_cell_setting 'tetragonal'
loop_
_space_group_symop_operation_xyz
x,y,z
-y,x,z
-x,-y,z
y,-x,z
-x,y,1/2+z
x,-y,1/2+z
-y,-x,1/2+z
y,x,1/2+z
1/2+x,1/2+y,1/2+z
1/2-y,1/2+x,1/2+z
1/2-x,1/2-y,1/2+z
1/2+y,1/2-x,1/2+z
1/2-x,1/2+y,z
1/2+x,1/2-y,z
1/2-y,1/2-x,z
1/2+y,1/2+x,z
loop_
_atom_site_type_symbol
_atom_site_label
_atom_site_fract_x
_atom_site_fract_y
_atom_site_fract_z
Si Si1 0.377748 0.549146 0.239700
Si Si2 0.468665 0.740193 0.092799
Si Si3 0.929778 0.300914 0.872433
Si Si4 0.667557 0.295755 0.921545
O O1 0.403126 0.458373 0.265982
O O2 0.334483 0.529738 0.105524
O O3 0.315380 0.597136 0.323396
O O4 0.461748 0.780818 0.230881
O O5 0.503632 0.795051 0.981756
O O6 0.380645 0.710398 0.054515
O O7 0.884016 0.384016 0.872104
O O8 0.863274 0.234142 0.906858
O O9 0.713460 0.213460 0.898560
#
# Coordination Sequence:
#
# PCOD9554020 Si02
#       4
#    16  16  16  16
#     4  11  22  39  65 103 146 182 224 283 358 432
#     4  12  22  45  67 100 142 186 234 288 363 419
#     4  11  26  44  70 104 138 181 240 294 353 431
#     4  11  23  42  69 101 140 186 239 289 343 424
#
# _framework density 21.533166999999999
#
# number of rings (size 3 to 8) (size 9 to 14) (size 15 to 20)
#    0.000    0.750    5.000    2.250    0.000    1.000 
#    0.000    2.500    0.000    6.000    0.000    0.000 
#    0.000    0.000    0.000    0.000    0.000    0.000 
#
# Total GULP energy -178394.378225 kJ/mol
# GULP energy per Si atom -5574.824320 kJ/mol
# Density = 2.148416 g / cm^3
# Si number density = 21.533167 Si / 1000 Ang^3
#
#
#
# Elastic Constant Matrix: (Units=GPa)
#
#
# Indices 1 2 3 4 5 6 
#
# 1 85.0695 51.6395 48.1164 0.0000 0.0000 0.0000
# 2 51.6395 85.0695 48.1164 0.0000 0.0000 0.0000
# 3 48.1164 48.1164 122.1400 0.0000 0.0000 0.0000
# 4 0.0000 0.0000 0.0000 22.0772 0.0000 0.0000
# 5 0.0000 0.0000 0.0000 0.0000 22.0772 0.0000
# 6 0.0000 0.0000 0.0000 0.0000 0.0000 48.1725
#
#
#
# Elastic Compliance Matrix: (Units=1/GPa)
#
#
# Indices 1 2 3 4 5 6 
#
# 1 0.020017 -0.009896 -0.003987 0.000000 0.000000 0.000000
# 2 -0.009896 0.020017 -0.003987 0.000000 0.000000 0.000000
# 3 -0.003987 -0.003987 0.011329 0.000000 0.000000 0.000000
# 4 0.000000 0.000000 0.000000 0.045296 0.000000 0.000000
# 5 0.000000 0.000000 0.000000 0.000000 0.045296 0.000000
# 6 0.000000 0.000000 0.000000 0.000000 0.000000 0.020759
#
#
# Mechanical properties :
#
#
# Convention : Reuss Voigt Hill
#
# Bulk Modulus (GPa) = 64.00936 65.33597 64.67267
# Shear Modulus (GPa) = 24.55045 28.09249 26.32147
#
# Velocity S-wave (km/s) = 3.38023 3.61586 3.50003
# Velocity P-wave (km/s) = 6.71007 6.91668 6.81416
#
# Compressibility (1/GPa) = 0.01562272
#
# Stress axis : x y z
#
# Youngs Moduli (GPa) = 49.95652 49.95652 88.26966
#
# Poissons Ratio (x) = 0.49436 0.35196
# Poissons Ratio (y) = 0.49436 0.35196
# Poissons Ratio (z) = 0.19919 0.19919
#
# Static dielectric constant tensor:
#      x y z
#    x 1.806850 0.000000 0.000000 
#    y 0.000000 1.806850 0.000000 
#    z 0.000000 0.000000 1.828040 
# 
# From -- ./inp_files/1249.got.cif
#   From: 2010.05.17/outbox.cif.g08.bks.cpg/sg108_1_cif.got.tgz:1249.got - 2010.05.20 10:49:05.
