data_PCOD9554586
_publ_section_title
;
Structure prediction by ZEFSAII (Michael W. Deem and Ramdas Pophale) SiO2 
 PCOD9554586
Probable space group: I 41 C D
;
_chemical_formula_sum "Si O2"
_cell_formula_units_Z 96
_cell_length_a 15.136140
_cell_length_b 15.136140
_cell_length_c 22.361663
_cell_angle_alpha 90.000000
_cell_angle_beta 90.000000
_cell_angle_gamma 90.000000
_cell_volume 5123.118132
_symmetry_space_group_name_H-M "I 41 C D"
_symmetry_group_IT_number 110
_symmetry_cell_setting 'tetragonal'
loop_
_space_group_symop_operation_xyz
x,y,z
-y,1/2+x,1/4+z
-x,-y,z
y,1/2-x,1/4+z
-x,y,1/2+z
x,-y,1/2+z
1/2-y,-x,1/4+z
1/2+y,x,1/4+z
1/2+x,1/2+y,1/2+z
1/2-y,x,3/4+z
1/2-x,1/2-y,1/2+z
1/2+y,-x,3/4+z
1/2-x,1/2+y,z
1/2+x,1/2-y,z
-y,1/2-x,3/4+z
y,1/2+x,3/4+z
loop_
_atom_site_type_symbol
_atom_site_label
_atom_site_fract_x
_atom_site_fract_y
_atom_site_fract_z
Si Si1 0.574196 0.922896 0.826030
Si Si2 0.527695 0.322580 0.482903
Si Si3 0.677420 0.527693 0.976360
Si Si4 0.945864 0.375795 0.958651
Si Si5 0.422895 0.074196 0.633233
Si Si6 0.945863 0.124204 0.250612
O O1 0.533389 0.847055 0.783531
O O2 0.591526 0.888254 0.892127
O O3 0.500000 0.000000 0.830064
O O4 0.654545 0.968861 0.790947
O O5 0.608343 0.391658 0.479632
O O6 0.561389 0.223352 0.481022
O O7 0.466612 0.347055 0.425732
O O8 0.654544 0.468860 0.918316
O O9 0.776648 0.561387 0.978241
O O10 0.900591 0.449804 0.000034
O O11 0.050196 0.400589 0.959229
O O12 0.388254 0.091526 0.567136
O O13 0.500000 0.000000 0.629198
#
# Coordination Sequence:
#
# PCOD9554586 Si02
#       6
#    16  16  16  16  16  16
#     4   9  17  38  61  81 109 159 191 236 304 365
#     4   9  20  37  62  83 112 152 206 244 293 366
#     4   9  20  37  62  83 112 152 206 244 293 366
#     4  11  21  36  58  85 122 154 190 243 310 361
#     4   9  17  38  61  81 109 159 191 236 304 365
#     4  11  21  36  58  85 122 154 190 243 310 361
#
# _framework density 18.738588
#
# number of rings (size 3 to 8) (size 9 to 14) (size 15 to 20)
#    0.000    2.333    3.333    3.000    0.000    1.333 
#    6.000    0.000    7.333    0.000    0.000    0.000 
#    0.000    0.000    0.000    0.000    0.000    0.000 
#
# Total GULP energy -267782.887947 kJ/mol
# GULP energy per Si atom -5578.810166 kJ/mol
# Density = 1.869594 g / cm^3
# Si number density = 18.738588 Si / 1000 Ang^3
#
#
#
# Elastic Constant Matrix: (Units=GPa)
#
#
# Indices 1 2 3 4 5 6 
#
# 1 83.3413 2.3430 25.4520 0.0000 0.0000 0.0000
# 2 2.3430 83.3413 25.4520 0.0000 0.0000 0.0000
# 3 25.4520 25.4520 112.4185 0.0000 0.0000 0.0000
# 4 0.0000 0.0000 0.0000 10.3939 0.0000 0.0000
# 5 0.0000 0.0000 0.0000 0.0000 10.3939 0.0000
# 6 0.0000 0.0000 0.0000 0.0000 0.0000 11.6259
#
#
#
# Elastic Compliance Matrix: (Units=1/GPa)
#
#
# Indices 1 2 3 4 5 6 
#
# 1 0.012915 0.000569 -0.003053 0.000000 0.000000 0.000000
# 2 0.000569 0.012915 -0.003053 0.000000 0.000000 0.000000
# 3 -0.003053 -0.003053 0.010278 0.000000 0.000000 0.000000
# 4 0.000000 0.000000 0.000000 0.096210 0.000000 0.000000
# 5 0.000000 0.000000 0.000000 0.000000 0.096210 0.000000
# 6 0.000000 0.000000 0.000000 0.000000 0.000000 0.086015
#
#
# Mechanical properties :
#
#
# Convention : Reuss Voigt Hill
#
# Bulk Modulus (GPa) = 39.94424 42.84392 41.39408
# Shear Modulus (GPa) = 14.97178 21.53969 18.25573
#
# Velocity S-wave (km/s) = 2.82969 3.39408 3.12466
# Velocity P-wave (km/s) = 5.66031 6.18655 5.92927
#
# Compressibility (1/GPa) = 0.02503490
#
# Stress axis : x y z
#
# Youngs Moduli (GPa) = 77.42817 77.42817 97.29775
#
# Poissons Ratio (x) = -0.04408 0.29704
# Poissons Ratio (y) = -0.04408 0.29704
# Poissons Ratio (z) = 0.23638 0.23638
#
# Static dielectric constant tensor:
#      x y z
#    x 1.642050 0.000000 0.000000 
#    y 0.000000 1.642050 0.000000 
#    z 0.000000 0.000000 1.666610 
# 
# From -- ./inp_files/2182.got.cif
#   From: 2010.05.17/outbox.cif.g08.bks.cpg/sg110_2_cif.got.tgz:2182.got - 2010.05.20 10:54:03.
