data_PCOD9554706
_publ_section_title
;
Structure prediction by ZEFSAII (Michael W. Deem and Ramdas Pophale) SiO2 
 PCOD9554706
Probable space group: P -4 2 M 
;
_chemical_formula_sum "Si O2"
_cell_formula_units_Z 56
_cell_length_a 14.046931
_cell_length_b 14.046931
_cell_length_c 13.053105
_cell_angle_alpha 90.000000
_cell_angle_beta 90.000000
_cell_angle_gamma 90.000000
_cell_volume 2575.589997
_symmetry_space_group_name_H-M "P -4 2 M "
_symmetry_group_IT_number 111
_symmetry_cell_setting 'tetragonal'
loop_
_space_group_symop_operation_xyz
x,y,z
y,-x,-z
-x,-y,z
-y,x,-z
x,-y,-z
-x,y,-z
-y,-x,z
y,x,z
loop_
_atom_site_type_symbol
_atom_site_label
_atom_site_fract_x
_atom_site_fract_y
_atom_site_fract_z
Si Si1 0.821707 0.978373 0.673405
Si Si2 0.334494 0.823557 0.376690
Si Si3 0.204131 0.359776 0.198208
Si Si4 0.557472 0.717359 0.795089
Si Si5 0.040577 0.196894 0.890635
Si Si6 0.701972 0.858785 0.404446
Si Si7 0.823850 0.661410 0.971826
O O1 0.919985 0.919985 0.652141
O O2 0.737620 0.900319 0.671019
O O3 0.817373 0.021218 0.789062
O O4 0.784030 0.060497 0.598884
O O5 0.270420 0.729580 0.390059
O O6 0.412321 0.789291 0.296370
O O7 0.357765 0.861099 0.490527
O O8 0.260899 0.260899 0.195234
O O9 0.281924 0.444095 0.206717
O O10 0.138914 0.357430 0.299366
O O11 0.154232 0.369467 0.087612
O O12 0.619860 0.619860 0.786015
O O13 0.588302 0.766656 0.901699
O O14 0.128407 0.128407 0.864809
O O15 0.083831 0.300626 0.912206
O O16 0.000000 0.166048 0.000000
O O17 0.759519 0.759519 0.404450
O O18 0.752009 0.752009 0.979392
#
# Coordination Sequence:
#
# PCOD9554706 Si02
#       7
#     8   8   8   8   8   8   8
#     4  10  19  34  57  82 107 143 193 238 274 324
#     4   9  18  35  57  79 105 144 188 228 277 335
#     4  10  21  35  54  83 117 147 179 229 293 344
#     4  10  19  35  60  82 105 145 194 235 277 343
#     4  10  19  31  51  77 109 149 190 229 274 334
#     4  10  21  36  54  80 116 149 181 230 286 339
#     4   9  17  33  54  76 106 147 188 227 277 341
#
# _framework density 21.74259
#
# number of rings (size 3 to 8) (size 9 to 14) (size 15 to 20)
#    0.000    2.286    1.429    1.714    0.000    3.000 
#    0.000    2.143    0.000    7.714    0.000    4.000 
#    0.000    0.000    0.000    0.000    0.000    0.000 
#
# Total GULP energy -311952.124434 kJ/mol
# GULP energy per Si atom -5570.573651 kJ/mol
# Density = 2.169310 g / cm^3
# Si number density = 21.742590 Si / 1000 Ang^3
#
#
#
# Elastic Constant Matrix: (Units=GPa)
#
#
# Indices 1 2 3 4 5 6 
#
# 1 111.9803 -68.6974 13.0636 0.0000 0.0000 0.0000
# 2 -68.6974 111.9803 13.0636 0.0000 0.0000 0.0000
# 3 13.0636 13.0636 159.2389 0.0000 0.0000 0.0000
# 4 0.0000 0.0000 0.0000 11.9119 0.0000 0.0000
# 5 0.0000 0.0000 0.0000 0.0000 11.9119 0.0000
# 6 0.0000 0.0000 0.0000 0.0000 0.0000 20.6997
#
#
#
# Elastic Compliance Matrix: (Units=1/GPa)
#
#
# Indices 1 2 3 4 5 6 
#
# 1 0.014921 0.009386 -0.001994 0.000000 0.000000 0.000000
# 2 0.009386 0.014921 -0.001994 0.000000 0.000000 0.000000
# 3 -0.001994 -0.001994 0.006607 0.000000 0.000000 0.000000
# 4 0.000000 0.000000 0.000000 0.083950 0.000000 0.000000
# 5 0.000000 0.000000 0.000000 0.000000 0.083950 0.000000
# 6 0.000000 0.000000 0.000000 0.000000 0.000000 0.048310
#
#
# Mechanical properties :
#
#
# Convention : Reuss Voigt Hill
#
# Bulk Modulus (GPa) = 21.16598 33.11766 27.14182
# Shear Modulus (GPa) = 19.40910 37.28934 28.34922
#
# Velocity S-wave (km/s) = 2.99101 4.14579 3.61481
# Velocity P-wave (km/s) = 4.65662 6.17912 5.47109
#
# Compressibility (1/GPa) = 0.04724562
#
# Stress axis : x y z
#
# Youngs Moduli (GPa) = 67.01906 67.01906 151.35320
#
# Poissons Ratio (x) = -0.62907 0.30182
# Poissons Ratio (y) = -0.62907 0.30182
# Poissons Ratio (z) = 0.13364 0.13364
#
# Static dielectric constant tensor:
#      x y z
#    x 1.796880 0.000000 0.000000 
#    y 0.000000 1.796880 0.000000 
#    z 0.000000 0.000000 1.922540 
# 
# From -- ./inp_files/2782.got.cif
#   From: 2010.05.17/outbox.cif.g08.bks.cpg/sg111_2_cif.got.tgz:2782.got - 2010.05.20 10:56:05.
