data_PCOD9554236
_publ_section_title
;
Structure prediction by ZEFSAII (Michael W. Deem and Ramdas Pophale) SiO2 
 PCOD9554236
Probable space group: I 41 M D
;
_chemical_formula_sum "Si O2"
_cell_formula_units_Z 112
_cell_length_a 30.283565
_cell_length_b 30.283565
_cell_length_c 5.646776
_cell_angle_alpha 90.000000
_cell_angle_beta 90.000000
_cell_angle_gamma 90.000000
_cell_volume 5178.626134
_symmetry_space_group_name_H-M "I 41 M D"
_symmetry_group_IT_number 109
_symmetry_cell_setting 'tetragonal'
loop_
_space_group_symop_operation_xyz
x,y,z
-y,1/2+x,1/4+z
-x,-y,z
y,1/2-x,1/4+z
-x,y,z
x,-y,z
-y,1/2-x,1/4+z
y,1/2+x,1/4+z
1/2+x,1/2+y,1/2+z
1/2-y,x,3/4+z
1/2-x,1/2-y,1/2+z
1/2+y,-x,3/4+z
1/2-x,1/2+y,1/2+z
1/2+x,1/2-y,1/2+z
1/2-y,-x,3/4+z
1/2+y,x,3/4+z
loop_
_atom_site_type_symbol
_atom_site_label
_atom_site_fract_x
_atom_site_fract_y
_atom_site_fract_z
Si Si1 0.683170 0.388269 0.380270
Si Si2 0.794850 0.203962 0.973304
Si Si3 0.187751 0.451787 0.242810
Si Si4 0.744201 0.124655 0.508381
Si Si5 0.754319 0.049538 0.129970
Si Si6 0.550870 0.447408 0.886457
Si Si7 0.908016 0.580937 0.143745
O O1 0.688908 0.344665 0.545860
O O2 0.709724 0.372506 0.148267
O O3 0.707637 0.433901 0.450204
O O4 0.632069 0.396838 0.354632
O O5 0.743467 0.200315 0.909085
O O6 0.827227 0.221665 0.760838
O O7 0.201980 0.500000 0.140477
O O8 0.210904 0.407471 0.151343
O O9 0.206207 0.453356 0.509125
O O10 0.136648 0.445968 0.196023
O O11 0.752068 0.092840 0.289570
O O12 0.765286 0.000000 0.217773
O O13 0.500000 0.433728 0.849168
O O14 0.553076 0.500000 0.906678
O O15 0.565404 0.428733 0.143571
O O16 0.575983 0.434362 0.642819
#
# Coordination Sequence:
#
# PCOD9554236 Si02
#       7
#    16  16  16  16  16  16  16
#     4  10  24  43  62  96 137 177 231 285 352 420
#     4  10  22  40  61  93 126 176 225 283 349 416
#     4  10  21  39  64  97 131 171 220 278 346 411
#     4  10  21  42  63  92 134 174 228 282 346 412
#     4  10  23  41  66  94 132 180 225 285 351 418
#     4  11  26  48  72 102 141 183 231 294 364 431
#     4  12  25  44  72 106 139 180 236 293 350 431
#
# _framework density 21.627359999999999
#
# number of rings (size 3 to 8) (size 9 to 14) (size 15 to 20)
#    0.000    1.571    1.429    2.143    6.000    2.857 
#    2.571    0.000    0.000    0.000    0.000    0.000 
#    0.000    0.000    0.000    0.000    0.000    0.000 
#
# Total GULP energy -311885.233160 kJ/mol
# GULP energy per Si atom -5569.379164 kJ/mol
# Density = 2.157814 g / cm^3
# Si number density = 21.627360 Si / 1000 Ang^3
#
#
#
# Elastic Constant Matrix: (Units=GPa)
#
#
# Indices 1 2 3 4 5 6 
#
# 1 114.8217 35.8890 41.9031 0.0000 0.0000 0.0000
# 2 35.8890 114.8217 41.9031 0.0000 0.0000 0.0000
# 3 41.9031 41.9031 73.5665 0.0000 0.0000 0.0000
# 4 0.0000 0.0000 0.0000 11.6282 0.0000 0.0000
# 5 0.0000 0.0000 0.0000 0.0000 11.6282 0.0000
# 6 0.0000 0.0000 0.0000 0.0000 0.0000 -93.7972
#
#
#
# Elastic Compliance Matrix: (Units=1/GPa)
#
#
# Indices 1 2 3 4 5 6 
#
# 1 0.011190 -0.001479 -0.005531 0.000000 0.000000 0.000000
# 2 -0.001479 0.011190 -0.005531 0.000000 0.000000 0.000000
# 3 -0.005531 -0.005531 0.019894 0.000000 0.000000 0.000000
# 4 0.000000 0.000000 0.000000 0.085998 0.000000 0.000000
# 5 0.000000 0.000000 0.000000 0.000000 0.085998 0.000000
# 6 0.000000 0.000000 0.000000 0.000000 0.000000 -0.010661
#
#
# Mechanical properties :
#
#
# Convention : Reuss Voigt Hill
#
# Bulk Modulus (GPa) = 58.16975 60.28894 59.22935
# Shear Modulus (GPa) = 21.32893 -1.87386 9.72753
#
# Velocity S-wave (km/s) = 3.14379 -0.93183 2.12310
# Velocity P-wave (km/s) = 6.33503 5.17484 5.78410
#
# Compressibility (1/GPa) = 0.01719106
#
# Stress axis : x y z
#
# Youngs Moduli (GPa) = 89.36504 89.36504 50.26529
#
# Poissons Ratio (x) = 0.13217 0.27804
# Poissons Ratio (y) = 0.13217 0.27804
# Poissons Ratio (z) = 0.49431 0.49431
#
# Static dielectric constant tensor:
#      x y z
#    x 1.741200 0.000000 0.000000 
#    y 0.000000 1.741200 0.000000 
#    z 0.000000 0.000000 1.959580 
# 
# From -- ./inp_files/733.got.cif
#   From: 2010.05.17/outbox.cif.g08.bks.cpg/sg109_1_cif.got.tgz:733.got - 2010.05.20 10:51:12.
