data_PCOD9554841
_publ_section_title
;
Structure prediction by ZEFSAII (Michael W. Deem and Ramdas Pophale) SiO2 
 PCOD9554841
Probable space group: P -4 2 M 
;
_chemical_formula_sum "Si O2"
_cell_formula_units_Z 40
_cell_length_a 16.940340
_cell_length_b 16.940340
_cell_length_c 7.756784
_cell_angle_alpha 90.000000
_cell_angle_beta 90.000000
_cell_angle_gamma 90.000000
_cell_volume 2226.004014
_symmetry_space_group_name_H-M "P -4 2 M "
_symmetry_group_IT_number 111
_symmetry_cell_setting 'tetragonal'
loop_
_space_group_symop_operation_xyz
x,y,z
y,-x,-z
-x,-y,z
-y,x,-z
x,-y,-z
-x,y,-z
-y,-x,z
y,x,z
loop_
_atom_site_type_symbol
_atom_site_label
_atom_site_fract_x
_atom_site_fract_y
_atom_site_fract_z
Si Si1 0.407597 0.846276 0.197051
Si Si2 0.308554 0.000002 0.291822
Si Si3 0.153729 0.407595 0.197047
Si Si4 0.000001 0.127225 0.710223
Si Si5 0.406576 0.723900 0.500000
O O1 0.500002 0.868246 0.223459
O O2 0.388957 0.778132 0.333576
O O3 0.353961 0.922419 0.228810
O O4 0.398622 0.819385 0.000004
O O5 0.353957 0.077588 0.228813
O O6 0.309924 0.000000 0.500000
O O7 0.217503 0.000000 0.233081
O O8 0.221876 0.388956 0.333564
O O9 0.076646 0.076646 0.763798
O O10 0.000000 0.127812 0.500000
O O11 0.923357 0.076644 0.763798
O O12 0.500000 0.705961 0.500000
O O13 0.353040 0.646961 0.499992
#
# Coordination Sequence:
#
# PCOD9554841 Si02
#       5
#     8   8   8   8   8
#     4  10  21  37  57  83 117 152 184 225 281 342
#     4  11  19  30  54  89 112 146 192 233 274 333
#     4  10  21  37  57  83 117 152 184 225 281 342
#     4   8  16  31  48  69 102 143 184 226 270 314
#     4  10  22  40  61  85 114 148 188 236 289 344
#
# _framework density 17.969421000000001
#
# number of rings (size 3 to 8) (size 9 to 14) (size 15 to 20)
#    0.000    2.200    2.000    1.800    0.000    5.000 
#    0.000    0.000    0.000    3.600    0.000   11.200 
#    0.000    0.000    0.000    0.000    0.000    0.000 
#
# Total GULP energy -223324.544191 kJ/mol
# GULP energy per Si atom -5583.113605 kJ/mol
# Density = 1.792852 g / cm^3
# Si number density = 17.969421 Si / 1000 Ang^3
#
#
#
# Elastic Constant Matrix: (Units=GPa)
#
#
# Indices 1 2 3 4 5 6 
#
# 1 119.4501 90.1084 51.6609 0.0000 0.0000 0.0000
# 2 90.1084 119.4610 51.6630 0.0000 0.0000 0.0000
# 3 51.6609 51.6630 101.7259 0.0000 0.0000 0.0000
# 4 0.0000 0.0000 0.0000 1.7843 0.0000 0.0000
# 5 0.0000 0.0000 0.0000 0.0000 1.7903 0.0000
# 6 0.0000 0.0000 0.0000 0.0000 0.0000 -122.4947
#
#
#
# Elastic Compliance Matrix: (Units=1/GPa)
#
#
# Indices 1 2 3 4 5 6 
#
# 1 0.020221 -0.013855 -0.003233 0.000000 0.000000 0.000000
# 2 -0.013855 0.020219 -0.003233 0.000000 0.000000 0.000000
# 3 -0.003233 -0.003233 0.013114 0.000000 0.000000 0.000000
# 4 0.000000 0.000000 0.000000 0.560453 0.000000 0.000000
# 5 0.000000 0.000000 0.000000 0.000000 0.558566 0.000000
# 6 0.000000 0.000000 0.000000 0.000000 0.000000 -0.008164
#
#
# Mechanical properties :
#
#
# Convention : Reuss Voigt Hill
#
# Bulk Modulus (GPa) = 77.43534 80.83352 79.13443
# Shear Modulus (GPa) = 4.13444 -13.97039 -4.91798
#
# Velocity S-wave (km/s) = 1.51849 -2.79131 -1.65614
# Velocity P-wave (km/s) = 6.80153 5.89008 6.36215
#
# Compressibility (1/GPa) = 0.01291400
#
# Stress axis : x y z
#
# Youngs Moduli (GPa) = 49.45297 49.45756 76.25437
#
# Poissons Ratio (x) = 0.68521 0.24653
# Poissons Ratio (y) = 0.68515 0.24651
# Poissons Ratio (z) = 0.15988 0.15988
#
# Static dielectric constant tensor:
#      x y z
#    x 1.583070 0.000000 0.000000 
#    y 0.000000 1.583070 0.000000 
#    z 0.000000 0.000000 1.645800 
# 
# From -- ./inp_files/1581.got.cif
#   From: 2010.05.17/outbox.cif.g08.bks.cpg/sg111_1_cif.got.tgz:1581.got - 2010.05.20 10:56:05.
