data_PCOD9554419
_publ_section_title
;
Structure prediction by ZEFSAII (Michael W. Deem and Ramdas Pophale) SiO2 
 PCOD9554419
Probable space group: I 41 C D
;
_chemical_formula_sum "Si O2"
_cell_formula_units_Z 80
_cell_length_a 12.353271
_cell_length_b 12.353271
_cell_length_c 23.079364
_cell_angle_alpha 90.000000
_cell_angle_beta 90.000000
_cell_angle_gamma 90.000000
_cell_volume 3521.987210
_symmetry_space_group_name_H-M "I 41 C D"
_symmetry_group_IT_number 110
_symmetry_cell_setting 'tetragonal'
loop_
_space_group_symop_operation_xyz
x,y,z
-y,1/2+x,1/4+z
-x,-y,z
y,1/2-x,1/4+z
-x,y,1/2+z
x,-y,1/2+z
1/2-y,-x,1/4+z
1/2+y,x,1/4+z
1/2+x,1/2+y,1/2+z
1/2-y,x,3/4+z
1/2-x,1/2-y,1/2+z
1/2+y,-x,3/4+z
1/2-x,1/2+y,z
1/2+x,1/2-y,z
-y,1/2-x,3/4+z
y,1/2+x,3/4+z
loop_
_atom_site_type_symbol
_atom_site_label
_atom_site_fract_x
_atom_site_fract_y
_atom_site_fract_z
Si Si1 0.411469 0.706861 0.956500
Si Si2 0.650416 0.696890 0.666685
Si Si3 0.930069 0.164730 0.208695
Si Si4 0.169442 0.946724 0.312899
Si Si5 0.107535 0.884004 0.904367
O O1 0.287442 0.670767 0.966658
O O2 0.388224 0.824843 0.927277
O O3 0.483149 0.617296 0.925078
O O4 0.473776 0.738905 0.015120
O O5 0.545614 0.629627 0.684667
O O6 0.622996 0.771518 0.611756
O O7 0.755673 0.629647 0.652268
O O8 0.912125 0.125609 0.274507
O O9 0.923804 0.294231 0.196428
O O10 0.124323 0.051815 0.344874
#
# Coordination Sequence:
#
# PCOD9554419 Si02
#       5
#    16  16  16  16  16
#     4   9  21  40  60  99 135 174 231 277 344 423
#     4  10  20  41  64  94 141 178 223 289 342 412
#     4   8  20  39  60  97 135 171 233 282 331 420
#     4   9  21  39  62  97 135 175 229 275 349 408
#     4  10  20  38  68  90 139 177 223 285 339 414
#
# _framework density 22.714449999999999
#
# number of rings (size 3 to 8) (size 9 to 14) (size 15 to 20)
#    1.200    1.600    0.000    0.000    2.800    4.000 
#   10.800    0.000    0.000    4.800    0.000    0.000 
#    0.000    0.000    0.000    0.000    0.000    0.000 
#
# Total GULP energy -222830.515456 kJ/mol
# GULP energy per Si atom -5570.762886 kJ/mol
# Density = 2.266275 g / cm^3
# Si number density = 22.714450 Si / 1000 Ang^3
#
#
#
# Elastic Constant Matrix: (Units=GPa)
#
#
# Indices 1 2 3 4 5 6 
#
# 1 111.0187 5.8444 20.7114 0.0000 0.0000 0.0000
# 2 5.8444 111.0187 20.7114 0.0000 0.0000 0.0000
# 3 20.7114 20.7114 80.0747 0.0000 0.0000 0.0000
# 4 0.0000 0.0000 0.0000 33.6148 0.0000 0.0000
# 5 0.0000 0.0000 0.0000 0.0000 33.6148 0.0000
# 6 0.0000 0.0000 0.0000 0.0000 0.0000 28.7443
#
#
#
# Elastic Compliance Matrix: (Units=1/GPa)
#
#
# Indices 1 2 3 4 5 6 
#
# 1 0.009464 -0.000044 -0.002437 0.000000 0.000000 0.000000
# 2 -0.000044 0.009464 -0.002437 0.000000 0.000000 0.000000
# 3 -0.002437 -0.002437 0.013749 0.000000 0.000000 0.000000
# 4 0.000000 0.000000 0.000000 0.029749 0.000000 0.000000
# 5 0.000000 0.000000 0.000000 0.000000 0.029749 0.000000
# 6 0.000000 0.000000 0.000000 0.000000 0.000000 0.034789
#
#
# Mechanical properties :
#
#
# Convention : Reuss Voigt Hill
#
# Bulk Modulus (GPa) = 43.77600 44.07182 43.92391
# Shear Modulus (GPa) = 34.62287 36.18444 35.40365
#
# Velocity S-wave (km/s) = 3.90842 3.99559 3.95224
# Velocity P-wave (km/s) = 6.29935 6.38208 6.34085
#
# Compressibility (1/GPa) = 0.02284357
#
# Stress axis : x y z
#
# Youngs Moduli (GPa) = 105.65943 105.65943 72.73346
#
# Poissons Ratio (x) = 0.00461 0.17723
# Poissons Ratio (y) = 0.00461 0.17723
# Poissons Ratio (z) = 0.25746 0.25746
#
# Static dielectric constant tensor:
#      x y z
#    x 1.909780 0.000000 0.000000 
#    y 0.000000 1.909780 0.000000 
#    z 0.000000 0.000000 1.872280 
# 
# From -- ./inp_files/3087.got.cif
#   From: 2010.05.17/outbox.cif.g08.bks.cpg/sg110_2_cif.got.tgz:3087.got - 2010.05.20 10:54:03.
