data_PCOD9554990
_publ_section_title
;
Structure prediction by ZEFSAII (Michael W. Deem and Ramdas Pophale) SiO2 
 PCOD9554990
Probable space group: P -4 2 C
;
_chemical_formula_sum "Si O2"
_cell_formula_units_Z 64
_cell_length_a 14.476855
_cell_length_b 14.476855
_cell_length_c 17.133984
_cell_angle_alpha 90.000000
_cell_angle_beta 90.000000
_cell_angle_gamma 90.000000
_cell_volume 3590.928899
_symmetry_space_group_name_H-M "P -4 2 C"
_symmetry_group_IT_number 112
_symmetry_cell_setting 'tetragonal'
loop_
_space_group_symop_operation_xyz
x,y,z
y,-x,-z
-x,-y,z
-y,x,-z
x,-y,1/2-z
-x,y,1/2-z
-y,-x,1/2+z
y,x,1/2+z
loop_
_atom_site_type_symbol
_atom_site_label
_atom_site_fract_x
_atom_site_fract_y
_atom_site_fract_z
Si Si1 0.299219 0.890161 0.747161
Si Si2 0.421939 0.832896 0.885508
Si Si3 0.601201 0.010896 0.014600
Si Si4 0.858462 0.244022 0.801020
Si Si5 0.063266 0.752381 0.640915
Si Si6 0.898370 0.884797 0.985809
Si Si7 0.173728 0.632002 0.081396
Si Si8 0.261834 0.756863 0.445190
O O1 0.387622 0.861474 0.799794
O O2 0.210271 0.841352 0.785666
O O3 0.315136 0.853221 0.660030
O O4 0.290075 0.000000 0.750000
O O5 0.527518 0.802556 0.894058
O O6 0.345565 0.762971 0.918187
O O7 0.412007 0.921490 0.941499
O O8 0.675117 0.050613 0.074720
O O9 0.500000 0.000000 0.052331
O O10 0.631937 0.915005 0.976271
O O11 0.879151 0.283663 0.714874
O O12 0.809153 0.303418 0.868945
O O13 0.960340 0.220148 0.831779
O O14 0.106937 0.842407 0.600845
O O15 0.829103 0.820253 0.035471
O O16 0.006457 0.874762 0.010462
O O17 0.246780 0.680798 0.024955
#
# Coordination Sequence:
#
# PCOD9554990 Si02
#       8
#     8   8   8   8   8   8   8   8
#     4  11  22  36  52  82 116 147 187 235 286 332
#     4  10  22  35  58  86 111 139 189 230 282 348
#     4  10  19  33  58  82 107 141 185 231 282 333
#     4  10  23  34  50  73 107 153 188 229 272 321
#     4  11  20  38  50  70 113 151 195 236 268 320
#     4  11  21  33  52  75 103 152 193 226 271 321
#     4  11  21  37  59  82 110 149 179 234 292 331
#     4  11  21  38  57  80 112 147 186 235 280 335
#
# _framework density 17.822686000000001
#
# number of rings (size 3 to 8) (size 9 to 14) (size 15 to 20)
#    0.000    1.375    5.000    1.125    0.000    2.500 
#    0.000    1.875    0.000    0.375    0.000    0.000 
#    0.000    2.250    0.000    0.000    0.000    0.000 
#
# Total GULP energy -356923.865211 kJ/mol
# GULP energy per Si atom -5576.935394 kJ/mol
# Density = 1.778212 g / cm^3
# Si number density = 17.822686 Si / 1000 Ang^3
#
#
#
# Elastic Constant Matrix: (Units=GPa)
#
#
# Indices 1 2 3 4 5 6 
#
# 1 63.2028 12.3842 24.7055 0.0000 0.0000 0.0000
# 2 12.3842 63.2028 24.7055 0.0000 0.0000 0.0000
# 3 24.7055 24.7055 101.3797 0.0000 0.0000 0.0000
# 4 0.0000 0.0000 0.0000 13.7930 0.0000 0.0000
# 5 0.0000 0.0000 0.0000 0.0000 13.7930 0.0000
# 6 0.0000 0.0000 0.0000 0.0000 0.0000 9.8959
#
#
#
# Elastic Compliance Matrix: (Units=1/GPa)
#
#
# Indices 1 2 3 4 5 6 
#
# 1 0.017707 -0.001971 -0.003835 0.000000 0.000000 0.000000
# 2 -0.001971 0.017707 -0.003835 0.000000 0.000000 0.000000
# 3 -0.003835 -0.003835 0.011733 0.000000 0.000000 0.000000
# 4 0.000000 0.000000 0.000000 0.072501 0.000000 0.000000
# 5 0.000000 0.000000 0.000000 0.000000 0.072501 0.000000
# 6 0.000000 0.000000 0.000000 0.000000 0.000000 0.101051
#
#
# Mechanical properties :
#
#
# Convention : Reuss Voigt Hill
#
# Bulk Modulus (GPa) = 35.88518 39.04175 37.46346
# Shear Modulus (GPa) = 15.53904 18.56237 17.05071
#
# Velocity S-wave (km/s) = 2.95595 3.23073 3.09639
# Velocity P-wave (km/s) = 5.64167 5.98916 5.81801
#
# Compressibility (1/GPa) = 0.02786666
#
# Stress axis : x y z
#
# Youngs Moduli (GPa) = 56.47399 56.47399 85.22972
#
# Poissons Ratio (x) = 0.11129 0.32685
# Poissons Ratio (y) = 0.11129 0.32685
# Poissons Ratio (z) = 0.21657 0.21657
#
# Static dielectric constant tensor:
#      x y z
#    x 1.625000 0.000000 0.000000 
#    y 0.000000 1.625000 0.000000 
#    z 0.000000 0.000000 1.661890 
# 
# From -- ./inp_files/4229.got.cif
#   From: 2010.05.17/outbox.cif.g08.bks.cpg/sg112_3_cif.got.tgz:4229.got - 2010.05.20 10:59:04.
