data_PCOD9554601
_publ_section_title
;
Structure prediction by ZEFSAII (Michael W. Deem and Ramdas Pophale) SiO2 
 PCOD9554601
Probable space group: I 41 C D
;
_chemical_formula_sum "Si O2"
_cell_formula_units_Z 112
_cell_length_a 14.062888
_cell_length_b 14.062888
_cell_length_c 25.080942
_cell_angle_alpha 90.000000
_cell_angle_beta 90.000000
_cell_angle_gamma 90.000000
_cell_volume 4960.127952
_symmetry_space_group_name_H-M "I 41 C D"
_symmetry_group_IT_number 110
_symmetry_cell_setting 'tetragonal'
loop_
_space_group_symop_operation_xyz
x,y,z
-y,1/2+x,1/4+z
-x,-y,z
y,1/2-x,1/4+z
-x,y,1/2+z
x,-y,1/2+z
1/2-y,-x,1/4+z
1/2+y,x,1/4+z
1/2+x,1/2+y,1/2+z
1/2-y,x,3/4+z
1/2-x,1/2-y,1/2+z
1/2+y,-x,3/4+z
1/2-x,1/2+y,z
1/2+x,1/2-y,z
-y,1/2-x,3/4+z
y,1/2+x,3/4+z
loop_
_atom_site_type_symbol
_atom_site_label
_atom_site_fract_x
_atom_site_fract_y
_atom_site_fract_z
Si Si1 0.192784 0.623611 0.342130
Si Si2 0.561765 0.119798 0.742641
Si Si3 0.436673 0.842601 0.007217
Si Si4 0.059287 0.868266 0.461010
Si Si5 0.643973 0.895247 0.042951
Si Si6 0.982462 0.185202 0.196963
Si Si7 0.903415 0.182715 0.350769
O O1 0.128740 0.594665 0.291724
O O2 0.294391 0.664998 0.321594
O O3 0.199246 0.536662 0.384136
O O4 0.130703 0.711366 0.364269
O O5 0.449672 0.099427 0.750117
O O6 0.572014 0.225981 0.723639
O O7 0.598637 0.047838 0.698109
O O8 0.531403 0.881877 0.034787
O O9 0.358626 0.840542 0.053523
O O10 0.443127 0.738312 0.982322
O O11 0.406100 0.921423 0.964335
O O12 0.112196 0.874688 0.404989
O O13 0.674342 0.987905 0.077804
O O14 0.679688 0.919674 0.981825
#
# Coordination Sequence:
#
# PCOD9554601 Si02
#       7
#    16  16  16  16  16  16  16
#     4  12  24  46  73 110 147 194 254 302 374 457
#     4  11  25  44  69 102 150 187 245 305 359 450
#     4  11  23  44  70 104 141 193 247 298 367 455
#     4  11  25  45  69 103 146 191 234 307 371 425
#     4  11  25  46  72 105 152 193 245 311 375 445
#     4  11  24  45  72 101 146 196 242 308 370 443
#     4  11  24  43  72 101 142 189 245 294 367 446
#
# _framework density 22.580062999999999
#
# number of rings (size 3 to 8) (size 9 to 14) (size 15 to 20)
#    0.000    0.857    5.714    2.571    8.000    0.000 
#    5.143    0.000    0.000    0.000    0.000    0.000 
#    0.000    0.000    0.000    0.000    0.000    0.000 
#
# Total GULP energy -312143.983723 kJ/mol
# GULP energy per Si atom -5573.999709 kJ/mol
# Density = 2.252867 g / cm^3
# Si number density = 22.580063 Si / 1000 Ang^3
#
#
#
# Elastic Constant Matrix: (Units=GPa)
#
#
# Indices 1 2 3 4 5 6 
#
# 1 96.6786 9.1441 18.4337 0.0000 0.0000 0.0000
# 2 9.1441 96.6786 18.4337 0.0000 0.0000 0.0000
# 3 18.4337 18.4337 81.0656 0.0000 0.0000 0.0000
# 4 0.0000 0.0000 0.0000 27.0299 0.0000 0.0000
# 5 0.0000 0.0000 0.0000 0.0000 27.0299 0.0000
# 6 0.0000 0.0000 0.0000 0.0000 0.0000 24.5592
#
#
#
# Elastic Compliance Matrix: (Units=1/GPa)
#
#
# Indices 1 2 3 4 5 6 
#
# 1 0.010843 -0.000581 -0.002334 0.000000 0.000000 0.000000
# 2 -0.000581 0.010843 -0.002334 0.000000 0.000000 0.000000
# 3 -0.002334 -0.002334 0.013397 0.000000 0.000000 0.000000
# 4 0.000000 0.000000 0.000000 0.036996 0.000000 0.000000
# 5 0.000000 0.000000 0.000000 0.000000 0.036996 0.000000
# 6 0.000000 0.000000 0.000000 0.000000 0.000000 0.040718
#
#
# Mechanical properties :
#
#
# Convention : Reuss Voigt Hill
#
# Bulk Modulus (GPa) = 40.67045 40.71620 40.69333
# Shear Modulus (GPa) = 29.67605 30.95120 30.31362
#
# Velocity S-wave (km/s) = 3.62920 3.70636 3.66798
# Velocity P-wave (km/s) = 5.96760 6.03218 5.99998
#
# Compressibility (1/GPa) = 0.02458788
#
# Stress axis : x y z
#
# Youngs Moduli (GPa) = 92.22172 92.22172 74.64347
#
# Poissons Ratio (x) = 0.05355 0.17419
# Poissons Ratio (y) = 0.05355 0.17419
# Poissons Ratio (z) = 0.21522 0.21522
#
# Static dielectric constant tensor:
#      x y z
#    x 1.879450 0.000000 0.000000 
#    y 0.000000 1.879450 0.000000 
#    z 0.000000 0.000000 1.909200 
# 
# From -- ./inp_files/2977.got.cif
#   From: 2010.05.17/outbox.cif.g08.bks.cpg/sg110_2_cif.got.tgz:2977.got - 2010.05.20 10:54:03.
