data_PCOD9554558
_publ_section_title
;
Structure prediction by ZEFSAII (Michael W. Deem and Ramdas Pophale) SiO2 
 PCOD9554558
Probable space group: I 41 C D
;
_chemical_formula_sum "Si O2"
_cell_formula_units_Z 96
_cell_length_a 13.722405
_cell_length_b 13.722405
_cell_length_c 22.674968
_cell_angle_alpha 90.000000
_cell_angle_beta 90.000000
_cell_angle_gamma 90.000000
_cell_volume 4269.796221
_symmetry_space_group_name_H-M "I 41 C D"
_symmetry_group_IT_number 110
_symmetry_cell_setting 'tetragonal'
loop_
_space_group_symop_operation_xyz
x,y,z
-y,1/2+x,1/4+z
-x,-y,z
y,1/2-x,1/4+z
-x,y,1/2+z
x,-y,1/2+z
1/2-y,-x,1/4+z
1/2+y,x,1/4+z
1/2+x,1/2+y,1/2+z
1/2-y,x,3/4+z
1/2-x,1/2-y,1/2+z
1/2+y,-x,3/4+z
1/2-x,1/2+y,z
1/2+x,1/2-y,z
-y,1/2-x,3/4+z
y,1/2+x,3/4+z
loop_
_atom_site_type_symbol
_atom_site_label
_atom_site_fract_x
_atom_site_fract_y
_atom_site_fract_z
Si Si1 0.175969 0.363168 0.163990
Si Si2 0.303327 0.524223 0.007627
Si Si3 0.080641 0.226665 0.434908
Si Si4 0.279654 0.870241 0.934303
Si Si5 0.842735 0.826704 0.094828
Si Si6 0.645873 0.937155 0.309050
O O1 0.077647 0.347657 0.200404
O O2 0.196375 0.477313 0.157237
O O3 0.267463 0.325289 0.203236
O O4 0.173429 0.287614 0.108738
O O5 0.273112 0.611102 0.051644
O O6 0.383248 0.452393 0.037422
O O7 0.219131 0.453516 0.983233
O O8 0.166453 0.150567 0.419866
O O9 0.119957 0.326870 0.407716
O O10 0.078058 0.221811 0.505612
O O11 0.329619 0.895831 0.872985
O O12 0.947524 0.850986 0.068736
#
# Coordination Sequence:
#
# PCOD9554558 Si02
#       6
#    16  16  16  16  16  16
#     4  11  23  43  68 104 142 183 243 293 360 436
#     4  11  23  42  73  97 137 193 233 298 370 424
#     4  10  24  42  70 102 145 189 241 294 370 431
#     4  10  24  43  69 107 144 186 248 298 359 440
#     4  11  23  40  70 102 138 186 244 298 355 436
#     4  11  22  45  70 103 144 193 243 300 365 440
#
# _framework density 22.483508
#
# number of rings (size 3 to 8) (size 9 to 14) (size 15 to 20)
#    0.000    1.333    3.333    1.500    2.333    9.333 
#    0.000    0.000    0.000    2.000    0.000    0.000 
#    0.000    0.000    0.000    0.000    0.000    0.000 
#
# Total GULP energy -267838.408260 kJ/mol
# GULP energy per Si atom -5579.966839 kJ/mol
# Density = 2.243233 g / cm^3
# Si number density = 22.483508 Si / 1000 Ang^3
#
#
#
# Elastic Constant Matrix: (Units=GPa)
#
#
# Indices 1 2 3 4 5 6 
#
# 1 94.4696 0.6277 15.0986 0.0000 0.0000 0.0000
# 2 0.6277 94.4696 15.0986 0.0000 0.0000 0.0000
# 3 15.0986 15.0986 62.0434 0.0000 0.0000 0.0000
# 4 0.0000 0.0000 0.0000 38.3281 0.0000 0.0000
# 5 0.0000 0.0000 0.0000 0.0000 38.3281 0.0000
# 6 0.0000 0.0000 0.0000 0.0000 0.0000 12.3745
#
#
#
# Elastic Compliance Matrix: (Units=1/GPa)
#
#
# Indices 1 2 3 4 5 6 
#
# 1 0.011026 0.000370 -0.002773 0.000000 0.000000 0.000000
# 2 0.000370 0.011026 -0.002773 0.000000 0.000000 0.000000
# 3 -0.002773 -0.002773 0.017468 0.000000 0.000000 0.000000
# 4 0.000000 0.000000 0.000000 0.026090 0.000000 0.000000
# 5 0.000000 0.000000 0.000000 0.000000 0.026090 0.000000
# 6 0.000000 0.000000 0.000000 0.000000 0.000000 0.080811
#
#
# Mechanical properties :
#
#
# Convention : Reuss Voigt Hill
#
# Bulk Modulus (GPa) = 34.28574 34.73692 34.51133
# Shear Modulus (GPa) = 25.96222 32.48335 29.22278
#
# Velocity S-wave (km/s) = 3.40181 3.80513 3.60911
# Velocity P-wave (km/s) = 5.54185 5.89821 5.72280
#
# Compressibility (1/GPa) = 0.02916664
#
# Stress axis : x y z
#
# Youngs Moduli (GPa) = 90.69308 90.69308 57.24901
#
# Poissons Ratio (x) = -0.03355 0.15877
# Poissons Ratio (y) = -0.03355 0.15877
# Poissons Ratio (z) = 0.25152 0.25152
#
# Static dielectric constant tensor:
#      x y z
#    x 1.874040 0.000000 0.000000 
#    y 0.000000 1.874040 0.000000 
#    z 0.000000 0.000000 1.900140 
# 
# From -- ./inp_files/2221.got.cif
#   From: 2010.05.17/outbox.cif.g08.bks.cpg/sg110_2_cif.got.tgz:2221.got - 2010.05.20 10:54:03.
