data_PCOD9554683
_publ_section_title
;
Structure prediction by ZEFSAII (Michael W. Deem and Ramdas Pophale) SiO2 
 PCOD9554683
Probable space group: P -4 2 M 
;
_chemical_formula_sum "Si O2"
_cell_formula_units_Z 32
_cell_length_a 17.910872
_cell_length_b 17.910872
_cell_length_c 6.806760
_cell_angle_alpha 90.000000
_cell_angle_beta 90.000000
_cell_angle_gamma 90.000000
_cell_volume 2183.604087
_symmetry_space_group_name_H-M "P -4 2 M "
_symmetry_group_IT_number 111
_symmetry_cell_setting 'tetragonal'
loop_
_space_group_symop_operation_xyz
x,y,z
y,-x,-z
-x,-y,z
-y,x,-z
x,-y,-z
-x,y,-z
-y,-x,z
y,x,z
loop_
_atom_site_type_symbol
_atom_site_label
_atom_site_fract_x
_atom_site_fract_y
_atom_site_fract_z
Si Si1 0.412103 0.088846 0.533201
Si Si2 0.288516 0.167318 0.287277
Si Si3 0.809199 0.925837 0.595421
Si Si4 0.678105 0.922603 0.901995
O O1 0.500000 0.095094 0.500000
O O2 0.366929 0.145910 0.392794
O O3 0.385808 0.105703 0.754895
O O4 0.391801 0.000000 0.500000
O O5 0.249565 0.249565 0.290627
O O6 0.233061 0.116545 0.418251
O O7 0.297084 0.135984 0.067268
O O8 0.872319 0.872319 0.677247
O O9 0.748300 0.941058 0.762108
O O10 0.841000 0.000000 0.500000
O O11 0.653088 0.000000 0.000000
#
# Coordination Sequence:
#
# PCOD9554683 Si02
#       4
#     8   8   8   8
#     4  10  20  33  48  73 102 126 157 197 245 295
#     4  10  19  32  49  68  91 125 162 195 234 286
#     4  10  19  30  44  61  85 117 159 207 247 282
#     4  11  17  31  49  66  89 121 160 197 238 287
#
# _framework density 14.654669999999999
#
# number of rings (size 3 to 8) (size 9 to 14) (size 15 to 20)
#    0.000    1.750    5.000    2.250    0.000    2.250 
#    0.000    0.000    0.000    0.000    0.000    0.000 
#    0.000    0.500    0.000    0.500    0.000    0.000 
#
# Total GULP energy -178138.568796 kJ/mol
# GULP energy per Si atom -5566.830275 kJ/mol
# Density = 1.462132 g / cm^3
# Si number density = 14.654670 Si / 1000 Ang^3
#
#
#
# Elastic Constant Matrix: (Units=GPa)
#
#
# Indices 1 2 3 4 5 6 
#
# 1 62.7107 29.9685 21.0213 0.0000 0.0000 0.0000
# 2 29.9685 62.7107 21.0213 0.0000 0.0000 0.0000
# 3 21.0213 21.0213 88.1675 0.0000 0.0000 0.0000
# 4 0.0000 0.0000 0.0000 5.1650 0.0000 0.0000
# 5 0.0000 0.0000 0.0000 0.0000 5.1650 0.0000
# 6 0.0000 0.0000 0.0000 0.0000 0.0000 15.8922
#
#
#
# Elastic Compliance Matrix: (Units=1/GPa)
#
#
# Indices 1 2 3 4 5 6 
#
# 1 0.021320 -0.009222 -0.002885 0.000000 0.000000 0.000000
# 2 -0.009222 0.021320 -0.002885 0.000000 0.000000 0.000000
# 3 -0.002885 -0.002885 0.012718 0.000000 0.000000 0.000000
# 4 0.000000 0.000000 0.000000 0.193612 0.000000 0.000000
# 5 0.000000 0.000000 0.000000 0.000000 0.193612 0.000000
# 6 0.000000 0.000000 0.000000 0.000000 0.000000 0.062924
#
#
# Mechanical properties :
#
#
# Convention : Reuss Voigt Hill
#
# Bulk Modulus (GPa) = 39.40702 39.73455 39.57079
# Shear Modulus (GPa) = 9.19210 14.68295 11.93752
#
# Velocity S-wave (km/s) = 2.50721 3.16876 2.85720
# Velocity P-wave (km/s) = 5.94393 6.36874 6.16000
#
# Compressibility (1/GPa) = 0.02537619
#
# Stress axis : x y z
#
# Youngs Moduli (GPa) = 46.90421 46.90421 78.63144
#
# Poissons Ratio (x) = 0.43253 0.22682
# Poissons Ratio (y) = 0.43253 0.22682
# Poissons Ratio (z) = 0.13530 0.13530
#
# Static dielectric constant tensor:
#      x y z
#    x 1.497650 0.000000 0.000000 
#    y 0.000000 1.497650 0.000000 
#    z 0.000000 0.000000 1.516110 
# 
# From -- ./inp_files/385.got.cif
#   From: 2010.05.17/outbox.cif.g08.bks.cpg/sg111_1_cif.got.tgz:385.got - 2010.05.20 10:56:05.
