data_PCOD9554947
_publ_section_title
;
Structure prediction by ZEFSAII (Michael W. Deem and Ramdas Pophale) SiO2 
 PCOD9554947
Probable space group: P -4 2 C
;
_chemical_formula_sum "Si O2"
_cell_formula_units_Z 40
_cell_length_a 20.366136
_cell_length_b 20.366136
_cell_length_c 5.214577
_cell_angle_alpha 90.000000
_cell_angle_beta 90.000000
_cell_angle_gamma 90.000000
_cell_volume 2162.899618
_symmetry_space_group_name_H-M "P -4 2 C"
_symmetry_group_IT_number 112
_symmetry_cell_setting 'tetragonal'
loop_
_space_group_symop_operation_xyz
x,y,z
y,-x,-z
-x,-y,z
-y,x,-z
x,-y,1/2-z
-x,y,1/2-z
-y,-x,1/2+z
y,x,1/2+z
loop_
_atom_site_type_symbol
_atom_site_label
_atom_site_fract_x
_atom_site_fract_y
_atom_site_fract_z
Si Si1 0.289770 0.320615 0.904094
Si Si2 0.700065 0.959219 0.984421
Si Si3 0.823910 0.776822 0.464382
Si Si4 0.575628 0.816997 0.225301
Si Si5 0.102868 0.574941 0.269140
O O1 0.341610 0.316576 0.677473
O O2 0.264106 0.244998 0.946389
O O3 0.233988 0.369994 0.813016
O O4 0.734145 0.888132 0.021599
O O5 0.628667 0.942402 0.865982
O O6 0.733083 0.000000 0.750000
O O7 0.698308 0.000000 0.250000
O O8 0.811317 0.828175 0.690423
O O9 0.500000 0.795431 0.250000
O O10 0.585603 0.876681 0.433831
O O11 0.580981 0.835379 0.925820
O O12 0.078858 0.500000 0.250000
#
# Coordination Sequence:
#
# PCOD9554947 Si02
#       5
#     8   8   8   8   8
#     4  10  18  29  50  76 103 136 178 221 276 333
#     4  12  24  37  54  80 115 147 186 237 280 325
#     4  10  19  34  56  77 103 139 179 222 280 338
#     4  10  19  33  54  80 109 141 187 238 276 319
#     4  10  20  35  52  71 103 152 195 224 261 314
#
# _framework density 18.493693
#
# number of rings (size 3 to 8) (size 9 to 14) (size 15 to 20)
#    0.000    1.600    0.000    8.400    0.000    0.400 
#    0.000    1.000    0.000    0.000    0.000    0.000 
#    0.000   30.400    0.000    0.000    0.000    0.000 
#
# Total GULP energy -222720.179728 kJ/mol
# GULP energy per Si atom -5568.004493 kJ/mol
# Density = 1.845160 g / cm^3
# Si number density = 18.493693 Si / 1000 Ang^3
#
#
#
# Elastic Constant Matrix: (Units=GPa)
#
#
# Indices 1 2 3 4 5 6 
#
# 1 74.0133 47.0141 25.2043 0.0000 0.0000 0.0000
# 2 47.0141 74.0133 25.2043 0.0000 0.0000 0.0000
# 3 25.2043 25.2043 121.4880 0.0000 0.0000 0.0000
# 4 0.0000 0.0000 0.0000 22.6610 0.0000 0.0000
# 5 0.0000 0.0000 0.0000 0.0000 22.6610 0.0000
# 6 0.0000 0.0000 0.0000 0.0000 0.0000 15.6580
#
#
#
# Elastic Compliance Matrix: (Units=1/GPa)
#
#
# Indices 1 2 3 4 5 6 
#
# 1 0.023041 -0.013997 -0.001876 0.000000 0.000000 0.000000
# 2 -0.013997 0.023041 -0.001876 0.000000 0.000000 0.000000
# 3 -0.001876 -0.001876 0.009010 0.000000 0.000000 0.000000
# 4 0.000000 0.000000 0.000000 0.044129 0.000000 0.000000
# 5 0.000000 0.000000 0.000000 0.000000 0.044129 0.000000
# 6 0.000000 0.000000 0.000000 0.000000 0.000000 0.063865
#
#
# Mechanical properties :
#
#
# Convention : Reuss Voigt Hill
#
# Bulk Modulus (GPa) = 51.03940 51.59557 51.31748
# Shear Modulus (GPa) = 20.06061 23.66878 21.86469
#
# Velocity S-wave (km/s) = 3.29709 3.58135 3.44216
# Velocity P-wave (km/s) = 6.49250 6.71275 6.60355
#
# Compressibility (1/GPa) = 0.01959271
#
# Stress axis : x y z
#
# Youngs Moduli (GPa) = 43.40075 43.40075 110.99020
#
# Poissons Ratio (x) = 0.60748 0.20825
# Poissons Ratio (y) = 0.60748 0.20825
# Poissons Ratio (z) = 0.08143 0.08143
#
# Static dielectric constant tensor:
#      x y z
#    x 1.699810 0.000000 0.000000 
#    y 0.000000 1.699810 0.000000 
#    z 0.000000 0.000000 1.770620 
# 
# From -- ./inp_files/256.got.cif
#   From: 2010.05.17/outbox.cif.g08.bks.cpg/sg112_1_cif.got.tgz:256.got - 2010.05.20 10:59:04.
