data_PCOD9554884
_publ_section_title
;
Structure prediction by ZEFSAII (Michael W. Deem and Ramdas Pophale) SiO2 
 PCOD9554884
Probable space group: P -4 2 M 
;
_chemical_formula_sum "Si O2"
_cell_formula_units_Z 34
_cell_length_a 12.570887
_cell_length_b 12.570887
_cell_length_c 12.120759
_cell_angle_alpha 90.000000
_cell_angle_beta 90.000000
_cell_angle_gamma 90.000000
_cell_volume 1915.409606
_symmetry_space_group_name_H-M "P -4 2 M "
_symmetry_group_IT_number 111
_symmetry_cell_setting 'tetragonal'
loop_
_space_group_symop_operation_xyz
x,y,z
y,-x,-z
-x,-y,z
-y,x,-z
x,-y,-z
-x,y,-z
-y,-x,z
y,x,z
loop_
_atom_site_type_symbol
_atom_site_label
_atom_site_fract_x
_atom_site_fract_y
_atom_site_fract_z
Si Si1 0.329220 0.670781 0.009024
Si Si2 0.503736 0.322391 0.626470
Si Si3 0.655503 0.030093 0.872402
Si Si4 0.173888 0.545067 0.172017
Si Si5 0.500000 0.500000 0.000000
Si Si6 0.000000 0.000000 0.000000
Si Si7 0.164727 0.164727 0.117905
O O1 0.256327 0.597611 0.087659
O O2 0.413076 0.586925 0.949112
O O3 0.246866 0.753135 0.948138
O O4 0.500000 0.283969 0.500000
O O5 0.612815 0.387186 0.644153
O O6 0.409578 0.409578 0.637982
O O7 0.487214 0.233543 0.717448
O O8 0.556918 0.111424 0.875274
O O9 0.754118 0.089606 0.819409
O O10 0.626999 0.922323 0.810757
O O11 0.679905 0.000000 0.000000
O O12 0.916774 0.083226 0.942531
#
# Coordination Sequence:
#
# PCOD9554884 Si02
#       7
#     4   8   8   8   1   1   4
#     4  12  22  34  50  76 112 153 185 222 263 335
#     4   9  19  36  57  83 112 140 177 226 276 338
#     4  11  23  37  51  76 114 150 180 233 275 316
#     4  11  21  34  55  78 109 144 184 221 276 333
#     4  12  28  28  44  84 118 160 188 204 256 368
#     4  12  20  36  60  72  80 144 222 236 260 320
#     4  12  22  38  54  73 107 151 193 238 276 301
#
# _framework density 17.750772999999999
#
# number of rings (size 3 to 8) (size 9 to 14) (size 15 to 20)
#    0.000    1.176    4.706    3.529    3.294    0.000 
#    0.000    2.353    0.000    0.000    0.000    0.000 
#    0.000    0.000    0.000    0.000    0.000    0.000 
#
# Total GULP energy -189431.646590 kJ/mol
# GULP energy per Si atom -5571.519017 kJ/mol
# Density = 1.771037 g / cm^3
# Si number density = 17.750773 Si / 1000 Ang^3
#
#
#
# Elastic Constant Matrix: (Units=GPa)
#
#
# Indices 1 2 3 4 5 6 
#
# 1 101.1037 51.9329 27.8982 0.0000 0.0000 0.0000
# 2 51.9329 101.1039 27.8985 0.0000 0.0000 0.0000
# 3 27.8982 27.8985 60.5855 0.0000 0.0000 0.0000
# 4 0.0000 0.0000 0.0000 12.9167 0.0000 0.0000
# 5 0.0000 0.0000 0.0000 0.0000 12.9172 0.0000
# 6 0.0000 0.0000 0.0000 0.0000 0.0000 50.2072
#
#
#
# Elastic Compliance Matrix: (Units=1/GPa)
#
#
# Indices 1 2 3 4 5 6 
#
# 1 0.014095 -0.006242 -0.003616 0.000000 0.000000 0.000000
# 2 -0.006242 0.014095 -0.003616 0.000000 0.000000 0.000000
# 3 -0.003616 -0.003616 0.019836 0.000000 0.000000 0.000000
# 4 0.000000 0.000000 0.000000 0.077419 0.000000 0.000000
# 5 0.000000 0.000000 0.000000 0.000000 0.077416 0.000000
# 6 0.000000 0.000000 0.000000 0.000000 0.000000 0.019917
#
#
# Mechanical properties :
#
#
# Convention : Reuss Voigt Hill
#
# Bulk Modulus (GPa) = 47.44460 53.13916 50.29188
# Shear Modulus (GPa) = 19.47401 25.54581 22.50991
#
# Velocity S-wave (km/s) = 3.31581 3.79771 3.56491
# Velocity P-wave (km/s) = 6.43783 7.01651 6.73339
#
# Compressibility (1/GPa) = 0.02107721
#
# Stress axis : x y z
#
# Youngs Moduli (GPa) = 70.94715 70.94709 50.41386
#
# Poissons Ratio (x) = 0.44287 0.18230
# Poissons Ratio (y) = 0.44287 0.18230
# Poissons Ratio (z) = 0.25654 0.25655
#
# Static dielectric constant tensor:
#      x y z
#    x 1.661970 0.000000 0.000000 
#    y 0.000000 1.661970 0.000000 
#    z 0.000000 0.000000 1.578280 
# 
# From -- ./inp_files/2385.got.cif
#   From: 2010.05.17/outbox.cif.g08.bks.cpg/sg111_2_cif.got.tgz:2385.got - 2010.05.20 10:56:05.
