data_PCOD9554294
_publ_section_title
;
Structure prediction by ZEFSAII (Michael W. Deem and Ramdas Pophale) SiO2 
 PCOD9554294
Probable space group: I 41 M D
;
_chemical_formula_sum "Si O2"
_cell_formula_units_Z 64
_cell_length_a 22.896424
_cell_length_b 22.896424
_cell_length_c 5.097965
_cell_angle_alpha 90.000000
_cell_angle_beta 90.000000
_cell_angle_gamma 90.000000
_cell_volume 2672.588942
_symmetry_space_group_name_H-M "I 41 M D"
_symmetry_group_IT_number 109
_symmetry_cell_setting 'tetragonal'
loop_
_space_group_symop_operation_xyz
x,y,z
-y,1/2+x,1/4+z
-x,-y,z
y,1/2-x,1/4+z
-x,y,z
x,-y,z
-y,1/2-x,1/4+z
y,1/2+x,1/4+z
1/2+x,1/2+y,1/2+z
1/2-y,x,3/4+z
1/2-x,1/2-y,1/2+z
1/2+y,-x,3/4+z
1/2-x,1/2+y,1/2+z
1/2+x,1/2-y,1/2+z
1/2-y,-x,3/4+z
1/2+y,x,3/4+z
loop_
_atom_site_type_symbol
_atom_site_label
_atom_site_fract_x
_atom_site_fract_y
_atom_site_fract_z
Si Si1 0.500000 0.828973 0.794200
Si Si2 0.500000 0.597473 0.904535
Si Si3 0.288935 0.370061 0.543315
Si Si4 0.629167 0.283555 0.327468
Si Si5 0.000000 0.405545 0.780580
Si Si6 0.500000 0.319033 0.395742
O O1 0.560256 0.794259 0.772196
O O2 0.500000 0.882033 0.579315
O O3 0.500000 0.850842 0.091616
O O4 0.500000 0.639209 0.651730
O O5 0.555951 0.555653 0.944015
O O6 0.500000 0.638629 0.150710
O O7 0.353301 0.346083 0.462200
O O8 0.257037 0.341799 0.295216
O O9 0.248268 0.357519 0.798484
O O10 0.559320 0.283135 0.357759
#
# Coordination Sequence:
#
# PCOD9554294 Si02
#       6
#     8   8  16  16   8   8
#     4  12  24  44  70 101 138 182 236 295 360 425
#     4  11  22  37  62  99 142 187 232 284 351 429
#     4  12  26  46  72 103 141 186 237 295 358 429
#     4  12  26  46  72 103 141 186 237 295 358 429
#     4  11  22  37  62  99 142 187 232 284 351 429
#     4  12  24  44  70 101 138 182 236 295 360 425
#
# _framework density 23.946819000000001
#
# number of rings (size 3 to 8) (size 9 to 14) (size 15 to 20)
#    0.000    0.250    0.000   10.500    0.000    4.000 
#    0.000    0.000    0.000    0.000    0.000    0.000 
#    0.000    0.000    0.000    0.000    0.000    0.000 
#
# Total GULP energy -178267.271474 kJ/mol
# GULP energy per Si atom -5570.852234 kJ/mol
# Density = 2.389231 g / cm^3
# Si number density = 23.946819 Si / 1000 Ang^3
#
#
#
# Elastic Constant Matrix: (Units=GPa)
#
#
# Indices 1 2 3 4 5 6 
#
# 1 68.7964 4.8650 30.8555 0.0000 0.0000 0.0000
# 2 4.8650 68.7964 30.8555 0.0000 0.0000 0.0000
# 3 30.8555 30.8555 152.9644 0.0000 0.0000 0.0000
# 4 0.0000 0.0000 0.0000 -89.7374 0.0000 0.0000
# 5 0.0000 0.0000 0.0000 0.0000 -89.7374 0.0000
# 6 0.0000 0.0000 0.0000 0.0000 0.0000 35.8208
#
#
#
# Elastic Compliance Matrix: (Units=1/GPa)
#
#
# Indices 1 2 3 4 5 6 
#
# 1 0.015989 0.000347 -0.003295 0.000000 0.000000 0.000000
# 2 0.000347 0.015989 -0.003295 0.000000 0.000000 0.000000
# 3 -0.003295 -0.003295 0.007867 0.000000 0.000000 0.000000
# 4 0.000000 0.000000 0.000000 -0.011144 0.000000 0.000000
# 5 0.000000 0.000000 0.000000 0.000000 -0.011144 0.000000
# 6 0.000000 0.000000 0.000000 0.000000 0.000000 0.027917
#
#
# Mechanical properties :
#
#
# Convention : Reuss Voigt Hill
#
# Bulk Modulus (GPa) = 36.55196 47.07882 41.81539
# Shear Modulus (GPa) = 74.53717 -13.79870 30.36923
#
# Velocity S-wave (km/s) = 5.58513 -2.40307 3.56504
# Velocity P-wave (km/s) = 7.54245 3.46450 5.86904
#
# Compressibility (1/GPa) = 0.02735831
#
# Stress axis : x y z
#
# Youngs Moduli (GPa) = 62.54279 62.54279 127.11474
#
# Poissons Ratio (x) = -0.02172 0.41888
# Poissons Ratio (y) = -0.02172 0.41888
# Poissons Ratio (z) = 0.20610 0.20610
#
# Static dielectric constant tensor:
#      x y z
#    x 3.422980 0.000000 0.000000 
#    y 0.000000 3.422980 0.000000 
#    z 0.000000 0.000000 1.874880 
# 
# From -- ./inp_files/513.got.cif
#   From: 2010.05.17/outbox.cif.g08.bks.cpg/sg109_1_cif.got.tgz:513.got - 2010.05.20 10:51:12.
