data_PCOD9554790
_publ_section_title
;
Structure prediction by ZEFSAII (Michael W. Deem and Ramdas Pophale) SiO2 
 PCOD9554790
Probable space group: P -4 2 M 
;
_chemical_formula_sum "Si O2"
_cell_formula_units_Z 40
_cell_length_a 12.768579
_cell_length_b 12.768579
_cell_length_c 14.848542
_cell_angle_alpha 90.000000
_cell_angle_beta 90.000000
_cell_angle_gamma 90.000000
_cell_volume 2420.855946
_symmetry_space_group_name_H-M "P -4 2 M "
_symmetry_group_IT_number 111
_symmetry_cell_setting 'tetragonal'
loop_
_space_group_symop_operation_xyz
x,y,z
y,-x,-z
-x,-y,z
-y,x,-z
x,-y,-z
-x,y,-z
-y,-x,z
y,x,z
loop_
_atom_site_type_symbol
_atom_site_label
_atom_site_fract_x
_atom_site_fract_y
_atom_site_fract_z
Si Si1 0.878685 0.294904 0.285244
Si Si2 0.203976 0.375958 0.101803
Si Si3 0.705099 0.121315 0.714754
Si Si4 0.796026 0.375957 0.101801
Si Si5 0.499999 0.127204 0.396675
O O1 0.803606 0.196395 0.300927
O O2 0.867015 0.329994 0.181064
O O3 0.842070 0.394683 0.344136
O O4 0.999999 0.272695 0.305671
O O5 0.313855 0.313855 0.108568
O O6 0.132989 0.329992 0.181067
O O7 0.216542 0.500000 0.114041
O O8 0.163431 0.358079 0.000001
O O9 0.803610 0.196391 0.699070
O O10 0.605320 0.157929 0.655862
O O11 0.686149 0.313852 0.108568
O O12 0.500000 0.162620 0.500000
O O13 0.500000 0.000000 0.396240
#
# Coordination Sequence:
#
# PCOD9554790 Si02
#       5
#     8   8   8   8   8
#     4  10  20  34  52  76 105 136 172 210 250 299
#     4   9  17  29  47  73 104 137 172 210 253 301
#     4  10  20  34  52  76 105 136 172 210 250 299
#     4   9  17  29  47  73 104 137 172 210 253 301
#     4   9  18  34  55  76  98 127 165 210 258 303
#
# _framework density 16.523081999999999
#
# number of rings (size 3 to 8) (size 9 to 14) (size 15 to 20)
#    0.000    2.600    2.000    0.000    0.000    2.400 
#    0.000    4.000    0.000    0.600    0.000   12.600 
#    0.000    0.000    0.000    0.000    0.000    0.000 
#
# Total GULP energy -222830.823421 kJ/mol
# GULP energy per Si atom -5570.770586 kJ/mol
# Density = 1.648547 g / cm^3
# Si number density = 16.523082 Si / 1000 Ang^3
#
#
#
# Elastic Constant Matrix: (Units=GPa)
#
#
# Indices 1 2 3 4 5 6 
#
# 1 89.4944 53.7380 41.1402 0.0000 0.0000 0.0000
# 2 53.7380 89.4971 41.1399 0.0000 0.0000 0.0000
# 3 41.1402 41.1399 92.7298 0.0000 0.0000 0.0000
# 4 0.0000 0.0000 0.0000 15.8736 0.0000 0.0000
# 5 0.0000 0.0000 0.0000 0.0000 15.8734 0.0000
# 6 0.0000 0.0000 0.0000 0.0000 0.0000 7.8773
#
#
#
# Elastic Compliance Matrix: (Units=1/GPa)
#
#
# Indices 1 2 3 4 5 6 
#
# 1 0.018668 -0.009298 -0.004157 0.000000 0.000000 0.000000
# 2 -0.009298 0.018667 -0.004157 0.000000 0.000000 0.000000
# 3 -0.004157 -0.004157 0.014472 0.000000 0.000000 0.000000
# 4 0.000000 0.000000 0.000000 0.062998 0.000000 0.000000
# 5 0.000000 0.000000 0.000000 0.000000 0.062998 0.000000
# 6 0.000000 0.000000 0.000000 0.000000 0.000000 0.126948
#
#
# Mechanical properties :
#
#
# Convention : Reuss Voigt Hill
#
# Bulk Modulus (GPa) = 60.29880 60.41751 60.35815
# Shear Modulus (GPa) = 14.47164 16.97173 15.72168
#
# Velocity S-wave (km/s) = 2.96268 3.20840 3.08798
# Velocity P-wave (km/s) = 6.94811 7.09718 7.02304
#
# Compressibility (1/GPa) = 0.01658408
#
# Stress axis : x y z
#
# Youngs Moduli (GPa) = 53.56738 53.56961 69.09698
#
# Poissons Ratio (x) = 0.49810 0.28724
# Poissons Ratio (y) = 0.49808 0.28721
# Poissons Ratio (z) = 0.22268 0.22267
#
# Static dielectric constant tensor:
#      x y z
#    x 1.534910 0.000000 0.000000 
#    y 0.000000 1.534910 0.000000 
#    z 0.000000 0.000000 1.578470 
# 
# From -- ./inp_files/3166.got.cif
#   From: 2010.05.17/outbox.cif.g08.bks.cpg/sg111_2_cif.got.tgz:3166.got - 2010.05.20 10:56:05.
