data_PCOD9554289
_publ_section_title
;
Structure prediction by ZEFSAII (Michael W. Deem and Ramdas Pophale) SiO2 
 PCOD9554289
Probable space group: I 41 M D
;
_chemical_formula_sum "Si O2"
_cell_formula_units_Z 96
_cell_length_a 23.150498
_cell_length_b 23.150498
_cell_length_c 10.461840
_cell_angle_alpha 90.000000
_cell_angle_beta 90.000000
_cell_angle_gamma 90.000000
_cell_volume 5606.976673
_symmetry_space_group_name_H-M "I 41 M D"
_symmetry_group_IT_number 109
_symmetry_cell_setting 'tetragonal'
loop_
_space_group_symop_operation_xyz
x,y,z
-y,1/2+x,1/4+z
-x,-y,z
y,1/2-x,1/4+z
-x,y,z
x,-y,z
-y,1/2-x,1/4+z
y,1/2+x,1/4+z
1/2+x,1/2+y,1/2+z
1/2-y,x,3/4+z
1/2-x,1/2-y,1/2+z
1/2+y,-x,3/4+z
1/2-x,1/2+y,1/2+z
1/2+x,1/2-y,1/2+z
1/2-y,-x,3/4+z
1/2+y,x,3/4+z
loop_
_atom_site_type_symbol
_atom_site_label
_atom_site_fract_x
_atom_site_fract_y
_atom_site_fract_z
Si Si1 0.323538 0.500000 0.284360
Si Si2 0.823538 0.500000 0.570182
Si Si3 0.173528 0.375151 0.670290
Si Si4 0.873825 0.687488 0.421034
Si Si5 0.500000 0.316540 0.525445
Si Si6 0.124849 0.326472 0.934251
Si Si7 0.000000 0.316540 0.329097
Si Si8 0.373825 0.312512 0.433508
O O1 0.253430 0.500000 0.284115
O O2 0.342205 0.441588 0.214787
O O3 0.340060 0.500000 0.434069
O O4 0.842205 0.558412 0.639755
O O5 0.840060 0.500000 0.420473
O O6 0.753430 0.500000 0.570427
O O7 0.243132 0.371219 0.673324
O O8 0.150673 0.337614 0.552037
O O9 0.147202 0.352798 0.802270
O O10 0.940295 0.668418 0.398527
O O11 0.837006 0.662994 0.302270
O O12 0.440295 0.331582 0.456015
O O13 0.128782 0.256868 0.931218
O O14 0.162386 0.349327 0.052504
#
# Coordination Sequence:
#
# PCOD9554289 Si02
#       8
#     8   8  16  16   8  16   8  16
#     4   9  18  37  57  76 109 153 192 224 268 331
#     4   9  18  37  57  76 109 153 192 224 268 331
#     4  11  23  36  56  86 117 149 182 229 287 338
#     4  11  21  36  59  84 114 150 187 230 279 333
#     4   9  18  35  59  80 103 149 202 226 256 330
#     4  11  23  36  56  86 117 149 182 229 287 338
#     4   9  18  35  59  80 103 149 202 226 256 330
#     4  11  21  36  59  84 114 150 187 230 279 333
#
# _framework density 17.121525999999999
#
# number of rings (size 3 to 8) (size 9 to 14) (size 15 to 20)
#    0.000    1.667    3.333    2.000    0.000    5.333 
#    0.000    5.000    0.000    6.000    0.000    0.000 
#    0.000    0.000    0.000    0.000    0.000    0.000 
#
# Total GULP energy -267921.925638 kJ/mol
# GULP energy per Si atom -5581.706784 kJ/mol
# Density = 1.708256 g / cm^3
# Si number density = 17.121526 Si / 1000 Ang^3
#
#
#
# Elastic Constant Matrix: (Units=GPa)
#
#
# Indices 1 2 3 4 5 6 
#
# 1 123.1482 51.1181 80.0520 0.0000 0.0000 0.0000
# 2 51.1181 123.1482 80.0520 0.0000 0.0000 0.0000
# 3 80.0520 80.0520 183.9728 0.0000 0.0000 0.0000
# 4 0.0000 0.0000 0.0000 -19.5419 0.0000 0.0000
# 5 0.0000 0.0000 0.0000 0.0000 -19.5419 0.0000
# 6 0.0000 0.0000 0.0000 0.0000 0.0000 -14.8966
#
#
#
# Elastic Compliance Matrix: (Units=1/GPa)
#
#
# Indices 1 2 3 4 5 6 
#
# 1 0.011722 -0.002161 -0.004160 0.000000 0.000000 0.000000
# 2 -0.002161 0.011722 -0.004160 0.000000 0.000000 0.000000
# 3 -0.004160 -0.004160 0.009056 0.000000 0.000000 0.000000
# 4 0.000000 0.000000 0.000000 -0.051172 0.000000 0.000000
# 5 0.000000 0.000000 0.000000 0.000000 -0.051172 0.000000
# 6 0.000000 0.000000 0.000000 0.000000 0.000000 -0.067129
#
#
# Mechanical properties :
#
#
# Convention : Reuss Voigt Hill
#
# Bulk Modulus (GPa) = 86.68144 94.74594 90.71369
# Shear Modulus (GPa) = -44.57671 3.80705 -20.38483
#
# Velocity S-wave (km/s) = -5.10803 1.49277 -3.45425
# Velocity P-wave (km/s) = 3.99346 7.64386 6.09821
#
# Compressibility (1/GPa) = 0.01153650
#
# Stress axis : x y z
#
# Youngs Moduli (GPa) = 85.31228 85.31228 110.42653
#
# Poissons Ratio (x) = 0.18440 0.45937
# Poissons Ratio (y) = 0.18440 0.45937
# Poissons Ratio (z) = 0.35489 0.35489
#
# Static dielectric constant tensor:
#      x y z
#    x 1.578090 0.000000 0.000000 
#    y 0.000000 1.578090 0.000000 
#    z 0.000000 0.000000 1.548630 
# 
# From -- ./inp_files/1484.got.cif
#   From: 2010.05.17/outbox.cif.g08.bks.cpg/sg109_1_cif.got.tgz:1484.got - 2010.05.20 10:51:12.
