data_PCOD9554123
_publ_section_title
;
Structure prediction by ZEFSAII (Michael W. Deem and Ramdas Pophale) SiO2 
 PCOD9554123
Probable space group: I 41 M D
;
_chemical_formula_sum "Si O2"
_cell_formula_units_Z 112
_cell_length_a 25.081969
_cell_length_b 25.081969
_cell_length_c 10.327273
_cell_angle_alpha 90.000000
_cell_angle_beta 90.000000
_cell_angle_gamma 90.000000
_cell_volume 6496.940825
_symmetry_space_group_name_H-M "I 41 M D"
_symmetry_group_IT_number 109
_symmetry_cell_setting 'tetragonal'
loop_
_space_group_symop_operation_xyz
x,y,z
-y,1/2+x,1/4+z
-x,-y,z
y,1/2-x,1/4+z
-x,y,z
x,-y,z
-y,1/2-x,1/4+z
y,1/2+x,1/4+z
1/2+x,1/2+y,1/2+z
1/2-y,x,3/4+z
1/2-x,1/2-y,1/2+z
1/2+y,-x,3/4+z
1/2-x,1/2+y,1/2+z
1/2+x,1/2-y,1/2+z
1/2-y,-x,3/4+z
1/2+y,x,3/4+z
loop_
_atom_site_type_symbol
_atom_site_label
_atom_site_fract_x
_atom_site_fract_y
_atom_site_fract_z
Si Si1 0.262838 0.291807 0.182850
Si Si2 0.938043 0.790436 0.227693
Si Si3 0.333955 0.938206 0.263384
Si Si4 0.124133 0.171634 0.984436
Si Si5 0.166615 0.060730 0.897690
Si Si6 0.236488 0.561520 0.016658
Si Si7 0.112650 0.337156 0.873549
O O1 0.272218 0.246306 0.287563
O O2 0.209309 0.323692 0.223403
O O3 0.312586 0.332546 0.182876
O O4 0.925769 0.807609 0.374546
O O5 0.933100 0.727480 0.197176
O O6 0.000000 0.804164 0.204292
O O7 0.901408 0.819539 0.123997
O O8 0.289716 0.935427 0.376126
O O9 0.376571 0.893597 0.306650
O O10 0.353440 0.000000 0.260640
O O11 0.134764 0.109769 0.959453
O O12 0.085759 0.196516 0.873883
O O13 0.162758 0.071859 0.743657
O O14 0.149685 0.000000 0.926263
O O15 0.245989 0.500000 0.049260
O O16 0.291731 0.593009 0.025585
#
# Coordination Sequence:
#
# PCOD9554123 Si02
#       7
#    16  16  16  16  16  16  16
#     4  11  21  33  50  81 120 155 185 230 296 359
#     4  10  21  37  59  82 114 158 195 234 295 358
#     4  10  22  38  56  86 119 153 195 242 294 357
#     4  11  19  36  56  83 116 151 194 241 296 345
#     4  11  21  36  60  88 118 153 206 251 287 352
#     4  10  19  34  60  85 113 151 194 239 287 354
#     4  11  19  36  57  84 116 154 199 243 293 347
#
# _framework density 17.238883000000001
#
# number of rings (size 3 to 8) (size 9 to 14) (size 15 to 20)
#    0.000    1.429    5.714    1.714    0.000    3.429 
#    0.000    0.000    0.000    6.000    0.000    4.000 
#    0.000    0.000    0.000    0.000    0.000    0.000 
#
# Total GULP energy -312455.966591 kJ/mol
# GULP energy per Si atom -5579.570832 kJ/mol
# Density = 1.719965 g / cm^3
# Si number density = 17.238883 Si / 1000 Ang^3
#
#
#
# Elastic Constant Matrix: (Units=GPa)
#
#
# Indices 1 2 3 4 5 6 
#
# 1 85.7397 40.3687 38.2339 0.0000 0.0000 0.0000
# 2 40.3687 85.7397 38.2339 0.0000 0.0000 0.0000
# 3 38.2339 38.2339 85.4340 0.0000 0.0000 0.0000
# 4 0.0000 0.0000 0.0000 24.7178 0.0000 0.0000
# 5 0.0000 0.0000 0.0000 0.0000 24.7178 0.0000
# 6 0.0000 0.0000 0.0000 0.0000 0.0000 16.5233
#
#
#
# Elastic Compliance Matrix: (Units=1/GPa)
#
#
# Indices 1 2 3 4 5 6 
#
# 1 0.016462 -0.005579 -0.004870 0.000000 0.000000 0.000000
# 2 -0.005579 0.016462 -0.004870 0.000000 0.000000 0.000000
# 3 -0.004870 -0.004870 0.016064 0.000000 0.000000 0.000000
# 4 0.000000 0.000000 0.000000 0.040457 0.000000 0.000000
# 5 0.000000 0.000000 0.000000 0.000000 0.040457 0.000000
# 6 0.000000 0.000000 0.000000 0.000000 0.000000 0.060520
#
#
# Mechanical properties :
#
#
# Convention : Reuss Voigt Hill
#
# Bulk Modulus (GPa) = 54.50041 54.50960 54.50501
# Shear Modulus (GPa) = 22.00930 22.53025 22.26977
#
# Velocity S-wave (km/s) = 3.57700 3.61909 3.59811
# Velocity P-wave (km/s) = 6.98165 7.01089 6.99628
#
# Compressibility (1/GPa) = 0.01834849
#
# Stress axis : x y z
#
# Youngs Moduli (GPa) = 60.74708 60.74708 62.25024
#
# Poissons Ratio (x) = 0.33889 0.30318
# Poissons Ratio (y) = 0.33889 0.30318
# Poissons Ratio (z) = 0.29586 0.29586
#
# Static dielectric constant tensor:
#      x y z
#    x 1.589510 0.000000 0.000000 
#    y 0.000000 1.589510 0.000000 
#    z 0.000000 0.000000 1.592260 
# 
# From -- ./inp_files/2142.got.cif
#   From: 2010.05.17/outbox.cif.g08.bks.cpg/sg109_2_cif.got.tgz:2142.got - 2010.05.20 10:51:12.
