data_PCOD9554056
_publ_section_title
;
Structure prediction by ZEFSAII (Michael W. Deem and Ramdas Pophale) SiO2 
 PCOD9554056
Probable space group: I 41 M D
;
_chemical_formula_sum "Si O2"
_cell_formula_units_Z 96
_cell_length_a 27.448657
_cell_length_b 27.448657
_cell_length_c 7.737996
_cell_angle_alpha 90.000000
_cell_angle_beta 90.000000
_cell_angle_gamma 90.000000
_cell_volume 5830.028817
_symmetry_space_group_name_H-M "I 41 M D"
_symmetry_group_IT_number 109
_symmetry_cell_setting 'tetragonal'
loop_
_space_group_symop_operation_xyz
x,y,z
-y,1/2+x,1/4+z
-x,-y,z
y,1/2-x,1/4+z
-x,y,z
x,-y,z
-y,1/2-x,1/4+z
y,1/2+x,1/4+z
1/2+x,1/2+y,1/2+z
1/2-y,x,3/4+z
1/2-x,1/2-y,1/2+z
1/2+y,-x,3/4+z
1/2-x,1/2+y,1/2+z
1/2+x,1/2-y,1/2+z
1/2-y,-x,3/4+z
1/2+y,x,3/4+z
loop_
_atom_site_type_symbol
_atom_site_label
_atom_site_fract_x
_atom_site_fract_y
_atom_site_fract_z
Si Si1 0.757918 0.891837 0.242810
Si Si2 0.441806 0.285918 0.336791
Si Si3 0.329011 0.818739 0.224156
Si Si4 0.557956 0.790247 0.645119
Si Si5 0.636886 0.864711 0.568665
Si Si6 0.777390 0.702253 0.193427
O O1 0.737116 0.921368 0.408409
O O2 0.718055 0.851429 0.192086
O O3 0.804678 0.862573 0.314039
O O4 0.769265 0.925128 0.079385
O O5 0.500000 0.288649 0.334470
O O6 0.427462 0.248703 0.493511
O O7 0.417916 0.340010 0.349790
O O8 0.358095 0.849680 0.367910
O O9 0.314078 0.767295 0.316855
O O10 0.500000 0.795720 0.636920
O O11 0.585447 0.842076 0.623203
O O12 0.677664 0.832421 0.666282
O O13 0.754826 0.705892 0.379595
#
# Coordination Sequence:
#
# PCOD9554056 Si02
#       6
#    16  16  16  16  16  16
#     4  11  21  34  50  78 111 148 179 217 253 323
#     4  10  20  38  56  76 108 140 175 227 270 319
#     4  10  18  31  47  75 109 142 173 205 255 311
#     4  11  24  36  54  78 106 146 187 222 271 320
#     4  10  19  34  51  72 104 136 179 215 269 316
#     4  10  17  25  40  68 101 132 166 191 242 305
#
# _framework density 16.466470999999999
#
# number of rings (size 3 to 8) (size 9 to 14) (size 15 to 20)
#    0.000    1.667    6.667    1.500    4.667    0.000 
#    0.000    0.000    0.000    0.500    0.000    0.000 
#    0.000    0.000    0.000    0.000    0.000    0.000 
#
# Total GULP energy -267796.568126 kJ/mol
# GULP energy per Si atom -5579.095169 kJ/mol
# Density = 1.642899 g / cm^3
# Si number density = 16.466471 Si / 1000 Ang^3
#
#
#
# Elastic Constant Matrix: (Units=GPa)
#
#
# Indices 1 2 3 4 5 6 
#
# 1 83.4183 35.7391 33.6373 0.0000 0.0000 0.0000
# 2 35.7391 83.4183 33.6373 0.0000 0.0000 0.0000
# 3 33.6373 33.6373 95.8287 0.0000 0.0000 0.0000
# 4 0.0000 0.0000 0.0000 23.5192 0.0000 0.0000
# 5 0.0000 0.0000 0.0000 0.0000 23.5192 0.0000
# 6 0.0000 0.0000 0.0000 0.0000 0.0000 17.0090
#
#
#
# Elastic Compliance Matrix: (Units=1/GPa)
#
#
# Indices 1 2 3 4 5 6 
#
# 1 0.015720 -0.005254 -0.003674 0.000000 0.000000 0.000000
# 2 -0.005254 0.015720 -0.003674 0.000000 0.000000 0.000000
# 3 -0.003674 -0.003674 0.013014 0.000000 0.000000 0.000000
# 4 0.000000 0.000000 0.000000 0.042518 0.000000 0.000000
# 5 0.000000 0.000000 0.000000 0.000000 0.042518 0.000000
# 6 0.000000 0.000000 0.000000 0.000000 0.000000 0.058793
#
#
# Mechanical properties :
#
#
# Convention : Reuss Voigt Hill
#
# Bulk Modulus (GPa) = 51.94299 52.07697 52.00998
# Shear Modulus (GPa) = 22.73723 23.45293 23.09508
#
# Velocity S-wave (km/s) = 3.71997 3.77806 3.74913
# Velocity P-wave (km/s) = 7.07560 7.12225 7.09896
#
# Compressibility (1/GPa) = 0.01925187
#
# Stress axis : x y z
#
# Youngs Moduli (GPa) = 63.61321 63.61321 76.83758
#
# Poissons Ratio (x) = 0.33419 0.28229
# Poissons Ratio (y) = 0.33419 0.28229
# Poissons Ratio (z) = 0.23371 0.23371
#
# Static dielectric constant tensor:
#      x y z
#    x 1.571730 0.000000 0.000000 
#    y 0.000000 1.571730 0.000000 
#    z 0.000000 0.000000 1.613130 
# 
# From -- ./inp_files/1506.got.cif
#   From: 2010.05.17/outbox.cif.g08.bks.cpg/sg109_1_cif.got.tgz:1506.got - 2010.05.20 10:51:12.
