data_PCOD9554308
_publ_section_title
;
Structure prediction by ZEFSAII (Michael W. Deem and Ramdas Pophale) SiO2 
 PCOD9554308
Probable space group: I 41 M D
;
_chemical_formula_sum "Si O2"
_cell_formula_units_Z 48
_cell_length_a 8.052399
_cell_length_b 8.052399
_cell_length_c 37.174634
_cell_angle_alpha 90.000000
_cell_angle_beta 90.000000
_cell_angle_gamma 90.000000
_cell_volume 2410.445263
_symmetry_space_group_name_H-M "I 41 M D"
_symmetry_group_IT_number 109
_symmetry_cell_setting 'tetragonal'
loop_
_space_group_symop_operation_xyz
x,y,z
-y,1/2+x,1/4+z
-x,-y,z
y,1/2-x,1/4+z
-x,y,z
x,-y,z
-y,1/2-x,1/4+z
y,1/2+x,1/4+z
1/2+x,1/2+y,1/2+z
1/2-y,x,3/4+z
1/2-x,1/2-y,1/2+z
1/2+y,-x,3/4+z
1/2-x,1/2+y,1/2+z
1/2+x,1/2-y,1/2+z
1/2-y,-x,3/4+z
1/2+y,x,3/4+z
loop_
_atom_site_type_symbol
_atom_site_label
_atom_site_fract_x
_atom_site_fract_y
_atom_site_fract_z
Si Si1 0.699078 0.814550 0.430510
Si Si2 0.314447 0.195977 0.006986
Si Si3 0.000000 0.307282 0.051739
Si Si4 0.000000 0.196299 0.132913
O O1 0.500000 0.803455 0.434568
O O2 0.777933 0.789660 0.469798
O O3 0.756243 0.664659 0.405191
O O4 0.740088 0.000000 0.416878
O O5 0.500000 0.238588 0.020332
O O6 0.166472 0.231024 0.034609
O O7 0.311810 0.000000 0.998586
O O8 0.000000 0.284121 0.094395
O O9 0.000000 0.500000 0.041989
O O10 0.000000 0.000000 0.126896
#
# Coordination Sequence:
#
# PCOD9554308 Si02
#       4
#    16  16   8   8
#     4  11  23  41  67  98 131 173 224 279 337 402
#     4  11  23  41  67  98 131 173 224 279 337 402
#     4  12  26  44  66  96 134 178 224 281 349 406
#     4  12  26  44  66  96 134 178 224 281 349 406
#
# _framework density 19.913330999999999
#
# number of rings (size 3 to 8) (size 9 to 14) (size 15 to 20)
#    0.000    0.667    3.333    5.000    0.000    6.000 
#    0.000    0.000    0.000    0.000    0.000    0.000 
#    0.000    0.000    0.000    0.000    0.000    0.000 
#
# Total GULP energy -134254.138551 kJ/mol
# GULP energy per Si atom -5593.922440 kJ/mol
# Density = 1.986801 g / cm^3
# Si number density = 19.913331 Si / 1000 Ang^3
#
#
#
# Elastic Constant Matrix: (Units=GPa)
#
#
# Indices 1 2 3 4 5 6 
#
# 1 112.9757 29.7215 13.8458 0.0000 0.0000 0.0000
# 2 29.7215 112.9757 13.8458 0.0000 0.0000 0.0000
# 3 13.8458 13.8458 79.7793 0.0000 0.0000 0.0000
# 4 0.0000 0.0000 0.0000 13.8355 0.0000 0.0000
# 5 0.0000 0.0000 0.0000 0.0000 13.8355 0.0000
# 6 0.0000 0.0000 0.0000 0.0000 0.0000 12.0516
#
#
#
# Elastic Compliance Matrix: (Units=1/GPa)
#
#
# Indices 1 2 3 4 5 6 
#
# 1 0.009632 -0.002380 -0.001259 0.000000 0.000000 0.000000
# 2 -0.002380 0.009632 -0.001259 0.000000 0.000000 0.000000
# 3 -0.001259 -0.001259 0.012971 0.000000 0.000000 0.000000
# 4 0.000000 0.000000 0.000000 0.072278 0.000000 0.000000
# 5 0.000000 0.000000 0.000000 0.000000 0.072278 0.000000
# 6 0.000000 0.000000 0.000000 0.000000 0.000000 0.082977
#
#
# Mechanical properties :
#
#
# Convention : Reuss Voigt Hill
#
# Bulk Modulus (GPa) = 44.56092 46.72854 45.64473
# Shear Modulus (GPa) = 18.04785 24.49903 21.27344
#
# Velocity S-wave (km/s) = 3.01378 3.51134 3.27203
# Velocity P-wave (km/s) = 5.87678 6.32110 6.10298
#
# Compressibility (1/GPa) = 0.02244119
#
# Stress axis : x y z
#
# Youngs Moduli (GPa) = 103.82330 103.82331 77.09245
#
# Poissons Ratio (x) = 0.24706 0.09703
# Poissons Ratio (y) = 0.24706 0.09703
# Poissons Ratio (z) = 0.13067 0.13067
#
# Static dielectric constant tensor:
#      x y z
#    x 1.728540 0.000000 0.000000 
#    y 0.000000 1.728540 0.000000 
#    z 0.000000 0.000000 1.649440 
# 
# From -- ./inp_files/5276.got.cif
#   From: 2010.05.17/outbox.cif.g08.bks.cpg/sg109_3_cif.got.tgz:5276.got - 2010.05.20 10:51:12.
