data_PCOD9554219
_publ_section_title
;
Structure prediction by ZEFSAII (Michael W. Deem and Ramdas Pophale) SiO2 
 PCOD9554219
Probable space group: I 41 M D
;
_chemical_formula_sum "Si O2"
_cell_formula_units_Z 96
_cell_length_a 13.587671
_cell_length_b 13.587671
_cell_length_c 23.629974
_cell_angle_alpha 90.000000
_cell_angle_beta 90.000000
_cell_angle_gamma 90.000000
_cell_volume 4362.679299
_symmetry_space_group_name_H-M "I 41 M D"
_symmetry_group_IT_number 109
_symmetry_cell_setting 'tetragonal'
loop_
_space_group_symop_operation_xyz
x,y,z
-y,1/2+x,1/4+z
-x,-y,z
y,1/2-x,1/4+z
-x,y,z
x,-y,z
-y,1/2-x,1/4+z
y,1/2+x,1/4+z
1/2+x,1/2+y,1/2+z
1/2-y,x,3/4+z
1/2-x,1/2-y,1/2+z
1/2+y,-x,3/4+z
1/2-x,1/2+y,1/2+z
1/2+x,1/2-y,1/2+z
1/2-y,-x,3/4+z
1/2+y,x,3/4+z
loop_
_atom_site_type_symbol
_atom_site_label
_atom_site_fract_x
_atom_site_fract_y
_atom_site_fract_z
Si Si1 0.617467 0.673144 0.904710
Si Si2 0.604639 0.616336 0.666231
Si Si3 0.792115 0.612585 0.538237
Si Si4 0.613826 0.293968 0.232078
Si Si5 0.690649 0.114891 0.717472
Si Si6 0.617788 0.609215 0.347135
O O1 0.500000 0.660121 0.916680
O O2 0.644104 0.788340 0.894563
O O3 0.644479 0.639753 0.841156
O O4 0.687164 0.633283 0.954281
O O5 0.500000 0.656423 0.644015
O O6 0.600615 0.500000 0.658483
O O7 0.611305 0.641836 0.732299
O O8 0.764913 0.500000 0.551838
O O9 0.690190 0.662003 0.517390
O O10 0.500000 0.320513 0.222801
O O11 0.694005 0.367275 0.205215
O O12 0.634588 0.308470 0.299279
O O13 0.633077 0.149398 0.660964
O O14 0.669668 0.000000 0.728862
O O15 0.500000 0.604737 0.351642
O O16 0.651159 0.500000 0.328171
#
# Coordination Sequence:
#
# PCOD9554219 Si02
#       6
#    16  16  16  16  16  16
#     4  10  22  40  62  91 128 165 210 264 317 380
#     4   9  18  35  58  82 113 153 195 245 309 375
#     4  10  21  37  60  92 128 163 202 253 316 387
#     4  11  24  41  61  88 126 173 224 270 324 386
#     4  11  23  38  63  97 129 167 216 267 328 398
#     4   9  20  41  65  89 123 164 208 266 330 389
#
# _framework density 22.004826999999999
#
# number of rings (size 3 to 8) (size 9 to 14) (size 15 to 20)
#    0.000    2.000    1.667    1.000    2.333    3.667 
#    0.000    5.833    0.000    3.000    0.000    0.000 
#    0.000    0.000    0.000    0.000    0.000    0.000 
#
# Total GULP energy -267373.068063 kJ/mol
# GULP energy per Si atom -5570.272251 kJ/mol
# Density = 2.195474 g / cm^3
# Si number density = 22.004827 Si / 1000 Ang^3
#
#
#
# Elastic Constant Matrix: (Units=GPa)
#
#
# Indices 1 2 3 4 5 6 
#
# 1 72.6536 -9.5884 22.6345 0.0000 0.0000 0.0000
# 2 -9.5884 72.6536 22.6345 0.0000 0.0000 0.0000
# 3 22.6345 22.6345 112.0161 0.0000 0.0000 0.0000
# 4 0.0000 0.0000 0.0000 24.2034 0.0000 0.0000
# 5 0.0000 0.0000 0.0000 0.0000 24.2034 0.0000
# 6 0.0000 0.0000 0.0000 0.0000 0.0000 28.4031
#
#
#
# Elastic Compliance Matrix: (Units=1/GPa)
#
#
# Indices 1 2 3 4 5 6 
#
# 1 0.015353 0.003194 -0.003748 0.000000 0.000000 0.000000
# 2 0.003194 0.015353 -0.003748 0.000000 0.000000 0.000000
# 3 -0.003748 -0.003748 0.010442 0.000000 0.000000 0.000000
# 4 0.000000 0.000000 0.000000 0.041317 0.000000 0.000000
# 5 0.000000 0.000000 0.000000 0.000000 0.041317 0.000000
# 6 0.000000 0.000000 0.000000 0.000000 0.000000 0.035207
#
#
# Mechanical properties :
#
#
# Convention : Reuss Voigt Hill
#
# Bulk Modulus (GPa) = 30.72698 36.52049 33.62373
# Shear Modulus (GPa) = 28.02070 30.13816 29.07943
#
# Velocity S-wave (km/s) = 3.57233 3.70485 3.63919
# Velocity P-wave (km/s) = 5.56861 5.91048 5.74209
#
# Compressibility (1/GPa) = 0.03254469
#
# Stress axis : x y z
#
# Youngs Moduli (GPa) = 65.13396 65.13396 95.76873
#
# Poissons Ratio (x) = -0.20802 0.35891
# Poissons Ratio (y) = -0.20802 0.35891
# Poissons Ratio (z) = 0.24410 0.24410
#
# Static dielectric constant tensor:
#      x y z
#    x 1.865460 0.000000 0.000000 
#    y 0.000000 1.865460 0.000000 
#    z 0.000000 0.000000 1.886520 
# 
# From -- ./inp_files/3795.got.cif
#   From: 2010.05.17/outbox.cif.g08.bks.cpg/sg109_2_cif.got.tgz:3795.got - 2010.05.20 10:51:12.
