data_PCOD9554078
_publ_section_title
;
Structure prediction by ZEFSAII (Michael W. Deem and Ramdas Pophale) SiO2 
 PCOD9554078
Probable space group: I 41 M D
;
_chemical_formula_sum "Si O2"
_cell_formula_units_Z 112
_cell_length_a 13.365717
_cell_length_b 13.365717
_cell_length_c 26.985943
_cell_angle_alpha 90.000000
_cell_angle_beta 90.000000
_cell_angle_gamma 90.000000
_cell_volume 4820.833379
_symmetry_space_group_name_H-M "I 41 M D"
_symmetry_group_IT_number 109
_symmetry_cell_setting 'tetragonal'
loop_
_space_group_symop_operation_xyz
x,y,z
-y,1/2+x,1/4+z
-x,-y,z
y,1/2-x,1/4+z
-x,y,z
x,-y,z
-y,1/2-x,1/4+z
y,1/2+x,1/4+z
1/2+x,1/2+y,1/2+z
1/2-y,x,3/4+z
1/2-x,1/2-y,1/2+z
1/2+y,-x,3/4+z
1/2-x,1/2+y,1/2+z
1/2+x,1/2-y,1/2+z
1/2-y,-x,3/4+z
1/2+y,x,3/4+z
loop_
_atom_site_type_symbol
_atom_site_label
_atom_site_fract_x
_atom_site_fract_y
_atom_site_fract_z
Si Si1 0.728038 0.383789 0.876010
Si Si2 0.826220 0.175403 0.984253
Si Si3 0.882239 0.107796 0.091726
Si Si4 0.813451 0.676009 0.126639
Si Si5 0.182179 0.388905 0.020511
Si Si6 0.881816 0.114985 0.270062
Si Si7 0.618516 0.110051 0.224641
O O1 0.756052 0.500000 0.882752
O O2 0.819934 0.307362 0.878355
O O3 0.670155 0.376597 0.823840
O O4 0.654958 0.353084 0.921280
O O5 0.865497 0.118090 0.032457
O O6 0.858273 0.290987 0.992985
O O7 0.704844 0.162446 0.987194
O O8 0.857385 0.144591 0.929340
O O9 0.839202 0.207515 0.115973
O O10 0.000000 0.108087 0.101831
O O11 0.840359 0.000000 0.108066
O O12 0.847048 0.618305 0.077876
O O13 0.159705 0.500000 0.001026
O O14 0.302212 0.371056 0.014884
O O15 0.000000 0.133302 0.275231
O O16 0.871821 0.000000 0.252297
O O17 0.500000 0.098266 0.220521
O O18 0.660469 0.000000 0.236163
#
# Coordination Sequence:
#
# PCOD9554078 Si02
#       7
#    16  16  16  16  16  16  16
#     4  10  18  31  54  87 123 158 189 223 276 346
#     4  11  22  38  60  87 116 154 201 243 294 354
#     4  10  23  43  64  87 119 156 194 244 301 356
#     4  11  23  38  59  90 115 152 199 249 298 348
#     4  10  21  38  55  78 113 151 192 241 291 338
#     4  10  20  34  55  88 128 160 186 227 287 360
#     4   9  17  29  49  79 114 152 188 220 268 342
#
# _framework density 23.232496000000001
#
# number of rings (size 3 to 8) (size 9 to 14) (size 15 to 20)
#    0.000    1.857    4.286    0.857    0.000    5.714 
#    0.000    1.429    0.000    6.857    0.000    4.000 
#    0.000    0.000    0.000    0.000    0.000    0.000 
#
# Total GULP energy -312662.171170 kJ/mol
# GULP energy per Si atom -5583.253057 kJ/mol
# Density = 2.317962 g / cm^3
# Si number density = 23.232496 Si / 1000 Ang^3
#
#
#
# Elastic Constant Matrix: (Units=GPa)
#
#
# Indices 1 2 3 4 5 6 
#
# 1 54.1629 -5.3210 -10.3647 0.0000 0.0000 0.0000
# 2 -5.3210 54.1629 -10.3647 0.0000 0.0000 0.0000
# 3 -10.3647 -10.3647 107.0527 0.0000 0.0000 0.0000
# 4 0.0000 0.0000 0.0000 4.6660 0.0000 0.0000
# 5 0.0000 0.0000 0.0000 0.0000 4.6660 0.0000
# 6 0.0000 0.0000 0.0000 0.0000 0.0000 10.0696
#
#
#
# Elastic Compliance Matrix: (Units=1/GPa)
#
#
# Indices 1 2 3 4 5 6 
#
# 1 0.019081 0.002270 0.002067 0.000000 0.000000 0.000000
# 2 0.002270 0.019081 0.002067 0.000000 0.000000 0.000000
# 3 0.002067 0.002067 0.009741 0.000000 0.000000 0.000000
# 4 0.000000 0.000000 0.000000 0.214315 0.000000 0.000000
# 5 0.000000 0.000000 0.000000 0.000000 0.214315 0.000000
# 6 0.000000 0.000000 0.000000 0.000000 0.000000 0.099309
#
#
# Mechanical properties :
#
#
# Convention : Reuss Voigt Hill
#
# Bulk Modulus (GPa) = 16.47078 18.14196 17.30637
# Shear Modulus (GPa) = 8.57235 19.97561 14.27398
#
# Velocity S-wave (km/s) = 1.92297 2.93544 2.48139
# Velocity P-wave (km/s) = 3.46920 4.39487 3.95918
#
# Compressibility (1/GPa) = 0.06071359
#
# Stress axis : x y z
#
# Youngs Moduli (GPa) = 52.40700 52.40700 102.65372
#
# Poissons Ratio (x) = -0.11897 -0.21221
# Poissons Ratio (y) = -0.11897 -0.21221
# Poissons Ratio (z) = -0.10834 -0.10834
#
# Static dielectric constant tensor:
#      x y z
#    x 1.900080 0.000000 0.000000 
#    y 0.000000 1.900080 0.000000 
#    z 0.000000 0.000000 1.867400 
# 
# From -- ./inp_files/5025.got.cif
#   From: 2010.05.17/outbox.cif.g08.bks.cpg/sg109_3_cif.got.tgz:5025.got - 2010.05.20 10:51:12.
