data_PCOD9554500
_publ_section_title
;
Structure prediction by ZEFSAII (Michael W. Deem and Ramdas Pophale) SiO2 
 PCOD9554500
Probable space group: I 41 C D
;
_chemical_formula_sum "Si O2"
_cell_formula_units_Z 104
_cell_length_a 19.344837
_cell_length_b 19.344837
_cell_length_c 14.103969
_cell_angle_alpha 90.000000
_cell_angle_beta 90.000000
_cell_angle_gamma 90.000000
_cell_volume 5278.025622
_symmetry_space_group_name_H-M "I 41 C D"
_symmetry_group_IT_number 110
_symmetry_cell_setting 'tetragonal'
loop_
_space_group_symop_operation_xyz
x,y,z
-y,1/2+x,1/4+z
-x,-y,z
y,1/2-x,1/4+z
-x,y,1/2+z
x,-y,1/2+z
1/2-y,-x,1/4+z
1/2+y,x,1/4+z
1/2+x,1/2+y,1/2+z
1/2-y,x,3/4+z
1/2-x,1/2-y,1/2+z
1/2+y,-x,3/4+z
1/2-x,1/2+y,z
1/2+x,1/2-y,z
-y,1/2-x,3/4+z
y,1/2+x,3/4+z
loop_
_atom_site_type_symbol
_atom_site_label
_atom_site_fract_x
_atom_site_fract_y
_atom_site_fract_z
Si Si1 0.408989 0.911944 0.993250
Si Si2 0.680810 0.793610 0.186657
Si Si3 0.400947 0.918624 0.779335
Si Si4 0.404157 0.215935 0.622861
Si Si5 0.545643 0.282284 0.641822
Si Si6 0.303586 0.208275 0.789423
Si Si7 0.000000 0.000000 0.887427
O O1 0.435033 0.910102 0.884007
O O2 0.333584 0.946838 0.981359
O O3 0.402055 0.835885 0.035113
O O4 0.454507 0.953427 0.067319
O O5 0.634578 0.847305 0.246080
O O6 0.621160 0.751269 0.131987
O O7 0.732996 0.742771 0.244660
O O8 0.732534 0.829423 0.111729
O O9 0.334432 0.966567 0.803919
O O10 0.451892 0.952237 0.704035
O O11 0.482704 0.230715 0.650012
O O12 0.359046 0.189391 0.710487
O O13 0.361075 0.283670 0.594039
#
# Coordination Sequence:
#
# PCOD9554500 Si02
#       7
#    16  16  16  16  16  16   8
#     4  10  24  43  64  96 134 175 222 281 326 422
#     4  11  19  44  66  96 130 176 219 281 342 398
#     4  10  24  42  68  94 132 180 218 276 343 413
#     4  11  23  41  65  98 133 176 225 282 348 395
#     4  10  23  41  64  97 133 168 229 276 342 405
#     4  10  22  38  69  97 130 173 227 280 334 409
#     4  12  24  44  68  92 140 180 226 272 354 398
#
# _framework density 19.704338
#
# number of rings (size 3 to 8) (size 9 to 14) (size 15 to 20)
#    0.923    0.615    3.077    1.385    6.462    0.000 
#    0.000    1.538    0.000    0.000    0.000    0.000 
#    0.000    0.000    0.000    0.000    0.000    0.000 
#
# Total GULP energy -289644.034669 kJ/mol
# GULP energy per Si atom -5570.077590 kJ/mol
# Density = 1.965949 g / cm^3
# Si number density = 19.704338 Si / 1000 Ang^3
#
#
#
# Elastic Constant Matrix: (Units=GPa)
#
#
# Indices 1 2 3 4 5 6 
#
# 1 56.5945 26.4331 26.5010 0.0000 0.0000 0.0000
# 2 26.4331 56.5945 26.5010 0.0000 0.0000 0.0000
# 3 26.5010 26.5010 88.3799 0.0000 0.0000 0.0000
# 4 0.0000 0.0000 0.0000 18.0327 0.0000 0.0000
# 5 0.0000 0.0000 0.0000 0.0000 18.0327 0.0000
# 6 0.0000 0.0000 0.0000 0.0000 0.0000 10.8745
#
#
#
# Elastic Compliance Matrix: (Units=1/GPa)
#
#
# Indices 1 2 3 4 5 6 
#
# 1 0.024025 -0.009130 -0.004466 0.000000 0.000000 0.000000
# 2 -0.009130 0.024025 -0.004466 0.000000 0.000000 0.000000
# 3 -0.004466 -0.004466 0.013993 0.000000 0.000000 0.000000
# 4 0.000000 0.000000 0.000000 0.055455 0.000000 0.000000
# 5 0.000000 0.000000 0.000000 0.000000 0.055455 0.000000
# 6 0.000000 0.000000 0.000000 0.000000 0.000000 0.091958
#
#
# Mechanical properties :
#
#
# Convention : Reuss Voigt Hill
#
# Bulk Modulus (GPa) = 38.58263 40.04881 39.31572
# Shear Modulus (GPa) = 16.14588 17.53022 16.83805
#
# Velocity S-wave (km/s) = 2.86563 2.98596 2.92641
# Velocity P-wave (km/s) = 5.52923 5.67952 5.60488
#
# Compressibility (1/GPa) = 0.02591840
#
# Stress axis : x y z
#
# Youngs Moduli (GPa) = 41.62297 41.62297 71.46250
#
# Poissons Ratio (x) = 0.38001 0.31918
# Poissons Ratio (y) = 0.38001 0.31918
# Poissons Ratio (z) = 0.18591 0.18591
#
# Static dielectric constant tensor:
#      x y z
#    x 1.712450 0.000000 0.000000 
#    y 0.000000 1.712450 0.000000 
#    z 0.000000 0.000000 1.749430 
# 
# From -- ./inp_files/1349.got.cif
#   From: 2010.05.17/outbox.cif.g08.bks.cpg/sg110_1_cif.got.tgz:1349.got - 2010.05.20 10:54:03.
