data_PCOD9554636
_publ_section_title
;
Structure prediction by ZEFSAII (Michael W. Deem and Ramdas Pophale) SiO2 
 PCOD9554636
Probable space group: I 41 C D
;
_chemical_formula_sum "Si O2"
_cell_formula_units_Z 88
_cell_length_a 16.462985
_cell_length_b 16.462985
_cell_length_c 14.105790
_cell_angle_alpha 90.000000
_cell_angle_beta 90.000000
_cell_angle_gamma 90.000000
_cell_volume 3823.090502
_symmetry_space_group_name_H-M "I 41 C D"
_symmetry_group_IT_number 110
_symmetry_cell_setting 'tetragonal'
loop_
_space_group_symop_operation_xyz
x,y,z
-y,1/2+x,1/4+z
-x,-y,z
y,1/2-x,1/4+z
-x,y,1/2+z
x,-y,1/2+z
1/2-y,-x,1/4+z
1/2+y,x,1/4+z
1/2+x,1/2+y,1/2+z
1/2-y,x,3/4+z
1/2-x,1/2-y,1/2+z
1/2+y,-x,3/4+z
1/2-x,1/2+y,z
1/2+x,1/2-y,z
-y,1/2-x,3/4+z
y,1/2+x,3/4+z
loop_
_atom_site_type_symbol
_atom_site_label
_atom_site_fract_x
_atom_site_fract_y
_atom_site_fract_z
Si Si1 0.594504 0.704517 0.646300
Si Si2 0.730760 0.075831 0.898010
Si Si3 0.000000 0.500000 0.605735
Si Si4 0.090240 0.694282 0.337450
Si Si5 0.638197 0.109748 0.185231
Si Si6 0.551140 0.845845 0.979950
O O1 0.503948 0.682410 0.680803
O O2 0.606342 0.799364 0.665657
O O3 0.606804 0.678093 0.538333
O O4 0.653870 0.645469 0.702391
O O5 0.668206 0.148038 0.879683
O O6 0.770115 0.044460 0.800336
O O7 0.802904 0.091731 0.973263
O O8 0.069988 0.541421 0.669736
O O9 0.029259 0.426323 0.538779
O O10 0.095561 0.788913 0.362549
O O11 0.009134 0.661309 0.389580
#
# Coordination Sequence:
#
# PCOD9554636 Si02
#       6
#    16  16   8  16  16  16
#     4  12  27  47  75 113 152 204 263 327 397 474
#     4  12  28  48  78 116 155 210 263 329 402 477
#     4  12  26  50  78 108 158 200 264 326 390 484
#     4  12  27  51  76 113 162 204 269 329 398 479
#     4  12  26  50  75 110 157 202 259 327 398 468
#     4  12  27  48  77 116 151 210 264 322 405 479
#
# _framework density 23.018025999999999
#
# number of rings (size 3 to 8) (size 9 to 14) (size 15 to 20)
#    0.000    0.000    3.636    5.455    7.636    2.182 
#    0.000    0.000    0.000    0.000    0.000    0.000 
#    0.000    0.000    0.000    0.000    0.000    0.000 
#
# Total GULP energy -246229.252253 kJ/mol
# GULP energy per Si atom -5596.119369 kJ/mol
# Density = 2.296564 g / cm^3
# Si number density = 23.018026 Si / 1000 Ang^3
#
#
#
# Elastic Constant Matrix: (Units=GPa)
#
#
# Indices 1 2 3 4 5 6 
#
# 1 118.8160 49.1553 27.6622 0.0000 0.0000 0.0000
# 2 49.1553 118.8160 27.6622 0.0000 0.0000 0.0000
# 3 27.6622 27.6622 81.9179 0.0000 0.0000 0.0000
# 4 0.0000 0.0000 0.0000 31.5945 0.0000 0.0000
# 5 0.0000 0.0000 0.0000 0.0000 31.5945 0.0000
# 6 0.0000 0.0000 0.0000 0.0000 0.0000 40.1383
#
#
#
# Elastic Compliance Matrix: (Units=1/GPa)
#
#
# Indices 1 2 3 4 5 6 
#
# 1 0.010527 -0.003828 -0.002262 0.000000 0.000000 0.000000
# 2 -0.003828 0.010527 -0.002262 0.000000 0.000000 0.000000
# 3 -0.002262 -0.002262 0.013735 0.000000 0.000000 0.000000
# 4 0.000000 0.000000 0.000000 0.031651 0.000000 0.000000
# 5 0.000000 0.000000 0.000000 0.000000 0.031651 0.000000
# 6 0.000000 0.000000 0.000000 0.000000 0.000000 0.024914
#
#
# Mechanical properties :
#
#
# Convention : Reuss Voigt Hill
#
# Bulk Modulus (GPa) = 55.29735 58.72327 57.01031
# Shear Modulus (GPa) = 34.30827 35.00344 34.65585
#
# Velocity S-wave (km/s) = 3.86488 3.90384 3.88441
# Velocity P-wave (km/s) = 6.63265 6.77401 6.70370
#
# Compressibility (1/GPa) = 0.01808405
#
# Stress axis : x y z
#
# Youngs Moduli (GPa) = 94.99514 94.99514 72.80685
#
# Poissons Ratio (x) = 0.36368 0.16468
# Poissons Ratio (y) = 0.36368 0.16468
# Poissons Ratio (z) = 0.21487 0.21487
#
# Static dielectric constant tensor:
#      x y z
#    x 1.838080 0.000000 0.000000 
#    y 0.000000 1.838080 0.000000 
#    z 0.000000 0.000000 2.013030 
# 
# From -- ./inp_files/1303.got.cif
#   From: 2010.05.17/outbox.cif.g08.bks.cpg/sg110_1_cif.got.tgz:1303.got - 2010.05.20 10:54:03.
