data_PCOD9554972
_publ_section_title
;
Structure prediction by ZEFSAII (Michael W. Deem and Ramdas Pophale) SiO2 
 PCOD9554972
Probable space group: P -4 2 C
;
_chemical_formula_sum "Si O2"
_cell_formula_units_Z 38
_cell_length_a 8.764451
_cell_length_b 8.764451
_cell_length_c 25.304256
_cell_angle_alpha 90.000000
_cell_angle_beta 90.000000
_cell_angle_gamma 90.000000
_cell_volume 1943.761641
_symmetry_space_group_name_H-M "P -4 2 C"
_symmetry_group_IT_number 112
_symmetry_cell_setting 'tetragonal'
loop_
_space_group_symop_operation_xyz
x,y,z
y,-x,-z
-x,-y,z
-y,x,-z
x,-y,1/2-z
-x,y,1/2-z
-y,-x,1/2+z
y,x,1/2+z
loop_
_atom_site_type_symbol
_atom_site_label
_atom_site_fract_x
_atom_site_fract_y
_atom_site_fract_z
Si Si1 0.500000 0.500000 0.250000
Si Si2 0.611176 0.291895 0.084691
Si Si3 0.843949 0.574261 0.102283
Si Si4 0.629125 0.749465 0.175395
Si Si5 0.500000 0.000000 0.250000
Si Si6 0.500000 0.500000 0.500000
Si Si7 0.908712 0.237276 0.503270
O O1 0.603445 0.606126 0.213715
O O2 0.722749 0.435066 0.096629
O O3 0.512918 0.249603 0.134937
O O4 0.501639 0.355183 0.038110
O O5 0.696263 0.150494 0.058560
O O6 0.775096 0.706489 0.139819
O O7 0.880831 0.647157 0.045061
O O8 0.000000 0.500000 0.123119
O O9 0.607854 0.896180 0.212532
O O10 0.084372 0.189336 0.506303
#
# Coordination Sequence:
#
# PCOD9554972 Si02
#       7
#     2   8   8   8   2   2   8
#     4  10  18  42  66  84 124 146 216 286 340 372
#     4  12  20  37  62  92 132 173 220 269 318 388
#     4  12  23  39  64  98 129 174 221 268 328 392
#     4  11  23  42  68  95 122 166 218 287 337 390
#     4  10  28  46  72  96 124 166 232 288 348 404
#     4  12  18  32  60  98 132 160 218 260 304 382
#     4  11  25  39  56  92 146 184 211 257 324 408
#
# _framework density 19.549723
#
# number of rings (size 3 to 8) (size 9 to 14) (size 15 to 20)
#    0.000    0.632    8.421    0.000    2.947    0.000 
#    0.000    0.526    0.000    1.263    0.000    0.000 
#    0.000    0.000    0.000    0.000    0.000    0.000 
#
# Total GULP energy -212338.712459 kJ/mol
# GULP energy per Si atom -5587.860854 kJ/mol
# Density = 1.950523 g / cm^3
# Si number density = 19.549723 Si / 1000 Ang^3
#
#
#
# Elastic Constant Matrix: (Units=GPa)
#
#
# Indices 1 2 3 4 5 6 
#
# 1 92.4912 39.5006 46.9491 0.0000 0.0000 0.0000
# 2 39.5006 92.4912 46.9491 0.0000 0.0000 0.0000
# 3 46.9491 46.9491 111.3089 0.0000 0.0000 0.0000
# 4 0.0000 0.0000 0.0000 16.3048 0.0000 0.0000
# 5 0.0000 0.0000 0.0000 0.0000 16.3048 0.0000
# 6 0.0000 0.0000 0.0000 0.0000 0.0000 17.6204
#
#
#
# Elastic Compliance Matrix: (Units=1/GPa)
#
#
# Indices 1 2 3 4 5 6 
#
# 1 0.014848 -0.004024 -0.004566 0.000000 0.000000 0.000000
# 2 -0.004024 0.014848 -0.004566 0.000000 0.000000 0.000000
# 3 -0.004566 -0.004566 0.012835 0.000000 0.000000 0.000000
# 4 0.000000 0.000000 0.000000 0.061332 0.000000 0.000000
# 5 0.000000 0.000000 0.000000 0.000000 0.061332 0.000000
# 6 0.000000 0.000000 0.000000 0.000000 0.000000 0.056753
#
#
# Mechanical properties :
#
#
# Convention : Reuss Voigt Hill
#
# Bulk Modulus (GPa) = 61.64635 62.56543 62.10589
# Shear Modulus (GPa) = 19.71121 20.90551 20.30836
#
# Velocity S-wave (km/s) = 3.17876 3.27364 3.22655
# Velocity P-wave (km/s) = 6.71373 6.80894 6.76150
#
# Compressibility (1/GPa) = 0.01622156
#
# Stress axis : x y z
#
# Youngs Moduli (GPa) = 67.35058 67.35058 77.90964
#
# Poissons Ratio (x) = 0.27099 0.35570
# Poissons Ratio (y) = 0.27099 0.35570
# Poissons Ratio (z) = 0.30749 0.30749
#
# Static dielectric constant tensor:
#      x y z
#    x 1.714820 0.000000 0.000000 
#    y 0.000000 1.714820 0.000000 
#    z 0.000000 0.000000 1.678670 
# 
# From -- ./inp_files/5426.got.cif
#   From: 2010.05.17/outbox.cif.g08.bks.cpg/sg112_3_cif.got.tgz:5426.got - 2010.05.20 10:59:04.
