data_PCOD9554817
_publ_section_title
;
Structure prediction by ZEFSAII (Michael W. Deem and Ramdas Pophale) SiO2 
 PCOD9554817
Probable space group: P -4 2 M 
;
_chemical_formula_sum "Si O2"
_cell_formula_units_Z 56
_cell_length_a 11.718185
_cell_length_b 11.718185
_cell_length_c 20.928266
_cell_angle_alpha 90.000000
_cell_angle_beta 90.000000
_cell_angle_gamma 90.000000
_cell_volume 2873.782838
_symmetry_space_group_name_H-M "P -4 2 M "
_symmetry_group_IT_number 111
_symmetry_cell_setting 'tetragonal'
loop_
_space_group_symop_operation_xyz
x,y,z
y,-x,-z
-x,-y,z
-y,x,-z
x,-y,-z
-x,y,-z
-y,-x,z
y,x,z
loop_
_atom_site_type_symbol
_atom_site_label
_atom_site_fract_x
_atom_site_fract_y
_atom_site_fract_z
Si Si1 0.312735 0.504747 0.380588
Si Si2 0.094530 0.405418 0.854578
Si Si3 0.844284 0.659470 0.447862
Si Si4 0.724542 0.906092 0.589909
Si Si5 0.806375 0.622301 0.720386
Si Si6 0.558502 0.742832 0.068439
Si Si7 0.245317 0.939870 0.931663
O O1 0.374286 0.625714 0.398117
O O2 0.412620 0.412620 0.385033
O O3 0.209516 0.458378 0.423597
O O4 0.266277 0.517732 0.308517
O O5 0.111624 0.400368 0.778771
O O6 0.209711 0.457413 0.885902
O O7 0.000000 0.500000 0.869473
O O8 0.039775 0.290515 0.884251
O O9 0.751861 0.751861 0.428776
O O10 0.861223 0.669875 0.523699
O O11 0.960660 0.699501 0.415291
O O12 0.852975 0.852975 0.589112
O O13 0.669089 0.864558 0.655761
O O14 0.717664 0.717664 0.743277
O O15 0.630544 0.630544 0.088652
O O16 0.653570 0.844401 0.062564
O O17 0.500000 0.723327 0.000000
O O18 0.132095 0.867906 0.913005
O O19 0.228600 0.000000 0.000000
#
# Coordination Sequence:
#
# PCOD9554817 Si02
#       7
#     8   8   8   8   8   8   8
#     4   9  19  36  57  83 115 150 195 247 297 355
#     4  10  22  37  59  85 121 161 195 236 290 349
#     4   9  18  34  58  84 112 149 190 243 306 355
#     4   9  19  35  55  84 116 145 194 247 288 349
#     4  10  22  38  55  77 112 156 194 236 289 346
#     4  10  20  36  61  91 121 153 194 242 290 343
#     4  10  20  37  63  91 119 152 194 243 291 344
#
# _framework density 19.486509999999999
#
# number of rings (size 3 to 8) (size 9 to 14) (size 15 to 20)
#    0.000    2.429    1.429    0.000    2.000    2.857 
#    0.000    5.714    0.000    6.857    0.000    0.000 
#    0.000    0.000    0.000    0.429    0.000    0.000 
#
# Total GULP energy -311902.857542 kJ/mol
# GULP energy per Si atom -5569.693885 kJ/mol
# Density = 1.944216 g / cm^3
# Si number density = 19.486510 Si / 1000 Ang^3
#
#
#
# Elastic Constant Matrix: (Units=GPa)
#
#
# Indices 1 2 3 4 5 6 
#
# 1 95.2761 50.5852 30.0187 0.0000 0.0000 0.0000
# 2 50.5852 95.2750 30.0186 0.0000 0.0000 0.0000
# 3 30.0187 30.0186 69.8378 0.0000 0.0000 0.0000
# 4 0.0000 0.0000 0.0000 18.0730 0.0000 0.0000
# 5 0.0000 0.0000 0.0000 0.0000 18.0727 0.0000
# 6 0.0000 0.0000 0.0000 0.0000 0.0000 14.0351
#
#
#
# Elastic Compliance Matrix: (Units=1/GPa)
#
#
# Indices 1 2 3 4 5 6 
#
# 1 0.015353 -0.007023 -0.003580 0.000000 0.000000 0.000000
# 2 -0.007023 0.015353 -0.003580 0.000000 0.000000 0.000000
# 3 -0.003580 -0.003580 0.017397 0.000000 0.000000 0.000000
# 4 0.000000 0.000000 0.000000 0.055331 0.000000 0.000000
# 5 0.000000 0.000000 0.000000 0.000000 0.055332 0.000000
# 6 0.000000 0.000000 0.000000 0.000000 0.000000 0.071250
#
#
# Mechanical properties :
#
#
# Convention : Reuss Voigt Hill
#
# Bulk Modulus (GPa) = 50.67248 53.51489 52.09368
# Shear Modulus (GPa) = 18.87064 20.02058 19.44561
#
# Velocity S-wave (km/s) = 3.11528 3.20880 3.16238
# Velocity P-wave (km/s) = 6.24502 6.42267 6.33447
#
# Compressibility (1/GPa) = 0.01973458
#
# Stress axis : x y z
#
# Youngs Moduli (GPa) = 65.13478 65.13393 57.48190
#
# Poissons Ratio (x) = 0.45746 0.20580
# Poissons Ratio (y) = 0.45746 0.20581
# Poissons Ratio (z) = 0.23320 0.23320
#
# Static dielectric constant tensor:
#      x y z
#    x 1.737450 0.000000 0.000000 
#    y 0.000000 1.737460 0.000000 
#    z 0.000000 0.000000 1.649890 
# 
# From -- ./inp_files/3980.got.cif
#   From: 2010.05.17/outbox.cif.g08.bks.cpg/sg111_2_cif.got.tgz:3980.got - 2010.05.20 10:56:05.
