data_PCOD9554072
_publ_section_title
;
Structure prediction by ZEFSAII (Michael W. Deem and Ramdas Pophale) SiO2 
 PCOD9554072
Probable space group: I 41 M D
;
_chemical_formula_sum "Si O2"
_cell_formula_units_Z 64
_cell_length_a 14.687425
_cell_length_b 14.687425
_cell_length_c 11.935695
_cell_angle_alpha 90.000000
_cell_angle_beta 90.000000
_cell_angle_gamma 90.000000
_cell_volume 2574.773534
_symmetry_space_group_name_H-M "I 41 M D"
_symmetry_group_IT_number 109
_symmetry_cell_setting 'tetragonal'
loop_
_space_group_symop_operation_xyz
x,y,z
-y,1/2+x,1/4+z
-x,-y,z
y,1/2-x,1/4+z
-x,y,z
x,-y,z
-y,1/2-x,1/4+z
y,1/2+x,1/4+z
1/2+x,1/2+y,1/2+z
1/2-y,x,3/4+z
1/2-x,1/2-y,1/2+z
1/2+y,-x,3/4+z
1/2-x,1/2+y,1/2+z
1/2+x,1/2-y,1/2+z
1/2-y,-x,3/4+z
1/2+y,x,3/4+z
loop_
_atom_site_type_symbol
_atom_site_label
_atom_site_fract_x
_atom_site_fract_y
_atom_site_fract_z
Si Si1 0.391310 0.098251 0.099940
Si Si2 0.401750 0.108690 0.776484
Si Si3 0.105543 0.796951 0.586914
Si Si4 0.894458 0.296951 0.039510
O O1 0.500000 0.093626 0.090529
O O2 0.361935 0.105958 0.229491
O O3 0.356098 0.000000 0.055782
O O4 0.364334 0.195695 0.051276
O O5 0.500000 0.143902 0.820643
O O6 0.394043 0.138065 0.646933
O O7 0.304305 0.135665 0.825148
O O8 0.406374 0.000000 0.785894
O O9 0.165292 0.834707 0.688212
O O10 0.000000 0.791871 0.625651
O O11 0.000000 0.291870 0.000772
#
# Coordination Sequence:
#
# PCOD9554072 Si02
#       4
#    16  16  16  16
#     4   9  18  31  47  70  97 123 154 191 232 280
#     4   9  18  31  47  70  97 123 154 191 232 280
#     4  10  18  28  45  69  97 125 151 186 235 285
#     4  10  18  28  45  69  97 125 151 186 235 285
#
# _framework density 24.856556000000001
#
# number of rings (size 3 to 8) (size 9 to 14) (size 15 to 20)
#    0.000    2.500    0.000    3.000    0.000    6.500 
#    0.000    0.000    0.000    6.000    0.000    0.000 
#    0.000    0.000    0.000    0.000    0.000    0.000 
#
# Total GULP energy -178971.021742 kJ/mol
# GULP energy per Si atom -5592.844429 kJ/mol
# Density = 2.479998 g / cm^3
# Si number density = 24.856556 Si / 1000 Ang^3
#
#
#
# Elastic Constant Matrix: (Units=GPa)
#
#
# Indices 1 2 3 4 5 6 
#
# 1 113.9563 43.5641 45.1551 0.0000 0.0000 0.0000
# 2 43.5641 113.9563 45.1551 0.0000 0.0000 0.0000
# 3 45.1551 45.1551 100.7177 0.0000 0.0000 0.0000
# 4 0.0000 0.0000 0.0000 5.8666 0.0000 0.0000
# 5 0.0000 0.0000 0.0000 0.0000 5.8666 0.0000
# 6 0.0000 0.0000 0.0000 0.0000 0.0000 -0.8860
#
#
#
# Elastic Compliance Matrix: (Units=1/GPa)
#
#
# Indices 1 2 3 4 5 6 
#
# 1 0.011375 -0.002831 -0.003831 0.000000 0.000000 0.000000
# 2 -0.002831 0.011375 -0.003831 0.000000 0.000000 0.000000
# 3 -0.003831 -0.003831 0.013364 0.000000 0.000000 0.000000
# 4 0.000000 0.000000 0.000000 0.170456 0.000000 0.000000
# 5 0.000000 0.000000 0.000000 0.000000 0.170456 0.000000
# 6 0.000000 0.000000 0.000000 0.000000 0.000000 -1.128653
#
#
# Mechanical properties :
#
#
# Convention : Reuss Voigt Hill
#
# Bulk Modulus (GPa) = 66.09525 66.26431 66.17978
# Shear Modulus (GPa) = -6.89086 15.15318 4.13116
#
# Velocity S-wave (km/s) = -1.66681 2.47174 1.29058
# Velocity P-wave (km/s) = 4.78999 5.90445 5.37618
#
# Compressibility (1/GPa) = 0.01512968
#
# Stress axis : x y z
#
# Youngs Moduli (GPa) = 87.90887 87.90887 74.82924
#
# Poissons Ratio (x) = 0.24884 0.28666
# Poissons Ratio (y) = 0.24884 0.28666
# Poissons Ratio (z) = 0.33677 0.33677
#
# Static dielectric constant tensor:
#      x y z
#    x 1.997870 0.000000 0.000000 
#    y 0.000000 1.997870 0.000000 
#    z 0.000000 0.000000 1.868910 
# 
# From -- ./inp_files/2408.got.cif
#   From: 2010.05.17/outbox.cif.g08.bks.cpg/sg109_2_cif.got.tgz:2408.got - 2010.05.20 10:51:12.
