data_PCOD9554612
_publ_section_title
;
Structure prediction by ZEFSAII (Michael W. Deem and Ramdas Pophale) SiO2 
 PCOD9554612
Probable space group: I 41 C D
;
_chemical_formula_sum "Si O2"
_cell_formula_units_Z 112
_cell_length_a 14.178770
_cell_length_b 14.178770
_cell_length_c 21.520688
_cell_angle_alpha 90.000000
_cell_angle_beta 90.000000
_cell_angle_gamma 90.000000
_cell_volume 4326.465717
_symmetry_space_group_name_H-M "I 41 C D"
_symmetry_group_IT_number 110
_symmetry_cell_setting 'tetragonal'
loop_
_space_group_symop_operation_xyz
x,y,z
-y,1/2+x,1/4+z
-x,-y,z
y,1/2-x,1/4+z
-x,y,1/2+z
x,-y,1/2+z
1/2-y,-x,1/4+z
1/2+y,x,1/4+z
1/2+x,1/2+y,1/2+z
1/2-y,x,3/4+z
1/2-x,1/2-y,1/2+z
1/2+y,-x,3/4+z
1/2-x,1/2+y,z
1/2+x,1/2-y,z
-y,1/2-x,3/4+z
y,1/2+x,3/4+z
loop_
_atom_site_type_symbol
_atom_site_label
_atom_site_fract_x
_atom_site_fract_y
_atom_site_fract_z
Si Si1 0.438340 0.295202 0.163700
Si Si2 0.249762 0.103145 0.211791
Si Si3 0.341255 0.125164 0.845390
Si Si4 0.685671 0.767642 0.324432
Si Si5 0.252048 0.009280 0.025085
Si Si6 0.457754 0.090711 0.175763
Si Si7 0.544560 0.906927 0.032976
O O1 0.515100 0.335529 0.116278
O O2 0.342022 0.280188 0.128142
O O3 0.432378 0.329632 0.232592
O O4 0.484197 0.196536 0.199553
O O5 0.176556 0.133860 0.160095
O O6 0.284043 0.182154 0.260369
O O7 0.347197 0.074444 0.180756
O O8 0.192374 0.025844 0.250366
O O9 0.239322 0.169726 0.830807
O O10 0.416355 0.163257 0.795197
O O11 0.572718 0.766924 0.326785
O O12 0.340687 0.082352 0.034407
O O13 0.486923 0.097542 0.104571
O O14 0.500000 0.000000 0.207664
O O15 0.500000 0.000000 0.004408
#
# Coordination Sequence:
#
# PCOD9554612 Si02
#       7
#    16  16  16  16  16  16  16
#     4  12  25  46  70 105 148 190 244 309 369 450
#     4  12  20  48  74  92 144 194 234 302 380 448
#     4  12  25  44  73 102 144 193 243 304 376 444
#     4  12  25  44  73 102 144 193 243 304 376 444
#     4  12  25  46  70 105 148 190 244 309 369 450
#     4  11  24  44  71 102 139 185 245 302 368 452
#     4  11  24  44  71 102 139 185 245 302 368 452
#
# _framework density 25.887181000000002
#
# number of rings (size 3 to 8) (size 9 to 14) (size 15 to 20)
#    0.000    0.286    8.571    0.000    4.000    2.857 
#    0.000    2.857    0.000    0.000    0.000    0.000 
#    0.000    0.000    0.000    0.000    0.000    0.000 
#
# Total GULP energy -311900.307934 kJ/mol
# GULP energy per Si atom -5569.648356 kJ/mol
# Density = 2.582826 g / cm^3
# Si number density = 25.887181 Si / 1000 Ang^3
#
#
#
# Elastic Constant Matrix: (Units=GPa)
#
#
# Indices 1 2 3 4 5 6 
#
# 1 94.7139 17.3899 -2.1641 0.0000 0.0000 0.0000
# 2 17.3899 94.7139 -2.1641 0.0000 0.0000 0.0000
# 3 -2.1641 -2.1641 77.6762 0.0000 0.0000 0.0000
# 4 0.0000 0.0000 0.0000 15.0948 0.0000 0.0000
# 5 0.0000 0.0000 0.0000 0.0000 15.0948 0.0000
# 6 0.0000 0.0000 0.0000 0.0000 0.0000 36.3603
#
#
#
# Elastic Compliance Matrix: (Units=1/GPa)
#
#
# Indices 1 2 3 4 5 6 
#
# 1 0.010931 -0.002001 0.000249 0.000000 0.000000 0.000000
# 2 -0.002001 0.010931 0.000249 0.000000 0.000000 0.000000
# 3 0.000249 0.000249 0.012888 0.000000 0.000000 0.000000
# 4 0.000000 0.000000 0.000000 0.066248 0.000000 0.000000
# 5 0.000000 0.000000 0.000000 0.000000 0.066248 0.000000
# 6 0.000000 0.000000 0.000000 0.000000 0.000000 0.027503
#
#
# Mechanical properties :
#
#
# Convention : Reuss Voigt Hill
#
# Bulk Modulus (GPa) = 31.50319 32.58081 32.04200
# Shear Modulus (GPa) = 23.99950 30.24611 27.12280
#
# Velocity S-wave (km/s) = 3.04810 3.42187 3.24038
# Velocity P-wave (km/s) = 4.95820 5.31274 5.13853
#
# Compressibility (1/GPa) = 0.03174282
#
# Stress axis : x y z
#
# Youngs Moduli (GPa) = 91.48077 91.48077 77.59267
#
# Poissons Ratio (x) = 0.18308 -0.01930
# Poissons Ratio (y) = 0.18308 -0.01930
# Poissons Ratio (z) = -0.02276 -0.02276
#
# Static dielectric constant tensor:
#      x y z
#    x 2.245980 0.000000 0.000000 
#    y 0.000000 2.245980 0.000000 
#    z 0.000000 0.000000 2.083920 
# 
# From -- ./inp_files/2665.got.cif
#   From: 2010.05.17/outbox.cif.g08.bks.cpg/sg110_2_cif.got.tgz:2665.got - 2010.05.20 10:54:03.
