data_PCOD9554022
_publ_section_title
;
Structure prediction by ZEFSAII (Michael W. Deem and Ramdas Pophale) SiO2 
 PCOD9554022
Probable space group: I 4 C M
;
_chemical_formula_sum "Si O2"
_cell_formula_units_Z 120
_cell_length_a 25.778989
_cell_length_b 25.778989
_cell_length_c 9.033035
_cell_angle_alpha 90.000000
_cell_angle_beta 90.000000
_cell_angle_gamma 90.000000
_cell_volume 6002.960081
_symmetry_space_group_name_H-M "I 4 C M"
_symmetry_group_IT_number 108
_symmetry_cell_setting 'tetragonal'
loop_
_space_group_symop_operation_xyz
x,y,z
-y,x,z
-x,-y,z
y,-x,z
-x,y,1/2+z
x,-y,1/2+z
-y,-x,1/2+z
y,x,1/2+z
1/2+x,1/2+y,1/2+z
1/2-y,1/2+x,1/2+z
1/2-x,1/2-y,1/2+z
1/2+y,1/2-x,1/2+z
1/2-x,1/2+y,z
1/2+x,1/2-y,z
1/2-y,1/2-x,z
1/2+y,1/2+x,z
loop_
_atom_site_type_symbol
_atom_site_label
_atom_site_fract_x
_atom_site_fract_y
_atom_site_fract_z
Si Si1 0.177930 0.458107 0.333520
Si Si2 0.354352 0.854352 0.162593
Si Si3 0.858414 0.444348 0.167923
Si Si4 0.565818 0.677843 0.471378
Si Si5 0.680672 0.635928 0.429900
Si Si6 0.699610 0.469714 0.800566
Si Si7 0.300614 0.281502 0.204896
Si Si8 0.782681 0.616831 0.885847
O O1 0.164495 0.401221 0.273407
O O2 0.140989 0.501369 0.257007
O O3 0.166545 0.456548 0.508662
O O4 0.237488 0.474042 0.295793
O O5 0.373363 0.812061 0.036951
O O6 0.912702 0.412702 0.154059
O O7 0.820603 0.407206 0.263652
O O8 0.619346 0.647006 0.445996
O O9 0.547822 0.678191 0.641122
O O10 0.518969 0.667539 0.359159
O O11 0.578987 0.736554 0.427214
O O12 0.690991 0.575735 0.420267
O O13 0.702797 0.662651 0.281001
O O14 0.710931 0.665173 0.559926
O O15 0.245687 0.254314 0.175355
O O16 0.332851 0.245704 0.317902
#
# Coordination Sequence:
#
# PCOD9554022 Si02
#       8
#    16   8  16  16  16  16  16  16
#     4  12  25  42  66  99 126 178 231 285 357 411
#     4  12  22  42  65  94 136 166 232 290 336 424
#     4  12  24  42  65  94 128 170 232 292 356 409
#     4  11  25  42  66 101 130 180 225 277 342 397
#     4  11  25  43  63  99 139 178 228 279 338 416
#     4  12  24  43  70  97 137 176 230 282 331 416
#     4  11  22  41  62  92 141 181 222 262 341 413
#     4  11  22  40  65  95 133 178 221 286 338 409
#
# _framework density 19.990138000000002
#
# number of rings (size 3 to 8) (size 9 to 14) (size 15 to 20)
#    0.000    0.533    6.000    2.800    3.733    0.000 
#    7.200    0.333    0.000    0.400    0.000    1.867 
#    0.000    0.000    0.000    0.000    0.000    0.000 
#
# Total GULP energy -334281.873421 kJ/mol
# GULP energy per Si atom -5571.364557 kJ/mol
# Density = 1.994464 g / cm^3
# Si number density = 19.990138 Si / 1000 Ang^3
#
#
#
# Elastic Constant Matrix: (Units=GPa)
#
#
# Indices 1 2 3 4 5 6 
#
# 1 32.3790 33.1222 13.7034 0.0000 0.0000 0.0002
# 2 33.1222 32.3790 13.7034 0.0000 0.0000 -0.0002
# 3 13.7034 13.7034 76.2272 0.0000 0.0000 0.0000
# 4 0.0000 0.0000 0.0000 10.9706 0.0000 0.0000
# 5 0.0000 0.0000 0.0000 0.0000 10.9706 0.0000
# 6 0.0002 -0.0002 0.0000 0.0000 0.0000 21.7952
#
#
#
# Elastic Compliance Matrix: (Units=1/GPa)
#
#
# Indices 1 2 3 4 5 6 
#
# 1 -0.664535 0.681044 -0.002968 0.000000 0.000000 0.000012
# 2 0.681044 -0.664535 -0.002968 0.000000 0.000000 -0.000012
# 3 -0.002968 -0.002968 0.014186 0.000000 0.000000 0.000000
# 4 0.000000 0.000000 0.000000 0.091153 0.000000 0.000000
# 5 0.000000 0.000000 0.000000 0.000000 0.091153 0.000000
# 6 0.000012 -0.000012 0.000000 0.000000 0.000000 0.045882
#
#
# Mechanical properties :
#
#
# Convention : Reuss Voigt Hill
#
# Bulk Modulus (GPa) = 28.30300 29.11592 28.70946
# Shear Modulus (GPa) = -2.06174 14.11101 6.02464
#
# Velocity S-wave (km/s) = -1.01667 2.65976 1.73791
# Velocity P-wave (km/s) = 3.57925 4.90196 4.29187
#
# Compressibility (1/GPa) = 0.03533195
#
# Stress axis : x y z
#
# Youngs Moduli (GPa) = -1.50481 -1.50481 70.49347
#
# Poissons Ratio (x) = 1.02484 0.20921
# Poissons Ratio (y) = 1.02484 0.20921
# Poissons Ratio (z) = -0.00447 -0.00447
#
# Static dielectric constant tensor:
#      x y z
#    x 1.744450 0.000000 0.000000 
#    y 0.000000 1.744450 0.000000 
#    z 0.000000 0.000000 1.768390 
# 
# From -- ./inp_files/935.got.cif
#   From: 2010.05.17/outbox.cif.g08.bks.cpg/sg108_1_cif.got.tgz:935.got - 2010.05.20 10:49:05.
