data_PCOD9554589
_publ_section_title
;
Structure prediction by ZEFSAII (Michael W. Deem and Ramdas Pophale) SiO2 
 PCOD9554589
Probable space group: I 41 C D
;
_chemical_formula_sum "Si O2"
_cell_formula_units_Z 120
_cell_length_a 24.247395
_cell_length_b 24.247395
_cell_length_c 8.695179
_cell_angle_alpha 90.000000
_cell_angle_beta 90.000000
_cell_angle_gamma 90.000000
_cell_volume 5112.210189
_symmetry_space_group_name_H-M "I 41 C D"
_symmetry_group_IT_number 110
_symmetry_cell_setting 'tetragonal'
loop_
_space_group_symop_operation_xyz
x,y,z
-y,1/2+x,1/4+z
-x,-y,z
y,1/2-x,1/4+z
-x,y,1/2+z
x,-y,1/2+z
1/2-y,-x,1/4+z
1/2+y,x,1/4+z
1/2+x,1/2+y,1/2+z
1/2-y,x,3/4+z
1/2-x,1/2-y,1/2+z
1/2+y,-x,3/4+z
1/2-x,1/2+y,z
1/2+x,1/2-y,z
-y,1/2-x,3/4+z
y,1/2+x,3/4+z
loop_
_atom_site_type_symbol
_atom_site_label
_atom_site_fract_x
_atom_site_fract_y
_atom_site_fract_z
Si Si1 0.944618 0.640095 0.515010
Si Si2 0.798040 0.201960 0.300123
Si Si3 0.446566 0.387188 0.181755
Si Si4 0.772375 0.636996 0.512685
Si Si5 0.444618 0.359905 0.835236
Si Si6 0.227625 0.863004 0.837561
Si Si7 0.500000 0.000000 0.300123
Si Si8 0.387188 0.446566 0.418491
O O1 0.920367 0.579633 0.550123
O O2 0.908087 0.680931 0.621012
O O3 0.938068 0.643517 0.330748
O O4 0.006561 0.643092 0.570749
O O5 0.794823 0.250000 0.425123
O O6 0.777508 0.148720 0.396626
O O7 0.851280 0.222492 0.203620
O O8 0.493439 0.356908 0.279497
O O9 0.469147 0.448996 0.136631
O O10 0.396413 0.396413 0.300123
O O11 0.438068 0.356483 0.019498
O O12 0.819069 0.591913 0.479234
O O13 0.750000 0.618039 0.675123
O O14 0.807074 0.692926 0.550123
O O15 0.530853 0.051004 0.213615
#
# Coordination Sequence:
#
# PCOD9554589 Si02
#       8
#    16  16  16  16  16  16   8  16
#     4  11  22  37  59  95 130 169 226 276 317 387
#     4  12  18  38  70  98 118 156 204 266 354 410
#     4  12  20  36  62  90 133 184 228 265 320 382
#     4  11  22  40  65  95 129 154 212 280 333 411
#     4  11  22  37  59  95 130 169 226 276 317 387
#     4  11  22  40  65  95 129 154 212 280 333 411
#     4  12  18  28  58  88 126 180 234 256 302 380
#     4  12  20  36  62  90 133 184 228 265 320 382
#
# _framework density 23.473212
#
# number of rings (size 3 to 8) (size 9 to 14) (size 15 to 20)
#    0.000    0.533    9.333    0.400    0.000    0.000 
#    2.400    4.000    0.000    0.000    0.000    0.000 
#    0.000    0.000    0.000    0.000    0.000    0.000 
#
# Total GULP energy -334612.899921 kJ/mol
# GULP energy per Si atom -5576.881665 kJ/mol
# Density = 2.341979 g / cm^3
# Si number density = 23.473212 Si / 1000 Ang^3
#
#
#
# Elastic Constant Matrix: (Units=GPa)
#
#
# Indices 1 2 3 4 5 6 
#
# 1 69.4263 25.6397 31.7396 0.0000 0.0000 0.0000
# 2 25.6397 69.4263 31.7396 0.0000 0.0000 0.0000
# 3 31.7396 31.7396 155.2715 0.0000 0.0000 0.0000
# 4 0.0000 0.0000 0.0000 25.9490 0.0000 0.0000
# 5 0.0000 0.0000 0.0000 0.0000 25.9490 0.0000
# 6 0.0000 0.0000 0.0000 0.0000 0.0000 21.4625
#
#
#
# Elastic Compliance Matrix: (Units=1/GPa)
#
#
# Indices 1 2 3 4 5 6 
#
# 1 0.017510 -0.005328 -0.002490 0.000000 0.000000 0.000000
# 2 -0.005328 0.017510 -0.002490 0.000000 0.000000 0.000000
# 3 -0.002490 -0.002490 0.007458 0.000000 0.000000 0.000000
# 4 0.000000 0.000000 0.000000 0.038537 0.000000 0.000000
# 5 0.000000 0.000000 0.000000 0.000000 0.038537 0.000000
# 6 0.000000 0.000000 0.000000 0.000000 0.000000 0.046593
#
#
# Mechanical properties :
#
#
# Convention : Reuss Voigt Hill
#
# Bulk Modulus (GPa) = 45.74271 52.48465 49.11368
# Shear Modulus (GPa) = 25.76666 28.33911 27.05289
#
# Velocity S-wave (km/s) = 3.31676 3.47839 3.39853
# Velocity P-wave (km/s) = 5.84785 6.20807 6.03065
#
# Compressibility (1/GPa) = 0.02186141
#
# Stress axis : x y z
#
# Youngs Moduli (GPa) = 57.11049 57.11049 134.07773
#
# Poissons Ratio (x) = 0.30429 0.33387
# Poissons Ratio (y) = 0.30429 0.33387
# Poissons Ratio (z) = 0.14221 0.14221
#
# Static dielectric constant tensor:
#      x y z
#    x 1.959010 0.000000 0.000000 
#    y 0.000000 1.959010 0.000000 
#    z 0.000000 0.000000 1.997290 
# 
# From -- ./inp_files/532.got.cif
#   From: 2010.05.17/outbox.cif.g08.bks.cpg/sg110_1_cif.got.tgz:532.got - 2010.05.20 10:54:03.
