data_PCOD9554620
_publ_section_title
;
Structure prediction by ZEFSAII (Michael W. Deem and Ramdas Pophale) SiO2 
 PCOD9554620
Probable space group: I 41 C D
;
_chemical_formula_sum "Si O2"
_cell_formula_units_Z 88
_cell_length_a 15.740194
_cell_length_b 15.740194
_cell_length_c 18.103415
_cell_angle_alpha 90.000000
_cell_angle_beta 90.000000
_cell_angle_gamma 90.000000
_cell_volume 4485.188178
_symmetry_space_group_name_H-M "I 41 C D"
_symmetry_group_IT_number 110
_symmetry_cell_setting 'tetragonal'
loop_
_space_group_symop_operation_xyz
x,y,z
-y,1/2+x,1/4+z
-x,-y,z
y,1/2-x,1/4+z
-x,y,1/2+z
x,-y,1/2+z
1/2-y,-x,1/4+z
1/2+y,x,1/4+z
1/2+x,1/2+y,1/2+z
1/2-y,x,3/4+z
1/2-x,1/2-y,1/2+z
1/2+y,-x,3/4+z
1/2-x,1/2+y,z
1/2+x,1/2-y,z
-y,1/2-x,3/4+z
y,1/2+x,3/4+z
loop_
_atom_site_type_symbol
_atom_site_label
_atom_site_fract_x
_atom_site_fract_y
_atom_site_fract_z
Si Si1 0.693185 0.445961 0.895700
Si Si2 0.138436 0.924549 0.015836
Si Si3 0.000000 0.500000 0.874646
Si Si4 0.638436 0.075451 0.483456
Si Si5 0.945961 0.193185 0.353592
Si Si6 0.250000 0.461976 0.749646
O O1 0.767984 0.413626 0.949243
O O2 0.625888 0.374111 0.874646
O O3 0.737167 0.481067 0.822026
O O4 0.647599 0.522028 0.940539
O O5 0.232016 0.913626 0.050048
O O6 0.094636 0.834112 0.005730
O O7 0.079557 0.977767 0.072377
O O8 0.920443 0.477767 0.926915
O O9 0.594636 0.165888 0.493562
O O10 0.647600 0.022028 0.558753
O O11 0.981066 0.237167 0.427266
#
# Coordination Sequence:
#
# PCOD9554620 Si02
#       6
#    16  16   8  16  16  16
#     4  11  26  44  68 103 136 181 232 284 350 419
#     4  11  25  43  70 100 137 180 232 283 352 417
#     4  12  20  48  74  92 140 188 226 296 348 424
#     4  11  25  43  70 100 137 180 232 283 352 417
#     4  11  26  44  68 103 136 181 232 284 350 419
#     4  12  24  44  70 100 140 182 232 294 346 422
#
# _framework density 19.620135999999999
#
# number of rings (size 3 to 8) (size 9 to 14) (size 15 to 20)
#    0.000    0.727    3.636    3.273    0.000    5.818 
#    0.000    0.000    0.000    0.000    0.000    0.000 
#    0.000    0.000    0.000    0.000    0.000    0.000 
#
# Total GULP energy -246196.711358 kJ/mol
# GULP energy per Si atom -5595.379804 kJ/mol
# Density = 1.957548 g / cm^3
# Si number density = 19.620136 Si / 1000 Ang^3
#
#
#
# Elastic Constant Matrix: (Units=GPa)
#
#
# Indices 1 2 3 4 5 6 
#
# 1 78.5785 35.4084 13.1010 0.0000 0.0000 0.0000
# 2 35.4084 78.5785 13.1010 0.0000 0.0000 0.0000
# 3 13.1010 13.1010 75.8116 0.0000 0.0000 0.0000
# 4 0.0000 0.0000 0.0000 -44.0498 0.0000 0.0000
# 5 0.0000 0.0000 0.0000 0.0000 -44.0498 0.0000
# 6 0.0000 0.0000 0.0000 0.0000 0.0000 -132.5668
#
#
#
# Elastic Compliance Matrix: (Units=1/GPa)
#
#
# Indices 1 2 3 4 5 6 
#
# 1 0.016150 -0.007014 -0.001579 0.000000 0.000000 0.000000
# 2 -0.007014 0.016150 -0.001579 0.000000 0.000000 0.000000
# 3 -0.001579 -0.001579 0.013736 0.000000 0.000000 0.000000
# 4 0.000000 0.000000 0.000000 -0.022702 0.000000 0.000000
# 5 0.000000 0.000000 0.000000 0.000000 -0.022702 0.000000
# 6 0.000000 0.000000 0.000000 0.000000 0.000000 -0.007543
#
#
# Mechanical properties :
#
#
# Convention : Reuss Voigt Hill
#
# Bulk Modulus (GPa) = 38.92129 39.57661 39.24895
# Shear Modulus (GPa) = 227.29971 -32.70938 97.29516
#
# Velocity S-wave (km/s) = 10.77505 -4.08748 7.04962
# Velocity P-wave (km/s) = 13.21676 1.43579 9.29035
#
# Compressibility (1/GPa) = 0.02569288
#
# Stress axis : x y z
#
# Youngs Moduli (GPa) = 61.91948 61.91948 72.80009
#
# Poissons Ratio (x) = 0.43431 0.11493
# Poissons Ratio (y) = 0.43431 0.11493
# Poissons Ratio (z) = 0.09776 0.09776
#
# Static dielectric constant tensor:
#      x y z
#    x 1.658370 0.000000 0.000000 
#    y 0.000000 1.658370 0.000000 
#    z 0.000000 0.000000 1.669590 
# 
# From -- ./inp_files/2151.got.cif
#   From: 2010.05.17/outbox.cif.g08.bks.cpg/sg110_2_cif.got.tgz:2151.got - 2010.05.20 10:54:03.
