data_PCOD9554617
_publ_section_title
;
Structure prediction by ZEFSAII (Michael W. Deem and Ramdas Pophale) SiO2 
 PCOD9554617
Probable space group: I 41 C D
;
_chemical_formula_sum "Si O2"
_cell_formula_units_Z 120
_cell_length_a 19.044624
_cell_length_b 19.044624
_cell_length_c 14.344118
_cell_angle_alpha 90.000000
_cell_angle_beta 90.000000
_cell_angle_gamma 90.000000
_cell_volume 5202.578654
_symmetry_space_group_name_H-M "I 41 C D"
_symmetry_group_IT_number 110
_symmetry_cell_setting 'tetragonal'
loop_
_space_group_symop_operation_xyz
x,y,z
-y,1/2+x,1/4+z
-x,-y,z
y,1/2-x,1/4+z
-x,y,1/2+z
x,-y,1/2+z
1/2-y,-x,1/4+z
1/2+y,x,1/4+z
1/2+x,1/2+y,1/2+z
1/2-y,x,3/4+z
1/2-x,1/2-y,1/2+z
1/2+y,-x,3/4+z
1/2-x,1/2+y,z
1/2+x,1/2-y,z
-y,1/2-x,3/4+z
y,1/2+x,3/4+z
loop_
_atom_site_type_symbol
_atom_site_label
_atom_site_fract_x
_atom_site_fract_y
_atom_site_fract_z
Si Si1 0.937786 0.772323 0.042410
Si Si2 0.728863 0.961577 0.009211
Si Si3 0.798572 0.832578 0.974424
Si Si4 0.500000 0.000000 0.137165
Si Si5 0.412308 0.125958 0.550483
Si Si6 0.551919 0.357693 0.434197
Si Si7 0.823429 0.768271 0.527107
Si Si8 0.615070 0.264896 0.726601
O O1 0.947959 0.788346 0.151144
O O2 0.959218 0.692188 0.019635
O O3 0.856823 0.781927 0.016200
O O4 0.984314 0.824725 0.983650
O O5 0.781611 0.900031 0.038784
O O6 0.760969 0.039123 0.008430
O O7 0.662584 0.954888 0.075806
O O8 0.838402 0.870899 0.888278
O O9 0.723570 0.790473 0.973251
O O10 0.456974 0.941261 0.079304
O O11 0.558714 0.955358 0.193511
O O12 0.349389 0.109702 0.479307
O O13 0.617418 0.313919 0.474411
O O14 0.859247 0.743112 0.623199
O O15 0.764692 0.827449 0.547926
#
# Coordination Sequence:
#
# PCOD9554617 Si02
#       8
#    16  16  16   8  16  16  16  16
#     4  11  24  48  73 106 145 200 255 318 382 464
#     4  11  26  43  69 107 149 186 254 308 382 465
#     4  11  24  48  74 108 145 196 256 321 392 457
#     4  12  26  50  76 106 160 214 250 312 404 480
#     4  11  25  45  76 102 150 206 251 317 391 473
#     4  12  27  48  72 109 157 202 252 324 391 463
#     4  12  27  43  78 112 147 196 261 328 386 464
#     4  12  24  46  67 112 148 194 254 313 385 467
#
# _framework density 23.065486
#
# number of rings (size 3 to 8) (size 9 to 14) (size 15 to 20)
#    0.000    0.533    5.333    1.600   11.200    1.067 
#    0.000    2.667    0.000    0.000    0.000    0.000 
#    0.000    0.000    0.000    0.000    0.000    0.000 
#
# Total GULP energy -334929.025209 kJ/mol
# GULP energy per Si atom -5582.150420 kJ/mol
# Density = 2.301299 g / cm^3
# Si number density = 23.065486 Si / 1000 Ang^3
#
#
#
# Elastic Constant Matrix: (Units=GPa)
#
#
# Indices 1 2 3 4 5 6 
#
# 1 135.8643 32.8655 16.4213 0.0000 0.0000 0.0000
# 2 32.8655 135.8643 16.4213 0.0000 0.0000 0.0000
# 3 16.4213 16.4213 46.9868 0.0000 0.0000 0.0000
# 4 0.0000 0.0000 0.0000 34.2081 0.0000 0.0000
# 5 0.0000 0.0000 0.0000 0.0000 34.2081 0.0000
# 6 0.0000 0.0000 0.0000 0.0000 0.0000 43.5601
#
#
#
# Elastic Compliance Matrix: (Units=1/GPa)
#
#
# Indices 1 2 3 4 5 6 
#
# 1 0.008034 -0.001675 -0.002222 0.000000 0.000000 0.000000
# 2 -0.001675 0.008034 -0.002222 0.000000 0.000000 0.000000
# 3 -0.002222 -0.002222 0.022836 0.000000 0.000000 0.000000
# 4 0.000000 0.000000 0.000000 0.029233 0.000000 0.000000
# 5 0.000000 0.000000 0.000000 0.000000 0.029233 0.000000
# 6 0.000000 0.000000 0.000000 0.000000 0.000000 0.022957
#
#
# Mechanical properties :
#
#
# Convention : Reuss Voigt Hill
#
# Bulk Modulus (GPa) = 37.50292 50.01462 43.75877
# Shear Modulus (GPa) = 35.34713 39.26243 37.30478
#
# Velocity S-wave (km/s) = 3.91892 4.13027 4.02598
# Velocity P-wave (km/s) = 6.06398 6.66906 6.37370
#
# Compressibility (1/GPa) = 0.02666459
#
# Stress axis : x y z
#
# Youngs Moduli (GPa) = 124.47032 124.47032 43.79048
#
# Poissons Ratio (x) = 0.20846 0.09732
# Poissons Ratio (y) = 0.20846 0.09732
# Poissons Ratio (z) = 0.27663 0.27663
#
# Static dielectric constant tensor:
#      x y z
#    x 1.930770 0.000000 0.000000 
#    y 0.000000 1.930770 0.000000 
#    z 0.000000 0.000000 1.892190 
# 
# From -- ./inp_files/1798.got.cif
#   From: 2010.05.17/outbox.cif.g08.bks.cpg/sg110_1_cif.got.tgz:1798.got - 2010.05.20 10:54:03.
