data_PCOD9554383
_publ_section_title
;
Structure prediction by ZEFSAII (Michael W. Deem and Ramdas Pophale) SiO2 
 PCOD9554383
Probable space group: I 41 C D
;
_chemical_formula_sum "Si O2"
_cell_formula_units_Z 48
_cell_length_a 19.524209
_cell_length_b 19.524209
_cell_length_c 5.241735
_cell_angle_alpha 90.000000
_cell_angle_beta 90.000000
_cell_angle_gamma 90.000000
_cell_volume 1998.121795
_symmetry_space_group_name_H-M "I 41 C D"
_symmetry_group_IT_number 110
_symmetry_cell_setting 'tetragonal'
loop_
_space_group_symop_operation_xyz
x,y,z
-y,1/2+x,1/4+z
-x,-y,z
y,1/2-x,1/4+z
-x,y,1/2+z
x,-y,1/2+z
1/2-y,-x,1/4+z
1/2+y,x,1/4+z
1/2+x,1/2+y,1/2+z
1/2-y,x,3/4+z
1/2-x,1/2-y,1/2+z
1/2+y,-x,3/4+z
1/2-x,1/2+y,z
1/2+x,1/2-y,z
-y,1/2-x,3/4+z
y,1/2+x,3/4+z
loop_
_atom_site_type_symbol
_atom_site_label
_atom_site_fract_x
_atom_site_fract_y
_atom_site_fract_z
Si Si1 0.575818 0.184140 0.141260
Si Si2 0.757997 0.922718 0.398377
Si Si3 0.042122 0.098182 0.637806
O O1 0.609178 0.199255 0.415413
O O2 0.499713 0.213152 0.185983
O O3 0.612243 0.227334 0.918606
O O4 0.567354 0.108742 0.025317
O O5 0.677936 0.935807 0.364619
O O6 0.017047 0.082880 0.349619
#
# Coordination Sequence:
#
# PCOD9554383 Si02
#       3
#    16  16  16
#     4  10  20  35  61  83 118 160 187 248 301 350
#     4  10  19  40  54  83 124 154 194 246 305 352
#     4  12  21  37  62  90 114 159 206 241 298 374
#
# _framework density 24.022559000000001
#
# number of rings (size 3 to 8) (size 9 to 14) (size 15 to 20)
#    0.000    1.333    6.667    2.000    0.000    0.000 
#    0.000   20.000    0.000    4.000    0.000    0.000 
#    0.000    0.000    0.000    0.000    0.000    0.000 
#
# Total GULP energy -133750.433200 kJ/mol
# GULP energy per Si atom -5572.934717 kJ/mol
# Density = 2.396788 g / cm^3
# Si number density = 24.022559 Si / 1000 Ang^3
#
#
#
# Elastic Constant Matrix: (Units=GPa)
#
#
# Indices 1 2 3 4 5 6 
#
# 1 42.7203 7.0082 -12.5935 0.0000 0.0000 0.0000
# 2 7.0082 42.7203 -12.5935 0.0000 0.0000 0.0000
# 3 -12.5935 -12.5935 185.2262 0.0000 0.0000 0.0000
# 4 0.0000 0.0000 0.0000 32.6509 0.0000 0.0000
# 5 0.0000 0.0000 0.0000 0.0000 32.6509 0.0000
# 6 0.0000 0.0000 0.0000 0.0000 0.0000 -20.0143
#
#
#
# Elastic Compliance Matrix: (Units=1/GPa)
#
#
# Indices 1 2 3 4 5 6 
#
# 1 0.024414 -0.003588 0.001416 0.000000 0.000000 0.000000
# 2 -0.003588 0.024414 0.001416 0.000000 0.000000 0.000000
# 3 0.001416 0.001416 0.005591 0.000000 0.000000 0.000000
# 4 0.000000 0.000000 0.000000 0.030627 0.000000 0.000000
# 5 0.000000 0.000000 0.000000 0.000000 0.030627 0.000000
# 6 0.000000 0.000000 0.000000 0.000000 0.000000 -0.049964
#
#
# Mechanical properties :
#
#
# Convention : Reuss Voigt Hill
#
# Bulk Modulus (GPa) = 18.90073 26.03437 22.46755
# Shear Modulus (GPa) = 58.92282 28.31386 43.61834
#
# Velocity S-wave (km/s) = 4.95796 3.43685 4.26575
# Velocity P-wave (km/s) = 6.37653 5.15851 5.79959
#
# Compressibility (1/GPa) = 0.05290800
#
# Stress axis : x y z
#
# Youngs Moduli (GPa) = 40.95998 40.95998 178.84772
#
# Poissons Ratio (x) = 0.14695 -0.25324
# Poissons Ratio (y) = 0.14695 -0.25324
# Poissons Ratio (z) = -0.05800 -0.05800
#
# Static dielectric constant tensor:
#      x y z
#    x 1.620170 0.000000 0.000000 
#    y 0.000000 1.620170 0.000000 
#    z 0.000000 0.000000 2.112710 
# 
# From -- ./inp_files/42.got.cif
#   From: 2010.05.17/outbox.cif.g08.bks.cpg/sg110_1_cif.got.tgz:42.got - 2010.05.20 10:54:03.
