data_PCOD9554128
_publ_section_title
;
Structure prediction by ZEFSAII (Michael W. Deem and Ramdas Pophale) SiO2 
 PCOD9554128
Probable space group: I 41 M D
;
_chemical_formula_sum "Si O2"
_cell_formula_units_Z 80
_cell_length_a 22.962380
_cell_length_b 22.962380
_cell_length_c 7.161767
_cell_angle_alpha 90.000000
_cell_angle_beta 90.000000
_cell_angle_gamma 90.000000
_cell_volume 3776.191298
_symmetry_space_group_name_H-M "I 41 M D"
_symmetry_group_IT_number 109
_symmetry_cell_setting 'tetragonal'
loop_
_space_group_symop_operation_xyz
x,y,z
-y,1/2+x,1/4+z
-x,-y,z
y,1/2-x,1/4+z
-x,y,z
x,-y,z
-y,1/2-x,1/4+z
y,1/2+x,1/4+z
1/2+x,1/2+y,1/2+z
1/2-y,x,3/4+z
1/2-x,1/2-y,1/2+z
1/2+y,-x,3/4+z
1/2-x,1/2+y,1/2+z
1/2+x,1/2-y,1/2+z
1/2-y,-x,3/4+z
1/2+y,x,3/4+z
loop_
_atom_site_type_symbol
_atom_site_label
_atom_site_fract_x
_atom_site_fract_y
_atom_site_fract_z
Si Si1 0.561961 0.725883 0.588640
Si Si2 0.399593 0.161630 0.787535
Si Si3 0.070229 0.433229 0.982908
Si Si4 0.934305 0.103480 0.305294
Si Si5 0.179288 0.224350 0.920046
O O1 0.500000 0.722760 0.494312
O O2 0.566285 0.781851 0.721882
O O3 0.567667 0.668731 0.719068
O O4 0.610593 0.732293 0.430110
O O5 0.402202 0.114553 0.618659
O O6 0.332646 0.184760 0.806507
O O7 0.423346 0.122823 0.957288
O O8 0.080274 0.500000 0.048329
O O9 0.096903 0.428307 0.776308
O O10 0.000000 0.424779 0.974616
O O11 0.000000 0.080212 0.260429
O O12 0.215665 0.206094 0.742378
#
# Coordination Sequence:
#
# PCOD9554128 Si02
#       5
#    16  16  16  16  16
#     4   9  18  35  57  83 118 155 194 246 304 361
#     4  10  19  36  57  84 117 157 196 248 303 352
#     4  10  21  36  57  87 119 155 202 247 293 358
#     4   9  19  37  58  82 116 155 196 242 294 352
#     4   9  19  38  57  87 114 152 200 249 300 355
#
# _framework density 21.185369000000001
#
# number of rings (size 3 to 8) (size 9 to 14) (size 15 to 20)
#    0.000    2.600    0.000    1.200    0.000    2.400 
#   21.600    4.000    0.000   12.000    0.000    0.000 
#    0.000    0.000    0.000    0.000    0.000    0.000 
#
# Total GULP energy -222766.696332 kJ/mol
# GULP energy per Si atom -5569.167408 kJ/mol
# Density = 2.113715 g / cm^3
# Si number density = 21.185369 Si / 1000 Ang^3
#
#
#
# Elastic Constant Matrix: (Units=GPa)
#
#
# Indices 1 2 3 4 5 6 
#
# 1 85.5623 39.5274 17.3027 0.0000 0.0000 0.0000
# 2 39.5274 85.5623 17.3027 0.0000 0.0000 0.0000
# 3 17.3027 17.3027 54.6144 0.0000 0.0000 0.0000
# 4 0.0000 0.0000 0.0000 13.3335 0.0000 0.0000
# 5 0.0000 0.0000 0.0000 0.0000 13.3335 0.0000
# 6 0.0000 0.0000 0.0000 0.0000 0.0000 9.1755
#
#
#
# Elastic Compliance Matrix: (Units=1/GPa)
#
#
# Indices 1 2 3 4 5 6 
#
# 1 0.015242 -0.006480 -0.002776 0.000000 0.000000 0.000000
# 2 -0.006480 0.015242 -0.002776 0.000000 0.000000 0.000000
# 3 -0.002776 -0.002776 0.020069 0.000000 0.000000 0.000000
# 4 0.000000 0.000000 0.000000 0.074999 0.000000 0.000000
# 5 0.000000 0.000000 0.000000 0.000000 0.074999 0.000000
# 6 0.000000 0.000000 0.000000 0.000000 0.000000 0.108985
#
#
# Mechanical properties :
#
#
# Convention : Reuss Voigt Hill
#
# Bulk Modulus (GPa) = 37.75067 41.55604 39.65335
# Shear Modulus (GPa) = 14.60143 17.27559 15.93851
#
# Velocity S-wave (km/s) = 2.62815 2.85870 2.74585
# Velocity P-wave (km/s) = 5.20264 5.52759 5.36758
#
# Compressibility (1/GPa) = 0.02648959
#
# Stress axis : x y z
#
# Youngs Moduli (GPa) = 65.60635 65.60635 49.82771
#
# Poissons Ratio (x) = 0.42514 0.13832
# Poissons Ratio (y) = 0.42514 0.13832
# Poissons Ratio (z) = 0.18212 0.18212
#
# Static dielectric constant tensor:
#      x y z
#    x 1.822390 0.000000 0.000000 
#    y 0.000000 1.822390 0.000000 
#    z 0.000000 0.000000 1.719400 
# 
# From -- ./inp_files/591.got.cif
#   From: 2010.05.17/outbox.cif.g08.bks.cpg/sg109_1_cif.got.tgz:591.got - 2010.05.20 10:51:12.
