data_PCOD9554381
_publ_section_title
;
Structure prediction by ZEFSAII (Michael W. Deem and Ramdas Pophale) SiO2 
 PCOD9554381
Probable space group: I 41 C D
;
_chemical_formula_sum "Si O2"
_cell_formula_units_Z 120
_cell_length_a 20.450309
_cell_length_b 20.450309
_cell_length_c 14.448720
_cell_angle_alpha 90.000000
_cell_angle_beta 90.000000
_cell_angle_gamma 90.000000
_cell_volume 6042.673432
_symmetry_space_group_name_H-M "I 41 C D"
_symmetry_group_IT_number 110
_symmetry_cell_setting 'tetragonal'
loop_
_space_group_symop_operation_xyz
x,y,z
-y,1/2+x,1/4+z
-x,-y,z
y,1/2-x,1/4+z
-x,y,1/2+z
x,-y,1/2+z
1/2-y,-x,1/4+z
1/2+y,x,1/4+z
1/2+x,1/2+y,1/2+z
1/2-y,x,3/4+z
1/2-x,1/2-y,1/2+z
1/2+y,-x,3/4+z
1/2-x,1/2+y,z
1/2+x,1/2-y,z
-y,1/2-x,3/4+z
y,1/2+x,3/4+z
loop_
_atom_site_type_symbol
_atom_site_label
_atom_site_fract_x
_atom_site_fract_y
_atom_site_fract_z
Si Si1 0.380124 0.666096 0.893920
Si Si2 0.000000 0.000000 0.771834
Si Si3 0.848360 0.525363 0.699456
Si Si4 0.563722 0.876596 0.107985
Si Si5 0.882291 0.316426 0.456796
Si Si6 0.064151 0.070066 0.608265
Si Si7 0.294342 0.533657 0.202787
Si Si8 0.349137 0.465131 0.508980
O O1 0.459330 0.658014 0.889439
O O2 0.343524 0.655001 0.796547
O O3 0.366924 0.740977 0.928990
O O4 0.360180 0.605321 0.961525
O O5 0.973192 0.944409 0.703038
O O6 0.059824 0.979723 0.835107
O O7 0.872615 0.590601 0.649682
O O8 0.898120 0.516891 0.783538
O O9 0.777836 0.539804 0.739021
O O10 0.520102 0.834888 0.180143
O O11 0.578536 0.841580 0.011962
O O12 0.882970 0.372959 0.377638
O O13 0.960057 0.316182 0.477481
O O14 0.091949 0.002096 0.565168
O O15 0.297486 0.541980 0.092533
#
# Coordination Sequence:
#
# PCOD9554381 Si02
#       8
#    16   8  16  16  16  16  16  16
#     4  11  21  41  61  91 120 167 207 257 311 385
#     4  12  18  32  64  92 122 148 194 256 324 350
#     4  10  23  37  61  92 118 161 207 248 328 365
#     4  11  20  36  62  90 122 154 201 266 305 373
#     4  10  21  41  61  87 126 163 212 247 314 376
#     4  10  20  37  60  97 121 156 200 265 310 373
#     4  10  21  42  57  88 126 158 201 261 310 373
#     4  10  19  38  62  83 123 157 202 257 304 360
#
# _framework density 19.858758999999999
#
# number of rings (size 3 to 8) (size 9 to 14) (size 15 to 20)
#    0.000    1.600    4.000    2.400    0.000    2.133 
#   14.400    1.333    0.000    0.000    0.000    0.000 
#    0.000    0.000    0.000    0.000    0.000    0.000 
#
# Total GULP energy -334211.827871 kJ/mol
# GULP energy per Si atom -5570.197131 kJ/mol
# Density = 1.981356 g / cm^3
# Si number density = 19.858759 Si / 1000 Ang^3
#
#
#
# Elastic Constant Matrix: (Units=GPa)
#
#
# Indices 1 2 3 4 5 6 
#
# 1 67.9525 23.2806 24.8253 0.0000 0.0000 0.0000
# 2 23.2806 67.9525 24.8253 0.0000 0.0000 0.0000
# 3 24.8253 24.8253 72.3100 0.0000 0.0000 0.0000
# 4 0.0000 0.0000 0.0000 18.9391 0.0000 0.0000
# 5 0.0000 0.0000 0.0000 0.0000 18.9391 0.0000
# 6 0.0000 0.0000 0.0000 0.0000 0.0000 14.2030
#
#
#
# Elastic Compliance Matrix: (Units=1/GPa)
#
#
# Indices 1 2 3 4 5 6 
#
# 1 0.017932 -0.004453 -0.004628 0.000000 0.000000 0.000000
# 2 -0.004453 0.017932 -0.004628 0.000000 0.000000 0.000000
# 3 -0.004628 -0.004628 0.017007 0.000000 0.000000 0.000000
# 4 0.000000 0.000000 0.000000 0.052801 0.000000 0.000000
# 5 0.000000 0.000000 0.000000 0.000000 0.052801 0.000000
# 6 0.000000 0.000000 0.000000 0.000000 0.000000 0.070408
#
#
# Mechanical properties :
#
#
# Convention : Reuss Voigt Hill
#
# Bulk Modulus (GPa) = 39.28524 39.34193 39.31359
# Shear Modulus (GPa) = 18.88341 19.43518 19.15930
#
# Velocity S-wave (km/s) = 3.08699 3.13177 3.10946
# Velocity P-wave (km/s) = 5.70362 5.73857 5.72112
#
# Compressibility (1/GPa) = 0.02545485
#
# Stress axis : x y z
#
# Youngs Moduli (GPa) = 55.76496 55.76496 58.79974
#
# Poissons Ratio (x) = 0.24832 0.27211
# Poissons Ratio (y) = 0.24832 0.27211
# Poissons Ratio (z) = 0.25806 0.25806
#
# Static dielectric constant tensor:
#      x y z
#    x 1.722110 0.000000 0.000000 
#    y 0.000000 1.722110 0.000000 
#    z 0.000000 0.000000 1.741430 
# 
# From -- ./inp_files/1394.got.cif
#   From: 2010.05.17/outbox.cif.g08.bks.cpg/sg110_1_cif.got.tgz:1394.got - 2010.05.20 10:54:03.
