data_PCOD9554249
_publ_section_title
;
Structure prediction by ZEFSAII (Michael W. Deem and Ramdas Pophale) SiO2 
 PCOD9554249
Probable space group: I 41 M D
;
_chemical_formula_sum "Si O2"
_cell_formula_units_Z 116
_cell_length_a 25.805281
_cell_length_b 25.805281
_cell_length_c 9.544603
_cell_angle_alpha 90.000000
_cell_angle_beta 90.000000
_cell_angle_gamma 90.000000
_cell_volume 6355.870708
_symmetry_space_group_name_H-M "I 41 M D"
_symmetry_group_IT_number 109
_symmetry_cell_setting 'tetragonal'
loop_
_space_group_symop_operation_xyz
x,y,z
-y,1/2+x,1/4+z
-x,-y,z
y,1/2-x,1/4+z
-x,y,z
x,-y,z
-y,1/2-x,1/4+z
y,1/2+x,1/4+z
1/2+x,1/2+y,1/2+z
1/2-y,x,3/4+z
1/2-x,1/2-y,1/2+z
1/2+y,-x,3/4+z
1/2-x,1/2+y,1/2+z
1/2+x,1/2-y,1/2+z
1/2-y,-x,3/4+z
1/2+y,x,3/4+z
loop_
_atom_site_type_symbol
_atom_site_label
_atom_site_fract_x
_atom_site_fract_y
_atom_site_fract_z
Si Si1 0.704549 0.758680 0.968180
Si Si2 0.647582 0.219872 0.354348
Si Si3 0.780497 0.058613 0.380803
Si Si4 0.939701 0.841741 0.642269
Si Si5 0.057029 0.892302 0.348478
Si Si6 0.658499 0.617274 0.673546
Si Si7 0.000000 0.500000 0.591677
Si Si8 0.149016 0.844488 0.860043
O O1 0.717566 0.750937 0.807269
O O2 0.658957 0.799333 0.977463
O O3 0.698202 0.701894 0.038913
O O4 0.600826 0.205970 0.249555
O O5 0.650463 0.281838 0.370419
O O6 0.640025 0.194945 0.505369
O O7 0.719034 0.066918 0.353294
O O8 0.815224 0.066599 0.242111
O O9 0.786710 0.000000 0.432952
O O10 0.927534 0.875221 0.504818
O O11 0.903424 0.855456 0.772556
O O12 0.000000 0.849898 0.677181
O O13 0.102264 0.876545 0.243401
O O14 0.000000 0.867209 0.319393
O O15 0.044387 0.953412 0.342290
O O16 0.653028 0.626534 0.507963
#
# Coordination Sequence:
#
# PCOD9554249 Si02
#       8
#    16  16  16  16  16  16   4  16
#     4  12  23  36  58  93 135 175 217 262 320 385
#     4  11  21  40  57  87 127 176 223 257 311 375
#     4  10  22  38  62  83 121 172 217 261 313 376
#     4   9  19  40  62  87 116 156 209 263 320 376
#     4   9  21  41  69  89 115 153 213 265 316 383
#     4  12  25  35  60  95 129 165 209 257 327 380
#     4   8  20  44  76  94 104 152 224 274 320 380
#     4  11  24  34  57  89 129 168 203 265 313 379
#
# _framework density 18.250843
#
# number of rings (size 3 to 8) (size 9 to 14) (size 15 to 20)
#    0.414    1.103    2.759    2.483    4.828    0.552 
#    0.000    0.690    1.517    0.828    0.000    0.000 
#    0.000    0.000    0.000    0.000    0.000    0.000 
#
# Total GULP energy -322883.324699 kJ/mol
# GULP energy per Si atom -5566.953874 kJ/mol
# Density = 1.820930 g / cm^3
# Si number density = 18.250843 Si / 1000 Ang^3
#
#
#
# Elastic Constant Matrix: (Units=GPa)
#
#
# Indices 1 2 3 4 5 6 
#
# 1 86.6046 39.2123 50.4534 0.0000 0.0000 0.0000
# 2 39.2123 86.6046 50.4534 0.0000 0.0000 0.0000
# 3 50.4534 50.4534 131.1614 0.0000 0.0000 0.0000
# 4 0.0000 0.0000 0.0000 20.1906 0.0000 0.0000
# 5 0.0000 0.0000 0.0000 0.0000 20.1906 0.0000
# 6 0.0000 0.0000 0.0000 0.0000 0.0000 18.3679
#
#
#
# Elastic Compliance Matrix: (Units=1/GPa)
#
#
# Indices 1 2 3 4 5 6 
#
# 1 0.016297 -0.004803 -0.004421 0.000000 0.000000 0.000000
# 2 -0.004803 0.016297 -0.004421 0.000000 0.000000 0.000000
# 3 -0.004421 -0.004421 0.011026 0.000000 0.000000 0.000000
# 4 0.000000 0.000000 0.000000 0.049528 0.000000 0.000000
# 5 0.000000 0.000000 0.000000 0.000000 0.049528 0.000000
# 6 0.000000 0.000000 0.000000 0.000000 0.000000 0.054443
#
#
# Mechanical properties :
#
#
# Convention : Reuss Voigt Hill
#
# Bulk Modulus (GPa) = 61.24334 64.95655 63.09994
# Shear Modulus (GPa) = 21.75296 22.69992 22.22644
#
# Velocity S-wave (km/s) = 3.45612 3.53054 3.49353
# Velocity P-wave (km/s) = 7.03958 7.23104 7.13595
#
# Compressibility (1/GPa) = 0.01632831
#
# Stress axis : x y z
#
# Youngs Moduli (GPa) = 61.35992 61.35992 90.69704
#
# Poissons Ratio (x) = 0.29472 0.40101
# Poissons Ratio (y) = 0.29472 0.40101
# Poissons Ratio (z) = 0.27130 0.27130
#
# Static dielectric constant tensor:
#      x y z
#    x 1.672320 0.000000 0.000000 
#    y 0.000000 1.672320 0.000000 
#    z 0.000000 0.000000 1.629660 
# 
# From -- ./inp_files/1578.got.cif
#   From: 2010.05.17/outbox.cif.g08.bks.cpg/sg109_1_cif.got.tgz:1578.got - 2010.05.20 10:51:12.
