data_PCOD9554697
_publ_section_title
;
Structure prediction by ZEFSAII (Michael W. Deem and Ramdas Pophale) SiO2 
 PCOD9554697
Probable space group: P -4 2 M 
;
_chemical_formula_sum "Si O2"
_cell_formula_units_Z 48
_cell_length_a 13.431699
_cell_length_b 13.431699
_cell_length_c 15.668708
_cell_angle_alpha 90.000000
_cell_angle_beta 90.000000
_cell_angle_gamma 90.000000
_cell_volume 2826.800040
_symmetry_space_group_name_H-M "P -4 2 M "
_symmetry_group_IT_number 111
_symmetry_cell_setting 'tetragonal'
loop_
_space_group_symop_operation_xyz
x,y,z
y,-x,-z
-x,-y,z
-y,x,-z
x,-y,-z
-x,y,-z
-y,-x,z
y,x,z
loop_
_atom_site_type_symbol
_atom_site_label
_atom_site_fract_x
_atom_site_fract_y
_atom_site_fract_z
Si Si1 0.558413 0.105376 0.166254
Si Si2 0.797820 0.359728 0.855959
Si Si3 0.867780 0.699366 0.678822
Si Si4 0.738207 0.098025 0.692821
Si Si5 0.892187 0.732187 0.972962
Si Si6 0.279737 0.884916 0.507017
O O1 0.477496 0.188217 0.141104
O O2 0.609744 0.135329 0.254696
O O3 0.645553 0.095829 0.096621
O O4 0.500000 0.000000 0.171776
O O5 0.688482 0.311519 0.847275
O O6 0.861431 0.319793 0.775023
O O7 0.844909 0.315452 0.942024
O O8 0.781830 0.781830 0.692728
O O9 0.861663 0.661841 0.580229
O O10 0.978577 0.745822 0.692961
O O11 0.843612 0.156389 0.691815
O O12 0.682272 0.127530 0.603909
O O13 0.818682 0.818682 0.941701
O O14 0.000000 0.772107 0.000000
O O15 0.182840 0.817161 0.500428
O O16 0.252095 0.000000 0.500000
#
# Coordination Sequence:
#
# PCOD9554697 Si02
#       6
#     8   8   8   8   8   8
#     4  12  21  35  57  77 107 143 185 221 270 322
#     4  10  21  35  54  77 103 136 183 224 265 319
#     4  10  19  31  48  76 106 140 182 227 271 322
#     4   9  16  30  49  73 107 147 178 215 268 330
#     4  11  22  36  56  84 111 142 177 218 268 329
#     4   8  15  26  43  66 102 142 177 216 263 318
#
# _framework density 16.980331
#
# number of rings (size 3 to 8) (size 9 to 14) (size 15 to 20)
#    0.000    2.000    3.333    1.000    0.000    0.667 
#    0.000    4.167    0.000    7.000    0.000    4.667 
#    0.000    0.000    0.000   16.667    0.667    2.500 
#
# Total GULP energy -267280.242612 kJ/mol
# GULP energy per Si atom -5568.338388 kJ/mol
# Density = 1.694168 g / cm^3
# Si number density = 16.980331 Si / 1000 Ang^3
#
#
#
# Elastic Constant Matrix: (Units=GPa)
#
#
# Indices 1 2 3 4 5 6 
#
# 1 60.0251 39.8648 15.2021 0.0000 0.0000 0.0000
# 2 39.8648 60.0270 15.2023 0.0000 0.0000 0.0000
# 3 15.2021 15.2023 90.6912 0.0000 0.0000 0.0000
# 4 0.0000 0.0000 0.0000 19.9470 0.0000 0.0000
# 5 0.0000 0.0000 0.0000 0.0000 19.9474 0.0000
# 6 0.0000 0.0000 0.0000 0.0000 0.0000 20.3699
#
#
#
# Elastic Compliance Matrix: (Units=1/GPa)
#
#
# Indices 1 2 3 4 5 6 
#
# 1 0.030075 -0.019526 -0.001768 0.000000 0.000000 0.000000
# 2 -0.019526 0.030074 -0.001768 0.000000 0.000000 0.000000
# 3 -0.001768 -0.001768 0.011619 0.000000 0.000000 0.000000
# 4 0.000000 0.000000 0.000000 0.050133 0.000000 0.000000
# 5 0.000000 0.000000 0.000000 0.000000 0.050132 0.000000
# 6 0.000000 0.000000 0.000000 0.000000 0.000000 0.049092
#
#
# Mechanical properties :
#
#
# Convention : Reuss Voigt Hill
#
# Bulk Modulus (GPa) = 38.99499 39.03131 39.01315
# Shear Modulus (GPa) = 18.12924 21.41782 19.77353
#
# Velocity S-wave (km/s) = 3.27105 3.55537 3.41617
# Velocity P-wave (km/s) = 6.10582 6.31588 6.21174
#
# Compressibility (1/GPa) = 0.02564432
#
# Stress axis : x y z
#
# Youngs Moduli (GPa) = 33.25004 33.25107 86.06404
#
# Poissons Ratio (x) = 0.64924 0.15219
# Poissons Ratio (y) = 0.64922 0.15219
# Poissons Ratio (z) = 0.05880 0.05880
#
# Static dielectric constant tensor:
#      x y z
#    x 1.563570 0.000000 0.000000 
#    y 0.000000 1.563570 0.000000 
#    z 0.000000 0.000000 1.637670 
# 
# From -- ./inp_files/3297.got.cif
#   From: 2010.05.17/outbox.cif.g08.bks.cpg/sg111_2_cif.got.tgz:3297.got - 2010.05.20 10:56:05.
