data_PCOD9554494
_publ_section_title
;
Structure prediction by ZEFSAII (Michael W. Deem and Ramdas Pophale) SiO2 
 PCOD9554494
Probable space group: I 41 C D
;
_chemical_formula_sum "Si O2"
_cell_formula_units_Z 88
_cell_length_a 10.817964
_cell_length_b 10.817964
_cell_length_c 31.563402
_cell_angle_alpha 90.000000
_cell_angle_beta 90.000000
_cell_angle_gamma 90.000000
_cell_volume 3693.812702
_symmetry_space_group_name_H-M "I 41 C D"
_symmetry_group_IT_number 110
_symmetry_cell_setting 'tetragonal'
loop_
_space_group_symop_operation_xyz
x,y,z
-y,1/2+x,1/4+z
-x,-y,z
y,1/2-x,1/4+z
-x,y,1/2+z
x,-y,1/2+z
1/2-y,-x,1/4+z
1/2+y,x,1/4+z
1/2+x,1/2+y,1/2+z
1/2-y,x,3/4+z
1/2-x,1/2-y,1/2+z
1/2+y,-x,3/4+z
1/2-x,1/2+y,z
1/2+x,1/2-y,z
-y,1/2-x,3/4+z
y,1/2+x,3/4+z
loop_
_atom_site_type_symbol
_atom_site_label
_atom_site_fract_x
_atom_site_fract_y
_atom_site_fract_z
Si Si1 0.764750 0.782404 0.441200
Si Si2 0.771493 0.601036 0.030385
Si Si3 0.500000 0.500000 0.323953
Si Si4 0.029322 0.854966 0.465625
Si Si5 0.793319 0.807921 0.349586
Si Si6 0.906716 0.102617 0.558989
O O1 0.733558 0.865949 0.481670
O O2 0.664959 0.672996 0.447187
O O3 0.734627 0.833671 0.394853
O O4 0.915418 0.775062 0.445914
O O5 0.909739 0.585949 0.046834
O O6 0.697461 0.699694 0.059753
O O7 0.707649 0.470329 0.037792
O O8 0.593692 0.405083 0.346893
O O9 0.036275 0.835453 0.516786
O O10 0.000000 0.000000 0.459188
O O11 0.831434 0.662074 0.347584
O O12 0.000000 0.000000 0.575108
#
# Coordination Sequence:
#
# PCOD9554494 Si02
#       6
#    16  16   8  16  16  16
#     4  12  27  46  79 112 153 205 266 316 400 476
#     4  11  24  46  74 109 146 201 249 313 391 467
#     4  10  28  46  76 106 158 192 260 318 396 468
#     4  11  25  48  73 108 154 204 253 321 391 463
#     4  11  27  45  73 113 144 204 253 321 393 471
#     4  10  21  44  70 101 147 196 250 308 386 457
#
# _framework density 23.823620999999999
#
# number of rings (size 3 to 8) (size 9 to 14) (size 15 to 20)
#    0.000    1.091    5.455    0.000   11.455    0.000 
#    0.000    0.000    4.000    0.000    0.000    0.000 
#    0.000    0.000    0.000    0.000    0.000    0.000 
#
# Total GULP energy -245339.203107 kJ/mol
# GULP energy per Si atom -5575.890980 kJ/mol
# Density = 2.376940 g / cm^3
# Si number density = 23.823621 Si / 1000 Ang^3
#
#
#
# Elastic Constant Matrix: (Units=GPa)
#
#
# Indices 1 2 3 4 5 6 
#
# 1 102.7428 44.0208 35.8109 0.0000 0.0000 0.0000
# 2 44.0208 102.7428 35.8109 0.0000 0.0000 0.0000
# 3 35.8109 35.8109 124.6434 0.0000 0.0000 0.0000
# 4 0.0000 0.0000 0.0000 4.1043 0.0000 0.0000
# 5 0.0000 0.0000 0.0000 0.0000 4.1043 0.0000
# 6 0.0000 0.0000 0.0000 0.0000 0.0000 66.3151
#
#
#
# Elastic Compliance Matrix: (Units=1/GPa)
#
#
# Indices 1 2 3 4 5 6 
#
# 1 0.012477 -0.004552 -0.002277 0.000000 0.000000 0.000000
# 2 -0.004552 0.012477 -0.002277 0.000000 0.000000 0.000000
# 3 -0.002277 -0.002277 0.009331 0.000000 0.000000 0.000000
# 4 0.000000 0.000000 0.000000 0.243649 0.000000 0.000000
# 5 0.000000 0.000000 0.000000 0.000000 0.243649 0.000000
# 6 0.000000 0.000000 0.000000 0.000000 0.000000 0.015080
#
#
# Mechanical properties :
#
#
# Convention : Reuss Voigt Hill
#
# Bulk Modulus (GPa) = 62.21461 62.37937 62.29699
# Shear Modulus (GPa) = 8.92486 29.20382 19.06434
#
# Velocity S-wave (km/s) = 1.93762 3.50499 2.83190
# Velocity P-wave (km/s) = 5.58365 6.52845 6.07445
#
# Compressibility (1/GPa) = 0.01607340
#
# Stress axis : x y z
#
# Youngs Moduli (GPa) = 80.14691 80.14691 107.16735
#
# Poissons Ratio (x) = 0.36485 0.24400
# Poissons Ratio (y) = 0.36485 0.24400
# Poissons Ratio (z) = 0.18248 0.18248
#
# Static dielectric constant tensor:
#      x y z
#    x 2.020420 0.000000 0.000000 
#    y 0.000000 2.020420 0.000000 
#    z 0.000000 0.000000 1.918300 
# 
# From -- ./inp_files/3160.got.cif
#   From: 2010.05.17/outbox.cif.g08.bks.cpg/sg110_2_cif.got.tgz:3160.got - 2010.05.20 10:54:03.
