data_PCOD9554387
_publ_section_title
;
Structure prediction by ZEFSAII (Michael W. Deem and Ramdas Pophale) SiO2 
 PCOD9554387
Probable space group: I 41 C D
;
_chemical_formula_sum "Si O2"
_cell_formula_units_Z 88
_cell_length_a 15.451154
_cell_length_b 15.451154
_cell_length_c 16.087960
_cell_angle_alpha 90.000000
_cell_angle_beta 90.000000
_cell_angle_gamma 90.000000
_cell_volume 3840.809967
_symmetry_space_group_name_H-M "I 41 C D"
_symmetry_group_IT_number 110
_symmetry_cell_setting 'tetragonal'
loop_
_space_group_symop_operation_xyz
x,y,z
-y,1/2+x,1/4+z
-x,-y,z
y,1/2-x,1/4+z
-x,y,1/2+z
x,-y,1/2+z
1/2-y,-x,1/4+z
1/2+y,x,1/4+z
1/2+x,1/2+y,1/2+z
1/2-y,x,3/4+z
1/2-x,1/2-y,1/2+z
1/2+y,-x,3/4+z
1/2-x,1/2+y,z
1/2+x,1/2-y,z
-y,1/2-x,3/4+z
y,1/2+x,3/4+z
loop_
_atom_site_type_symbol
_atom_site_label
_atom_site_fract_x
_atom_site_fract_y
_atom_site_fract_z
Si Si1 0.129054 0.500840 0.990050
Si Si2 0.218436 0.205562 0.993429
Si Si3 0.000000 0.500000 0.143414
Si Si4 0.384445 0.194669 0.918913
Si Si5 0.525587 0.187660 0.169845
Si Si6 0.821334 0.054274 0.228253
O O1 0.291022 0.656571 0.079934
O O2 0.113535 0.593697 0.946717
O O3 0.231584 0.485808 0.970692
O O4 0.076158 0.419649 0.954067
O O5 0.315922 0.238454 0.981200
O O6 0.200368 0.128841 0.928160
O O7 0.145567 0.275166 0.981129
O O8 0.997120 0.589294 0.194876
O O9 0.914930 0.495817 0.082306
O O10 0.483254 0.222974 0.920569
O O11 0.511003 0.187561 0.070283
#
# Coordination Sequence:
#
# PCOD9554387 Si02
#       6
#    16  16   8  16  16  16
#     4  10  19  40  73  90 134 184 229 286 355 411
#     4  11  24  44  65 102 143 174 237 298 342 435
#     4  10  20  42  72 100 140 190 226 300 362 416
#     4  11  23  44  70  95 142 184 228 299 358 417
#     4  10  22  42  67  99 138 177 235 285 350 431
#     4  11  22  44  70  97 136 189 234 289 356 428
#
# _framework density 22.911833000000001
#
# number of rings (size 3 to 8) (size 9 to 14) (size 15 to 20)
#    0.000    1.455    7.273    0.000    0.000    7.273 
#    6.545    0.000    0.000    0.000    0.000    0.000 
#    0.000    0.000    0.000    0.000    0.000    0.000 
#
# Total GULP energy -245378.069401 kJ/mol
# GULP energy per Si atom -5576.774305 kJ/mol
# Density = 2.285968 g / cm^3
# Si number density = 22.911833 Si / 1000 Ang^3
#
#
#
# Elastic Constant Matrix: (Units=GPa)
#
#
# Indices 1 2 3 4 5 6 
#
# 1 125.4437 18.9881 17.6437 0.0000 0.0000 0.0000
# 2 18.9881 125.4437 17.6437 0.0000 0.0000 0.0000
# 3 17.6437 17.6437 54.6107 0.0000 0.0000 0.0000
# 4 0.0000 0.0000 0.0000 23.0113 0.0000 0.0000
# 5 0.0000 0.0000 0.0000 0.0000 23.0113 0.0000
# 6 0.0000 0.0000 0.0000 0.0000 0.0000 20.0987
#
#
#
# Elastic Compliance Matrix: (Units=1/GPa)
#
#
# Indices 1 2 3 4 5 6 
#
# 1 0.008455 -0.000938 -0.002429 0.000000 0.000000 0.000000
# 2 -0.000938 0.008455 -0.002429 0.000000 0.000000 0.000000
# 3 -0.002429 -0.002429 0.019881 0.000000 0.000000 0.000000
# 4 0.000000 0.000000 0.000000 0.043457 0.000000 0.000000
# 5 0.000000 0.000000 0.000000 0.000000 0.043457 0.000000
# 6 0.000000 0.000000 0.000000 0.000000 0.000000 0.049754
#
#
# Mechanical properties :
#
#
# Convention : Reuss Voigt Hill
#
# Bulk Modulus (GPa) = 39.68203 46.00546 42.84375
# Shear Modulus (GPa) = 25.84638 29.97243 27.90941
#
# Velocity S-wave (km/s) = 3.36233 3.62078 3.49395
# Velocity P-wave (km/s) = 5.69480 6.13213 5.91751
#
# Compressibility (1/GPa) = 0.02520032
#
# Stress axis : x y z
#
# Youngs Moduli (GPa) = 118.26881 118.26881 50.30000
#
# Poissons Ratio (x) = 0.11097 0.12216
# Poissons Ratio (y) = 0.11097 0.12216
# Poissons Ratio (z) = 0.28723 0.28723
#
# Static dielectric constant tensor:
#      x y z
#    x 1.935850 0.000000 0.000000 
#    y 0.000000 1.935850 0.000000 
#    z 0.000000 0.000000 1.897720 
# 
# From -- ./inp_files/2912.got.cif
#   From: 2010.05.17/outbox.cif.g08.bks.cpg/sg110_2_cif.got.tgz:2912.got - 2010.05.20 10:54:03.
