data_PCOD9554414
_publ_section_title
;
Structure prediction by ZEFSAII (Michael W. Deem and Ramdas Pophale) SiO2 
 PCOD9554414
Probable space group: I 41 C D
;
_chemical_formula_sum "Si O2"
_cell_formula_units_Z 128
_cell_length_a 19.615189
_cell_length_b 19.615189
_cell_length_c 17.708006
_cell_angle_alpha 90.000000
_cell_angle_beta 90.000000
_cell_angle_gamma 90.000000
_cell_volume 6813.255173
_symmetry_space_group_name_H-M "I 41 C D"
_symmetry_group_IT_number 110
_symmetry_cell_setting 'tetragonal'
loop_
_space_group_symop_operation_xyz
x,y,z
-y,1/2+x,1/4+z
-x,-y,z
y,1/2-x,1/4+z
-x,y,1/2+z
x,-y,1/2+z
1/2-y,-x,1/4+z
1/2+y,x,1/4+z
1/2+x,1/2+y,1/2+z
1/2-y,x,3/4+z
1/2-x,1/2-y,1/2+z
1/2+y,-x,3/4+z
1/2-x,1/2+y,z
1/2+x,1/2-y,z
-y,1/2-x,3/4+z
y,1/2+x,3/4+z
loop_
_atom_site_type_symbol
_atom_site_label
_atom_site_fract_x
_atom_site_fract_y
_atom_site_fract_z
Si Si1 0.582176 0.738592 0.110190
Si Si2 0.605480 0.005914 0.919651
Si Si3 0.196452 0.553154 0.038138
Si Si4 0.086722 0.265543 0.432520
Si Si5 0.731838 0.299210 0.585324
Si Si6 0.005862 0.604545 0.873472
Si Si7 0.307390 0.560108 0.504983
Si Si8 0.810537 0.238347 0.705799
O O1 0.535429 0.674558 0.133473
O O2 0.661406 0.721705 0.126531
O O3 0.564449 0.802117 0.164465
O O4 0.577532 0.750390 0.020862
O O5 0.567385 0.949442 0.868789
O O6 0.551919 0.067981 0.924246
O O7 0.626312 0.968976 0.998078
O O8 0.202181 0.574535 0.125731
O O9 0.246146 0.489471 0.028698
O O10 0.229508 0.614390 0.989162
O O11 0.036565 0.326867 0.409178
O O12 0.164330 0.290764 0.421714
O O13 0.712137 0.368095 0.542640
O O14 0.793480 0.296526 0.644930
O O15 0.748068 0.241545 0.524323
O O16 0.970201 0.625600 0.794704
#
# Coordination Sequence:
#
# PCOD9554414 Si02
#       8
#    16  16  16  16  16  16  16  16
#     4  10  21  37  60  90 118 155 204 263 317 375
#     4  10  20  38  61  83 120 169 208 246 309 387
#     4  10  21  39  58  89 124 156 203 261 314 368
#     4  10  21  37  60  90 118 155 204 263 317 375
#     4  11  20  35  60  92 119 156 204 259 318 377
#     4  10  20  38  61  83 120 169 208 246 309 387
#     4  10  21  39  58  89 124 156 203 261 314 368
#     4  11  20  35  60  92 119 156 204 259 318 377
#
# _framework density 18.786908
#
# number of rings (size 3 to 8) (size 9 to 14) (size 15 to 20)
#    0.000    1.750    5.000    0.000    0.000    0.000 
#    0.000   16.250    0.000    3.000    0.000    0.000 
#    0.000    0.000    0.000    0.000    0.000    0.000 
#
# Total GULP energy -356574.140447 kJ/mol
# GULP energy per Si atom -5571.470944 kJ/mol
# Density = 1.874415 g / cm^3
# Si number density = 18.786908 Si / 1000 Ang^3
#
#
#
# Elastic Constant Matrix: (Units=GPa)
#
#
# Indices 1 2 3 4 5 6 
#
# 1 53.1612 10.8710 30.8016 0.0000 0.0000 0.0000
# 2 10.8710 53.1612 30.8016 0.0000 0.0000 0.0000
# 3 30.8016 30.8016 104.3938 0.0000 0.0000 0.0000
# 4 0.0000 0.0000 0.0000 24.0594 0.0000 0.0000
# 5 0.0000 0.0000 0.0000 0.0000 24.0594 0.0000
# 6 0.0000 0.0000 0.0000 0.0000 0.0000 33.0414
#
#
#
# Elastic Compliance Matrix: (Units=1/GPa)
#
#
# Indices 1 2 3 4 5 6 
#
# 1 0.022727 -0.000919 -0.006434 0.000000 0.000000 0.000000
# 2 -0.000919 0.022727 -0.006434 0.000000 0.000000 0.000000
# 3 -0.006434 -0.006434 0.013376 0.000000 0.000000 0.000000
# 4 0.000000 0.000000 0.000000 0.041564 0.000000 0.000000
# 5 0.000000 0.000000 0.000000 0.000000 0.041564 0.000000
# 6 0.000000 0.000000 0.000000 0.000000 0.000000 0.030265
#
#
# Mechanical properties :
#
#
# Convention : Reuss Voigt Hill
#
# Bulk Modulus (GPa) = 31.99637 39.51829 35.75733
# Shear Modulus (GPa) = 23.78505 25.44817 24.61661
#
# Velocity S-wave (km/s) = 3.56201 3.68444 3.62374
# Velocity P-wave (km/s) = 5.82970 6.25946 6.04840
#
# Compressibility (1/GPa) = 0.03125354
#
# Stress axis : x y z
#
# Youngs Moduli (GPa) = 44.00098 44.00098 74.76062
#
# Poissons Ratio (x) = 0.04045 0.48103
# Poissons Ratio (y) = 0.04045 0.48103
# Poissons Ratio (z) = 0.28312 0.28312
#
# Static dielectric constant tensor:
#      x y z
#    x 1.669380 0.000000 0.000000 
#    y 0.000000 1.669380 0.000000 
#    z 0.000000 0.000000 1.698500 
# 
# From -- ./inp_files/1882.got.cif
#   From: 2010.05.17/outbox.cif.g08.bks.cpg/sg110_1_cif.got.tgz:1882.got - 2010.05.20 10:54:03.
