data_PCOD9554420
_publ_section_title
;
Structure prediction by ZEFSAII (Michael W. Deem and Ramdas Pophale) SiO2 
 PCOD9554420
Probable space group: I 41 C D
;
_chemical_formula_sum "Si O2"
_cell_formula_units_Z 32
_cell_length_a 14.185700
_cell_length_b 14.185700
_cell_length_c 5.736436
_cell_angle_alpha 90.000000
_cell_angle_beta 90.000000
_cell_angle_gamma 90.000000
_cell_volume 1154.366447
_symmetry_space_group_name_H-M "I 41 C D"
_symmetry_group_IT_number 110
_symmetry_cell_setting 'tetragonal'
loop_
_space_group_symop_operation_xyz
x,y,z
-y,1/2+x,1/4+z
-x,-y,z
y,1/2-x,1/4+z
-x,y,1/2+z
x,-y,1/2+z
1/2-y,-x,1/4+z
1/2+y,x,1/4+z
1/2+x,1/2+y,1/2+z
1/2-y,x,3/4+z
1/2-x,1/2-y,1/2+z
1/2+y,-x,3/4+z
1/2-x,1/2+y,z
1/2+x,1/2-y,z
-y,1/2-x,3/4+z
y,1/2+x,3/4+z
loop_
_atom_site_type_symbol
_atom_site_label
_atom_site_fract_x
_atom_site_fract_y
_atom_site_fract_z
Si Si1 0.878704 0.275761 0.947140
Si Si2 0.139627 0.464840 0.210764
O O1 0.825944 0.176795 0.903885
O O2 0.863026 0.353064 0.745145
O O3 0.986019 0.243299 0.966416
O O4 0.099848 0.504752 0.458754
#
# Coordination Sequence:
#
# PCOD9554420 Si02
#       2
#    16  16
#     4  10  20  38  68  96 132 178 230 288 358 432
#     4  10  22  38  64  98 130 170 226 282 346 420
#
# _framework density 27.720831
#
# number of rings (size 3 to 8) (size 9 to 14) (size 15 to 20)
#    0.000    2.000    0.000    3.000    0.000   12.000 
#    0.000    0.000    0.000  195.000    0.000    0.000 
#    0.000    0.000    0.000    0.000    0.000    0.000 
#
# Total GULP energy -89227.901214 kJ/mol
# GULP energy per Si atom -5576.743826 kJ/mol
# Density = 2.765774 g / cm^3
# Si number density = 27.720831 Si / 1000 Ang^3
#
#
#
# Elastic Constant Matrix: (Units=GPa)
#
#
# Indices 1 2 3 4 5 6 
#
# 1 148.7846 102.2423 33.4092 0.0000 0.0000 0.0000
# 2 102.2423 148.7846 33.4092 0.0000 0.0000 0.0000
# 3 33.4092 33.4092 223.7447 0.0000 0.0000 0.0000
# 4 0.0000 0.0000 0.0000 -13.6379 0.0000 0.0000
# 5 0.0000 0.0000 0.0000 0.0000 -13.6379 0.0000
# 6 0.0000 0.0000 0.0000 0.0000 0.0000 -87.9255
#
#
#
# Elastic Compliance Matrix: (Units=1/GPa)
#
#
# Indices 1 2 3 4 5 6 
#
# 1 0.012817 -0.008669 -0.000619 0.000000 0.000000 0.000000
# 2 -0.008669 0.012817 -0.000619 0.000000 0.000000 0.000000
# 3 -0.000619 -0.000619 0.004654 0.000000 0.000000 0.000000
# 4 0.000000 0.000000 0.000000 -0.073325 0.000000 0.000000
# 5 0.000000 0.000000 0.000000 0.000000 -0.073325 0.000000
# 6 0.000000 0.000000 0.000000 0.000000 0.000000 -0.011373
#
#
# Mechanical properties :
#
#
# Convention : Reuss Voigt Hill
#
# Bulk Modulus (GPa) = 95.47806 95.49283 95.48544
# Shear Modulus (GPa) = -47.87968 0.44329 -23.71820
#
# Velocity S-wave (km/s) = -4.16048 0.40032 -2.92825
# Velocity P-wave (km/s) = 3.38202 5.89377 4.80492
#
# Compressibility (1/GPa) = 0.01047361
#
# Stress axis : x y z
#
# Youngs Moduli (GPa) = 78.02029 78.02029 214.85179
#
# Poissons Ratio (x) = 0.67633 0.13309
# Poissons Ratio (y) = 0.67633 0.13309
# Poissons Ratio (z) = 0.04833 0.04833
#
# Static dielectric constant tensor:
#      x y z
#    x 2.135670 0.000000 0.000000 
#    y 0.000000 2.135670 0.000000 
#    z 0.000000 0.000000 2.301560 
# 
# From -- ./inp_files/19.got.cif
#   From: 2010.05.17/outbox.cif.g08.bks.cpg/sg110_1_cif.got.tgz:19.got - 2010.05.20 10:54:03.
