data_PCOD9554363
_publ_section_title
;
Structure prediction by ZEFSAII (Michael W. Deem and Ramdas Pophale) SiO2 
 PCOD9554363
Probable space group: I 41 C D
;
_chemical_formula_sum "Si O2"
_cell_formula_units_Z 112
_cell_length_a 32.753738
_cell_length_b 32.753738
_cell_length_c 5.414607
_cell_angle_alpha 90.000000
_cell_angle_beta 90.000000
_cell_angle_gamma 90.000000
_cell_volume 5808.830203
_symmetry_space_group_name_H-M "I 41 C D"
_symmetry_group_IT_number 110
_symmetry_cell_setting 'tetragonal'
loop_
_space_group_symop_operation_xyz
x,y,z
-y,1/2+x,1/4+z
-x,-y,z
y,1/2-x,1/4+z
-x,y,1/2+z
x,-y,1/2+z
1/2-y,-x,1/4+z
1/2+y,x,1/4+z
1/2+x,1/2+y,1/2+z
1/2-y,x,3/4+z
1/2-x,1/2-y,1/2+z
1/2+y,-x,3/4+z
1/2-x,1/2+y,z
1/2+x,1/2-y,z
-y,1/2-x,3/4+z
y,1/2+x,3/4+z
loop_
_atom_site_type_symbol
_atom_site_label
_atom_site_fract_x
_atom_site_fract_y
_atom_site_fract_z
Si Si1 0.360415 0.897233 0.656560
Si Si2 0.179042 0.903247 0.852611
Si Si3 0.474815 0.238357 0.030016
Si Si4 0.488326 0.372473 0.796884
Si Si5 0.854710 0.700945 0.104771
Si Si6 0.361308 0.706579 0.073521
Si Si7 0.438352 0.311977 0.286570
O O1 0.400165 0.869859 0.626603
O O2 0.362830 0.940598 0.517698
O O3 0.323736 0.869155 0.553095
O O4 0.348942 0.911027 0.930962
O O5 0.191433 0.883143 0.591298
O O6 0.199302 0.947293 0.840869
O O7 0.194381 0.877997 0.094063
O O8 0.507951 0.239403 0.252695
O O9 0.447523 0.278648 0.076318
O O10 0.505731 0.394457 0.557959
O O11 0.517855 0.332619 0.844709
O O12 0.816868 0.669914 0.141066
O O13 0.844291 0.748755 0.126076
O O14 0.407800 0.710545 0.971075
#
# Coordination Sequence:
#
# PCOD9554363 Si02
#       7
#    16  16  16  16  16  16  16
#     4  10  21  36  57  82 116 156 191 239 293 359
#     4  11  23  41  60  84 116 160 199 242 295 363
#     4  12  25  38  58  89 122 155 197 240 298 368
#     4  10  19  30  49  83 111 138 172 226 291 352
#     4  11  24  39  60  82 111 159 211 251 301 342
#     4  11  22  39  56  82 113 160 200 254 296 348
#     4  11  20  33  58  84 119 147 186 243 307 354
#
# _framework density 19.280991
#
# number of rings (size 3 to 8) (size 9 to 14) (size 15 to 20)
#    0.000    1.143    4.286    3.429    2.000    0.000 
#    0.000    2.857    0.000    0.000    0.000    0.000 
#    0.000   13.714    0.000    0.000    0.000    0.000 
#
# Total GULP energy -312050.430915 kJ/mol
# GULP energy per Si atom -5572.329123 kJ/mol
# Density = 1.923711 g / cm^3
# Si number density = 19.280991 Si / 1000 Ang^3
#
#
#
# Elastic Constant Matrix: (Units=GPa)
#
#
# Indices 1 2 3 4 5 6 
#
# 1 41.0557 3.6936 1.6701 0.0000 0.0000 0.0000
# 2 3.6936 41.0557 1.6701 0.0000 0.0000 0.0000
# 3 1.6701 1.6701 84.6355 0.0000 0.0000 0.0000
# 4 0.0000 0.0000 0.0000 23.9300 0.0000 0.0000
# 5 0.0000 0.0000 0.0000 0.0000 23.9300 0.0000
# 6 0.0000 0.0000 0.0000 0.0000 0.0000 26.9486
#
#
#
# Elastic Compliance Matrix: (Units=1/GPa)
#
#
# Indices 1 2 3 4 5 6 
#
# 1 0.024572 -0.002193 -0.000442 0.000000 0.000000 0.000000
# 2 -0.002193 0.024572 -0.000442 0.000000 0.000000 0.000000
# 3 -0.000442 -0.000442 0.011833 0.000000 0.000000 0.000000
# 4 0.000000 0.000000 0.000000 0.041789 0.000000 0.000000
# 5 0.000000 0.000000 0.000000 0.000000 0.041789 0.000000
# 6 0.000000 0.000000 0.000000 0.000000 0.000000 0.037108
#
#
# Mechanical properties :
#
#
# Convention : Reuss Voigt Hill
#
# Bulk Modulus (GPa) = 18.23962 20.09050 19.16506
# Shear Modulus (GPa) = 24.26131 25.60926 24.93528
#
# Velocity S-wave (km/s) = 3.55110 3.64842 3.60009
# Velocity P-wave (km/s) = 5.12779 5.30947 5.21942
#
# Compressibility (1/GPa) = 0.05482571
#
# Stress axis : x y z
#
# Youngs Moduli (GPa) = 40.69605 40.69605 84.51084
#
# Poissons Ratio (x) = 0.08923 0.03732
# Poissons Ratio (y) = 0.08923 0.03732
# Poissons Ratio (z) = 0.01797 0.01797
#
# Static dielectric constant tensor:
#      x y z
#    x 1.694670 0.000000 0.000000 
#    y 0.000000 1.694670 0.000000 
#    z 0.000000 0.000000 1.781100 
# 
# From -- ./inp_files/144.got.cif
#   From: 2010.05.17/outbox.cif.g08.bks.cpg/sg110_1_cif.got.tgz:144.got - 2010.05.20 10:54:03.
