data_PCOD9554591
_publ_section_title
;
Structure prediction by ZEFSAII (Michael W. Deem and Ramdas Pophale) SiO2 
 PCOD9554591
Probable space group: I 41 C D
;
_chemical_formula_sum "Si O2"
_cell_formula_units_Z 112
_cell_length_a 14.096324
_cell_length_b 14.096324
_cell_length_c 27.592293
_cell_angle_alpha 90.000000
_cell_angle_beta 90.000000
_cell_angle_gamma 90.000000
_cell_volume 5482.763839
_symmetry_space_group_name_H-M "I 41 C D"
_symmetry_group_IT_number 110
_symmetry_cell_setting 'tetragonal'
loop_
_space_group_symop_operation_xyz
x,y,z
-y,1/2+x,1/4+z
-x,-y,z
y,1/2-x,1/4+z
-x,y,1/2+z
x,-y,1/2+z
1/2-y,-x,1/4+z
1/2+y,x,1/4+z
1/2+x,1/2+y,1/2+z
1/2-y,x,3/4+z
1/2-x,1/2-y,1/2+z
1/2+y,-x,3/4+z
1/2-x,1/2+y,z
1/2+x,1/2-y,z
-y,1/2-x,3/4+z
y,1/2+x,3/4+z
loop_
_atom_site_type_symbol
_atom_site_label
_atom_site_fract_x
_atom_site_fract_y
_atom_site_fract_z
Si Si1 0.392235 0.305886 0.747390
Si Si2 0.750000 0.250000 0.073722
Si Si3 0.395105 0.895105 0.198722
Si Si4 0.607765 0.194114 0.400054
Si Si5 0.805886 0.392235 0.497390
Si Si6 0.604895 0.895105 0.198722
Si Si7 0.694114 0.607765 0.150054
O O1 0.317335 0.314928 0.790285
O O2 0.388774 0.193653 0.734432
O O3 0.359674 0.359674 0.698722
O O4 0.500000 0.331256 0.760292
O O5 0.685072 0.317335 0.107159
O O6 0.814928 0.182665 0.107159
O O7 0.685072 0.182665 0.040285
O O8 0.500000 0.888724 0.175536
O O9 0.306347 0.888774 0.163012
O O10 0.388724 0.000000 0.221908
O O11 0.611226 0.306347 0.413012
O O12 0.500000 0.168744 0.387153
O O13 0.693653 0.388774 0.484432
O O14 0.859674 0.359674 0.448722
#
# Coordination Sequence:
#
# PCOD9554591 Si02
#       7
#    16  16  16  16  16  16  16
#     4  11  22  40  62  88 127 166 206 256 312 370
#     4  12  20  40  62 100 120 162 212 260 306 364
#     4   9  17  34  60  84 113 161 210 250 300 361
#     4  11  22  40  62  88 127 166 206 256 312 370
#     4  11  22  40  62  88 127 166 206 256 312 370
#     4   9  17  34  60  84 113 161 210 250 300 361
#     4  11  22  40  62  88 127 166 206 256 312 370
#
# _framework density 20.427652999999999
#
# number of rings (size 3 to 8) (size 9 to 14) (size 15 to 20)
#    0.000    1.429    5.714    0.857    0.000    0.571 
#    0.000    5.714    0.000    6.857    0.000    0.000 
#    0.000    0.000    0.000    0.000    0.000    0.000 
#
# Total GULP energy -312445.677647 kJ/mol
# GULP energy per Si atom -5579.387101 kJ/mol
# Density = 2.038116 g / cm^3
# Si number density = 20.427653 Si / 1000 Ang^3
#
#
#
# Elastic Constant Matrix: (Units=GPa)
#
#
# Indices 1 2 3 4 5 6 
#
# 1 124.0196 28.5039 45.0150 0.0000 0.0000 0.0000
# 2 28.5039 124.0196 45.0150 0.0000 0.0000 0.0000
# 3 45.0150 45.0150 102.1621 0.0000 0.0000 0.0000
# 4 0.0000 0.0000 0.0000 2.5778 0.0000 0.0000
# 5 0.0000 0.0000 0.0000 0.0000 2.5778 0.0000
# 6 0.0000 0.0000 0.0000 0.0000 0.0000 20.4783
#
#
#
# Elastic Compliance Matrix: (Units=1/GPa)
#
#
# Indices 1 2 3 4 5 6 
#
# 1 0.009665 -0.000804 -0.003904 0.000000 0.000000 0.000000
# 2 -0.000804 0.009665 -0.003904 0.000000 0.000000 0.000000
# 3 -0.003904 -0.003904 0.013229 0.000000 0.000000 0.000000
# 4 0.000000 0.000000 0.000000 0.387930 0.000000 0.000000
# 5 0.000000 0.000000 0.000000 0.000000 0.387930 0.000000
# 6 0.000000 0.000000 0.000000 0.000000 0.000000 0.048832
#
#
# Mechanical properties :
#
#
# Convention : Reuss Voigt Hill
#
# Bulk Modulus (GPa) = 65.21618 65.25211 65.23415
# Shear Modulus (GPa) = 5.68447 20.57127 13.12787
#
# Velocity S-wave (km/s) = 1.66996 3.17682 2.53781
# Velocity P-wave (km/s) = 5.97605 6.74304 6.37110
#
# Compressibility (1/GPa) = 0.01533362
#
# Stress axis : x y z
#
# Youngs Moduli (GPa) = 103.46359 103.46358 75.59109
#
# Poissons Ratio (x) = 0.08321 0.29513
# Poissons Ratio (y) = 0.08321 0.29513
# Poissons Ratio (z) = 0.40396 0.40396
#
# Static dielectric constant tensor:
#      x y z
#    x 1.744370 0.000000 0.000000 
#    y 0.000000 1.744370 0.000000 
#    z 0.000000 0.000000 1.739310 
# 
# From -- ./inp_files/2643.got.cif
#   From: 2010.05.17/outbox.cif.g08.bks.cpg/sg110_2_cif.got.tgz:2643.got - 2010.05.20 10:54:03.
