data_PCOD9554710
_publ_section_title
;
Structure prediction by ZEFSAII (Michael W. Deem and Ramdas Pophale) SiO2 
 PCOD9554710
Probable space group: P -4 2 M 
;
_chemical_formula_sum "Si O2"
_cell_formula_units_Z 56
_cell_length_a 19.718608
_cell_length_b 19.718608
_cell_length_c 8.775264
_cell_angle_alpha 90.000000
_cell_angle_beta 90.000000
_cell_angle_gamma 90.000000
_cell_volume 3412.028875
_symmetry_space_group_name_H-M "P -4 2 M "
_symmetry_group_IT_number 111
_symmetry_cell_setting 'tetragonal'
loop_
_space_group_symop_operation_xyz
x,y,z
y,-x,-z
-x,-y,z
-y,x,-z
x,-y,-z
-x,y,-z
-y,-x,z
y,x,z
loop_
_atom_site_type_symbol
_atom_site_label
_atom_site_fract_x
_atom_site_fract_y
_atom_site_fract_z
Si Si1 0.338339 0.076986 0.642615
Si Si2 0.320648 0.212670 0.233052
Si Si3 0.779872 0.108714 0.584487
Si Si4 0.570033 0.961915 0.216575
Si Si5 0.835049 0.433242 0.572360
Si Si6 0.177599 0.936920 0.897707
Si Si7 0.674317 0.107212 0.008130
O O1 0.267695 0.076667 0.547018
O O2 0.387445 0.128017 0.553841
O O3 0.378731 0.006636 0.677285
O O4 0.328148 0.104981 0.812024
O O5 0.281841 0.281841 0.224673
O O6 0.271628 0.157989 0.320343
O O7 0.387936 0.215634 0.331294
O O8 0.332194 0.180625 0.067977
O O9 0.841489 0.158512 0.531072
O O10 0.810209 0.057803 0.713803
O O11 0.548553 0.896281 0.312919
O O12 0.615011 0.935864 0.074853
O O13 0.500000 0.000000 0.180418
O O14 0.805259 0.500000 0.500000
O O15 0.126700 0.873301 0.916317
O O16 0.252348 0.921474 0.961823
O O17 0.152303 0.000000 0.000000
#
# Coordination Sequence:
#
# PCOD9554710 Si02
#       7
#     8   8   8   8   8   8   8
#     4  11  20  29  48  71  97 133 170 210 252 305
#     4   8  16  33  51  64  90 129 166 205 251 298
#     4   8  17  33  51  70  92 120 157 206 253 304
#     4  11  21  33  45  66 106 141 174 212 258 313
#     4  10  19  32  46  69  96 133 171 210 253 307
#     4  10  20  37  56  74  98 124 163 214 275 337
#     4  10  21  33  47  71  96 133 172 215 254 308
#
# _framework density 16.412523
#
# number of rings (size 3 to 8) (size 9 to 14) (size 15 to 20)
#    0.000    2.286    1.429    3.857    0.000    3.571 
#    0.000    0.000    0.000    0.000    0.000    0.000 
#    0.000    4.857    0.000    0.000    0.000    0.429 
#
# Total GULP energy -312175.754711 kJ/mol
# GULP energy per Si atom -5574.567048 kJ/mol
# Density = 1.637517 g / cm^3
# Si number density = 16.412523 Si / 1000 Ang^3
#
#
#
# Elastic Constant Matrix: (Units=GPa)
#
#
# Indices 1 2 3 4 5 6 
#
# 1 81.4398 44.8071 43.1844 0.0000 0.0000 0.0000
# 2 44.8071 81.4419 43.1851 0.0000 0.0000 0.0000
# 3 43.1844 43.1851 108.6337 0.0000 0.0000 0.0000
# 4 0.0000 0.0000 0.0000 17.9893 0.0000 0.0000
# 5 0.0000 0.0000 0.0000 0.0000 17.9893 0.0000
# 6 0.0000 0.0000 0.0000 0.0000 0.0000 23.6405
#
#
#
# Elastic Compliance Matrix: (Units=1/GPa)
#
#
# Indices 1 2 3 4 5 6 
#
# 1 0.019089 -0.008209 -0.004325 0.000000 0.000000 0.000000
# 2 -0.008209 0.019088 -0.004325 0.000000 0.000000 0.000000
# 3 -0.004325 -0.004325 0.012644 0.000000 0.000000 0.000000
# 4 0.000000 0.000000 0.000000 0.055588 0.000000 0.000000
# 5 0.000000 0.000000 0.000000 0.000000 0.055589 0.000000
# 6 0.000000 0.000000 0.000000 0.000000 0.000000 0.042300
#
#
# Mechanical properties :
#
#
# Convention : Reuss Voigt Hill
#
# Bulk Modulus (GPa) = 58.46791 59.31873 58.89332
# Shear Modulus (GPa) = 20.51561 21.27974 20.89767
#
# Velocity S-wave (km/s) = 3.53937 3.60468 3.57217
# Velocity P-wave (km/s) = 7.23907 7.31750 7.27839
#
# Compressibility (1/GPa) = 0.01710340
#
# Stress axis : x y z
#
# Youngs Moduli (GPa) = 52.38698 52.38820 79.08982
#
# Poissons Ratio (x) = 0.43004 0.34206
# Poissons Ratio (y) = 0.43003 0.34206
# Poissons Ratio (z) = 0.22657 0.22658
#
# Static dielectric constant tensor:
#      x y z
#    x 1.562460 0.000000 0.000000 
#    y 0.000000 1.562460 0.000000 
#    z 0.000000 0.000000 1.598710 
# 
# From -- ./inp_files/1944.got.cif
#   From: 2010.05.17/outbox.cif.g08.bks.cpg/sg111_1_cif.got.tgz:1944.got - 2010.05.20 10:56:05.
