data_PCOD9554262
_publ_section_title
;
Structure prediction by ZEFSAII (Michael W. Deem and Ramdas Pophale) SiO2 
 PCOD9554262
Probable space group: I 41 M D
;
_chemical_formula_sum "Si O2"
_cell_formula_units_Z 84
_cell_length_a 11.944090
_cell_length_b 11.944090
_cell_length_c 29.058230
_cell_angle_alpha 90.000000
_cell_angle_beta 90.000000
_cell_angle_gamma 90.000000
_cell_volume 4145.484459
_symmetry_space_group_name_H-M "I 41 M D"
_symmetry_group_IT_number 109
_symmetry_cell_setting 'tetragonal'
loop_
_space_group_symop_operation_xyz
x,y,z
-y,1/2+x,1/4+z
-x,-y,z
y,1/2-x,1/4+z
-x,y,z
x,-y,z
-y,1/2-x,1/4+z
y,1/2+x,1/4+z
1/2+x,1/2+y,1/2+z
1/2-y,x,3/4+z
1/2-x,1/2-y,1/2+z
1/2+y,-x,3/4+z
1/2-x,1/2+y,1/2+z
1/2+x,1/2-y,1/2+z
1/2-y,-x,3/4+z
1/2+y,x,3/4+z
loop_
_atom_site_type_symbol
_atom_site_label
_atom_site_fract_x
_atom_site_fract_y
_atom_site_fract_z
Si Si1 0.500000 0.126539 0.859611
Si Si2 0.275030 0.738045 0.721268
Si Si3 0.815121 0.800052 0.368116
Si Si4 0.500000 0.500000 0.872688
Si Si5 0.000000 0.366962 0.105714
Si Si6 0.000000 0.625978 0.471426
Si Si7 0.368257 0.733333 0.305888
Si Si8 0.865270 0.000000 0.959818
O O1 0.390549 0.198042 0.847873
O O2 0.500000 0.120643 0.915645
O O3 0.500000 0.000000 0.841540
O O4 0.237564 0.731600 0.668066
O O5 0.312638 0.612799 0.734828
O O6 0.172881 0.770743 0.753650
O O7 0.383870 0.815918 0.728862
O O8 0.710390 0.817581 0.334502
O O9 0.901266 0.901883 0.373036
O O10 0.112494 0.343382 0.078445
O O11 0.000000 0.318581 0.156976
O O12 0.000000 0.500000 0.113244
O O13 0.000000 0.500000 0.490376
O O14 0.500000 0.756797 0.309727
O O15 0.000000 0.000000 0.962290
#
# Coordination Sequence:
#
# PCOD9554262 Si02
#       8
#     8  16  16   4   8   8  16   8
#     4   8  17  32  64  96 120 164 210 266 339 390
#     4  11  23  40  67  99 133 178 228 277 346 416
#     4  10  22  42  68  94 138 177 219 288 336 408
#     4  10  24  46  68 102 132 182 226 284 360 388
#     4   9  20  42  65  88 136 180 221 270 335 401
#     4   9  17  36  58  89 124 160 205 263 324 399
#     4  11  25  43  66 100 136 185 228 275 338 416
#     4  11  22  39  70 103 137 176 223 294 351 405
#
# _framework density 20.263012
#
# number of rings (size 3 to 8) (size 9 to 14) (size 15 to 20)
#    0.000    1.905    2.857    0.571    5.333    2.286 
#    1.714    2.381    0.000    0.000    0.000    0.000 
#    0.000    0.000    0.000    0.000    0.000    0.000 
#
# Total GULP energy -234009.287787 kJ/mol
# GULP energy per Si atom -5571.649709 kJ/mol
# Density = 2.021689 g / cm^3
# Si number density = 20.263012 Si / 1000 Ang^3
#
#
#
# Elastic Constant Matrix: (Units=GPa)
#
#
# Indices 1 2 3 4 5 6 
#
# 1 121.2992 43.5457 27.7708 0.0000 0.0000 0.0000
# 2 43.5457 121.2992 27.7708 0.0000 0.0000 0.0000
# 3 27.7708 27.7708 73.5271 0.0000 0.0000 0.0000
# 4 0.0000 0.0000 0.0000 56.0668 0.0000 0.0000
# 5 0.0000 0.0000 0.0000 0.0000 56.0668 0.0000
# 6 0.0000 0.0000 0.0000 0.0000 0.0000 30.2419
#
#
#
# Elastic Compliance Matrix: (Units=1/GPa)
#
#
# Indices 1 2 3 4 5 6 
#
# 1 0.009906 -0.002955 -0.002625 0.000000 0.000000 0.000000
# 2 -0.002955 0.009906 -0.002625 0.000000 0.000000 0.000000
# 3 -0.002625 -0.002625 0.015584 0.000000 0.000000 0.000000
# 4 0.000000 0.000000 0.000000 0.017836 0.000000 0.000000
# 5 0.000000 0.000000 0.000000 0.000000 0.017836 0.000000
# 6 0.000000 0.000000 0.000000 0.000000 0.000000 0.033067
#
#
# Mechanical properties :
#
#
# Convention : Reuss Voigt Hill
#
# Bulk Modulus (GPa) = 52.67579 57.14447 54.91013
# Shear Modulus (GPa) = 39.40930 42.94428 41.17679
#
# Velocity S-wave (km/s) = 4.41487 4.60863 4.51279
# Velocity P-wave (km/s) = 7.21392 7.52209 7.36962
#
# Compressibility (1/GPa) = 0.01898405
#
# Stress axis : x y z
#
# Youngs Moduli (GPa) = 100.94877 100.94877 64.17024
#
# Poissons Ratio (x) = 0.29832 0.16847
# Poissons Ratio (y) = 0.29832 0.16847
# Poissons Ratio (z) = 0.26502 0.26502
#
# Static dielectric constant tensor:
#      x y z
#    x 1.698110 0.000000 0.000000 
#    y 0.000000 1.698110 0.000000 
#    z 0.000000 0.000000 1.752550 
# 
# From -- ./inp_files/5638.got.cif
#   From: 2010.05.17/outbox.cif.g08.bks.cpg/sg109_3_cif.got.tgz:5638.got - 2010.05.20 10:51:12.
