data_PCOD9554423
_publ_section_title
;
Structure prediction by ZEFSAII (Michael W. Deem and Ramdas Pophale) SiO2 
 PCOD9554423
Probable space group: I 41 C D
;
_chemical_formula_sum "Si O2"
_cell_formula_units_Z 64
_cell_length_a 17.453481
_cell_length_b 17.453481
_cell_length_c 8.401708
_cell_angle_alpha 90.000000
_cell_angle_beta 90.000000
_cell_angle_gamma 90.000000
_cell_volume 2559.361890
_symmetry_space_group_name_H-M "I 41 C D"
_symmetry_group_IT_number 110
_symmetry_cell_setting 'tetragonal'
loop_
_space_group_symop_operation_xyz
x,y,z
-y,1/2+x,1/4+z
-x,-y,z
y,1/2-x,1/4+z
-x,y,1/2+z
x,-y,1/2+z
1/2-y,-x,1/4+z
1/2+y,x,1/4+z
1/2+x,1/2+y,1/2+z
1/2-y,x,3/4+z
1/2-x,1/2-y,1/2+z
1/2+y,-x,3/4+z
1/2-x,1/2+y,z
1/2+x,1/2-y,z
-y,1/2-x,3/4+z
y,1/2+x,3/4+z
loop_
_atom_site_type_symbol
_atom_site_label
_atom_site_fract_x
_atom_site_fract_y
_atom_site_fract_z
Si Si1 0.661514 0.405027 0.149390
Si Si2 0.647608 0.573544 0.291132
Si Si3 0.144985 0.489856 0.546833
Si Si4 0.891747 0.796802 0.592533
O O1 0.664653 0.490439 0.223225
O O2 0.576068 0.374507 0.171269
O O3 0.721215 0.359874 0.261164
O O4 0.681349 0.407735 0.963858
O O5 0.554454 0.579281 0.310608
O O6 0.666024 0.641807 0.167333
O O7 0.162414 0.442400 0.704815
O O8 0.212617 0.545222 0.482973
#
# Coordination Sequence:
#
# PCOD9554423 Si02
#       4
#    16  16  16  16
#     4  12  21  38  69  86 133 186 201 291 356 373
#     4  10  22  36  58 100 126 163 233 271 337 402
#     4  10  20  39  56  93 132 155 229 281 321 406
#     4  10  22  38  58  96 129 166 221 283 326 415
#
# _framework density 25.006235
#
# number of rings (size 3 to 8) (size 9 to 14) (size 15 to 20)
#    1.500    0.000    2.500    3.750    0.000    2.000 
#    0.000    0.000    0.000    6.000    0.000    0.000 
#    0.000    0.000    0.000    0.000    0.000    0.000 
#
# Total GULP energy -178715.422122 kJ/mol
# GULP energy per Si atom -5584.856941 kJ/mol
# Density = 2.494932 g / cm^3
# Si number density = 25.006235 Si / 1000 Ang^3
#
#
#
# Elastic Constant Matrix: (Units=GPa)
#
#
# Indices 1 2 3 4 5 6 
#
# 1 64.6144 15.9991 25.6425 0.0000 0.0000 0.0000
# 2 15.9991 64.6144 25.6425 0.0000 0.0000 0.0000
# 3 25.6425 25.6425 134.3950 0.0000 0.0000 0.0000
# 4 0.0000 0.0000 0.0000 40.5653 0.0000 0.0000
# 5 0.0000 0.0000 0.0000 0.0000 40.5653 0.0000
# 6 0.0000 0.0000 0.0000 0.0000 0.0000 26.0306
#
#
#
# Elastic Compliance Matrix: (Units=1/GPa)
#
#
# Indices 1 2 3 4 5 6 
#
# 1 0.017344 -0.003226 -0.002694 0.000000 0.000000 0.000000
# 2 -0.003226 0.017344 -0.002694 0.000000 0.000000 0.000000
# 3 -0.002694 -0.002694 0.008469 0.000000 0.000000 0.000000
# 4 0.000000 0.000000 0.000000 0.024652 0.000000 0.000000
# 5 0.000000 0.000000 0.000000 0.000000 0.024652 0.000000
# 6 0.000000 0.000000 0.000000 0.000000 0.000000 0.038416
#
#
# Mechanical properties :
#
#
# Convention : Reuss Voigt Hill
#
# Bulk Modulus (GPa) = 38.56439 44.24358 41.40399
# Shear Modulus (GPa) = 31.89866 34.52156 33.21011
#
# Velocity S-wave (km/s) = 3.57547 3.71956 3.64823
# Velocity P-wave (km/s) = 5.70094 6.01484 5.85999
#
# Compressibility (1/GPa) = 0.02593066
#
# Stress axis : x y z
#
# Youngs Moduli (GPa) = 57.65632 57.65632 118.08159
#
# Poissons Ratio (x) = 0.18597 0.31809
# Poissons Ratio (y) = 0.18597 0.31809
# Poissons Ratio (z) = 0.15532 0.15532
#
# Static dielectric constant tensor:
#      x y z
#    x 1.982060 0.000000 0.000000 
#    y 0.000000 1.982060 0.000000 
#    z 0.000000 0.000000 2.007340 
# 
# From -- ./inp_files/345.got.cif
#   From: 2010.05.17/outbox.cif.g08.bks.cpg/sg110_1_cif.got.tgz:345.got - 2010.05.20 10:54:03.
