data_PCOD9554609
_publ_section_title
;
Structure prediction by ZEFSAII (Michael W. Deem and Ramdas Pophale) SiO2 
 PCOD9554609
Probable space group: I 41 C D
;
_chemical_formula_sum "Si O2"
_cell_formula_units_Z 32
_cell_length_a 8.826439
_cell_length_b 8.826439
_cell_length_c 15.943583
_cell_angle_alpha 90.000000
_cell_angle_beta 90.000000
_cell_angle_gamma 90.000000
_cell_volume 1242.101182
_symmetry_space_group_name_H-M "I 41 C D"
_symmetry_group_IT_number 110
_symmetry_cell_setting 'tetragonal'
loop_
_space_group_symop_operation_xyz
x,y,z
-y,1/2+x,1/4+z
-x,-y,z
y,1/2-x,1/4+z
-x,y,1/2+z
x,-y,1/2+z
1/2-y,-x,1/4+z
1/2+y,x,1/4+z
1/2+x,1/2+y,1/2+z
1/2-y,x,3/4+z
1/2-x,1/2-y,1/2+z
1/2+y,-x,3/4+z
1/2-x,1/2+y,z
1/2+x,1/2-y,z
-y,1/2-x,3/4+z
y,1/2+x,3/4+z
loop_
_atom_site_type_symbol
_atom_site_label
_atom_site_fract_x
_atom_site_fract_y
_atom_site_fract_z
Si Si1 0.771988 0.539260 0.487360
Si Si2 0.539260 0.228012 0.048628
O O1 0.621623 0.621623 0.517994
O O2 0.750000 0.482793 0.392994
O O3 0.834157 0.405103 0.545495
O O4 0.905102 0.665844 0.490493
#
# Coordination Sequence:
#
# PCOD9554609 Si02
#       2
#    16  16
#     4  11  24  43  68 102 139 183 230 283 343 410
#     4  11  24  43  68 102 139 183 230 283 343 410
#
# _framework density 25.762796000000002
#
# number of rings (size 3 to 8) (size 9 to 14) (size 15 to 20)
#    0.000    1.000    0.000    6.000    0.000   10.000 
#    0.000    0.000    0.000    0.000    0.000    0.000 
#    0.000    0.000    0.000    0.000    0.000    0.000 
#
# Total GULP energy -89801.205866 kJ/mol
# GULP energy per Si atom -5612.575367 kJ/mol
# Density = 2.570416 g / cm^3
# Si number density = 25.762796 Si / 1000 Ang^3
#
#
#
# Elastic Constant Matrix: (Units=GPa)
#
#
# Indices 1 2 3 4 5 6 
#
# 1 75.9339 71.4229 5.7789 0.0000 0.0000 0.0000
# 2 71.4229 75.9339 5.7789 0.0000 0.0000 0.0000
# 3 5.7789 5.7789 101.2451 0.0000 0.0000 0.0000
# 4 0.0000 0.0000 0.0000 10.3256 0.0000 0.0000
# 5 0.0000 0.0000 0.0000 0.0000 10.3256 0.0000
# 6 0.0000 0.0000 0.0000 0.0000 0.0000 50.9330
#
#
#
# Elastic Compliance Matrix: (Units=1/GPa)
#
#
# Indices 1 2 3 4 5 6 
#
# 1 0.114249 -0.107432 -0.000389 0.000000 0.000000 0.000000
# 2 -0.107432 0.114249 -0.000389 0.000000 0.000000 0.000000
# 3 -0.000389 -0.000389 0.009921 0.000000 0.000000 0.000000
# 4 0.000000 0.000000 0.000000 0.096846 0.000000 0.000000
# 5 0.000000 0.000000 0.000000 0.000000 0.096846 0.000000
# 6 0.000000 0.000000 0.000000 0.000000 0.000000 0.019634
#
#
# Mechanical properties :
#
#
# Convention : Reuss Voigt Hill
#
# Bulk Modulus (GPa) = 45.45739 46.56379 46.01059
# Shear Modulus (GPa) = 7.40193 25.65900 16.53046
#
# Velocity S-wave (km/s) = 1.69686 3.15932 2.53581
# Velocity P-wave (km/s) = 4.63918 5.60551 5.14508
#
# Compressibility (1/GPa) = 0.02199862
#
# Stress axis : x y z
#
# Youngs Moduli (GPa) = 8.75280 8.75281 100.79184
#
# Poissons Ratio (x) = 0.94033 0.03922
# Poissons Ratio (y) = 0.94033 0.03922
# Poissons Ratio (z) = 0.00341 0.00341
#
# Static dielectric constant tensor:
#      x y z
#    x 2.033770 0.000000 0.000000 
#    y 0.000000 2.033770 0.000000 
#    z 0.000000 0.000000 1.879050 
# 
# From -- ./inp_files/591.got.cif
#   From: 2010.05.17/outbox.cif.g08.bks.cpg/sg110_1_cif.got.tgz:591.got - 2010.05.20 10:54:03.
