data_PCOD9554709
_publ_section_title
;
Structure prediction by ZEFSAII (Michael W. Deem and Ramdas Pophale) SiO2 
 PCOD9554709
Probable space group: P -4 2 M 
;
_chemical_formula_sum "Si O2"
_cell_formula_units_Z 52
_cell_length_a 17.786812
_cell_length_b 17.786812
_cell_length_c 10.514634
_cell_angle_alpha 90.000000
_cell_angle_beta 90.000000
_cell_angle_gamma 90.000000
_cell_volume 3326.521920
_symmetry_space_group_name_H-M "P -4 2 M "
_symmetry_group_IT_number 111
_symmetry_cell_setting 'tetragonal'
loop_
_space_group_symop_operation_xyz
x,y,z
y,-x,-z
-x,-y,z
-y,x,-z
x,-y,-z
-x,y,-z
-y,-x,z
y,x,z
loop_
_atom_site_type_symbol
_atom_site_label
_atom_site_fract_x
_atom_site_fract_y
_atom_site_fract_z
Si Si1 0.901446 0.444033 0.749610
Si Si2 0.642250 0.523370 0.351701
Si Si3 0.812879 0.696148 0.637581
Si Si4 0.404984 0.048520 0.631563
Si Si5 0.400429 0.715086 0.166509
Si Si6 0.500000 0.176505 0.000000
Si Si7 0.232323 0.347885 0.353645
O O1 0.902344 0.518787 0.657408
O O2 0.875089 0.468562 0.887849
O O3 0.843439 0.380544 0.704783
O O4 0.985060 0.411379 0.739590
O O5 0.636658 0.500000 0.500000
O O6 0.564669 0.564669 0.315171
O O7 0.669687 0.457429 0.258914
O O8 0.707103 0.585963 0.343320
O O9 0.782140 0.782140 0.649427
O O10 0.899098 0.668193 0.641318
O O11 0.768766 0.648939 0.743534
O O12 0.784361 0.667695 0.500917
O O13 0.406953 0.000000 0.500000
O O14 0.345625 0.654376 0.103655
O O15 0.440831 0.767563 0.065449
O O16 0.272655 0.272655 0.300499
#
# Coordination Sequence:
#
# PCOD9554709 Si02
#       7
#     8   8   8   8   8   4   8
#     4  11  22  34  51  77 106 135 172 218 260 313
#     4  11  20  31  49  71  94 122 171 240 296 325
#     4  10  19  35  55  77 102 129 163 205 260 318
#     4  11  21  33  58  85 104 129 161 215 272 319
#     4  11  23  37  50  65  93 139 188 226 265 315
#     4  12  24  37  50  67  98 144 188 222 262 311
#     4  10  19  31  53  75  97 130 168 216 270 318
#
# _framework density 15.631943
#
# number of rings (size 3 to 8) (size 9 to 14) (size 15 to 20)
#    0.000    1.231    6.154    1.385    0.000    3.538 
#    0.000    0.000    0.000    0.000    0.000    0.000 
#    0.000    2.154    0.000    0.000    0.000    4.308 
#
# Total GULP energy -289835.210297 kJ/mol
# GULP energy per Si atom -5573.754044 kJ/mol
# Density = 1.559636 g / cm^3
# Si number density = 15.631943 Si / 1000 Ang^3
#
#
#
# Elastic Constant Matrix: (Units=GPa)
#
#
# Indices 1 2 3 4 5 6 
#
# 1 83.2200 52.1534 32.8853 0.0000 0.0000 0.0000
# 2 52.1534 83.2205 32.8857 0.0000 0.0000 0.0000
# 3 32.8853 32.8857 74.1588 0.0000 0.0000 0.0000
# 4 0.0000 0.0000 0.0000 -0.3848 0.0000 0.0000
# 5 0.0000 0.0000 0.0000 0.0000 -0.3833 0.0000
# 6 0.0000 0.0000 0.0000 0.0000 0.0000 34.5467
#
#
#
# Elastic Compliance Matrix: (Units=1/GPa)
#
#
# Indices 1 2 3 4 5 6 
#
# 1 0.020802 -0.011387 -0.004175 0.000000 0.000000 0.000000
# 2 -0.011387 0.020802 -0.004175 0.000000 0.000000 0.000000
# 3 -0.004175 -0.004175 0.017188 0.000000 0.000000 0.000000
# 4 0.000000 0.000000 0.000000 -2.598527 0.000000 0.000000
# 5 0.000000 0.000000 0.000000 0.000000 -2.608700 0.000000
# 6 0.000000 0.000000 0.000000 0.000000 0.000000 0.028946
#
#
# Mechanical properties :
#
#
# Convention : Reuss Voigt Hill
#
# Bulk Modulus (GPa) = 51.76653 52.93870 52.35261
# Shear Modulus (GPa) = -0.98550 14.93403 6.97426
#
# Velocity S-wave (km/s) = -0.79486 3.09423 2.11453
# Velocity P-wave (km/s) = 5.68730 6.83410 6.28690
#
# Compressibility (1/GPa) = 0.01931750
#
# Stress axis : x y z
#
# Youngs Moduli (GPa) = 48.07206 48.07211 58.18149
#
# Poissons Ratio (x) = 0.54738 0.24292
# Poissons Ratio (y) = 0.54738 0.24293
# Poissons Ratio (z) = 0.20071 0.20072
#
# Static dielectric constant tensor:
#      x y z
#    x 1.545090 0.000000 0.000000 
#    y 0.000000 1.545090 0.000000 
#    z 0.000000 0.000000 1.518370 
# 
# From -- ./inp_files/1846.got.cif
#   From: 2010.05.17/outbox.cif.g08.bks.cpg/sg111_1_cif.got.tgz:1846.got - 2010.05.20 10:56:05.
