data_PCOD9554069
_publ_section_title
;
Structure prediction by ZEFSAII (Michael W. Deem and Ramdas Pophale) SiO2 
 PCOD9554069
Probable space group: I 41 M D
;
_chemical_formula_sum "Si O2"
_cell_formula_units_Z 112
_cell_length_a 20.640849
_cell_length_b 20.640849
_cell_length_c 17.647653
_cell_angle_alpha 90.000000
_cell_angle_beta 90.000000
_cell_angle_gamma 90.000000
_cell_volume 7518.688101
_symmetry_space_group_name_H-M "I 41 M D"
_symmetry_group_IT_number 109
_symmetry_cell_setting 'tetragonal'
loop_
_space_group_symop_operation_xyz
x,y,z
-y,1/2+x,1/4+z
-x,-y,z
y,1/2-x,1/4+z
-x,y,z
x,-y,z
-y,1/2-x,1/4+z
y,1/2+x,1/4+z
1/2+x,1/2+y,1/2+z
1/2-y,x,3/4+z
1/2-x,1/2-y,1/2+z
1/2+y,-x,3/4+z
1/2-x,1/2+y,1/2+z
1/2+x,1/2-y,1/2+z
1/2-y,-x,3/4+z
1/2+y,x,3/4+z
loop_
_atom_site_type_symbol
_atom_site_label
_atom_site_fract_x
_atom_site_fract_y
_atom_site_fract_z
Si Si1 0.337656 0.200094 0.685450
Si Si2 0.722464 0.742588 0.826366
Si Si3 0.424248 0.337649 0.211152
Si Si4 0.429769 0.745491 0.438112
Si Si5 0.648048 0.572008 0.320972
Si Si6 0.705154 0.657998 0.967531
Si Si7 0.075055 0.365003 0.828465
O O1 0.330831 0.232835 0.766989
O O2 0.301039 0.246817 0.625613
O O3 0.297482 0.133382 0.689671
O O4 0.405248 0.178898 0.649606
O O5 0.695598 0.690684 0.885855
O O6 0.783007 0.715409 0.777182
O O7 0.500000 0.322669 0.211939
O O8 0.402997 0.377647 0.285843
O O9 0.381522 0.272584 0.210554
O O10 0.406858 0.382971 0.138307
O O11 0.500000 0.711888 0.437610
O O12 0.427801 0.793834 0.509664
O O13 0.426599 0.793417 0.366445
O O14 0.620562 0.500000 0.324003
O O15 0.648366 0.612392 0.000106
O O16 0.000000 0.386733 0.822183
#
# Coordination Sequence:
#
# PCOD9554069 Si02
#       7
#    16  16  16  16  16  16  16
#     4  11  16  29  43  69  84 116 149 185 231 270
#     4  10  18  26  49  65  91 107 148 199 231 275
#     4  11  20  31  45  67  97 130 162 186 219 271
#     4   9  16  27  41  62  90 117 143 179 216 265
#     4  10  19  30  43  61  91 120 149 182 218 267
#     4  11  17  31  45  71  90 119 153 193 237 269
#     4  10  18  29  44  64  95 127 157 184 220 273
#
# _framework density 14.896216000000001
#
# number of rings (size 3 to 8) (size 9 to 14) (size 15 to 20)
#    0.000    1.714    5.714    3.429    0.000    2.857 
#    0.000    0.000    0.000    0.857    0.000    0.000 
#    0.000    0.000    0.000    0.000    0.000    0.000 
#
# Total GULP energy -312074.224385 kJ/mol
# GULP energy per Si atom -5572.754007 kJ/mol
# Density = 1.486231 g / cm^3
# Si number density = 14.896216 Si / 1000 Ang^3
#
#
#
# Elastic Constant Matrix: (Units=GPa)
#
#
# Indices 1 2 3 4 5 6 
#
# 1 26.4235 6.2672 24.4683 0.0000 0.0000 0.0000
# 2 6.2672 26.4235 24.4683 0.0000 0.0000 0.0000
# 3 24.4683 24.4683 88.8918 0.0000 0.0000 0.0000
# 4 0.0000 0.0000 0.0000 13.8980 0.0000 0.0000
# 5 0.0000 0.0000 0.0000 0.0000 13.8980 0.0000
# 6 0.0000 0.0000 0.0000 0.0000 0.0000 7.8428
#
#
#
# Elastic Compliance Matrix: (Units=1/GPa)
#
#
# Indices 1 2 3 4 5 6 
#
# 1 0.050820 0.001208 -0.014321 0.000000 0.000000 0.000000
# 2 0.001208 0.050820 -0.014321 0.000000 0.000000 0.000000
# 3 -0.014321 -0.014321 0.019134 0.000000 0.000000 0.000000
# 4 0.000000 0.000000 0.000000 0.071953 0.000000 0.000000
# 5 0.000000 0.000000 0.000000 0.000000 0.071953 0.000000
# 6 0.000000 0.000000 0.000000 0.000000 0.000000 0.127505
#
#
# Mechanical properties :
#
#
# Convention : Reuss Voigt Hill
#
# Bulk Modulus (GPa) = 15.17340 28.01629 21.59485
# Shear Modulus (GPa) = 10.66048 12.89677 11.77863
#
# Velocity S-wave (km/s) = 2.67807 2.94560 2.81501
# Velocity P-wave (km/s) = 4.44645 5.51518 5.00940
#
# Compressibility (1/GPa) = 0.06590480
#
# Stress axis : x y z
#
# Youngs Moduli (GPa) = 19.67723 19.67723 52.26381
#
# Poissons Ratio (x) = -0.02376 0.74848
# Poissons Ratio (y) = -0.02376 0.74848
# Poissons Ratio (z) = 0.28180 0.28180
#
# Static dielectric constant tensor:
#      x y z
#    x 1.502070 0.000000 0.000000 
#    y 0.000000 1.502070 0.000000 
#    z 0.000000 0.000000 1.519220 
# 
# From -- ./inp_files/3266.got.cif
#   From: 2010.05.17/outbox.cif.g08.bks.cpg/sg109_2_cif.got.tgz:3266.got - 2010.05.20 10:51:12.
