data_PCOD9554283
_publ_section_title
;
Structure prediction by ZEFSAII (Michael W. Deem and Ramdas Pophale) SiO2 
 PCOD9554283
Probable space group: I 41 M D
;
_chemical_formula_sum "Si O2"
_cell_formula_units_Z 96
_cell_length_a 21.430736
_cell_length_b 21.430736
_cell_length_c 8.418919
_cell_angle_alpha 90.000000
_cell_angle_beta 90.000000
_cell_angle_gamma 90.000000
_cell_volume 3866.611193
_symmetry_space_group_name_H-M "I 41 M D"
_symmetry_group_IT_number 109
_symmetry_cell_setting 'tetragonal'
loop_
_space_group_symop_operation_xyz
x,y,z
-y,1/2+x,1/4+z
-x,-y,z
y,1/2-x,1/4+z
-x,y,z
x,-y,z
-y,1/2-x,1/4+z
y,1/2+x,1/4+z
1/2+x,1/2+y,1/2+z
1/2-y,x,3/4+z
1/2-x,1/2-y,1/2+z
1/2+y,-x,3/4+z
1/2-x,1/2+y,1/2+z
1/2+x,1/2-y,1/2+z
1/2-y,-x,3/4+z
1/2+y,x,3/4+z
loop_
_atom_site_type_symbol
_atom_site_label
_atom_site_fract_x
_atom_site_fract_y
_atom_site_fract_z
Si Si1 0.072730 0.905818 0.253250
Si Si2 0.326502 0.731007 0.022786
Si Si3 0.746264 0.927637 0.039713
Si Si4 0.903576 0.424107 0.148394
Si Si5 0.093207 0.361920 0.824490
Si Si6 0.927775 0.763286 0.954182
O O1 0.075547 0.829672 0.268701
O O2 0.106927 0.927935 0.411408
O O3 0.000000 0.922476 0.264011
O O4 0.093637 0.926409 0.076162
O O5 0.273496 0.705978 0.902946
O O6 0.379633 0.767157 0.923893
O O7 0.360759 0.668585 0.082023
O O8 0.766362 0.901993 0.866904
O O9 0.762815 0.000000 0.070110
O O10 0.908225 0.500000 0.136371
O O11 0.830646 0.404592 0.157823
O O12 0.929776 0.394927 0.986320
O O13 0.075852 0.289311 0.823403
O O14 0.000000 0.773877 0.994518
#
# Coordination Sequence:
#
# PCOD9554283 Si02
#       6
#    16  16  16  16  16  16
#     4   8  16  32  53  80 107 136 186 247 297 346
#     4  11  25  38  54  88 128 169 198 245 319 390
#     4   8  17  36  58  78 108 156 209 253 290 350
#     4   9  18  35  58  79 105 145 190 239 291 348
#     4  11  20  33  56  83 110 149 199 236 287 361
#     4   9  19  34  54  80 112 149 192 243 294 345
#
# _framework density 24.827943000000001
#
# number of rings (size 3 to 8) (size 9 to 14) (size 15 to 20)
#    0.000    2.667    0.000    3.500    2.333    4.667 
#    0.000    2.500    0.000    5.000    0.000    2.333 
#    0.000    4.667    0.000    0.000    0.000    0.000 
#
# Total GULP energy -268224.869189 kJ/mol
# GULP energy per Si atom -5588.018108 kJ/mol
# Density = 2.477143 g / cm^3
# Si number density = 24.827943 Si / 1000 Ang^3
#
#
#
# Elastic Constant Matrix: (Units=GPa)
#
#
# Indices 1 2 3 4 5 6 
#
# 1 92.4344 4.5586 56.0520 0.0000 0.0000 0.0000
# 2 4.5586 92.4344 56.0520 0.0000 0.0000 0.0000
# 3 56.0520 56.0520 209.2414 0.0000 0.0000 0.0000
# 4 0.0000 0.0000 0.0000 11.3671 0.0000 0.0000
# 5 0.0000 0.0000 0.0000 0.0000 11.3671 0.0000
# 6 0.0000 0.0000 0.0000 0.0000 0.0000 48.0164
#
#
#
# Elastic Compliance Matrix: (Units=1/GPa)
#
#
# Indices 1 2 3 4 5 6 
#
# 1 0.013157 0.001777 -0.004000 0.000000 0.000000 0.000000
# 2 0.001777 0.013157 -0.004000 0.000000 0.000000 0.000000
# 3 -0.004000 -0.004000 0.006922 0.000000 0.000000 0.000000
# 4 0.000000 0.000000 0.000000 0.087973 0.000000 0.000000
# 5 0.000000 0.000000 0.000000 0.000000 0.087973 0.000000
# 6 0.000000 0.000000 0.000000 0.000000 0.000000 0.020826
#
#
# Mechanical properties :
#
#
# Convention : Reuss Voigt Hill
#
# Bulk Modulus (GPa) = 48.10451 69.71506 58.90978
# Shear Modulus (GPa) = 20.04924 32.64662 26.34793
#
# Velocity S-wave (km/s) = 2.84479 3.63011 3.26117
# Velocity P-wave (km/s) = 5.49615 6.76095 6.16109
#
# Compressibility (1/GPa) = 0.02078807
#
# Stress axis : x y z
#
# Youngs Moduli (GPa) = 76.00673 76.00673 144.45677
#
# Poissons Ratio (x) = -0.13507 0.57790
# Poissons Ratio (y) = -0.13507 0.57790
# Poissons Ratio (z) = 0.30406 0.30406
#
# Static dielectric constant tensor:
#      x y z
#    x 1.977750 0.000000 0.000000 
#    y 0.000000 1.977750 0.000000 
#    z 0.000000 0.000000 2.022340 
# 
# From -- ./inp_files/1441.got.cif
#   From: 2010.05.17/outbox.cif.g08.bks.cpg/sg109_1_cif.got.tgz:1441.got - 2010.05.20 10:51:12.
