data_PCOD9554013
_publ_section_title
;
Structure prediction by ZEFSAII (Michael W. Deem and Ramdas Pophale) SiO2 
 PCOD9554013
Probable space group: I 4 C M
;
_chemical_formula_sum "Si O2"
_cell_formula_units_Z 96
_cell_length_a 22.314188
_cell_length_b 22.314188
_cell_length_c 8.964579
_cell_angle_alpha 90.000000
_cell_angle_beta 90.000000
_cell_angle_gamma 90.000000
_cell_volume 4463.669945
_symmetry_space_group_name_H-M "I 4 C M"
_symmetry_group_IT_number 108
_symmetry_cell_setting 'tetragonal'
loop_
_space_group_symop_operation_xyz
x,y,z
-y,x,z
-x,-y,z
y,-x,z
-x,y,1/2+z
x,-y,1/2+z
-y,-x,1/2+z
y,x,1/2+z
1/2+x,1/2+y,1/2+z
1/2-y,1/2+x,1/2+z
1/2-x,1/2-y,1/2+z
1/2+y,1/2-x,1/2+z
1/2-x,1/2+y,z
1/2+x,1/2-y,z
1/2-y,1/2-x,z
1/2+y,1/2+x,z
loop_
_atom_site_type_symbol
_atom_site_label
_atom_site_fract_x
_atom_site_fract_y
_atom_site_fract_z
Si Si1 0.456559 0.213487 0.609150
Si Si2 0.623322 0.570126 0.378515
Si Si3 0.265555 0.630205 0.819974
Si Si4 0.820692 0.577324 0.775940
Si Si5 0.767914 0.827017 0.149665
Si Si6 0.541382 0.356490 0.055137
O O1 0.400369 0.212703 0.726255
O O2 0.515672 0.183326 0.680934
O O3 0.438874 0.185056 0.450672
O O4 0.466420 0.285369 0.581917
O O5 0.694986 0.575920 0.383114
O O6 0.610729 0.556306 0.208815
O O7 0.594045 0.630364 0.438124
O O8 0.610724 0.515318 0.484624
O O9 0.308402 0.666264 0.704497
O O10 0.258002 0.666838 0.972024
O O11 0.878255 0.621746 0.749670
O O12 0.761982 0.615506 0.726441
O O13 0.729108 0.770893 0.203559
#
# Coordination Sequence:
#
# PCOD9554013 Si02
#       6
#    16  16  16  16  16  16
#     4  11  23  41  66  94 127 170 218 268 334 406
#     4  11  22  36  55  81 115 163 215 262 308 360
#     4  11  22  36  61  91 131 175 216 263 319 397
#     4  11  24  43  69  99 133 171 218 276 334 404
#     4  11  22  37  59  94 135 170 210 263 328 394
#     4  11  22  37  59  85 123 167 215 266 314 374
#
# _framework density 21.506965000000001
#
# number of rings (size 3 to 8) (size 9 to 14) (size 15 to 20)
#    0.000    1.000    0.000    9.500    0.000    3.000 
#    0.000    2.500    0.000    1.500    0.000    0.000 
#    0.000    0.000    0.000    0.000    0.000    0.000 
#
# Total GULP energy -267771.513004 kJ/mol
# GULP energy per Si atom -5578.573188 kJ/mol
# Density = 2.145801 g / cm^3
# Si number density = 21.506965 Si / 1000 Ang^3
#
#
#
# Elastic Constant Matrix: (Units=GPa)
#
#
# Indices 1 2 3 4 5 6 
#
# 1 62.1896 42.5502 58.2759 0.0000 0.0000 0.0027
# 2 42.5502 62.1896 58.2759 0.0000 0.0000 -0.0027
# 3 58.2759 58.2759 144.4893 0.0000 0.0000 0.0000
# 4 0.0000 0.0000 0.0000 31.0654 0.0000 0.0000
# 5 0.0000 0.0000 0.0000 0.0000 31.0654 0.0000
# 6 0.0027 -0.0027 0.0000 0.0000 0.0000 24.0977
#
#
#
# Elastic Compliance Matrix: (Units=1/GPa)
#
#
# Indices 1 2 3 4 5 6 
#
# 1 0.034120 -0.016798 -0.006986 0.000000 0.000000 -0.000006
# 2 -0.016798 0.034120 -0.006986 0.000000 0.000000 0.000006
# 3 -0.006986 -0.006986 0.012556 0.000000 0.000000 0.000000
# 4 0.000000 0.000000 0.000000 0.032190 0.000000 0.000000
# 5 0.000000 0.000000 0.000000 0.000000 0.032190 0.000000
# 6 -0.000006 0.000006 0.000000 0.000000 0.000000 0.041498
#
#
# Mechanical properties :
#
#
# Convention : Reuss Voigt Hill
#
# Bulk Modulus (GPa) = 51.93558 65.23027 58.58293
# Shear Modulus (GPa) = 19.63609 24.56347 22.09978
#
# Velocity S-wave (km/s) = 3.02488 3.38319 3.20904
# Velocity P-wave (km/s) = 6.03329 6.75699 6.40537
#
# Compressibility (1/GPa) = 0.01925462
#
# Stress axis : x y z
#
# Youngs Moduli (GPa) = 29.30854 29.30854 79.64139
#
# Poissons Ratio (x) = 0.49233 0.55639
# Poissons Ratio (y) = 0.49233 0.55639
# Poissons Ratio (z) = 0.20475 0.20475
#
# Static dielectric constant tensor:
#      x y z
#    x 1.826460 0.000000 0.000000 
#    y 0.000000 1.826460 0.000000 
#    z 0.000000 0.000000 1.822440 
# 
# From -- ./inp_files/780.got.cif
#   From: 2010.05.17/outbox.cif.g08.bks.cpg/sg108_1_cif.got.tgz:780.got - 2010.05.20 10:49:05.
