data_PCOD9554611
_publ_section_title
;
Structure prediction by ZEFSAII (Michael W. Deem and Ramdas Pophale) SiO2 
 PCOD9554611
Probable space group: I 41 C D
;
_chemical_formula_sum "Si O2"
_cell_formula_units_Z 96
_cell_length_a 14.676836
_cell_length_b 14.676836
_cell_length_c 18.413521
_cell_angle_alpha 90.000000
_cell_angle_beta 90.000000
_cell_angle_gamma 90.000000
_cell_volume 3966.447628
_symmetry_space_group_name_H-M "I 41 C D"
_symmetry_group_IT_number 110
_symmetry_cell_setting 'tetragonal'
loop_
_space_group_symop_operation_xyz
x,y,z
-y,1/2+x,1/4+z
-x,-y,z
y,1/2-x,1/4+z
-x,y,1/2+z
x,-y,1/2+z
1/2-y,-x,1/4+z
1/2+y,x,1/4+z
1/2+x,1/2+y,1/2+z
1/2-y,x,3/4+z
1/2-x,1/2-y,1/2+z
1/2+y,-x,3/4+z
1/2-x,1/2+y,z
1/2+x,1/2-y,z
-y,1/2-x,3/4+z
y,1/2+x,3/4+z
loop_
_atom_site_type_symbol
_atom_site_label
_atom_site_fract_x
_atom_site_fract_y
_atom_site_fract_z
Si Si1 0.799225 0.045980 0.754200
Si Si2 0.385264 0.331160 0.505173
Si Si3 0.392709 0.509917 0.900054
Si Si4 0.097995 0.543162 0.902630
Si Si5 0.224626 0.221066 0.580468
Si Si6 0.740726 0.895796 0.461588
O O1 0.861044 0.000355 0.817290
O O2 0.861557 0.093433 0.694532
O O3 0.743405 0.127560 0.792142
O O4 0.740134 0.961041 0.727033
O O5 0.359246 0.398727 0.440239
O O6 0.440746 0.384747 0.567975
O O7 0.300315 0.291437 0.551419
O O8 0.500000 0.500000 0.905638
O O9 0.341324 0.428329 0.940805
O O10 0.172560 0.474736 0.936262
O O11 0.000000 0.500000 0.913458
O O12 0.195940 0.221267 0.664504
O O13 0.260389 0.126899 0.546307
#
# Coordination Sequence:
#
# PCOD9554611 Si02
#       6
#    16  16  16  16  16  16
#     4  11  25  49  69 112 152 191 254 312 373 454
#     4  12  25  45  74 106 151 200 255 305 390 451
#     4  11  24  43  73 106 146 195 248 311 373 458
#     4  12  25  47  71 106 151 195 248 319 370 452
#     4  11  24  43  74 103 144 197 241 311 365 452
#     4  11  25  47  73 107 150 196 254 304 387 449
#
# _framework density 24.203019000000001
#
# number of rings (size 3 to 8) (size 9 to 14) (size 15 to 20)
#    0.000    0.667    3.333    5.000    4.667    1.333 
#    0.000    0.000    0.000    0.000    0.000    0.000 
#    0.000    0.000    0.000    0.000    0.000    0.000 
#
# Total GULP energy -268852.036321 kJ/mol
# GULP energy per Si atom -5601.084090 kJ/mol
# Density = 2.414793 g / cm^3
# Si number density = 24.203019 Si / 1000 Ang^3
#
#
#
# Elastic Constant Matrix: (Units=GPa)
#
#
# Indices 1 2 3 4 5 6 
#
# 1 83.6891 11.0033 22.5495 0.0000 0.0000 0.0000
# 2 11.0033 83.6891 22.5495 0.0000 0.0000 0.0000
# 3 22.5495 22.5495 101.2924 0.0000 0.0000 0.0000
# 4 0.0000 0.0000 0.0000 29.8497 0.0000 0.0000
# 5 0.0000 0.0000 0.0000 0.0000 29.8497 0.0000
# 6 0.0000 0.0000 0.0000 0.0000 0.0000 41.6873
#
#
#
# Elastic Compliance Matrix: (Units=1/GPa)
#
#
# Indices 1 2 3 4 5 6 
#
# 1 0.012785 -0.000972 -0.002630 0.000000 0.000000 0.000000
# 2 -0.000972 0.012785 -0.002630 0.000000 0.000000 0.000000
# 3 -0.002630 -0.002630 0.011043 0.000000 0.000000 0.000000
# 4 0.000000 0.000000 0.000000 0.033501 0.000000 0.000000
# 5 0.000000 0.000000 0.000000 0.000000 0.033501 0.000000
# 6 0.000000 0.000000 0.000000 0.000000 0.000000 0.023988
#
#
# Mechanical properties :
#
#
# Convention : Reuss Voigt Hill
#
# Bulk Modulus (GPa) = 41.40767 42.31949 41.86358
# Shear Modulus (GPa) = 33.75672 34.44855 34.10264
#
# Velocity S-wave (km/s) = 3.73866 3.77678 3.75777
# Velocity P-wave (km/s) = 5.98184 6.04499 6.01350
#
# Compressibility (1/GPa) = 0.02415012
#
# Stress axis : x y z
#
# Youngs Moduli (GPa) = 78.21412 78.21412 90.55274
#
# Poissons Ratio (x) = 0.07606 0.23813
# Poissons Ratio (y) = 0.07606 0.23813
# Poissons Ratio (z) = 0.20569 0.20569
#
# Static dielectric constant tensor:
#      x y z
#    x 1.951960 0.000000 0.000000 
#    y 0.000000 1.951960 0.000000 
#    z 0.000000 0.000000 1.894950 
# 
# From -- ./inp_files/2220.got.cif
#   From: 2010.05.17/outbox.cif.g08.bks.cpg/sg110_2_cif.got.tgz:2220.got - 2010.05.20 10:54:03.
