data_PCOD9554718
_publ_section_title
;
Structure prediction by ZEFSAII (Michael W. Deem and Ramdas Pophale) SiO2 
 PCOD9554718
Probable space group: P -4 2 M 
;
_chemical_formula_sum "Si O2"
_cell_formula_units_Z 40
_cell_length_a 11.180566
_cell_length_b 11.180566
_cell_length_c 14.558691
_cell_angle_alpha 90.000000
_cell_angle_beta 90.000000
_cell_angle_gamma 90.000000
_cell_volume 1819.909985
_symmetry_space_group_name_H-M "P -4 2 M "
_symmetry_group_IT_number 111
_symmetry_cell_setting 'tetragonal'
loop_
_space_group_symop_operation_xyz
x,y,z
y,-x,-z
-x,-y,z
-y,x,-z
x,-y,-z
-x,y,-z
-y,-x,z
y,x,z
loop_
_atom_site_type_symbol
_atom_site_label
_atom_site_fract_x
_atom_site_fract_y
_atom_site_fract_z
Si Si1 0.882570 0.431398 0.247931
Si Si2 0.283837 0.529295 0.892449
Si Si3 0.301002 0.499940 0.607845
Si Si4 0.006768 0.808960 0.734218
Si Si5 0.272745 0.090688 0.071389
O O1 0.780141 0.426082 0.167963
O O2 0.812911 0.502512 0.327121
O O3 0.000000 0.500000 0.212142
O O4 0.939424 0.312743 0.293327
O O5 0.406055 0.593946 0.858442
O O6 0.184095 0.632343 0.890941
O O7 0.300965 0.500000 0.000000
O O8 0.270782 0.500000 0.500000
O O9 0.388597 0.611404 0.624929
O O10 0.380785 0.380785 0.626566
O O11 0.135806 0.864195 0.702075
O O12 0.024147 0.785033 0.842721
O O13 0.912201 0.912201 0.717023
O O14 0.168017 0.168017 0.024141
O O15 0.328659 0.000000 0.000000
#
# Coordination Sequence:
#
# PCOD9554718 Si02
#       5
#     8   8   8   8   8
#     4  12  23  37  64  90 127 168 211 258 320 384
#     4  11  25  40  56  83 122 169 219 271 325 381
#     4   9  20  41  68  97 127 159 204 264 325 388
#     4  10  21  36  54  82 118 156 203 255 306 367
#     4  10  19  32  50  73 105 147 202 260 313 360
#
# _framework density 21.979109999999999
#
# number of rings (size 3 to 8) (size 9 to 14) (size 15 to 20)
#    0.000    1.600    2.000    3.600    0.000    5.600 
#    0.000    0.000    0.000    0.000    0.000    0.000 
#    0.000    4.800    0.000    0.000    0.000    0.200 
#
# Total GULP energy -223002.053940 kJ/mol
# GULP energy per Si atom -5575.051348 kJ/mol
# Density = 2.192908 g / cm^3
# Si number density = 21.979110 Si / 1000 Ang^3
#
#
#
# Elastic Constant Matrix: (Units=GPa)
#
#
# Indices 1 2 3 4 5 6 
#
# 1 64.5382 42.3349 19.7110 0.0000 0.0000 0.0000
# 2 42.3349 64.5410 19.7109 0.0000 0.0000 0.0000
# 3 19.7110 19.7109 61.5684 0.0000 0.0000 0.0000
# 4 0.0000 0.0000 0.0000 22.4341 0.0000 0.0000
# 5 0.0000 0.0000 0.0000 0.0000 22.4338 0.0000
# 6 0.0000 0.0000 0.0000 0.0000 0.0000 24.4508
#
#
#
# Elastic Compliance Matrix: (Units=1/GPa)
#
#
# Indices 1 2 3 4 5 6 
#
# 1 0.027823 -0.017213 -0.003397 0.000000 0.000000 0.000000
# 2 -0.017213 0.027822 -0.003396 0.000000 0.000000 0.000000
# 3 -0.003397 -0.003396 0.018417 0.000000 0.000000 0.000000
# 4 0.000000 0.000000 0.000000 0.044575 0.000000 0.000000
# 5 0.000000 0.000000 0.000000 0.000000 0.044576 0.000000
# 6 0.000000 0.000000 0.000000 0.000000 0.000000 0.040899
#
#
# Mechanical properties :
#
#
# Convention : Reuss Voigt Hill
#
# Bulk Modulus (GPa) = 38.38821 39.35125 38.86973
# Shear Modulus (GPa) = 19.17127 21.12311 20.14719
#
# Velocity S-wave (km/s) = 2.95659 3.10345 3.03091
# Velocity P-wave (km/s) = 5.39990 5.54839 5.47465
#
# Compressibility (1/GPa) = 0.02604966
#
# Stress axis : x y z
#
# Youngs Moduli (GPa) = 35.94118 35.94292 54.29780
#
# Poissons Ratio (x) = 0.61868 0.18445
# Poissons Ratio (y) = 0.61865 0.18442
# Poissons Ratio (z) = 0.12209 0.12208
#
# Static dielectric constant tensor:
#      x y z
#    x 1.888390 0.000000 0.000000 
#    y 0.000000 1.888390 0.000000 
#    z 0.000000 0.000000 1.758260 
# 
# From -- ./inp_files/3195.got.cif
#   From: 2010.05.17/outbox.cif.g08.bks.cpg/sg111_2_cif.got.tgz:3195.got - 2010.05.20 10:56:05.
