data_PCOD9554919
_publ_section_title
;
Structure prediction by ZEFSAII (Michael W. Deem and Ramdas Pophale) SiO2 
 PCOD9554919
Probable space group: P -4 2 C
;
_chemical_formula_sum "Si O2"
_cell_formula_units_Z 38
_cell_length_a 16.998892
_cell_length_b 16.998892
_cell_length_c 5.811255
_cell_angle_alpha 90.000000
_cell_angle_beta 90.000000
_cell_angle_gamma 90.000000
_cell_volume 1679.233781
_symmetry_space_group_name_H-M "P -4 2 C"
_symmetry_group_IT_number 112
_symmetry_cell_setting 'tetragonal'
loop_
_space_group_symop_operation_xyz
x,y,z
y,-x,-z
-x,-y,z
-y,x,-z
x,-y,1/2-z
-x,y,1/2-z
-y,-x,1/2+z
y,x,1/2+z
loop_
_atom_site_type_symbol
_atom_site_label
_atom_site_fract_x
_atom_site_fract_y
_atom_site_fract_z
Si Si1 0.252670 0.891470 0.632713
Si Si2 0.566727 0.130642 0.560993
Si Si3 0.336012 0.274859 0.384371
Si Si4 0.000000 0.500000 0.750000
Si Si5 0.266200 0.500000 0.750000
Si Si6 0.752107 0.878150 0.371579
O O1 0.343866 0.865537 0.640755
O O2 0.188245 0.821096 0.630859
O O3 0.244326 0.922162 0.371346
O O4 0.241415 0.926167 0.890086
O O5 0.500000 0.117367 0.750000
O O6 0.555881 0.056340 0.395617
O O7 0.541531 0.210368 0.436642
O O8 0.302792 0.299072 0.637378
O O9 0.425822 0.305216 0.372731
O O10 0.324437 0.179527 0.375881
#
# Coordination Sequence:
#
# PCOD9554919 Si02
#       6
#     8   8   8   2   4   8
#     4  10  18  29  50  69  96 115 144 187 254 289
#     4  11  22  36  53  70  95 132 164 203 235 296
#     4  12  21  34  49  71  99 114 145 198 245 300
#     4  10  26  40  44  70 100 130 186 202 226 272
#     4  11  24  33  56  77  88 123 162 188 252 319
#     4  10  16  30  45  76  95 110 134 195 247 307
#
# _framework density 22.629366999999998
#
# number of rings (size 3 to 8) (size 9 to 14) (size 15 to 20)
#    0.000    1.263    6.316    1.579    5.895    0.000 
#    0.000    0.000    0.000    1.895    0.000    0.000 
#    0.000    0.000    0.000    0.000    0.000    0.000 
#
# Total GULP energy -211752.167689 kJ/mol
# GULP energy per Si atom -5572.425465 kJ/mol
# Density = 2.257786 g / cm^3
# Si number density = 22.629367 Si / 1000 Ang^3
#
#
#
# Elastic Constant Matrix: (Units=GPa)
#
#
# Indices 1 2 3 4 5 6 
#
# 1 63.5672 12.7541 52.7903 0.0000 0.0000 0.0000
# 2 12.7541 63.5672 52.7903 0.0000 0.0000 0.0000
# 3 52.7903 52.7903 261.2243 0.0000 0.0000 0.0000
# 4 0.0000 0.0000 0.0000 39.2143 0.0000 0.0000
# 5 0.0000 0.0000 0.0000 0.0000 39.2143 0.0000
# 6 0.0000 0.0000 0.0000 0.0000 0.0000 -34.3365
#
#
#
# Elastic Compliance Matrix: (Units=1/GPa)
#
#
# Indices 1 2 3 4 5 6 
#
# 1 0.018933 -0.000747 -0.003675 0.000000 0.000000 0.000000
# 2 -0.000747 0.018933 -0.003675 0.000000 0.000000 0.000000
# 3 -0.003675 -0.003675 0.005314 0.000000 0.000000 0.000000
# 4 0.000000 0.000000 0.000000 0.025501 0.000000 0.000000
# 5 0.000000 0.000000 0.000000 0.000000 0.025501 0.000000
# 6 0.000000 0.000000 0.000000 0.000000 0.000000 -0.029124
#
#
# Mechanical properties :
#
#
# Convention : Reuss Voigt Hill
#
# Bulk Modulus (GPa) = 37.05635 69.44756 53.25195
# Shear Modulus (GPa) = 55.40258 26.82003 41.11130
#
# Velocity S-wave (km/s) = 4.95336 3.44639 4.26693
# Velocity P-wave (km/s) = 7.00894 6.82587 6.91801
#
# Compressibility (1/GPa) = 0.02698593
#
# Stress axis : x y z
#
# Youngs Moduli (GPa) = 52.81670 52.81670 188.19601
#
# Poissons Ratio (x) = 0.03943 0.69168
# Poissons Ratio (y) = 0.03943 0.69168
# Poissons Ratio (z) = 0.19412 0.19412
#
# Static dielectric constant tensor:
#      x y z
#    x 1.879140 0.000000 0.000000 
#    y 0.000000 1.879140 0.000000 
#    z 0.000000 0.000000 1.949830 
# 
# From -- ./inp_files/290.got.cif
#   From: 2010.05.17/outbox.cif.g08.bks.cpg/sg112_1_cif.got.tgz:290.got - 2010.05.20 10:59:04.
