data_PCOD9554721
_publ_section_title
;
Structure prediction by ZEFSAII (Michael W. Deem and Ramdas Pophale) SiO2 
 PCOD9554721
Probable space group: P -4 2 M 
;
_chemical_formula_sum "Si O2"
_cell_formula_units_Z 60
_cell_length_a 15.002242
_cell_length_b 15.002242
_cell_length_c 15.652323
_cell_angle_alpha 90.000000
_cell_angle_beta 90.000000
_cell_angle_gamma 90.000000
_cell_volume 3522.825529
_symmetry_space_group_name_H-M "P -4 2 M "
_symmetry_group_IT_number 111
_symmetry_cell_setting 'tetragonal'
loop_
_space_group_symop_operation_xyz
x,y,z
y,-x,-z
-x,-y,z
-y,x,-z
x,-y,-z
-x,y,-z
-y,-x,z
y,x,z
loop_
_atom_site_type_symbol
_atom_site_label
_atom_site_fract_x
_atom_site_fract_y
_atom_site_fract_z
Si Si1 0.845005 0.707923 0.301862
Si Si2 0.242600 0.613886 0.171739
Si Si3 0.124450 0.268108 0.710089
Si Si4 0.842232 0.398474 0.991158
Si Si5 0.029955 0.823687 0.814817
Si Si6 0.255341 0.000000 0.000000
Si Si7 0.605253 0.001234 0.602216
Si Si8 0.589876 0.730210 0.181835
O O1 0.789037 0.789037 0.343126
O O2 0.899563 0.751987 0.223059
O O3 0.910833 0.654305 0.362430
O O4 0.776810 0.640349 0.259337
O O5 0.327654 0.672347 0.191066
O O6 0.160963 0.663725 0.217972
O O7 0.261388 0.513991 0.199318
O O8 0.222935 0.612623 0.071230
O O9 0.207104 0.207104 0.678949
O O10 0.054507 0.199866 0.754878
O O11 0.077175 0.332465 0.641337
O O12 0.915579 0.321688 0.997952
O O13 0.787674 0.391874 0.903650
O O14 0.879776 0.500000 0.000000
O O15 0.081019 0.918982 0.807868
O O16 0.004889 0.802506 0.913066
O O17 0.500000 0.000000 0.629122
O O18 0.606965 0.000000 0.500000
O O19 0.632716 0.632716 0.169995
#
# Coordination Sequence:
#
# PCOD9554721 Si02
#       8
#     8   8   8   8   8   4   8   8
#     4   9  18  34  54  76 103 136 171 208 255 311
#     4  10  20  33  50  73 102 138 179 218 260 308
#     4  10  21  38  57  77 106 141 173 212 260 315
#     4  10  20  31  46  73 104 138 183 227 264 304
#     4  10  21  34  51  75 102 137 178 224 264 298
#     4  12  19  32  50  75 104 140 184 224 264 310
#     4  10  21  37  58  85 111 132 164 213 260 309
#     4  10  19  32  51  74 104 139 176 218 260 305
#
# _framework density 17.031783000000001
#
# number of rings (size 3 to 8) (size 9 to 14) (size 15 to 20)
#    0.000    2.000    2.667    1.400    0.000    2.133 
#    0.000    0.000    0.000    2.400    0.000    1.867 
#    0.000    0.000    0.000   24.800    0.000    0.000 
#
# Total GULP energy -334280.119064 kJ/mol
# GULP energy per Si atom -5571.335318 kJ/mol
# Density = 1.699302 g / cm^3
# Si number density = 17.031783 Si / 1000 Ang^3
#
#
#
# Elastic Constant Matrix: (Units=GPa)
#
#
# Indices 1 2 3 4 5 6 
#
# 1 87.7220 58.2724 33.1410 0.0000 0.0000 0.0000
# 2 58.2724 87.7185 33.1411 0.0000 0.0000 0.0000
# 3 33.1410 33.1411 68.6284 0.0000 0.0000 0.0000
# 4 0.0000 0.0000 0.0000 16.2977 0.0000 0.0000
# 5 0.0000 0.0000 0.0000 0.0000 16.2983 0.0000
# 6 0.0000 0.0000 0.0000 0.0000 0.0000 28.1990
#
#
#
# Elastic Compliance Matrix: (Units=1/GPa)
#
#
# Indices 1 2 3 4 5 6 
#
# 1 0.021365 -0.012593 -0.004236 0.000000 0.000000 0.000000
# 2 -0.012593 0.021366 -0.004237 0.000000 0.000000 0.000000
# 3 -0.004236 -0.004237 0.018663 0.000000 0.000000 0.000000
# 4 0.000000 0.000000 0.000000 0.061358 0.000000 0.000000
# 5 0.000000 0.000000 0.000000 0.000000 0.061356 0.000000
# 6 0.000000 0.000000 0.000000 0.000000 0.000000 0.035462
#
#
# Mechanical properties :
#
#
# Convention : Reuss Voigt Hill
#
# Bulk Modulus (GPa) = 51.91341 54.79756 53.35548
# Shear Modulus (GPa) = 18.64811 20.12662 19.38736
#
# Velocity S-wave (km/s) = 3.31252 3.44133 3.37754
# Velocity P-wave (km/s) = 6.72137 6.93065 6.82681
#
# Compressibility (1/GPa) = 0.01926285
#
# Stress axis : x y z
#
# Youngs Moduli (GPa) = 46.80514 46.80283 53.58201
#
# Poissons Ratio (x) = 0.58937 0.22699
# Poissons Ratio (y) = 0.58940 0.22702
# Poissons Ratio (z) = 0.19828 0.19830
#
# Static dielectric constant tensor:
#      x y z
#    x 1.600320 0.000000 0.000000 
#    y 0.000000 1.600320 0.000000 
#    z 0.000000 0.000000 1.539480 
# 
# From -- ./inp_files/3408.got.cif
#   From: 2010.05.17/outbox.cif.g08.bks.cpg/sg111_2_cif.got.tgz:3408.got - 2010.05.20 10:56:05.
