data_PCOD9554829
_publ_section_title
;
Structure prediction by ZEFSAII (Michael W. Deem and Ramdas Pophale) SiO2 
 PCOD9554829
Probable space group: P -4 2 M 
;
_chemical_formula_sum "Si O2"
_cell_formula_units_Z 40
_cell_length_a 17.407870
_cell_length_b 17.407870
_cell_length_c 8.119708
_cell_angle_alpha 90.000000
_cell_angle_beta 90.000000
_cell_angle_gamma 90.000000
_cell_volume 2460.547090
_symmetry_space_group_name_H-M "P -4 2 M "
_symmetry_group_IT_number 111
_symmetry_cell_setting 'tetragonal'
loop_
_space_group_symop_operation_xyz
x,y,z
y,-x,-z
-x,-y,z
-y,x,-z
x,-y,-z
-x,y,-z
-y,-x,z
y,x,z
loop_
_atom_site_type_symbol
_atom_site_label
_atom_site_fract_x
_atom_site_fract_y
_atom_site_fract_z
Si Si1 0.594797 0.926294 0.701034
Si Si2 0.649878 0.770334 0.794694
Si Si3 0.416475 0.905069 0.694015
Si Si4 0.385649 0.262806 0.171314
Si Si5 0.344354 0.532285 0.320108
O O1 0.646853 0.860618 0.776084
O O2 0.506029 0.909565 0.746221
O O3 0.592710 0.913731 0.503280
O O4 0.616680 0.012664 0.752427
O O5 0.732467 0.732467 0.771896
O O6 0.591511 0.727411 0.670281
O O7 0.619660 0.747218 0.975081
O O8 0.387486 0.822468 0.752091
O O9 0.311977 0.311977 0.226984
O O10 0.460648 0.312926 0.216264
O O11 0.363309 0.500000 0.500000
O O12 0.416512 0.583489 0.257804
#
# Coordination Sequence:
#
# PCOD9554829 Si02
#       5
#     8   8   8   8   8
#     4   9  17  32  51  72  95 117 156 197 235 284
#     4  10  21  34  49  70  97 124 153 197 242 284
#     4   9  18  31  51  73  92 120 155 198 236 278
#     4  11  22  34  48  69  97 125 158 197 239 282
#     4  11  22  35  49  64  85 120 168 209 241 277
#
# _framework density 16.256547000000001
#
# number of rings (size 3 to 8) (size 9 to 14) (size 15 to 20)
#    0.000    2.000    2.000    3.600    0.000    4.600 
#    0.000    3.000    0.000    7.200    0.000    0.000 
#    0.000    0.800    0.000    8.800    0.000    6.400 
#
# Total GULP energy -223006.557770 kJ/mol
# GULP energy per Si atom -5575.163944 kJ/mol
# Density = 1.621955 g / cm^3
# Si number density = 16.256547 Si / 1000 Ang^3
#
#
#
# Elastic Constant Matrix: (Units=GPa)
#
#
# Indices 1 2 3 4 5 6 
#
# 1 124.0191 72.8206 22.6528 0.0000 0.0000 0.0000
# 2 72.8206 124.0181 22.6516 0.0000 0.0000 0.0000
# 3 22.6528 22.6516 13.5980 0.0000 0.0000 0.0000
# 4 0.0000 0.0000 0.0000 20.7102 0.0000 0.0000
# 5 0.0000 0.0000 0.0000 0.0000 20.7103 0.0000
# 6 0.0000 0.0000 0.0000 0.0000 0.0000 17.3442
#
#
#
# Elastic Compliance Matrix: (Units=1/GPa)
#
#
# Indices 1 2 3 4 5 6 
#
# 1 0.013886 -0.005646 -0.013727 0.000000 0.000000 0.000000
# 2 -0.005646 0.013885 -0.013724 0.000000 0.000000 0.000000
# 3 -0.013727 -0.013724 0.119270 0.000000 0.000000 0.000000
# 4 0.000000 0.000000 0.000000 0.048285 0.000000 0.000000
# 5 0.000000 0.000000 0.000000 0.000000 0.048285 0.000000
# 6 0.000000 0.000000 0.000000 0.000000 0.000000 0.057656
#
#
# Mechanical properties :
#
#
# Convention : Reuss Voigt Hill
#
# Bulk Modulus (GPa) = 12.36912 55.32058 33.84485
# Shear Modulus (GPa) = 12.67711 21.32030 16.99870
#
# Velocity S-wave (km/s) = 2.79555 3.62538 3.23716
# Velocity P-wave (km/s) = 4.24798 7.18527 5.90226
#
# Compressibility (1/GPa) = 0.08084650
#
# Stress axis : x y z
#
# Youngs Moduli (GPa) = 72.01538 72.01777 8.38434
#
# Poissons Ratio (x) = 0.40664 0.11509
# Poissons Ratio (y) = 0.40662 0.11507
# Poissons Ratio (z) = 0.98854 0.98840
#
# Static dielectric constant tensor:
#      x y z
#    x 1.551060 0.000000 0.000000 
#    y 0.000000 1.551060 0.000000 
#    z 0.000000 0.000000 1.602170 
# 
# From -- ./inp_files/1675.got.cif
#   From: 2010.05.17/outbox.cif.g08.bks.cpg/sg111_1_cif.got.tgz:1675.got - 2010.05.20 10:56:05.
