data_PCOD9554291
_publ_section_title
;
Structure prediction by ZEFSAII (Michael W. Deem and Ramdas Pophale) SiO2 
 PCOD9554291
Probable space group: I 41 M D
;
_chemical_formula_sum "Si O2"
_cell_formula_units_Z 80
_cell_length_a 11.627526
_cell_length_b 11.627526
_cell_length_c 31.198906
_cell_angle_alpha 90.000000
_cell_angle_beta 90.000000
_cell_angle_gamma 90.000000
_cell_volume 4218.072151
_symmetry_space_group_name_H-M "I 41 M D"
_symmetry_group_IT_number 109
_symmetry_cell_setting 'tetragonal'
loop_
_space_group_symop_operation_xyz
x,y,z
-y,1/2+x,1/4+z
-x,-y,z
y,1/2-x,1/4+z
-x,y,z
x,-y,z
-y,1/2-x,1/4+z
y,1/2+x,1/4+z
1/2+x,1/2+y,1/2+z
1/2-y,x,3/4+z
1/2-x,1/2-y,1/2+z
1/2+y,-x,3/4+z
1/2-x,1/2+y,1/2+z
1/2+x,1/2-y,1/2+z
1/2-y,-x,3/4+z
1/2+y,x,3/4+z
loop_
_atom_site_type_symbol
_atom_site_label
_atom_site_fract_x
_atom_site_fract_y
_atom_site_fract_z
Si Si1 0.362979 0.000000 0.003430
Si Si2 0.000000 0.133284 0.016541
Si Si3 0.365159 0.000000 0.869557
Si Si4 0.862584 0.634136 0.809454
Si Si5 0.239052 0.768524 0.983379
Si Si6 0.363060 0.000000 0.103385
Si Si7 0.749294 0.769740 0.136998
O O1 0.500000 0.000000 0.001816
O O2 0.325234 0.000000 0.053513
O O3 0.312773 0.113999 0.982567
O O4 0.000000 0.131250 0.067933
O O5 0.113767 0.196915 0.000395
O O6 0.000000 0.000000 0.001601
O O7 0.298163 0.115181 0.882962
O O8 0.500000 0.000000 0.884487
O O9 0.822754 0.500000 0.811063
O O10 0.812482 0.696030 0.767304
O O11 0.817107 0.703146 0.850857
O O12 0.000000 0.634723 0.808441
O O13 0.232107 0.721846 0.935251
O O14 0.314010 0.888577 0.126191
O O15 0.500000 0.000000 0.103982
#
# Coordination Sequence:
#
# PCOD9554291 Si02
#       7
#     8   8   8  16  16   8  16
#     4  11  21  39  67 100 138 169 210 271 339 389
#     4  11  22  43  66  94 135 177 214 260 331 391
#     4  11  21  40  66  99 135 171 204 263 337 389
#     4  11  26  48  68  90 130 178 221 270 327 389
#     4  12  25  42  67 100 131 172 218 273 325 390
#     4  11  22  40  69  97 130 171 216 276 335 389
#     4  12  25  41  67 101 133 168 219 272 327 391
#
# _framework density 18.966009
#
# number of rings (size 3 to 8) (size 9 to 14) (size 15 to 20)
#    0.000    0.600    6.000    1.800    4.200    2.400 
#    0.000    2.000    0.000    0.000    0.000    0.000 
#    0.000    0.000    0.000    0.000    0.000    0.000 
#
# Total GULP energy -223733.838855 kJ/mol
# GULP energy per Si atom -5593.345971 kJ/mol
# Density = 1.892284 g / cm^3
# Si number density = 18.966009 Si / 1000 Ang^3
#
#
#
# Elastic Constant Matrix: (Units=GPa)
#
#
# Indices 1 2 3 4 5 6 
#
# 1 103.3155 41.2852 45.9280 0.0000 0.0000 0.0000
# 2 41.2852 103.3155 45.9280 0.0000 0.0000 0.0000
# 3 45.9280 45.9280 158.1713 0.0000 0.0000 0.0000
# 4 0.0000 0.0000 0.0000 8.6718 0.0000 0.0000
# 5 0.0000 0.0000 0.0000 0.0000 8.6718 0.0000
# 6 0.0000 0.0000 0.0000 0.0000 0.0000 191.2942
#
#
#
# Elastic Compliance Matrix: (Units=1/GPa)
#
#
# Indices 1 2 3 4 5 6 
#
# 1 0.012300 -0.003821 -0.002462 0.000000 0.000000 0.000000
# 2 -0.003821 0.012300 -0.002462 0.000000 0.000000 0.000000
# 3 -0.002462 -0.002462 0.007752 0.000000 0.000000 0.000000
# 4 0.000000 0.000000 0.000000 0.115316 0.000000 0.000000
# 5 0.000000 0.000000 0.000000 0.000000 0.115316 0.000000
# 6 0.000000 0.000000 0.000000 0.000000 0.000000 0.005228
#
#
# Mechanical properties :
#
#
# Convention : Reuss Voigt Hill
#
# Bulk Modulus (GPa) = 67.28287 70.12052 68.70169
# Shear Modulus (GPa) = 17.20238 57.17163 37.18701
#
# Velocity S-wave (km/s) = 3.01493 5.49634 4.43280
# Velocity P-wave (km/s) = 6.90451 8.79384 7.90581
#
# Compressibility (1/GPa) = 0.01486263
#
# Stress axis : x y z
#
# Youngs Moduli (GPa) = 81.29794 81.29795 128.99600
#
# Poissons Ratio (x) = 0.31062 0.31762
# Poissons Ratio (y) = 0.31062 0.31762
# Poissons Ratio (z) = 0.20018 0.20018
#
# Static dielectric constant tensor:
#      x y z
#    x 1.639330 0.000000 0.000000 
#    y 0.000000 1.639330 0.000000 
#    z 0.000000 0.000000 1.673150 
# 
# From -- ./inp_files/5526.got.cif
#   From: 2010.05.17/outbox.cif.g08.bks.cpg/sg109_3_cif.got.tgz:5526.got - 2010.05.20 10:51:12.
