data_PCOD9554606
_publ_section_title
;
Structure prediction by ZEFSAII (Michael W. Deem and Ramdas Pophale) SiO2 
 PCOD9554606
Probable space group: I 41 C D
;
_chemical_formula_sum "Si O2"
_cell_formula_units_Z 64
_cell_length_a 10.146503
_cell_length_b 10.146503
_cell_length_c 26.223458
_cell_angle_alpha 90.000000
_cell_angle_beta 90.000000
_cell_angle_gamma 90.000000
_cell_volume 2699.744943
_symmetry_space_group_name_H-M "I 41 C D"
_symmetry_group_IT_number 110
_symmetry_cell_setting 'tetragonal'
loop_
_space_group_symop_operation_xyz
x,y,z
-y,1/2+x,1/4+z
-x,-y,z
y,1/2-x,1/4+z
-x,y,1/2+z
x,-y,1/2+z
1/2-y,-x,1/4+z
1/2+y,x,1/4+z
1/2+x,1/2+y,1/2+z
1/2-y,x,3/4+z
1/2-x,1/2-y,1/2+z
1/2+y,-x,3/4+z
1/2-x,1/2+y,z
1/2+x,1/2-y,z
-y,1/2-x,3/4+z
y,1/2+x,3/4+z
loop_
_atom_site_type_symbol
_atom_site_label
_atom_site_fract_x
_atom_site_fract_y
_atom_site_fract_z
Si Si1 0.713703 0.481888 0.587770
Si Si2 0.113900 0.736956 0.629142
Si Si3 0.018112 0.213703 0.532681
Si Si4 0.613900 0.263044 0.241309
O O1 0.778492 0.378766 0.626335
O O2 0.674820 0.620169 0.613875
O O3 0.594597 0.405404 0.560226
O O4 0.798263 0.516418 0.537378
O O5 0.054904 0.750000 0.685226
O O6 0.016418 0.701737 0.583073
O O7 0.121234 0.278492 0.494116
O O8 0.879830 0.174820 0.506576
#
# Coordination Sequence:
#
# PCOD9554606 Si02
#       4
#    16  16  16  16
#     4  11  23  49  69 103 146 179 241 294 340 439
#     4  11  24  45  74 103 143 189 232 295 362 414
#     4  11  23  49  69 103 146 179 241 294 340 439
#     4  11  24  45  74 103 143 189 232 295 362 414
#
# _framework density 23.705943999999999
#
# number of rings (size 3 to 8) (size 9 to 14) (size 15 to 20)
#    0.000    1.000    5.000    4.500    0.000    3.000 
#   18.000    0.000    0.000    0.000    0.000    0.000 
#    0.000    0.000    0.000    0.000    0.000    0.000 
#
# Total GULP energy -178595.100381 kJ/mol
# GULP energy per Si atom -5581.096887 kJ/mol
# Density = 2.365199 g / cm^3
# Si number density = 23.705944 Si / 1000 Ang^3
#
#
#
# Elastic Constant Matrix: (Units=GPa)
#
#
# Indices 1 2 3 4 5 6 
#
# 1 87.1043 25.4515 10.3149 0.0000 0.0000 0.0000
# 2 25.4515 87.1043 10.3149 0.0000 0.0000 0.0000
# 3 10.3149 10.3149 139.6293 0.0000 0.0000 0.0000
# 4 0.0000 0.0000 0.0000 11.2867 0.0000 0.0000
# 5 0.0000 0.0000 0.0000 0.0000 11.2867 0.0000
# 6 0.0000 0.0000 0.0000 0.0000 0.0000 24.2356
#
#
#
# Elastic Compliance Matrix: (Units=1/GPa)
#
#
# Indices 1 2 3 4 5 6 
#
# 1 0.012613 -0.003607 -0.000665 0.000000 0.000000 0.000000
# 2 -0.003607 0.012613 -0.000665 0.000000 0.000000 0.000000
# 3 -0.000665 -0.000665 0.007260 0.000000 0.000000 0.000000
# 4 0.000000 0.000000 0.000000 0.088600 0.000000 0.000000
# 5 0.000000 0.000000 0.000000 0.000000 0.088600 0.000000
# 6 0.000000 0.000000 0.000000 0.000000 0.000000 0.041262
#
#
# Mechanical properties :
#
#
# Convention : Reuss Voigt Hill
#
# Bulk Modulus (GPa) = 44.22502 45.11117 44.66810
# Shear Modulus (GPa) = 18.63175 27.21225 22.92200
#
# Velocity S-wave (km/s) = 2.80653 3.39175 3.11292
# Velocity P-wave (km/s) = 5.40354 5.86596 5.63949
#
# Compressibility (1/GPa) = 0.02261163
#
# Stress axis : x y z
#
# Youngs Moduli (GPa) = 79.28232 79.28232 137.73868
#
# Poissons Ratio (x) = 0.28595 0.09164
# Poissons Ratio (y) = 0.28595 0.09164
# Poissons Ratio (z) = 0.05275 0.05275
#
# Static dielectric constant tensor:
#      x y z
#    x 2.021930 0.000000 0.000000 
#    y 0.000000 2.021930 0.000000 
#    z 0.000000 0.000000 1.913450 
# 
# From -- ./inp_files/2823.got.cif
#   From: 2010.05.17/outbox.cif.g08.bks.cpg/sg110_2_cif.got.tgz:2823.got - 2010.05.20 10:54:03.
