data_PCOD9554744
_publ_section_title
;
Structure prediction by ZEFSAII (Michael W. Deem and Ramdas Pophale) SiO2 
 PCOD9554744
Probable space group: P -4 2 M 
;
_chemical_formula_sum "Si O2"
_cell_formula_units_Z 56
_cell_length_a 12.268485
_cell_length_b 12.268485
_cell_length_c 21.095954
_cell_angle_alpha 90.000000
_cell_angle_beta 90.000000
_cell_angle_gamma 90.000000
_cell_volume 3175.272794
_symmetry_space_group_name_H-M "P -4 2 M "
_symmetry_group_IT_number 111
_symmetry_cell_setting 'tetragonal'
loop_
_space_group_symop_operation_xyz
x,y,z
y,-x,-z
-x,-y,z
-y,x,-z
x,-y,-z
-x,y,-z
-y,-x,z
y,x,z
loop_
_atom_site_type_symbol
_atom_site_label
_atom_site_fract_x
_atom_site_fract_y
_atom_site_fract_z
Si Si1 0.761292 0.943892 0.930423
Si Si2 0.137555 0.681330 0.843241
Si Si3 0.523528 0.870264 0.929692
Si Si4 0.626213 0.801389 0.650676
Si Si5 0.199576 0.620418 0.620719
Si Si6 0.306278 0.872262 0.489862
Si Si7 0.985093 0.369802 0.713014
O O1 0.869032 0.869032 0.924423
O O2 0.653557 0.868307 0.918601
O O3 0.747024 0.047303 0.884304
O O4 0.755826 0.000000 0.000000
O O5 0.243046 0.756955 0.834964
O O6 0.167416 0.566919 0.878713
O O7 0.075838 0.657197 0.777645
O O8 0.500000 0.000000 0.931911
O O9 0.500000 0.824864 0.000000
O O10 0.691217 0.691217 0.659582
O O11 0.497335 0.782254 0.651234
O O12 0.650479 0.847081 0.580170
O O13 0.668472 0.892043 0.700278
O O14 0.300837 0.699164 0.631040
O O15 0.174144 0.616955 0.545889
O O16 0.092688 0.666928 0.655723
O O17 0.193174 0.806827 0.497352
O O18 0.294593 0.000000 0.500000
O O19 0.000000 0.500000 0.709086
#
# Coordination Sequence:
#
# PCOD9554744 Si02
#       7
#     8   8   8   8   8   8   8
#     4  11  21  34  54  82 112 142 177 217 266 324
#     4  11  22  36  57  84 114 145 181 228 279 331
#     4   9  16  33  55  77 105 138 179 213 255 318
#     4  10  21  35  54  81 112 148 189 234 285 340
#     4  10  20  34  56  82 109 144 188 239 289 335
#     4  10  19  33  54  81 112 146 190 237 287 342
#     4  10  20  36  57  78 107 146 192 234 270 327
#
# _framework density 17.636279999999999
#
# number of rings (size 3 to 8) (size 9 to 14) (size 15 to 20)
#    0.000    1.857    4.286    2.571    0.000    2.571 
#    0.000    0.000    0.000    4.286    0.000    1.000 
#    0.000    0.000    0.000    0.000    0.000    0.000 
#
# Total GULP energy -311971.375986 kJ/mol
# GULP energy per Si atom -5570.917428 kJ/mol
# Density = 1.759614 g / cm^3
# Si number density = 17.636280 Si / 1000 Ang^3
#
#
#
# Elastic Constant Matrix: (Units=GPa)
#
#
# Indices 1 2 3 4 5 6 
#
# 1 58.6509 53.6802 8.7161 0.0000 0.0000 0.0000
# 2 53.6802 58.6579 8.7093 0.0000 0.0000 0.0000
# 3 8.7161 8.7093 68.6643 0.0000 0.0000 0.0000
# 4 0.0000 0.0000 0.0000 13.9662 0.0000 0.0000
# 5 0.0000 0.0000 0.0000 0.0000 13.9667 0.0000
# 6 0.0000 0.0000 0.0000 0.0000 0.0000 12.4887
#
#
#
# Elastic Compliance Matrix: (Units=1/GPa)
#
#
# Indices 1 2 3 4 5 6 
#
# 1 0.105067 -0.095978 -0.001163 0.000000 0.000000 0.000000
# 2 -0.095978 0.105051 -0.001141 0.000000 0.000000 0.000000
# 3 -0.001163 -0.001141 0.014856 0.000000 0.000000 0.000000
# 4 0.000000 0.000000 0.000000 0.071601 0.000000 0.000000
# 5 0.000000 0.000000 0.000000 0.000000 0.071599 0.000000
# 6 0.000000 0.000000 0.000000 0.000000 0.000000 0.080072
#
#
# Mechanical properties :
#
#
# Convention : Reuss Voigt Hill
#
# Bulk Modulus (GPa) = 35.20075 36.46493 35.83284
# Shear Modulus (GPa) = 7.64197 15.74218 11.69207
#
# Velocity S-wave (km/s) = 2.08387 2.99089 2.57759
# Velocity P-wave (km/s) = 5.07864 5.71386 5.40559
#
# Compressibility (1/GPa) = 0.02840849
#
# Stress axis : x y z
#
# Youngs Moduli (GPa) = 9.51773 9.51918 67.31282
#
# Poissons Ratio (x) = 0.91364 0.07829
# Poissons Ratio (y) = 0.91350 0.07683
# Poissons Ratio (z) = 0.01107 0.01087
#
# Static dielectric constant tensor:
#      x y z
#    x 1.603710 0.000000 0.000000 
#    y 0.000000 1.603710 0.000000 
#    z 0.000000 0.000000 1.647530 
# 
# From -- ./inp_files/3993.got.cif
#   From: 2010.05.17/outbox.cif.g08.bks.cpg/sg111_2_cif.got.tgz:3993.got - 2010.05.20 10:56:05.
