data_PCOD9554627
_publ_section_title
;
Structure prediction by ZEFSAII (Michael W. Deem and Ramdas Pophale) SiO2 
 PCOD9554627
Probable space group: I 41 C D
;
_chemical_formula_sum "Si O2"
_cell_formula_units_Z 80
_cell_length_a 10.881070
_cell_length_b 10.881070
_cell_length_c 28.142319
_cell_angle_alpha 90.000000
_cell_angle_beta 90.000000
_cell_angle_gamma 90.000000
_cell_volume 3331.985402
_symmetry_space_group_name_H-M "I 41 C D"
_symmetry_group_IT_number 110
_symmetry_cell_setting 'tetragonal'
loop_
_space_group_symop_operation_xyz
x,y,z
-y,1/2+x,1/4+z
-x,-y,z
y,1/2-x,1/4+z
-x,y,1/2+z
x,-y,1/2+z
1/2-y,-x,1/4+z
1/2+y,x,1/4+z
1/2+x,1/2+y,1/2+z
1/2-y,x,3/4+z
1/2-x,1/2-y,1/2+z
1/2+y,-x,3/4+z
1/2-x,1/2+y,z
1/2+x,1/2-y,z
-y,1/2-x,3/4+z
y,1/2+x,3/4+z
loop_
_atom_site_type_symbol
_atom_site_label
_atom_site_fract_x
_atom_site_fract_y
_atom_site_fract_z
Si Si1 0.886794 0.905701 0.171660
Si Si2 0.085592 0.120696 0.277777
Si Si3 0.642915 0.042933 0.152768
Si Si4 0.592774 0.114484 0.256846
Si Si5 0.774861 0.954257 0.839368
O O1 0.848575 0.881178 0.226226
O O2 0.947919 0.803504 0.137659
O O3 0.759143 0.953847 0.149949
O O4 0.000000 0.000000 0.174295
O O5 0.030719 0.257249 0.272822
O O6 0.173177 0.086672 0.322258
O O7 0.000000 0.000000 0.277368
O O8 0.650240 0.112577 0.203690
O O9 0.640786 0.119546 0.104325
O O10 0.500000 0.000000 0.154047
O O11 0.698569 0.093181 0.295092
O O12 0.500000 0.000000 0.259905
#
# Coordination Sequence:
#
# PCOD9554627 Si02
#       5
#    16  16  16  16  16
#     4  11  26  49  73 113 156 210 274 341 408 511
#     4  11  26  50  75 117 160 211 280 351 424 514
#     4  11  26  50  74 114 161 212 275 347 422 507
#     4  11  26  51  79 113 158 216 279 350 430 515
#     4  12  26  46  78 112 160 218 270 343 425 501
#
# _framework density 24.009709999999998
#
# number of rings (size 3 to 8) (size 9 to 14) (size 15 to 20)
#    0.000    0.800    4.000    1.200    8.400    1.600 
#    3.600    0.000    0.000    0.000    0.000    0.000 
#    0.000    0.000    0.000    0.000    0.000    0.000 
#
# Total GULP energy -222979.849898 kJ/mol
# GULP energy per Si atom -5574.496247 kJ/mol
# Density = 2.395506 g / cm^3
# Si number density = 24.009710 Si / 1000 Ang^3
#
#
#
# Elastic Constant Matrix: (Units=GPa)
#
#
# Indices 1 2 3 4 5 6 
#
# 1 107.7053 45.4284 41.2801 0.0000 0.0000 0.0000
# 2 45.4284 107.7053 41.2801 0.0000 0.0000 0.0000
# 3 41.2801 41.2801 174.6923 0.0000 0.0000 0.0000
# 4 0.0000 0.0000 0.0000 31.2862 0.0000 0.0000
# 5 0.0000 0.0000 0.0000 0.0000 31.2862 0.0000
# 6 0.0000 0.0000 0.0000 0.0000 0.0000 25.0985
#
#
#
# Elastic Compliance Matrix: (Units=1/GPa)
#
#
# Indices 1 2 3 4 5 6 
#
# 1 0.011770 -0.004287 -0.001768 0.000000 0.000000 0.000000
# 2 -0.004287 0.011770 -0.001768 0.000000 0.000000 0.000000
# 3 -0.001768 -0.001768 0.006560 0.000000 0.000000 0.000000
# 4 0.000000 0.000000 0.000000 0.031963 0.000000 0.000000
# 5 0.000000 0.000000 0.000000 0.000000 0.031963 0.000000
# 6 0.000000 0.000000 0.000000 0.000000 0.000000 0.039843
#
#
# Mechanical properties :
#
#
# Convention : Reuss Voigt Hill
#
# Bulk Modulus (GPa) = 69.18591 71.78667 70.48629
# Shear Modulus (GPa) = 32.39700 35.00846 33.70273
#
# Velocity S-wave (km/s) = 3.67731 3.82265 3.75068
# Velocity P-wave (km/s) = 6.84898 7.03189 6.94103
#
# Compressibility (1/GPa) = 0.01445381
#
# Stress axis : x y z
#
# Youngs Moduli (GPa) = 84.95831 84.95831 152.43670
#
# Poissons Ratio (x) = 0.36420 0.26957
# Poissons Ratio (y) = 0.36420 0.26957
# Poissons Ratio (z) = 0.15024 0.15024
#
# Static dielectric constant tensor:
#      x y z
#    x 2.047690 0.000000 0.000000 
#    y 0.000000 2.047690 0.000000 
#    z 0.000000 0.000000 1.924280 
# 
# From -- ./inp_files/3106.got.cif
#   From: 2010.05.17/outbox.cif.g08.bks.cpg/sg110_2_cif.got.tgz:3106.got - 2010.05.20 10:54:03.
