data_PCOD9554965
_publ_section_title
;
Structure prediction by ZEFSAII (Michael W. Deem and Ramdas Pophale) SiO2 
 PCOD9554965
Probable space group: P -4 2 C
;
_chemical_formula_sum "Si O2"
_cell_formula_units_Z 48
_cell_length_a 14.438319
_cell_length_b 14.438319
_cell_length_c 12.238832
_cell_angle_alpha 90.000000
_cell_angle_beta 90.000000
_cell_angle_gamma 90.000000
_cell_volume 2551.368793
_symmetry_space_group_name_H-M "P -4 2 C"
_symmetry_group_IT_number 112
_symmetry_cell_setting 'tetragonal'
loop_
_space_group_symop_operation_xyz
x,y,z
y,-x,-z
-x,-y,z
-y,x,-z
x,-y,1/2-z
-x,y,1/2-z
-y,-x,1/2+z
y,x,1/2+z
loop_
_atom_site_type_symbol
_atom_site_label
_atom_site_fract_x
_atom_site_fract_y
_atom_site_fract_z
Si Si1 0.489982 0.700468 0.965919
Si Si2 0.164961 0.672945 0.502726
Si Si3 0.610853 0.989693 0.880903
Si Si4 0.396541 0.410437 0.821511
Si Si5 0.195732 0.612868 0.742755
Si Si6 0.184706 0.671102 0.978715
O O1 0.413300 0.778458 0.951154
O O2 0.514788 0.647944 0.856177
O O3 0.449719 0.636393 0.060414
O O4 0.586569 0.743223 0.006005
O O5 0.150487 0.646287 0.629982
O O6 0.231902 0.762007 0.494646
O O7 0.069521 0.671235 0.438537
O O8 0.500000 0.000000 0.907339
O O9 0.619026 0.000000 0.750000
O O10 0.648970 0.894552 0.933142
O O11 0.409215 0.500000 0.750000
O O12 0.305222 0.360847 0.771806
O O13 0.191525 0.500000 0.750000
O O14 0.155069 0.657747 0.852181
#
# Coordination Sequence:
#
# PCOD9554965 Si02
#       6
#     8   8   8   8   8   8
#     4  11  19  36  56  85 122 168 216 262 310 382
#     4  11  24  41  62  93 128 169 222 263 333 394
#     4  11  25  44  66  97 135 176 221 269 332 400
#     4  10  20  35  50  78 125 171 222 263 306 368
#     4  10  18  35  61  85 119 163 214 267 316 377
#     4  12  22  40  63  91 128 169 213 275 326 388
#
# _framework density 18.813431000000001
#
# number of rings (size 3 to 8) (size 9 to 14) (size 15 to 20)
#    0.000    1.167   10.000    0.000    2.333    1.000 
#    0.000   10.833    0.000    0.500    0.000    1.167 
#    0.000    0.000    0.000    0.000    0.000    0.000 
#
# Total GULP energy -268045.164960 kJ/mol
# GULP energy per Si atom -5584.274270 kJ/mol
# Density = 1.877061 g / cm^3
# Si number density = 18.813431 Si / 1000 Ang^3
#
#
#
# Elastic Constant Matrix: (Units=GPa)
#
#
# Indices 1 2 3 4 5 6 
#
# 1 62.4229 31.0793 38.7496 0.0000 0.0000 0.0000
# 2 31.0793 62.4229 38.7496 0.0000 0.0000 0.0000
# 3 38.7496 38.7496 125.7450 0.0000 0.0000 0.0000
# 4 0.0000 0.0000 0.0000 21.7552 0.0000 0.0000
# 5 0.0000 0.0000 0.0000 0.0000 21.7552 0.0000
# 6 0.0000 0.0000 0.0000 0.0000 0.0000 13.8848
#
#
#
# Elastic Compliance Matrix: (Units=1/GPa)
#
#
# Indices 1 2 3 4 5 6 
#
# 1 0.023134 -0.008770 -0.004426 0.000000 0.000000 0.000000
# 2 -0.008770 0.023134 -0.004426 0.000000 0.000000 0.000000
# 3 -0.004426 -0.004426 0.010681 0.000000 0.000000 0.000000
# 4 0.000000 0.000000 0.000000 0.045966 0.000000 0.000000
# 5 0.000000 0.000000 0.000000 0.000000 0.045966 0.000000
# 6 0.000000 0.000000 0.000000 0.000000 0.000000 0.072021
#
#
# Mechanical properties :
#
#
# Convention : Reuss Voigt Hill
#
# Bulk Modulus (GPa) = 46.07716 51.97198 49.02457
# Shear Modulus (GPa) = 18.98382 20.94654 19.96518
#
# Velocity S-wave (km/s) = 3.18001 3.34036 3.26117
# Velocity P-wave (km/s) = 6.16669 6.52397 6.34785
#
# Compressibility (1/GPa) = 0.02170273
#
# Stress axis : x y z
#
# Youngs Moduli (GPa) = 43.22635 43.22635 93.62743
#
# Poissons Ratio (x) = 0.37911 0.41442
# Poissons Ratio (y) = 0.37911 0.41442
# Poissons Ratio (z) = 0.19133 0.19133
#
# Static dielectric constant tensor:
#      x y z
#    x 1.690440 0.000000 0.000000 
#    y 0.000000 1.690440 0.000000 
#    z 0.000000 0.000000 1.775960 
# 
# From -- ./inp_files/2573.got.cif
#   From: 2010.05.17/outbox.cif.g08.bks.cpg/sg112_2_cif.got.tgz:2573.got - 2010.05.20 10:59:04.
