data_PCOD9554073
_publ_section_title
;
Structure prediction by ZEFSAII (Michael W. Deem and Ramdas Pophale) SiO2 
 PCOD9554073
Probable space group: I 41 M D
;
_chemical_formula_sum "Si O2"
_cell_formula_units_Z 128
_cell_length_a 20.433672
_cell_length_b 20.433672
_cell_length_c 18.515871
_cell_angle_alpha 90.000000
_cell_angle_beta 90.000000
_cell_angle_gamma 90.000000
_cell_volume 7731.023298
_symmetry_space_group_name_H-M "I 41 M D"
_symmetry_group_IT_number 109
_symmetry_cell_setting 'tetragonal'
loop_
_space_group_symop_operation_xyz
x,y,z
-y,1/2+x,1/4+z
-x,-y,z
y,1/2-x,1/4+z
-x,y,z
x,-y,z
-y,1/2-x,1/4+z
y,1/2+x,1/4+z
1/2+x,1/2+y,1/2+z
1/2-y,x,3/4+z
1/2-x,1/2-y,1/2+z
1/2+y,-x,3/4+z
1/2-x,1/2+y,1/2+z
1/2+x,1/2-y,1/2+z
1/2-y,-x,3/4+z
1/2+y,x,3/4+z
loop_
_atom_site_type_symbol
_atom_site_label
_atom_site_fract_x
_atom_site_fract_y
_atom_site_fract_z
Si Si1 0.427305 0.899773 0.875000
Si Si2 0.927287 0.285768 0.039820
Si Si3 0.208016 0.396031 0.436412
Si Si4 0.076555 0.928313 0.957172
Si Si5 0.779536 0.318136 0.034989
Si Si6 0.702876 0.925034 0.642818
Si Si7 0.071546 0.755131 0.346912
Si Si8 0.211222 0.243611 0.403136
O O1 0.500000 0.922077 0.896369
O O2 0.367061 0.918384 0.925301
O O3 0.414848 0.921669 0.792601
O O4 0.428508 0.821202 0.868218
O O5 0.919149 0.246542 0.115013
O O6 0.858389 0.322397 0.028006
O O7 0.000000 0.317903 0.039697
O O8 0.926965 0.237685 0.970500
O O9 0.238357 0.421262 0.510552
O O10 0.207977 0.316705 0.437476
O O11 0.105063 0.868530 0.912329
O O12 0.000000 0.931194 0.937567
O O13 0.106475 0.000000 0.945402
O O14 0.761665 0.380680 0.083797
O O15 0.757725 0.255430 0.082730
O O16 0.746574 0.305795 0.957906
O O17 0.697023 0.000000 0.617681
O O18 0.138685 0.780780 0.382147
O O19 0.000000 0.782542 0.367991
#
# Coordination Sequence:
#
# PCOD9554073 Si02
#       8
#    16  16  16  16  16  16  16  16
#     4   9  18  29  42  63  95 134 169 195 231 288
#     4  10  20  29  43  72 105 134 166 203 246 296
#     4  10  18  28  47  69 101 131 166 204 241 293
#     4   9  17  28  41  61  97 141 172 194 229 288
#     4  11  20  34  54  72 101 135 170 213 253 299
#     4  10  20  33  48  71 101 131 168 212 255 299
#     4  10  20  32  48  72 102 132 165 209 251 291
#     4  10  20  33  50  76  99 133 171 207 251 300
#
# _framework density 16.55667
#
# number of rings (size 3 to 8) (size 9 to 14) (size 15 to 20)
#    0.000    2.125    3.750    0.375    3.500    1.000 
#    0.000    0.000    0.000    1.500    0.000    0.000 
#    0.000    0.000    0.000    0.000    0.000    0.000 
#
# Total GULP energy -356501.705533 kJ/mol
# GULP energy per Si atom -5570.339149 kJ/mol
# Density = 1.651899 g / cm^3
# Si number density = 16.556670 Si / 1000 Ang^3
#
#
#
# Elastic Constant Matrix: (Units=GPa)
#
#
# Indices 1 2 3 4 5 6 
#
# 1 50.5504 10.5230 21.7293 0.0000 0.0000 0.0000
# 2 10.5230 50.5504 21.7293 0.0000 0.0000 0.0000
# 3 21.7293 21.7293 52.0335 0.0000 0.0000 0.0000
# 4 0.0000 0.0000 0.0000 18.1541 0.0000 0.0000
# 5 0.0000 0.0000 0.0000 0.0000 18.1541 0.0000
# 6 0.0000 0.0000 0.0000 0.0000 0.0000 7.7883
#
#
#
# Elastic Compliance Matrix: (Units=1/GPa)
#
#
# Indices 1 2 3 4 5 6 
#
# 1 0.024140 -0.000843 -0.009729 0.000000 0.000000 0.000000
# 2 -0.000843 0.024140 -0.009729 0.000000 0.000000 0.000000
# 3 -0.009729 -0.009729 0.027344 0.000000 0.000000 0.000000
# 4 0.000000 0.000000 0.000000 0.055084 0.000000 0.000000
# 5 0.000000 0.000000 0.000000 0.000000 0.055084 0.000000
# 6 0.000000 0.000000 0.000000 0.000000 0.000000 0.128397
#
#
# Mechanical properties :
#
#
# Convention : Reuss Voigt Hill
#
# Bulk Modulus (GPa) = 28.55341 29.01085 28.78213
# Shear Modulus (GPa) = 13.64392 15.42949 14.53670
#
# Velocity S-wave (km/s) = 2.87378 3.05605 2.96632
# Velocity P-wave (km/s) = 5.31929 5.47839 5.39942
#
# Compressibility (1/GPa) = 0.03502209
#
# Stress axis : x y z
#
# Youngs Moduli (GPa) = 41.42552 41.42552 36.57130
#
# Poissons Ratio (x) = 0.03493 0.35579
# Poissons Ratio (y) = 0.03493 0.35579
# Poissons Ratio (z) = 0.40302 0.40302
#
# Static dielectric constant tensor:
#      x y z
#    x 1.606780 0.000000 0.000000 
#    y 0.000000 1.606780 0.000000 
#    z 0.000000 0.000000 1.533630 
# 
# From -- ./inp_files/3302.got.cif
#   From: 2010.05.17/outbox.cif.g08.bks.cpg/sg109_2_cif.got.tgz:3302.got - 2010.05.20 10:51:12.
