data_PCOD9554778
_publ_section_title
;
Structure prediction by ZEFSAII (Michael W. Deem and Ramdas Pophale) SiO2 
 PCOD9554778
Probable space group: P -4 2 M 
;
_chemical_formula_sum "Si O2"
_cell_formula_units_Z 48
_cell_length_a 21.004453
_cell_length_b 21.004453
_cell_length_c 5.652291
_cell_angle_alpha 90.000000
_cell_angle_beta 90.000000
_cell_angle_gamma 90.000000
_cell_volume 2493.717568
_symmetry_space_group_name_H-M "P -4 2 M "
_symmetry_group_IT_number 111
_symmetry_cell_setting 'tetragonal'
loop_
_space_group_symop_operation_xyz
x,y,z
y,-x,-z
-x,-y,z
-y,x,-z
x,-y,-z
-x,y,-z
-y,-x,z
y,x,z
loop_
_atom_site_type_symbol
_atom_site_label
_atom_site_fract_x
_atom_site_fract_y
_atom_site_fract_z
Si Si1 0.333797 0.565124 0.360978
Si Si2 0.278789 0.176866 0.694213
Si Si3 0.320372 0.964268 0.250177
Si Si4 0.535028 0.914235 0.749992
Si Si5 0.346482 0.246853 0.304889
Si Si6 0.784159 0.587078 0.901135
O O1 0.343958 0.500000 0.500000
O O2 0.398920 0.601080 0.301320
O O3 0.291283 0.612806 0.520079
O O4 0.285836 0.560307 0.141418
O O5 0.214051 0.214051 0.749647
O O6 0.282100 0.102406 0.742107
O O7 0.300115 0.196085 0.428612
O O8 0.338487 0.208039 0.831660
O O9 0.395711 0.946997 0.250958
O O10 0.307469 0.000000 0.500000
O O11 0.307467 0.000000 0.000000
O O12 0.500000 0.927288 0.500000
O O13 0.548948 0.838596 0.771415
O O14 0.500000 0.930072 0.000000
O O15 0.299258 0.299258 0.185246
O O16 0.402459 0.207503 0.178211
#
# Coordination Sequence:
#
# PCOD9554778 Si02
#       6
#     8   8   8   8   8   8
#     4  10  21  34  47  69  97 133 181 238 304 372
#     4   9  20  37  60  87 116 148 193 241 300 352
#     4  11  25  42  61  85 125 166 206 246 292 345
#     4  11  25  38  59  86 116 161 211 247 290 344
#     4   9  18  33  55  80 104 139 180 241 311 366
#     4  10  20  32  57  79 111 133 185 247 309 349
#
# _framework density 19.248369
#
# number of rings (size 3 to 8) (size 9 to 14) (size 15 to 20)
#    0.000    2.000    0.000    4.000   14.000    2.167 
#    0.000    0.000    0.000    0.000    0.000    2.333 
#    0.000    2.000    0.000    0.000    0.000    0.000 
#
# Total GULP energy -267364.838901 kJ/mol
# GULP energy per Si atom -5570.100810 kJ/mol
# Density = 1.920456 g / cm^3
# Si number density = 19.248369 Si / 1000 Ang^3
#
#
#
# Elastic Constant Matrix: (Units=GPa)
#
#
# Indices 1 2 3 4 5 6 
#
# 1 110.0653 67.6246 44.8715 0.0000 0.0000 0.0000
# 2 67.6246 110.0653 44.8715 0.0000 0.0000 0.0000
# 3 44.8715 44.8715 88.3377 0.0000 0.0000 0.0000
# 4 0.0000 0.0000 0.0000 12.1076 0.0000 0.0000
# 5 0.0000 0.0000 0.0000 0.0000 12.1076 0.0000
# 6 0.0000 0.0000 0.0000 0.0000 0.0000 23.5540
#
#
#
# Elastic Compliance Matrix: (Units=1/GPa)
#
#
# Indices 1 2 3 4 5 6 
#
# 1 0.015566 -0.007996 -0.003845 0.000000 0.000000 0.000000
# 2 -0.007996 0.015566 -0.003845 0.000000 0.000000 0.000000
# 3 -0.003845 -0.003845 0.015226 0.000000 0.000000 0.000000
# 4 0.000000 0.000000 0.000000 0.082593 0.000000 0.000000
# 5 0.000000 0.000000 0.000000 0.000000 0.082593 0.000000
# 6 0.000000 0.000000 0.000000 0.000000 0.000000 0.042456
#
#
# Mechanical properties :
#
#
# Convention : Reuss Voigt Hill
#
# Bulk Modulus (GPa) = 66.73065 69.24482 67.98773
# Shear Modulus (GPa) = 17.21958 19.62725 18.42341
#
# Velocity S-wave (km/s) = 2.99423 3.19671 3.09713
# Velocity P-wave (km/s) = 6.83355 7.04825 6.94173
#
# Compressibility (1/GPa) = 0.01498562
#
# Stress axis : x y z
#
# Youngs Moduli (GPa) = 64.24253 64.24253 65.67519
#
# Poissons Ratio (x) = 0.51370 0.25253
# Poissons Ratio (y) = 0.51370 0.25253
# Poissons Ratio (z) = 0.24702 0.24702
#
# Static dielectric constant tensor:
#      x y z
#    x 1.709340 0.000000 0.000000 
#    y 0.000000 1.709340 0.000000 
#    z 0.000000 0.000000 1.915230 
# 
# From -- ./inp_files/610.got.cif
#   From: 2010.05.17/outbox.cif.g08.bks.cpg/sg111_1_cif.got.tgz:610.got - 2010.05.20 10:56:05.
