data_PCOD9554159
_publ_section_title
;
Structure prediction by ZEFSAII (Michael W. Deem and Ramdas Pophale) SiO2 
 PCOD9554159
Probable space group: I 41 M D
;
_chemical_formula_sum "Si O2"
_cell_formula_units_Z 72
_cell_length_a 11.812830
_cell_length_b 11.812830
_cell_length_c 30.737338
_cell_angle_alpha 90.000000
_cell_angle_beta 90.000000
_cell_angle_gamma 90.000000
_cell_volume 4289.178900
_symmetry_space_group_name_H-M "I 41 M D"
_symmetry_group_IT_number 109
_symmetry_cell_setting 'tetragonal'
loop_
_space_group_symop_operation_xyz
x,y,z
-y,1/2+x,1/4+z
-x,-y,z
y,1/2-x,1/4+z
-x,y,z
x,-y,z
-y,1/2-x,1/4+z
y,1/2+x,1/4+z
1/2+x,1/2+y,1/2+z
1/2-y,x,3/4+z
1/2-x,1/2-y,1/2+z
1/2+y,-x,3/4+z
1/2-x,1/2+y,1/2+z
1/2+x,1/2-y,1/2+z
1/2-y,-x,3/4+z
1/2+y,x,3/4+z
loop_
_atom_site_type_symbol
_atom_site_label
_atom_site_fract_x
_atom_site_fract_y
_atom_site_fract_z
Si Si1 0.000000 0.636004 0.048690
Si Si2 0.779546 0.229521 0.843701
Si Si3 0.366999 0.500000 0.117827
Si Si4 0.757999 0.865356 0.936506
Si Si5 0.363946 0.631512 0.775027
Si Si6 0.761136 0.500000 0.206501
O O1 0.111281 0.676220 0.074249
O O2 0.000000 0.500000 0.044482
O O3 0.000000 0.698646 0.002423
O O4 0.888197 0.310343 0.848173
O O5 0.733216 0.201569 0.891953
O O6 0.692202 0.289801 0.811507
O O7 0.500000 0.500000 0.111746
O O8 0.332424 0.500000 0.168532
O O9 0.887137 0.835367 0.949771
O O10 0.747676 0.000000 0.929019
O O11 0.678654 0.833316 0.977125
O O12 0.500000 0.638343 0.778438
O O13 0.330676 0.500000 0.779900
#
# Coordination Sequence:
#
# PCOD9554159 Si02
#       6
#     8  16   8  16  16   8
#     4  12  21  35  55  88 121 151 188 239 298 338
#     4  11  21  36  59  86 114 149 191 237 285 347
#     4  10  21  36  56  82 112 156 192 234 281 339
#     4  10  20  34  57  85 114 146 186 236 295 341
#     4  10  22  40  59  81 113 152 190 234 283 341
#     4  10  20  34  56  81 116 150 192 236 284 346
#
# _framework density 16.786428000000001
#
# number of rings (size 3 to 8) (size 9 to 14) (size 15 to 20)
#    0.000    1.556    4.444    1.333    0.000    0.889 
#    0.000    0.556    2.444    0.000    0.000    0.000 
#    0.000    0.000    0.000    0.000    0.000    0.000 
#
# Total GULP energy -200941.060809 kJ/mol
# GULP energy per Si atom -5581.696134 kJ/mol
# Density = 1.674822 g / cm^3
# Si number density = 16.786428 Si / 1000 Ang^3
#
#
#
# Elastic Constant Matrix: (Units=GPa)
#
#
# Indices 1 2 3 4 5 6 
#
# 1 90.4823 35.2965 49.6090 0.0000 0.0000 0.0000
# 2 35.2965 90.4823 49.6090 0.0000 0.0000 0.0000
# 3 49.6090 49.6090 124.0705 0.0000 0.0000 0.0000
# 4 0.0000 0.0000 0.0000 25.6776 0.0000 0.0000
# 5 0.0000 0.0000 0.0000 0.0000 25.6776 0.0000
# 6 0.0000 0.0000 0.0000 0.0000 0.0000 21.3519
#
#
#
# Elastic Compliance Matrix: (Units=1/GPa)
#
#
# Indices 1 2 3 4 5 6 
#
# 1 0.014867 -0.003254 -0.004644 0.000000 0.000000 0.000000
# 2 -0.003254 0.014867 -0.004644 0.000000 0.000000 0.000000
# 3 -0.004644 -0.004644 0.011773 0.000000 0.000000 0.000000
# 4 0.000000 0.000000 0.000000 0.038945 0.000000 0.000000
# 5 0.000000 0.000000 0.000000 0.000000 0.038945 0.000000
# 6 0.000000 0.000000 0.000000 0.000000 0.000000 0.046834
#
#
# Mechanical properties :
#
#
# Convention : Reuss Voigt Hill
#
# Bulk Modulus (GPa) = 60.87933 63.78491 62.33212
# Shear Modulus (GPa) = 25.40812 25.90944 25.65878
#
# Velocity S-wave (km/s) = 3.89474 3.93297 3.91390
# Velocity P-wave (km/s) = 7.52137 7.66190 7.59196
#
# Compressibility (1/GPa) = 0.01642594
#
# Stress axis : x y z
#
# Youngs Moduli (GPa) = 67.26293 67.26293 84.93743
#
# Poissons Ratio (x) = 0.21884 0.39441
# Poissons Ratio (y) = 0.21884 0.39441
# Poissons Ratio (z) = 0.31234 0.31234
#
# Static dielectric constant tensor:
#      x y z
#    x 1.541700 0.000000 0.000000 
#    y 0.000000 1.541700 0.000000 
#    z 0.000000 0.000000 1.560430 
# 
# From -- ./inp_files/4893.got.cif
#   From: 2010.05.17/outbox.cif.g08.bks.cpg/sg109_3_cif.got.tgz:4893.got - 2010.05.20 10:51:12.
