data_PCOD9554092
_publ_section_title
;
Structure prediction by ZEFSAII (Michael W. Deem and Ramdas Pophale) SiO2 
 PCOD9554092
Probable space group: I 41 M D
;
_chemical_formula_sum "Si O2"
_cell_formula_units_Z 112
_cell_length_a 13.151443
_cell_length_b 13.151443
_cell_length_c 30.576493
_cell_angle_alpha 90.000000
_cell_angle_beta 90.000000
_cell_angle_gamma 90.000000
_cell_volume 5288.524080
_symmetry_space_group_name_H-M "I 41 M D"
_symmetry_group_IT_number 109
_symmetry_cell_setting 'tetragonal'
loop_
_space_group_symop_operation_xyz
x,y,z
-y,1/2+x,1/4+z
-x,-y,z
y,1/2-x,1/4+z
-x,y,z
x,-y,z
-y,1/2-x,1/4+z
y,1/2+x,1/4+z
1/2+x,1/2+y,1/2+z
1/2-y,x,3/4+z
1/2-x,1/2-y,1/2+z
1/2+y,-x,3/4+z
1/2-x,1/2+y,1/2+z
1/2+x,1/2-y,1/2+z
1/2-y,-x,3/4+z
1/2+y,x,3/4+z
loop_
_atom_site_type_symbol
_atom_site_label
_atom_site_fract_x
_atom_site_fract_y
_atom_site_fract_z
Si Si1 0.389134 0.190482 0.188240
Si Si2 0.250000 0.828053 0.034309
Si Si3 0.113595 0.833867 0.110020
Si Si4 0.389134 0.690482 0.380377
Si Si5 0.703853 0.115347 0.346037
Si Si6 0.296147 0.384653 0.222580
Si Si7 0.886405 0.666133 0.458597
O O1 0.500000 0.144814 0.197300
O O2 0.380933 0.215832 0.136556
O O3 0.380809 0.302301 0.210082
O O4 0.288345 0.133080 0.204070
O O5 0.196875 0.877967 0.076340
O O6 0.340952 0.759812 0.053861
O O7 0.159048 0.759812 0.014756
O O8 0.303125 0.877967 0.992277
O O9 0.133080 0.711655 0.114547
O O10 0.126624 0.873376 0.159309
O O11 0.000000 0.854964 0.094659
O O12 0.500000 0.644814 0.371318
O O13 0.380809 0.802301 0.358535
O O14 0.380933 0.715832 0.432061
O O15 0.668797 0.000000 0.341495
O O16 0.331203 0.500000 0.227123
O O17 0.000000 0.645036 0.473958
#
# Coordination Sequence:
#
# PCOD9554092 Si02
#       7
#    16  16  16  16  16  16  16
#     4   9  17  33  55  81 115 155 200 246 295 352
#     4  10  18  36  60  90 118 162 198 248 302 364
#     4  11  22  40  63  89 123 162 203 252 307 362
#     4   9  17  33  55  81 115 155 200 246 295 352
#     4   9  16  29  52  81 114 153 196 240 290 350
#     4   9  16  29  52  81 114 153 196 240 290 350
#     4  11  22  40  63  89 123 162 203 252 307 362
#
# _framework density 21.177931999999998
#
# number of rings (size 3 to 8) (size 9 to 14) (size 15 to 20)
#    0.000    2.286    5.714    0.857    0.000    1.429 
#    0.000   15.000    0.000   13.714    0.000    0.000 
#    0.000    0.000    0.000    0.000    0.000    0.000 
#
# Total GULP energy -312097.231341 kJ/mol
# GULP energy per Si atom -5573.164845 kJ/mol
# Density = 2.112973 g / cm^3
# Si number density = 21.177932 Si / 1000 Ang^3
#
#
#
# Elastic Constant Matrix: (Units=GPa)
#
#
# Indices 1 2 3 4 5 6 
#
# 1 84.3762 6.0751 13.9208 0.0000 0.0000 0.0000
# 2 6.0751 84.3762 13.9208 0.0000 0.0000 0.0000
# 3 13.9208 13.9208 100.3139 0.0000 0.0000 0.0000
# 4 0.0000 0.0000 0.0000 3.6518 0.0000 0.0000
# 5 0.0000 0.0000 0.0000 0.0000 3.6518 0.0000
# 6 0.0000 0.0000 0.0000 0.0000 0.0000 -1.7272
#
#
#
# Elastic Compliance Matrix: (Units=1/GPa)
#
#
# Indices 1 2 3 4 5 6 
#
# 1 0.012160 -0.000611 -0.001603 0.000000 0.000000 0.000000
# 2 -0.000611 0.012160 -0.001603 0.000000 0.000000 0.000000
# 3 -0.001603 -0.001603 0.010414 0.000000 0.000000 0.000000
# 4 0.000000 0.000000 0.000000 0.273835 0.000000 0.000000
# 5 0.000000 0.000000 0.000000 0.000000 0.273835 0.000000
# 6 0.000000 0.000000 0.000000 0.000000 0.000000 -0.578968
#
#
# Mechanical properties :
#
#
# Convention : Reuss Voigt Hill
#
# Bulk Modulus (GPa) = 36.89927 37.43327 37.16627
# Shear Modulus (GPa) = 248.71509 16.79193 132.75351
#
# Velocity S-wave (km/s) = 10.84876 2.81890 7.92596
# Velocity P-wave (km/s) = 13.20563 5.32061 10.06722
#
# Compressibility (1/GPa) = 0.02710081
#
# Stress axis : x y z
#
# Youngs Moduli (GPa) = 82.23612 82.23612 96.02895
#
# Poissons Ratio (x) = 0.05026 0.15390
# Poissons Ratio (y) = 0.05026 0.15390
# Poissons Ratio (z) = 0.13180 0.13180
#
# Static dielectric constant tensor:
#      x y z
#    x 1.752850 0.000000 0.000000 
#    y 0.000000 1.752850 0.000000 
#    z 0.000000 0.000000 1.816460 
# 
# From -- ./inp_files/5750.got.cif
#   From: 2010.05.17/outbox.cif.g08.bks.cpg/sg109_3_cif.got.tgz:5750.got - 2010.05.20 10:51:12.
