data_PCOD9554503
_publ_section_title
;
Structure prediction by ZEFSAII (Michael W. Deem and Ramdas Pophale) SiO2 
 PCOD9554503
Probable space group: I 41 C D
;
_chemical_formula_sum "Si O2"
_cell_formula_units_Z 112
_cell_length_a 15.780524
_cell_length_b 15.780524
_cell_length_c 19.609041
_cell_angle_alpha 90.000000
_cell_angle_beta 90.000000
_cell_angle_gamma 90.000000
_cell_volume 4883.140214
_symmetry_space_group_name_H-M "I 41 C D"
_symmetry_group_IT_number 110
_symmetry_cell_setting 'tetragonal'
loop_
_space_group_symop_operation_xyz
x,y,z
-y,1/2+x,1/4+z
-x,-y,z
y,1/2-x,1/4+z
-x,y,1/2+z
x,-y,1/2+z
1/2-y,-x,1/4+z
1/2+y,x,1/4+z
1/2+x,1/2+y,1/2+z
1/2-y,x,3/4+z
1/2-x,1/2-y,1/2+z
1/2+y,-x,3/4+z
1/2-x,1/2+y,z
1/2+x,1/2-y,z
-y,1/2-x,3/4+z
y,1/2+x,3/4+z
loop_
_atom_site_type_symbol
_atom_site_label
_atom_site_fract_x
_atom_site_fract_y
_atom_site_fract_z
Si Si1 0.783748 0.545631 0.025530
Si Si2 0.859321 0.108843 0.852455
Si Si3 0.318523 0.921213 0.172496
Si Si4 0.234819 0.697012 0.434181
Si Si5 0.409996 0.766962 0.415177
Si Si6 0.902479 0.997897 0.986661
Si Si7 0.437507 0.577701 0.211861
O O1 0.837552 0.552230 0.094914
O O2 0.682698 0.523898 0.028319
O O3 0.835036 0.487511 0.972362
O O4 0.787540 0.640464 0.997710
O O5 0.763304 0.130547 0.874743
O O6 0.894605 0.206164 0.850122
O O7 0.883623 0.065807 0.782289
O O8 0.897452 0.058657 0.918277
O O9 0.255162 0.843091 0.166783
O O10 0.401321 0.894164 0.212267
O O11 0.270770 0.005563 0.199905
O O12 0.320343 0.749417 0.451691
O O13 0.418267 0.866031 0.404375
O O14 0.000000 0.000000 0.014383
O O15 0.500000 0.500000 0.202630
#
# Coordination Sequence:
#
# PCOD9554503 Si02
#       7
#    16  16  16  16  16  16  16
#     4  11  22  39  63  92 125 168 215 262 323 391
#     4   9  20  39  60  85 121 161 204 260 314 372
#     4  12  21  40  66  88 130 166 211 270 323 379
#     4   9  22  37  58  93 123 165 205 259 320 379
#     4  10  22  40  58  91 127 157 207 269 307 377
#     4  11  20  40  62  89 122 167 218 259 317 392
#     4  12  22  38  67  91 122 168 212 259 322 383
#
# _framework density 22.936060999999999
#
# number of rings (size 3 to 8) (size 9 to 14) (size 15 to 20)
#    0.857    0.571    2.857    3.000    2.000    0.000 
#    2.571    2.143    3.143    0.000    0.000    0.000 
#    0.000    0.000    0.000    0.000    0.000    0.000 
#
# Total GULP energy -311984.525854 kJ/mol
# GULP energy per Si atom -5571.152247 kJ/mol
# Density = 2.288386 g / cm^3
# Si number density = 22.936061 Si / 1000 Ang^3
#
#
#
# Elastic Constant Matrix: (Units=GPa)
#
#
# Indices 1 2 3 4 5 6 
#
# 1 89.5587 29.4829 -1.0313 0.0000 0.0000 0.0000
# 2 29.4829 89.5587 -1.0314 0.0000 0.0000 0.0000
# 3 -1.0313 -1.0314 23.2909 0.0000 0.0000 0.0000
# 4 0.0000 0.0000 0.0000 18.3188 0.0000 0.0000
# 5 0.0000 0.0000 0.0000 0.0000 18.3188 0.0000
# 6 0.0000 0.0000 0.0000 0.0000 0.0000 51.4114
#
#
#
# Elastic Compliance Matrix: (Units=1/GPa)
#
#
# Indices 1 2 3 4 5 6 
#
# 1 0.012526 -0.004119 0.000372 0.000000 0.000000 0.000000
# 2 -0.004119 0.012526 0.000372 0.000000 0.000000 0.000000
# 3 0.000372 0.000372 0.042968 0.000000 0.000000 0.000000
# 4 0.000000 0.000000 0.000000 0.054589 0.000000 0.000000
# 5 0.000000 0.000000 0.000000 0.000000 0.054589 0.000000
# 6 0.000000 0.000000 0.000000 0.000000 0.000000 0.019451
#
#
# Mechanical properties :
#
#
# Convention : Reuss Voigt Hill
#
# Bulk Modulus (GPa) = 16.32096 28.58319 22.45207
# Shear Modulus (GPa) = 22.33916 29.27569 25.80743
#
# Velocity S-wave (km/s) = 3.12424 3.57656 3.35802
# Velocity P-wave (km/s) = 4.48841 5.43552 4.98451
#
# Compressibility (1/GPa) = 0.06127092
#
# Stress axis : x y z
#
# Youngs Moduli (GPa) = 79.83238 79.83238 23.27308
#
# Poissons Ratio (x) = 0.32886 -0.00866
# Poissons Ratio (y) = 0.32886 -0.00866
# Poissons Ratio (z) = -0.02972 -0.02972
#
# Static dielectric constant tensor:
#      x y z
#    x 1.905050 0.000000 0.000000 
#    y 0.000000 1.905050 0.000000 
#    z 0.000000 0.000000 1.982500 
# 
# From -- ./inp_files/2640.got.cif
#   From: 2010.05.17/outbox.cif.g08.bks.cpg/sg110_2_cif.got.tgz:2640.got - 2010.05.20 10:54:03.
