data_PCOD9554190
_publ_section_title
;
Structure prediction by ZEFSAII (Michael W. Deem and Ramdas Pophale) SiO2 
 PCOD9554190
Probable space group: I 41 M D
;
_chemical_formula_sum "Si O2"
_cell_formula_units_Z 112
_cell_length_a 13.518615
_cell_length_b 13.518615
_cell_length_c 26.902648
_cell_angle_alpha 90.000000
_cell_angle_beta 90.000000
_cell_angle_gamma 90.000000
_cell_volume 4916.538326
_symmetry_space_group_name_H-M "I 41 M D"
_symmetry_group_IT_number 109
_symmetry_cell_setting 'tetragonal'
loop_
_space_group_symop_operation_xyz
x,y,z
-y,1/2+x,1/4+z
-x,-y,z
y,1/2-x,1/4+z
-x,y,z
x,-y,z
-y,1/2-x,1/4+z
y,1/2+x,1/4+z
1/2+x,1/2+y,1/2+z
1/2-y,x,3/4+z
1/2-x,1/2-y,1/2+z
1/2+y,-x,3/4+z
1/2-x,1/2+y,1/2+z
1/2+x,1/2-y,1/2+z
1/2-y,-x,3/4+z
1/2+y,x,3/4+z
loop_
_atom_site_type_symbol
_atom_site_label
_atom_site_fract_x
_atom_site_fract_y
_atom_site_fract_z
Si Si1 0.883324 0.614486 0.406220
Si Si2 0.817079 0.607636 0.243701
Si Si3 0.614527 0.677624 0.768170
Si Si4 0.617316 0.893465 0.224909
Si Si5 0.319645 0.189273 0.123001
Si Si6 0.107883 0.743556 0.886728
Si Si7 0.812388 0.385712 0.025297
O O1 0.850088 0.500000 0.398977
O O2 0.866332 0.641669 0.464398
O O3 0.829420 0.700456 0.375625
O O4 0.000000 0.618774 0.395494
O O5 0.856330 0.500000 0.258918
O O6 0.871287 0.703821 0.264028
O O7 0.815735 0.615533 0.183812
O O8 0.701039 0.615251 0.258473
O O9 0.500000 0.653922 0.775496
O O10 0.668662 0.643313 0.817973
O O11 0.500000 0.896390 0.233273
O O12 0.636629 0.878074 0.166388
O O13 0.648814 0.794322 0.253301
O O14 0.658874 0.000000 0.240767
O O15 0.333169 0.302773 0.138242
O O16 0.114411 0.800560 0.834644
O O17 0.000000 0.695474 0.888836
O O18 0.832904 0.500000 0.009972
#
# Coordination Sequence:
#
# PCOD9554190 Si02
#       7
#    16  16  16  16  16  16  16
#     4  10  22  40  61  87 121 159 199 245 298 355
#     4  11  22  39  60  84 116 154 195 249 299 352
#     4  11  23  38  59  89 120 155 199 246 297 358
#     4  10  21  37  60  91 124 159 198 240 292 355
#     4  12  21  39  64  87 121 159 197 243 300 349
#     4  10  21  38  63  89 120 156 197 245 299 358
#     4  10  20  39  61  85 118 156 197 246 297 354
#
# _framework density 22.780253999999999
#
# number of rings (size 3 to 8) (size 9 to 14) (size 15 to 20)
#    0.000    1.429    4.286    1.286    0.000    1.714 
#    0.000    3.571    0.000    6.857    0.000    0.000 
#    0.000    0.000    0.000    0.000    0.000    0.000 
#
# Total GULP energy -312955.854412 kJ/mol
# GULP energy per Si atom -5588.497400 kJ/mol
# Density = 2.272841 g / cm^3
# Si number density = 22.780254 Si / 1000 Ang^3
#
#
#
# Elastic Constant Matrix: (Units=GPa)
#
#
# Indices 1 2 3 4 5 6 
#
# 1 69.2325 -10.3237 -1.1984 0.0000 0.0000 0.0000
# 2 -10.3237 69.2325 -1.1984 0.0000 0.0000 0.0000
# 3 -1.1984 -1.1984 91.0116 0.0000 0.0000 0.0000
# 4 0.0000 0.0000 0.0000 9.7929 0.0000 0.0000
# 5 0.0000 0.0000 0.0000 0.0000 9.7929 0.0000
# 6 0.0000 0.0000 0.0000 0.0000 0.0000 22.1321
#
#
#
# Elastic Compliance Matrix: (Units=1/GPa)
#
#
# Indices 1 2 3 4 5 6 
#
# 1 0.014777 0.002207 0.000224 0.000000 0.000000 0.000000
# 2 0.002207 0.014777 0.000224 0.000000 0.000000 0.000000
# 3 0.000224 0.000224 0.010993 0.000000 0.000000 0.000000
# 4 0.000000 0.000000 0.000000 0.102115 0.000000 0.000000
# 5 0.000000 0.000000 0.000000 0.000000 0.102115 0.000000
# 6 0.000000 0.000000 0.000000 0.000000 0.000000 0.045183
#
#
# Mechanical properties :
#
#
# Convention : Reuss Voigt Hill
#
# Bulk Modulus (GPa) = 21.80689 22.67062 22.23876
# Shear Modulus (GPa) = 16.67017 24.49005 20.58011
#
# Velocity S-wave (km/s) = 2.70808 3.28236 3.00895
# Velocity P-wave (km/s) = 4.40134 4.93342 4.67496
#
# Compressibility (1/GPa) = 0.04585706
#
# Stress axis : x y z
#
# Youngs Moduli (GPa) = 67.67220 67.67220 90.96288
#
# Poissons Ratio (x) = -0.14938 -0.02034
# Poissons Ratio (y) = -0.14938 -0.02034
# Poissons Ratio (z) = -0.01513 -0.01513
#
# Static dielectric constant tensor:
#      x y z
#    x 1.860660 0.000000 0.000000 
#    y 0.000000 1.860660 0.000000 
#    z 0.000000 0.000000 1.839950 
# 
# From -- ./inp_files/5028.got.cif
#   From: 2010.05.17/outbox.cif.g08.bks.cpg/sg109_3_cif.got.tgz:5028.got - 2010.05.20 10:51:12.
