data_PCOD9554297
_publ_section_title
;
Structure prediction by ZEFSAII (Michael W. Deem and Ramdas Pophale) SiO2 
 PCOD9554297
Probable space group: I 41 M D
;
_chemical_formula_sum "Si O2"
_cell_formula_units_Z 64
_cell_length_a 23.027133
_cell_length_b 23.027133
_cell_length_c 5.290791
_cell_angle_alpha 90.000000
_cell_angle_beta 90.000000
_cell_angle_gamma 90.000000
_cell_volume 2805.435866
_symmetry_space_group_name_H-M "I 41 M D"
_symmetry_group_IT_number 109
_symmetry_cell_setting 'tetragonal'
loop_
_space_group_symop_operation_xyz
x,y,z
-y,1/2+x,1/4+z
-x,-y,z
y,1/2-x,1/4+z
-x,y,z
x,-y,z
-y,1/2-x,1/4+z
y,1/2+x,1/4+z
1/2+x,1/2+y,1/2+z
1/2-y,x,3/4+z
1/2-x,1/2-y,1/2+z
1/2+y,-x,3/4+z
1/2-x,1/2+y,1/2+z
1/2+x,1/2-y,1/2+z
1/2-y,-x,3/4+z
1/2+y,x,3/4+z
loop_
_atom_site_type_symbol
_atom_site_label
_atom_site_fract_x
_atom_site_fract_y
_atom_site_fract_z
Si Si1 0.683385 0.432391 0.944330
Si Si2 0.904994 0.799619 0.914160
Si Si3 0.789938 0.174989 0.115176
Si Si4 0.130890 0.564209 0.678379
O O1 0.686733 0.500000 0.882597
O O2 0.702786 0.388723 0.723369
O O3 0.616571 0.413713 0.984712
O O4 0.731110 0.419038 0.162439
O O5 0.934356 0.825689 0.665971
O O6 0.835766 0.811663 0.892103
O O7 0.924276 0.833844 0.166920
O O8 0.811615 0.223834 0.309022
O O9 0.104279 0.500000 0.660892
#
# Coordination Sequence:
#
# PCOD9554297 Si02
#       4
#    16  16  16  16
#     4  11  23  40  65  97 134 174 217 267 323 389
#     4  11  23  43  68  96 129 167 217 275 330 382
#     4  11  22  40  69 101 133 169 214 273 332 385
#     4  11  24  43  66  93 130 174 218 267 323 386
#
# _framework density 22.812856
#
# number of rings (size 3 to 8) (size 9 to 14) (size 15 to 20)
#    0.000    1.000    0.000    8.250    0.000    2.500 
#    0.000   17.500    0.000    6.000    0.000    0.000 
#    0.000    0.000    0.000    0.000    0.000    0.000 
#
# Total GULP energy -178968.887632 kJ/mol
# GULP energy per Si atom -5592.777739 kJ/mol
# Density = 2.276093 g / cm^3
# Si number density = 22.812856 Si / 1000 Ang^3
#
#
#
# Elastic Constant Matrix: (Units=GPa)
#
#
# Indices 1 2 3 4 5 6 
#
# 1 133.4589 105.4610 28.0323 0.0000 0.0000 0.0000
# 2 105.4610 133.4589 28.0323 0.0000 0.0000 0.0000
# 3 28.0323 28.0323 97.8359 0.0000 0.0000 0.0000
# 4 0.0000 0.0000 0.0000 15.3935 0.0000 0.0000
# 5 0.0000 0.0000 0.0000 0.0000 15.3935 0.0000
# 6 0.0000 0.0000 0.0000 0.0000 0.0000 10.6563
#
#
#
# Elastic Compliance Matrix: (Units=1/GPa)
#
#
# Indices 1 2 3 4 5 6 
#
# 1 0.020102 -0.015615 -0.001286 0.000000 0.000000 0.000000
# 2 -0.015615 0.020102 -0.001286 0.000000 0.000000 0.000000
# 3 -0.001286 -0.001286 0.010958 0.000000 0.000000 0.000000
# 4 0.000000 0.000000 0.000000 0.064963 0.000000 0.000000
# 5 0.000000 0.000000 0.000000 0.000000 0.064963 0.000000
# 6 0.000000 0.000000 0.000000 0.000000 0.000000 0.093841
#
#
# Mechanical properties :
#
#
# Convention : Reuss Voigt Hill
#
# Bulk Modulus (GPa) = 67.61508 76.42278 72.01893
# Shear Modulus (GPa) = 15.81125 21.83720 18.82423
#
# Velocity S-wave (km/s) = 2.63551 3.09727 2.87567
# Velocity P-wave (km/s) = 6.24216 6.80907 6.53177
#
# Compressibility (1/GPa) = 0.01478960
#
# Stress axis : x y z
#
# Youngs Moduli (GPa) = 49.74606 49.74606 91.25789
#
# Poissons Ratio (x) = 0.77678 0.11733
# Poissons Ratio (y) = 0.77678 0.11733
# Poissons Ratio (z) = 0.06396 0.06396
#
# Static dielectric constant tensor:
#      x y z
#    x 1.875060 0.000000 0.000000 
#    y 0.000000 1.875060 0.000000 
#    z 0.000000 0.000000 1.909280 
# 
# From -- ./inp_files/456.got.cif
#   From: 2010.05.17/outbox.cif.g08.bks.cpg/sg109_1_cif.got.tgz:456.got - 2010.05.20 10:51:12.
