data_PCOD9554416
_publ_section_title
;
Structure prediction by ZEFSAII (Michael W. Deem and Ramdas Pophale) SiO2 
 PCOD9554416
Probable space group: I 41 C D
;
_chemical_formula_sum "Si O2"
_cell_formula_units_Z 72
_cell_length_a 19.097118
_cell_length_b 19.097118
_cell_length_c 8.119562
_cell_angle_alpha 90.000000
_cell_angle_beta 90.000000
_cell_angle_gamma 90.000000
_cell_volume 2961.203579
_symmetry_space_group_name_H-M "I 41 C D"
_symmetry_group_IT_number 110
_symmetry_cell_setting 'tetragonal'
loop_
_space_group_symop_operation_xyz
x,y,z
-y,1/2+x,1/4+z
-x,-y,z
y,1/2-x,1/4+z
-x,y,1/2+z
x,-y,1/2+z
1/2-y,-x,1/4+z
1/2+y,x,1/4+z
1/2+x,1/2+y,1/2+z
1/2-y,x,3/4+z
1/2-x,1/2-y,1/2+z
1/2+y,-x,3/4+z
1/2-x,1/2+y,z
1/2+x,1/2-y,z
-y,1/2-x,3/4+z
y,1/2+x,3/4+z
loop_
_atom_site_type_symbol
_atom_site_label
_atom_site_fract_x
_atom_site_fract_y
_atom_site_fract_z
Si Si1 0.427724 0.731964 0.926990
Si Si2 0.671302 0.795544 0.147658
Si Si3 0.061417 0.144772 0.466802
Si Si4 0.377218 0.402951 0.310692
Si Si5 0.500000 0.000000 0.119997
O O1 0.390845 0.767338 0.766839
O O2 0.389396 0.656948 0.948235
O O3 0.508610 0.707838 0.928402
O O4 0.419035 0.795255 0.054628
O O5 0.740391 0.808742 0.258886
O O6 0.648328 0.873011 0.094594
O O7 0.093807 0.138069 0.648780
O O8 0.019659 0.072514 0.454268
O O9 0.424285 0.473465 0.301969
#
# Coordination Sequence:
#
# PCOD9554416 Si02
#       5
#    16  16  16  16   8
#     4  10  20  38  65  89 125 175 207 267 332 387
#     4  11  23  46  67  98 138 177 222 282 332 404
#     4  10  22  39  64  93 127 174 215 270 337 390
#     4  10  21  39  62  90 131 161 220 266 327 393
#     4  10  22  38  60  96 122 174 214 270 328 404
#
# _framework density 24.314437999999999
#
# number of rings (size 3 to 8) (size 9 to 14) (size 15 to 20)
#    0.000    1.778    4.444    0.667    3.111    0.000 
#    8.000    8.889    0.000    0.000    0.000    0.000 
#    0.000    0.000    0.000    0.000    0.000    0.000 
#
# Total GULP energy -200443.826775 kJ/mol
# GULP energy per Si atom -5567.884077 kJ/mol
# Density = 2.425910 g / cm^3
# Si number density = 24.314438 Si / 1000 Ang^3
#
#
#
# Elastic Constant Matrix: (Units=GPa)
#
#
# Indices 1 2 3 4 5 6 
#
# 1 166.0866 74.1065 12.4075 0.0000 0.0000 0.0000
# 2 74.1065 166.0866 12.4075 0.0000 0.0000 0.0000
# 3 12.4075 12.4075 34.8568 0.0000 0.0000 0.0000
# 4 0.0000 0.0000 0.0000 -4.3750 0.0000 0.0000
# 5 0.0000 0.0000 0.0000 0.0000 -4.3750 0.0000
# 6 0.0000 0.0000 0.0000 0.0000 0.0000 53.4650
#
#
#
# Elastic Compliance Matrix: (Units=1/GPa)
#
#
# Indices 1 2 3 4 5 6 
#
# 1 0.007597 -0.003275 -0.001539 0.000000 0.000000 0.000000
# 2 -0.003275 0.007597 -0.001539 0.000000 0.000000 0.000000
# 3 -0.001539 -0.001539 0.029784 0.000000 0.000000 0.000000
# 4 0.000000 0.000000 0.000000 -0.228570 0.000000 0.000000
# 5 0.000000 0.000000 0.000000 0.000000 -0.228570 0.000000
# 6 0.000000 0.000000 0.000000 0.000000 0.000000 0.018704
#
#
# Mechanical properties :
#
#
# Convention : Reuss Voigt Hill
#
# Bulk Modulus (GPa) = 30.98422 62.76367 46.87395
# Shear Modulus (GPa) = -13.51365 26.81688 6.65162
#
# Velocity S-wave (km/s) = -2.36007 3.32463 1.65578
# Velocity P-wave (km/s) = 2.31176 6.37235 4.79328
#
# Compressibility (1/GPa) = 0.03227449
#
# Stress axis : x y z
#
# Youngs Moduli (GPa) = 131.62931 131.62931 33.57493
#
# Poissons Ratio (x) = 0.43106 0.05166
# Poissons Ratio (y) = 0.43106 0.05166
# Poissons Ratio (z) = 0.20252 0.20252
#
# Static dielectric constant tensor:
#      x y z
#    x 1.957420 0.000000 0.000000 
#    y 0.000000 1.957420 0.000000 
#    z 0.000000 0.000000 2.115720 
# 
# From -- ./inp_files/794.got.cif
#   From: 2010.05.17/outbox.cif.g08.bks.cpg/sg110_1_cif.got.tgz:794.got - 2010.05.20 10:54:03.
