data_PCOD9554693
_publ_section_title
;
Structure prediction by ZEFSAII (Michael W. Deem and Ramdas Pophale) SiO2 
 PCOD9554693
Probable space group: P -4 2 M 
;
_chemical_formula_sum "Si O2"
_cell_formula_units_Z 56
_cell_length_a 12.793715
_cell_length_b 12.793715
_cell_length_c 21.431275
_cell_angle_alpha 90.000000
_cell_angle_beta 90.000000
_cell_angle_gamma 90.000000
_cell_volume 3507.852736
_symmetry_space_group_name_H-M "P -4 2 M "
_symmetry_group_IT_number 111
_symmetry_cell_setting 'tetragonal'
loop_
_space_group_symop_operation_xyz
x,y,z
y,-x,-z
-x,-y,z
-y,x,-z
x,-y,-z
-x,y,-z
-y,-x,z
y,x,z
loop_
_atom_site_type_symbol
_atom_site_label
_atom_site_fract_x
_atom_site_fract_y
_atom_site_fract_z
Si Si1 0.500001 0.879029 0.343435
Si Si2 0.500001 0.327841 0.424952
Si Si3 0.707388 0.880763 0.259104
Si Si4 0.118104 0.626652 1.000000
Si Si5 0.707387 0.119239 0.259104
Si Si6 0.211745 0.624505 0.866372
Si Si7 0.624504 0.788255 0.866372
O O1 0.500000 0.785271 0.393171
O O2 0.603663 0.866949 0.301014
O O3 0.396338 0.866949 0.301014
O O4 0.500000 0.000000 0.367308
O O5 0.500000 0.317916 0.500000
O O6 0.601415 0.398586 0.407759
O O7 0.398588 0.398588 0.407759
O O8 0.796362 0.796362 0.274787
O O9 0.672308 0.860404 0.187664
O O10 0.743866 0.000001 0.266470
O O11 0.173035 0.654985 0.935347
O O12 0.114792 0.500000 0.000000
O O13 0.173034 0.654985 0.064653
O O14 0.000000 0.666389 0.000000
O O15 0.796361 0.203640 0.274788
O O16 0.672308 0.139599 0.187664
O O17 0.325640 0.674361 0.856799
O O18 0.211692 0.500000 0.861256
O O19 0.674360 0.674360 0.856800
#
# Coordination Sequence:
#
# PCOD9554693 Si02
#       7
#     8   8   8   8   8   8   8
#     4  10  19  32  52  75 103 132 164 205 243 284
#     4   9  18  33  53  77 106 137 166 198 236 282
#     4  10  20  33  50  71  97 129 164 205 249 292
#     4   9  17  28  45  63  81 113 157 203 248 294
#     4  10  20  33  50  71  97 129 164 205 249 292
#     4  10  19  31  46  66  93 123 159 203 249 299
#     4  10  19  31  46  66  93 123 159 203 249 299
#
# _framework density 15.964181
#
# number of rings (size 3 to 8) (size 9 to 14) (size 15 to 20)
#    0.000    2.286    1.429    2.571    0.000    2.000 
#    0.000    0.000    0.000    2.571    0.000    0.000 
#    0.000   10.286    0.000   26.571    0.000    0.000 
#
# Total GULP energy -312034.658225 kJ/mol
# GULP energy per Si atom -5572.047468 kJ/mol
# Density = 1.592785 g / cm^3
# Si number density = 15.964181 Si / 1000 Ang^3
#
#
#
# Elastic Constant Matrix: (Units=GPa)
#
#
# Indices 1 2 3 4 5 6 
#
# 1 109.7984 68.1070 34.8774 0.0000 0.0000 0.0000
# 2 68.1070 109.7989 34.8777 0.0000 0.0000 0.0000
# 3 34.8774 34.8777 56.4999 0.0000 0.0000 0.0000
# 4 0.0000 0.0000 0.0000 22.9908 0.0000 0.0000
# 5 0.0000 0.0000 0.0000 0.0000 22.9902 0.0000
# 6 0.0000 0.0000 0.0000 0.0000 0.0000 18.6877
#
#
#
# Elastic Compliance Matrix: (Units=1/GPa)
#
#
# Indices 1 2 3 4 5 6 
#
# 1 0.015701 -0.008285 -0.004578 0.000000 0.000000 0.000000
# 2 -0.008285 0.015701 -0.004578 0.000000 0.000000 0.000000
# 3 -0.004578 -0.004578 0.023351 0.000000 0.000000 0.000000
# 4 0.000000 0.000000 0.000000 0.043496 0.000000 0.000000
# 5 0.000000 0.000000 0.000000 0.000000 0.043497 0.000000
# 6 0.000000 0.000000 0.000000 0.000000 0.000000 0.053511
#
#
# Mechanical properties :
#
#
# Convention : Reuss Voigt Hill
#
# Bulk Modulus (GPa) = 50.32369 61.31349 55.81859
# Shear Modulus (GPa) = 21.11835 22.14942 21.63388
#
# Velocity S-wave (km/s) = 3.64106 3.72888 3.68523
# Velocity P-wave (km/s) = 7.01910 7.55180 7.29032
#
# Compressibility (1/GPa) = 0.01987136
#
# Stress axis : x y z
#
# Youngs Moduli (GPa) = 63.69120 63.69126 42.82480
#
# Poissons Ratio (x) = 0.52767 0.19604
# Poissons Ratio (y) = 0.52767 0.19605
# Poissons Ratio (z) = 0.29156 0.29157
#
# Static dielectric constant tensor:
#      x y z
#    x 1.526510 0.000000 0.000000 
#    y 0.000000 1.526510 0.000000 
#    z 0.000000 0.000000 1.524090 
# 
# From -- ./inp_files/3963.got.cif
#   From: 2010.05.17/outbox.cif.g08.bks.cpg/sg111_2_cif.got.tgz:3963.got - 2010.05.20 10:56:05.
