data_PCOD9554471
_publ_section_title
;
Structure prediction by ZEFSAII (Michael W. Deem and Ramdas Pophale) SiO2 
 PCOD9554471
Probable space group: I 41 C D
;
_chemical_formula_sum "Si O2"
_cell_formula_units_Z 80
_cell_length_a 11.063394
_cell_length_b 11.063394
_cell_length_c 27.960636
_cell_angle_alpha 90.000000
_cell_angle_beta 90.000000
_cell_angle_gamma 90.000000
_cell_volume 3422.345128
_symmetry_space_group_name_H-M "I 41 C D"
_symmetry_group_IT_number 110
_symmetry_cell_setting 'tetragonal'
loop_
_space_group_symop_operation_xyz
x,y,z
-y,1/2+x,1/4+z
-x,-y,z
y,1/2-x,1/4+z
-x,y,1/2+z
x,-y,1/2+z
1/2-y,-x,1/4+z
1/2+y,x,1/4+z
1/2+x,1/2+y,1/2+z
1/2-y,x,3/4+z
1/2-x,1/2-y,1/2+z
1/2+y,-x,3/4+z
1/2-x,1/2+y,z
1/2+x,1/2-y,z
-y,1/2-x,3/4+z
y,1/2+x,3/4+z
loop_
_atom_site_type_symbol
_atom_site_label
_atom_site_fract_x
_atom_site_fract_y
_atom_site_fract_z
Si Si1 0.082618 0.166151 0.253290
Si Si2 0.191601 0.146978 0.527816
Si Si3 0.353022 0.691601 0.882766
Si Si4 0.333849 0.582618 0.157292
Si Si5 0.000000 0.000000 0.839613
Si Si6 0.000000 0.000000 0.570969
O O1 0.220075 0.213967 0.257653
O O2 0.088433 0.088433 0.205291
O O3 0.967799 0.254410 0.249564
O O4 0.058833 0.095503 0.302891
O O5 0.250000 0.148018 0.580291
O O6 0.054203 0.106611 0.538450
O O7 0.220075 0.713967 0.902929
O O8 0.467799 0.745590 0.911018
O O9 0.393389 0.554203 0.872132
O O10 0.404497 0.558833 0.107691
#
# Coordination Sequence:
#
# PCOD9554471 Si02
#       6
#    16  16  16  16   8   8
#     4  11  24  40  64  96 131 170 221 288 351 411
#     4  10  22  40  62  89 124 170 219 268 336 419
#     4  10  22  40  62  89 124 170 219 268 336 419
#     4  11  24  40  64  96 131 170 221 288 351 411
#     4  10  21  40  65  90 124 176 226 276 337 418
#     4  10  21  40  65  90 124 176 226 276 337 418
#
# _framework density 23.375785
#
# number of rings (size 3 to 8) (size 9 to 14) (size 15 to 20)
#    0.000    1.600    0.000    5.400    0.000   12.800 
#    0.000    0.000    0.000    0.000    0.000    0.000 
#    0.000    0.000    0.000    0.000    0.000    0.000 
#
# Total GULP energy -223160.127728 kJ/mol
# GULP energy per Si atom -5579.003193 kJ/mol
# Density = 2.332258 g / cm^3
# Si number density = 23.375785 Si / 1000 Ang^3
#
#
#
# Elastic Constant Matrix: (Units=GPa)
#
#
# Indices 1 2 3 4 5 6 
#
# 1 156.5507 42.6054 30.0978 0.0000 0.0000 0.0000
# 2 42.6054 156.5507 30.0978 0.0000 0.0000 0.0000
# 3 30.0978 30.0978 71.7992 0.0000 0.0000 0.0000
# 4 0.0000 0.0000 0.0000 -26.5066 0.0000 0.0000
# 5 0.0000 0.0000 0.0000 0.0000 -26.5066 0.0000
# 6 0.0000 0.0000 0.0000 0.0000 0.0000 32.1522
#
#
#
# Elastic Compliance Matrix: (Units=1/GPa)
#
#
# Indices 1 2 3 4 5 6 
#
# 1 0.007263 -0.001513 -0.002410 0.000000 0.000000 0.000000
# 2 -0.001513 0.007263 -0.002410 0.000000 0.000000 0.000000
# 3 -0.002410 -0.002410 0.015948 0.000000 0.000000 0.000000
# 4 0.000000 0.000000 0.000000 -0.037726 0.000000 0.000000
# 5 0.000000 0.000000 0.000000 0.000000 -0.037726 0.000000
# 6 0.000000 0.000000 0.000000 0.000000 0.000000 0.031102
#
#
# Mechanical properties :
#
#
# Convention : Reuss Voigt Hill
#
# Bulk Modulus (GPa) = 56.15805 65.61139 60.88472
# Shear Modulus (GPa) = 1057.88683 14.63444 536.26064
#
# Velocity S-wave (km/s) = 21.29646 2.50482 15.16267
# Velocity P-wave (km/s) = 25.07579 6.04107 18.23855
#
# Compressibility (1/GPa) = 0.01780689
#
# Stress axis : x y z
#
# Youngs Moduli (GPa) = 137.68573 137.68573 62.70201
#
# Poissons Ratio (x) = 0.20835 0.15113
# Poissons Ratio (y) = 0.20835 0.15113
# Poissons Ratio (z) = 0.33186 0.33186
#
# Static dielectric constant tensor:
#      x y z
#    x 1.951570 0.000000 0.000000 
#    y 0.000000 1.951570 0.000000 
#    z 0.000000 0.000000 1.835990 
# 
# From -- ./inp_files/3118.got.cif
#   From: 2010.05.17/outbox.cif.g08.bks.cpg/sg110_2_cif.got.tgz:3118.got - 2010.05.20 10:54:03.
