data_PCOD9554160
_publ_section_title
;
Structure prediction by ZEFSAII (Michael W. Deem and Ramdas Pophale) SiO2 
 PCOD9554160
Probable space group: I 41 M D
;
_chemical_formula_sum "Si O2"
_cell_formula_units_Z 80
_cell_length_a 12.327288
_cell_length_b 12.327288
_cell_length_c 28.902782
_cell_angle_alpha 90.000000
_cell_angle_beta 90.000000
_cell_angle_gamma 90.000000
_cell_volume 4392.125409
_symmetry_space_group_name_H-M "I 41 M D"
_symmetry_group_IT_number 109
_symmetry_cell_setting 'tetragonal'
loop_
_space_group_symop_operation_xyz
x,y,z
-y,1/2+x,1/4+z
-x,-y,z
y,1/2-x,1/4+z
-x,y,z
x,-y,z
-y,1/2-x,1/4+z
y,1/2+x,1/4+z
1/2+x,1/2+y,1/2+z
1/2-y,x,3/4+z
1/2-x,1/2-y,1/2+z
1/2+y,-x,3/4+z
1/2-x,1/2+y,1/2+z
1/2+x,1/2-y,1/2+z
1/2-y,-x,3/4+z
1/2+y,x,3/4+z
loop_
_atom_site_type_symbol
_atom_site_label
_atom_site_fract_x
_atom_site_fract_y
_atom_site_fract_z
Si Si1 0.208642 0.279647 0.196800
Si Si2 0.127675 0.376114 0.875013
Si Si3 0.791358 0.220353 0.799352
Si Si4 0.500000 0.376187 0.476127
Si Si5 0.623886 0.127675 0.871139
Si Si6 0.123813 0.000000 0.770026
O O1 0.311373 0.313077 0.165640
O O2 0.250000 0.252363 0.248076
O O3 0.132210 0.386278 0.199309
O O4 0.150690 0.183851 0.169384
O O5 0.163265 0.500000 0.873237
O O6 0.150690 0.316149 0.826768
O O7 0.000000 0.371974 0.884952
O O8 0.688627 0.186923 0.830513
O O9 0.867790 0.113722 0.796843
O O10 0.500000 0.500000 0.498719
O O11 0.500000 0.250000 0.498076
O O12 0.500000 0.163266 0.872915
O O13 0.628024 0.000000 0.861201
O O14 0.000000 0.000000 0.747433
#
# Coordination Sequence:
#
# PCOD9554160 Si02
#       6
#    16  16  16   8  16   8
#     4  10  21  37  57  85 114 154 195 247 301 366
#     4  10  21  37  56  82 115 151 193 243 301 360
#     4  10  21  37  57  85 114 154 195 247 301 366
#     4  10  20  34  56  88 120 154 196 248 310 372
#     4  10  21  37  56  82 115 151 193 243 301 360
#     4  10  20  34  56  88 120 154 196 248 310 372
#
# _framework density 18.214417000000001
#
# number of rings (size 3 to 8) (size 9 to 14) (size 15 to 20)
#    0.000    2.000    2.000    1.200    0.000    8.800 
#    0.000    0.000    0.000    9.600    0.000    0.000 
#    0.000    0.000    0.000    0.000    0.000    0.000 
#
# Total GULP energy -222778.765167 kJ/mol
# GULP energy per Si atom -5569.469129 kJ/mol
# Density = 1.817296 g / cm^3
# Si number density = 18.214417 Si / 1000 Ang^3
#
#
#
# Elastic Constant Matrix: (Units=GPa)
#
#
# Indices 1 2 3 4 5 6 
#
# 1 105.9052 9.4954 16.5933 0.0000 0.0000 0.0000
# 2 9.4954 105.9052 16.5933 0.0000 0.0000 0.0000
# 3 16.5933 16.5933 97.6874 0.0000 0.0000 0.0000
# 4 0.0000 0.0000 0.0000 22.4021 0.0000 0.0000
# 5 0.0000 0.0000 0.0000 0.0000 22.4021 0.0000
# 6 0.0000 0.0000 0.0000 0.0000 0.0000 19.6500
#
#
#
# Elastic Compliance Matrix: (Units=1/GPa)
#
#
# Indices 1 2 3 4 5 6 
#
# 1 0.009741 -0.000631 -0.001548 0.000000 0.000000 0.000000
# 2 -0.000631 0.009741 -0.001548 0.000000 0.000000 0.000000
# 3 -0.001548 -0.001548 0.010762 0.000000 0.000000 0.000000
# 4 0.000000 0.000000 0.000000 0.044639 0.000000 0.000000
# 5 0.000000 0.000000 0.000000 0.000000 0.044639 0.000000
# 6 0.000000 0.000000 0.000000 0.000000 0.000000 0.050891
#
#
# Mechanical properties :
#
#
# Convention : Reuss Voigt Hill
#
# Bulk Modulus (GPa) = 43.87240 43.87354 43.87297
# Shear Modulus (GPa) = 26.95955 30.67856 28.81906
#
# Velocity S-wave (km/s) = 3.85141 4.10848 3.98202
# Velocity P-wave (km/s) = 6.62697 6.82976 6.72913
#
# Compressibility (1/GPa) = 0.02279337
#
# Stress axis : x y z
#
# Youngs Moduli (GPa) = 102.65420 102.65420 92.91559
#
# Poissons Ratio (x) = 0.06477 0.14379
# Poissons Ratio (y) = 0.06477 0.14379
# Poissons Ratio (z) = 0.15886 0.15886
#
# Static dielectric constant tensor:
#      x y z
#    x 1.644810 0.000000 0.000000 
#    y 0.000000 1.644810 0.000000 
#    z 0.000000 0.000000 1.656920 
# 
# From -- ./inp_files/5501.got.cif
#   From: 2010.05.17/outbox.cif.g08.bks.cpg/sg109_3_cif.got.tgz:5501.got - 2010.05.20 10:51:12.
