data_PCOD9554897
_publ_section_title
;
Structure prediction by ZEFSAII (Michael W. Deem and Ramdas Pophale) SiO2 
 PCOD9554897
Probable space group: P -4 2 M 
;
_chemical_formula_sum "Si O2"
_cell_formula_units_Z 38
_cell_length_a 15.265459
_cell_length_b 15.265459
_cell_length_c 7.587423
_cell_angle_alpha 90.000000
_cell_angle_beta 90.000000
_cell_angle_gamma 90.000000
_cell_volume 1768.129341
_symmetry_space_group_name_H-M "P -4 2 M "
_symmetry_group_IT_number 111
_symmetry_cell_setting 'tetragonal'
loop_
_space_group_symop_operation_xyz
x,y,z
y,-x,-z
-x,-y,z
-y,x,-z
x,-y,-z
-x,y,-z
-y,-x,z
y,x,z
loop_
_atom_site_type_symbol
_atom_site_label
_atom_site_fract_x
_atom_site_fract_y
_atom_site_fract_z
Si Si1 0.246874 0.753127 0.384821
Si Si2 0.637571 0.362430 0.650177
Si Si3 0.956306 0.300044 0.684640
Si Si4 0.620147 0.871537 0.828686
Si Si5 0.500000 0.500000 0.500000
Si Si6 0.000000 0.000000 0.500000
Si Si7 0.134778 0.134778 0.326042
Si Si8 0.819792 0.426292 0.773050
O O1 0.312497 0.687504 0.489672
O O2 0.185771 0.695258 0.259627
O O3 0.187084 0.812917 0.516532
O O4 0.565504 0.434497 0.602077
O O5 0.717252 0.408941 0.752088
O O6 0.916231 0.212979 0.771981
O O7 0.876124 0.365118 0.644558
O O8 0.000000 0.272563 0.500000
O O9 0.028531 0.352853 0.793419
O O10 0.526177 0.846787 0.746352
O O11 0.606143 0.849309 0.033650
O O12 0.064282 0.064282 0.391494
#
# Coordination Sequence:
#
# PCOD9554897 Si02
#       8
#     4   4   8   8   1   1   4   8
#     4  12  21  42  66  95 130 178 233 276 353 417
#     4  12  23  45  68  99 136 180 229 298 353 416
#     4  12  22  40  64  96 130 172 232 282 347 410
#     4  11  24  40  65  96 133 179 229 282 349 422
#     4  12  28  40  72 106 136 176 252 310 356 424
#     4  12  20  36  60  88 130 152 204 264 330 412
#     4  12  22  40  63  96 126 172 216 283 345 406
#     4  11  24  42  63  95 137 179 225 288 352 420
#
# _framework density 21.491641999999999
#
# number of rings (size 3 to 8) (size 9 to 14) (size 15 to 20)
#    0.000    0.421    5.263    3.158    0.000    5.053 
#    0.000    1.053    0.000    2.526    0.000    1.474 
#    0.000    0.000    0.000    0.000    0.000    0.000 
#
# Total GULP energy -212536.650805 kJ/mol
# GULP energy per Si atom -5593.069758 kJ/mol
# Density = 2.144273 g / cm^3
# Si number density = 21.491642 Si / 1000 Ang^3
#
#
#
# Elastic Constant Matrix: (Units=GPa)
#
#
# Indices 1 2 3 4 5 6 
#
# 1 179.8904 94.0365 23.8147 0.0000 0.0000 0.0000
# 2 94.0365 179.8919 23.8146 0.0000 0.0000 0.0000
# 3 23.8147 23.8146 33.5756 0.0000 0.0000 0.0000
# 4 0.0000 0.0000 0.0000 27.0074 0.0000 0.0000
# 5 0.0000 0.0000 0.0000 0.0000 27.0069 0.0000
# 6 0.0000 0.0000 0.0000 0.0000 0.0000 63.6663
#
#
#
# Elastic Compliance Matrix: (Units=1/GPa)
#
#
# Indices 1 2 3 4 5 6 
#
# 1 0.007906 -0.003742 -0.002954 0.000000 0.000000 0.000000
# 2 -0.003742 0.007906 -0.002954 0.000000 0.000000 0.000000
# 3 -0.002954 -0.002954 0.033973 0.000000 0.000000 0.000000
# 4 0.000000 0.000000 0.000000 0.037027 0.000000 0.000000
# 5 0.000000 0.000000 0.000000 0.000000 0.037028 0.000000
# 6 0.000000 0.000000 0.000000 0.000000 0.000000 0.015707
#
#
# Mechanical properties :
#
#
# Convention : Reuss Voigt Hill
#
# Bulk Modulus (GPa) = 32.80044 75.18772 53.99408
# Shear Modulus (GPa) = 29.58464 40.31560 34.95012
#
# Velocity S-wave (km/s) = 3.71423 4.33583 4.03702
# Velocity P-wave (km/s) = 5.80423 7.75413 6.84893
#
# Compressibility (1/GPa) = 0.03048739
#
# Stress axis : x y z
#
# Youngs Moduli (GPa) = 126.48770 126.48884 29.43483
#
# Poissons Ratio (x) = 0.47329 0.08694
# Poissons Ratio (y) = 0.47328 0.08694
# Poissons Ratio (z) = 0.37359 0.37359
#
# Static dielectric constant tensor:
#      x y z
#    x 1.795290 0.000000 0.000000 
#    y 0.000000 1.795290 0.000000 
#    z 0.000000 0.000000 1.821000 
# 
# From -- ./inp_files/1510.got.cif
#   From: 2010.05.17/outbox.cif.g08.bks.cpg/sg111_1_cif.got.tgz:1510.got - 2010.05.20 10:56:05.
