data_PCOD9554901
_publ_section_title
;
Structure prediction by ZEFSAII (Michael W. Deem and Ramdas Pophale) SiO2 
 PCOD9554901
Probable space group: P -4 2 M 
;
_chemical_formula_sum "Si O2"
_cell_formula_units_Z 36
_cell_length_a 14.709023
_cell_length_b 14.709023
_cell_length_c 8.893914
_cell_angle_alpha 90.000000
_cell_angle_beta 90.000000
_cell_angle_gamma 90.000000
_cell_volume 1924.245944
_symmetry_space_group_name_H-M "P -4 2 M "
_symmetry_group_IT_number 111
_symmetry_cell_setting 'tetragonal'
loop_
_space_group_symop_operation_xyz
x,y,z
y,-x,-z
-x,-y,z
-y,x,-z
x,-y,-z
-x,y,-z
-y,-x,z
y,x,z
loop_
_atom_site_type_symbol
_atom_site_label
_atom_site_fract_x
_atom_site_fract_y
_atom_site_fract_z
Si Si1 0.500000 0.000000 0.249999
Si Si2 0.246682 0.899065 0.430739
Si Si3 0.677801 0.918454 0.899313
Si Si4 0.581545 0.822198 0.399312
Si Si5 0.600935 0.253320 0.930739
O O1 0.578367 0.046927 0.153558
O O2 0.453074 0.078367 0.346440
O O3 0.153028 0.846973 0.460357
O O4 0.266489 0.903172 0.252733
O O5 0.328037 0.840434 0.505529
O O6 0.248519 0.000000 0.500000
O O7 0.659566 0.828036 0.994471
O O8 0.717340 0.000000 0.000000
O O9 0.500000 0.782659 0.500000
O O10 0.596828 0.766488 0.247267
O O11 0.653026 0.346975 0.960359
O O12 0.500000 0.251482 0.000000
#
# Coordination Sequence:
#
# PCOD9554901 Si02
#       5
#     4   8   8   8   8
#     4  12  18  32  66  88 122 144 178 252 322 356
#     4  12  24  40  60  88 124 165 205 246 296 359
#     4  12  21  37  64  95 123 150 195 253 318 368
#     4  12  21  37  64  95 123 150 195 253 318 368
#     4  12  24  40  60  88 124 165 205 246 296 359
#
# _framework density 18.708627
#
# number of rings (size 3 to 8) (size 9 to 14) (size 15 to 20)
#    0.000    0.000    8.889    2.000    0.000    0.444 
#    0.000    2.222    0.000    0.000    0.000    0.000 
#    0.000    0.000    0.000    0.000    0.000    0.000 
#
# Total GULP energy -201342.252178 kJ/mol
# GULP energy per Si atom -5592.840338 kJ/mol
# Density = 1.866605 g / cm^3
# Si number density = 18.708627 Si / 1000 Ang^3
#
#
#
# Elastic Constant Matrix: (Units=GPa)
#
#
# Indices 1 2 3 4 5 6 
#
# 1 58.0928 37.7843 33.1404 0.0000 0.0000 0.0000
# 2 37.7843 58.0843 33.1383 0.0000 0.0000 0.0000
# 3 33.1404 33.1383 126.9634 0.0000 0.0000 0.0000
# 4 0.0000 0.0000 0.0000 12.6203 0.0000 0.0000
# 5 0.0000 0.0000 0.0000 0.0000 12.6183 0.0000
# 6 0.0000 0.0000 0.0000 0.0000 0.0000 22.1928
#
#
#
# Elastic Compliance Matrix: (Units=1/GPa)
#
#
# Indices 1 2 3 4 5 6 
#
# 1 0.030987 -0.018262 -0.003322 0.000000 0.000000 0.000000
# 2 -0.018262 0.030991 -0.003322 0.000000 0.000000 0.000000
# 3 -0.003322 -0.003322 0.009610 0.000000 0.000000 0.000000
# 4 0.000000 0.000000 0.000000 0.079237 0.000000 0.000000
# 5 0.000000 0.000000 0.000000 0.000000 0.079250 0.000000
# 6 0.000000 0.000000 0.000000 0.000000 0.000000 0.045060
#
#
# Mechanical properties :
#
#
# Convention : Reuss Voigt Hill
#
# Bulk Modulus (GPa) = 45.92066 50.14071 48.03068
# Shear Modulus (GPa) = 15.05092 18.75811 16.90451
#
# Velocity S-wave (km/s) = 2.83943 3.16989 3.00920
# Velocity P-wave (km/s) = 5.94544 6.34481 6.14837
#
# Compressibility (1/GPa) = 0.02177669
#
# Stress axis : x y z
#
# Youngs Moduli (GPa) = 32.27202 32.26720 104.05356
#
# Poissons Ratio (x) = 0.58926 0.34564
# Poissons Ratio (y) = 0.58935 0.34568
# Poissons Ratio (z) = 0.10720 0.10720
#
# Static dielectric constant tensor:
#      x y z
#    x 1.627700 0.000000 0.000000 
#    y 0.000000 1.627700 0.000000 
#    z 0.000000 0.000000 1.684180 
# 
# From -- ./inp_files/1452.got.cif
#   From: 2010.05.17/outbox.cif.g08.bks.cpg/sg111_1_cif.got.tgz:1452.got - 2010.05.20 10:56:05.
