data_PCOD9554522
_publ_section_title
;
Structure prediction by ZEFSAII (Michael W. Deem and Ramdas Pophale) SiO2 
 PCOD9554522
Probable space group: I 41 C D
;
_chemical_formula_sum "Si O2"
_cell_formula_units_Z 96
_cell_length_a 13.578523
_cell_length_b 13.578523
_cell_length_c 24.458610
_cell_angle_alpha 90.000000
_cell_angle_beta 90.000000
_cell_angle_gamma 90.000000
_cell_volume 4509.587694
_symmetry_space_group_name_H-M "I 41 C D"
_symmetry_group_IT_number 110
_symmetry_cell_setting 'tetragonal'
loop_
_space_group_symop_operation_xyz
x,y,z
-y,1/2+x,1/4+z
-x,-y,z
y,1/2-x,1/4+z
-x,y,1/2+z
x,-y,1/2+z
1/2-y,-x,1/4+z
1/2+y,x,1/4+z
1/2+x,1/2+y,1/2+z
1/2-y,x,3/4+z
1/2-x,1/2-y,1/2+z
1/2+y,-x,3/4+z
1/2-x,1/2+y,z
1/2+x,1/2-y,z
-y,1/2-x,3/4+z
y,1/2+x,3/4+z
loop_
_atom_site_type_symbol
_atom_site_label
_atom_site_fract_x
_atom_site_fract_y
_atom_site_fract_z
Si Si1 0.500000 0.500000 0.619710
Si Si2 0.286308 0.518340 0.247437
Si Si3 0.500000 0.500000 0.938894
Si Si4 0.161696 0.632275 0.155704
Si Si5 0.877024 0.598223 0.282318
Si Si6 0.906639 0.840036 0.698203
Si Si7 0.579074 0.692409 0.783448
O O1 0.415239 0.459728 0.579007
O O2 0.529206 0.407257 0.656887
O O3 0.227432 0.586430 0.204324
O O4 0.214557 0.473685 0.293937
O O5 0.329000 0.420159 0.219959
O O6 0.371796 0.588406 0.269167
O O7 0.415358 0.446464 0.906627
O O8 0.447958 0.577835 0.977894
O O9 0.145145 0.747987 0.167751
O O10 0.201621 0.589285 0.098872
O O11 0.857420 0.711127 0.267899
O O12 0.976742 0.803787 0.748973
#
# Coordination Sequence:
#
# PCOD9554522 Si02
#       7
#     8  16   8  16  16  16  16
#     4  11  22  43  70  98 142 187 228 301 366 424
#     4  11  24  46  66 103 141 176 240 302 349 428
#     4   9  20  41  66  92 136 177 226 289 342 420
#     4  11  25  44  70 100 139 185 233 289 364 429
#     4  10  22  43  68  95 134 188 230 283 358 432
#     4  12  24  45  71 102 145 184 236 304 360 431
#     4  12  24  43  70 102 135 182 238 287 354 435
#
# _framework density 21.287977999999999
#
# number of rings (size 3 to 8) (size 9 to 14) (size 15 to 20)
#    0.000    1.000    3.333    3.000    2.333    0.000 
#    9.000    0.000    0.000    0.000    0.000    0.000 
#    0.000    0.000    0.000    0.000    0.000    0.000 
#
# Total GULP energy -267468.220091 kJ/mol
# GULP energy per Si atom -5572.254585 kJ/mol
# Density = 2.123953 g / cm^3
# Si number density = 21.287978 Si / 1000 Ang^3
#
#
#
# Elastic Constant Matrix: (Units=GPa)
#
#
# Indices 1 2 3 4 5 6 
#
# 1 83.1622 6.6568 20.8654 0.0000 0.0000 0.0000
# 2 6.6568 83.1622 20.8654 0.0000 0.0000 0.0000
# 3 20.8654 20.8654 63.7769 0.0000 0.0000 0.0000
# 4 0.0000 0.0000 0.0000 -19.5088 0.0000 0.0000
# 5 0.0000 0.0000 0.0000 0.0000 -19.5088 0.0000
# 6 0.0000 0.0000 0.0000 0.0000 0.0000 37.8793
#
#
#
# Elastic Compliance Matrix: (Units=1/GPa)
#
#
# Indices 1 2 3 4 5 6 
#
# 1 0.013100 0.000029 -0.004295 0.000000 0.000000 0.000000
# 2 0.000029 0.013100 -0.004295 0.000000 0.000000 0.000000
# 3 -0.004295 -0.004295 0.018490 0.000000 0.000000 0.000000
# 4 0.000000 0.000000 0.000000 -0.051259 0.000000 0.000000
# 5 0.000000 0.000000 0.000000 0.000000 -0.051259 0.000000
# 6 0.000000 0.000000 0.000000 0.000000 0.000000 0.026400
#
#
# Mechanical properties :
#
#
# Convention : Reuss Voigt Hill
#
# Bulk Modulus (GPa) = 36.27515 36.31962 36.29738
# Shear Modulus (GPa) = -977.40793 11.88659 -482.76067
#
# Velocity S-wave (km/s) = -21.45071 2.36555 -15.07543
# Velocity P-wave (km/s) = 24.42198 4.95573 16.90967
#
# Compressibility (1/GPa) = 0.02756708
#
# Stress axis : x y z
#
# Youngs Moduli (GPa) = 76.33543 76.33543 54.08262
#
# Poissons Ratio (x) = -0.00222 0.23231
# Poissons Ratio (y) = -0.00222 0.23231
# Poissons Ratio (z) = 0.32789 0.32789
#
# Static dielectric constant tensor:
#      x y z
#    x 1.901950 0.000000 0.000000 
#    y 0.000000 1.901950 0.000000 
#    z 0.000000 0.000000 1.833160 
# 
# From -- ./inp_files/2613.got.cif
#   From: 2010.05.17/outbox.cif.g08.bks.cpg/sg110_2_cif.got.tgz:2613.got - 2010.05.20 10:54:03.
