data_PCOD9554531
_publ_section_title
;
Structure prediction by ZEFSAII (Michael W. Deem and Ramdas Pophale) SiO2 
 PCOD9554531
Probable space group: I 41 C D
;
_chemical_formula_sum "Si O2"
_cell_formula_units_Z 48
_cell_length_a 18.307025
_cell_length_b 18.307025
_cell_length_c 5.511905
_cell_angle_alpha 90.000000
_cell_angle_beta 90.000000
_cell_angle_gamma 90.000000
_cell_volume 1847.299331
_symmetry_space_group_name_H-M "I 41 C D"
_symmetry_group_IT_number 110
_symmetry_cell_setting 'tetragonal'
loop_
_space_group_symop_operation_xyz
x,y,z
-y,1/2+x,1/4+z
-x,-y,z
y,1/2-x,1/4+z
-x,y,1/2+z
x,-y,1/2+z
1/2-y,-x,1/4+z
1/2+y,x,1/4+z
1/2+x,1/2+y,1/2+z
1/2-y,x,3/4+z
1/2-x,1/2-y,1/2+z
1/2+y,-x,3/4+z
1/2-x,1/2+y,z
1/2+x,1/2-y,z
-y,1/2-x,3/4+z
y,1/2+x,3/4+z
loop_
_atom_site_type_symbol
_atom_site_label
_atom_site_fract_x
_atom_site_fract_y
_atom_site_fract_z
Si Si1 0.463793 0.717653 0.607420
Si Si2 0.170060 0.178328 0.875986
Si Si3 0.519834 0.117318 0.175318
O O1 0.496040 0.689965 0.353669
O O2 0.378906 0.700029 0.642591
O O3 0.478323 0.804838 0.629743
O O4 0.164663 0.246780 0.052929
O O5 0.136667 0.103813 0.972679
O O6 0.485751 0.080961 0.411519
#
# Coordination Sequence:
#
# PCOD9554531 Si02
#       3
#    16  16  16
#     4  10  22  45  61  94 142 183 208 282 362 405
#     4  12  26  38  74 113 130 177 246 300 332 418
#     4  10  22  45  61  94 142 183 208 282 362 405
#
# _framework density 25.983877
#
# number of rings (size 3 to 8) (size 9 to 14) (size 15 to 20)
#    0.000    1.333    6.667    0.000    9.333    2.667 
#    0.000    0.000    0.000    6.000    0.000    0.000 
#    0.000    0.000    0.000    0.000    0.000    0.000 
#
# Total GULP energy -134408.515837 kJ/mol
# GULP energy per Si atom -5600.354827 kJ/mol
# Density = 2.592474 g / cm^3
# Si number density = 25.983877 Si / 1000 Ang^3
#
#
#
# Elastic Constant Matrix: (Units=GPa)
#
#
# Indices 1 2 3 4 5 6 
#
# 1 99.5475 23.1572 15.0811 0.0000 0.0000 0.0000
# 2 23.1572 99.5475 15.0811 0.0000 0.0000 0.0000
# 3 15.0811 15.0811 205.6424 0.0000 0.0000 0.0000
# 4 0.0000 0.0000 0.0000 -21.2375 0.0000 0.0000
# 5 0.0000 0.0000 0.0000 0.0000 -21.2375 0.0000
# 6 0.0000 0.0000 0.0000 0.0000 0.0000 -2.6044
#
#
#
# Elastic Compliance Matrix: (Units=1/GPa)
#
#
# Indices 1 2 3 4 5 6 
#
# 1 0.010695 -0.002396 -0.000609 0.000000 0.000000 0.000000
# 2 -0.002396 0.010695 -0.000609 0.000000 0.000000 0.000000
# 3 -0.000609 -0.000609 0.004952 0.000000 0.000000 0.000000
# 4 0.000000 0.000000 0.000000 -0.047087 0.000000 0.000000
# 5 0.000000 0.000000 0.000000 0.000000 -0.047087 0.000000
# 6 0.000000 0.000000 0.000000 0.000000 0.000000 -0.383964
#
#
# Mechanical properties :
#
#
# Convention : Reuss Voigt Hill
#
# Bulk Modulus (GPa) = 52.31207 56.81956 54.56581
# Shear Modulus (GPa) = -11.41037 14.41201 1.50082
#
# Velocity S-wave (km/s) = -2.09782 2.35766 0.76082
# Velocity P-wave (km/s) = 3.78264 5.41536 4.67090
#
# Compressibility (1/GPa) = 0.01911605
#
# Stress axis : x y z
#
# Youngs Moduli (GPa) = 93.50201 93.50201 201.93530
#
# Poissons Ratio (x) = 0.22400 0.12291
# Poissons Ratio (y) = 0.22400 0.12291
# Poissons Ratio (z) = 0.05691 0.05691
#
# Static dielectric constant tensor:
#      x y z
#    x 2.024800 0.000000 0.000000 
#    y 0.000000 2.024800 0.000000 
#    z 0.000000 0.000000 2.117510 
# 
# From -- ./inp_files/35.got.cif
#   From: 2010.05.17/outbox.cif.g08.bks.cpg/sg110_1_cif.got.tgz:35.got - 2010.05.20 10:54:03.
