data_PCOD9554952
_publ_section_title
;
Structure prediction by ZEFSAII (Michael W. Deem and Ramdas Pophale) SiO2 
 PCOD9554952
Probable space group: P -4 2 C
;
_chemical_formula_sum "Si O2"
_cell_formula_units_Z 48
_cell_length_a 12.584879
_cell_length_b 12.584879
_cell_length_c 14.659453
_cell_angle_alpha 90.000000
_cell_angle_beta 90.000000
_cell_angle_gamma 90.000000
_cell_volume 2321.752137
_symmetry_space_group_name_H-M "P -4 2 C"
_symmetry_group_IT_number 112
_symmetry_cell_setting 'tetragonal'
loop_
_space_group_symop_operation_xyz
x,y,z
y,-x,-z
-x,-y,z
-y,x,-z
x,-y,1/2-z
-x,y,1/2-z
-y,-x,1/2+z
y,x,1/2+z
loop_
_atom_site_type_symbol
_atom_site_label
_atom_site_fract_x
_atom_site_fract_y
_atom_site_fract_z
Si Si1 0.000000 0.378199 0.361898
Si Si2 0.378983 0.618407 0.390314
Si Si3 0.189452 0.770842 0.143031
Si Si4 0.770842 0.810548 0.643031
Si Si5 0.000000 0.125512 0.638846
Si Si6 0.621017 0.381592 0.109686
O O1 0.102535 0.312144 0.393761
O O2 0.000000 0.500000 0.393110
O O3 0.000000 0.381806 0.250000
O O4 0.897465 0.312144 0.393761
O O5 0.302263 0.713616 0.363832
O O6 0.500000 0.631460 0.358184
O O7 0.340995 0.500000 0.361017
O O8 0.382295 0.617705 0.500000
O O9 0.163401 0.780785 0.250000
O O10 0.302263 0.713616 0.136168
O O11 0.177725 0.889997 0.105439
O O12 0.889997 0.822275 0.605439
O O13 0.000000 0.133193 0.750000
O O14 0.000000 0.000000 0.616755
#
# Coordination Sequence:
#
# PCOD9554952 Si02
#       6
#     8   8   8   8   8   8
#     4   9  16  25  42  73 105 125 153 206 257 287
#     4   9  19  36  54  71  97 133 167 204 256 308
#     4  10  18  30  51  76 101 130 168 208 246 294
#     4  10  18  30  51  76 101 130 168 208 246 294
#     4   9  16  30  50  73 103 138 166 195 244 301
#     4   9  19  36  54  71  97 133 167 204 256 308
#
# _framework density 20.674040999999999
#
# number of rings (size 3 to 8) (size 9 to 14) (size 15 to 20)
#    0.000    2.667    1.667    2.000    0.000    2.667 
#    0.000    4.167    0.000    7.000    0.000    0.000 
#    0.000    0.000    0.000    0.000    0.000    0.000 
#
# Total GULP energy -267781.260117 kJ/mol
# GULP energy per Si atom -5578.776252 kJ/mol
# Density = 2.062699 g / cm^3
# Si number density = 20.674041 Si / 1000 Ang^3
#
#
#
# Elastic Constant Matrix: (Units=GPa)
#
#
# Indices 1 2 3 4 5 6 
#
# 1 174.4807 108.1322 -2.1228 0.0000 0.0000 0.0000
# 2 108.1322 174.4807 -2.1228 0.0000 0.0000 0.0000
# 3 -2.1228 -2.1228 41.1115 0.0000 0.0000 0.0000
# 4 0.0000 0.0000 0.0000 16.2931 0.0000 0.0000
# 5 0.0000 0.0000 0.0000 0.0000 16.2931 0.0000
# 6 0.0000 0.0000 0.0000 0.0000 0.0000 35.0738
#
#
#
# Elastic Compliance Matrix: (Units=1/GPa)
#
#
# Indices 1 2 3 4 5 6 
#
# 1 0.009307 -0.005765 0.000183 0.000000 0.000000 0.000000
# 2 -0.005765 0.009307 0.000183 0.000000 0.000000 0.000000
# 3 0.000183 0.000183 0.024343 0.000000 0.000000 0.000000
# 4 0.000000 0.000000 0.000000 0.061376 0.000000 0.000000
# 5 0.000000 0.000000 0.000000 0.000000 0.061376 0.000000
# 6 0.000000 0.000000 0.000000 0.000000 0.000000 0.028511
#
#
# Mechanical properties :
#
#
# Convention : Reuss Voigt Hill
#
# Bulk Modulus (GPa) = 31.09772 66.42736 48.76254
# Shear Modulus (GPa) = 23.17637 32.61108 27.89372
#
# Velocity S-wave (km/s) = 3.35182 3.97595 3.67715
# Velocity P-wave (km/s) = 5.48217 7.29919 6.45493
#
# Compressibility (1/GPa) = 0.03215670
#
# Stress axis : x y z
#
# Youngs Moduli (GPa) = 107.45125 107.45125 41.07957
#
# Poissons Ratio (x) = 0.61950 -0.00751
# Poissons Ratio (y) = 0.61950 -0.00751
# Poissons Ratio (z) = -0.01965 -0.01965
#
# Static dielectric constant tensor:
#      x y z
#    x 1.736160 0.000000 0.000000 
#    y 0.000000 1.736160 0.000000 
#    z 0.000000 0.000000 1.785400 
# 
# From -- ./inp_files/4107.got.cif
#   From: 2010.05.17/outbox.cif.g08.bks.cpg/sg112_3_cif.got.tgz:4107.got - 2010.05.20 10:59:04.
