data_PCOD9554924
_publ_section_title
;
Structure prediction by ZEFSAII (Michael W. Deem and Ramdas Pophale) SiO2 
 PCOD9554924
Probable space group: P -4 2 C
;
_chemical_formula_sum "Si O2"
_cell_formula_units_Z 46
_cell_length_a 11.707480
_cell_length_b 11.707480
_cell_length_c 17.646690
_cell_angle_alpha 90.000000
_cell_angle_beta 90.000000
_cell_angle_gamma 90.000000
_cell_volume 2418.745117
_symmetry_space_group_name_H-M "P -4 2 C"
_symmetry_group_IT_number 112
_symmetry_cell_setting 'tetragonal'
loop_
_space_group_symop_operation_xyz
x,y,z
y,-x,-z
-x,-y,z
-y,x,-z
x,-y,1/2-z
-x,y,1/2-z
-y,-x,1/2+z
y,x,1/2+z
loop_
_atom_site_type_symbol
_atom_site_label
_atom_site_fract_x
_atom_site_fract_y
_atom_site_fract_z
Si Si1 0.638318 0.007535 0.661740
Si Si2 0.228364 0.125622 0.958256
Si Si3 0.416272 0.349524 0.119153
Si Si4 0.895035 0.436292 0.931889
Si Si5 0.500000 0.500000 0.500000
Si Si6 0.819861 0.640524 0.039438
Si Si7 0.000000 0.000000 0.500000
Si Si8 0.500000 0.500000 0.750000
O O1 0.677591 0.904693 0.606912
O O2 0.500000 0.000000 0.658851
O O3 0.670770 0.000000 0.750000
O O4 0.698163 0.113600 0.618814
O O5 0.110797 0.052939 0.956747
O O6 0.315624 0.083348 0.025479
O O7 0.198374 0.255232 0.981247
O O8 0.422451 0.213954 0.121520
O O9 0.509817 0.395380 0.058614
O O10 0.298689 0.383957 0.080278
O O11 0.428851 0.416772 0.196317
O O12 0.000000 0.500000 0.892593
O O13 0.864102 0.527435 0.997989
#
# Coordination Sequence:
#
# PCOD9554924 Si02
#       8
#     8   8   8   8   2   8   2   2
#     4  11  22  39  60  94 128 160 207 267 330 380
#     4  11  21  35  62  89 120 161 207 257 312 370
#     4  10  22  35  58  86 121 160 200 260 306 381
#     4  11  19  37  60  89 116 154 217 253 300 374
#     4  10  16  34  56  86 112 150 204 250 296 350
#     4  11  20  37  61  89 118 160 211 255 311 374
#     4  12  20  36  62  88 116 152 210 264 292 352
#     4  10  24  42  50  86 130 158 204 252 336 364
#
# _framework density 19.018125999999999
#
# number of rings (size 3 to 8) (size 9 to 14) (size 15 to 20)
#    0.000    1.217    6.957    0.000    0.000    1.391 
#    3.130    0.870    0.000    0.000    0.000    0.000 
#    0.000    0.000    0.000    0.000    0.000    0.000 
#
# Total GULP energy -256365.009735 kJ/mol
# GULP energy per Si atom -5573.152386 kJ/mol
# Density = 1.897484 g / cm^3
# Si number density = 19.018126 Si / 1000 Ang^3
#
#
#
# Elastic Constant Matrix: (Units=GPa)
#
#
# Indices 1 2 3 4 5 6 
#
# 1 85.8351 24.5842 38.1755 0.0000 0.0000 0.0000
# 2 24.5842 85.8351 38.1755 0.0000 0.0000 0.0000
# 3 38.1755 38.1755 112.6090 0.0000 0.0000 0.0000
# 4 0.0000 0.0000 0.0000 19.9061 0.0000 0.0000
# 5 0.0000 0.0000 0.0000 0.0000 19.9061 0.0000
# 6 0.0000 0.0000 0.0000 0.0000 0.0000 28.2229
#
#
#
# Elastic Compliance Matrix: (Units=1/GPa)
#
#
# Indices 1 2 3 4 5 6 
#
# 1 0.014078 -0.002248 -0.004010 0.000000 0.000000 0.000000
# 2 -0.002248 0.014078 -0.004010 0.000000 0.000000 0.000000
# 3 -0.004010 -0.004010 0.011599 0.000000 0.000000 0.000000
# 4 0.000000 0.000000 0.000000 0.050236 0.000000 0.000000
# 5 0.000000 0.000000 0.000000 0.000000 0.050236 0.000000
# 6 0.000000 0.000000 0.000000 0.000000 0.000000 0.035432
#
#
# Mechanical properties :
#
#
# Convention : Reuss Voigt Hill
#
# Bulk Modulus (GPa) = 52.03733 54.01661 53.02697
# Shear Modulus (GPa) = 24.67885 25.82994 25.25439
#
# Velocity S-wave (km/s) = 3.60620 3.68934 3.64801
# Velocity P-wave (km/s) = 6.69036 6.82735 6.75920
#
# Compressibility (1/GPa) = 0.01921697
#
# Stress axis : x y z
#
# Youngs Moduli (GPa) = 71.03374 71.03374 86.21195
#
# Poissons Ratio (x) = 0.15972 0.34573
# Poissons Ratio (y) = 0.15972 0.34573
# Poissons Ratio (z) = 0.28486 0.28486
#
# Static dielectric constant tensor:
#      x y z
#    x 1.750180 0.000000 0.000000 
#    y 0.000000 1.750180 0.000000 
#    z 0.000000 0.000000 1.628410 
# 
# From -- ./inp_files/4185.got.cif
#   From: 2010.05.17/outbox.cif.g08.bks.cpg/sg112_3_cif.got.tgz:4185.got - 2010.05.20 10:59:04.
