data_PCOD9554769
_publ_section_title
;
Structure prediction by ZEFSAII (Michael W. Deem and Ramdas Pophale) SiO2 
 PCOD9554769
Probable space group: P -4 2 M 
;
_chemical_formula_sum "Si O2"
_cell_formula_units_Z 56
_cell_length_a 14.648454
_cell_length_b 14.648454
_cell_length_c 12.021045
_cell_angle_alpha 90.000000
_cell_angle_beta 90.000000
_cell_angle_gamma 90.000000
_cell_volume 2579.442232
_symmetry_space_group_name_H-M "P -4 2 M "
_symmetry_group_IT_number 111
_symmetry_cell_setting 'tetragonal'
loop_
_space_group_symop_operation_xyz
x,y,z
y,-x,-z
-x,-y,z
-y,x,-z
x,-y,-z
-x,y,-z
-y,-x,z
y,x,z
loop_
_atom_site_type_symbol
_atom_site_label
_atom_site_fract_x
_atom_site_fract_y
_atom_site_fract_z
Si Si1 0.913427 0.618895 0.286164
Si Si2 0.096749 0.751506 0.070787
Si Si3 0.353504 0.504023 0.160671
Si Si4 0.242203 0.486666 0.629685
Si Si5 0.090093 0.236603 0.471044
Si Si6 0.787427 0.633061 0.078213
Si Si7 0.893688 0.341063 0.302270
O O1 0.844086 0.553684 0.351565
O O2 0.912794 0.713682 0.353832
O O3 0.867333 0.633931 0.168520
O O4 0.019714 0.594274 0.277109
O O5 0.156920 0.843081 0.047904
O O6 0.095044 0.734377 0.204737
O O7 0.159489 0.665067 0.031703
O O8 0.000000 0.752996 0.000000
O O9 0.395404 0.604597 0.136045
O O10 0.433794 0.433794 0.132585
O O11 0.327204 0.493554 0.290288
O O12 0.265278 0.461998 0.099527
O O13 0.265251 0.500000 0.500000
O O14 0.202276 0.392666 0.683241
O O15 0.179837 0.179837 0.479219
O O16 0.090614 0.307787 0.571867
O O17 0.000000 0.179064 0.500000
O O18 0.711646 0.711646 0.100932
#
# Coordination Sequence:
#
# PCOD9554769 Si02
#       7
#     8   8   8   8   8   8   8
#     4  10  19  36  60  86 122 166 211 261 322 389
#     4  11  23  42  67  96 135 180 231 287 344 405
#     4   9  20  39  62  92 127 163 212 268 321 383
#     4  11  22  37  60  95 125 165 208 258 323 398
#     4  10  21  35  55  84 122 166 212 264 322 388
#     4   9  18  36  64  90 122 170 218 264 323 391
#     4  11  22  38  61  91 129 164 213 270 329 391
#
# _framework density 21.71012
#
# number of rings (size 3 to 8) (size 9 to 14) (size 15 to 20)
#    0.000    1.857    2.857    1.286    0.000    3.143 
#    0.000    3.571    0.000    4.286    0.000    4.000 
#    0.000    0.000    0.000    0.000    0.000    0.000 
#
# Total GULP energy -311754.943439 kJ/mol
# GULP energy per Si atom -5567.052561 kJ/mol
# Density = 2.166071 g / cm^3
# Si number density = 21.710120 Si / 1000 Ang^3
#
#
#
# Elastic Constant Matrix: (Units=GPa)
#
#
# Indices 1 2 3 4 5 6 
#
# 1 64.3525 23.4505 16.3650 0.0000 0.0000 0.0000
# 2 23.4505 64.3517 16.3646 0.0000 0.0000 0.0000
# 3 16.3650 16.3646 111.9755 0.0000 0.0000 0.0000
# 4 0.0000 0.0000 0.0000 13.7108 0.0000 0.0000
# 5 0.0000 0.0000 0.0000 0.0000 13.7109 0.0000
# 6 0.0000 0.0000 0.0000 0.0000 0.0000 38.6653
#
#
#
# Elastic Compliance Matrix: (Units=1/GPa)
#
#
# Indices 1 2 3 4 5 6 
#
# 1 0.018247 -0.006202 -0.001760 0.000000 0.000000 0.000000
# 2 -0.006202 0.018247 -0.001760 0.000000 0.000000 0.000000
# 3 -0.001760 -0.001760 0.009445 0.000000 0.000000 0.000000
# 4 0.000000 0.000000 0.000000 0.072935 0.000000 0.000000
# 5 0.000000 0.000000 0.000000 0.000000 0.072935 0.000000
# 6 0.000000 0.000000 0.000000 0.000000 0.000000 0.025863
#
#
# Mechanical properties :
#
#
# Convention : Reuss Voigt Hill
#
# Bulk Modulus (GPa) = 37.74397 39.22666 38.48531
# Shear Modulus (GPa) = 20.32942 25.51736 22.92339
#
# Velocity S-wave (km/s) = 3.06339 3.43208 3.25296
# Velocity P-wave (km/s) = 5.47135 5.81491 5.64574
#
# Compressibility (1/GPa) = 0.02649430
#
# Stress axis : x y z
#
# Youngs Moduli (GPa) = 54.80337 54.80270 105.87529
#
# Poissons Ratio (x) = 0.33987 0.18638
# Poissons Ratio (y) = 0.33988 0.18638
# Poissons Ratio (z) = 0.09648 0.09647
#
# Static dielectric constant tensor:
#      x y z
#    x 1.862110 0.000000 0.000000 
#    y 0.000000 1.862110 0.000000 
#    z 0.000000 0.000000 1.826830 
# 
# From -- ./inp_files/2795.got.cif
#   From: 2010.05.17/outbox.cif.g08.bks.cpg/sg111_2_cif.got.tgz:2795.got - 2010.05.20 10:56:05.
