data_PCOD9554949
_publ_section_title
;
Structure prediction by ZEFSAII (Michael W. Deem and Ramdas Pophale) SiO2 
 PCOD9554949
Probable space group: P -4 2 C
;
_chemical_formula_sum "Si O2"
_cell_formula_units_Z 56
_cell_length_a 15.132370
_cell_length_b 15.132370
_cell_length_c 14.427063
_cell_angle_alpha 90.000000
_cell_angle_beta 90.000000
_cell_angle_gamma 90.000000
_cell_volume 3303.633273
_symmetry_space_group_name_H-M "P -4 2 C"
_symmetry_group_IT_number 112
_symmetry_cell_setting 'tetragonal'
loop_
_space_group_symop_operation_xyz
x,y,z
y,-x,-z
-x,-y,z
-y,x,-z
x,-y,1/2-z
-x,y,1/2-z
-y,-x,1/2+z
y,x,1/2+z
loop_
_atom_site_type_symbol
_atom_site_label
_atom_site_fract_x
_atom_site_fract_y
_atom_site_fract_z
Si Si1 0.275725 0.338266 0.140555
Si Si2 0.097411 0.395944 0.051014
Si Si3 0.830298 0.601019 0.854519
Si Si4 0.338266 0.724275 0.640555
Si Si5 0.604056 0.902588 0.948986
Si Si6 0.602029 0.500000 0.363325
Si Si7 0.601019 0.169702 0.354519
O O1 0.181461 0.345014 0.091331
O O2 0.260792 0.353092 0.250000
O O3 0.341868 0.414989 0.106684
O O4 0.328218 0.247038 0.130866
O O5 0.107922 0.500000 0.075787
O O6 1.000000 0.366939 0.082501
O O7 0.103240 0.390597 0.939501
O O8 0.752962 0.671783 0.869133
O O9 0.866210 0.611868 0.750000
O O10 0.793797 0.500000 0.859137
O O11 0.345014 0.818539 0.591331
O O12 0.414989 0.658132 0.606684
O O13 0.609403 0.896760 0.060499
O O14 0.500000 0.500000 0.392911
O O15 0.600149 0.500000 0.250000
#
# Coordination Sequence:
#
# PCOD9554949 Si02
#       7
#     8   8   8   8   8   8   8
#     4  10  18  30  47  68  97 129 161 202 243 289
#     4  10  20  32  46  65  94 131 169 207 243 288
#     4   9  18  32  50  69  91 123 162 205 251 289
#     4  10  18  30  47  68  97 129 161 202 243 289
#     4  10  20  32  46  65  94 131 169 207 243 288
#     4   9  16  26  43  67  94 127 163 195 235 282
#     4   9  18  32  50  69  91 123 162 205 251 289
#
# _framework density 16.951034
#
# number of rings (size 3 to 8) (size 9 to 14) (size 15 to 20)
#    0.000    2.429    1.429    1.714    0.000    4.571 
#    0.000    4.286    0.000    0.000    0.000    0.000 
#    0.000    9.143    0.000   25.143    0.000    0.571 
#
# Total GULP energy -312267.261901 kJ/mol
# GULP energy per Si atom -5576.201105 kJ/mol
# Density = 1.691245 g / cm^3
# Si number density = 16.951034 Si / 1000 Ang^3
#
#
#
# Elastic Constant Matrix: (Units=GPa)
#
#
# Indices 1 2 3 4 5 6 
#
# 1 81.1311 25.0177 28.6363 0.0000 0.0000 0.0000
# 2 25.0177 81.1311 28.6363 0.0000 0.0000 0.0000
# 3 28.6363 28.6363 50.1792 0.0000 0.0000 0.0000
# 4 0.0000 0.0000 0.0000 10.6043 0.0000 0.0000
# 5 0.0000 0.0000 0.0000 0.0000 10.6043 0.0000
# 6 0.0000 0.0000 0.0000 0.0000 0.0000 7.0611
#
#
#
# Elastic Compliance Matrix: (Units=1/GPa)
#
#
# Indices 1 2 3 4 5 6 
#
# 1 0.015717 -0.002105 -0.007768 0.000000 0.000000 0.000000
# 2 -0.002105 0.015717 -0.007768 0.000000 0.000000 0.000000
# 3 -0.007768 -0.007768 0.028795 0.000000 0.000000 0.000000
# 4 0.000000 0.000000 0.000000 0.094301 0.000000 0.000000
# 5 0.000000 0.000000 0.000000 0.000000 0.094301 0.000000
# 6 0.000000 0.000000 0.000000 0.000000 0.000000 0.141621
#
#
# Mechanical properties :
#
#
# Convention : Reuss Voigt Hill
#
# Bulk Modulus (GPa) = 40.08596 41.89132 40.98864
# Shear Modulus (GPa) = 11.51946 14.33069 12.92507
#
# Velocity S-wave (km/s) = 2.60969 2.91076 2.76433
# Velocity P-wave (km/s) = 5.72539 6.00529 5.86701
#
# Compressibility (1/GPa) = 0.02494639
#
# Stress axis : x y z
#
# Youngs Moduli (GPa) = 63.62724 63.62724 34.72845
#
# Poissons Ratio (x) = 0.13390 0.26978
# Poissons Ratio (y) = 0.13390 0.26978
# Poissons Ratio (z) = 0.49426 0.49426
#
# Static dielectric constant tensor:
#      x y z
#    x 1.553080 0.000000 0.000000 
#    y 0.000000 1.553080 0.000000 
#    z 0.000000 0.000000 1.636460 
# 
# From -- ./inp_files/3426.got.cif
#   From: 2010.05.17/outbox.cif.g08.bks.cpg/sg112_2_cif.got.tgz:3426.got - 2010.05.20 10:59:04.
