data_PCOD9554650
_publ_section_title
;
Structure prediction by ZEFSAII (Michael W. Deem and Ramdas Pophale) SiO2 
 PCOD9554650
Probable space group: P -4 2 M 
;
_chemical_formula_sum "Si O2"
_cell_formula_units_Z 56
_cell_length_a 20.417071
_cell_length_b 20.417071
_cell_length_c 7.235819
_cell_angle_alpha 90.000000
_cell_angle_beta 90.000000
_cell_angle_gamma 90.000000
_cell_volume 3016.300268
_symmetry_space_group_name_H-M "P -4 2 M "
_symmetry_group_IT_number 111
_symmetry_cell_setting 'tetragonal'
loop_
_space_group_symop_operation_xyz
x,y,z
y,-x,-z
-x,-y,z
-y,x,-z
x,-y,-z
-x,y,-z
-y,-x,z
y,x,z
loop_
_atom_site_type_symbol
_atom_site_label
_atom_site_fract_x
_atom_site_fract_y
_atom_site_fract_z
Si Si1 0.137448 0.582380 0.175009
Si Si2 0.990719 0.615174 0.280897
Si Si3 0.694529 0.803072 0.343335
Si Si4 0.175293 0.279949 0.900500
Si Si5 0.060363 0.252591 0.363953
Si Si6 0.556965 0.150516 0.746696
Si Si7 0.178758 0.924129 0.982312
O O1 0.168256 0.653094 0.209593
O O2 0.159409 0.519945 0.294280
O O3 0.058212 0.591982 0.189164
O O4 0.159617 0.567199 0.966231
O O5 0.967133 0.688517 0.230805
O O6 0.927749 0.569302 0.266551
O O7 0.000000 0.620685 0.500000
O O8 0.738803 0.738803 0.392114
O O9 0.720151 0.870361 0.440059
O O10 0.614806 0.808890 0.354085
O O11 0.706541 0.813036 0.120691
O O12 0.234476 0.234476 0.836079
O O13 0.109348 0.236994 0.901411
O O14 0.083733 0.194299 0.234398
O O15 0.000000 0.236960 0.500000
O O16 0.114289 0.885712 0.035719
O O17 0.173584 0.000000 0.000000
#
# Coordination Sequence:
#
# PCOD9554650 Si02
#       7
#     8   8   8   8   8   8   8
#     4  10  17  27  42  61  87 110 136 174 206 243
#     4  10  19  28  40  60  87 116 140 162 199 252
#     4   8  14  27  44  61  84 111 139 172 208 246
#     4   8  15  27  45  65  81 104 138 175 212 248
#     4   9  17  29  45  65  84 105 141 181 217 257
#     4   9  18  27  40  63  85 111 142 170 204 242
#     4  10  19  32  49  65  82 108 143 182 225 268
#
# _framework density 18.56579
#
# number of rings (size 3 to 8) (size 9 to 14) (size 15 to 20)
#    0.000    2.857    0.000    3.857    0.000    2.429 
#    0.000    1.429    0.000   12.857    0.000    0.000 
#    0.000    0.571    0.000    8.000    0.000    0.000 
#
# Total GULP energy -311894.280654 kJ/mol
# GULP energy per Si atom -5569.540726 kJ/mol
# Density = 1.852353 g / cm^3
# Si number density = 18.565790 Si / 1000 Ang^3
#
#
#
# Elastic Constant Matrix: (Units=GPa)
#
#
# Indices 1 2 3 4 5 6 
#
# 1 130.6326 75.8838 11.8437 0.0000 0.0000 0.0000
# 2 75.8838 130.6333 11.8423 0.0000 0.0000 0.0000
# 3 11.8437 11.8423 38.9663 0.0000 0.0000 0.0000
# 4 0.0000 0.0000 0.0000 13.6976 0.0000 0.0000
# 5 0.0000 0.0000 0.0000 0.0000 13.6975 0.0000
# 6 0.0000 0.0000 0.0000 0.0000 0.0000 -176.3902
#
#
#
# Elastic Compliance Matrix: (Units=1/GPa)
#
#
# Indices 1 2 3 4 5 6 
#
# 1 0.011641 -0.006624 -0.001525 0.000000 0.000000 0.000000
# 2 -0.006624 0.011641 -0.001524 0.000000 0.000000 0.000000
# 3 -0.001525 -0.001524 0.026590 0.000000 0.000000 0.000000
# 4 0.000000 0.000000 0.000000 0.073006 0.000000 0.000000
# 5 0.000000 0.000000 0.000000 0.000000 0.073006 0.000000
# 6 0.000000 0.000000 0.000000 0.000000 0.000000 -0.005669
#
#
# Mechanical properties :
#
#
# Convention : Reuss Voigt Hill
#
# Bulk Modulus (GPa) = 32.76011 55.48576 44.12294
# Shear Modulus (GPa) = 22.75445 -16.42153 3.16646
#
# Velocity S-wave (km/s) = 3.50467 -2.97729 1.30738
# Velocity P-wave (km/s) = 5.83615 4.25816 5.10845
#
# Compressibility (1/GPa) = 0.03052492
#
# Stress axis : x y z
#
# Youngs Moduli (GPa) = 85.90184 85.90288 37.60800
#
# Poissons Ratio (x) = 0.56902 0.05736
# Poissons Ratio (y) = 0.56901 0.05733
# Poissons Ratio (z) = 0.13102 0.13096
#
# Static dielectric constant tensor:
#      x y z
#    x 1.689500 0.000000 0.000000 
#    y 0.000000 1.689510 0.000000 
#    z 0.000000 0.000000 2.735470 
# 
# From -- ./inp_files/1977.got.cif
#   From: 2010.05.17/outbox.cif.g08.bks.cpg/sg111_1_cif.got.tgz:1977.got - 2010.05.20 10:56:05.
