data_PCOD9554921
_publ_section_title
;
Structure prediction by ZEFSAII (Michael W. Deem and Ramdas Pophale) SiO2 
 PCOD9554921
Probable space group: P -4 2 C
;
_chemical_formula_sum "Si O2"
_cell_formula_units_Z 40
_cell_length_a 16.733590
_cell_length_b 16.733590
_cell_length_c 5.546595
_cell_angle_alpha 90.000000
_cell_angle_beta 90.000000
_cell_angle_gamma 90.000000
_cell_volume 1553.118896
_symmetry_space_group_name_H-M "P -4 2 C"
_symmetry_group_IT_number 112
_symmetry_cell_setting 'tetragonal'
loop_
_space_group_symop_operation_xyz
x,y,z
y,-x,-z
-x,-y,z
-y,x,-z
x,-y,1/2-z
-x,y,1/2-z
-y,-x,1/2+z
y,x,1/2+z
loop_
_atom_site_type_symbol
_atom_site_label
_atom_site_fract_x
_atom_site_fract_y
_atom_site_fract_z
Si Si1 0.594775 0.969292 0.500881
Si Si2 0.830088 0.904748 0.215467
Si Si3 0.545437 0.800592 0.505365
Si Si4 0.223793 0.283117 0.592282
Si Si5 0.616777 0.627754 0.598939
O O1 0.604326 0.874450 0.488921
O O2 0.500000 0.000000 0.503431
O O3 0.626003 0.000000 0.250000
O O4 0.630422 0.000000 0.750000
O O5 0.872438 0.874013 0.467550
O O6 0.741920 0.865705 0.166322
O O7 0.828089 0.000000 0.250000
O O8 0.500000 0.823265 0.750000
O O9 0.581097 0.715405 0.564371
O O10 0.500000 0.801964 0.250000
O O11 0.231555 0.264703 0.308538
O O12 0.285335 0.359851 0.604348
O O13 0.595764 0.586466 0.350562
#
# Coordination Sequence:
#
# PCOD9554921 Si02
#       5
#     8   8   8   8   8
#     4  10  16  30  49  78 119 150 183 235 300 350
#     4  10  19  30  47  72  93 120 173 237 298 346
#     4  12  21  33  58  90 116 155 203 246 293 359
#     4   8  16  32  52  68  93 138 176 216 280 341
#     4  10  21  38  57  79 115 158 195 233 295 339
#
# _framework density 25.754626999999999
#
# number of rings (size 3 to 8) (size 9 to 14) (size 15 to 20)
#    0.000    2.000    4.000    1.800    0.000    1.200 
#    0.000    0.000    0.000   32.400    0.000    0.000 
#    0.000   28.000    0.000    0.000    0.000    0.000 
#
# Total GULP energy -222699.785972 kJ/mol
# GULP energy per Si atom -5567.494649 kJ/mol
# Density = 2.569601 g / cm^3
# Si number density = 25.754627 Si / 1000 Ang^3
#
#
#
# Elastic Constant Matrix: (Units=GPa)
#
#
# Indices 1 2 3 4 5 6 
#
# 1 60.3509 5.2537 54.1576 0.0000 0.0000 0.0000
# 2 5.2537 60.3509 54.1576 0.0000 0.0000 0.0000
# 3 54.1576 54.1576 309.9724 0.0000 0.0000 0.0000
# 4 0.0000 0.0000 0.0000 25.9449 0.0000 0.0000
# 5 0.0000 0.0000 0.0000 0.0000 25.9449 0.0000
# 6 0.0000 0.0000 0.0000 0.0000 0.0000 27.1661
#
#
#
# Elastic Compliance Matrix: (Units=1/GPa)
#
#
# Indices 1 2 3 4 5 6 
#
# 1 0.019786 0.001636 -0.003743 0.000000 0.000000 0.000000
# 2 0.001636 0.019786 -0.003743 0.000000 0.000000 0.000000
# 3 -0.003743 -0.003743 0.004534 0.000000 0.000000 0.000000
# 4 0.000000 0.000000 0.000000 0.038543 0.000000 0.000000
# 5 0.000000 0.000000 0.000000 0.000000 0.038543 0.000000
# 6 0.000000 0.000000 0.000000 0.000000 0.000000 0.036811
#
#
# Mechanical properties :
#
#
# Convention : Reuss Voigt Hill
#
# Bulk Modulus (GPa) = 30.85717 73.09022 51.97369
# Shear Modulus (GPa) = 27.70013 36.95152 32.32583
#
# Velocity S-wave (km/s) = 3.28310 3.79192 3.54665
# Velocity P-wave (km/s) = 5.13604 6.90019 6.08241
#
# Compressibility (1/GPa) = 0.03240738
#
# Stress axis : x y z
#
# Youngs Moduli (GPa) = 50.54053 50.54053 220.55641
#
# Poissons Ratio (x) = -0.08270 0.82552
# Poissons Ratio (y) = -0.08270 0.82552
# Poissons Ratio (z) = 0.18917 0.18917
#
# Static dielectric constant tensor:
#      x y z
#    x 2.086470 0.000000 0.000000 
#    y 0.000000 2.086470 0.000000 
#    z 0.000000 0.000000 1.951050 
# 
# From -- ./inp_files/251.got.cif
#   From: 2010.05.17/outbox.cif.g08.bks.cpg/sg112_1_cif.got.tgz:251.got - 2010.05.20 10:59:04.
