data_PCOD9554488
_publ_section_title
;
Structure prediction by ZEFSAII (Michael W. Deem and Ramdas Pophale) SiO2 
 PCOD9554488
Probable space group: I 41 C D
;
_chemical_formula_sum "Si O2"
_cell_formula_units_Z 88
_cell_length_a 14.099042
_cell_length_b 14.099042
_cell_length_c 20.996435
_cell_angle_alpha 90.000000
_cell_angle_beta 90.000000
_cell_angle_gamma 90.000000
_cell_volume 4173.734030
_symmetry_space_group_name_H-M "I 41 C D"
_symmetry_group_IT_number 110
_symmetry_cell_setting 'tetragonal'
loop_
_space_group_symop_operation_xyz
x,y,z
-y,1/2+x,1/4+z
-x,-y,z
y,1/2-x,1/4+z
-x,y,1/2+z
x,-y,1/2+z
1/2-y,-x,1/4+z
1/2+y,x,1/4+z
1/2+x,1/2+y,1/2+z
1/2-y,x,3/4+z
1/2-x,1/2-y,1/2+z
1/2+y,-x,3/4+z
1/2-x,1/2+y,z
1/2+x,1/2-y,z
-y,1/2-x,3/4+z
y,1/2+x,3/4+z
loop_
_atom_site_type_symbol
_atom_site_label
_atom_site_fract_x
_atom_site_fract_y
_atom_site_fract_z
Si Si1 0.002184 0.265334 0.181990
Si Si2 0.880434 0.177418 0.448540
Si Si3 0.000000 0.000000 0.774789
Si Si4 0.083140 0.611116 0.413310
Si Si5 0.177265 0.932872 0.565078
Si Si6 0.925315 0.863239 0.381872
O O1 0.968604 0.164166 0.156715
O O2 0.005924 0.271284 0.258937
O O3 0.926188 0.342026 0.159454
O O4 0.106902 0.304451 0.164896
O O5 0.871253 0.285274 0.425721
O O6 0.985841 0.145311 0.429107
O O7 0.868993 0.150942 0.523290
O O8 0.034815 0.916880 0.820191
O O9 0.915382 0.971041 0.728037
O O10 0.007483 0.616528 0.356077
O O11 0.258201 0.894619 0.611855
#
# Coordination Sequence:
#
# PCOD9554488 Si02
#       6
#    16  16   8  16  16  16
#     4  10  21  42  68  92 133 180 228 277 344 424
#     4   9  21  45  66  91 136 182 219 286 351 411
#     4  12  20  42  64  92 134 168 224 282 326 404
#     4  11  24  41  68 104 136 176 231 294 337 413
#     4   9  22  44  62  98 135 169 239 269 342 427
#     4  11  20  43  69  90 130 190 214 273 360 409
#
# _framework density 21.084237000000002
#
# number of rings (size 3 to 8) (size 9 to 14) (size 15 to 20)
#    1.091    0.727    3.636    0.000    0.000    2.909 
#   22.909    0.000    0.000    0.000    0.000    0.000 
#    0.000    0.000    0.000    0.000    0.000    0.000 
#
# Total GULP energy -245389.532126 kJ/mol
# GULP energy per Si atom -5577.034821 kJ/mol
# Density = 2.103625 g / cm^3
# Si number density = 21.084237 Si / 1000 Ang^3
#
#
#
# Elastic Constant Matrix: (Units=GPa)
#
#
# Indices 1 2 3 4 5 6 
#
# 1 64.0644 46.2214 21.7594 0.0000 0.0000 0.0000
# 2 46.2214 64.0644 21.7594 0.0000 0.0000 0.0000
# 3 21.7594 21.7594 31.6349 0.0000 0.0000 0.0000
# 4 0.0000 0.0000 0.0000 -2.8025 0.0000 0.0000
# 5 0.0000 0.0000 0.0000 0.0000 -2.8025 0.0000
# 6 0.0000 0.0000 0.0000 0.0000 0.0000 33.3611
#
#
#
# Elastic Compliance Matrix: (Units=1/GPa)
#
#
# Indices 1 2 3 4 5 6 
#
# 1 0.034245 -0.021800 -0.008560 0.000000 0.000000 0.000000
# 2 -0.021800 0.034245 -0.008560 0.000000 0.000000 0.000000
# 3 -0.008560 -0.008560 0.043387 0.000000 0.000000 0.000000
# 4 0.000000 0.000000 0.000000 -0.356827 0.000000 0.000000
# 5 0.000000 0.000000 0.000000 0.000000 -0.356827 0.000000
# 6 0.000000 0.000000 0.000000 0.000000 0.000000 0.029975
#
#
# Mechanical properties :
#
#
# Convention : Reuss Voigt Hill
#
# Bulk Modulus (GPa) = 29.38043 37.69378 33.53710
# Shear Modulus (GPa) = -10.36017 10.21947 -0.07035
#
# Velocity S-wave (km/s) = -2.21909 2.20397 -0.18286
# Velocity P-wave (km/s) = 2.72015 4.93895 3.98700
#
# Compressibility (1/GPa) = 0.03403627
#
# Stress axis : x y z
#
# Youngs Moduli (GPa) = 29.20159 29.20159 23.04862
#
# Poissons Ratio (x) = 0.63658 0.19730
# Poissons Ratio (y) = 0.63658 0.19730
# Poissons Ratio (z) = 0.24997 0.24997
#
# Static dielectric constant tensor:
#      x y z
#    x 1.773180 0.000000 0.000000 
#    y 0.000000 1.773180 0.000000 
#    z 0.000000 0.000000 1.743390 
# 
# From -- ./inp_files/2161.got.cif
#   From: 2010.05.17/outbox.cif.g08.bks.cpg/sg110_2_cif.got.tgz:2161.got - 2010.05.20 10:54:03.
