data_PCOD9554492
_publ_section_title
;
Structure prediction by ZEFSAII (Michael W. Deem and Ramdas Pophale) SiO2 
 PCOD9554492
Probable space group: I 41 C D
;
_chemical_formula_sum "Si O2"
_cell_formula_units_Z 64
_cell_length_a 16.135315
_cell_length_b 16.135315
_cell_length_c 8.818715
_cell_angle_alpha 90.000000
_cell_angle_beta 90.000000
_cell_angle_gamma 90.000000
_cell_volume 2295.938253
_symmetry_space_group_name_H-M "I 41 C D"
_symmetry_group_IT_number 110
_symmetry_cell_setting 'tetragonal'
loop_
_space_group_symop_operation_xyz
x,y,z
-y,1/2+x,1/4+z
-x,-y,z
y,1/2-x,1/4+z
-x,y,1/2+z
x,-y,1/2+z
1/2-y,-x,1/4+z
1/2+y,x,1/4+z
1/2+x,1/2+y,1/2+z
1/2-y,x,3/4+z
1/2-x,1/2-y,1/2+z
1/2+y,-x,3/4+z
1/2-x,1/2+y,z
1/2+x,1/2-y,z
-y,1/2-x,3/4+z
y,1/2+x,3/4+z
loop_
_atom_site_type_symbol
_atom_site_label
_atom_site_fract_x
_atom_site_fract_y
_atom_site_fract_z
Si Si1 0.876147 0.649436 0.062770
Si Si2 0.704637 0.807939 0.185451
Si Si3 0.868468 0.022936 0.584401
Si Si4 0.103768 0.544246 0.114034
O O1 0.916289 0.682502 0.221507
O O2 0.782867 0.673929 0.006825
O O3 0.871765 0.550570 0.092884
O O4 0.947635 0.669542 0.936508
O O5 0.792906 0.810401 0.260124
O O6 0.671454 0.900745 0.202184
O O7 0.924487 0.076421 0.697545
O O8 0.924385 0.973566 0.464206
#
# Coordination Sequence:
#
# PCOD9554492 Si02
#       4
#    16  16  16  16
#     4  11  22  46  76 108 138 190 248 296 356 437
#     4  12  30  51  64 106 155 190 240 307 377 439
#     4  10  21  43  79 111 138 182 253 302 339 439
#     4  11  22  44  75 107 141 188 239 298 358 428
#
# _framework density 27.875313999999999
#
# number of rings (size 3 to 8) (size 9 to 14) (size 15 to 20)
#    0.000    1.000    2.500    6.000    3.500    2.000 
#    4.500    0.000    0.000    0.000    0.000    0.000 
#    0.000    0.000    0.000    0.000    0.000    0.000 
#
# Total GULP energy -178384.363225 kJ/mol
# GULP energy per Si atom -5574.511351 kJ/mol
# Density = 2.781187 g / cm^3
# Si number density = 27.875314 Si / 1000 Ang^3
#
#
#
# Elastic Constant Matrix: (Units=GPa)
#
#
# Indices 1 2 3 4 5 6 
#
# 1 115.7831 64.7788 15.7281 0.0000 0.0000 0.0000
# 2 64.7788 115.7831 15.7281 0.0000 0.0000 0.0000
# 3 15.7281 15.7281 156.5366 0.0000 0.0000 0.0000
# 4 0.0000 0.0000 0.0000 37.1049 0.0000 0.0000
# 5 0.0000 0.0000 0.0000 0.0000 37.1049 0.0000
# 6 0.0000 0.0000 0.0000 0.0000 0.0000 28.0563
#
#
#
# Elastic Compliance Matrix: (Units=1/GPa)
#
#
# Indices 1 2 3 4 5 6 
#
# 1 0.012622 -0.006985 -0.000566 0.000000 0.000000 0.000000
# 2 -0.006985 0.012622 -0.000566 0.000000 0.000000 0.000000
# 3 -0.000566 -0.000566 0.006502 0.000000 0.000000 0.000000
# 4 0.000000 0.000000 0.000000 0.026951 0.000000 0.000000
# 5 0.000000 0.000000 0.000000 0.000000 0.026951 0.000000
# 6 0.000000 0.000000 0.000000 0.000000 0.000000 0.035643
#
#
# Mechanical properties :
#
#
# Convention : Reuss Voigt Hill
#
# Bulk Modulus (GPa) = 64.47256 64.50807 64.49031
# Shear Modulus (GPa) = 35.04004 39.91109 37.47556
#
# Velocity S-wave (km/s) = 3.54930 3.78798 3.67058
# Velocity P-wave (km/s) = 6.32265 6.50566 6.41481
#
# Compressibility (1/GPa) = 0.01551048
#
# Stress axis : x y z
#
# Youngs Moduli (GPa) = 79.22954 79.22954 153.79659
#
# Poissons Ratio (x) = 0.55339 0.08711
# Poissons Ratio (y) = 0.55339 0.08711
# Poissons Ratio (z) = 0.04487 0.04487
#
# Static dielectric constant tensor:
#      x y z
#    x 2.301390 0.000000 0.000000 
#    y 0.000000 2.301390 0.000000 
#    z 0.000000 0.000000 2.294250 
# 
# From -- ./inp_files/325.got.cif
#   From: 2010.05.17/outbox.cif.g08.bks.cpg/sg110_1_cif.got.tgz:325.got - 2010.05.20 10:54:03.
