data_PCOD9554041
_publ_section_title
;
Structure prediction by ZEFSAII (Michael W. Deem and Ramdas Pophale) SiO2 
 PCOD9554041
Probable space group: I 4 C M
;
_chemical_formula_sum "Si O2"
_cell_formula_units_Z 48
_cell_length_a 21.583741
_cell_length_b 21.583741
_cell_length_c 5.420514
_cell_angle_alpha 90.000000
_cell_angle_beta 90.000000
_cell_angle_gamma 90.000000
_cell_volume 2525.189136
_symmetry_space_group_name_H-M "I 4 C M"
_symmetry_group_IT_number 108
_symmetry_cell_setting 'tetragonal'
loop_
_space_group_symop_operation_xyz
x,y,z
-y,x,z
-x,-y,z
y,-x,z
-x,y,1/2+z
x,-y,1/2+z
-y,-x,1/2+z
y,x,1/2+z
1/2+x,1/2+y,1/2+z
1/2-y,1/2+x,1/2+z
1/2-x,1/2-y,1/2+z
1/2+y,1/2-x,1/2+z
1/2-x,1/2+y,z
1/2+x,1/2-y,z
1/2-y,1/2-x,z
1/2+y,1/2+x,z
loop_
_atom_site_type_symbol
_atom_site_label
_atom_site_fract_x
_atom_site_fract_y
_atom_site_fract_z
Si Si1 0.146355 0.646355 0.984640
Si Si2 0.294190 0.794190 0.984640
Si Si3 0.461389 0.774114 0.484640
Si Si4 0.646128 0.673151 0.984641
O O1 0.176044 0.676044 0.732270
O O2 0.160464 0.573686 0.984640
O O3 0.176044 0.676044 0.237011
O O4 0.307899 0.720053 0.984641
O O5 0.500000 0.765329 0.734640
O O6 0.402368 0.728445 0.484640
O O7 0.636437 0.636437 0.234641
#
# Coordination Sequence:
#
# PCOD9554041 Si02
#       4
#     8   8  16  16
#     4  12  23  40  64  87 125 164 197 251 310 368
#     4  12  19  36  64  98 109 152 191 246 330 400
#     4  12  25  39  56  89 129 162 202 248 301 360
#     4  12  20  35  58  90 123 155 186 234 318 383
#
# _framework density 19.008475000000001
#
# number of rings (size 3 to 8) (size 9 to 14) (size 15 to 20)
#    0.000    0.000    6.667    6.000    0.000    0.000 
#    0.000    0.000    0.000    3.000    0.000    0.000 
#    0.000   46.667    0.000    0.000    0.000    0.000 
#
# Total GULP energy -133954.398197 kJ/mol
# GULP energy per Si atom -5581.433258 kJ/mol
# Density = 1.896521 g / cm^3
# Si number density = 19.008475 Si / 1000 Ang^3
#
#
#
# Elastic Constant Matrix: (Units=GPa)
#
#
# Indices 1 2 3 4 5 6 
#
# 1 96.8713 -14.4814 42.0928 0.0000 0.0000 0.0000
# 2 -14.4814 96.8713 42.0928 0.0000 0.0000 0.0000
# 3 42.0928 42.0928 226.0139 0.0000 0.0000 0.0000
# 4 0.0000 0.0000 0.0000 -6.0715 0.0000 0.0000
# 5 0.0000 0.0000 0.0000 0.0000 -6.0715 0.0000
# 6 0.0000 0.0000 0.0000 0.0000 0.0000 18.1076
#
#
#
# Elastic Compliance Matrix: (Units=1/GPa)
#
#
# Indices 1 2 3 4 5 6 
#
# 1 0.011985 0.003005 -0.002792 0.000000 0.000000 0.000000
# 2 0.003005 0.011985 -0.002792 0.000000 0.000000 0.000000
# 3 -0.002792 -0.002792 0.005464 0.000000 0.000000 0.000000
# 4 0.000000 0.000000 0.000000 -0.164704 0.000000 0.000000
# 5 0.000000 0.000000 0.000000 0.000000 -0.164704 0.000000
# 6 0.000000 0.000000 0.000000 0.000000 0.000000 0.055225
#
#
# Mechanical properties :
#
#
# Convention : Reuss Voigt Hill
#
# Bulk Modulus (GPa) = 41.19055 62.12943 51.65999
# Shear Modulus (GPa) = -21.59847 24.52975 1.46564
#
# Velocity S-wave (km/s) = -3.37449 3.59620 0.87905
# Velocity P-wave (km/s) = 2.55610 7.07104 5.31664
#
# Compressibility (1/GPa) = 0.02427742
#
# Stress axis : x y z
#
# Youngs Moduli (GPa) = 83.43604 83.43604 183.00373
#
# Poissons Ratio (x) = -0.25071 0.51090
# Poissons Ratio (y) = -0.25071 0.51090
# Poissons Ratio (z) = 0.23293 0.23293
#
# Static dielectric constant tensor:
#      x y z
#    x 1.676600 0.000000 0.000000 
#    y 0.000000 1.676600 0.000000 
#    z 0.000000 0.000000 1.789040 
# 
# From -- ./inp_files/103.got.cif
#   From: 2010.05.17/outbox.cif.g08.bks.cpg/sg108_1_cif.got.tgz:103.got - 2010.05.20 10:49:05.
