data_PCOD9554840
_publ_section_title
;
Structure prediction by ZEFSAII (Michael W. Deem and Ramdas Pophale) SiO2 
 PCOD9554840
Probable space group: P -4 2 M 
;
_chemical_formula_sum "Si O2"
_cell_formula_units_Z 32
_cell_length_a 13.866591
_cell_length_b 13.866591
_cell_length_c 7.498568
_cell_angle_alpha 90.000000
_cell_angle_beta 90.000000
_cell_angle_gamma 90.000000
_cell_volume 1441.842246
_symmetry_space_group_name_H-M "P -4 2 M "
_symmetry_group_IT_number 111
_symmetry_cell_setting 'tetragonal'
loop_
_space_group_symop_operation_xyz
x,y,z
y,-x,-z
-x,-y,z
-y,x,-z
x,-y,-z
-x,y,-z
-y,-x,z
y,x,z
loop_
_atom_site_type_symbol
_atom_site_label
_atom_site_fract_x
_atom_site_fract_y
_atom_site_fract_z
Si Si1 0.800447 0.051130 0.683519
Si Si2 0.130874 0.703993 0.155823
Si Si3 0.408572 0.243726 0.119913
Si Si4 0.198899 0.354888 0.483170
O O1 0.887234 0.112767 0.766140
O O2 0.720947 0.127109 0.614564
O O3 0.834247 0.000000 0.500000
O O4 0.753462 0.971094 0.808259
O O5 0.210341 0.789660 0.163494
O O6 0.153849 0.643190 0.979973
O O7 0.150292 0.633823 0.325136
O O8 0.330328 0.330328 0.118636
O O9 0.430638 0.219900 0.326576
O O10 0.500000 0.269698 0.000000
O O11 0.299393 0.299393 0.517467
#
# Coordination Sequence:
#
# PCOD9554840 Si02
#       4
#     8   8   8   8
#     4   9  16  28  50  79 109 143 183 220 250 290
#     4   9  18  32  51  76 107 144 179 211 261 320
#     4  10  21  37  57  78 101 134 176 224 280 336
#     4   8  16  32  51  73 106 141 170 211 265 317
#
# _framework density 22.193828
#
# number of rings (size 3 to 8) (size 9 to 14) (size 15 to 20)
#    0.000    3.000    0.000    2.250    0.000    4.000 
#    0.000    2.500    0.000   10.500    0.000   42.000 
#    0.000    0.000    0.000    0.000    0.000    0.000 
#
# Total GULP energy -178509.798268 kJ/mol
# GULP energy per Si atom -5578.431196 kJ/mol
# Density = 2.214331 g / cm^3
# Si number density = 22.193828 Si / 1000 Ang^3
#
#
#
# Elastic Constant Matrix: (Units=GPa)
#
#
# Indices 1 2 3 4 5 6 
#
# 1 63.2586 -1.7612 2.4056 0.0000 0.0000 0.0000
# 2 -1.7612 63.2583 2.4049 0.0000 0.0000 0.0000
# 3 2.4056 2.4049 137.8574 0.0000 0.0000 0.0000
# 4 0.0000 0.0000 0.0000 23.4052 0.0000 0.0000
# 5 0.0000 0.0000 0.0000 0.0000 23.4055 0.0000
# 6 0.0000 0.0000 0.0000 0.0000 0.0000 15.7659
#
#
#
# Elastic Compliance Matrix: (Units=1/GPa)
#
#
# Indices 1 2 3 4 5 6 
#
# 1 0.015832 0.000452 -0.000284 0.000000 0.000000 0.000000
# 2 0.000452 0.015832 -0.000284 0.000000 0.000000 0.000000
# 3 -0.000284 -0.000284 0.007264 0.000000 0.000000 0.000000
# 4 0.000000 0.000000 0.000000 0.042726 0.000000 0.000000
# 5 0.000000 0.000000 0.000000 0.000000 0.042725 0.000000
# 6 0.000000 0.000000 0.000000 0.000000 0.000000 0.063428
#
#
# Mechanical properties :
#
#
# Convention : Reuss Voigt Hill
#
# Bulk Modulus (GPa) = 25.84404 30.05254 27.94829
# Shear Modulus (GPa) = 24.88344 29.93697 27.41021
#
# Velocity S-wave (km/s) = 3.35205 3.67670 3.51812
# Velocity P-wave (km/s) = 5.16252 5.62090 5.39658
#
# Compressibility (1/GPa) = 0.03869364
#
# Stress axis : x y z
#
# Youngs Moduli (GPa) = 63.16515 63.16490 137.66928
#
# Poissons Ratio (x) = -0.02852 0.03912
# Poissons Ratio (y) = -0.02852 0.03911
# Poissons Ratio (z) = 0.01795 0.01794
#
# Static dielectric constant tensor:
#      x y z
#    x 1.826720 0.000000 0.000000 
#    y 0.000000 1.826720 0.000000 
#    z 0.000000 0.000000 1.881590 
# 
# From -- ./inp_files/1254.got.cif
#   From: 2010.05.17/outbox.cif.g08.bks.cpg/sg111_1_cif.got.tgz:1254.got - 2010.05.20 10:56:05.
