data_PCOD9554327
_publ_section_title
;
Structure prediction by ZEFSAII (Michael W. Deem and Ramdas Pophale) SiO2 
 PCOD9554327
Probable space group: I 41 M D
;
_chemical_formula_sum "Si O2"
_cell_formula_units_Z 64
_cell_length_a 24.000000
_cell_length_b 24.000000
_cell_length_c 12.000000
_cell_angle_alpha 90.000000
_cell_angle_beta 90.000000
_cell_angle_gamma 90.000000
_cell_volume 6912.000000
_symmetry_space_group_name_H-M "I 41 M D"
_symmetry_group_IT_number 109
_symmetry_cell_setting 'tetragonal'
loop_
_space_group_symop_operation_xyz
x,y,z
-y,1/2+x,1/4+z
-x,-y,z
y,1/2-x,1/4+z
-x,y,z
x,-y,z
-y,1/2-x,1/4+z
y,1/2+x,1/4+z
1/2+x,1/2+y,1/2+z
1/2-y,x,3/4+z
1/2-x,1/2-y,1/2+z
1/2+y,-x,3/4+z
1/2-x,1/2+y,1/2+z
1/2+x,1/2-y,1/2+z
1/2-y,-x,3/4+z
1/2+y,x,3/4+z
loop_
_atom_site_type_symbol
_atom_site_label
_atom_site_fract_x
_atom_site_fract_y
_atom_site_fract_z
Si Si1 0.649728 0.350272 0.981760
Si Si2 0.138626 0.766178 0.854793
Si Si3 0.432462 0.436764 0.360779
Si Si4 0.841617 0.250000 0.106760
Si Si5 0.567255 0.658986 0.188820
Si Si6 0.638626 0.766178 0.858727
Si Si7 0.432745 0.158986 0.024700
Si Si8 0.067538 0.563236 0.352741
O O1 0.649406 0.295276 0.905772
O O2 0.654182 0.401890 0.894168
O O3 0.704724 0.350594 0.057749
O O4 0.598110 0.345818 0.069352
O O5 0.195153 0.802815 0.842958
O O6 0.092944 0.794131 0.772130
O O7 0.126586 0.760394 0.988449
O O8 0.500000 0.438766 0.370166
O O9 0.412318 0.500000 0.345402
O O10 0.419699 0.397526 0.257865
O O11 0.413660 0.413660 0.481760
O O12 0.802815 0.195153 0.120562
O O13 0.873414 0.260394 0.225071
O O14 0.500000 0.665167 0.177595
O O15 0.592944 0.794131 0.941390
O O16 0.500000 0.165167 0.035925
O O17 0.419699 0.102474 0.955655
O O18 0.087682 0.500000 0.368118
O O19 0.000000 0.561234 0.343354
#
# Coordination Sequence:
#
# PCOD9554327 Si02
#       8
#    16  16  16  16  16  16  16  16
#     4  12  24  40  60  85 122 172 218 250 314 393
#     4  11  22  40  64  93 123 160 216 272 320 386
#     4   8  16  34  59  84 112 154 206 255 304 364
#     4  10  22  38  69  96 117 154 218 276 324 376
#     4  11  25  40  61  93 133 172 211 269 334 392
#     4  11  22  40  64  93 123 160 216 272 320 386
#     4  11  25  40  61  93 133 172 211 269 334 392
#     4   8  16  34  59  84 112 154 206 255 304 364
#
# _framework density 9.2592590000000001
#
# number of rings (size 3 to 8) (size 9 to 14) (size 15 to 20)
#    0.000    1.750    2.500    3.000    3.500    3.000 
#    0.000    0.625    0.000    0.000    0.000    0.000 
#    0.000    0.000    0.000    0.000    0.000    0.000 
#
# Total GULP energy -357015.042878 kJ/mol
# GULP energy per Si atom -5578.360045 kJ/mol
# Density = 0.923818 g / cm^3
# Si number density = 9.259259 Si / 1000 Ang^3
#
#
#
# Elastic Constant Matrix: (Units=GPa)
#
#
# Indices 1 2 3 4 5 6 
#
# 1 80.7844 27.2991 47.3582 0.0000 0.0000 0.0000
# 2 27.2991 80.7844 47.3582 0.0000 0.0000 0.0000
# 3 47.3582 47.3582 170.2152 0.0000 0.0000 0.0000
# 4 0.0000 0.0000 0.0000 30.0661 0.0000 0.0000
# 5 0.0000 0.0000 0.0000 0.0000 30.0661 0.0000
# 6 0.0000 0.0000 0.0000 0.0000 0.0000 24.9841
#
#
#
# Elastic Compliance Matrix: (Units=1/GPa)
#
#
# Indices 1 2 3 4 5 6 
#
# 1 0.015466 -0.003231 -0.003404 0.000000 0.000000 0.000000
# 2 -0.003231 0.015466 -0.003404 0.000000 0.000000 0.000000
# 3 -0.003404 -0.003404 0.007769 0.000000 0.000000 0.000000
# 4 0.000000 0.000000 0.000000 0.033260 0.000000 0.000000
# 5 0.000000 0.000000 0.000000 0.000000 0.033260 0.000000
# 6 0.000000 0.000000 0.000000 0.000000 0.000000 0.040025
#
#
# Mechanical properties :
#
#
# Convention : Reuss Voigt Hill
#
# Bulk Modulus (GPa) = 53.69692 63.97944 58.83818
# Shear Modulus (GPa) = 29.14899 31.00782 30.07841
#
# Velocity S-wave (km/s) = 3.97173 4.09641 4.03455
# Velocity P-wave (km/s) = 7.07758 7.54970 7.31745
#
# Compressibility (1/GPa) = 0.01862304
#
# Stress axis : x y z
#
# Youngs Moduli (GPa) = 64.65800 64.65800 128.71396
#
# Poissons Ratio (x) = 0.20889 0.43816
# Poissons Ratio (y) = 0.20889 0.43816
# Poissons Ratio (z) = 0.22011 0.22011
#
# Static dielectric constant tensor:
#      x y z
#    x 1.650140 0.000000 0.000000 
#    y 0.000000 1.650140 0.000000 
#    z 0.000000 0.000000 1.661010 
# 
# From -- ./inp_files/2198.got.cif
#   From: 2010.05.17/outbox.ucp.g08.bks.cvg/sg109_2_cif.got.tgz:2198.got - 2010.06.11 11:32:33.
