data_PCOD9554535
_publ_section_title
;
Structure prediction by ZEFSAII (Michael W. Deem and Ramdas Pophale) SiO2 
 PCOD9554535
Probable space group: I 41 C D
;
_chemical_formula_sum "Si O2"
_cell_formula_units_Z 120
_cell_length_a 17.592757
_cell_length_b 17.592757
_cell_length_c 15.205029
_cell_angle_alpha 90.000000
_cell_angle_beta 90.000000
_cell_angle_gamma 90.000000
_cell_volume 4706.034004
_symmetry_space_group_name_H-M "I 41 C D"
_symmetry_group_IT_number 110
_symmetry_cell_setting 'tetragonal'
loop_
_space_group_symop_operation_xyz
x,y,z
-y,1/2+x,1/4+z
-x,-y,z
y,1/2-x,1/4+z
-x,y,1/2+z
x,-y,1/2+z
1/2-y,-x,1/4+z
1/2+y,x,1/4+z
1/2+x,1/2+y,1/2+z
1/2-y,x,3/4+z
1/2-x,1/2-y,1/2+z
1/2+y,-x,3/4+z
1/2-x,1/2+y,z
1/2+x,1/2-y,z
-y,1/2-x,3/4+z
y,1/2+x,3/4+z
loop_
_atom_site_type_symbol
_atom_site_label
_atom_site_fract_x
_atom_site_fract_y
_atom_site_fract_z
Si Si1 0.761885 0.083485 0.876380
Si Si2 0.503030 0.377508 0.667253
Si Si3 0.650642 0.611883 0.566362
Si Si4 0.145942 0.056396 0.606449
Si Si5 0.000000 0.500000 0.066608
Si Si6 0.277153 0.168427 0.193591
Si Si7 0.165670 0.786687 0.398145
Si Si8 0.942919 0.652479 0.064083
O O1 0.692359 0.059443 0.939213
O O2 0.740579 0.130937 0.787742
O O3 0.826241 0.133221 0.923582
O O4 0.784839 0.000790 0.844893
O O5 0.419996 0.366286 0.628224
O O6 0.558856 0.415191 0.593562
O O7 0.486491 0.428068 0.752469
O O8 0.654740 0.521137 0.553157
O O9 0.729370 0.627931 0.617387
O O10 0.638684 0.663872 0.481472
O O11 0.219237 0.112592 0.610407
O O12 0.140813 0.038473 0.711452
O O13 0.028730 0.424247 0.113038
O O14 0.249384 0.255451 0.182050
O O15 0.174597 0.855706 0.328798
#
# Coordination Sequence:
#
# PCOD9554535 Si02
#       8
#    16  16  16  16   8  16  16  16
#     4  12  25  43  72 104 141 192 241 301 363 446
#     4  11  21  44  74  97 140 190 232 291 368 440
#     4  12  24  46  74 105 144 193 241 299 373 448
#     4  11  23  47  73 103 142 192 240 299 372 445
#     4  10  22  48  72  94 142 186 230 296 368 442
#     4  12  25  45  70 105 145 187 248 301 371 440
#     4  12  26  45  72 107 148 189 245 316 364 447
#     4  11  25  47  70 103 141 188 242 297 372 438
#
# _framework density 25.499179000000002
#
# number of rings (size 3 to 8) (size 9 to 14) (size 15 to 20)
#    0.000    0.533    6.667    2.400    0.000    2.133 
#   12.000    0.000    0.000    0.000    0.000    0.000 
#    0.000    0.000    0.000    0.000    0.000    0.000 
#
# Total GULP energy -335343.562134 kJ/mol
# GULP energy per Si atom -5589.059369 kJ/mol
# Density = 2.544114 g / cm^3
# Si number density = 25.499179 Si / 1000 Ang^3
#
#
#
# Elastic Constant Matrix: (Units=GPa)
#
#
# Indices 1 2 3 4 5 6 
#
# 1 115.6040 32.5905 -3.3188 0.0000 0.0000 0.0000
# 2 32.5905 115.6040 -3.3188 0.0000 0.0000 0.0000
# 3 -3.3188 -3.3188 64.9817 0.0000 0.0000 0.0000
# 4 0.0000 0.0000 0.0000 25.1247 0.0000 0.0000
# 5 0.0000 0.0000 0.0000 0.0000 25.1247 0.0000
# 6 0.0000 0.0000 0.0000 0.0000 0.0000 53.5295
#
#
#
# Elastic Compliance Matrix: (Units=1/GPa)
#
#
# Indices 1 2 3 4 5 6 
#
# 1 0.009405 -0.002641 0.000345 0.000000 0.000000 0.000000
# 2 -0.002641 0.009405 0.000345 0.000000 0.000000 0.000000
# 3 0.000345 0.000345 0.015424 0.000000 0.000000 0.000000
# 4 0.000000 0.000000 0.000000 0.039801 0.000000 0.000000
# 5 0.000000 0.000000 0.000000 0.000000 0.039801 0.000000
# 6 0.000000 0.000000 0.000000 0.000000 0.000000 0.018681
#
#
# Mechanical properties :
#
#
# Convention : Reuss Voigt Hill
#
# Bulk Modulus (GPa) = 32.96776 38.67727 35.82252
# Shear Modulus (GPa) = 34.12272 38.77159 36.44715
#
# Velocity S-wave (km/s) = 3.66209 3.90359 3.78477
# Velocity P-wave (km/s) = 5.55322 5.95973 5.76006
#
# Compressibility (1/GPa) = 0.03033266
#
# Stress axis : x y z
#
# Youngs Moduli (GPa) = 106.32871 106.32871 64.83301
#
# Poissons Ratio (x) = 0.28086 -0.02239
# Poissons Ratio (y) = 0.28086 -0.02239
# Poissons Ratio (z) = -0.03673 -0.03673
#
# Static dielectric constant tensor:
#      x y z
#    x 2.093480 0.000000 0.000000 
#    y 0.000000 2.093480 0.000000 
#    z 0.000000 0.000000 2.078130 
# 
# From -- ./inp_files/1787.got.cif
#   From: 2010.05.17/outbox.cif.g08.bks.cpg/sg110_1_cif.got.tgz:1787.got - 2010.05.20 10:54:03.
