data_PCOD9554331
_publ_section_title
;
Structure prediction by ZEFSAII (Michael W. Deem and Ramdas Pophale) SiO2 
 PCOD9554331
Probable space group: I 41 C D
;
_chemical_formula_sum "Si O2"
_cell_formula_units_Z 112
_cell_length_a 17.729337
_cell_length_b 17.729337
_cell_length_c 14.076576
_cell_angle_alpha 90.000000
_cell_angle_beta 90.000000
_cell_angle_gamma 90.000000
_cell_volume 4424.681554
_symmetry_space_group_name_H-M "I 41 C D"
_symmetry_group_IT_number 110
_symmetry_cell_setting 'tetragonal'
loop_
_space_group_symop_operation_xyz
x,y,z
-y,1/2+x,1/4+z
-x,-y,z
y,1/2-x,1/4+z
-x,y,1/2+z
x,-y,1/2+z
1/2-y,-x,1/4+z
1/2+y,x,1/4+z
1/2+x,1/2+y,1/2+z
1/2-y,x,3/4+z
1/2-x,1/2-y,1/2+z
1/2+y,-x,3/4+z
1/2-x,1/2+y,z
1/2+x,1/2-y,z
-y,1/2-x,3/4+z
y,1/2+x,3/4+z
loop_
_atom_site_type_symbol
_atom_site_label
_atom_site_fract_x
_atom_site_fract_y
_atom_site_fract_z
Si Si1 0.606425 0.153291 0.836350
Si Si2 0.401557 0.655061 0.398454
Si Si3 0.286950 0.409430 0.391044
Si Si4 0.814138 0.847242 0.103601
Si Si5 0.074688 0.544116 0.638449
Si Si6 0.424839 0.461443 0.612818
Si Si7 0.247848 0.082874 0.414825
O O1 0.615219 0.091456 0.751454
O O2 0.599722 0.228305 0.774964
O O3 0.525371 0.137998 0.878761
O O4 0.680615 0.134309 0.893117
O O5 0.369814 0.739146 0.409896
O O6 0.485752 0.641685 0.361496
O O7 0.327964 0.611354 0.359704
O O8 0.294912 0.381585 0.500294
O O9 0.371499 0.415965 0.349959
O O10 0.249974 0.493435 0.392850
O O11 0.844192 0.762653 0.092407
O O12 0.886957 0.886527 0.151595
O O13 0.000000 0.500000 0.606912
O O14 0.059823 0.560596 0.751535
O O15 0.500000 0.500000 0.649507
#
# Coordination Sequence:
#
# PCOD9554331 Si02
#       7
#    16  16  16  16  16  16  16
#     4  10  19  35  66 102 133 186 239 299 370 436
#     4  10  21  37  62  98 139 179 232 297 371 429
#     4  11  23  42  68 104 141 190 247 302 369 458
#     4  11  24  38  61 102 145 183 236 305 370 438
#     4  10  15  38  67  97 125 175 240 293 355 433
#     4  10  16  37  66  96 125 175 243 285 353 434
#     4  10  20  38  69 102 138 189 240 302 373 441
#
# _framework density 25.312556000000001
#
# number of rings (size 3 to 8) (size 9 to 14) (size 15 to 20)
#    0.857    0.857    7.143    0.857    4.000    0.000 
#    2.571    1.429    0.000    6.000    0.000    0.000 
#    0.000    0.000    0.000    0.000    0.000    0.000 
#
# Total GULP energy -312169.306798 kJ/mol
# GULP energy per Si atom -5574.451907 kJ/mol
# Density = 2.525494 g / cm^3
# Si number density = 25.312556 Si / 1000 Ang^3
#
#
#
# Elastic Constant Matrix: (Units=GPa)
#
#
# Indices 1 2 3 4 5 6 
#
# 1 130.3479 61.4528 3.3515 0.0000 0.0000 0.0000
# 2 61.4528 130.3479 3.3515 0.0000 0.0000 0.0000
# 3 3.3515 3.3515 50.3680 0.0000 0.0000 0.0000
# 4 0.0000 0.0000 0.0000 -3.8904 0.0000 0.0000
# 5 0.0000 0.0000 0.0000 0.0000 -3.8904 0.0000
# 6 0.0000 0.0000 0.0000 0.0000 0.0000 46.3751
#
#
#
# Elastic Compliance Matrix: (Units=1/GPa)
#
#
# Indices 1 2 3 4 5 6 
#
# 1 0.009870 -0.004644 -0.000348 0.000000 0.000000 0.000000
# 2 -0.004644 0.009870 -0.000348 0.000000 0.000000 0.000000
# 3 -0.000348 -0.000348 0.019900 0.000000 0.000000 0.000000
# 4 0.000000 0.000000 0.000000 -0.257044 0.000000 0.000000
# 5 0.000000 0.000000 0.000000 0.000000 -0.257044 0.000000
# 6 0.000000 0.000000 0.000000 0.000000 0.000000 0.021563
#
#
# Mechanical properties :
#
#
# Convention : Reuss Voigt Hill
#
# Bulk Modulus (GPa) = 34.52919 49.70837 42.11878
# Shear Modulus (GPa) = -11.55934 23.91274 6.17670
#
# Velocity S-wave (km/s) = -2.13929 3.07693 1.56380
# Velocity P-wave (km/s) = 2.75112 5.68364 4.46500
#
# Compressibility (1/GPa) = 0.02896101
#
# Stress axis : x y z
#
# Youngs Moduli (GPa) = 101.31344 101.31344 50.25089
#
# Poissons Ratio (x) = 0.47055 0.01747
# Poissons Ratio (y) = 0.47055 0.01747
# Poissons Ratio (z) = 0.03523 0.03523
#
# Static dielectric constant tensor:
#      x y z
#    x 2.029640 0.000000 0.000000 
#    y 0.000000 2.029640 0.000000 
#    z 0.000000 0.000000 2.150400 
# 
# From -- ./inp_files/2721.got.cif
#   From: 2010.05.17/outbox.cif.g08.bks.cpg/sg110_2_cif.got.tgz:2721.got - 2010.05.20 10:54:03.
