data_PCOD9554813
_publ_section_title
;
Structure prediction by ZEFSAII (Michael W. Deem and Ramdas Pophale) SiO2 
 PCOD9554813
Probable space group: P -4 2 M 
;
_chemical_formula_sum "Si O2"
_cell_formula_units_Z 36
_cell_length_a 14.340169
_cell_length_b 14.340169
_cell_length_c 8.013402
_cell_angle_alpha 90.000000
_cell_angle_beta 90.000000
_cell_angle_gamma 90.000000
_cell_volume 1647.879569
_symmetry_space_group_name_H-M "P -4 2 M "
_symmetry_group_IT_number 111
_symmetry_cell_setting 'tetragonal'
loop_
_space_group_symop_operation_xyz
x,y,z
y,-x,-z
-x,-y,z
-y,x,-z
x,-y,-z
-x,y,-z
-y,-x,z
y,x,z
loop_
_atom_site_type_symbol
_atom_site_label
_atom_site_fract_x
_atom_site_fract_y
_atom_site_fract_z
Si Si1 0.145775 0.701801 0.890786
Si Si2 0.000000 0.143299 0.500000
Si Si3 0.229517 0.377091 0.624508
Si Si4 0.566085 0.286418 0.751548
Si Si5 0.297680 0.053913 0.748788
O O1 0.209023 0.790978 0.839292
O O2 0.215676 0.614463 0.879916
O O3 0.054964 0.680865 0.778944
O O4 0.103893 0.717955 0.073967
O O5 0.949234 0.207300 0.366553
O O6 0.076100 0.076100 0.416645
O O7 0.277988 0.277988 0.661156
O O8 0.250910 0.400074 0.431936
O O9 0.278518 0.455722 0.737500
O O10 0.119734 0.372898 0.659198
O O11 0.612080 0.387921 0.775700
#
# Coordination Sequence:
#
# PCOD9554813 Si02
#       5
#     8   4   8   8   8
#     4  10  21  38  58  81 114 153 192 238 289 345
#     4  11  22  36  56  83 116 154 198 247 294 345
#     4  10  20  36  59  85 114 148 188 237 289 344
#     4   9  20  38  59  84 114 149 189 235 290 348
#     4  11  22  36  58  84 113 150 194 238 291 348
#
# _framework density 21.846257999999999
#
# number of rings (size 3 to 8) (size 9 to 14) (size 15 to 20)
#    0.000    1.889    0.000    4.000    0.000    4.000 
#    0.000    6.667    0.000    8.000    0.000    3.111 
#    0.000    0.000    0.000    0.000    0.000    0.000 
#
# Total GULP energy -201008.675697 kJ/mol
# GULP energy per Si atom -5583.574325 kJ/mol
# Density = 2.179653 g / cm^3
# Si number density = 21.846258 Si / 1000 Ang^3
#
#
#
# Elastic Constant Matrix: (Units=GPa)
#
#
# Indices 1 2 3 4 5 6 
#
# 1 62.2517 -3.7356 27.9123 0.0000 0.0000 0.0000
# 2 -3.7356 62.2498 27.9126 0.0000 0.0000 0.0000
# 3 27.9123 27.9126 49.9395 0.0000 0.0000 0.0000
# 4 0.0000 0.0000 0.0000 12.3448 0.0000 0.0000
# 5 0.0000 0.0000 0.0000 0.0000 12.3447 0.0000
# 6 0.0000 0.0000 0.0000 0.0000 0.0000 29.1904
#
#
#
# Elastic Compliance Matrix: (Units=1/GPa)
#
#
# Indices 1 2 3 4 5 6 
#
# 1 0.025883 0.010729 -0.020463 0.000000 0.000000 0.000000
# 2 0.010729 0.025884 -0.020464 0.000000 0.000000 0.000000
# 3 -0.020463 -0.020464 0.042899 0.000000 0.000000 0.000000
# 4 0.000000 0.000000 0.000000 0.081006 0.000000 0.000000
# 5 0.000000 0.000000 0.000000 0.000000 0.081007 0.000000
# 6 0.000000 0.000000 0.000000 0.000000 0.000000 0.034258
#
#
# Mechanical properties :
#
#
# Convention : Reuss Voigt Hill
#
# Bulk Modulus (GPa) = 29.18018 30.95774 30.06896
# Shear Modulus (GPa) = 13.78335 18.93275 16.35805
#
# Velocity S-wave (km/s) = 2.51455 2.94706 2.73935
# Velocity P-wave (km/s) = 4.67083 5.07757 4.87844
#
# Compressibility (1/GPa) = 0.03426984
#
# Stress axis : x y z
#
# Youngs Moduli (GPa) = 38.63565 38.63374 23.31033
#
# Poissons Ratio (x) = -0.41449 0.47700
# Poissons Ratio (y) = -0.41451 0.47702
# Poissons Ratio (z) = 0.79061 0.79060
#
# Static dielectric constant tensor:
#      x y z
#    x 1.777520 0.000000 0.000000 
#    y 0.000000 1.777520 0.000000 
#    z 0.000000 0.000000 1.832590 
# 
# From -- ./inp_files/1423.got.cif
#   From: 2010.05.17/outbox.cif.g08.bks.cpg/sg111_1_cif.got.tgz:1423.got - 2010.05.20 10:56:05.
