data_PCOD9554887
_publ_section_title
;
Structure prediction by ZEFSAII (Michael W. Deem and Ramdas Pophale) SiO2 
 PCOD9554887
Probable space group: P -4 2 M 
;
_chemical_formula_sum "Si O2"
_cell_formula_units_Z 44
_cell_length_a 22.869709
_cell_length_b 22.869709
_cell_length_c 5.325548
_cell_angle_alpha 90.000000
_cell_angle_beta 90.000000
_cell_angle_gamma 90.000000
_cell_volume 2785.387232
_symmetry_space_group_name_H-M "P -4 2 M "
_symmetry_group_IT_number 111
_symmetry_cell_setting 'tetragonal'
loop_
_space_group_symop_operation_xyz
x,y,z
y,-x,-z
-x,-y,z
-y,x,-z
x,-y,-z
-x,y,-z
-y,-x,z
y,x,z
loop_
_atom_site_type_symbol
_atom_site_label
_atom_site_fract_x
_atom_site_fract_y
_atom_site_fract_z
Si Si1 0.283054 0.182289 0.744125
Si Si2 0.722517 0.621488 0.806942
Si Si3 0.134742 0.764731 0.755475
Si Si4 0.038831 0.138312 0.250393
Si Si5 0.675984 0.423778 0.688962
Si Si6 0.500000 0.404287 0.000000
O O1 0.232395 0.232395 0.741972
O O2 0.343224 0.217785 0.765706
O O3 0.274616 0.146455 0.488477
O O4 0.270712 0.143173 0.987943
O O5 0.670783 0.670783 0.810124
O O6 0.709410 0.578851 0.573625
O O7 0.717853 0.589730 0.074253
O O8 0.186043 0.813958 0.754904
O O9 0.075172 0.801239 0.744329
O O10 0.085893 0.085893 0.246078
O O11 0.000000 0.133432 0.500000
O O12 0.000000 0.135492 0.000000
O O13 0.629995 0.370006 0.676719
O O14 0.636159 0.478031 0.774632
O O15 0.446335 0.446335 0.923691
#
# Coordination Sequence:
#
# PCOD9554887 Si02
#       6
#     8   8   8   8   8   4
#     4   9  15  25  42  61  79  97 119 156 214 273
#     4   9  16  26  41  60  79  97 120 163 221 270
#     4   9  17  28  42  60  79 100 129 167 210 257
#     4  11  22  34  46  60  81 111 149 191 225 250
#     4   9  17  28  40  56  77 101 136 180 220 256
#     4   9  18  32  46  58  78 116 162 202 233 252
#
# _framework density 15.796727000000001
#
# number of rings (size 3 to 8) (size 9 to 14) (size 15 to 20)
#    0.000    2.636    0.000    2.727    0.000    9.091 
#    0.000    2.727    0.000    7.636    0.000    0.000 
#    0.000    0.000    0.000    0.000    0.000    0.000 
#
# Total GULP energy -245387.264095 kJ/mol
# GULP energy per Si atom -5576.983275 kJ/mol
# Density = 1.576077 g / cm^3
# Si number density = 15.796727 Si / 1000 Ang^3
#
#
#
# Elastic Constant Matrix: (Units=GPa)
#
#
# Indices 1 2 3 4 5 6 
#
# 1 44.9236 42.6444 32.1555 0.0000 0.0000 0.0000
# 2 42.6444 44.9235 32.1558 0.0000 0.0000 0.0000
# 3 32.1555 32.1558 117.3247 0.0000 0.0000 0.0000
# 4 0.0000 0.0000 0.0000 17.9543 0.0000 0.0000
# 5 0.0000 0.0000 0.0000 0.0000 17.9541 0.0000
# 6 0.0000 0.0000 0.0000 0.0000 0.0000 26.9618
#
#
#
# Elastic Compliance Matrix: (Units=1/GPa)
#
#
# Indices 1 2 3 4 5 6 
#
# 1 0.226522 -0.212226 -0.003918 0.000000 0.000000 0.000000
# 2 -0.212226 0.226524 -0.003919 0.000000 0.000000 0.000000
# 3 -0.003918 -0.003919 0.010671 0.000000 0.000000 0.000000
# 4 0.000000 0.000000 0.000000 0.055697 0.000000 0.000000
# 5 0.000000 0.000000 0.000000 0.000000 0.055697 0.000000
# 6 0.000000 0.000000 0.000000 0.000000 0.000000 0.037090
#
#
# Mechanical properties :
#
#
# Convention : Reuss Voigt Hill
#
# Bulk Modulus (GPa) = 42.38705 46.78703 44.58704
# Shear Modulus (GPa) = 4.71613 19.25513 11.98563
#
# Velocity S-wave (km/s) = 1.72974 3.49511 2.75751
# Velocity P-wave (km/s) = 5.55701 6.78013 6.19881
#
# Compressibility (1/GPa) = 0.02359211
#
# Stress axis : x y z
#
# Youngs Moduli (GPa) = 4.41457 4.41454 93.70899
#
# Poissons Ratio (x) = 0.93688 0.36713
# Poissons Ratio (y) = 0.93689 0.36729
# Poissons Ratio (z) = 0.01730 0.01730
#
# Static dielectric constant tensor:
#      x y z
#    x 1.518980 0.000000 0.000000 
#    y 0.000000 1.518980 0.000000 
#    z 0.000000 0.000000 1.549630 
# 
# From -- ./inp_files/570.got.cif
#   From: 2010.05.17/outbox.cif.g08.bks.cpg/sg111_1_cif.got.tgz:570.got - 2010.05.20 10:56:05.
