data_PCOD9554991
_publ_section_title
;
Structure prediction by ZEFSAII (Michael W. Deem and Ramdas Pophale) SiO2 
 PCOD9554991
Probable space group: P -4 2 C
;
_chemical_formula_sum "Si O2"
_cell_formula_units_Z 48
_cell_length_a 8.436609
_cell_length_b 8.436609
_cell_length_c 30.020702
_cell_angle_alpha 90.000000
_cell_angle_beta 90.000000
_cell_angle_gamma 90.000000
_cell_volume 2136.764636
_symmetry_space_group_name_H-M "P -4 2 C"
_symmetry_group_IT_number 112
_symmetry_cell_setting 'tetragonal'
loop_
_space_group_symop_operation_xyz
x,y,z
y,-x,-z
-x,-y,z
-y,x,-z
x,-y,1/2-z
-x,y,1/2-z
-y,-x,1/2+z
y,x,1/2+z
loop_
_atom_site_type_symbol
_atom_site_label
_atom_site_fract_x
_atom_site_fract_y
_atom_site_fract_z
Si Si1 0.500000 0.000000 0.561805
Si Si2 0.036237 0.721405 0.611577
Si Si3 0.000000 0.727549 0.750000
Si Si4 0.889141 0.326220 0.144105
Si Si5 0.244632 0.423331 0.819140
Si Si6 0.941905 0.253426 0.508244
Si Si7 0.760518 0.218502 0.823898
O O1 0.415351 0.884220 0.596976
O O2 0.614978 0.907000 0.528538
O O3 0.142787 0.870329 0.628665
O O4 0.139237 0.585099 0.635888
O O5 0.043235 0.696351 0.559283
O O6 0.864095 0.752838 0.631608
O O7 0.880744 0.628049 0.781346
O O8 0.884990 0.818043 0.715920
O O9 0.731724 0.355540 0.173894
O O10 0.938823 0.658049 0.167354
O O11 0.304206 0.602836 0.812856
O O12 0.111671 0.182331 0.494481
#
# Coordination Sequence:
#
# PCOD9554991 Si02
#       7
#     4   8   4   8   8   8   8
#     4  12  24  44  62  89 134 165 220 280 320 414
#     4   9  19  35  50  88 115 157 199 255 329 387
#     4  10  19  33  60 105 137 160 217 291 340 393
#     4  10  23  37  56  83 123 173 210 262 336 386
#     4   9  20  34  56  91 130 162 202 270 334 399
#     4  11  22  37  65  89 116 161 208 264 337 383
#     4  11  19  34  60  92 130 161 207 273 335 402
#
# _framework density 22.463867
#
# number of rings (size 3 to 8) (size 9 to 14) (size 15 to 20)
#    1.000    0.833    1.667    4.500    4.667    1.333 
#    0.000    0.833    3.667    2.000    0.000    2.333 
#    0.000    0.000    0.000    0.000    0.000    0.000 
#
# Total GULP energy -267407.376875 kJ/mol
# GULP energy per Si atom -5570.987018 kJ/mol
# Density = 2.241274 g / cm^3
# Si number density = 22.463867 Si / 1000 Ang^3
#
#
#
# Elastic Constant Matrix: (Units=GPa)
#
#
# Indices 1 2 3 4 5 6 
#
# 1 92.4137 41.7466 32.6354 0.0000 0.0000 0.0000
# 2 41.7466 92.4137 32.6354 0.0000 0.0000 0.0000
# 3 32.6354 32.6354 158.1928 0.0000 0.0000 0.0000
# 4 0.0000 0.0000 0.0000 20.7214 0.0000 0.0000
# 5 0.0000 0.0000 0.0000 0.0000 20.7214 0.0000
# 6 0.0000 0.0000 0.0000 0.0000 0.0000 24.8223
#
#
#
# Elastic Compliance Matrix: (Units=1/GPa)
#
#
# Indices 1 2 3 4 5 6 
#
# 1 0.014011 -0.005726 -0.001709 0.000000 0.000000 0.000000
# 2 -0.005726 0.014011 -0.001709 0.000000 0.000000 0.000000
# 3 -0.001709 -0.001709 0.007027 0.000000 0.000000 0.000000
# 4 0.000000 0.000000 0.000000 0.048259 0.000000 0.000000
# 5 0.000000 0.000000 0.000000 0.000000 0.048259 0.000000
# 6 0.000000 0.000000 0.000000 0.000000 0.000000 0.040286
#
#
# Mechanical properties :
#
#
# Convention : Reuss Voigt Hill
#
# Bulk Modulus (GPa) = 59.66497 61.89497 60.77997
# Shear Modulus (GPa) = 25.54553 28.98653 27.26603
#
# Velocity S-wave (km/s) = 3.37587 3.59606 3.48770
# Velocity P-wave (km/s) = 6.46633 6.69740 6.58288
#
# Compressibility (1/GPa) = 0.01676025
#
# Stress axis : x y z
#
# Youngs Moduli (GPa) = 71.37239 71.37239 142.31527
#
# Poissons Ratio (x) = 0.40865 0.24326
# Poissons Ratio (y) = 0.40865 0.24326
# Poissons Ratio (z) = 0.12200 0.12200
#
# Static dielectric constant tensor:
#      x y z
#    x 1.927210 0.000000 0.000000 
#    y 0.000000 1.927210 0.000000 
#    z 0.000000 0.000000 1.806790 
# 
# From -- ./inp_files/6337.got.cif
#   From: 2010.05.17/outbox.cif.g08.bks.cpg/sg112_4_cif.got.tgz:6337.got - 2010.05.20 10:59:04.
