data_PCOD9554911
_publ_section_title
;
Structure prediction by ZEFSAII (Michael W. Deem and Ramdas Pophale) SiO2 
 PCOD9554911
Probable space group: P -4 2 M 
;
_chemical_formula_sum "Si O2"
_cell_formula_units_Z 56
_cell_length_a 12.000000
_cell_length_b 12.000000
_cell_length_c 21.000000
_cell_angle_alpha 90.000000
_cell_angle_beta 90.000000
_cell_angle_gamma 90.000000
_cell_volume 3024.000000
_symmetry_space_group_name_H-M "P -4 2 M "
_symmetry_group_IT_number 111
_symmetry_cell_setting 'tetragonal'
loop_
_space_group_symop_operation_xyz
x,y,z
y,-x,-z
-x,-y,z
-y,x,-z
x,-y,-z
-x,y,-z
-y,-x,z
y,x,z
loop_
_atom_site_type_symbol
_atom_site_label
_atom_site_fract_x
_atom_site_fract_y
_atom_site_fract_z
Si Si1 0.002685 0.816278 0.318432
Si Si2 0.083652 0.260911 0.816471
Si Si3 0.866366 0.501592 0.805297
Si Si4 0.237745 0.063697 0.064422
Si Si5 0.498147 0.687445 0.424097
Si Si6 0.755031 0.575755 0.062998
Si Si7 0.892147 0.420156 0.666540
O O1 0.911486 0.911486 0.327149
O O2 0.946263 0.702739 0.346822
O O3 0.017212 0.785974 0.243864
O O4 0.122355 0.877646 0.337242
O O5 0.168012 0.168012 0.839279
O O6 0.151088 0.367872 0.791817
O O7 0.008999 0.284349 0.877889
O O8 0.798085 0.472677 0.869143
O O9 0.848697 0.429931 0.740653
O O10 0.000000 0.500000 0.817199
O O11 0.129845 0.129845 0.088652
O O12 0.331229 0.153063 0.046677
O O13 0.209347 0.000000 0.000000
O O14 0.500000 0.716956 0.500000
O O15 0.380678 0.619323 0.411146
O O16 0.594772 0.594772 0.414816
O O17 0.532955 0.794083 0.380148
O O18 0.638270 0.638270 0.073309
O O19 0.748001 0.500000 0.000000
O O20 0.000000 0.500000 0.663422
#
# Coordination Sequence:
#
# PCOD9554911 Si02
#       7
#     8   8   8   8   8   8   8
#     4  10  20  34  54  83 122 163 199 243 301 364
#     4  11  21  35  55  80 111 145 188 240 298 361
#     4  11  21  39  59  84 114 152 197 245 301 361
#     4  11  22  34  50  75 102 135 179 232 293 355
#     4   9  20  40  65  94 129 169 213 261 312 366
#     4  11  25  41  60  79 106 149 195 245 300 365
#     4  11  21  36  61  95 127 164 208 258 309 371
#
# _framework density 18.518519000000001
#
# number of rings (size 3 to 8) (size 9 to 14) (size 15 to 20)
#    0.000    1.429    4.286    2.571    0.000    7.143 
#    0.000    0.000    0.000    0.000    0.000    0.000 
#    0.000    3.429    0.000    0.000    0.000    0.000 
#
# Total GULP energy -311797.979860 kJ/mol
# GULP energy per Si atom -5567.821069 kJ/mol
# Density = 1.847637 g / cm^3
# Si number density = 18.518519 Si / 1000 Ang^3
#
#
#
# Elastic Constant Matrix: (Units=GPa)
#
#
# Indices 1 2 3 4 5 6 
#
# 1 93.6580 34.2691 41.4511 0.0000 0.0000 0.0000
# 2 34.2691 93.6585 41.4510 0.0000 0.0000 0.0000
# 3 41.4511 41.4510 87.0999 0.0000 0.0000 0.0000
# 4 0.0000 0.0000 0.0000 18.8670 0.0000 0.0000
# 5 0.0000 0.0000 0.0000 0.0000 18.8756 0.0000
# 6 0.0000 0.0000 0.0000 0.0000 0.0000 25.2165
#
#
#
# Elastic Compliance Matrix: (Units=1/GPa)
#
#
# Indices 1 2 3 4 5 6 
#
# 1 0.014070 -0.002768 -0.005379 0.000000 0.000000 0.000000
# 2 -0.002768 0.014070 -0.005379 0.000000 0.000000 0.000000
# 3 -0.005379 -0.005379 0.016601 0.000000 0.000000 0.000000
# 4 0.000000 0.000000 0.000000 0.053002 0.000000 0.000000
# 5 0.000000 0.000000 0.000000 0.000000 0.052978 0.000000
# 6 0.000000 0.000000 0.000000 0.000000 0.000000 0.039657
#
#
# Mechanical properties :
#
#
# Convention : Reuss Voigt Hill
#
# Bulk Modulus (GPa) = 56.52814 56.52877 56.52846
# Shear Modulus (GPa) = 22.38866 23.07483 22.73175
#
# Velocity S-wave (km/s) = 3.48082 3.53376 3.50739
# Velocity P-wave (km/s) = 6.83713 6.87326 6.85522
#
# Compressibility (1/GPa) = 0.01769030
#
# Stress axis : x y z
#
# Youngs Moduli (GPa) = 71.07075 71.07131 60.23796
#
# Poissons Ratio (x) = 0.19670 0.32402
# Poissons Ratio (y) = 0.19670 0.32402
# Poissons Ratio (z) = 0.38229 0.38229
#
# Static dielectric constant tensor:
#      x y z
#    x 1.987740 0.000000 0.000000 
#    y 0.000000 1.987460 0.000000 
#    z 0.000000 0.000000 1.618670 
# 
# From -- ./inp_files/3967.got.cif
#   From: 2010.05.17/outbox.ucp.g08.bks.cvg/sg111_2_cif.got.tgz:3967.got - 2010.06.11 11:32:56.
