data_PCOD9554411
_publ_section_title
;
Structure prediction by ZEFSAII (Michael W. Deem and Ramdas Pophale) SiO2 
 PCOD9554411
Probable space group: I 41 C D
;
_chemical_formula_sum "Si O2"
_cell_formula_units_Z 112
_cell_length_a 28.581737
_cell_length_b 28.581737
_cell_length_c 5.650858
_cell_angle_alpha 90.000000
_cell_angle_beta 90.000000
_cell_angle_gamma 90.000000
_cell_volume 4616.274562
_symmetry_space_group_name_H-M "I 41 C D"
_symmetry_group_IT_number 110
_symmetry_cell_setting 'tetragonal'
loop_
_space_group_symop_operation_xyz
x,y,z
-y,1/2+x,1/4+z
-x,-y,z
y,1/2-x,1/4+z
-x,y,1/2+z
x,-y,1/2+z
1/2-y,-x,1/4+z
1/2+y,x,1/4+z
1/2+x,1/2+y,1/2+z
1/2-y,x,3/4+z
1/2-x,1/2-y,1/2+z
1/2+y,-x,3/4+z
1/2-x,1/2+y,z
1/2+x,1/2-y,z
-y,1/2-x,3/4+z
y,1/2+x,3/4+z
loop_
_atom_site_type_symbol
_atom_site_label
_atom_site_fract_x
_atom_site_fract_y
_atom_site_fract_z
Si Si1 0.656318 0.676340 0.574370
Si Si2 0.509431 0.701090 0.314648
Si Si3 0.741673 0.379559 0.089802
Si Si4 0.973085 0.321286 0.871629
Si Si5 0.067949 0.120795 0.278937
Si Si6 0.567482 0.525409 0.597694
Si Si7 0.394294 0.666909 0.664369
O O1 0.705464 0.659948 0.677395
O O2 0.641097 0.729948 0.613898
O O3 0.614742 0.642549 0.664867
O O4 0.654370 0.663572 0.297969
O O5 0.498912 0.725259 0.562318
O O6 0.472713 0.658790 0.306159
O O7 0.561718 0.682452 0.322427
O O8 0.710745 0.426886 0.074138
O O9 0.787163 0.389110 0.250319
O O10 0.963629 0.376958 0.857456
O O11 0.008089 0.315570 0.644110
O O12 0.046923 0.076507 0.150245
O O13 0.088741 0.118397 0.546404
O O14 0.556546 0.504666 0.337516
#
# Coordination Sequence:
#
# PCOD9554411 Si02
#       7
#    16  16  16  16  16  16  16
#     4  11  24  46  67 100 134 191 237 296 369 435
#     4  10  20  37  66 103 138 176 230 292 356 413
#     4  11  26  45  68 102 142 183 244 296 368 441
#     4  10  23  41  68 104 139 181 226 296 355 420
#     4  10  21  40  69  99 142 188 239 288 362 429
#     4  10  22  38  65 102 143 190 241 283 350 431
#     4  10  24  41  69 100 133 186 237 305 356 430
#
# _framework density 24.261986
#
# number of rings (size 3 to 8) (size 9 to 14) (size 15 to 20)
#    0.000    1.714    2.857    0.000    4.000    6.857 
#    2.571    0.000    0.000   10.286    0.000    0.000 
#    0.000    0.000    0.000    0.000    0.000    0.000 
#
# Total GULP energy -311878.798601 kJ/mol
# GULP energy per Si atom -5569.264261 kJ/mol
# Density = 2.420676 g / cm^3
# Si number density = 24.261986 Si / 1000 Ang^3
#
#
#
# Elastic Constant Matrix: (Units=GPa)
#
#
# Indices 1 2 3 4 5 6 
#
# 1 89.3052 26.4676 3.9425 0.0000 0.0000 0.0000
# 2 26.4676 89.3052 3.9425 0.0000 0.0000 0.0000
# 3 3.9425 3.9425 127.5282 0.0000 0.0000 0.0000
# 4 0.0000 0.0000 0.0000 18.2232 0.0000 0.0000
# 5 0.0000 0.0000 0.0000 0.0000 18.2232 0.0000
# 6 0.0000 0.0000 0.0000 0.0000 0.0000 29.2205
#
#
#
# Elastic Compliance Matrix: (Units=1/GPa)
#
#
# Indices 1 2 3 4 5 6 
#
# 1 0.012285 -0.003629 -0.000268 0.000000 0.000000 0.000000
# 2 -0.003629 0.012285 -0.000268 0.000000 0.000000 0.000000
# 3 -0.000268 -0.000268 0.007858 0.000000 0.000000 0.000000
# 4 0.000000 0.000000 0.000000 0.054875 0.000000 0.000000
# 5 0.000000 0.000000 0.000000 0.000000 0.054875 0.000000
# 6 0.000000 0.000000 0.000000 0.000000 0.000000 0.034223
#
#
# Mechanical properties :
#
#
# Convention : Reuss Voigt Hill
#
# Bulk Modulus (GPa) = 41.49511 41.64934 41.57222
# Shear Modulus (GPa) = 25.93866 31.25242 28.59554
#
# Velocity S-wave (km/s) = 3.27327 3.59294 3.43682
# Velocity P-wave (km/s) = 5.60587 5.86652 5.73767
#
# Compressibility (1/GPa) = 0.02409923
#
# Stress axis : x y z
#
# Youngs Moduli (GPa) = 81.40053 81.40053 127.25964
#
# Poissons Ratio (x) = 0.29541 0.03405
# Poissons Ratio (y) = 0.29541 0.03405
# Poissons Ratio (z) = 0.02178 0.02178
#
# Static dielectric constant tensor:
#      x y z
#    x 1.920890 0.000000 0.000000 
#    y 0.000000 1.920890 0.000000 
#    z 0.000000 0.000000 2.083370 
# 
# From -- ./inp_files/169.got.cif
#   From: 2010.05.17/outbox.cif.g08.bks.cpg/sg110_1_cif.got.tgz:169.got - 2010.05.20 10:54:03.
