data_PCOD9554681
_publ_section_title
;
Structure prediction by ZEFSAII (Michael W. Deem and Ramdas Pophale) SiO2 
 PCOD9554681
Probable space group: P -4 2 M 
;
_chemical_formula_sum "Si O2"
_cell_formula_units_Z 56
_cell_length_a 28.831546
_cell_length_b 28.831546
_cell_length_c 5.214283
_cell_angle_alpha 90.000000
_cell_angle_beta 90.000000
_cell_angle_gamma 90.000000
_cell_volume 4334.414691
_symmetry_space_group_name_H-M "P -4 2 M "
_symmetry_group_IT_number 111
_symmetry_cell_setting 'tetragonal'
loop_
_space_group_symop_operation_xyz
x,y,z
y,-x,-z
-x,-y,z
-y,x,-z
x,-y,-z
-x,y,-z
-y,-x,z
y,x,z
loop_
_atom_site_type_symbol
_atom_site_label
_atom_site_fract_x
_atom_site_fract_y
_atom_site_fract_z
Si Si1 0.946101 0.131450 0.527902
Si Si2 0.286645 0.206853 0.353170
Si Si3 0.096063 0.173853 0.987227
Si Si4 0.718714 0.361228 0.552157
Si Si5 0.529800 0.392800 0.242595
Si Si6 0.399418 0.680255 0.051591
Si Si7 0.752358 0.167646 0.147639
O O1 0.914448 0.085553 0.566505
O O2 0.928822 0.155449 0.267147
O O3 0.000000 0.120030 0.500000
O O4 0.936123 0.166112 0.765654
O O5 0.247235 0.247235 0.359532
O O6 0.334808 0.233321 0.397134
O O7 0.272813 0.171624 0.579532
O O8 0.281828 0.183376 0.077747
O O9 0.139456 0.139456 0.039243
O O10 0.119410 0.223231 0.927271
O O11 0.678921 0.321080 0.556869
O O12 0.715305 0.383970 0.274020
O O13 0.704566 0.396988 0.775881
O O14 0.500000 0.385786 0.500000
O O15 0.570026 0.429975 0.303518
O O16 0.554388 0.346055 0.139589
O O17 0.500000 0.410307 0.000000
O O18 0.360346 0.639655 0.042288
O O19 0.793837 0.206164 0.157471
#
# Coordination Sequence:
#
# PCOD9554681 Si02
#       7
#     8   8   8   8   8   8   8
#     4  10  19  30  42  54  66  83 111 148 191 235
#     4   9  15  21  33  53  73  91 109 127 145 176
#     4   9  17  28  40  52  68  89 109 133 170 217
#     4   9  15  24  37  53  72  91 109 127 151 188
#     4  11  22  34  46  58  70  86 112 148 192 238
#     4   9  17  28  40  52  68  89 109 132 166 210
#     4   9  15  23  34  50  71  91 109 127 151 188
#
# _framework density 12.919851
#
# number of rings (size 3 to 8) (size 9 to 14) (size 15 to 20)
#    0.000    2.571    0.000    3.429    0.000   10.143 
#    0.000    0.000    0.000    2.571    0.000    0.000 
#    0.000    0.000    0.000    0.000    0.000    0.000 
#
# Total GULP energy -311867.419428 kJ/mol
# GULP energy per Si atom -5569.061061 kJ/mol
# Density = 1.289045 g / cm^3
# Si number density = 12.919851 Si / 1000 Ang^3
#
#
#
# Elastic Constant Matrix: (Units=GPa)
#
#
# Indices 1 2 3 4 5 6 
#
# 1 12.6094 12.7963 -9.6497 0.0000 0.0000 0.0000
# 2 12.7963 12.6098 -9.6510 0.0000 0.0000 0.0000
# 3 -9.6497 -9.6510 36.0119 0.0000 0.0000 0.0000
# 4 0.0000 0.0000 0.0000 11.2922 0.0000 0.0000
# 5 0.0000 0.0000 0.0000 0.0000 11.2908 0.0000
# 6 0.0000 0.0000 0.0000 0.0000 0.0000 7.5756
#
#
#
# Elastic Compliance Matrix: (Units=1/GPa)
#
#
# Indices 1 2 3 4 5 6 
#
# 1 -2.652831 2.702288 0.013349 0.000000 0.000000 0.000000
# 2 2.702288 -2.652899 0.013139 0.000000 0.000000 0.000000
# 3 0.013349 0.013139 0.034867 0.000000 0.000000 0.000000
# 4 0.000000 0.000000 0.000000 0.088557 0.000000 0.000000
# 5 0.000000 0.000000 0.000000 0.000000 0.088567 0.000000
# 6 0.000000 0.000000 0.000000 0.000000 0.000000 0.132002
#
#
# Mechanical properties :
#
#
# Convention : Reuss Voigt Hill
#
# Bulk Modulus (GPa) = 5.35653 5.35803 5.35728
# Shear Modulus (GPa) = -0.48276 10.54742 5.03233
#
# Velocity S-wave (km/s) = -0.61194 2.86032 1.97573
# Velocity P-wave (km/s) = 1.91198 3.88133 3.05945
#
# Compressibility (1/GPa) = 0.18668786
#
# Stress axis : x y z
#
# Youngs Moduli (GPa) = -0.37696 -0.37695 28.68054
#
# Poissons Ratio (x) = 1.01862 -0.38286
# Poissons Ratio (y) = 1.01864 -0.37683
# Poissons Ratio (z) = 0.00503 0.00495
#
# Static dielectric constant tensor:
#      x y z
#    x 1.414240 0.000000 0.000000 
#    y 0.000000 1.414240 0.000000 
#    z 0.000000 0.000000 1.439350 
# 
# From -- ./inp_files/761.got.cif
#   From: 2010.05.17/outbox.cif.g08.bks.cpg/sg111_1_cif.got.tgz:761.got - 2010.05.20 10:56:05.
