data_PCOD9554760
_publ_section_title
;
Structure prediction by ZEFSAII (Michael W. Deem and Ramdas Pophale) SiO2 
 PCOD9554760
Probable space group: P -4 2 M 
;
_chemical_formula_sum "Si O2"
_cell_formula_units_Z 56
_cell_length_a 14.942573
_cell_length_b 14.942573
_cell_length_c 13.131262
_cell_angle_alpha 90.000000
_cell_angle_beta 90.000000
_cell_angle_gamma 90.000000
_cell_volume 2931.954586
_symmetry_space_group_name_H-M "P -4 2 M "
_symmetry_group_IT_number 111
_symmetry_cell_setting 'tetragonal'
loop_
_space_group_symop_operation_xyz
x,y,z
y,-x,-z
-x,-y,z
-y,x,-z
x,-y,-z
-x,y,-z
-y,-x,z
y,x,z
loop_
_atom_site_type_symbol
_atom_site_label
_atom_site_fract_x
_atom_site_fract_y
_atom_site_fract_z
Si Si1 0.485595 0.893963 0.121065
Si Si2 0.791161 0.926095 0.074865
Si Si3 0.820033 0.671321 0.752815
Si Si4 0.404459 0.105209 0.541336
Si Si5 0.661203 0.801605 0.189081
Si Si6 0.254590 0.887103 0.608590
Si Si7 0.177782 0.962613 0.275044
O O1 0.392250 0.847654 0.152911
O O2 0.559777 0.829213 0.171990
O O3 0.500000 0.000000 0.154095
O O4 0.500000 0.893573 0.000000
O O5 0.874302 0.874302 0.024970
O O6 0.715905 0.855325 0.103065
O O7 0.825579 0.969057 0.180604
O O8 0.754786 0.000000 0.000000
O O9 0.720580 0.720580 0.746571
O O10 0.858605 0.612656 0.655856
O O11 0.886581 0.754436 0.759280
O O12 0.500000 0.139315 0.500000
O O13 0.317359 0.138714 0.483229
O O14 0.404854 0.000000 0.500000
O O15 0.700451 0.700451 0.188820
O O16 0.694579 0.847456 0.293256
O O17 0.161133 0.838868 0.598198
O O18 0.228242 0.988701 0.631976
O O19 0.083844 0.916157 0.299495
#
# Coordination Sequence:
#
# PCOD9554760 Si02
#       7
#     8   8   8   8   8   8   8
#     4  11  24  38  62  92 123 164 211 266 321 387
#     4  10  20  31  48  73 105 149 203 257 309 373
#     4  11  24  41  61  91 129 162 204 269 332 381
#     4  11  22  36  62  89 115 159 205 256 311 379
#     4   9  20  36  56  81 114 152 194 249 309 378
#     4  10  19  35  55  79 114 151 198 248 294 359
#     4  10  20  33  50  73 113 161 202 249 303 362
#
# _framework density 19.099886000000001
#
# number of rings (size 3 to 8) (size 9 to 14) (size 15 to 20)
#    0.000    1.714    1.429    4.714    6.000    2.429 
#    0.000    0.000    0.000    0.429    0.000    1.000 
#    0.000    3.714    0.000    0.000    0.000    0.000 
#
# Total GULP energy -311753.183478 kJ/mol
# GULP energy per Si atom -5567.021134 kJ/mol
# Density = 1.905641 g / cm^3
# Si number density = 19.099886 Si / 1000 Ang^3
#
#
#
# Elastic Constant Matrix: (Units=GPa)
#
#
# Indices 1 2 3 4 5 6 
#
# 1 66.1679 42.3688 14.6815 0.0000 0.0000 0.0000
# 2 42.3688 66.1654 14.6805 0.0000 0.0000 0.0000
# 3 14.6815 14.6805 63.3935 0.0000 0.0000 0.0000
# 4 0.0000 0.0000 0.0000 9.7241 0.0000 0.0000
# 5 0.0000 0.0000 0.0000 0.0000 9.7272 0.0000
# 6 0.0000 0.0000 0.0000 0.0000 0.0000 2.1465
#
#
#
# Elastic Compliance Matrix: (Units=1/GPa)
#
#
# Indices 1 2 3 4 5 6 
#
# 1 0.025925 -0.016096 -0.002277 0.000000 0.000000 0.000000
# 2 -0.016096 0.025925 -0.002276 0.000000 0.000000 0.000000
# 3 -0.002277 -0.002276 0.016829 0.000000 0.000000 0.000000
# 4 0.000000 0.000000 0.000000 0.102837 0.000000 0.000000
# 5 0.000000 0.000000 0.000000 0.000000 0.102805 0.000000
# 6 0.000000 0.000000 0.000000 0.000000 0.000000 0.465869
#
#
# Mechanical properties :
#
#
# Convention : Reuss Voigt Hill
#
# Bulk Modulus (GPa) = 36.52003 37.68762 37.10383
# Shear Modulus (GPa) = 6.32420 12.58596 9.45508
#
# Velocity S-wave (km/s) = 1.82162 2.56980 2.22735
# Velocity P-wave (km/s) = 4.85659 5.34601 5.10717
#
# Compressibility (1/GPa) = 0.02738223
#
# Stress axis : x y z
#
# Youngs Moduli (GPa) = 38.57339 38.57211 59.42187
#
# Poissons Ratio (x) = 0.62084 0.13528
# Poissons Ratio (y) = 0.62086 0.13525
# Poissons Ratio (z) = 0.08782 0.08779
#
# Static dielectric constant tensor:
#      x y z
#    x 1.709960 0.000000 0.000000 
#    y 0.000000 1.709960 0.000000 
#    z 0.000000 0.000000 1.743400 
# 
# From -- ./inp_files/2780.got.cif
#   From: 2010.05.17/outbox.cif.g08.bks.cpg/sg111_2_cif.got.tgz:2780.got - 2010.05.20 10:56:05.
