data_PCOD9554600
_publ_section_title
;
Structure prediction by ZEFSAII (Michael W. Deem and Ramdas Pophale) SiO2 
 PCOD9554600
Probable space group: I 41 C D
;
_chemical_formula_sum "Si O2"
_cell_formula_units_Z 112
_cell_length_a 13.765009
_cell_length_b 13.765009
_cell_length_c 25.495585
_cell_angle_alpha 90.000000
_cell_angle_beta 90.000000
_cell_angle_gamma 90.000000
_cell_volume 4830.788021
_symmetry_space_group_name_H-M "I 41 C D"
_symmetry_group_IT_number 110
_symmetry_cell_setting 'tetragonal'
loop_
_space_group_symop_operation_xyz
x,y,z
-y,1/2+x,1/4+z
-x,-y,z
y,1/2-x,1/4+z
-x,y,1/2+z
x,-y,1/2+z
1/2-y,-x,1/4+z
1/2+y,x,1/4+z
1/2+x,1/2+y,1/2+z
1/2-y,x,3/4+z
1/2-x,1/2-y,1/2+z
1/2+y,-x,3/4+z
1/2-x,1/2+y,z
1/2+x,1/2-y,z
-y,1/2-x,3/4+z
y,1/2+x,3/4+z
loop_
_atom_site_type_symbol
_atom_site_label
_atom_site_fract_x
_atom_site_fract_y
_atom_site_fract_z
Si Si1 0.267388 0.705317 0.902630
Si Si2 0.129047 0.367784 0.830649
Si Si3 0.200145 0.957827 0.632658
Si Si4 0.014485 0.739175 0.147433
Si Si5 0.144549 0.782051 0.241370
Si Si6 0.886245 0.996727 0.743432
Si Si7 0.594881 0.933394 0.093924
O O1 0.324360 0.781918 0.866922
O O2 0.157515 0.695085 0.882016
O O3 0.299538 0.594032 0.902289
O O4 0.273290 0.754988 0.959519
O O5 0.189068 0.462389 0.848556
O O6 0.134236 0.316220 0.774638
O O7 0.018161 0.376851 0.848991
O O8 0.303577 0.983027 0.605854
O O9 0.181733 0.987806 0.693098
O O10 0.055036 0.787670 0.200046
O O11 0.083552 0.647620 0.138024
O O12 0.138639 0.889749 0.267286
O O13 0.881083 0.080939 0.787468
O O14 0.000000 0.000000 0.726727
O O15 0.500000 0.000000 0.096206
#
# Coordination Sequence:
#
# PCOD9554600 Si02
#       7
#    16  16  16  16  16  16  16
#     4  11  24  42  68  96 137 182 229 291 364 421
#     4  11  24  44  65  99 139 179 238 290 355 427
#     4  12  23  42  71 100 140 185 237 302 356 430
#     4  11  23  44  65 101 140 180 236 299 358 429
#     4  11  23  45  68 101 139 187 235 299 358 434
#     4  11  23  42  72 107 138 194 244 292 367 437
#     4  11  24  42  69 104 140 187 242 292 363 443
#
# _framework density 23.184622000000001
#
# number of rings (size 3 to 8) (size 9 to 14) (size 15 to 20)
#    0.000    0.857    5.714    4.286    2.000    1.143 
#    0.000    0.000    3.143    0.000    0.000    0.000 
#    0.000    0.000    0.000    0.000    0.000    0.000 
#
# Total GULP energy -312692.572046 kJ/mol
# GULP energy per Si atom -5583.795929 kJ/mol
# Density = 2.313185 g / cm^3
# Si number density = 23.184622 Si / 1000 Ang^3
#
#
#
# Elastic Constant Matrix: (Units=GPa)
#
#
# Indices 1 2 3 4 5 6 
#
# 1 88.2674 -16.9416 16.6155 0.0000 0.0000 0.0000
# 2 -16.9416 88.2674 16.6155 0.0000 0.0000 0.0000
# 3 16.6155 16.6155 86.7322 0.0000 0.0000 0.0000
# 4 0.0000 0.0000 0.0000 30.1325 0.0000 0.0000
# 5 0.0000 0.0000 0.0000 0.0000 30.1325 0.0000
# 6 0.0000 0.0000 0.0000 0.0000 0.0000 31.2884
#
#
#
# Elastic Compliance Matrix: (Units=1/GPa)
#
#
# Indices 1 2 3 4 5 6 
#
# 1 0.012450 0.002945 -0.002949 0.000000 0.000000 0.000000
# 2 0.002945 0.012450 -0.002949 0.000000 0.000000 0.000000
# 3 -0.002949 -0.002949 0.012660 0.000000 0.000000 0.000000
# 4 0.000000 0.000000 0.000000 0.033187 0.000000 0.000000
# 5 0.000000 0.000000 0.000000 0.000000 0.033187 0.000000
# 6 0.000000 0.000000 0.000000 0.000000 0.000000 0.031961
#
#
# Mechanical properties :
#
#
# Convention : Reuss Voigt Hill
#
# Bulk Modulus (GPa) = 31.59396 32.87175 32.23285
# Shear Modulus (GPa) = 32.81900 34.77582 33.79741
#
# Velocity S-wave (km/s) = 3.76646 3.87712 3.82219
# Velocity P-wave (km/s) = 5.70716 5.85251 5.78029
#
# Compressibility (1/GPa) = 0.03165162
#
# Stress axis : x y z
#
# Youngs Moduli (GPa) = 80.32432 80.32432 78.99097
#
# Poissons Ratio (x) = -0.23653 0.23295
# Poissons Ratio (y) = -0.23653 0.23295
# Poissons Ratio (z) = 0.23688 0.23688
#
# Static dielectric constant tensor:
#      x y z
#    x 1.889630 0.000000 0.000000 
#    y 0.000000 1.889630 0.000000 
#    z 0.000000 0.000000 1.926860 
# 
# From -- ./inp_files/2961.got.cif
#   From: 2010.05.17/outbox.cif.g08.bks.cpg/sg110_2_cif.got.tgz:2961.got - 2010.05.20 10:54:03.
