data_PCOD9554380
_publ_section_title
;
Structure prediction by ZEFSAII (Michael W. Deem and Ramdas Pophale) SiO2 
 PCOD9554380
Probable space group: I 41 C D
;
_chemical_formula_sum "Si O2"
_cell_formula_units_Z 120
_cell_length_a 19.762930
_cell_length_b 19.762930
_cell_length_c 14.890432
_cell_angle_alpha 90.000000
_cell_angle_beta 90.000000
_cell_angle_gamma 90.000000
_cell_volume 5815.806686
_symmetry_space_group_name_H-M "I 41 C D"
_symmetry_group_IT_number 110
_symmetry_cell_setting 'tetragonal'
loop_
_space_group_symop_operation_xyz
x,y,z
-y,1/2+x,1/4+z
-x,-y,z
y,1/2-x,1/4+z
-x,y,1/2+z
x,-y,1/2+z
1/2-y,-x,1/4+z
1/2+y,x,1/4+z
1/2+x,1/2+y,1/2+z
1/2-y,x,3/4+z
1/2-x,1/2-y,1/2+z
1/2+y,-x,3/4+z
1/2-x,1/2+y,z
1/2+x,1/2-y,z
-y,1/2-x,3/4+z
y,1/2+x,3/4+z
loop_
_atom_site_type_symbol
_atom_site_label
_atom_site_fract_x
_atom_site_fract_y
_atom_site_fract_z
Si Si1 0.689457 0.438040 0.469150
Si Si2 0.845431 0.833876 0.095667
Si Si3 0.479277 0.753535 0.057030
Si Si4 0.803191 0.305295 0.652255
Si Si5 0.000000 0.000000 0.107548
Si Si6 0.349956 0.675472 0.708628
Si Si7 0.934714 0.872631 0.539664
Si Si8 0.985795 0.348553 0.902108
O O1 0.706224 0.489341 0.389966
O O2 0.750347 0.384300 0.465705
O O3 0.619946 0.396142 0.467140
O O4 0.679215 0.482146 0.559397
O O5 0.799709 0.775234 0.138330
O O6 0.840093 0.904402 0.147325
O O7 0.917616 0.794339 0.089078
O O8 0.823512 0.843073 0.992298
O O9 0.532703 0.698868 0.019190
O O10 0.474037 0.808393 0.978561
O O11 0.725357 0.326772 0.666984
O O12 0.838388 0.338638 0.565041
O O13 0.010157 0.931996 0.049530
O O14 0.929658 0.993809 0.159724
O O15 0.397953 0.636810 0.637525
#
# Coordination Sequence:
#
# PCOD9554380 Si02
#       8
#    16  16  16  16   8  16  16  16
#     4  10  22  41  64  92 130 173 224 273 332 416
#     4  11  23  42  61  98 131 168 221 285 338 410
#     4  11  24  42  67  96 131 180 227 281 352 409
#     4  10  22  34  63  93 129 161 211 276 347 400
#     4  10  22  44  68  88 130 184 224 276 334 410
#     4  10  19  37  62  97 122 173 215 271 341 411
#     4  10  21  41  66  90 133 173 226 279 336 409
#     4  11  24  44  66  92 133 179 224 285 342 408
#
# _framework density 20.633424000000002
#
# number of rings (size 3 to 8) (size 9 to 14) (size 15 to 20)
#    0.000    1.600    2.667    1.600    7.467    1.067 
#    2.400    4.000    0.000    0.000    0.000    0.000 
#    0.000    0.000    0.000    0.000    0.000    0.000 
#
# Total GULP energy -334568.616929 kJ/mol
# GULP energy per Si atom -5576.143615 kJ/mol
# Density = 2.058646 g / cm^3
# Si number density = 20.633424 Si / 1000 Ang^3
#
#
#
# Elastic Constant Matrix: (Units=GPa)
#
#
# Indices 1 2 3 4 5 6 
#
# 1 91.6592 16.2634 18.2338 0.0000 0.0000 0.0000
# 2 16.2634 91.6592 18.2338 0.0000 0.0000 0.0000
# 3 18.2338 18.2338 63.9608 0.0000 0.0000 0.0000
# 4 0.0000 0.0000 0.0000 26.6848 0.0000 0.0000
# 5 0.0000 0.0000 0.0000 0.0000 26.6848 0.0000
# 6 0.0000 0.0000 0.0000 0.0000 0.0000 38.2227
#
#
#
# Elastic Compliance Matrix: (Units=1/GPa)
#
#
# Indices 1 2 3 4 5 6 
#
# 1 0.011758 -0.001505 -0.002923 0.000000 0.000000 0.000000
# 2 -0.001505 0.011758 -0.002923 0.000000 0.000000 0.000000
# 3 -0.002923 -0.002923 0.017301 0.000000 0.000000 0.000000
# 4 0.000000 0.000000 0.000000 0.037474 0.000000 0.000000
# 5 0.000000 0.000000 0.000000 0.000000 0.037474 0.000000
# 6 0.000000 0.000000 0.000000 0.000000 0.000000 0.026162
#
#
# Mechanical properties :
#
#
# Convention : Reuss Voigt Hill
#
# Bulk Modulus (GPa) = 38.29056 39.19349 38.74202
# Shear Modulus (GPa) = 30.24126 31.28835 30.76481
#
# Velocity S-wave (km/s) = 3.83253 3.89831 3.86556
# Velocity P-wave (km/s) = 6.17917 6.26888 6.22419
#
# Compressibility (1/GPa) = 0.02611610
#
# Stress axis : x y z
#
# Youngs Moduli (GPa) = 85.04502 85.04502 57.79945
#
# Poissons Ratio (x) = 0.12798 0.16895
# Poissons Ratio (y) = 0.12798 0.16895
# Poissons Ratio (z) = 0.24859 0.24859
#
# Static dielectric constant tensor:
#      x y z
#    x 1.777560 0.000000 0.000000 
#    y 0.000000 1.777560 0.000000 
#    z 0.000000 0.000000 1.724360 
# 
# From -- ./inp_files/1368.got.cif
#   From: 2010.05.17/outbox.cif.g08.bks.cpg/sg110_1_cif.got.tgz:1368.got - 2010.05.20 10:54:03.
