data_PCOD9554183
_publ_section_title
;
Structure prediction by ZEFSAII (Michael W. Deem and Ramdas Pophale) SiO2 
 PCOD9554183
Probable space group: I 41 M D
;
_chemical_formula_sum "Si O2"
_cell_formula_units_Z 96
_cell_length_a 19.009965
_cell_length_b 19.009965
_cell_length_c 11.598235
_cell_angle_alpha 90.000000
_cell_angle_beta 90.000000
_cell_angle_gamma 90.000000
_cell_volume 4191.355890
_symmetry_space_group_name_H-M "I 41 M D"
_symmetry_group_IT_number 109
_symmetry_cell_setting 'tetragonal'
loop_
_space_group_symop_operation_xyz
x,y,z
-y,1/2+x,1/4+z
-x,-y,z
y,1/2-x,1/4+z
-x,y,z
x,-y,z
-y,1/2-x,1/4+z
y,1/2+x,1/4+z
1/2+x,1/2+y,1/2+z
1/2-y,x,3/4+z
1/2-x,1/2-y,1/2+z
1/2+y,-x,3/4+z
1/2-x,1/2+y,1/2+z
1/2+x,1/2-y,1/2+z
1/2-y,-x,3/4+z
1/2+y,x,3/4+z
loop_
_atom_site_type_symbol
_atom_site_label
_atom_site_fract_x
_atom_site_fract_y
_atom_site_fract_z
Si Si1 0.287387 0.775937 0.028630
Si Si2 0.915064 0.421478 0.775768
Si Si3 0.273132 0.584958 0.143173
Si Si4 0.683567 0.357818 0.383560
Si Si5 0.858461 0.916477 0.278756
Si Si6 0.917736 0.574948 0.292481
O O1 0.269950 0.767668 0.164522
O O2 0.370305 0.788593 0.030172
O O3 0.238019 0.840929 0.986920
O O4 0.888308 0.500000 0.808369
O O5 0.901194 0.405167 0.641311
O O6 0.000000 0.424163 0.789717
O O7 0.893732 0.349846 0.841857
O O8 0.264262 0.500000 0.126296
O O9 0.276957 0.607163 0.277243
O O10 0.210045 0.635087 0.097806
O O11 0.626889 0.408712 0.438035
O O12 0.897125 0.890806 0.163720
O O13 0.845323 0.000000 0.276337
O O14 0.885000 0.500000 0.264000
O O15 0.000000 0.567562 0.312660
#
# Coordination Sequence:
#
# PCOD9554183 Si02
#       6
#    16  16  16  16  16  16
#     4  12  26  45  72  98 138 189 232 284 354 420
#     4   9  20  41  67  97 135 178 228 291 354 414
#     4  11  25  43  68 100 138 188 241 291 355 433
#     4  12  23  42  66  95 136 188 230 293 352 426
#     4  10  21  41  69  99 132 173 227 286 348 414
#     4  10  20  37  64  97 133 173 222 282 346 411
#
# _framework density 22.904283
#
# number of rings (size 3 to 8) (size 9 to 14) (size 15 to 20)
#    0.000    1.333    3.333    1.500    2.333    3.333 
#    0.000    5.833    0.000    0.000    0.000    0.000 
#    0.000    0.000    0.000    0.000    0.000    0.000 
#
# Total GULP energy -267551.391767 kJ/mol
# GULP energy per Si atom -5573.987328 kJ/mol
# Density = 2.285215 g / cm^3
# Si number density = 22.904283 Si / 1000 Ang^3
#
#
#
# Elastic Constant Matrix: (Units=GPa)
#
#
# Indices 1 2 3 4 5 6 
#
# 1 70.8130 21.6977 14.9665 0.0000 0.0000 0.0000
# 2 21.6977 70.8130 14.9665 0.0000 0.0000 0.0000
# 3 14.9665 14.9665 73.2384 0.0000 0.0000 0.0000
# 4 0.0000 0.0000 0.0000 28.1947 0.0000 0.0000
# 5 0.0000 0.0000 0.0000 0.0000 28.1947 0.0000
# 6 0.0000 0.0000 0.0000 0.0000 0.0000 1.1724
#
#
#
# Elastic Compliance Matrix: (Units=1/GPa)
#
#
# Indices 1 2 3 4 5 6 
#
# 1 0.015968 -0.004393 -0.002365 0.000000 0.000000 0.000000
# 2 -0.004393 0.015968 -0.002365 0.000000 0.000000 0.000000
# 3 -0.002365 -0.002365 0.014621 0.000000 0.000000 0.000000
# 4 0.000000 0.000000 0.000000 0.035468 0.000000 0.000000
# 5 0.000000 0.000000 0.000000 0.000000 0.035468 0.000000
# 6 0.000000 0.000000 0.000000 0.000000 0.000000 0.852916
#
#
# Mechanical properties :
#
#
# Convention : Reuss Voigt Hill
#
# Bulk Modulus (GPa) = 35.32434 35.34734 35.33584
# Shear Modulus (GPa) = 5.00957 22.39462 13.70209
#
# Velocity S-wave (km/s) = 1.48051 3.13029 2.44853
# Velocity P-wave (km/s) = 4.28703 5.34145 4.84302
#
# Compressibility (1/GPa) = 0.02830910
#
# Stress axis : x y z
#
# Youngs Moduli (GPa) = 62.62695 62.62695 68.39583
#
# Poissons Ratio (x) = 0.27510 0.16178
# Poissons Ratio (y) = 0.27510 0.16178
# Poissons Ratio (z) = 0.14814 0.14814
#
# Static dielectric constant tensor:
#      x y z
#    x 1.948600 0.000000 0.000000 
#    y 0.000000 1.948600 0.000000 
#    z 0.000000 0.000000 1.807780 
# 
# From -- ./inp_files/2052.got.cif
#   From: 2010.05.17/outbox.cif.g08.bks.cpg/sg109_2_cif.got.tgz:2052.got - 2010.05.20 10:51:12.
