data_PCOD9554258
_publ_section_title
;
Structure prediction by ZEFSAII (Michael W. Deem and Ramdas Pophale) SiO2 
 PCOD9554258
Probable space group: I 41 M D
;
_chemical_formula_sum "Si O2"
_cell_formula_units_Z 96
_cell_length_a 29.840656
_cell_length_b 29.840656
_cell_length_c 5.100416
_cell_angle_alpha 90.000000
_cell_angle_beta 90.000000
_cell_angle_gamma 90.000000
_cell_volume 4541.740661
_symmetry_space_group_name_H-M "I 41 M D"
_symmetry_group_IT_number 109
_symmetry_cell_setting 'tetragonal'
loop_
_space_group_symop_operation_xyz
x,y,z
-y,1/2+x,1/4+z
-x,-y,z
y,1/2-x,1/4+z
-x,y,z
x,-y,z
-y,1/2-x,1/4+z
y,1/2+x,1/4+z
1/2+x,1/2+y,1/2+z
1/2-y,x,3/4+z
1/2-x,1/2-y,1/2+z
1/2+y,-x,3/4+z
1/2-x,1/2+y,1/2+z
1/2+x,1/2-y,1/2+z
1/2-y,-x,3/4+z
1/2+y,x,3/4+z
loop_
_atom_site_type_symbol
_atom_site_label
_atom_site_fract_x
_atom_site_fract_y
_atom_site_fract_z
Si Si1 0.896988 0.082142 0.746910
Si Si2 0.053615 0.447774 0.486288
Si Si3 0.810640 0.222470 0.600418
Si Si4 0.668343 0.500000 0.378278
Si Si5 0.237338 0.899776 0.338405
Si Si6 0.727909 0.500000 0.879144
Si Si7 0.814468 0.865833 0.852865
O O1 0.916958 0.074395 0.461359
O O2 0.861931 0.042560 0.812953
O O3 0.866109 0.125316 0.782447
O O4 0.935624 0.076371 0.961488
O O5 0.059064 0.500000 0.550154
O O6 0.000000 0.438977 0.468450
O O7 0.796591 0.273133 0.659699
O O8 0.862586 0.225200 0.521171
O O9 0.806976 0.187575 0.841998
O O10 0.686155 0.500000 0.674642
O O11 0.709568 0.500000 0.175469
O O12 0.216403 0.887636 0.622936
O O13 0.250997 0.951843 0.331585
O O14 0.199140 0.889428 0.122456
#
# Coordination Sequence:
#
# PCOD9554258 Si02
#       7
#    16  16  16   8  16   8  16
#     4  12  20  34  55  83 114 150 200 254 305 357
#     4  11  22  34  52  79 113 156 200 248 308 369
#     4  10  22  41  65  93 127 164 204 259 309 375
#     4  12  20  32  57  88 120 154 192 262 314 355
#     4  11  22  37  61  91 122 155 196 247 310 363
#     4  12  20  36  56  90 125 148 196 247 310 368
#     4  11  23  37  61  92 116 157 202 251 308 366
#
# _framework density 21.137269
#
# number of rings (size 3 to 8) (size 9 to 14) (size 15 to 20)
#    0.000    0.833    5.000    3.500    0.000    5.333 
#    0.000    0.000    3.667    0.000    0.000    0.000 
#    0.000    0.000    0.000    0.000    0.000    0.000 
#
# Total GULP energy -268093.904922 kJ/mol
# GULP energy per Si atom -5585.289686 kJ/mol
# Density = 2.108916 g / cm^3
# Si number density = 21.137269 Si / 1000 Ang^3
#
#
#
# Elastic Constant Matrix: (Units=GPa)
#
#
# Indices 1 2 3 4 5 6 
#
# 1 61.0195 62.6163 7.6021 0.0000 0.0000 0.0000
# 2 62.6163 61.0195 7.6021 0.0000 0.0000 0.0000
# 3 7.6021 7.6021 51.3219 0.0000 0.0000 0.0000
# 4 0.0000 0.0000 0.0000 18.1059 0.0000 0.0000
# 5 0.0000 0.0000 0.0000 0.0000 18.1059 0.0000
# 6 0.0000 0.0000 0.0000 0.0000 0.0000 23.6874
#
#
#
# Elastic Compliance Matrix: (Units=1/GPa)
#
#
# Indices 1 2 3 4 5 6 
#
# 1 -0.309015 0.317253 -0.001220 0.000000 0.000000 0.000000
# 2 0.317253 -0.309015 -0.001220 0.000000 0.000000 0.000000
# 3 -0.001220 -0.001220 0.019846 0.000000 0.000000 0.000000
# 4 0.000000 0.000000 0.000000 0.055231 0.000000 0.000000
# 5 0.000000 0.000000 0.000000 0.000000 0.055231 0.000000
# 6 0.000000 0.000000 0.000000 0.000000 0.000000 0.042216
#
#
# Mechanical properties :
#
#
# Convention : Reuss Voigt Hill
#
# Bulk Modulus (GPa) = 31.80476 36.55575 34.18026
# Shear Modulus (GPa) = -4.69638 18.34920 6.82641
#
# Velocity S-wave (km/s) = -1.49220 2.94955 1.79905
# Velocity P-wave (km/s) = 3.48002 5.37882 4.53003
#
# Compressibility (1/GPa) = 0.03144183
#
# Stress axis : x y z
#
# Youngs Moduli (GPa) = -3.23609 -3.23609 50.38703
#
# Poissons Ratio (x) = 1.02666 0.06149
# Poissons Ratio (y) = 1.02666 0.06149
# Poissons Ratio (z) = -0.00395 -0.00395
#
# Static dielectric constant tensor:
#      x y z
#    x 1.805810 0.000000 0.000000 
#    y 0.000000 1.805810 0.000000 
#    z 0.000000 0.000000 1.765870 
# 
# From -- ./inp_files/684.got.cif
#   From: 2010.05.17/outbox.cif.g08.bks.cpg/sg109_1_cif.got.tgz:684.got - 2010.05.20 10:51:12.
