data_PCOD9554707
_publ_section_title
;
Structure prediction by ZEFSAII (Michael W. Deem and Ramdas Pophale) SiO2 
 PCOD9554707
Probable space group: P -4 2 M 
;
_chemical_formula_sum "Si O2"
_cell_formula_units_Z 64
_cell_length_a 11.831568
_cell_length_b 11.831568
_cell_length_c 24.418755
_cell_angle_alpha 90.000000
_cell_angle_beta 90.000000
_cell_angle_gamma 90.000000
_cell_volume 3418.283870
_symmetry_space_group_name_H-M "P -4 2 M "
_symmetry_group_IT_number 111
_symmetry_cell_setting 'tetragonal'
loop_
_space_group_symop_operation_xyz
x,y,z
y,-x,-z
-x,-y,z
-y,x,-z
x,-y,-z
-x,y,-z
-y,-x,z
y,x,z
loop_
_atom_site_type_symbol
_atom_site_label
_atom_site_fract_x
_atom_site_fract_y
_atom_site_fract_z
Si Si1 0.229368 0.950440 0.939871
Si Si2 0.495332 0.686369 0.435080
Si Si3 0.685568 0.498486 0.851735
Si Si4 0.534833 0.869061 0.061515
Si Si5 0.554335 0.265079 0.272623
Si Si6 0.813942 0.631309 0.351148
Si Si7 0.187989 0.002207 0.821062
Si Si8 0.370355 0.021011 0.726700
O O1 0.108843 0.891158 0.943220
O O2 0.330704 0.863235 0.932064
O O3 0.228978 0.021915 0.883813
O O4 0.252084 0.000000 0.000000
O O5 0.500000 0.708632 0.500000
O O6 0.374083 0.625918 0.422303
O O7 0.588564 0.588564 0.423903
O O8 0.543209 0.793410 0.401299
O O9 0.623499 0.376502 0.852789
O O10 0.588960 0.588960 0.864625
O O11 0.785788 0.514238 0.894178
O O12 0.729771 0.526750 0.791388
O O13 0.500000 0.000000 0.069947
O O14 0.500000 0.838422 0.000000
O O15 0.622332 0.377669 0.287466
O O16 0.437282 0.251439 0.303774
O O17 0.630047 0.154654 0.285647
O O18 0.748591 0.748591 0.362138
O O19 0.938938 0.648430 0.325764
O O20 0.104460 0.104460 0.806059
O O21 0.286141 0.993519 0.776322
O O22 0.112043 0.887958 0.821377
O O23 0.500000 0.000000 0.744545
#
# Coordination Sequence:
#
# PCOD9554707 Si02
#       8
#     8   8   8   8   8   8   8   8
#     4  11  23  39  60  81 103 132 171 226 283 338
#     4   8  14  26  47  78 115 153 193 234 275 323
#     4  10  23  41  61  84 107 135 176 224 274 330
#     4  11  24  42  57  81 108 136 173 211 269 342
#     4  10  21  35  53  77 105 141 179 218 263 316
#     4  10  19  31  52  80 111 147 180 223 272 318
#     4  10  22  39  59  79 100 133 178 227 277 327
#     4  10  22  35  51  76 110 141 179 215 264 325
#
# _framework density 18.722846000000001
#
# number of rings (size 3 to 8) (size 9 to 14) (size 15 to 20)
#    0.000    2.000    1.250    2.625    5.250    2.875 
#    0.000    0.625    0.000    3.375    0.000    0.000 
#    0.000    0.000    0.000    0.000    0.000  114.125 
#
# Total GULP energy -356768.833894 kJ/mol
# GULP energy per Si atom -5574.513030 kJ/mol
# Density = 1.868023 g / cm^3
# Si number density = 18.722846 Si / 1000 Ang^3
#
#
#
# Elastic Constant Matrix: (Units=GPa)
#
#
# Indices 1 2 3 4 5 6 
#
# 1 46.4602 11.7000 26.2091 0.0000 0.0000 0.0000
# 2 11.7000 46.4578 26.2082 0.0000 0.0000 0.0000
# 3 26.2091 26.2082 90.3770 0.0000 0.0000 0.0000
# 4 0.0000 0.0000 0.0000 25.0246 0.0000 0.0000
# 5 0.0000 0.0000 0.0000 0.0000 25.0288 0.0000
# 6 0.0000 0.0000 0.0000 0.0000 0.0000 15.5252
#
#
#
# Elastic Compliance Matrix: (Units=1/GPa)
#
#
# Indices 1 2 3 4 5 6 
#
# 1 0.026023 -0.002746 -0.006751 0.000000 0.000000 0.000000
# 2 -0.002746 0.026025 -0.006751 0.000000 0.000000 0.000000
# 3 -0.006751 -0.006751 0.014980 0.000000 0.000000 0.000000
# 4 0.000000 0.000000 0.000000 0.039961 0.000000 0.000000
# 5 0.000000 0.000000 0.000000 0.000000 0.039954 0.000000
# 6 0.000000 0.000000 0.000000 0.000000 0.000000 0.064411
#
#
# Mechanical properties :
#
#
# Convention : Reuss Voigt Hill
#
# Bulk Modulus (GPa) = 28.95657 34.61441 31.78549
# Shear Modulus (GPa) = 19.58030 21.06091 20.32060
#
# Velocity S-wave (km/s) = 3.23739 3.35756 3.29802
# Velocity P-wave (km/s) = 5.42897 5.79300 5.61394
#
# Compressibility (1/GPa) = 0.03453447
#
# Stress axis : x y z
#
# Youngs Moduli (GPa) = 38.42705 38.42522 66.75577
#
# Poissons Ratio (x) = 0.10550 0.45064
# Poissons Ratio (y) = 0.10551 0.45064
# Poissons Ratio (z) = 0.25940 0.25939
#
# Static dielectric constant tensor:
#      x y z
#    x 1.672190 0.000000 0.000000 
#    y 0.000000 1.672190 0.000000 
#    z 0.000000 0.000000 1.663930 
# 
# From -- ./inp_files/4234.got.cif
#   From: 2010.05.17/outbox.cif.g08.bks.cpg/sg111_3_cif.got.tgz:4234.got - 2010.05.20 10:56:05.
