data_PCOD9554969
_publ_section_title
;
Structure prediction by ZEFSAII (Michael W. Deem and Ramdas Pophale) SiO2 
 PCOD9554969
Probable space group: P -4 2 C
;
_chemical_formula_sum "Si O2"
_cell_formula_units_Z 38
_cell_length_a 10.563261
_cell_length_b 10.563261
_cell_length_c 14.469535
_cell_angle_alpha 90.000000
_cell_angle_beta 90.000000
_cell_angle_gamma 90.000000
_cell_volume 1614.546642
_symmetry_space_group_name_H-M "P -4 2 C"
_symmetry_group_IT_number 112
_symmetry_cell_setting 'tetragonal'
loop_
_space_group_symop_operation_xyz
x,y,z
y,-x,-z
-x,-y,z
-y,x,-z
x,-y,1/2-z
-x,y,1/2-z
-y,-x,1/2+z
y,x,1/2+z
loop_
_atom_site_type_symbol
_atom_site_label
_atom_site_fract_x
_atom_site_fract_y
_atom_site_fract_z
Si Si1 0.500000 0.500000 0.000000
Si Si2 0.401003 0.655993 0.171226
Si Si3 0.083521 0.397650 0.907100
Si Si4 0.739367 0.140144 0.762566
Si Si5 0.109483 0.174589 0.027813
Si Si6 0.765107 0.000000 0.250000
O O1 0.576435 0.587185 0.924871
O O2 0.500000 0.617334 0.250000
O O3 0.448810 0.797920 0.148278
O O4 0.259817 0.665901 0.218033
O O5 0.987770 0.329696 0.835992
O O6 0.000000 0.500000 0.959957
O O7 0.149999 0.292126 0.967490
O O8 0.782093 0.145530 0.869637
O O9 0.881427 0.150107 0.719932
O O10 0.682793 0.000000 0.750000
O O11 0.958032 0.163746 0.008832
#
# Coordination Sequence:
#
# PCOD9554969 Si02
#       6
#     2   8   8   8   8   4
#     4  12  30  56  88  98 148 208 278 320 408 486
#     4  11  27  49  80 110 146 203 266 328 398 488
#     4  11  22  38  68 104 145 192 253 322 383 470
#     4  11  23  40  70 109 159 197 254 324 400 466
#     4  11  23  38  64 106 158 207 253 310 403 496
#     4  10  18  38  60 102 149 193 238 298 395 464
#
# _framework density 23.536020000000001
#
# number of rings (size 3 to 8) (size 9 to 14) (size 15 to 20)
#    0.000    1.053    2.105    6.000    5.895    1.684 
#    0.000    0.000    0.000    0.000    0.000    0.000 
#    0.000    0.000    0.000    0.000    0.000    0.000 
#
# Total GULP energy -211724.021295 kJ/mol
# GULP energy per Si atom -5571.684771 kJ/mol
# Density = 2.348245 g / cm^3
# Si number density = 23.536020 Si / 1000 Ang^3
#
#
#
# Elastic Constant Matrix: (Units=GPa)
#
#
# Indices 1 2 3 4 5 6 
#
# 1 85.4493 65.2649 43.3818 0.0000 0.0000 0.0000
# 2 65.2649 85.4493 43.3818 0.0000 0.0000 0.0000
# 3 43.3818 43.3818 148.5969 0.0000 0.0000 0.0000
# 4 0.0000 0.0000 0.0000 20.8476 0.0000 0.0000
# 5 0.0000 0.0000 0.0000 0.0000 20.8476 0.0000
# 6 0.0000 0.0000 0.0000 0.0000 0.0000 194.8476
#
#
#
# Elastic Compliance Matrix: (Units=1/GPa)
#
#
# Indices 1 2 3 4 5 6 
#
# 1 0.028759 -0.020784 -0.002328 0.000000 0.000000 0.000000
# 2 -0.020784 0.028759 -0.002328 0.000000 0.000000 0.000000
# 3 -0.002328 -0.002328 0.008089 0.000000 0.000000 0.000000
# 4 0.000000 0.000000 0.000000 0.047967 0.000000 0.000000
# 5 0.000000 0.000000 0.000000 0.000000 0.047967 0.000000
# 6 0.000000 0.000000 0.000000 0.000000 0.000000 0.005132
#
#
# Mechanical properties :
#
#
# Convention : Reuss Voigt Hill
#
# Bulk Modulus (GPa) = 67.90453 69.28361 68.59407
# Shear Modulus (GPa) = 22.47549 58.47300 40.47424
#
# Velocity S-wave (km/s) = 3.09356 4.98979 4.15139
# Velocity P-wave (km/s) = 6.45555 7.91824 7.22401
#
# Compressibility (1/GPa) = 0.01472656
#
# Stress axis : x y z
#
# Youngs Moduli (GPa) = 34.77128 34.77128 123.62266
#
# Poissons Ratio (x) = 0.72268 0.28784
# Poissons Ratio (y) = 0.72268 0.28784
# Poissons Ratio (z) = 0.08096 0.08096
#
# Static dielectric constant tensor:
#      x y z
#    x 1.927770 0.000000 0.000000 
#    y 0.000000 1.927770 0.000000 
#    z 0.000000 0.000000 1.665700 
# 
# From -- ./inp_files/3332.got.cif
#   From: 2010.05.17/outbox.cif.g08.bks.cpg/sg112_2_cif.got.tgz:3332.got - 2010.05.20 10:59:04.
