data_PCOD9554028
_publ_section_title
;
Structure prediction by ZEFSAII (Michael W. Deem and Ramdas Pophale) SiO2 
 PCOD9554028
Probable space group: I 4 C M
;
_chemical_formula_sum "Si O2"
_cell_formula_units_Z 84
_cell_length_a 14.032709
_cell_length_b 14.032709
_cell_length_c 22.524626
_cell_angle_alpha 90.000000
_cell_angle_beta 90.000000
_cell_angle_gamma 90.000000
_cell_volume 4435.480018
_symmetry_space_group_name_H-M "I 4 C M"
_symmetry_group_IT_number 108
_symmetry_cell_setting 'tetragonal'
loop_
_space_group_symop_operation_xyz
x,y,z
-y,x,z
-x,-y,z
y,-x,z
-x,y,1/2+z
x,-y,1/2+z
-y,-x,1/2+z
y,x,1/2+z
1/2+x,1/2+y,1/2+z
1/2-y,1/2+x,1/2+z
1/2-x,1/2-y,1/2+z
1/2+y,1/2-x,1/2+z
1/2-x,1/2+y,z
1/2+x,1/2-y,z
1/2-y,1/2-x,z
1/2+y,1/2+x,z
loop_
_atom_site_type_symbol
_atom_site_label
_atom_site_fract_x
_atom_site_fract_y
_atom_site_fract_z
Si Si1 0.186062 0.838649 0.850080
Si Si2 0.395587 0.379541 0.979870
Si Si3 0.771952 0.480940 0.786934
Si Si4 0.727039 0.381125 0.098566
Si Si5 0.000000 0.500000 0.305434
Si Si6 0.243073 0.582290 0.651777
O O1 0.285853 0.785853 0.857949
O O2 0.140380 0.852816 0.914780
O O3 0.114942 0.770332 0.814830
O O4 0.206641 0.934354 0.813182
O O5 0.509402 0.371130 0.985766
O O6 0.357164 0.316001 0.033778
O O7 0.881624 0.498973 0.803524
O O8 0.766080 0.465207 0.716318
O O9 0.825123 0.325123 0.107171
O O10 0.744109 0.492802 0.108021
O O11 0.650569 0.335090 0.144133
O O12 0.151323 0.651323 0.641170
#
# Coordination Sequence:
#
# PCOD9554028 Si02
#       6
#    16  16  16  16   4  16
#     4  12  24  42  68  97 135 174 226 280 332 401
#     4  11  22  42  67  91 126 175 223 279 339 384
#     4  12  25  42  67 101 136 177 220 270 336 403
#     4  11  24  42  67  95 130 175 224 272 331 390
#     4  12  24  44  68  96 138 184 212 260 340 414
#     4  11  24  42  66  98 136 173 217 270 326 398
#
# _framework density 18.938198
#
# number of rings (size 3 to 8) (size 9 to 14) (size 15 to 20)
#    0.000    0.571    6.667    1.714    1.333    2.667 
#    0.000    1.905    2.095    0.000    0.000    0.000 
#    0.000    0.000    0.000    0.000    0.000    0.000 
#
# Total GULP energy -233962.875296 kJ/mol
# GULP energy per Si atom -5570.544650 kJ/mol
# Density = 1.889509 g / cm^3
# Si number density = 18.938198 Si / 1000 Ang^3
#
#
#
# Elastic Constant Matrix: (Units=GPa)
#
#
# Indices 1 2 3 4 5 6 
#
# 1 132.4575 20.8793 37.3795 0.0000 0.0000 0.0000
# 2 20.8793 132.4575 37.3795 0.0000 0.0000 0.0000
# 3 37.3795 37.3795 74.6791 0.0000 0.0000 0.0000
# 4 0.0000 0.0000 0.0000 -7.5808 0.0000 0.0000
# 5 0.0000 0.0000 0.0000 0.0000 -7.5808 0.0000
# 6 0.0000 0.0000 0.0000 0.0000 0.0000 35.6421
#
#
#
# Elastic Compliance Matrix: (Units=1/GPa)
#
#
# Indices 1 2 3 4 5 6 
#
# 1 0.008795 -0.000168 -0.004318 0.000000 0.000000 0.000000
# 2 -0.000168 0.008795 -0.004318 0.000000 0.000000 0.000000
# 3 -0.004318 -0.004318 0.017713 0.000000 0.000000 0.000000
# 4 0.000000 0.000000 0.000000 -0.131912 0.000000 0.000000
# 5 0.000000 0.000000 0.000000 0.000000 -0.131912 0.000000
# 6 0.000000 0.000000 0.000000 0.000000 0.000000 0.028057
#
#
# Mechanical properties :
#
#
# Convention : Reuss Voigt Hill
#
# Bulk Modulus (GPa) = 56.51372 58.98564 57.74968
# Shear Modulus (GPa) = -28.25524 20.35981 -3.94772
#
# Velocity S-wave (km/s) = -3.86679 3.28238 -1.44535
# Velocity P-wave (km/s) = 3.15750 6.75125 5.27016
#
# Compressibility (1/GPa) = 0.01769482
#
# Stress axis : x y z
#
# Youngs Moduli (GPa) = 113.70642 113.70642 56.45485
#
# Poissons Ratio (x) = 0.01907 0.24377
# Poissons Ratio (y) = 0.01907 0.24377
# Poissons Ratio (z) = 0.49099 0.49099
#
# Static dielectric constant tensor:
#      x y z
#    x 1.649960 0.000000 0.000000 
#    y 0.000000 1.649960 0.000000 
#    z 0.000000 0.000000 1.692620 
# 
# From -- ./inp_files/2838.got.cif
#   From: 2010.05.17/outbox.cif.g08.bks.cpg/sg108_2_cif.got.tgz:2838.got - 2010.05.20 10:49:05.
