data_PCOD9554375
_publ_section_title
;
Structure prediction by ZEFSAII (Michael W. Deem and Ramdas Pophale) SiO2 
 PCOD9554375
Probable space group: I 41 C D
;
_chemical_formula_sum "Si O2"
_cell_formula_units_Z 120
_cell_length_a 25.021534
_cell_length_b 25.021534
_cell_length_c 10.000149
_cell_angle_alpha 90.000000
_cell_angle_beta 90.000000
_cell_angle_gamma 90.000000
_cell_volume 6260.864923
_symmetry_space_group_name_H-M "I 41 C D"
_symmetry_group_IT_number 110
_symmetry_cell_setting 'tetragonal'
loop_
_space_group_symop_operation_xyz
x,y,z
-y,1/2+x,1/4+z
-x,-y,z
y,1/2-x,1/4+z
-x,y,1/2+z
x,-y,1/2+z
1/2-y,-x,1/4+z
1/2+y,x,1/4+z
1/2+x,1/2+y,1/2+z
1/2-y,x,3/4+z
1/2-x,1/2-y,1/2+z
1/2+y,-x,3/4+z
1/2-x,1/2+y,z
1/2+x,1/2-y,z
-y,1/2-x,3/4+z
y,1/2+x,3/4+z
loop_
_atom_site_type_symbol
_atom_site_label
_atom_site_fract_x
_atom_site_fract_y
_atom_site_fract_z
Si Si1 0.000000 0.000000 0.844710
Si Si2 0.213443 0.964470 0.059150
Si Si3 0.824976 0.024512 0.328527
Si Si4 0.302982 0.754019 0.759718
Si Si5 0.403587 0.429458 0.741558
Si Si6 0.593863 0.316854 0.749380
Si Si7 0.089580 0.419351 0.186421
Si Si8 0.137592 0.130996 0.487424
O O1 0.035693 0.043287 0.924686
O O2 0.957773 0.036380 0.764026
O O3 0.219767 0.966033 0.217645
O O4 0.265090 0.942580 0.986303
O O5 0.163690 0.924241 0.038998
O O6 0.197177 0.016112 0.976652
O O7 0.869343 0.069431 0.347157
O O8 0.856256 0.972292 0.271464
O O9 0.268910 0.767438 0.890271
O O10 0.348633 0.709383 0.788329
O O11 0.331280 0.810238 0.717396
O O12 0.403870 0.407000 0.591722
O O13 0.394846 0.383901 0.853963
O O14 0.568529 0.355137 0.861831
O O15 0.602157 0.345330 0.606914
#
# Coordination Sequence:
#
# PCOD9554375 Si02
#       8
#     8  16  16  16  16  16  16  16
#     4  10  24  38  60  86 124 154 200 248 302 354
#     4  10  19  37  59  84 114 150 196 245 291 351
#     4  10  19  36  62  86 110 153 205 238 285 355
#     4   9  19  36  60  86 113 152 195 241 295 351
#     4  10  21  37  62  87 113 154 203 246 286 356
#     4  10  21  37  58  83 120 155 187 243 309 347
#     4  11  21  38  61  88 117 155 201 244 293 353
#     4   9  19  37  60  82 114 155 191 237 301 352
#
# _framework density 19.166681000000001
#
# number of rings (size 3 to 8) (size 9 to 14) (size 15 to 20)
#    0.000    2.133    2.667    0.400    0.000    2.133 
#    4.800    0.000    2.933    0.000    0.000    0.000 
#    0.000    0.000    0.000    0.000    0.000    0.000 
#
# Total GULP energy -334239.822597 kJ/mol
# GULP energy per Si atom -5570.663710 kJ/mol
# Density = 1.912306 g / cm^3
# Si number density = 19.166681 Si / 1000 Ang^3
#
#
#
# Elastic Constant Matrix: (Units=GPa)
#
#
# Indices 1 2 3 4 5 6 
#
# 1 38.7892 10.2620 24.7737 0.0000 0.0000 0.0000
# 2 10.2620 38.7892 24.7737 0.0000 0.0000 0.0000
# 3 24.7737 24.7737 110.2046 0.0000 0.0000 0.0000
# 4 0.0000 0.0000 0.0000 18.8768 0.0000 0.0000
# 5 0.0000 0.0000 0.0000 0.0000 18.8768 0.0000
# 6 0.0000 0.0000 0.0000 0.0000 0.0000 7.4762
#
#
#
# Elastic Compliance Matrix: (Units=1/GPa)
#
#
# Indices 1 2 3 4 5 6 
#
# 1 0.030715 -0.004339 -0.005929 0.000000 0.000000 0.000000
# 2 -0.004339 0.030715 -0.005929 0.000000 0.000000 0.000000
# 3 -0.005929 -0.005929 0.011740 0.000000 0.000000 0.000000
# 4 0.000000 0.000000 0.000000 0.052975 0.000000 0.000000
# 5 0.000000 0.000000 0.000000 0.000000 0.052975 0.000000
# 6 0.000000 0.000000 0.000000 0.000000 0.000000 0.133757
#
#
# Mechanical properties :
#
#
# Convention : Reuss Voigt Hill
#
# Bulk Modulus (GPa) = 24.52492 34.15575 29.34033
# Shear Modulus (GPa) = 13.93283 17.57754 15.75519
#
# Velocity S-wave (km/s) = 2.69909 3.03163 2.87018
# Velocity P-wave (km/s) = 4.74730 5.48757 5.13080
#
# Compressibility (1/GPa) = 0.04077486
#
# Stress axis : x y z
#
# Youngs Moduli (GPa) = 32.55723 32.55723 85.18044
#
# Poissons Ratio (x) = 0.14127 0.50506
# Poissons Ratio (y) = 0.14127 0.50506
# Poissons Ratio (z) = 0.19304 0.19304
#
# Static dielectric constant tensor:
#      x y z
#    x 1.674450 0.000000 0.000000 
#    y 0.000000 1.674450 0.000000 
#    z 0.000000 0.000000 1.656190 
# 
# From -- ./inp_files/529.got.cif
#   From: 2010.05.17/outbox.cif.g08.bks.cpg/sg110_1_cif.got.tgz:529.got - 2010.05.20 10:54:03.
