data_PCOD9554084
_publ_section_title
;
Structure prediction by ZEFSAII (Michael W. Deem and Ramdas Pophale) SiO2 
 PCOD9554084
Probable space group: I 41 M D
;
_chemical_formula_sum "Si O2"
_cell_formula_units_Z 128
_cell_length_a 23.497955
_cell_length_b 23.497955
_cell_length_c 12.014339
_cell_angle_alpha 90.000000
_cell_angle_beta 90.000000
_cell_angle_gamma 90.000000
_cell_volume 6633.764005
_symmetry_space_group_name_H-M "I 41 M D"
_symmetry_group_IT_number 109
_symmetry_cell_setting 'tetragonal'
loop_
_space_group_symop_operation_xyz
x,y,z
-y,1/2+x,1/4+z
-x,-y,z
y,1/2-x,1/4+z
-x,y,z
x,-y,z
-y,1/2-x,1/4+z
y,1/2+x,1/4+z
1/2+x,1/2+y,1/2+z
1/2-y,x,3/4+z
1/2-x,1/2-y,1/2+z
1/2+y,-x,3/4+z
1/2-x,1/2+y,1/2+z
1/2+x,1/2-y,1/2+z
1/2-y,-x,3/4+z
1/2+y,x,3/4+z
loop_
_atom_site_type_symbol
_atom_site_label
_atom_site_fract_x
_atom_site_fract_y
_atom_site_fract_z
Si Si1 0.734144 0.431155 0.854000
Si Si2 0.935196 0.761396 0.851833
Si Si3 0.357234 0.140892 0.717036
Si Si4 0.106498 0.067308 0.358324
Si Si5 0.279581 0.254071 0.497451
Si Si6 0.615175 0.834640 0.486964
Si Si7 0.857189 0.567971 0.814377
Si Si8 0.564215 0.566569 0.617048
O O1 0.731969 0.500000 0.853577
O O2 0.670527 0.412951 0.825174
O O3 0.791158 0.416428 0.787211
O O4 0.746572 0.411444 0.980121
O O5 0.901479 0.811122 0.911723
O O6 0.929732 0.704002 0.922469
O O7 0.000000 0.778912 0.837870
O O8 0.317405 0.193083 0.753377
O O9 0.399058 0.155801 0.615470
O O10 0.391981 0.109375 0.811428
O O11 0.083902 0.102813 0.461822
O O12 0.068104 0.073417 0.249767
O O13 0.108630 0.000000 0.387699
O O14 0.250365 0.246685 0.620535
O O15 0.328080 0.204970 0.491948
O O16 0.625337 0.892747 0.419168
O O17 0.860327 0.500000 0.837584
O O18 0.500000 0.579043 0.578502
O O19 0.576689 0.500000 0.593632
#
# Coordination Sequence:
#
# PCOD9554084 Si02
#       8
#    16  16  16  16  16  16  16  16
#     4   9  18  33  55  84 115 152 191 234 296 366
#     4  10  18  32  56  80 110 151 188 229 293 362
#     4  10  20  37  58  84 117 152 202 256 296 363
#     4  10  21  40  62  85 120 163 205 253 313 376
#     4   9  20  40  60  87 125 163 210 258 315 384
#     4  10  20  34  56  84 119 150 190 245 308 362
#     4  11  21  34  57  91 121 153 202 253 302 371
#     4  10  22  41  63  85 116 164 210 252 311 378
#
# _framework density 19.295228999999999
#
# number of rings (size 3 to 8) (size 9 to 14) (size 15 to 20)
#    0.000    2.125    2.500    0.750    0.000    1.750 
#    4.500    2.500    0.000    4.500    0.000    0.000 
#    0.000    0.000    0.000    0.000    0.000    0.000 
#
# Total GULP energy -356593.286620 kJ/mol
# GULP energy per Si atom -5571.770103 kJ/mol
# Density = 1.925131 g / cm^3
# Si number density = 19.295229 Si / 1000 Ang^3
#
#
#
# Elastic Constant Matrix: (Units=GPa)
#
#
# Indices 1 2 3 4 5 6 
#
# 1 52.0388 9.8496 34.5121 0.0000 0.0000 0.0000
# 2 9.8496 52.0388 34.5121 0.0000 0.0000 0.0000
# 3 34.5121 34.5121 95.4272 0.0000 0.0000 0.0000
# 4 0.0000 0.0000 0.0000 29.3171 0.0000 0.0000
# 5 0.0000 0.0000 0.0000 0.0000 29.3171 0.0000
# 6 0.0000 0.0000 0.0000 0.0000 0.0000 22.0768
#
#
#
# Elastic Compliance Matrix: (Units=1/GPa)
#
#
# Indices 1 2 3 4 5 6 
#
# 1 0.025392 0.001690 -0.009794 0.000000 0.000000 0.000000
# 2 0.001690 0.025392 -0.009794 0.000000 0.000000 0.000000
# 3 -0.009794 -0.009794 0.017564 0.000000 0.000000 0.000000
# 4 0.000000 0.000000 0.000000 0.034110 0.000000 0.000000
# 5 0.000000 0.000000 0.000000 0.000000 0.034110 0.000000
# 6 0.000000 0.000000 0.000000 0.000000 0.000000 0.045296
#
#
# Mechanical properties :
#
#
# Convention : Reuss Voigt Hill
#
# Bulk Modulus (GPa) = 30.72220 39.69469 35.20845
# Shear Modulus (GPa) = 21.88063 24.18426 23.03245
#
# Velocity S-wave (km/s) = 3.37113 3.54415 3.45872
# Velocity P-wave (km/s) = 5.57759 6.11269 5.85126
#
# Compressibility (1/GPa) = 0.03254975
#
# Stress axis : x y z
#
# Youngs Moduli (GPa) = 39.38208 39.38208 56.93586
#
# Poissons Ratio (x) = -0.06654 0.55765
# Poissons Ratio (y) = -0.06654 0.55765
# Poissons Ratio (z) = 0.38572 0.38572
#
# Static dielectric constant tensor:
#      x y z
#    x 1.691520 0.000000 0.000000 
#    y 0.000000 1.691520 0.000000 
#    z 0.000000 0.000000 1.675920 
# 
# From -- ./inp_files/2181.got.cif
#   From: 2010.05.17/outbox.cif.g08.bks.cpg/sg109_2_cif.got.tgz:2181.got - 2010.05.20 10:51:12.
