data_PCOD9554644
_publ_section_title
;
Structure prediction by ZEFSAII (Michael W. Deem and Ramdas Pophale) SiO2 
 PCOD9554644
Probable space group: I 41 C D
;
_chemical_formula_sum "Si O2"
_cell_formula_units_Z 48
_cell_length_a 15.000000
_cell_length_b 15.000000
_cell_length_c 21.000000
_cell_angle_alpha 90.000000
_cell_angle_beta 90.000000
_cell_angle_gamma 90.000000
_cell_volume 4725.000000
_symmetry_space_group_name_H-M "I 41 C D"
_symmetry_group_IT_number 110
_symmetry_cell_setting 'tetragonal'
loop_
_space_group_symop_operation_xyz
x,y,z
-y,1/2+x,1/4+z
-x,-y,z
y,1/2-x,1/4+z
-x,y,1/2+z
x,-y,1/2+z
1/2-y,-x,1/4+z
1/2+y,x,1/4+z
1/2+x,1/2+y,1/2+z
1/2-y,x,3/4+z
1/2-x,1/2-y,1/2+z
1/2+y,-x,3/4+z
1/2-x,1/2+y,z
1/2+x,1/2-y,z
-y,1/2-x,3/4+z
y,1/2+x,3/4+z
loop_
_atom_site_type_symbol
_atom_site_label
_atom_site_fract_x
_atom_site_fract_y
_atom_site_fract_z
Si Si1 0.655135 0.539835 0.098110
Si Si2 0.194334 0.529488 0.391416
Si Si3 0.029488 0.694334 0.496980
Si Si4 0.460165 0.344865 0.290285
Si Si5 0.835220 0.357797 0.813117
Si Si6 0.835220 0.142203 0.825278
O O1 0.578455 0.615784 0.100025
O O2 0.669679 0.523461 0.173241
O O3 0.750000 0.571669 0.069198
O O4 0.634235 0.443726 0.065366
O O5 0.169679 0.523461 0.465154
O O6 0.200702 0.426894 0.367572
O O7 0.281138 0.594130 0.383118
O O8 0.078455 0.615784 0.538370
O O9 0.094130 0.781138 0.505278
O O10 0.926894 0.700702 0.520824
O O11 0.556274 0.365766 0.323030
O O12 0.817002 0.250000 0.819198
#
# Coordination Sequence:
#
# PCOD9554644 Si02
#       6
#    16  16  16  16  16  16
#     4  10  21  41  63  95 126 168 213 261 321 383
#     4  10  21  41  65  90 127 171 211 260 321 385
#     4  10  21  41  65  90 127 171 211 260 321 385
#     4  10  21  41  63  95 126 168 213 261 321 383
#     4  10  21  39  63  94 121 167 217 259 316 378
#     4  10  21  39  63  94 121 167 217 259 316 378
#
# _framework density 10.15873
#
# number of rings (size 3 to 8) (size 9 to 14) (size 15 to 20)
#    0.000    2.000    0.000    3.000    0.000    2.667 
#   54.000    0.000    0.000    0.000    0.000    0.000 
#    0.000    0.000    0.000    0.000    0.000    0.000 
#
# Total GULP energy -267451.887153 kJ/mol
# GULP energy per Si atom -5571.914316 kJ/mol
# Density = 1.013561 g / cm^3
# Si number density = 10.158730 Si / 1000 Ang^3
#
#
#
# Elastic Constant Matrix: (Units=GPa)
#
#
# Indices 1 2 3 4 5 6 
#
# 1 137.1086 46.0891 19.6566 0.0000 0.0000 0.0000
# 2 46.0891 137.1086 19.6566 0.0000 0.0000 0.0000
# 3 19.6566 19.6566 22.7529 0.0000 0.0000 0.0000
# 4 0.0000 0.0000 0.0000 26.1720 0.0000 0.0000
# 5 0.0000 0.0000 0.0000 0.0000 26.1720 0.0000
# 6 0.0000 0.0000 0.0000 0.0000 0.0000 31.4509
#
#
#
# Elastic Compliance Matrix: (Units=1/GPa)
#
#
# Indices 1 2 3 4 5 6 
#
# 1 0.008844 -0.002143 -0.005789 0.000000 0.000000 0.000000
# 2 -0.002143 0.008844 -0.005789 0.000000 0.000000 0.000000
# 3 -0.005789 -0.005789 0.053953 0.000000 0.000000 0.000000
# 4 0.000000 0.000000 0.000000 0.038209 0.000000 0.000000
# 5 0.000000 0.000000 0.000000 0.000000 0.038209 0.000000
# 6 0.000000 0.000000 0.000000 0.000000 0.000000 0.031796
#
#
# Mechanical properties :
#
#
# Convention : Reuss Voigt Hill
#
# Bulk Modulus (GPa) = 22.62514 51.97499 37.30006
# Shear Modulus (GPa) = 22.51966 30.86349 26.69158
#
# Velocity S-wave (km/s) = 3.33286 3.90174 3.62847
# Velocity P-wave (km/s) = 5.09613 6.77754 5.99607
#
# Compressibility (1/GPa) = 0.04419863
#
# Stress axis : x y z
#
# Youngs Moduli (GPa) = 113.07404 113.07404 18.53469
#
# Poissons Ratio (x) = 0.24231 0.10730
# Poissons Ratio (y) = 0.24231 0.10730
# Poissons Ratio (z) = 0.65459 0.65459
#
# Static dielectric constant tensor:
#      x y z
#    x 1.762360 0.000000 0.000000 
#    y 0.000000 1.762360 0.000000 
#    z 0.000000 0.000000 1.745630 
# 
# From -- ./inp_files/2207.got.cif
#   From: 2010.05.17/outbox.ucp.g08.bks.cvg/sg110_2_cif.got.tgz:2207.got - 2010.06.11 11:32:47.
