data_PCOD9554198
_publ_section_title
;
Structure prediction by ZEFSAII (Michael W. Deem and Ramdas Pophale) SiO2 
 PCOD9554198
Probable space group: I 41 M D
;
_chemical_formula_sum "Si O2"
_cell_formula_units_Z 120
_cell_length_a 26.394263
_cell_length_b 26.394263
_cell_length_c 9.095195
_cell_angle_alpha 90.000000
_cell_angle_beta 90.000000
_cell_angle_gamma 90.000000
_cell_volume 6336.232348
_symmetry_space_group_name_H-M "I 41 M D"
_symmetry_group_IT_number 109
_symmetry_cell_setting 'tetragonal'
loop_
_space_group_symop_operation_xyz
x,y,z
-y,1/2+x,1/4+z
-x,-y,z
y,1/2-x,1/4+z
-x,y,z
x,-y,z
-y,1/2-x,1/4+z
y,1/2+x,1/4+z
1/2+x,1/2+y,1/2+z
1/2-y,x,3/4+z
1/2-x,1/2-y,1/2+z
1/2+y,-x,3/4+z
1/2-x,1/2+y,1/2+z
1/2+x,1/2-y,1/2+z
1/2-y,-x,3/4+z
1/2+y,x,3/4+z
loop_
_atom_site_type_symbol
_atom_site_label
_atom_site_fract_x
_atom_site_fract_y
_atom_site_fract_z
Si Si1 0.270881 0.798554 0.897240
Si Si2 0.634777 0.000000 0.425659
Si Si3 0.281715 0.441075 0.729237
Si Si4 0.852966 0.419337 0.153765
Si Si5 0.676094 0.096431 0.236034
Si Si6 0.178466 0.151268 0.724433
Si Si7 0.128513 0.133770 0.188715
Si Si8 0.734895 0.557544 0.082271
O O1 0.289419 0.748680 0.811817
O O2 0.223770 0.817070 0.796669
O O3 0.315402 0.839482 0.902236
O O4 0.617474 0.956124 0.545610
O O5 0.657990 0.954472 0.319204
O O6 0.283122 0.500000 0.690007
O O7 0.231391 0.414284 0.668699
O O8 0.332023 0.412281 0.681167
O O9 0.273193 0.437516 0.906635
O O10 0.867527 0.417576 0.323749
O O11 0.794014 0.434856 0.125144
O O12 0.860117 0.361974 0.100560
O O13 0.677813 0.144031 0.348766
O O14 0.638336 0.109565 0.105035
O O15 0.202428 0.100505 0.659288
O O16 0.721039 0.500000 0.122589
#
# Coordination Sequence:
#
# PCOD9554198 Si02
#       8
#    16   8  16  16  16  16  16  16
#     4  12  26  37  52  83 129 179 215 247 314 392
#     4  10  20  42  64  86 111 170 208 261 304 386
#     4  11  22  41  61  90 128 170 212 264 317 383
#     4  11  21  40  60  85 129 160 207 251 317 364
#     4  11  22  38  64  89 123 167 220 256 317 372
#     4  11  21  38  56  84 123 166 208 255 305 387
#     4  12  25  37  58  95 125 161 208 271 320 379
#     4  11  19  37  63  86 115 164 211 254 308 377
#
# _framework density 18.938699
#
# number of rings (size 3 to 8) (size 9 to 14) (size 15 to 20)
#    0.000    0.800    8.000    0.800    3.733    0.533 
#    0.000    2.000    0.000    0.000    0.000   17.733 
#    0.000    0.000    0.000    0.000    0.000    0.000 
#
# Total GULP energy -334023.371790 kJ/mol
# GULP energy per Si atom -5567.056197 kJ/mol
# Density = 1.889559 g / cm^3
# Si number density = 18.938699 Si / 1000 Ang^3
#
#
#
# Elastic Constant Matrix: (Units=GPa)
#
#
# Indices 1 2 3 4 5 6 
#
# 1 54.7857 11.8451 -0.3663 0.0000 0.0000 0.0000
# 2 11.8451 54.7857 -0.3663 0.0000 0.0000 0.0000
# 3 -0.3663 -0.3663 50.4659 0.0000 0.0000 0.0000
# 4 0.0000 0.0000 0.0000 22.0272 0.0000 0.0000
# 5 0.0000 0.0000 0.0000 0.0000 22.0272 0.0000
# 6 0.0000 0.0000 0.0000 0.0000 0.0000 7.8877
#
#
#
# Elastic Compliance Matrix: (Units=1/GPa)
#
#
# Indices 1 2 3 4 5 6 
#
# 1 0.019149 -0.004139 0.000109 0.000000 0.000000 0.000000
# 2 -0.004139 0.019149 0.000109 0.000000 0.000000 0.000000
# 3 0.000109 0.000109 0.019817 0.000000 0.000000 0.000000
# 4 0.000000 0.000000 0.000000 0.045398 0.000000 0.000000
# 5 0.000000 0.000000 0.000000 0.000000 0.045398 0.000000
# 6 0.000000 0.000000 0.000000 0.000000 0.000000 0.126780
#
#
# Mechanical properties :
#
#
# Convention : Reuss Voigt Hill
#
# Bulk Modulus (GPa) = 19.89208 20.25137 20.07172
# Shear Modulus (GPa) = 16.65051 20.31673 18.48362
#
# Velocity S-wave (km/s) = 2.96831 3.27886 3.12744
# Velocity P-wave (km/s) = 4.71954 5.00509 4.86441
#
# Compressibility (1/GPa) = 0.05027126
#
# Stress axis : x y z
#
# Youngs Moduli (GPa) = 52.22311 52.22311 50.46186
#
# Poissons Ratio (x) = 0.21617 -0.00550
# Poissons Ratio (y) = 0.21617 -0.00550
# Poissons Ratio (z) = -0.00569 -0.00569
#
# Static dielectric constant tensor:
#      x y z
#    x 1.646320 0.000000 0.000000 
#    y 0.000000 1.646320 0.000000 
#    z 0.000000 0.000000 1.722210 
# 
# From -- ./inp_files/1583.got.cif
#   From: 2010.05.17/outbox.cif.g08.bks.cpg/sg109_1_cif.got.tgz:1583.got - 2010.05.20 10:51:12.
