data_PCOD9554812
_publ_section_title
;
Structure prediction by ZEFSAII (Michael W. Deem and Ramdas Pophale) SiO2 
 PCOD9554812
Probable space group: P -4 2 M 
;
_chemical_formula_sum "Si O2"
_cell_formula_units_Z 48
_cell_length_a 12.143113
_cell_length_b 12.143113
_cell_length_c 15.665380
_cell_angle_alpha 90.000000
_cell_angle_beta 90.000000
_cell_angle_gamma 90.000000
_cell_volume 2309.941636
_symmetry_space_group_name_H-M "P -4 2 M "
_symmetry_group_IT_number 111
_symmetry_cell_setting 'tetragonal'
loop_
_space_group_symop_operation_xyz
x,y,z
y,-x,-z
-x,-y,z
-y,x,-z
x,-y,-z
-x,y,-z
-y,-x,z
y,x,z
loop_
_atom_site_type_symbol
_atom_site_label
_atom_site_fract_x
_atom_site_fract_y
_atom_site_fract_z
Si Si1 0.827467 0.353174 0.849566
Si Si2 0.617419 0.198561 0.492083
Si Si3 0.299650 0.881805 0.666614
Si Si4 0.131534 0.313884 0.687224
Si Si5 0.603496 0.217588 0.131026
Si Si6 0.046551 0.221960 0.910804
O O1 0.728165 0.271836 0.872873
O O2 0.829527 0.365711 0.745993
O O3 0.803913 0.474792 0.886913
O O4 0.940815 0.286422 0.870629
O O5 0.500000 0.254365 0.500000
O O6 0.712182 0.287819 0.492226
O O7 0.640496 0.124950 0.575328
O O8 0.619266 0.140715 0.400545
O O9 0.187893 0.812108 0.659751
O O10 0.278547 0.006232 0.692537
O O11 0.208463 0.208463 0.678202
O O12 0.173758 0.374915 0.771900
O O13 0.660682 0.339319 0.124853
O O14 0.681046 0.136394 0.076194
O O15 0.120339 0.120339 0.870786
O O16 0.000000 0.180292 0.000000
#
# Coordination Sequence:
#
# PCOD9554812 Si02
#       6
#     8   8   8   8   8   8
#     4  11  23  38  61  91 125 164 202 249 310 366
#     4  10  21  35  53  78 109 150 200 249 297 349
#     4  10  21  35  53  84 119 152 197 248 299 357
#     4  10  20  36  57  82 114 157 202 244 296 355
#     4  10  22  40  62  90 122 161 210 254 299 362
#     4  11  24  43  67  94 123 156 197 248 301 364
#
# _framework density 20.779744999999998
#
# number of rings (size 3 to 8) (size 9 to 14) (size 15 to 20)
#    0.000    1.667    1.667    2.500    0.000    6.000 
#    0.000    1.667    0.000    9.000    0.000    2.333 
#    0.000    0.000    0.000    0.000    0.000    0.000 
#
# Total GULP energy -267467.452179 kJ/mol
# GULP energy per Si atom -5572.238587 kJ/mol
# Density = 2.073245 g / cm^3
# Si number density = 20.779745 Si / 1000 Ang^3
#
#
#
# Elastic Constant Matrix: (Units=GPa)
#
#
# Indices 1 2 3 4 5 6 
#
# 1 90.2290 89.6595 14.4353 0.0000 0.0000 0.0000
# 2 89.6595 90.2400 14.4379 0.0000 0.0000 0.0000
# 3 14.4353 14.4379 58.4178 0.0000 0.0000 0.0000
# 4 0.0000 0.0000 0.0000 21.1384 0.0000 0.0000
# 5 0.0000 0.0000 0.0000 0.0000 21.1392 0.0000
# 6 0.0000 0.0000 0.0000 0.0000 0.0000 0.2972
#
#
#
# Elastic Compliance Matrix: (Units=1/GPa)
#
#
# Indices 1 2 3 4 5 6 
#
# 1 0.872571 -0.866734 -0.001405 0.000000 0.000000 0.000000
# 2 -0.866734 0.872473 -0.001456 0.000000 0.000000 0.000000
# 3 -0.001405 -0.001456 0.017825 0.000000 0.000000 0.000000
# 4 0.000000 0.000000 0.000000 0.047307 0.000000 0.000000
# 5 0.000000 0.000000 0.000000 0.000000 0.047305 0.000000
# 6 0.000000 0.000000 0.000000 0.000000 0.000000 3.365021
#
#
# Mechanical properties :
#
#
# Convention : Reuss Voigt Hill
#
# Bulk Modulus (GPa) = 42.22964 52.88358 47.55661
# Shear Modulus (GPa) = 0.71740 16.53856 8.62798
#
# Velocity S-wave (km/s) = 0.58821 2.82423 2.03988
# Velocity P-wave (km/s) = 4.56376 6.01164 5.33703
#
# Compressibility (1/GPa) = 0.02368005
#
# Stress axis : x y z
#
# Youngs Moduli (GPa) = 1.14604 1.14617 56.10068
#
# Poissons Ratio (x) = 0.99342 0.07883
# Poissons Ratio (y) = 0.99331 0.08167
# Poissons Ratio (z) = 0.00161 0.00167
#
# Static dielectric constant tensor:
#      x y z
#    x 1.725230 0.000000 0.000000 
#    y 0.000000 1.725230 0.000000 
#    z 0.000000 0.000000 1.848380 
# 
# From -- ./inp_files/3648.got.cif
#   From: 2010.05.17/outbox.cif.g08.bks.cpg/sg111_2_cif.got.tgz:3648.got - 2010.05.20 10:56:05.
