data_PCOD9554547
_publ_section_title
;
Structure prediction by ZEFSAII (Michael W. Deem and Ramdas Pophale) SiO2 
 PCOD9554547
Probable space group: I 41 C D
;
_chemical_formula_sum "Si O2"
_cell_formula_units_Z 96
_cell_length_a 13.703313
_cell_length_b 13.703313
_cell_length_c 20.943330
_cell_angle_alpha 90.000000
_cell_angle_beta 90.000000
_cell_angle_gamma 90.000000
_cell_volume 3932.754993
_symmetry_space_group_name_H-M "I 41 C D"
_symmetry_group_IT_number 110
_symmetry_cell_setting 'tetragonal'
loop_
_space_group_symop_operation_xyz
x,y,z
-y,1/2+x,1/4+z
-x,-y,z
y,1/2-x,1/4+z
-x,y,1/2+z
x,-y,1/2+z
1/2-y,-x,1/4+z
1/2+y,x,1/4+z
1/2+x,1/2+y,1/2+z
1/2-y,x,3/4+z
1/2-x,1/2-y,1/2+z
1/2+y,-x,3/4+z
1/2-x,1/2+y,z
1/2+x,1/2-y,z
-y,1/2-x,3/4+z
y,1/2+x,3/4+z
loop_
_atom_site_type_symbol
_atom_site_label
_atom_site_fract_x
_atom_site_fract_y
_atom_site_fract_z
Si Si1 0.500000 0.500000 0.786090
Si Si2 0.925736 0.832490 0.372819
Si Si3 0.915613 0.329040 0.249007
Si Si4 0.500000 0.000000 0.333222
Si Si5 0.138019 0.775716 0.417873
Si Si6 0.947163 0.854016 0.684213
Si Si7 0.703018 0.737794 0.558418
O O1 0.439134 0.427120 0.828947
O O2 0.565497 0.434749 0.739499
O O3 0.884918 0.868745 0.439822
O O4 0.854609 0.759343 0.336589
O O5 0.030800 0.788026 0.389213
O O6 0.974349 0.405929 0.291388
O O7 0.823993 0.275240 0.282608
O O8 0.982230 0.242818 0.219606
O O9 0.594215 0.010814 0.379806
O O10 0.167334 0.661644 0.409748
O O11 0.143804 0.792033 0.494422
O O12 0.208888 0.839509 0.372084
#
# Coordination Sequence:
#
# PCOD9554547 Si02
#       7
#     8  16  16   8  16  16  16
#     4  11  27  44  70 110 155 205 256 338 388 468
#     4  12  25  45  75 114 152 205 277 327 400 478
#     4  11  22  45  77 113 157 209 266 332 396 488
#     4  11  21  40  82 112 149 217 262 332 404 476
#     4  11  24  47  78 110 158 213 269 327 401 488
#     4  10  23  46  73 106 160 207 259 326 404 479
#     4  11  23  49  77 109 162 214 261 337 410 475
#
# _framework density 24.410368999999999
#
# number of rings (size 3 to 8) (size 9 to 14) (size 15 to 20)
#    0.000    1.000    5.000    2.500    2.333    1.333 
#    6.000    1.667    3.667    0.000    0.000    0.000 
#    0.000    0.000    0.000    0.000    0.000    0.000 
#
# Total GULP energy -268578.865785 kJ/mol
# GULP energy per Si atom -5595.393037 kJ/mol
# Density = 2.435481 g / cm^3
# Si number density = 24.410369 Si / 1000 Ang^3
#
#
#
# Elastic Constant Matrix: (Units=GPa)
#
#
# Indices 1 2 3 4 5 6 
#
# 1 112.0181 51.9537 62.5447 0.0000 0.0000 0.0000
# 2 51.9537 112.0181 62.5447 0.0000 0.0000 0.0000
# 3 62.5447 62.5447 172.2869 0.0000 0.0000 0.0000
# 4 0.0000 0.0000 0.0000 49.6894 0.0000 0.0000
# 5 0.0000 0.0000 0.0000 0.0000 49.6894 0.0000
# 6 0.0000 0.0000 0.0000 0.0000 0.0000 32.8950
#
#
#
# Elastic Compliance Matrix: (Units=1/GPa)
#
#
# Indices 1 2 3 4 5 6 
#
# 1 0.012542 -0.004107 -0.003062 0.000000 0.000000 0.000000
# 2 -0.004107 0.012542 -0.003062 0.000000 0.000000 0.000000
# 3 -0.003062 -0.003062 0.008027 0.000000 0.000000 0.000000
# 4 0.000000 0.000000 0.000000 0.020125 0.000000 0.000000
# 5 0.000000 0.000000 0.000000 0.000000 0.020125 0.000000
# 6 0.000000 0.000000 0.000000 0.000000 0.000000 0.030400
#
#
# Mechanical properties :
#
#
# Convention : Reuss Voigt Hill
#
# Bulk Modulus (GPa) = 79.06014 83.37883 81.21949
# Shear Modulus (GPa) = 38.92906 41.07342 40.00124
#
# Velocity S-wave (km/s) = 3.99780 4.10643 4.05248
# Velocity P-wave (km/s) = 7.33267 7.53093 7.43246
#
# Compressibility (1/GPa) = 0.01264860
#
# Stress axis : x y z
#
# Youngs Moduli (GPa) = 79.73435 79.73435 124.57330
#
# Poissons Ratio (x) = 0.32748 0.38144
# Poissons Ratio (y) = 0.32748 0.38144
# Poissons Ratio (z) = 0.24414 0.24414
#
# Static dielectric constant tensor:
#      x y z
#    x 1.953430 0.000000 0.000000 
#    y 0.000000 1.953430 0.000000 
#    z 0.000000 0.000000 2.018130 
# 
# From -- ./inp_files/2231.got.cif
#   From: 2010.05.17/outbox.cif.g08.bks.cpg/sg110_2_cif.got.tgz:2231.got - 2010.05.20 10:54:03.
