data_PCOD9554700
_publ_section_title
;
Structure prediction by ZEFSAII (Michael W. Deem and Ramdas Pophale) SiO2 
 PCOD9554700
Probable space group: P -4 2 M 
;
_chemical_formula_sum "Si O2"
_cell_formula_units_Z 64
_cell_length_a 12.367903
_cell_length_b 12.367903
_cell_length_c 26.918214
_cell_angle_alpha 90.000000
_cell_angle_beta 90.000000
_cell_angle_gamma 90.000000
_cell_volume 4117.545267
_symmetry_space_group_name_H-M "P -4 2 M "
_symmetry_group_IT_number 111
_symmetry_cell_setting 'tetragonal'
loop_
_space_group_symop_operation_xyz
x,y,z
y,-x,-z
-x,-y,z
-y,x,-z
x,-y,-z
-x,y,-z
-y,-x,z
y,x,z
loop_
_atom_site_type_symbol
_atom_site_label
_atom_site_fract_x
_atom_site_fract_y
_atom_site_fract_z
Si Si1 0.372914 0.805002 0.372054
Si Si2 0.372922 0.195008 0.372056
Si Si3 0.500000 0.869413 0.077533
Si Si4 0.868673 0.687073 1.000000
Si Si5 0.694951 0.127076 0.261963
Si Si6 0.000005 0.368565 0.443213
Si Si7 0.500004 0.868475 0.809382
Si Si8 0.872915 0.694941 0.261966
O O1 0.302031 0.697970 0.377062
O O2 0.499995 0.784537 0.378341
O O3 0.352721 0.852635 0.317000
O O4 0.336740 0.894088 0.412262
O O5 0.302046 0.302046 0.377062
O O6 0.336745 0.105930 0.412266
O O7 0.352726 0.147368 0.317004
O O8 0.608552 0.841792 0.046826
O O9 0.500000 0.829268 0.133979
O O10 0.500000 0.000000 0.078879
O O11 0.391448 0.841792 0.046826
O O12 0.794326 0.794326 1.000000
O O13 0.000000 0.707817 0.000000
O O14 0.801927 0.198074 0.256928
O O15 0.605877 0.162943 0.221703
O O16 0.715608 0.999995 0.255761
O O17 0.000000 0.500000 0.443786
O O18 0.000000 0.330721 0.500000
O O19 0.394139 0.837052 0.778292
O O20 0.500000 0.000000 0.810244
O O21 0.801911 0.801911 0.256929
#
# Coordination Sequence:
#
# PCOD9554700 Si02
#       8
#     8   8   8   8   8   8   8   8
#     4  10  19  32  51  73 100 130 164 205 251 298
#     4  10  19  32  51  73 100 130 164 205 251 298
#     4   8  16  31  48  70  96 132 176 206 239 288
#     4   9  17  30  50  74 103 135 168 210 254 295
#     4  10  19  31  49  73  99 130 163 202 250 299
#     4   9  18  32  52  73  95 127 165 202 243 293
#     4   9  17  30  51  71  94 130 170 210 243 287
#     4  10  19  31  49  73  99 130 163 202 250 299
#
# _framework density 15.543240000000001
#
# number of rings (size 3 to 8) (size 9 to 14) (size 15 to 20)
#    0.000    2.625    2.500    0.750    0.000    2.125 
#    0.000    0.000    0.000    3.750    0.000   14.875 
#    0.000    0.000    0.000    0.000    0.000    0.000 
#
# Total GULP energy -356435.539218 kJ/mol
# GULP energy per Si atom -5569.305300 kJ/mol
# Density = 1.550786 g / cm^3
# Si number density = 15.543240 Si / 1000 Ang^3
#
#
#
# Elastic Constant Matrix: (Units=GPa)
#
#
# Indices 1 2 3 4 5 6 
#
# 1 87.4472 58.7887 46.0870 0.0000 0.0000 0.0000
# 2 58.7887 87.4481 46.0880 0.0000 0.0000 0.0000
# 3 46.0870 46.0880 141.8514 0.0000 0.0000 0.0000
# 4 0.0000 0.0000 0.0000 5.8087 0.0000 0.0000
# 5 0.0000 0.0000 0.0000 0.0000 5.8106 0.0000
# 6 0.0000 0.0000 0.0000 0.0000 0.0000 8.3954
#
#
#
# Elastic Compliance Matrix: (Units=1/GPa)
#
#
# Indices 1 2 3 4 5 6 
#
# 1 0.021746 -0.013147 -0.002794 0.000000 0.000000 0.000000
# 2 -0.013147 0.021746 -0.002794 0.000000 0.000000 0.000000
# 3 -0.002794 -0.002794 0.008865 0.000000 0.000000 0.000000
# 4 0.000000 0.000000 0.000000 0.172155 0.000000 0.000000
# 5 0.000000 0.000000 0.000000 0.000000 0.172098 0.000000
# 6 0.000000 0.000000 0.000000 0.000000 0.000000 0.119112
#
#
# Mechanical properties :
#
#
# Convention : Reuss Voigt Hill
#
# Bulk Modulus (GPa) = 67.16795 68.74157 67.95476
# Shear Modulus (GPa) = 8.95808 15.05516 12.00662
#
# Velocity S-wave (km/s) = 2.40330 3.11561 2.78234
# Velocity P-wave (km/s) = 7.14203 7.56735 7.35776
#
# Compressibility (1/GPa) = 0.01488805
#
# Stress axis : x y z
#
# Youngs Moduli (GPa) = 45.98493 45.98512 112.80175
#
# Poissons Ratio (x) = 0.60456 0.31515
# Poissons Ratio (y) = 0.60456 0.31517
# Poissons Ratio (z) = 0.12847 0.12848
#
# Static dielectric constant tensor:
#      x y z
#    x 1.496420 0.000000 0.000000 
#    y 0.000000 1.496420 0.000000 
#    z 0.000000 0.000000 1.533780 
# 
# From -- ./inp_files/4376.got.cif
#   From: 2010.05.17/outbox.cif.g08.bks.cpg/sg111_3_cif.got.tgz:4376.got - 2010.05.20 10:56:05.
