data_PCOD9554080
_publ_section_title
;
Structure prediction by ZEFSAII (Michael W. Deem and Ramdas Pophale) SiO2 
 PCOD9554080
Probable space group: I 41 M D
;
_chemical_formula_sum "Si O2"
_cell_formula_units_Z 128
_cell_length_a 18.032388
_cell_length_b 18.032388
_cell_length_c 23.526288
_cell_angle_alpha 90.000000
_cell_angle_beta 90.000000
_cell_angle_gamma 90.000000
_cell_volume 7649.972890
_symmetry_space_group_name_H-M "I 41 M D"
_symmetry_group_IT_number 109
_symmetry_cell_setting 'tetragonal'
loop_
_space_group_symop_operation_xyz
x,y,z
-y,1/2+x,1/4+z
-x,-y,z
y,1/2-x,1/4+z
-x,y,z
x,-y,z
-y,1/2-x,1/4+z
y,1/2+x,1/4+z
1/2+x,1/2+y,1/2+z
1/2-y,x,3/4+z
1/2-x,1/2-y,1/2+z
1/2+y,-x,3/4+z
1/2-x,1/2+y,1/2+z
1/2+x,1/2-y,1/2+z
1/2-y,-x,3/4+z
1/2+y,x,3/4+z
loop_
_atom_site_type_symbol
_atom_site_label
_atom_site_fract_x
_atom_site_fract_y
_atom_site_fract_z
Si Si1 0.173326 0.414021 0.894220
Si Si2 0.707213 0.585375 0.485897
Si Si3 0.584812 0.724067 0.862367
Si Si4 0.178021 0.702971 0.461104
Si Si5 0.085979 0.326674 0.573832
Si Si6 0.584812 0.224067 0.355685
Si Si7 0.821979 0.797029 0.756948
Si Si8 0.914625 0.792787 0.982155
O O1 0.150756 0.500000 0.895984
O O2 0.250000 0.408792 0.859026
O O3 0.115073 0.359121 0.864391
O O4 0.186033 0.381007 0.957202
O O5 0.700429 0.500000 0.468392
O O6 0.736936 0.587655 0.550817
O O7 0.769435 0.631702 0.451580
O O8 0.630905 0.630905 0.484026
O O9 0.500000 0.723932 0.882417
O O10 0.637049 0.767669 0.905674
O O11 0.615073 0.640879 0.853661
O O12 0.118993 0.686033 0.510850
O O13 0.233304 0.766696 0.484026
O O14 0.000000 0.349244 0.572068
O O15 0.500000 0.223932 0.335635
O O16 0.637049 0.267669 0.312378
O O17 0.587655 0.263064 0.417235
O O18 0.769435 0.868298 0.766472
O O19 0.000000 0.799571 0.999660
#
# Coordination Sequence:
#
# PCOD9554080 Si02
#       8
#    16  16  16  16  16  16  16  16
#     4  10  19  31  50  75 103 137 174 209 252 302
#     4   9  20  35  55  78 103 134 171 214 264 315
#     4  10  20  35  53  76 104 137 174 215 260 305
#     4  10  18  32  54  76 104 136 176 211 249 299
#     4  10  19  31  50  75 103 137 174 209 252 302
#     4  10  20  35  53  76 104 137 174 215 260 305
#     4  10  18  32  54  76 104 136 176 211 249 299
#     4   9  20  35  55  78 103 134 171 214 264 315
#
# _framework density 16.732085999999999
#
# number of rings (size 3 to 8) (size 9 to 14) (size 15 to 20)
#    0.000    2.250    2.500    0.750    0.000    0.750 
#    0.000    2.500    0.000    3.750    0.000    0.000 
#    0.000    0.000    0.000    0.000    0.000    0.000 
#
# Total GULP energy -356972.825350 kJ/mol
# GULP energy per Si atom -5577.700396 kJ/mol
# Density = 1.669400 g / cm^3
# Si number density = 16.732086 Si / 1000 Ang^3
#
#
#
# Elastic Constant Matrix: (Units=GPa)
#
#
# Indices 1 2 3 4 5 6 
#
# 1 143.4331 74.0620 29.1100 0.0000 0.0000 0.0000
# 2 74.0620 143.4331 29.1100 0.0000 0.0000 0.0000
# 3 29.1100 29.1100 24.4671 0.0000 0.0000 0.0000
# 4 0.0000 0.0000 0.0000 14.3837 0.0000 0.0000
# 5 0.0000 0.0000 0.0000 0.0000 14.3837 0.0000
# 6 0.0000 0.0000 0.0000 0.0000 0.0000 14.3415
#
#
#
# Elastic Compliance Matrix: (Units=1/GPa)
#
#
# Indices 1 2 3 4 5 6 
#
# 1 0.010581 -0.003834 -0.008027 0.000000 0.000000 0.000000
# 2 -0.003834 0.010581 -0.008027 0.000000 0.000000 0.000000
# 3 -0.008027 -0.008027 0.059971 0.000000 0.000000 0.000000
# 4 0.000000 0.000000 0.000000 0.069523 0.000000 0.000000
# 5 0.000000 0.000000 0.000000 0.000000 0.069523 0.000000
# 6 0.000000 0.000000 0.000000 0.000000 0.000000 0.069728
#
#
# Mechanical properties :
#
#
# Convention : Reuss Voigt Hill
#
# Bulk Modulus (GPa) = 24.17969 63.98861 44.08415
# Shear Modulus (GPa) = 14.55744 20.55853 17.55798
#
# Velocity S-wave (km/s) = 2.95283 3.50907 3.24290
# Velocity P-wave (km/s) = 5.10961 7.39893 6.35815
#
# Compressibility (1/GPa) = 0.04135702
#
# Stress axis : x y z
#
# Youngs Moduli (GPa) = 94.51068 94.51068 16.67484
#
# Poissons Ratio (x) = 0.36239 0.13384
# Poissons Ratio (y) = 0.36239 0.13384
# Poissons Ratio (z) = 0.75860 0.75860
#
# Static dielectric constant tensor:
#      x y z
#    x 1.557830 0.000000 0.000000 
#    y 0.000000 1.557830 0.000000 
#    z 0.000000 0.000000 1.553050 
# 
# From -- ./inp_files/4539.got.cif
#   From: 2010.05.17/outbox.cif.g08.bks.cpg/sg109_3_cif.got.tgz:4539.got - 2010.05.20 10:51:12.
