data_PCOD9554021
_publ_section_title
;
Structure prediction by ZEFSAII (Michael W. Deem and Ramdas Pophale) SiO2 
 PCOD9554021
Probable space group: I 4 C M
;
_chemical_formula_sum "Si O2"
_cell_formula_units_Z 112
_cell_length_a 14.410552
_cell_length_b 14.410552
_cell_length_c 28.734290
_cell_angle_alpha 90.000000
_cell_angle_beta 90.000000
_cell_angle_gamma 90.000000
_cell_volume 5967.077856
_symmetry_space_group_name_H-M "I 4 C M"
_symmetry_group_IT_number 108
_symmetry_cell_setting 'tetragonal'
loop_
_space_group_symop_operation_xyz
x,y,z
-y,x,z
-x,-y,z
y,-x,z
-x,y,1/2+z
x,-y,1/2+z
-y,-x,1/2+z
y,x,1/2+z
1/2+x,1/2+y,1/2+z
1/2-y,1/2+x,1/2+z
1/2-x,1/2-y,1/2+z
1/2+y,1/2-x,1/2+z
1/2-x,1/2+y,z
1/2+x,1/2-y,z
1/2-y,1/2-x,z
1/2+y,1/2+x,z
loop_
_atom_site_type_symbol
_atom_site_label
_atom_site_fract_x
_atom_site_fract_y
_atom_site_fract_z
Si Si1 0.344447 0.485212 0.901650
Si Si2 0.844946 0.980999 0.509209
Si Si3 0.077281 0.863424 0.245501
Si Si4 0.667128 0.320227 0.648599
Si Si5 0.211166 0.555081 0.318753
Si Si6 0.251496 0.492739 0.102492
Si Si7 0.579660 0.079660 0.263931
Si Si8 0.923266 0.576735 0.157976
O O1 0.419865 0.402754 0.894472
O O2 0.260680 0.476654 0.865952
O O3 0.314180 0.479611 0.955577
O O4 0.766781 0.971865 0.548309
O O5 0.922401 0.900961 0.515892
O O6 0.115104 0.819214 0.197907
O O7 0.098678 0.792493 0.286852
O O8 0.966076 0.878805 0.247784
O O9 0.763760 0.263760 0.650520
O O10 0.678718 0.425323 0.630928
O O11 0.599305 0.271816 0.612184
O O12 0.130854 0.630854 0.326686
O O13 0.164641 0.468808 0.290928
O O14 0.156273 0.467340 0.126790
O O15 0.605707 0.105707 0.210642
O O16 0.500000 0.000000 0.262788
O O17 0.000000 0.500000 0.165953
#
# Coordination Sequence:
#
# PCOD9554021 Si02
#       8
#    16  16  16  16  16  16   8   8
#     4   9  19  40  65  91 120 155 198 255 319 372
#     4   9  18  35  65  93 120 158 200 253 317 374
#     4  11  23  39  59  87 122 158 200 258 310 361
#     4  12  24  38  58  91 128 163 205 257 310 369
#     4  11  22  40  62  88 121 159 205 254 309 374
#     4  12  22  38  63  90 124 163 212 258 307 373
#     4   9  22  42  64  81 116 172 211 238 295 373
#     4  11  24  44  62  85 126 179 215 248 307 386
#
# _framework density 18.769656000000001
#
# number of rings (size 3 to 8) (size 9 to 14) (size 15 to 20)
#    0.000    1.429    3.571    3.429    0.000    2.571 
#    6.429    0.000    3.143    0.000    0.000    0.000 
#    0.000    0.000    0.000    0.000    0.000    0.000 
#
# Total GULP energy -312580.812198 kJ/mol
# GULP energy per Si atom -5581.800218 kJ/mol
# Density = 1.872693 g / cm^3
# Si number density = 18.769656 Si / 1000 Ang^3
#
#
#
# Elastic Constant Matrix: (Units=GPa)
#
#
# Indices 1 2 3 4 5 6 
#
# 1 77.9658 8.3002 50.3414 0.0000 0.0000 -0.0002
# 2 8.3002 77.9658 50.3414 0.0000 0.0000 0.0002
# 3 50.3414 50.3414 157.9483 0.0000 0.0000 0.0000
# 4 0.0000 0.0000 0.0000 44.3029 0.0000 0.0000
# 5 0.0000 0.0000 0.0000 0.0000 44.3029 0.0000
# 6 -0.0002 0.0002 0.0000 0.0000 0.0000 17.9219
#
#
#
# Elastic Compliance Matrix: (Units=1/GPa)
#
#
# Indices 1 2 3 4 5 6 
#
# 1 0.016406 0.002052 -0.005883 0.000000 0.000000 0.000000
# 2 0.002052 0.016406 -0.005883 0.000000 0.000000 0.000000
# 3 -0.005883 -0.005883 0.010081 0.000000 0.000000 0.000000
# 4 0.000000 0.000000 0.000000 0.022572 0.000000 0.000000
# 5 0.000000 0.000000 0.000000 0.000000 0.022572 0.000000
# 6 0.000000 0.000000 0.000000 0.000000 0.000000 0.055798
#
#
# Mechanical properties :
#
#
# Convention : Reuss Voigt Hill
#
# Bulk Modulus (GPa) = 42.61544 59.09401 50.85473
# Shear Modulus (GPa) = 29.22517 34.96533 32.09525
#
# Velocity S-wave (km/s) = 3.95022 4.32077 4.13965
# Velocity P-wave (km/s) = 6.59995 7.51294 7.07120
#
# Compressibility (1/GPa) = 0.02346567
#
# Stress axis : x y z
#
# Youngs Moduli (GPa) = 60.95226 60.95226 99.19373
#
# Poissons Ratio (x) = -0.12507 0.58356
# Poissons Ratio (y) = -0.12507 0.58356
# Poissons Ratio (z) = 0.35858 0.35858
#
# Static dielectric constant tensor:
#      x y z
#    x 1.646430 0.000000 0.000000 
#    y 0.000000 1.646430 0.000000 
#    z 0.000000 0.000000 1.642670 
# 
# From -- ./inp_files/3393.got.cif
#   From: 2010.05.17/outbox.cif.g08.bks.cpg/sg108_2_cif.got.tgz:3393.got - 2010.05.20 10:49:05.
