data_PCOD9554968
_publ_section_title
;
Structure prediction by ZEFSAII (Michael W. Deem and Ramdas Pophale) SiO2 
 PCOD9554968
Probable space group: P -4 2 C
;
_chemical_formula_sum "Si O2"
_cell_formula_units_Z 36
_cell_length_a 12.831372
_cell_length_b 12.831372
_cell_length_c 8.666537
_cell_angle_alpha 90.000000
_cell_angle_beta 90.000000
_cell_angle_gamma 90.000000
_cell_volume 1426.894249
_symmetry_space_group_name_H-M "P -4 2 C"
_symmetry_group_IT_number 112
_symmetry_cell_setting 'tetragonal'
loop_
_space_group_symop_operation_xyz
x,y,z
y,-x,-z
-x,-y,z
-y,x,-z
x,-y,1/2-z
-x,y,1/2-z
-y,-x,1/2+z
y,x,1/2+z
loop_
_atom_site_type_symbol
_atom_site_label
_atom_site_fract_x
_atom_site_fract_y
_atom_site_fract_z
Si Si1 0.167396 0.866732 0.973078
Si Si2 0.500000 0.500000 0.500000
Si Si3 0.614260 0.184735 0.064823
Si Si4 0.150135 0.500000 0.250000
Si Si5 0.000000 0.844228 0.750000
Si Si6 0.500000 0.347304 0.250000
Si Si7 0.000000 0.684586 0.250000
Si Si8 0.500000 0.000000 0.250000
O O1 0.238867 0.945557 0.871130
O O2 0.090775 0.802332 0.862565
O O3 0.261989 0.805604 0.047582
O O4 0.108340 0.927977 0.112537
O O5 0.546849 0.416309 0.385624
O O6 0.585772 0.274903 0.180035
O O7 0.572580 0.075988 0.143091
O O8 0.551965 0.199075 0.903102
O O9 0.083507 0.399906 0.312872
#
# Coordination Sequence:
#
# PCOD9554968 Si02
#       8
#     8   2   8   4   4   4   4   2
#     4  11  24  41  61  87 126 177 233 289 345 409
#     4  10  24  50  68  98 144 174 212 266 332 434
#     4  10  21  40  69 102 133 176 225 284 359 429
#     4   9  18  34  64 101 132 160 216 293 356 413
#     4  12  27  43  59  85 126 180 239 295 341 403
#     4  10  24  44  74 100 134 180 216 268 346 434
#     4   9  18  37  62  90 126 171 216 281 356 410
#     4  10  18  36  66 106 144 166 226 314 378 430
#
# _framework density 25.229621000000002
#
# number of rings (size 3 to 8) (size 9 to 14) (size 15 to 20)
#    0.000    1.778    0.000    4.667    0.000    8.889 
#    0.000    2.222    0.000    0.000    0.000    0.000 
#    0.000    0.000    0.000    0.000    0.000    0.000 
#
# Total GULP energy -200591.506114 kJ/mol
# GULP energy per Si atom -5571.986281 kJ/mol
# Density = 2.517220 g / cm^3
# Si number density = 25.229621 Si / 1000 Ang^3
#
#
#
# Elastic Constant Matrix: (Units=GPa)
#
#
# Indices 1 2 3 4 5 6 
#
# 1 115.1817 43.1316 63.6409 0.0000 0.0000 0.0000
# 2 43.1316 115.1817 63.6409 0.0000 0.0000 0.0000
# 3 63.6409 63.6409 151.5759 0.0000 0.0000 0.0000
# 4 0.0000 0.0000 0.0000 -4.6848 0.0000 0.0000
# 5 0.0000 0.0000 0.0000 0.0000 -4.6848 0.0000
# 6 0.0000 0.0000 0.0000 0.0000 0.0000 -11.5389
#
#
#
# Elastic Compliance Matrix: (Units=1/GPa)
#
#
# Indices 1 2 3 4 5 6 
#
# 1 0.011707 -0.002172 -0.004004 0.000000 0.000000 0.000000
# 2 -0.002172 0.011707 -0.004004 0.000000 0.000000 0.000000
# 3 -0.004004 -0.004004 0.009959 0.000000 0.000000 0.000000
# 4 0.000000 0.000000 0.000000 -0.213457 0.000000 0.000000
# 5 0.000000 0.000000 0.000000 0.000000 -0.213457 0.000000
# 6 0.000000 0.000000 0.000000 0.000000 0.000000 -0.086663
#
#
# Mechanical properties :
#
#
# Convention : Reuss Voigt Hill
#
# Bulk Modulus (GPa) = 76.82955 80.30732 78.56844
# Shear Modulus (GPa) = -10.97680 9.92003 -0.52839
#
# Velocity S-wave (km/s) = -2.08811 1.98505 -0.45813
# Velocity P-wave (km/s) = 4.97037 6.09537 5.56139
#
# Compressibility (1/GPa) = 0.01301583
#
# Stress axis : x y z
#
# Youngs Moduli (GPa) = 85.41678 85.41678 100.40948
#
# Poissons Ratio (x) = 0.18552 0.40199
# Poissons Ratio (y) = 0.18552 0.40199
# Poissons Ratio (z) = 0.34197 0.34197
#
# Static dielectric constant tensor:
#      x y z
#    x 2.054840 0.000000 0.000000 
#    y 0.000000 2.054840 0.000000 
#    z 0.000000 0.000000 2.027860 
# 
# From -- ./inp_files/1212.got.cif
#   From: 2010.05.17/outbox.cif.g08.bks.cpg/sg112_1_cif.got.tgz:1212.got - 2010.05.20 10:59:04.
