data_PCOD9554674
_publ_section_title
;
Structure prediction by ZEFSAII (Michael W. Deem and Ramdas Pophale) SiO2 
 PCOD9554674
Probable space group: P -4 2 M 
;
_chemical_formula_sum "Si O2"
_cell_formula_units_Z 56
_cell_length_a 16.291957
_cell_length_b 16.291957
_cell_length_c 11.207405
_cell_angle_alpha 90.000000
_cell_angle_beta 90.000000
_cell_angle_gamma 90.000000
_cell_volume 2974.757558
_symmetry_space_group_name_H-M "P -4 2 M "
_symmetry_group_IT_number 111
_symmetry_cell_setting 'tetragonal'
loop_
_space_group_symop_operation_xyz
x,y,z
y,-x,-z
-x,-y,z
-y,x,-z
x,-y,-z
-x,y,-z
-y,-x,z
y,x,z
loop_
_atom_site_type_symbol
_atom_site_label
_atom_site_fract_x
_atom_site_fract_y
_atom_site_fract_z
Si Si1 0.716592 0.413971 0.936503
Si Si2 0.188248 0.951189 0.624575
Si Si3 0.688406 0.174033 0.541131
Si Si4 0.819300 0.320062 0.091371
Si Si5 0.189156 0.950785 0.124301
Si Si6 0.754845 0.385309 0.326144
Si Si7 0.566675 0.697412 0.343318
O O1 0.643022 0.356979 0.985703
O O2 0.699847 0.427226 0.798965
O O3 0.716956 0.500000 0.000000
O O4 0.799552 0.364123 0.966611
O O5 0.117115 0.882886 0.636742
O O6 0.276139 0.906654 0.602018
O O7 0.172458 0.000000 0.500000
O O8 0.188588 0.000843 0.749368
O O9 0.768267 0.231734 0.526784
O O10 0.646956 0.172027 0.411344
O O11 0.622997 0.227393 0.613797
O O12 0.755415 0.244585 0.101721
O O13 0.905914 0.277295 0.109707
O O14 0.792234 0.383777 0.193952
O O15 0.117372 0.882629 0.132407
O O16 0.175426 0.000000 0.000000
O O17 0.681702 0.318299 0.331053
O O18 0.716376 0.471391 0.369016
O O19 0.613258 0.613258 0.384341
#
# Coordination Sequence:
#
# PCOD9554674 Si02
#       7
#     8   8   8   8   8   8   8
#     4  10  19  32  52  80 113 152 194 239 287 335
#     4  11  23  40  64  90 117 149 185 232 289 356
#     4   9  20  36  55  79 109 148 192 228 274 345
#     4   9  19  35  55  78 109 152 195 226 271 343
#     4  11  24  40  62  91 122 152 184 233 297 360
#     4  10  18  33  56  81 113 152 194 243 290 333
#     4  10  20  32  52  82 114 150 195 245 295 338
#
# _framework density 18.825064000000001
#
# number of rings (size 3 to 8) (size 9 to 14) (size 15 to 20)
#    0.000    2.000    1.429    2.143    2.000    4.429 
#    0.000    1.429    0.000   10.714    0.000    0.000 
#    0.000    0.000    0.000    0.000    0.000    0.000 
#
# Total GULP energy -311834.978113 kJ/mol
# GULP energy per Si atom -5568.481752 kJ/mol
# Density = 1.878222 g / cm^3
# Si number density = 18.825064 Si / 1000 Ang^3
#
#
#
# Elastic Constant Matrix: (Units=GPa)
#
#
# Indices 1 2 3 4 5 6 
#
# 1 6.1138 107.2183 27.9069 0.0000 0.0000 0.0000
# 2 107.2183 6.0869 27.9001 0.0000 0.0000 0.0000
# 3 27.9069 27.9001 83.0130 0.0000 0.0000 0.0000
# 4 0.0000 0.0000 0.0000 21.7076 0.0000 0.0000
# 5 0.0000 0.0000 0.0000 0.0000 21.7074 0.0000
# 6 0.0000 0.0000 0.0000 0.0000 0.0000 21.3996
#
#
#
# Elastic Compliance Matrix: (Units=1/GPa)
#
#
# Indices 1 2 3 4 5 6 
#
# 1 0.000344 0.010232 -0.003555 0.000000 0.000000 0.000000
# 2 0.010232 0.000342 -0.003555 0.000000 0.000000 0.000000
# 3 -0.003555 -0.003555 0.014436 0.000000 0.000000 0.000000
# 4 0.000000 0.000000 0.000000 0.046067 0.000000 0.000000
# 5 0.000000 0.000000 0.000000 0.000000 0.046067 0.000000
# 6 0.000000 0.000000 0.000000 0.000000 0.000000 0.046730
#
#
# Mechanical properties :
#
#
# Convention : Reuss Voigt Hill
#
# Bulk Modulus (GPa) = 46.79951 46.80715 46.80333
# Shear Modulus (GPa) = 32.28671 8.44214 20.36443
#
# Velocity S-wave (km/s) = 4.14586 2.11997 3.29260
# Velocity P-wave (km/s) = 6.91605 5.55973 6.27464
#
# Compressibility (1/GPa) = 0.02136775
#
# Stress axis : x y z
#
# Youngs Moduli (GPa) = 2906.16828 2926.02044 69.27107
#
# Poissons Ratio (x) = -29.94011 0.24624
# Poissons Ratio (y) = -29.73698 0.24624
# Poissons Ratio (z) = 10.33057 10.40123
#
# Static dielectric constant tensor:
#      x y z
#    x 1.662510 0.000000 0.000000 
#    y 0.000000 1.662510 0.000000 
#    z 0.000000 0.000000 1.740310 
# 
# From -- ./inp_files/2772.got.cif
#   From: 2010.05.17/outbox.cif.g08.bks.cpg/sg111_2_cif.got.tgz:2772.got - 2010.05.20 10:56:05.
