data_PCOD9554941
_publ_section_title
;
Structure prediction by ZEFSAII (Michael W. Deem and Ramdas Pophale) SiO2 
 PCOD9554941
Probable space group: P -4 2 C
;
_chemical_formula_sum "Si O2"
_cell_formula_units_Z 48
_cell_length_a 9.111970
_cell_length_b 9.111970
_cell_length_c 30.166729
_cell_angle_alpha 90.000000
_cell_angle_beta 90.000000
_cell_angle_gamma 90.000000
_cell_volume 2504.683093
_symmetry_space_group_name_H-M "P -4 2 C"
_symmetry_group_IT_number 112
_symmetry_cell_setting 'tetragonal'
loop_
_space_group_symop_operation_xyz
x,y,z
y,-x,-z
-x,-y,z
-y,x,-z
x,-y,1/2-z
-x,y,1/2-z
-y,-x,1/2+z
y,x,1/2+z
loop_
_atom_site_type_symbol
_atom_site_label
_atom_site_fract_x
_atom_site_fract_y
_atom_site_fract_z
Si Si1 0.788429 0.882103 0.119606
Si Si2 0.406870 0.647863 0.877055
Si Si3 0.169033 0.547421 0.201821
Si Si4 0.113033 0.791781 0.986012
Si Si5 0.874962 0.200327 0.140750
Si Si6 0.425770 0.840329 0.559961
O O1 0.657389 0.768270 0.129475
O O2 0.786618 0.891054 0.066547
O O3 0.948458 0.821565 0.135680
O O4 0.790346 0.046908 0.137662
O O5 0.500000 0.500000 0.875749
O O6 0.465171 0.744862 0.836526
O O7 0.451240 0.727097 0.923292
O O8 0.225597 0.500000 0.250000
O O9 0.166297 0.715909 0.185921
O O10 0.000000 0.500000 0.199968
O O11 0.180510 0.655669 0.013152
O O12 0.943801 0.807428 0.001486
O O13 0.834686 0.300887 0.098262
O O14 0.500000 0.000000 0.560774
#
# Coordination Sequence:
#
# PCOD9554941 Si02
#       6
#     8   8   8   8   8   8
#     4  11  19  35  58  88 123 160 211 262 326 371
#     4  11  23  41  57  85 128 167 200 258 336 400
#     4  10  20  39  67  91 116 152 210 253 315 404
#     4  11  18  32  56  87 113 154 219 267 311 363
#     4  10  17  34  64  88 115 150 206 270 310 372
#     4  11  19  37  57  80 114 165 213 259 312 375
#
# _framework density 19.164100000000001
#
# number of rings (size 3 to 8) (size 9 to 14) (size 15 to 20)
#    0.000    1.333    6.667    2.000    0.000    0.333 
#    6.000    4.167    0.000    0.000    0.000    4.667 
#    0.000    0.000    0.000    0.000    0.000    0.000 
#
# Total GULP energy -267661.656662 kJ/mol
# GULP energy per Si atom -5576.284514 kJ/mol
# Density = 1.912048 g / cm^3
# Si number density = 19.164100 Si / 1000 Ang^3
#
#
#
# Elastic Constant Matrix: (Units=GPa)
#
#
# Indices 1 2 3 4 5 6 
#
# 1 86.9629 20.8252 31.0122 0.0000 0.0000 0.0000
# 2 20.8252 86.9629 31.0122 0.0000 0.0000 0.0000
# 3 31.0122 31.0122 111.7771 0.0000 0.0000 0.0000
# 4 0.0000 0.0000 0.0000 18.1420 0.0000 0.0000
# 5 0.0000 0.0000 0.0000 0.0000 18.1420 0.0000
# 6 0.0000 0.0000 0.0000 0.0000 0.0000 27.5976
#
#
#
# Elastic Compliance Matrix: (Units=1/GPa)
#
#
# Indices 1 2 3 4 5 6 
#
# 1 0.013080 -0.002040 -0.003063 0.000000 0.000000 0.000000
# 2 -0.002040 0.013080 -0.003063 0.000000 0.000000 0.000000
# 3 -0.003063 -0.003063 0.010646 0.000000 0.000000 0.000000
# 4 0.000000 0.000000 0.000000 0.055121 0.000000 0.000000
# 5 0.000000 0.000000 0.000000 0.000000 0.055121 0.000000
# 6 0.000000 0.000000 0.000000 0.000000 0.000000 0.036235
#
#
# Mechanical properties :
#
#
# Convention : Reuss Voigt Hill
#
# Bulk Modulus (GPa) = 48.84250 50.15581 49.49916
# Shear Modulus (GPa) = 24.22020 26.29987 25.26004
#
# Velocity S-wave (km/s) = 3.55890 3.70854 3.63449
# Velocity P-wave (km/s) = 6.51379 6.67580 6.59529
#
# Compressibility (1/GPa) = 0.02047397
#
# Stress axis : x y z
#
# Youngs Moduli (GPa) = 76.45267 76.45267 93.93175
#
# Poissons Ratio (x) = 0.15596 0.28771
# Poissons Ratio (y) = 0.15596 0.28771
# Poissons Ratio (z) = 0.23418 0.23418
#
# Static dielectric constant tensor:
#      x y z
#    x 1.668740 0.000000 0.000000 
#    y 0.000000 1.668740 0.000000 
#    z 0.000000 0.000000 1.669070 
# 
# From -- ./inp_files/6298.got.cif
#   From: 2010.05.17/outbox.cif.g08.bks.cpg/sg112_4_cif.got.tgz:6298.got - 2010.05.20 10:59:04.
