data_PCOD9554688
_publ_section_title
;
Structure prediction by ZEFSAII (Michael W. Deem and Ramdas Pophale) SiO2 
 PCOD9554688
Probable space group: P -4 2 M 
;
_chemical_formula_sum "Si O2"
_cell_formula_units_Z 40
_cell_length_a 12.684497
_cell_length_b 12.684497
_cell_length_c 16.308929
_cell_angle_alpha 90.000000
_cell_angle_beta 90.000000
_cell_angle_gamma 90.000000
_cell_volume 2624.049010
_symmetry_space_group_name_H-M "P -4 2 M "
_symmetry_group_IT_number 111
_symmetry_cell_setting 'tetragonal'
loop_
_space_group_symop_operation_xyz
x,y,z
y,-x,-z
-x,-y,z
-y,x,-z
x,-y,-z
-x,y,-z
-y,-x,z
y,x,z
loop_
_atom_site_type_symbol
_atom_site_label
_atom_site_fract_x
_atom_site_fract_y
_atom_site_fract_z
Si Si1 0.623200 0.792512 0.177697
Si Si2 0.000001 0.174038 0.401609
Si Si3 0.207488 0.376800 0.822303
Si Si4 0.119050 0.372678 1.000000
Si Si5 0.621197 1.000000 0.709751
O O1 0.699604 0.699604 0.206122
O O2 0.500000 0.760843 0.177989
O O3 0.632691 0.896619 0.233344
O O4 0.653518 0.824029 0.084674
O O5 0.102145 0.102145 0.380285
O O6 0.000000 0.187198 0.500000
O O7 1.000000 0.285803 0.356558
O O8 0.897857 0.102144 0.380285
O O9 0.300397 0.300397 0.793878
O O10 0.175971 0.346482 0.915325
O O11 0.103381 0.367309 0.766656
O O12 0.111761 0.500000 0.000000
O O13 0.000000 0.330153 0.000000
O O14 0.500000 0.000000 0.677504
#
# Coordination Sequence:
#
# PCOD9554688 Si02
#       5
#     8   8   8   8   8
#     4  10  19  30  46  67  91 121 155 191 229 267
#     4   9  18  33  52  72  94 119 146 182 230 275
#     4  10  19  30  46  67  91 121 155 191 229 267
#     4   9  15  28  45  62  86 116 155 193 224 262
#     4  10  19  31  48  70  94 121 154 185 219 270
#
# _framework density 15.243618
#
# number of rings (size 3 to 8) (size 9 to 14) (size 15 to 20)
#    0.000    2.400    2.000    2.400    0.000    0.800 
#    0.000    0.000    0.000    3.600    0.000    1.400 
#    0.000    0.000    0.000   37.200    0.000    0.000 
#
# Total GULP energy -222822.738612 kJ/mol
# GULP energy per Si atom -5570.568465 kJ/mol
# Density = 1.520892 g / cm^3
# Si number density = 15.243618 Si / 1000 Ang^3
#
#
#
# Elastic Constant Matrix: (Units=GPa)
#
#
# Indices 1 2 3 4 5 6 
#
# 1 113.9775 74.7431 40.1277 0.0000 0.0000 0.0000
# 2 74.7431 113.9771 40.1273 0.0000 0.0000 0.0000
# 3 40.1277 40.1273 53.6306 0.0000 0.0000 0.0000
# 4 0.0000 0.0000 0.0000 17.2845 0.0000 0.0000
# 5 0.0000 0.0000 0.0000 0.0000 17.2839 0.0000
# 6 0.0000 0.0000 0.0000 0.0000 0.0000 22.9012
#
#
#
# Elastic Compliance Matrix: (Units=1/GPa)
#
#
# Indices 1 2 3 4 5 6 
#
# 1 0.016630 -0.008858 -0.005815 0.000000 0.000000 0.000000
# 2 -0.008858 0.016630 -0.005815 0.000000 0.000000 0.000000
# 3 -0.005815 -0.005815 0.027348 0.000000 0.000000 0.000000
# 4 0.000000 0.000000 0.000000 0.057855 0.000000 0.000000
# 5 0.000000 0.000000 0.000000 0.000000 0.057857 0.000000
# 6 0.000000 0.000000 0.000000 0.000000 0.000000 0.043666
#
#
# Mechanical properties :
#
#
# Convention : Reuss Voigt Hill
#
# Bulk Modulus (GPa) = 50.93874 65.73126 58.33500
# Shear Modulus (GPa) = 18.69117 19.93304 19.31211
#
# Velocity S-wave (km/s) = 3.50546 3.62004 3.56321
# Velocity P-wave (km/s) = 7.06210 7.79019 7.43507
#
# Compressibility (1/GPa) = 0.01963143
#
# Stress axis : x y z
#
# Youngs Moduli (GPa) = 60.13283 60.13290 36.56599
#
# Poissons Ratio (x) = 0.53267 0.21263
# Poissons Ratio (y) = 0.53266 0.21263
# Poissons Ratio (z) = 0.34967 0.34966
#
# Static dielectric constant tensor:
#      x y z
#    x 1.499540 0.000000 0.000000 
#    y 0.000000 1.499540 0.000000 
#    z 0.000000 0.000000 1.490440 
# 
# From -- ./inp_files/3187.got.cif
#   From: 2010.05.17/outbox.cif.g08.bks.cpg/sg111_2_cif.got.tgz:3187.got - 2010.05.20 10:56:05.
