data_PCOD9554837
_publ_section_title
;
Structure prediction by ZEFSAII (Michael W. Deem and Ramdas Pophale) SiO2 
 PCOD9554837
Probable space group: P -4 2 M 
;
_chemical_formula_sum "Si O2"
_cell_formula_units_Z 38
_cell_length_a 12.439696
_cell_length_b 12.439696
_cell_length_c 14.441813
_cell_angle_alpha 90.000000
_cell_angle_beta 90.000000
_cell_angle_gamma 90.000000
_cell_volume 2234.813323
_symmetry_space_group_name_H-M "P -4 2 M "
_symmetry_group_IT_number 111
_symmetry_cell_setting 'tetragonal'
loop_
_space_group_symop_operation_xyz
x,y,z
y,-x,-z
-x,-y,z
-y,x,-z
x,-y,-z
-x,y,-z
-y,-x,z
y,x,z
loop_
_atom_site_type_symbol
_atom_site_label
_atom_site_fract_x
_atom_site_fract_y
_atom_site_fract_z
Si Si1 0.197758 0.627772 0.500000
Si Si2 0.875120 0.300751 0.299611
Si Si3 0.244273 0.499998 0.205841
Si Si4 0.500000 0.682308 0.000000
Si Si5 0.500000 0.500000 0.750941
Si Si6 0.875121 0.699252 0.299610
O O1 0.208607 0.500000 0.500000
O O2 0.313529 0.686472 0.500000
O O3 0.138055 0.665933 0.407463
O O4 0.138056 0.665934 0.592538
O O5 0.808368 0.191633 0.285517
O O6 0.817429 0.395389 0.242575
O O7 0.999999 0.291550 0.276272
O O8 0.366712 0.500000 0.243128
O O9 0.182573 0.395384 0.242573
O O10 0.252554 0.500000 0.094790
O O11 0.602633 0.602633 1.000000
O O12 0.808373 0.808373 0.285518
#
# Coordination Sequence:
#
# PCOD9554837 Si02
#       6
#     8   8   8   4   2   8
#     4  10  21  36  54  82 116 156 193 228 283 339
#     4  11  23  39  58  83 114 154 198 242 284 333
#     4  12  21  36  60  89 117 150 184 225 291 354
#     4  11  18  34  57  86 118 154 179 221 284 350
#     4  12  20  37  60  89 124 142 184 225 284 361
#     4  11  23  39  58  83 114 154 198 242 284 333
#
# _framework density 17.003658000000001
#
# number of rings (size 3 to 8) (size 9 to 14) (size 15 to 20)
#    0.000    0.947    6.316    1.263    0.000    1.474 
#    0.000    2.105    0.000    3.789    0.000    0.000 
#    0.000    5.053    0.000    0.000    0.000    0.000 
#
# Total GULP energy -211792.726001 kJ/mol
# GULP energy per Si atom -5573.492789 kJ/mol
# Density = 1.696496 g / cm^3
# Si number density = 17.003658 Si / 1000 Ang^3
#
#
#
# Elastic Constant Matrix: (Units=GPa)
#
#
# Indices 1 2 3 4 5 6 
#
# 1 176.9208 86.0640 43.7689 0.0000 0.0000 0.0000
# 2 86.0640 176.9219 43.7703 0.0000 0.0000 0.0000
# 3 43.7689 43.7703 113.6517 0.0000 0.0000 0.0000
# 4 0.0000 0.0000 0.0000 0.6789 0.0000 0.0000
# 5 0.0000 0.0000 0.0000 0.0000 0.6792 0.0000
# 6 0.0000 0.0000 0.0000 0.0000 0.0000 9.8689
#
#
#
# Elastic Compliance Matrix: (Units=1/GPa)
#
#
# Indices 1 2 3 4 5 6 
#
# 1 0.007684 -0.003322 -0.001680 0.000000 0.000000 0.000000
# 2 -0.003322 0.007684 -0.001680 0.000000 0.000000 0.000000
# 3 -0.001680 -0.001680 0.010093 0.000000 0.000000 0.000000
# 4 0.000000 0.000000 0.000000 1.472876 0.000000 0.000000
# 5 0.000000 0.000000 0.000000 0.000000 1.472406 0.000000
# 6 0.000000 0.000000 0.000000 0.000000 0.000000 0.101329
#
#
# Mechanical properties :
#
#
# Convention : Reuss Voigt Hill
#
# Bulk Modulus (GPa) = 82.66599 90.52229 86.59414
# Shear Modulus (GPa) = 1.61840 21.83814 11.72827
#
# Velocity S-wave (km/s) = 0.97666 3.58763 2.62916
# Velocity P-wave (km/s) = 7.07064 8.39726 7.76234
#
# Compressibility (1/GPa) = 0.01209687
#
# Stress axis : x y z
#
# Youngs Moduli (GPa) = 130.14146 130.14151 99.08225
#
# Poissons Ratio (x) = 0.43237 0.16643
# Poissons Ratio (y) = 0.43237 0.16644
# Poissons Ratio (z) = 0.21860 0.21861
#
# Static dielectric constant tensor:
#      x y z
#    x 1.556270 0.000000 0.000000 
#    y 0.000000 1.556270 0.000000 
#    z 0.000000 0.000000 1.604100 
# 
# From -- ./inp_files/3229.got.cif
#   From: 2010.05.17/outbox.cif.g08.bks.cpg/sg111_2_cif.got.tgz:3229.got - 2010.05.20 10:56:05.
