data_PCOD9554903
_publ_section_title
;
Structure prediction by ZEFSAII (Michael W. Deem and Ramdas Pophale) SiO2 
 PCOD9554903
Probable space group: P -4 2 M 
;
_chemical_formula_sum "Si O2"
_cell_formula_units_Z 24
_cell_length_a 12.712280
_cell_length_b 12.712280
_cell_length_c 5.685406
_cell_angle_alpha 90.000000
_cell_angle_beta 90.000000
_cell_angle_gamma 90.000000
_cell_volume 918.773337
_symmetry_space_group_name_H-M "P -4 2 M "
_symmetry_group_IT_number 111
_symmetry_cell_setting 'tetragonal'
loop_
_space_group_symop_operation_xyz
x,y,z
y,-x,-z
-x,-y,z
-y,x,-z
x,-y,-z
-x,y,-z
-y,-x,z
y,x,z
loop_
_atom_site_type_symbol
_atom_site_label
_atom_site_fract_x
_atom_site_fract_y
_atom_site_fract_z
Si Si1 0.739281 0.508638 0.250000
Si Si2 0.166892 0.833109 0.249997
Si Si3 0.248215 0.248215 0.250002
Si Si4 0.947038 0.360259 0.250000
O O1 0.681913 0.500000 0.500000
O O2 0.776900 0.628523 0.250000
O O3 0.834599 0.423231 0.250000
O O4 0.681913 0.500000 0.000000
O O5 0.206657 0.793344 0.504033
O O6 0.057818 0.768574 0.250000
O O7 0.206654 0.793347 0.995957
O O8 0.000000 0.387862 0.500000
O O9 0.000000 0.387862 0.000000
#
# Coordination Sequence:
#
# PCOD9554903 Si02
#       4
#     8   4   4   8
#     4  12  23  42  66  98 139 182 229 277 340 396
#     4  12  24  46  66  98 142 184 220 276 368 416
#     4  12  22  44  64  95 142 197 214 274 340 408
#     4  12  26  44  71 106 138 173 233 292 345 405
#
# _framework density 26.121784999999999
#
# number of rings (size 3 to 8) (size 9 to 14) (size 15 to 20)
#    0.000    0.000    6.667    4.000    0.000    4.000 
#    0.000    0.000    0.000   11.000    0.000    0.000 
#    0.000    0.000    0.000    0.000    0.000    0.000 
#
# Total GULP energy -133689.068900 kJ/mol
# GULP energy per Si atom -5570.377871 kJ/mol
# Density = 2.606233 g / cm^3
# Si number density = 26.121785 Si / 1000 Ang^3
#
#
#
# Elastic Constant Matrix: (Units=GPa)
#
#
# Indices 1 2 3 4 5 6 
#
# 1 49.2550 24.7225 32.3026 0.0000 0.0000 0.0000
# 2 24.7225 49.2562 32.3015 0.0000 0.0000 0.0000
# 3 32.3026 32.3015 351.2871 0.0000 0.0000 0.0000
# 4 0.0000 0.0000 0.0000 28.7974 0.0000 0.0000
# 5 0.0000 0.0000 0.0000 0.0000 28.7974 0.0000
# 6 0.0000 0.0000 0.0000 0.0000 0.0000 50.2290
#
#
#
# Elastic Compliance Matrix: (Units=1/GPa)
#
#
# Indices 1 2 3 4 5 6 
#
# 1 0.027730 -0.013032 -0.001352 0.000000 0.000000 0.000000
# 2 -0.013032 0.027729 -0.001351 0.000000 0.000000 0.000000
# 3 -0.001352 -0.001351 0.003095 0.000000 0.000000 0.000000
# 4 0.000000 0.000000 0.000000 0.034725 0.000000 0.000000
# 5 0.000000 0.000000 0.000000 0.000000 0.034725 0.000000
# 6 0.000000 0.000000 0.000000 0.000000 0.000000 0.019909
#
#
# Mechanical properties :
#
#
# Convention : Reuss Voigt Hill
#
# Bulk Modulus (GPa) = 36.92117 69.82793 53.37455
# Shear Modulus (GPa) = 26.53765 45.59622 36.06693
#
# Velocity S-wave (km/s) = 3.19081 4.18248 3.71984
# Velocity P-wave (km/s) = 5.26687 7.07912 6.23914
#
# Compressibility (1/GPa) = 0.02708473
#
# Stress axis : x y z
#
# Youngs Moduli (GPa) = 36.06212 36.06316 323.07817
#
# Poissons Ratio (x) = 0.46997 0.43667
# Poissons Ratio (y) = 0.46995 0.43661
# Poissons Ratio (z) = 0.04874 0.04874
#
# Static dielectric constant tensor:
#      x y z
#    x 2.171380 0.000000 0.000000 
#    y 0.000000 2.171380 0.000000 
#    z 0.000000 0.000000 2.027200 
# 
# From -- ./inp_files/249.got.cif
#   From: 2010.05.17/outbox.cif.g08.bks.cpg/sg111_1_cif.got.tgz:249.got - 2010.05.20 10:56:05.
