data_PCOD9554137
_publ_section_title
;
Structure prediction by ZEFSAII (Michael W. Deem and Ramdas Pophale) SiO2 
 PCOD9554137
Probable space group: I 41 M D
;
_chemical_formula_sum "Si O2"
_cell_formula_units_Z 112
_cell_length_a 24.240035
_cell_length_b 24.240035
_cell_length_c 12.239704
_cell_angle_alpha 90.000000
_cell_angle_beta 90.000000
_cell_angle_gamma 90.000000
_cell_volume 7191.796669
_symmetry_space_group_name_H-M "I 41 M D"
_symmetry_group_IT_number 109
_symmetry_cell_setting 'tetragonal'
loop_
_space_group_symop_operation_xyz
x,y,z
-y,1/2+x,1/4+z
-x,-y,z
y,1/2-x,1/4+z
-x,y,z
x,-y,z
-y,1/2-x,1/4+z
y,1/2+x,1/4+z
1/2+x,1/2+y,1/2+z
1/2-y,x,3/4+z
1/2-x,1/2-y,1/2+z
1/2+y,-x,3/4+z
1/2-x,1/2+y,1/2+z
1/2+x,1/2-y,1/2+z
1/2-y,-x,3/4+z
1/2+y,x,3/4+z
loop_
_atom_site_type_symbol
_atom_site_label
_atom_site_fract_x
_atom_site_fract_y
_atom_site_fract_z
Si Si1 0.753795 0.435512 0.388750
Si Si2 0.165557 0.620409 0.225826
Si Si3 0.146166 0.259657 0.329322
Si Si4 0.065542 0.064977 0.854516
Si Si5 0.639207 0.234762 0.310185
Si Si6 0.835900 0.934865 0.711446
Si Si7 0.754726 0.172865 0.320426
O O1 0.749472 0.500000 0.407528
O O2 0.803877 0.420569 0.309149
O O3 0.758005 0.403622 0.501812
O O4 0.699847 0.417468 0.318538
O O5 0.160074 0.678590 0.288745
O O6 0.108419 0.592765 0.187913
O O7 0.207539 0.629876 0.123636
O O8 0.196378 0.217471 0.309544
O O9 0.137799 0.256087 0.459296
O O10 0.100481 0.074056 0.742983
O O11 0.000000 0.073943 0.844047
O O12 0.074385 0.000000 0.884182
O O13 0.597602 0.190147 0.361177
O O14 0.699822 0.209811 0.331801
O O15 0.636972 0.240530 0.179846
O O16 0.826776 0.000000 0.696266
#
# Coordination Sequence:
#
# PCOD9554137 Si02
#       7
#    16  16  16  16  16  16  16
#     4  10  20  32  49  74 102 132 170 210 257 305
#     4  11  19  31  54  75 100 136 168 209 259 309
#     4  11  19  31  49  73 102 137 169 210 253 306
#     4  10  20  33  51  78 106 131 168 216 263 307
#     4  10  20  32  51  75 106 136 171 209 253 303
#     4   9  18  33  52  75 102 131 165 212 260 303
#     4  10  21  32  48  77 106 138 174 209 249 302
#
# _framework density 15.5733
#
# number of rings (size 3 to 8) (size 9 to 14) (size 15 to 20)
#    0.000    1.857    2.857    3.000    2.000    0.571 
#    0.000    0.714    0.000    5.143    0.000    0.000 
#    0.000    0.000    0.000    0.000    0.000    0.000 
#
# Total GULP energy -312117.136679 kJ/mol
# GULP energy per Si atom -5573.520298 kJ/mol
# Density = 1.553785 g / cm^3
# Si number density = 15.573300 Si / 1000 Ang^3
#
#
#
# Elastic Constant Matrix: (Units=GPa)
#
#
# Indices 1 2 3 4 5 6 
#
# 1 68.0491 31.0390 47.2549 0.0000 0.0000 0.0000
# 2 31.0390 68.0491 47.2549 0.0000 0.0000 0.0000
# 3 47.2549 47.2549 125.7223 0.0000 0.0000 0.0000
# 4 0.0000 0.0000 0.0000 22.0709 0.0000 0.0000
# 5 0.0000 0.0000 0.0000 0.0000 22.0709 0.0000
# 6 0.0000 0.0000 0.0000 0.0000 0.0000 21.0900
#
#
#
# Elastic Compliance Matrix: (Units=1/GPa)
#
#
# Indices 1 2 3 4 5 6 
#
# 1 0.021376 -0.005644 -0.005913 0.000000 0.000000 0.000000
# 2 -0.005644 0.021376 -0.005913 0.000000 0.000000 0.000000
# 3 -0.005913 -0.005913 0.012399 0.000000 0.000000 0.000000
# 4 0.000000 0.000000 0.000000 0.045309 0.000000 0.000000
# 5 0.000000 0.000000 0.000000 0.000000 0.045309 0.000000
# 6 0.000000 0.000000 0.000000 0.000000 0.000000 0.047416
#
#
# Mechanical properties :
#
#
# Convention : Reuss Voigt Hill
#
# Bulk Modulus (GPa) = 49.47914 56.99089 53.23502
# Shear Modulus (GPa) = 21.28921 22.13113 21.71017
#
# Velocity S-wave (km/s) = 3.70135 3.77383 3.73777
# Velocity P-wave (km/s) = 7.07866 7.46082 7.27225
#
# Compressibility (1/GPa) = 0.02021054
#
# Stress axis : x y z
#
# Youngs Moduli (GPa) = 46.78185 46.78185 80.65079
#
# Poissons Ratio (x) = 0.26403 0.47690
# Poissons Ratio (y) = 0.26403 0.47690
# Poissons Ratio (z) = 0.27663 0.27663
#
# Static dielectric constant tensor:
#      x y z
#    x 1.522870 0.000000 0.000000 
#    y 0.000000 1.522870 0.000000 
#    z 0.000000 0.000000 1.522510 
# 
# From -- ./inp_files/2132.got.cif
#   From: 2010.05.17/outbox.cif.g08.bks.cpg/sg109_2_cif.got.tgz:2132.got - 2010.05.20 10:51:12.
