data_PCOD9554265
_publ_section_title
;
Structure prediction by ZEFSAII (Michael W. Deem and Ramdas Pophale) SiO2 
 PCOD9554265
Probable space group: I 41 M D
;
_chemical_formula_sum "Si O2"
_cell_formula_units_Z 112
_cell_length_a 30.061988
_cell_length_b 30.061988
_cell_length_c 5.657716
_cell_angle_alpha 90.000000
_cell_angle_beta 90.000000
_cell_angle_gamma 90.000000
_cell_volume 5113.008770
_symmetry_space_group_name_H-M "I 41 M D"
_symmetry_group_IT_number 109
_symmetry_cell_setting 'tetragonal'
loop_
_space_group_symop_operation_xyz
x,y,z
-y,1/2+x,1/4+z
-x,-y,z
y,1/2-x,1/4+z
-x,y,z
x,-y,z
-y,1/2-x,1/4+z
y,1/2+x,1/4+z
1/2+x,1/2+y,1/2+z
1/2-y,x,3/4+z
1/2-x,1/2-y,1/2+z
1/2+y,-x,3/4+z
1/2-x,1/2+y,1/2+z
1/2+x,1/2-y,1/2+z
1/2-y,-x,3/4+z
1/2+y,x,3/4+z
loop_
_atom_site_type_symbol
_atom_site_label
_atom_site_fract_x
_atom_site_fract_y
_atom_site_fract_z
Si Si1 0.299766 0.707893 0.280630
Si Si2 0.053321 0.947986 0.603981
Si Si3 0.449805 0.231618 0.412653
Si Si4 0.112556 0.678336 0.204549
Si Si5 0.685056 0.047915 0.011139
Si Si6 0.617715 0.265764 0.020460
Si Si7 0.095379 0.418095 0.353052
O O1 0.301025 0.748645 0.464360
O O2 0.323706 0.662086 0.349155
O O3 0.330734 0.725220 0.067743
O O4 0.069094 0.927061 0.353739
O O5 0.000000 0.943118 0.608713
O O6 0.064772 0.000000 0.598237
O O7 0.070778 0.928483 0.853949
O O8 0.500000 0.224540 0.313971
O O9 0.427586 0.187344 0.520859
O O10 0.454383 0.269928 0.609886
O O11 0.411863 0.250938 0.242843
O O12 0.114565 0.723326 0.353647
O O13 0.103133 0.634638 0.351794
O O14 0.642364 0.056216 0.851720
O O15 0.680423 0.000000 0.137955
O O16 0.691832 0.091218 0.171511
#
# Coordination Sequence:
#
# PCOD9554265 Si02
#       7
#    16  16  16  16  16  16  16
#     4  12  25  43  70  99 140 196 249 315 379 455
#     4  11  26  50  76 109 152 196 247 312 384 457
#     4  10  22  44  68  96 139 185 232 297 372 438
#     4  11  27  44  64 105 141 185 246 309 367 448
#     4  10  23  41  67 103 136 178 236 302 371 439
#     4  11  24  43  69  96 141 185 241 299 370 444
#     4  12  27  44  78 110 147 192 249 310 371 454
#
# _framework density 21.904913000000001
#
# number of rings (size 3 to 8) (size 9 to 14) (size 15 to 20)
#    0.000    1.000    1.429    3.857   10.000    2.857 
#    0.000    0.000    0.000    0.000    0.000    0.000 
#    0.000    0.000    0.000    0.000    0.000    0.000 
#
# Total GULP energy -312684.143288 kJ/mol
# GULP energy per Si atom -5583.645416 kJ/mol
# Density = 2.185506 g / cm^3
# Si number density = 21.904913 Si / 1000 Ang^3
#
#
#
# Elastic Constant Matrix: (Units=GPa)
#
#
# Indices 1 2 3 4 5 6 
#
# 1 67.7416 38.1945 25.3659 0.0000 0.0000 0.0000
# 2 38.1945 67.7416 25.3659 0.0000 0.0000 0.0000
# 3 25.3659 25.3659 77.1526 0.0000 0.0000 0.0000
# 4 0.0000 0.0000 0.0000 24.0308 0.0000 0.0000
# 5 0.0000 0.0000 0.0000 0.0000 24.0308 0.0000
# 6 0.0000 0.0000 0.0000 0.0000 0.0000 21.6502
#
#
#
# Elastic Compliance Matrix: (Units=1/GPa)
#
#
# Indices 1 2 3 4 5 6 
#
# 1 0.022524 -0.011320 -0.003683 0.000000 0.000000 0.000000
# 2 -0.011320 0.022524 -0.003683 0.000000 0.000000 0.000000
# 3 -0.003683 -0.003683 0.015383 0.000000 0.000000 0.000000
# 4 0.000000 0.000000 0.000000 0.041613 0.000000 0.000000
# 5 0.000000 0.000000 0.000000 0.000000 0.041613 0.000000
# 6 0.000000 0.000000 0.000000 0.000000 0.000000 0.046189
#
#
# Mechanical properties :
#
#
# Convention : Reuss Voigt Hill
#
# Bulk Modulus (GPa) = 43.37125 43.38760 43.37943
# Shear Modulus (GPa) = 21.28501 22.18965 21.73733
#
# Velocity S-wave (km/s) = 3.12059 3.18622 3.15358
# Velocity P-wave (km/s) = 5.72948 5.77808 5.75383
#
# Compressibility (1/GPa) = 0.02305675
#
# Stress axis : x y z
#
# Youngs Moduli (GPa) = 44.39713 44.39713 65.00515
#
# Poissons Ratio (x) = 0.50259 0.23945
# Poissons Ratio (y) = 0.50259 0.23945
# Poissons Ratio (z) = 0.16354 0.16354
#
# Static dielectric constant tensor:
#      x y z
#    x 1.855670 0.000000 0.000000 
#    y 0.000000 1.855670 0.000000 
#    z 0.000000 0.000000 1.905540 
# 
# From -- ./inp_files/713.got.cif
#   From: 2010.05.17/outbox.cif.g08.bks.cpg/sg109_1_cif.got.tgz:713.got - 2010.05.20 10:51:12.
