data_PCOD9554113
_publ_section_title
;
Structure prediction by ZEFSAII (Michael W. Deem and Ramdas Pophale) SiO2 
 PCOD9554113
Probable space group: I 41 M D
;
_chemical_formula_sum "Si O2"
_cell_formula_units_Z 112
_cell_length_a 13.883335
_cell_length_b 13.883335
_cell_length_c 30.037361
_cell_angle_alpha 90.000000
_cell_angle_beta 90.000000
_cell_angle_gamma 90.000000
_cell_volume 5789.610942
_symmetry_space_group_name_H-M "I 41 M D"
_symmetry_group_IT_number 109
_symmetry_cell_setting 'tetragonal'
loop_
_space_group_symop_operation_xyz
x,y,z
-y,1/2+x,1/4+z
-x,-y,z
y,1/2-x,1/4+z
-x,y,z
x,-y,z
-y,1/2-x,1/4+z
y,1/2+x,1/4+z
1/2+x,1/2+y,1/2+z
1/2-y,x,3/4+z
1/2-x,1/2-y,1/2+z
1/2+y,-x,3/4+z
1/2-x,1/2+y,1/2+z
1/2+x,1/2-y,1/2+z
1/2-y,-x,3/4+z
1/2+y,x,3/4+z
loop_
_atom_site_type_symbol
_atom_site_label
_atom_site_fract_x
_atom_site_fract_y
_atom_site_fract_z
Si Si1 0.270639 0.270451 0.696020
Si Si2 0.106954 0.762459 0.819291
Si Si3 0.606263 0.893306 0.794645
Si Si4 0.609753 0.389151 0.407155
Si Si5 0.386332 0.767623 0.038012
Si Si6 0.390174 0.288027 0.859589
Si Si7 0.189192 0.108745 0.745410
O O1 0.364119 0.204890 0.685271
O O2 0.286773 0.337474 0.739521
O O3 0.232932 0.329975 0.653980
O O4 0.190992 0.188585 0.707303
O O5 0.116972 0.813043 0.866982
O O6 0.180997 0.678073 0.808203
O O7 0.124416 0.849231 0.784596
O O8 0.000000 0.724002 0.814717
O O9 0.500000 0.883989 0.772200
O O10 0.613565 0.810835 0.831070
O O11 0.700950 0.888577 0.764456
O O12 0.608176 0.000000 0.815259
O O13 0.500000 0.376833 0.426866
O O14 0.614258 0.500000 0.392127
O O15 0.500000 0.749033 0.033475
O O16 0.366450 0.850266 0.074674
O O17 0.500000 0.309232 0.871519
O O18 0.165390 0.000000 0.732729
#
# Coordination Sequence:
#
# PCOD9554113 Si02
#       7
#    16  16  16  16  16  16  16
#     4  11  21  38  60  93 127 167 205 262 313 380
#     4  10  20  38  63  91 124 160 201 251 312 378
#     4   9  17  32  56  85 118 160 203 240 295 374
#     4  10  20  34  60  99 135 165 196 236 302 388
#     4  11  24  44  67  91 119 163 221 275 324 375
#     4  11  22  40  61  87 124 166 209 264 325 377
#     4  10  19  33  56  88 126 164 201 246 302 369
#
# _framework density 19.344995999999998
#
# number of rings (size 3 to 8) (size 9 to 14) (size 15 to 20)
#    0.000    1.714    4.286    1.286    0.000    4.286 
#    0.000    4.286    0.000    6.000    0.000    0.000 
#    0.000    0.000    0.000    0.000    0.000    0.000 
#
# Total GULP energy -312227.700234 kJ/mol
# GULP energy per Si atom -5575.494647 kJ/mol
# Density = 1.930097 g / cm^3
# Si number density = 19.344996 Si / 1000 Ang^3
#
#
#
# Elastic Constant Matrix: (Units=GPa)
#
#
# Indices 1 2 3 4 5 6 
#
# 1 119.9101 32.2164 43.0122 0.0000 0.0000 0.0000
# 2 32.2164 119.9101 43.0122 0.0000 0.0000 0.0000
# 3 43.0122 43.0122 81.4687 0.0000 0.0000 0.0000
# 4 0.0000 0.0000 0.0000 15.6486 0.0000 0.0000
# 5 0.0000 0.0000 0.0000 0.0000 15.6486 0.0000
# 6 0.0000 0.0000 0.0000 0.0000 0.0000 16.0405
#
#
#
# Elastic Compliance Matrix: (Units=1/GPa)
#
#
# Indices 1 2 3 4 5 6 
#
# 1 0.010387 -0.001016 -0.004948 0.000000 0.000000 0.000000
# 2 -0.001016 0.010387 -0.004948 0.000000 0.000000 0.000000
# 3 -0.004948 -0.004948 0.017499 0.000000 0.000000 0.000000
# 4 0.000000 0.000000 0.000000 0.063903 0.000000 0.000000
# 5 0.000000 0.000000 0.000000 0.000000 0.063903 0.000000
# 6 0.000000 0.000000 0.000000 0.000000 0.000000 0.062342
#
#
# Mechanical properties :
#
#
# Convention : Reuss Voigt Hill
#
# Bulk Modulus (GPa) = 60.78692 61.97449 61.38070
# Shear Modulus (GPa) = 19.55196 23.00409 21.27802
#
# Velocity S-wave (km/s) = 3.18260 3.45215 3.32011
# Velocity P-wave (km/s) = 6.70791 6.92790 6.81879
#
# Compressibility (1/GPa) = 0.01645091
#
# Stress axis : x y z
#
# Youngs Moduli (GPa) = 96.27133 96.27133 57.14611
#
# Poissons Ratio (x) = 0.09781 0.28274
# Poissons Ratio (y) = 0.09781 0.28274
# Poissons Ratio (z) = 0.47632 0.47632
#
# Static dielectric constant tensor:
#      x y z
#    x 1.685870 0.000000 0.000000 
#    y 0.000000 1.685870 0.000000 
#    z 0.000000 0.000000 1.720380 
# 
# From -- ./inp_files/5059.got.cif
#   From: 2010.05.17/outbox.cif.g08.bks.cpg/sg109_3_cif.got.tgz:5059.got - 2010.05.20 10:51:12.
