data_PCOD9554891
_publ_section_title
;
Structure prediction by ZEFSAII (Michael W. Deem and Ramdas Pophale) SiO2 
 PCOD9554891
Probable space group: P -4 2 M 
;
_chemical_formula_sum "Si O2"
_cell_formula_units_Z 32
_cell_length_a 13.111848
_cell_length_b 13.111848
_cell_length_c 9.312956
_cell_angle_alpha 90.000000
_cell_angle_beta 90.000000
_cell_angle_gamma 90.000000
_cell_volume 1601.088592
_symmetry_space_group_name_H-M "P -4 2 M "
_symmetry_group_IT_number 111
_symmetry_cell_setting 'tetragonal'
loop_
_space_group_symop_operation_xyz
x,y,z
y,-x,-z
-x,-y,z
-y,x,-z
x,-y,-z
-x,y,-z
-y,-x,z
y,x,z
loop_
_atom_site_type_symbol
_atom_site_label
_atom_site_fract_x
_atom_site_fract_y
_atom_site_fract_z
Si Si1 0.760540 0.597400 0.903569
Si Si2 0.259253 0.904844 0.923496
Si Si3 0.712696 0.546750 0.354732
Si Si4 0.056378 0.609458 0.642704
O O1 0.659247 0.659247 0.941290
O O2 0.741700 0.547909 0.748615
O O3 0.775537 0.500000 0.000000
O O4 0.851795 0.671444 0.952045
O O5 0.180051 0.819950 0.872905
O O6 0.325888 0.943091 0.788902
O O7 0.206944 0.000000 0.000000
O O8 0.669772 0.500000 0.500000
O O9 0.631952 0.631952 0.298223
O O10 0.823202 0.595735 0.388390
O O11 0.000000 0.500000 0.667789
O O12 0.000000 0.652147 0.500000
#
# Coordination Sequence:
#
# PCOD9554891 Si02
#       4
#     8   8   8   8
#     4  11  23  39  62  95 134 179 221 264 322 393
#     4  11  25  44  69  99 129 169 220 280 336 393
#     4  12  24  40  61  93 138 179 222 272 327 398
#     4  11  22  41  67  96 126 169 221 270 328 390
#
# _framework density 19.986401999999998
#
# number of rings (size 3 to 8) (size 9 to 14) (size 15 to 20)
#    0.000    0.750    5.000    3.750    0.000    3.250 
#    0.000    1.250    0.000    0.000    0.000    0.000 
#    0.000    0.000    0.000    0.000    0.000    0.000 
#
# Total GULP energy -178403.754239 kJ/mol
# GULP energy per Si atom -5575.117320 kJ/mol
# Density = 1.994091 g / cm^3
# Si number density = 19.986402 Si / 1000 Ang^3
#
#
#
# Elastic Constant Matrix: (Units=GPa)
#
#
# Indices 1 2 3 4 5 6 
#
# 1 71.5257 40.8263 23.3369 0.0000 0.0000 0.0000
# 2 40.8263 71.5283 23.3367 0.0000 0.0000 0.0000
# 3 23.3369 23.3367 96.0540 0.0000 0.0000 0.0000
# 4 0.0000 0.0000 0.0000 8.9341 0.0000 0.0000
# 5 0.0000 0.0000 0.0000 0.0000 8.9330 0.0000
# 6 0.0000 0.0000 0.0000 0.0000 0.0000 20.4459
#
#
#
# Elastic Compliance Matrix: (Units=1/GPa)
#
#
# Indices 1 2 3 4 5 6 
#
# 1 0.021237 -0.011336 -0.002405 0.000000 0.000000 0.000000
# 2 -0.011336 0.021236 -0.002405 0.000000 0.000000 0.000000
# 3 -0.002405 -0.002405 0.011580 0.000000 0.000000 0.000000
# 4 0.000000 0.000000 0.000000 0.111930 0.000000 0.000000
# 5 0.000000 0.000000 0.000000 0.000000 0.111944 0.000000
# 6 0.000000 0.000000 0.000000 0.000000 0.000000 0.048910
#
#
# Mechanical properties :
#
#
# Convention : Reuss Voigt Hill
#
# Bulk Modulus (GPa) = 45.95985 46.01198 45.98591
# Shear Modulus (GPa) = 13.64695 17.76981 15.70838
#
# Velocity S-wave (km/s) = 2.61590 2.98500 2.80653
# Velocity P-wave (km/s) = 5.67181 5.91202 5.79316
#
# Compressibility (1/GPa) = 0.02175812
#
# Stress axis : x y z
#
# Youngs Moduli (GPa) = 47.08862 47.09058 86.35946
#
# Poissons Ratio (x) = 0.53384 0.20772
# Poissons Ratio (y) = 0.53382 0.20770
# Poissons Ratio (z) = 0.11326 0.11325
#
# Static dielectric constant tensor:
#      x y z
#    x 1.681850 0.000000 0.000000 
#    y 0.000000 1.681850 0.000000 
#    z 0.000000 0.000000 1.751050 
# 
# From -- ./inp_files/2326.got.cif
#   From: 2010.05.17/outbox.cif.g08.bks.cpg/sg111_2_cif.got.tgz:2326.got - 2010.05.20 10:56:05.
