data_PCOD9554618
_publ_section_title
;
Structure prediction by ZEFSAII (Michael W. Deem and Ramdas Pophale) SiO2 
 PCOD9554618
Probable space group: I 41 C D
;
_chemical_formula_sum "Si O2"
_cell_formula_units_Z 96
_cell_length_a 15.570148
_cell_length_b 15.570148
_cell_length_c 17.832276
_cell_angle_alpha 90.000000
_cell_angle_beta 90.000000
_cell_angle_gamma 90.000000
_cell_volume 4323.069910
_symmetry_space_group_name_H-M "I 41 C D"
_symmetry_group_IT_number 110
_symmetry_cell_setting 'tetragonal'
loop_
_space_group_symop_operation_xyz
x,y,z
-y,1/2+x,1/4+z
-x,-y,z
y,1/2-x,1/4+z
-x,y,1/2+z
x,-y,1/2+z
1/2-y,-x,1/4+z
1/2+y,x,1/4+z
1/2+x,1/2+y,1/2+z
1/2-y,x,3/4+z
1/2-x,1/2-y,1/2+z
1/2+y,-x,3/4+z
1/2-x,1/2+y,z
1/2+x,1/2-y,z
-y,1/2-x,3/4+z
y,1/2+x,3/4+z
loop_
_atom_site_type_symbol
_atom_site_label
_atom_site_fract_x
_atom_site_fract_y
_atom_site_fract_z
Si Si1 0.902315 0.034378 0.746670
Si Si2 0.621914 0.785191 0.264763
Si Si3 0.654181 0.606318 0.337864
Si Si4 0.964024 0.407564 0.737332
Si Si5 0.155619 0.355665 0.359695
Si Si6 0.340149 0.207377 0.094437
O O1 0.885274 0.086523 0.670698
O O2 0.866124 0.099534 0.809895
O O3 0.845761 0.949577 0.762019
O O4 0.000000 0.000000 0.750521
O O5 0.621022 0.700265 0.315841
O O6 0.535272 0.840268 0.266390
O O7 0.708537 0.834963 0.291245
O O8 0.631934 0.763083 0.176952
O O9 0.598103 0.557493 0.399515
O O10 0.748595 0.610663 0.374063
O O11 0.876199 0.389806 0.780311
O O12 0.000000 0.500000 0.756109
O O13 0.166582 0.253839 0.353391
#
# Coordination Sequence:
#
# PCOD9554618 Si02
#       6
#    16  16  16  16  16  16
#     4  12  26  45  75 111 147 190 245 309 368 445
#     4  11  27  45  76 106 150 197 251 304 374 444
#     4  11  28  47  73 108 148 198 247 307 378 433
#     4  12  28  47  75 111 147 194 252 308 368 447
#     4  11  27  47  74 105 149 195 244 304 369 447
#     4  11  24  49  71 107 147 204 243 302 373 442
#
# _framework density 22.206441999999999
#
# number of rings (size 3 to 8) (size 9 to 14) (size 15 to 20)
#    0.000    0.667    3.333    2.000   16.333    0.000 
#    0.000    0.000    0.000    0.000    0.000    0.000 
#    0.000    0.000    0.000    0.000    0.000    0.000 
#
# Total GULP energy -268436.747523 kJ/mol
# GULP energy per Si atom -5592.432240 kJ/mol
# Density = 2.215590 g / cm^3
# Si number density = 22.206442 Si / 1000 Ang^3
#
#
#
# Elastic Constant Matrix: (Units=GPa)
#
#
# Indices 1 2 3 4 5 6 
#
# 1 74.1689 46.7410 6.6909 0.0000 0.0000 0.0000
# 2 46.7410 74.1689 6.6909 0.0000 0.0000 0.0000
# 3 6.6909 6.6909 77.1094 0.0000 0.0000 0.0000
# 4 0.0000 0.0000 0.0000 30.6714 0.0000 0.0000
# 5 0.0000 0.0000 0.0000 0.0000 30.6714 0.0000
# 6 0.0000 0.0000 0.0000 0.0000 0.0000 15.9535
#
#
#
# Elastic Compliance Matrix: (Units=1/GPa)
#
#
# Indices 1 2 3 4 5 6 
#
# 1 0.022405 -0.014054 -0.000725 0.000000 0.000000 0.000000
# 2 -0.014054 0.022405 -0.000725 0.000000 0.000000 0.000000
# 3 -0.000725 -0.000725 0.013094 0.000000 0.000000 0.000000
# 4 0.000000 0.000000 0.000000 0.032604 0.000000 0.000000
# 5 0.000000 0.000000 0.000000 0.000000 0.032604 0.000000
# 6 0.000000 0.000000 0.000000 0.000000 0.000000 0.062682
#
#
# Mechanical properties :
#
#
# Convention : Reuss Voigt Hill
#
# Bulk Modulus (GPa) = 37.17815 38.41032 37.79424
# Shear Modulus (GPa) = 22.14675 26.48087 24.31381
#
# Velocity S-wave (km/s) = 3.16145 3.45699 3.31252
# Velocity P-wave (km/s) = 5.48678 5.76791 5.62910
#
# Compressibility (1/GPa) = 0.02689752
#
# Stress axis : x y z
#
# Youngs Moduli (GPa) = 44.63289 44.63290 76.36890
#
# Poissons Ratio (x) = 0.62728 0.05534
# Poissons Ratio (y) = 0.62728 0.05534
# Poissons Ratio (z) = 0.03234 0.03234
#
# Static dielectric constant tensor:
#      x y z
#    x 1.782330 0.000000 0.000000 
#    y 0.000000 1.782330 0.000000 
#    z 0.000000 0.000000 1.823200 
# 
# From -- ./inp_files/2208.got.cif
#   From: 2010.05.17/outbox.cif.g08.bks.cpg/sg110_2_cif.got.tgz:2208.got - 2010.05.20 10:54:03.
