data_PCOD9554848
_publ_section_title
;
Structure prediction by ZEFSAII (Michael W. Deem and Ramdas Pophale) SiO2 
 PCOD9554848
Probable space group: P -4 2 M 
;
_chemical_formula_sum "Si O2"
_cell_formula_units_Z 40
_cell_length_a 13.889405
_cell_length_b 13.889405
_cell_length_c 10.956718
_cell_angle_alpha 90.000000
_cell_angle_beta 90.000000
_cell_angle_gamma 90.000000
_cell_volume 2113.721512
_symmetry_space_group_name_H-M "P -4 2 M "
_symmetry_group_IT_number 111
_symmetry_cell_setting 'tetragonal'
loop_
_space_group_symop_operation_xyz
x,y,z
y,-x,-z
-x,-y,z
-y,x,-z
x,-y,-z
-x,y,-z
-y,-x,z
y,x,z
loop_
_atom_site_type_symbol
_atom_site_label
_atom_site_fract_x
_atom_site_fract_y
_atom_site_fract_z
Si Si1 0.783911 0.624233 0.267986
Si Si2 0.704011 0.854637 0.768408
Si Si3 0.722937 0.883084 0.491292
Si Si4 0.708123 0.549261 0.866155
Si Si5 0.972566 0.605049 0.139990
O O1 0.711538 0.711538 0.256364
O O2 0.846542 0.646334 0.389671
O O3 0.723145 0.527799 0.242622
O O4 0.861500 0.622025 0.160395
O O5 0.807078 0.807078 0.794059
O O6 0.687208 0.847232 0.623711
O O7 0.625502 0.794302 0.844326
O O8 0.689003 0.965062 0.800519
O O9 0.823776 0.823776 0.468727
O O10 0.733427 0.000000 0.500000
O O11 0.609807 0.609807 0.856958
O O12 0.712324 0.500000 0.000000
O O13 0.000000 0.500000 0.194454
O O14 0.000000 0.602222 0.000000
#
# Coordination Sequence:
#
# PCOD9554848 Si02
#       5
#     8   8   8   8   8
#     4  11  23  38  59  91 123 155 204 258 303 359
#     4  10  21  38  60  87 120 158 204 253 305 362
#     4  10  21  39  62  89 121 161 206 256 313 368
#     4  11  23  40  61  87 122 166 208 246 297 364
#     4  11  21  36  58  87 120 156 201 253 307 363
#
# _framework density 18.923969
#
# number of rings (size 3 to 8) (size 9 to 14) (size 15 to 20)
#    0.000    1.400    4.000    1.800    0.000    4.800 
#    0.000    2.000    0.000    1.800    0.000   12.600 
#    0.000    0.000    0.000    0.000    0.000    0.000 
#
# Total GULP energy -222950.923137 kJ/mol
# GULP energy per Si atom -5573.773078 kJ/mol
# Density = 1.888090 g / cm^3
# Si number density = 18.923969 Si / 1000 Ang^3
#
#
#
# Elastic Constant Matrix: (Units=GPa)
#
#
# Indices 1 2 3 4 5 6 
#
# 1 83.9339 33.9673 28.6597 0.0000 0.0000 0.0000
# 2 33.9673 83.9339 28.6597 0.0000 0.0000 0.0000
# 3 28.6597 28.6597 71.4863 0.0000 0.0000 0.0000
# 4 0.0000 0.0000 0.0000 24.5036 0.0000 0.0000
# 5 0.0000 0.0000 0.0000 0.0000 24.5036 0.0000
# 6 0.0000 0.0000 0.0000 0.0000 0.0000 17.8793
#
#
#
# Elastic Compliance Matrix: (Units=1/GPa)
#
#
# Indices 1 2 3 4 5 6 
#
# 1 0.015274 -0.004739 -0.004224 0.000000 0.000000 0.000000
# 2 -0.004739 0.015274 -0.004224 0.000000 0.000000 0.000000
# 3 -0.004224 -0.004224 0.017375 0.000000 0.000000 0.000000
# 4 0.000000 0.000000 0.000000 0.040810 0.000000 0.000000
# 5 0.000000 0.000000 0.000000 0.000000 0.040810 0.000000
# 6 0.000000 0.000000 0.000000 0.000000 0.000000 0.055931
#
#
# Mechanical properties :
#
#
# Convention : Reuss Voigt Hill
#
# Bulk Modulus (GPa) = 46.40178 46.88083 46.64130
# Shear Modulus (GPa) = 22.82777 23.24846 23.03811
#
# Velocity S-wave (km/s) = 3.47693 3.50883 3.49292
# Velocity P-wave (km/s) = 6.37904 6.42206 6.40058
#
# Compressibility (1/GPa) = 0.02155090
#
# Stress axis : x y z
#
# Youngs Moduli (GPa) = 65.46979 65.46979 57.55292
#
# Poissons Ratio (x) = 0.31027 0.24308
# Poissons Ratio (y) = 0.31027 0.24308
# Poissons Ratio (z) = 0.27652 0.27652
#
# Static dielectric constant tensor:
#      x y z
#    x 1.663900 0.000000 0.000000 
#    y 0.000000 1.663900 0.000000 
#    z 0.000000 0.000000 1.682510 
# 
# From -- ./inp_files/1517.got.cif
#   From: 2010.05.17/outbox.cif.g08.bks.cpg/sg111_1_cif.got.tgz:1517.got - 2010.05.20 10:56:05.
