data_PCOD9554448
_publ_section_title
;
Structure prediction by ZEFSAII (Michael W. Deem and Ramdas Pophale) SiO2 
 PCOD9554448
Probable space group: I 41 C D
;
_chemical_formula_sum "Si O2"
_cell_formula_units_Z 96
_cell_length_a 15.148369
_cell_length_b 15.148369
_cell_length_c 16.948801
_cell_angle_alpha 90.000000
_cell_angle_beta 90.000000
_cell_angle_gamma 90.000000
_cell_volume 3889.293625
_symmetry_space_group_name_H-M "I 41 C D"
_symmetry_group_IT_number 110
_symmetry_cell_setting 'tetragonal'
loop_
_space_group_symop_operation_xyz
x,y,z
-y,1/2+x,1/4+z
-x,-y,z
y,1/2-x,1/4+z
-x,y,1/2+z
x,-y,1/2+z
1/2-y,-x,1/4+z
1/2+y,x,1/4+z
1/2+x,1/2+y,1/2+z
1/2-y,x,3/4+z
1/2-x,1/2-y,1/2+z
1/2+y,-x,3/4+z
1/2-x,1/2+y,z
1/2+x,1/2-y,z
-y,1/2-x,3/4+z
y,1/2+x,3/4+z
loop_
_atom_site_type_symbol
_atom_site_label
_atom_site_fract_x
_atom_site_fract_y
_atom_site_fract_z
Si Si1 0.257690 0.940600 0.180960
Si Si2 0.740186 0.579571 0.997704
Si Si3 0.584009 0.446790 0.955139
Si Si4 0.097809 0.831303 0.745045
Si Si5 0.259869 0.151781 0.152774
Si Si6 0.410164 0.472934 0.271314
O O1 0.245410 0.903755 0.091882
O O2 0.344548 0.908241 0.225748
O O3 0.271478 0.047664 0.176918
O O4 0.167208 0.922820 0.227135
O O5 0.820253 0.507845 0.983412
O O6 0.663455 0.508875 0.978860
O O7 0.712822 0.666774 0.947458
O O8 0.500000 0.500000 0.986360
O O9 0.573988 0.440017 0.859695
O O10 0.159574 0.820391 0.670075
O O11 0.142197 0.770219 0.810193
O O12 0.121890 0.926165 0.782626
O O13 0.500000 0.500000 0.225915
#
# Coordination Sequence:
#
# PCOD9554448 Si02
#       6
#    16  16  16  16  16  16
#     4  10  23  41  63  99 129 170 235 273 335 424
#     4  11  21  41  65  89 131 173 214 283 336 398
#     4  11  20  42  70  90 128 181 223 277 349 401
#     4  10  22  41  64  92 129 171 218 269 338 402
#     4  10  20  43  63  90 130 172 215 277 336 399
#     4  10  20  43  66  91 134 173 213 280 337 397
#
# _framework density 24.683143999999999
#
# number of rings (size 3 to 8) (size 9 to 14) (size 15 to 20)
#    0.000    1.667    3.333    3.000    0.000    2.000 
#   21.000    0.000    0.000    0.000    0.000    0.000 
#    0.000    0.000    0.000    0.000    0.000    0.000 
#
# Total GULP energy -267693.524085 kJ/mol
# GULP energy per Si atom -5576.948418 kJ/mol
# Density = 2.462696 g / cm^3
# Si number density = 24.683144 Si / 1000 Ang^3
#
#
#
# Elastic Constant Matrix: (Units=GPa)
#
#
# Indices 1 2 3 4 5 6 
#
# 1 102.1576 -17.5457 18.0709 0.0000 0.0000 0.0000
# 2 -17.5457 102.1576 18.0709 0.0000 0.0000 0.0000
# 3 18.0709 18.0709 42.6421 0.0000 0.0000 0.0000
# 4 0.0000 0.0000 0.0000 31.0318 0.0000 0.0000
# 5 0.0000 0.0000 0.0000 0.0000 31.0318 0.0000
# 6 0.0000 0.0000 0.0000 0.0000 0.0000 30.8618
#
#
#
# Elastic Compliance Matrix: (Units=1/GPa)
#
#
# Indices 1 2 3 4 5 6 
#
# 1 0.011392 0.003038 -0.006116 0.000000 0.000000 0.000000
# 2 0.003038 0.011392 -0.006116 0.000000 0.000000 0.000000
# 3 -0.006116 -0.006116 0.028634 0.000000 0.000000 0.000000
# 4 0.000000 0.000000 0.000000 0.032225 0.000000 0.000000
# 5 0.000000 0.000000 0.000000 0.000000 0.032225 0.000000
# 6 0.000000 0.000000 0.000000 0.000000 0.000000 0.032402
#
#
# Mechanical properties :
#
#
# Convention : Reuss Voigt Hill
#
# Bulk Modulus (GPa) = 30.27190 31.57218 30.92204
# Shear Modulus (GPa) = 28.14234 33.80918 30.97576
#
# Velocity S-wave (km/s) = 3.38027 3.70500 3.54635
# Velocity P-wave (km/s) = 5.24650 5.57866 5.41513
#
# Compressibility (1/GPa) = 0.03303394
#
# Stress axis : x y z
#
# Youngs Moduli (GPa) = 87.77741 87.77741 34.92312
#
# Poissons Ratio (x) = -0.26671 0.21357
# Poissons Ratio (y) = -0.26671 0.21357
# Poissons Ratio (z) = 0.53681 0.53681
#
# Static dielectric constant tensor:
#      x y z
#    x 4.884050 0.000000 0.000000 
#    y 0.000000 4.884050 0.000000 
#    z 0.000000 0.000000 1.915150 
# 
# From -- ./inp_files/2203.got.cif
#   From: 2010.05.17/outbox.cif.g08.bks.cpg/sg110_2_cif.got.tgz:2203.got - 2010.05.20 10:54:03.
