data_PCOD9554081
_publ_section_title
;
Structure prediction by ZEFSAII (Michael W. Deem and Ramdas Pophale) SiO2 
 PCOD9554081
Probable space group: I 41 M D
;
_chemical_formula_sum "Si O2"
_cell_formula_units_Z 96
_cell_length_a 23.839556
_cell_length_b 23.839556
_cell_length_c 10.466131
_cell_angle_alpha 90.000000
_cell_angle_beta 90.000000
_cell_angle_gamma 90.000000
_cell_volume 5948.157938
_symmetry_space_group_name_H-M "I 41 M D"
_symmetry_group_IT_number 109
_symmetry_cell_setting 'tetragonal'
loop_
_space_group_symop_operation_xyz
x,y,z
-y,1/2+x,1/4+z
-x,-y,z
y,1/2-x,1/4+z
-x,y,z
x,-y,z
-y,1/2-x,1/4+z
y,1/2+x,1/4+z
1/2+x,1/2+y,1/2+z
1/2-y,x,3/4+z
1/2-x,1/2-y,1/2+z
1/2+y,-x,3/4+z
1/2-x,1/2+y,1/2+z
1/2+x,1/2-y,1/2+z
1/2-y,-x,3/4+z
1/2+y,x,3/4+z
loop_
_atom_site_type_symbol
_atom_site_label
_atom_site_fract_x
_atom_site_fract_y
_atom_site_fract_z
Si Si1 0.432654 0.845669 0.267920
Si Si2 0.432245 0.763844 0.501055
Si Si3 0.067883 0.668046 0.250294
Si Si4 0.567939 0.776179 0.016765
Si Si5 0.566861 0.641151 0.415575
Si Si6 0.933400 0.153305 0.609699
O O1 0.500000 0.854765 0.273781
O O2 0.416791 0.802035 0.380152
O O3 0.418356 0.817445 0.133283
O O4 0.397544 0.901227 0.293487
O O5 0.500000 0.763152 0.502179
O O6 0.414030 0.792640 0.631983
O O7 0.415563 0.699792 0.480531
O O8 0.086197 0.697128 0.382609
O O9 0.093538 0.606955 0.222400
O O10 0.000000 0.664353 0.250752
O O11 0.500000 0.773067 0.012162
O O12 0.586674 0.713231 0.053473
O O13 0.500000 0.631337 0.435976
O O14 0.575098 0.648877 0.262878
O O15 0.000000 0.149548 0.588256
#
# Coordination Sequence:
#
# PCOD9554081 Si02
#       6
#    16  16  16  16  16  16
#     4  10  18  32  54  77 103 136 171 212 260 310
#     4   9  17  31  51  74 100 135 176 206 245 309
#     4  10  20  34  53  79 107 137 172 216 264 312
#     4   9  19  35  52  72 103 142 178 206 250 315
#     4  10  19  32  54  81 106 134 172 219 264 307
#     4  10  19  32  54  81 105 134 175 219 259 307
#
# _framework density 16.13945
#
# number of rings (size 3 to 8) (size 9 to 14) (size 15 to 20)
#    0.000    2.333    3.333    0.000    0.000    2.000 
#    0.000    4.167    0.000    9.000    0.000    0.000 
#    0.000    0.000    0.000    0.000    0.000    0.000 
#
# Total GULP energy -267396.184109 kJ/mol
# GULP energy per Si atom -5570.753836 kJ/mol
# Density = 1.610272 g / cm^3
# Si number density = 16.139450 Si / 1000 Ang^3
#
#
#
# Elastic Constant Matrix: (Units=GPa)
#
#
# Indices 1 2 3 4 5 6 
#
# 1 68.1983 42.0198 46.5337 0.0000 0.0000 0.0000
# 2 42.0198 68.1983 46.5337 0.0000 0.0000 0.0000
# 3 46.5337 46.5337 135.0169 0.0000 0.0000 0.0000
# 4 0.0000 0.0000 0.0000 18.7220 0.0000 0.0000
# 5 0.0000 0.0000 0.0000 0.0000 18.7220 0.0000
# 6 0.0000 0.0000 0.0000 0.0000 0.0000 -7.3981
#
#
#
# Elastic Compliance Matrix: (Units=1/GPa)
#
#
# Indices 1 2 3 4 5 6 
#
# 1 0.025498 -0.012701 -0.004411 0.000000 0.000000 0.000000
# 2 -0.012701 0.025498 -0.004411 0.000000 0.000000 0.000000
# 3 -0.004411 -0.004411 0.010447 0.000000 0.000000 0.000000
# 4 0.000000 0.000000 0.000000 0.053413 0.000000 0.000000
# 5 0.000000 0.000000 0.000000 0.000000 0.053413 0.000000
# 6 0.000000 0.000000 0.000000 0.000000 0.000000 -0.135170
#
#
# Mechanical properties :
#
#
# Convention : Reuss Voigt Hill
#
# Bulk Modulus (GPa) = 54.35139 60.17645 57.26392
# Shear Modulus (GPa) = 60.77026 15.09758 37.93392
#
# Velocity S-wave (km/s) = 6.14288 3.06182 4.85334
# Velocity P-wave (km/s) = 9.16856 7.06158 8.18317
#
# Compressibility (1/GPa) = 0.01839879
#
# Stress axis : x y z
#
# Youngs Moduli (GPa) = 39.21846 39.21846 95.72406
#
# Poissons Ratio (x) = 0.49811 0.42220
# Poissons Ratio (y) = 0.49811 0.42220
# Poissons Ratio (z) = 0.17298 0.17298
#
# Static dielectric constant tensor:
#      x y z
#    x 1.531260 0.000000 0.000000 
#    y 0.000000 1.531260 0.000000 
#    z 0.000000 0.000000 1.548140 
# 
# From -- ./inp_files/1405.got.cif
#   From: 2010.05.17/outbox.cif.g08.bks.cpg/sg109_1_cif.got.tgz:1405.got - 2010.05.20 10:51:12.
