data_PCOD9554175
_publ_section_title
;
Structure prediction by ZEFSAII (Michael W. Deem and Ramdas Pophale) SiO2 
 PCOD9554175
Probable space group: I 41 M D
;
_chemical_formula_sum "Si O2"
_cell_formula_units_Z 112
_cell_length_a 13.399711
_cell_length_b 13.399711
_cell_length_c 27.190938
_cell_angle_alpha 90.000000
_cell_angle_beta 90.000000
_cell_angle_gamma 90.000000
_cell_volume 4882.194230
_symmetry_space_group_name_H-M "I 41 M D"
_symmetry_group_IT_number 109
_symmetry_cell_setting 'tetragonal'
loop_
_space_group_symop_operation_xyz
x,y,z
-y,1/2+x,1/4+z
-x,-y,z
y,1/2-x,1/4+z
-x,y,z
x,-y,z
-y,1/2-x,1/4+z
y,1/2+x,1/4+z
1/2+x,1/2+y,1/2+z
1/2-y,x,3/4+z
1/2-x,1/2-y,1/2+z
1/2+y,-x,3/4+z
1/2-x,1/2+y,1/2+z
1/2+x,1/2-y,1/2+z
1/2-y,-x,3/4+z
1/2+y,x,3/4+z
loop_
_atom_site_type_symbol
_atom_site_label
_atom_site_fract_x
_atom_site_fract_y
_atom_site_fract_z
Si Si1 0.821815 0.811586 0.978640
Si Si2 0.389819 0.724560 0.086488
Si Si3 0.386415 0.889786 0.168663
Si Si4 0.105378 0.686824 0.481628
Si Si5 0.209830 0.387840 0.037805
Si Si6 0.683097 0.615449 0.379636
Si Si7 0.890813 0.382425 0.333090
O O1 0.711540 0.859041 0.969903
O O2 0.865906 0.824373 0.924653
O O3 0.810459 0.697308 0.996964
O O4 0.868509 0.867375 0.025225
O O5 0.500000 0.678788 0.091453
O O6 0.371962 0.795496 0.133142
O O7 0.307415 0.645731 0.069303
O O8 0.393621 0.800058 0.040141
O O9 0.500000 0.883297 0.188678
O O10 0.298507 0.891899 0.208580
O O11 0.381556 0.000000 0.143701
O O12 0.000000 0.639802 0.465994
O O13 0.216966 0.500000 0.018987
O O14 0.125153 0.377758 0.079169
O O15 0.688256 0.500000 0.393605
O O16 0.794366 0.654259 0.363207
O O17 0.894583 0.500000 0.342642
O O18 0.000000 0.338860 0.344940
#
# Coordination Sequence:
#
# PCOD9554175 Si02
#       7
#    16  16  16  16  16  16  16
#     4  10  20  36  58  86 117 153 196 242 293 349
#     4   9  18  34  55  80 113 152 195 243 289 338
#     4   9  17  31  53  78 105 144 194 243 291 345
#     4   9  18  31  48  75 110 146 186 231 279 333
#     4  10  22  39  58  84 119 158 199 241 290 350
#     4  10  21  38  61  89 118 149 193 246 301 360
#     4   9  19  37  61  88 118 152 192 243 302 361
#
# _framework density 22.940504000000001
#
# number of rings (size 3 to 8) (size 9 to 14) (size 15 to 20)
#    0.000    2.571    0.000    1.286    0.000    4.000 
#    0.000   15.714    0.000    3.857    0.000    2.000 
#    0.000    0.000    0.000    0.000    0.000    0.000 
#
# Total GULP energy -312336.729260 kJ/mol
# GULP energy per Si atom -5577.441594 kJ/mol
# Density = 2.288829 g / cm^3
# Si number density = 22.940504 Si / 1000 Ang^3
#
#
#
# Elastic Constant Matrix: (Units=GPa)
#
#
# Indices 1 2 3 4 5 6 
#
# 1 91.5785 2.1013 11.8173 0.0000 0.0000 0.0000
# 2 2.1013 91.5785 11.8173 0.0000 0.0000 0.0000
# 3 11.8173 11.8173 118.6979 0.0000 0.0000 0.0000
# 4 0.0000 0.0000 0.0000 6.7951 0.0000 0.0000
# 5 0.0000 0.0000 0.0000 0.0000 6.7951 0.0000
# 6 0.0000 0.0000 0.0000 0.0000 0.0000 20.8864
#
#
#
# Elastic Compliance Matrix: (Units=1/GPa)
#
#
# Indices 1 2 3 4 5 6 
#
# 1 0.011063 -0.000113 -0.001090 0.000000 0.000000 0.000000
# 2 -0.000113 0.011063 -0.001090 0.000000 0.000000 0.000000
# 3 -0.001090 -0.001090 0.008642 0.000000 0.000000 0.000000
# 4 0.000000 0.000000 0.000000 0.147165 0.000000 0.000000
# 5 0.000000 0.000000 0.000000 0.000000 0.147165 0.000000
# 6 0.000000 0.000000 0.000000 0.000000 0.000000 0.047878
#
#
# Mechanical properties :
#
#
# Convention : Reuss Voigt Hill
#
# Bulk Modulus (GPa) = 38.19611 39.25853 38.72732
# Shear Modulus (GPa) = 12.94364 25.30324 19.12344
#
# Velocity S-wave (km/s) = 2.37792 3.32474 2.89036
# Velocity P-wave (km/s) = 4.92195 5.64702 5.29691
#
# Compressibility (1/GPa) = 0.02618068
#
# Stress axis : x y z
#
# Youngs Moduli (GPa) = 90.39254 90.39254 115.71651
#
# Poissons Ratio (x) = 0.01023 0.12615
# Poissons Ratio (y) = 0.01023 0.12615
# Poissons Ratio (z) = 0.09854 0.09854
#
# Static dielectric constant tensor:
#      x y z
#    x 1.922370 0.000000 0.000000 
#    y 0.000000 1.922370 0.000000 
#    z 0.000000 0.000000 1.867130 
# 
# From -- ./inp_files/4467.got.cif
#   From: 2010.05.17/outbox.cif.g08.bks.cpg/sg109_3_cif.got.tgz:4467.got - 2010.05.20 10:51:12.
