data_PCOD9554351
_publ_section_title
;
Structure prediction by ZEFSAII (Michael W. Deem and Ramdas Pophale) SiO2 
 PCOD9554351
Probable space group: I 41 C D
;
_chemical_formula_sum "Si O2"
_cell_formula_units_Z 120
_cell_length_a 26.596862
_cell_length_b 26.596862
_cell_length_c 8.704188
_cell_angle_alpha 90.000000
_cell_angle_beta 90.000000
_cell_angle_gamma 90.000000
_cell_volume 6157.282256
_symmetry_space_group_name_H-M "I 41 C D"
_symmetry_group_IT_number 110
_symmetry_cell_setting 'tetragonal'
loop_
_space_group_symop_operation_xyz
x,y,z
-y,1/2+x,1/4+z
-x,-y,z
y,1/2-x,1/4+z
-x,y,1/2+z
x,-y,1/2+z
1/2-y,-x,1/4+z
1/2+y,x,1/4+z
1/2+x,1/2+y,1/2+z
1/2-y,x,3/4+z
1/2-x,1/2-y,1/2+z
1/2+y,-x,3/4+z
1/2-x,1/2+y,z
1/2+x,1/2-y,z
-y,1/2-x,3/4+z
y,1/2+x,3/4+z
loop_
_atom_site_type_symbol
_atom_site_label
_atom_site_fract_x
_atom_site_fract_y
_atom_site_fract_z
Si Si1 0.067875 0.548094 0.725840
Si Si2 0.500000 0.000000 0.484479
Si Si3 0.874431 0.152371 0.482984
Si Si4 0.529064 0.657640 0.950894
Si Si5 0.454030 0.707508 0.765900
Si Si6 0.793985 0.791442 0.843366
Si Si7 0.758613 0.870463 0.350444
Si Si8 0.632772 0.321916 0.328101
O O1 0.040128 0.528531 0.877783
O O2 0.097092 0.600931 0.745084
O O3 0.111174 0.507868 0.683967
O O4 0.027396 0.541442 0.590680
O O5 0.912273 0.183770 0.376297
O O6 0.819923 0.157055 0.401944
O O7 0.874419 0.181204 0.645595
O O8 0.504686 0.706564 0.866298
O O9 0.584190 0.648055 0.887155
O O10 0.533509 0.669361 0.129241
O O11 0.425721 0.752558 0.677258
O O12 0.791822 0.757373 0.996969
O O13 0.831866 0.767699 0.718416
O O14 0.815407 0.852068 0.342348
O O15 0.727547 0.866710 0.189063
#
# Coordination Sequence:
#
# PCOD9554351 Si02
#       8
#    16   8  16  16  16  16  16  16
#     4  10  19  37  59  98 121 158 211 261 314 382
#     4  10  20  32  64  92 128 156 192 270 322 364
#     4  10  22  36  59  92 124 161 213 262 317 380
#     4  10  18  35  65  87 120 158 214 262 306 377
#     4   9  19  36  59  89 117 156 206 266 309 371
#     4  11  24  38  60  89 129 165 208 265 317 373
#     4  10  22  38  56  89 128 160 208 257 327 382
#     4  11  22  37  60  90 123 169 206 269 318 382
#
# _framework density 19.489118999999999
#
# number of rings (size 3 to 8) (size 9 to 14) (size 15 to 20)
#    0.000    1.867    1.333    4.000    3.733    0.000 
#    0.000    0.000    0.000   12.800   13.867    0.000 
#    0.000    0.000    0.000    0.000    0.000    0.000 
#
# Total GULP energy -334218.490221 kJ/mol
# GULP energy per Si atom -5570.308170 kJ/mol
# Density = 1.944476 g / cm^3
# Si number density = 19.489119 Si / 1000 Ang^3
#
#
#
# Elastic Constant Matrix: (Units=GPa)
#
#
# Indices 1 2 3 4 5 6 
#
# 1 83.6098 40.5848 42.4327 0.0000 0.0000 0.0000
# 2 40.5848 83.6098 42.4327 0.0000 0.0000 0.0000
# 3 42.4327 42.4327 143.0321 0.0000 0.0000 0.0000
# 4 0.0000 0.0000 0.0000 15.6325 0.0000 0.0000
# 5 0.0000 0.0000 0.0000 0.0000 15.6325 0.0000
# 6 0.0000 0.0000 0.0000 0.0000 0.0000 16.7629
#
#
#
# Elastic Compliance Matrix: (Units=1/GPa)
#
#
# Indices 1 2 3 4 5 6 
#
# 1 0.016671 -0.006572 -0.002996 0.000000 0.000000 0.000000
# 2 -0.006572 0.016671 -0.002996 0.000000 0.000000 0.000000
# 3 -0.002996 -0.002996 0.008769 0.000000 0.000000 0.000000
# 4 0.000000 0.000000 0.000000 0.063969 0.000000 0.000000
# 5 0.000000 0.000000 0.000000 0.000000 0.063969 0.000000
# 6 0.000000 0.000000 0.000000 0.000000 0.000000 0.059655
#
#
# Mechanical properties :
#
#
# Convention : Reuss Voigt Hill
#
# Bulk Modulus (GPa) = 58.88191 62.35024 60.61608
# Shear Modulus (GPa) = 19.19436 21.92568 20.56002
#
# Velocity S-wave (km/s) = 3.14168 3.35777 3.25152
# Velocity P-wave (km/s) = 6.59079 6.86255 6.72804
#
# Compressibility (1/GPa) = 0.01698314
#
# Stress axis : x y z
#
# Youngs Moduli (GPa) = 59.98533 59.98533 114.03668
#
# Poissons Ratio (x) = 0.39420 0.34166
# Poissons Ratio (y) = 0.39420 0.34166
# Poissons Ratio (z) = 0.17972 0.17972
#
# Static dielectric constant tensor:
#      x y z
#    x 1.730750 0.000000 0.000000 
#    y 0.000000 1.730750 0.000000 
#    z 0.000000 0.000000 1.722350 
# 
# From -- ./inp_files/547.got.cif
#   From: 2010.05.17/outbox.cif.g08.bks.cpg/sg110_1_cif.got.tgz:547.got - 2010.05.20 10:54:03.
