data_PCOD9554844
_publ_section_title
;
Structure prediction by ZEFSAII (Michael W. Deem and Ramdas Pophale) SiO2 
 PCOD9554844
Probable space group: P -4 2 M 
;
_chemical_formula_sum "Si O2"
_cell_formula_units_Z 40
_cell_length_a 14.949454
_cell_length_b 14.949454
_cell_length_c 8.930808
_cell_angle_alpha 90.000000
_cell_angle_beta 90.000000
_cell_angle_gamma 90.000000
_cell_volume 1995.912119
_symmetry_space_group_name_H-M "P -4 2 M "
_symmetry_group_IT_number 111
_symmetry_cell_setting 'tetragonal'
loop_
_space_group_symop_operation_xyz
x,y,z
y,-x,-z
-x,-y,z
-y,x,-z
x,-y,-z
-x,y,-z
-y,-x,z
y,x,z
loop_
_atom_site_type_symbol
_atom_site_label
_atom_site_fract_x
_atom_site_fract_y
_atom_site_fract_z
Si Si1 0.930040 0.786376 0.215748
Si Si2 0.259441 0.117626 0.873814
Si Si3 0.534577 0.855400 0.831183
Si Si4 0.727937 0.580144 0.596053
Si Si5 0.090986 0.612619 0.593157
O O1 0.877573 0.877573 0.245271
O O2 0.905950 0.710070 0.333501
O O3 0.036879 0.792993 0.205652
O O4 0.898433 0.751556 0.051681
O O5 0.211858 0.211858 0.837305
O O6 0.363535 0.108608 0.831998
O O7 0.545218 0.756901 0.759110
O O8 0.461982 0.902825 0.724089
O O9 0.500000 0.856890 0.000000
O O10 0.685966 0.500000 0.500000
O O11 0.664542 0.664542 0.600771
O O12 0.822054 0.601372 0.511937
O O13 0.000000 0.603220 0.500000
#
# Coordination Sequence:
#
# PCOD9554844 Si02
#       5
#     8   8   8   8   8
#     4  10  21  38  60  88 122 164 209 254 306 368
#     4  10  21  37  60  91 125 162 203 257 318 370
#     4  11  22  40  62  94 129 164 208 270 325 381
#     4  10  23  41  63  90 123 167 210 256 315 383
#     4  11  23  41  61  93 130 169 208 255 321 388
#
# _framework density 20.040963999999999
#
# number of rings (size 3 to 8) (size 9 to 14) (size 15 to 20)
#    0.000    1.600    2.000    2.400    0.000    9.800 
#    0.000    4.000    0.000    0.000    0.000    0.000 
#    0.000    0.000    0.000    0.000    0.000    0.000 
#
# Total GULP energy -223534.818016 kJ/mol
# GULP energy per Si atom -5588.370450 kJ/mol
# Density = 1.999535 g / cm^3
# Si number density = 20.040964 Si / 1000 Ang^3
#
#
#
# Elastic Constant Matrix: (Units=GPa)
#
#
# Indices 1 2 3 4 5 6 
#
# 1 102.1139 62.4271 48.6748 0.0000 0.0000 0.0000
# 2 62.4271 102.1139 48.6748 0.0000 0.0000 0.0000
# 3 48.6748 48.6748 97.2743 0.0000 0.0000 0.0000
# 4 0.0000 0.0000 0.0000 15.3937 0.0000 0.0000
# 5 0.0000 0.0000 0.0000 0.0000 15.3937 0.0000
# 6 0.0000 0.0000 0.0000 0.0000 0.0000 34.1542
#
#
#
# Elastic Compliance Matrix: (Units=1/GPa)
#
#
# Indices 1 2 3 4 5 6 
#
# 1 0.016915 -0.008282 -0.004320 0.000000 0.000000 0.000000
# 2 -0.008282 0.016915 -0.004320 0.000000 0.000000 0.000000
# 3 -0.004320 -0.004320 0.014604 0.000000 0.000000 0.000000
# 4 0.000000 0.000000 0.000000 0.064962 0.000000 0.000000
# 5 0.000000 0.000000 0.000000 0.000000 0.064962 0.000000
# 6 0.000000 0.000000 0.000000 0.000000 0.000000 0.029279
#
#
# Mechanical properties :
#
#
# Convention : Reuss Voigt Hill
#
# Bulk Modulus (GPa) = 68.53890 69.00616 68.77253
# Shear Modulus (GPa) = 20.29679 22.43667 21.36673
#
# Velocity S-wave (km/s) = 3.18585 3.34958 3.26874
# Velocity P-wave (km/s) = 6.91422 7.03327 6.97400
#
# Compressibility (1/GPa) = 0.01459025
#
# Stress axis : x y z
#
# Youngs Moduli (GPa) = 59.11791 59.11791 68.47623
#
# Poissons Ratio (x) = 0.48961 0.29582
# Poissons Ratio (y) = 0.48961 0.29582
# Poissons Ratio (z) = 0.25539 0.25539
#
# Static dielectric constant tensor:
#      x y z
#    x 1.702690 0.000000 0.000000 
#    y 0.000000 1.702690 0.000000 
#    z 0.000000 0.000000 1.732460 
# 
# From -- ./inp_files/1532.got.cif
#   From: 2010.05.17/outbox.cif.g08.bks.cpg/sg111_1_cif.got.tgz:1532.got - 2010.05.20 10:56:05.
