data_PCOD9554155
_publ_section_title
;
Structure prediction by ZEFSAII (Michael W. Deem and Ramdas Pophale) SiO2 
 PCOD9554155
Probable space group: I 41 M D
;
_chemical_formula_sum "Si O2"
_cell_formula_units_Z 96
_cell_length_a 13.903871
_cell_length_b 13.903871
_cell_length_c 22.814156
_cell_angle_alpha 90.000000
_cell_angle_beta 90.000000
_cell_angle_gamma 90.000000
_cell_volume 4410.378541
_symmetry_space_group_name_H-M "I 41 M D"
_symmetry_group_IT_number 109
_symmetry_cell_setting 'tetragonal'
loop_
_space_group_symop_operation_xyz
x,y,z
-y,1/2+x,1/4+z
-x,-y,z
y,1/2-x,1/4+z
-x,y,z
x,-y,z
-y,1/2-x,1/4+z
y,1/2+x,1/4+z
1/2+x,1/2+y,1/2+z
1/2-y,x,3/4+z
1/2-x,1/2-y,1/2+z
1/2+y,-x,3/4+z
1/2-x,1/2+y,1/2+z
1/2+x,1/2-y,1/2+z
1/2-y,-x,3/4+z
1/2+y,x,3/4+z
loop_
_atom_site_type_symbol
_atom_site_label
_atom_site_fract_x
_atom_site_fract_y
_atom_site_fract_z
Si Si1 0.109732 0.195211 0.439590
Si Si2 0.288317 0.607257 0.291352
Si Si3 0.387959 0.893238 0.063565
Si Si4 0.691504 0.689961 0.056966
Si Si5 0.113209 0.392594 0.923537
Si Si6 0.113476 0.391340 0.373631
O O1 0.109602 0.125919 0.383649
O O2 0.163012 0.147590 0.494282
O O3 0.142247 0.300124 0.414071
O O4 0.000000 0.209613 0.459107
O O5 0.326352 0.500000 0.303901
O O6 0.334836 0.699148 0.322494
O O7 0.311244 0.626841 0.223137
O O8 0.179439 0.609316 0.315529
O O9 0.500000 0.882365 0.047934
O O10 0.325599 0.803243 0.043102
O O11 0.356012 0.000000 0.044534
O O12 0.627728 0.666077 0.112801
O O13 0.137515 0.500000 0.945927
O O14 0.000000 0.392143 0.910073
O O15 0.125201 0.500000 0.399203
O O16 0.000000 0.378726 0.361187
#
# Coordination Sequence:
#
# PCOD9554155 Si02
#       6
#    16  16  16  16  16  16
#     4  10  20  34  54  85 117 155 203 252 308 368
#     4  10  22  39  61  87 119 163 209 256 309 362
#     4  10  21  36  53  80 119 156 193 243 300 355
#     4  12  22  36  62  87 118 159 204 248 300 373
#     4  10  23  43  64  90 124 159 199 250 306 363
#     4   9  18  36  60  87 123 163 206 257 311 366
#
# _framework density 21.766838
#
# number of rings (size 3 to 8) (size 9 to 14) (size 15 to 20)
#    0.000    1.833    1.667    2.500    0.000    2.000 
#    0.000    4.167    0.000    1.000    0.000    0.000 
#    0.000    0.000    0.000    0.000    0.000    0.000 
#
# Total GULP energy -267518.575812 kJ/mol
# GULP energy per Si atom -5573.303663 kJ/mol
# Density = 2.171730 g / cm^3
# Si number density = 21.766838 Si / 1000 Ang^3
#
#
#
# Elastic Constant Matrix: (Units=GPa)
#
#
# Indices 1 2 3 4 5 6 
#
# 1 67.1272 6.9021 24.1118 0.0000 0.0000 0.0000
# 2 6.9021 67.1272 24.1118 0.0000 0.0000 0.0000
# 3 24.1118 24.1118 85.7091 0.0000 0.0000 0.0000
# 4 0.0000 0.0000 0.0000 20.9920 0.0000 0.0000
# 5 0.0000 0.0000 0.0000 0.0000 20.9920 0.0000
# 6 0.0000 0.0000 0.0000 0.0000 0.0000 17.6603
#
#
#
# Elastic Compliance Matrix: (Units=1/GPa)
#
#
# Indices 1 2 3 4 5 6 
#
# 1 0.016572 -0.000033 -0.004653 0.000000 0.000000 0.000000
# 2 -0.000033 0.016572 -0.004653 0.000000 0.000000 0.000000
# 3 -0.004653 -0.004653 0.014285 0.000000 0.000000 0.000000
# 4 0.000000 0.000000 0.000000 0.047637 0.000000 0.000000
# 5 0.000000 0.000000 0.000000 0.000000 0.047637 0.000000
# 6 0.000000 0.000000 0.000000 0.000000 0.000000 0.056624
#
#
# Mechanical properties :
#
#
# Convention : Reuss Voigt Hill
#
# Bulk Modulus (GPa) = 34.77999 36.69056 35.73528
# Shear Modulus (GPa) = 21.96955 22.91804 22.44380
#
# Velocity S-wave (km/s) = 3.18042 3.24834 3.21456
# Velocity P-wave (km/s) = 5.43138 5.56433 5.49825
#
# Compressibility (1/GPa) = 0.02875216
#
# Stress axis : x y z
#
# Youngs Moduli (GPa) = 60.34379 60.34379 70.00234
#
# Poissons Ratio (x) = 0.00197 0.32571
# Poissons Ratio (y) = 0.00197 0.32571
# Poissons Ratio (z) = 0.28077 0.28077
#
# Static dielectric constant tensor:
#      x y z
#    x 1.855860 0.000000 0.000000 
#    y 0.000000 1.855860 0.000000 
#    z 0.000000 0.000000 1.805250 
# 
# From -- ./inp_files/3797.got.cif
#   From: 2010.05.17/outbox.cif.g08.bks.cpg/sg109_2_cif.got.tgz:3797.got - 2010.05.20 10:51:12.
