data_PCOD9554858
_publ_section_title
;
Structure prediction by ZEFSAII (Michael W. Deem and Ramdas Pophale) SiO2 
 PCOD9554858
Probable space group: P -4 2 M 
;
_chemical_formula_sum "Si O2"
_cell_formula_units_Z 40
_cell_length_a 11.883351
_cell_length_b 11.883351
_cell_length_c 13.213312
_cell_angle_alpha 90.000000
_cell_angle_beta 90.000000
_cell_angle_gamma 90.000000
_cell_volume 1865.905050
_symmetry_space_group_name_H-M "P -4 2 M "
_symmetry_group_IT_number 111
_symmetry_cell_setting 'tetragonal'
loop_
_space_group_symop_operation_xyz
x,y,z
y,-x,-z
-x,-y,z
-y,x,-z
x,-y,-z
-x,y,-z
-y,-x,z
y,x,z
loop_
_atom_site_type_symbol
_atom_site_label
_atom_site_fract_x
_atom_site_fract_y
_atom_site_fract_z
Si Si1 0.144778 0.677893 0.823711
Si Si2 0.188998 0.632852 0.604178
Si Si3 0.461740 0.287818 0.888748
Si Si4 0.106487 0.284663 0.836614
Si Si5 0.364998 0.184146 0.618602
O O1 0.217277 0.782724 0.860429
O O2 0.130070 0.684366 0.701989
O O3 0.224171 0.568378 0.839674
O O4 0.020198 0.686406 0.867827
O O5 0.313911 0.686090 0.605313
O O6 0.139132 0.663036 0.494056
O O7 0.189401 0.499325 0.618338
O O8 0.396047 0.396047 0.841690
O O9 0.367666 0.190914 0.894836
O O10 0.500000 0.320785 0.000000
O O11 0.159337 0.159337 0.847412
O O12 0.121749 0.320304 0.718000
O O13 0.305995 0.305995 0.624433
#
# Coordination Sequence:
#
# PCOD9554858 Si02
#       5
#     8   8   8   8   8
#     4  11  23  38  59  90 123 157 201 250 299 354
#     4   9  18  30  50  83 120 157 199 244 294 353
#     4  11  24  43  66  91 119 152 190 238 302 372
#     4  10  22  40  61  86 119 161 207 250 294 348
#     4   9  17  32  52  79 118 162 202 241 290 351
#
# _framework density 21.437317
#
# number of rings (size 3 to 8) (size 9 to 14) (size 15 to 20)
#    0.000    2.000    2.000    1.200    0.000    4.600 
#    0.000    6.000    0.000    0.000    0.000    8.400 
#    0.000    0.000    0.000    0.000    0.000    0.000 
#
# Total GULP energy -222894.390993 kJ/mol
# GULP energy per Si atom -5572.359775 kJ/mol
# Density = 2.138853 g / cm^3
# Si number density = 21.437317 Si / 1000 Ang^3
#
#
#
# Elastic Constant Matrix: (Units=GPa)
#
#
# Indices 1 2 3 4 5 6 
#
# 1 37.8683 124.6101 10.0455 0.0000 0.0000 0.0000
# 2 124.6101 37.8632 10.0475 0.0000 0.0000 0.0000
# 3 10.0455 10.0475 60.2741 0.0000 0.0000 0.0000
# 4 0.0000 0.0000 0.0000 11.9889 0.0000 0.0000
# 5 0.0000 0.0000 0.0000 0.0000 11.9892 0.0000
# 6 0.0000 0.0000 0.0000 0.0000 0.0000 10.6405
#
#
#
# Elastic Compliance Matrix: (Units=1/GPa)
#
#
# Indices 1 2 3 4 5 6 
#
# 1 -0.002622 0.008906 -0.001048 0.000000 0.000000 0.000000
# 2 0.008906 -0.002622 -0.001047 0.000000 0.000000 0.000000
# 3 -0.001048 -0.001047 0.016940 0.000000 0.000000 0.000000
# 4 0.000000 0.000000 0.000000 0.083411 0.000000 0.000000
# 5 0.000000 0.000000 0.000000 0.000000 0.083409 0.000000
# 6 0.000000 0.000000 0.000000 0.000000 0.000000 0.093980
#
#
# Mechanical properties :
#
#
# Convention : Reuss Voigt Hill
#
# Bulk Modulus (GPa) = 39.49638 47.26798 43.38218
# Shear Modulus (GPa) = 18.70468 6.34389 12.52428
#
# Velocity S-wave (km/s) = 2.95706 1.72212 2.41970
# Velocity P-wave (km/s) = 5.48845 5.10407 5.29975
#
# Compressibility (1/GPa) = 0.02531878
#
# Stress axis : x y z
#
# Youngs Moduli (GPa) = -381.43030 -381.36994 59.03168
#
# Poissons Ratio (x) = 3.39656 0.06185
# Poissons Ratio (y) = 3.39710 0.06182
# Poissons Ratio (z) = -0.39962 -0.39939
#
# Static dielectric constant tensor:
#      x y z
#    x 1.785480 0.000000 0.000000 
#    y 0.000000 1.785480 0.000000 
#    z 0.000000 0.000000 1.861790 
# 
# From -- ./inp_files/3199.got.cif
#   From: 2010.05.17/outbox.cif.g08.bks.cpg/sg111_2_cif.got.tgz:3199.got - 2010.05.20 10:56:05.
