data_PCOD9554445
_publ_section_title
;
Structure prediction by ZEFSAII (Michael W. Deem and Ramdas Pophale) SiO2 
 PCOD9554445
Probable space group: I 41 C D
;
_chemical_formula_sum "Si O2"
_cell_formula_units_Z 96
_cell_length_a 14.814161
_cell_length_b 14.814161
_cell_length_c 18.855227
_cell_angle_alpha 90.000000
_cell_angle_beta 90.000000
_cell_angle_gamma 90.000000
_cell_volume 4137.956166
_symmetry_space_group_name_H-M "I 41 C D"
_symmetry_group_IT_number 110
_symmetry_cell_setting 'tetragonal'
loop_
_space_group_symop_operation_xyz
x,y,z
-y,1/2+x,1/4+z
-x,-y,z
y,1/2-x,1/4+z
-x,y,1/2+z
x,-y,1/2+z
1/2-y,-x,1/4+z
1/2+y,x,1/4+z
1/2+x,1/2+y,1/2+z
1/2-y,x,3/4+z
1/2-x,1/2-y,1/2+z
1/2+y,-x,3/4+z
1/2-x,1/2+y,z
1/2+x,1/2-y,z
-y,1/2-x,3/4+z
y,1/2+x,3/4+z
loop_
_atom_site_type_symbol
_atom_site_label
_atom_site_fract_x
_atom_site_fract_y
_atom_site_fract_z
Si Si1 0.504588 0.390877 0.096480
Si Si2 0.587504 0.053858 0.570164
Si Si3 0.169562 0.884684 0.186614
Si Si4 0.216830 0.612457 0.563530
Si Si5 0.113442 0.127727 0.466070
Si Si6 0.101679 0.672039 0.936508
O O1 0.500000 0.500000 0.095940
O O2 0.427614 0.358693 0.152120
O O3 0.602457 0.365420 0.126364
O O4 0.472920 0.362160 0.018229
O O5 0.567189 0.094543 0.647483
O O6 0.618145 0.126935 0.513192
O O7 0.500000 0.000000 0.541906
O O8 0.664598 0.979555 0.578965
O O9 0.247236 0.846571 0.136215
O O10 0.172363 0.848614 0.265719
O O11 0.175675 0.992512 0.181624
O O12 0.306033 0.594363 0.516130
O O13 0.136923 0.226651 0.436280
#
# Coordination Sequence:
#
# PCOD9554445 Si02
#       6
#    16  16  16  16  16  16
#     4   9  19  40  67  92 133 185 228 276 352 427
#     4  12  23  43  72 101 135 190 237 281 358 436
#     4  10  20  42  69  97 132 185 228 290 346 418
#     4  11  23  44  67 101 141 181 237 289 351 419
#     4  11  26  40  67 105 140 177 236 301 345 415
#     4  11  21  41  71  97 131 187 236 279 360 415
#
# _framework density 23.199860999999999
#
# number of rings (size 3 to 8) (size 9 to 14) (size 15 to 20)
#    0.000    1.333    5.000    1.000    4.667    0.000 
#    3.000    1.667    0.000    0.000    0.000    0.000 
#    0.000    0.000    0.000    0.000    0.000    0.000 
#
# Total GULP energy -268494.210550 kJ/mol
# GULP energy per Si atom -5593.629386 kJ/mol
# Density = 2.314706 g / cm^3
# Si number density = 23.199861 Si / 1000 Ang^3
#
#
#
# Elastic Constant Matrix: (Units=GPa)
#
#
# Indices 1 2 3 4 5 6 
#
# 1 56.7554 5.1469 8.8952 0.0000 0.0000 0.0000
# 2 5.1469 56.7554 8.8952 0.0000 0.0000 0.0000
# 3 8.8952 8.8952 65.1983 0.0000 0.0000 0.0000
# 4 0.0000 0.0000 0.0000 37.4130 0.0000 0.0000
# 5 0.0000 0.0000 0.0000 0.0000 37.4130 0.0000
# 6 0.0000 0.0000 0.0000 0.0000 0.0000 8.1667
#
#
#
# Elastic Compliance Matrix: (Units=1/GPa)
#
#
# Indices 1 2 3 4 5 6 
#
# 1 0.018095 -0.001281 -0.002294 0.000000 0.000000 0.000000
# 2 -0.001281 0.018095 -0.002294 0.000000 0.000000 0.000000
# 3 -0.002294 -0.002294 0.015964 0.000000 0.000000 0.000000
# 4 0.000000 0.000000 0.000000 0.026729 0.000000 0.000000
# 5 0.000000 0.000000 0.000000 0.000000 0.026729 0.000000
# 6 0.000000 0.000000 0.000000 0.000000 0.000000 0.122448
#
#
# Mechanical properties :
#
#
# Convention : Reuss Voigt Hill
#
# Bulk Modulus (GPa) = 24.74299 24.95373 24.84836
# Shear Modulus (GPa) = 19.74176 26.98334 23.36255
#
# Velocity S-wave (km/s) = 2.92026 3.41410 3.17679
# Velocity P-wave (km/s) = 4.69668 5.13038 4.91831
#
# Compressibility (1/GPa) = 0.04041549
#
# Stress axis : x y z
#
# Youngs Moduli (GPa) = 55.26327 55.26327 62.64189
#
# Poissons Ratio (x) = 0.07082 0.14370
# Poissons Ratio (y) = 0.07082 0.14370
# Poissons Ratio (z) = 0.12677 0.12677
#
# Static dielectric constant tensor:
#      x y z
#    x 1.894050 0.000000 0.000000 
#    y 0.000000 1.894050 0.000000 
#    z 0.000000 0.000000 1.884390 
# 
# From -- ./inp_files/2180.got.cif
#   From: 2010.05.17/outbox.cif.g08.bks.cpg/sg110_2_cif.got.tgz:2180.got - 2010.05.20 10:54:03.
