data_PCOD9554261
_publ_section_title
;
Structure prediction by ZEFSAII (Michael W. Deem and Ramdas Pophale) SiO2 
 PCOD9554261
Probable space group: I 41 M D
;
_chemical_formula_sum "Si O2"
_cell_formula_units_Z 116
_cell_length_a 18.953636
_cell_length_b 18.953636
_cell_length_c 17.236999
_cell_angle_alpha 90.000000
_cell_angle_beta 90.000000
_cell_angle_gamma 90.000000
_cell_volume 6192.224996
_symmetry_space_group_name_H-M "I 41 M D"
_symmetry_group_IT_number 109
_symmetry_cell_setting 'tetragonal'
loop_
_space_group_symop_operation_xyz
x,y,z
-y,1/2+x,1/4+z
-x,-y,z
y,1/2-x,1/4+z
-x,y,z
x,-y,z
-y,1/2-x,1/4+z
y,1/2+x,1/4+z
1/2+x,1/2+y,1/2+z
1/2-y,x,3/4+z
1/2-x,1/2-y,1/2+z
1/2+y,-x,3/4+z
1/2-x,1/2+y,1/2+z
1/2+x,1/2-y,1/2+z
1/2-y,-x,3/4+z
1/2+y,x,3/4+z
loop_
_atom_site_type_symbol
_atom_site_label
_atom_site_fract_x
_atom_site_fract_y
_atom_site_fract_z
Si Si1 0.418219 0.916969 0.581140
Si Si2 0.844261 0.814348 0.940545
Si Si3 0.690455 0.649159 0.899229
Si Si4 0.423002 0.857396 0.995682
Si Si5 0.811145 0.684266 0.372412
Si Si6 0.853918 0.348913 0.928171
Si Si7 0.000000 0.000000 0.276721
Si Si8 0.417190 0.415102 0.023213
O O1 0.500000 0.899468 0.594738
O O2 0.370680 0.897115 0.654567
O O3 0.389285 0.874831 0.507100
O O4 0.412902 0.000000 0.564374
O O5 0.767350 0.829719 0.904100
O O6 0.865285 0.734737 0.916909
O O7 0.837239 0.816617 0.033073
O O8 0.684911 0.608118 0.818175
O O9 0.677999 0.731639 0.882383
O O10 0.769365 0.641018 0.932427
O O11 0.632638 0.619291 0.958283
O O12 0.500000 0.827874 0.972354
O O13 0.439836 0.936954 0.022924
O O14 0.368678 0.853892 0.925483
O O15 0.885572 0.391739 0.856003
O O16 0.500000 0.399635 0.010434
O O17 0.409028 0.500000 0.020884
#
# Coordination Sequence:
#
# PCOD9554261 Si02
#       8
#    16  16  16  16  16  16   4  16
#     4  11  25  45  65  93 133 171 212 268 328 380
#     4  11  23  44  68  96 129 163 217 270 323 381
#     4  11  23  37  67  96 130 167 216 265 325 385
#     4  10  22  42  61  89 129 174 211 261 324 381
#     4  11  22  43  66  97 128 165 216 272 320 379
#     4  11  23  41  67  96 128 170 212 271 321 391
#     4   8  24  44  60  84 136 176 210 276 324 372
#     4  11  25  40  61  95 135 173 212 260 317 392
#
# _framework density 18.733170000000001
#
# number of rings (size 3 to 8) (size 9 to 14) (size 15 to 20)
#    0.414    0.828    2.759    2.897    4.828    7.724 
#    2.483    0.000    0.000    0.000    0.000    0.000 
#    0.000    0.000    0.000    0.000    0.000    0.000 
#
# Total GULP energy -323562.413299 kJ/mol
# GULP energy per Si atom -5578.662298 kJ/mol
# Density = 1.869053 g / cm^3
# Si number density = 18.733170 Si / 1000 Ang^3
#
#
#
# Elastic Constant Matrix: (Units=GPa)
#
#
# Indices 1 2 3 4 5 6 
#
# 1 69.7191 49.8152 7.7783 0.0000 0.0000 0.0000
# 2 49.8152 69.7191 7.7783 0.0000 0.0000 0.0000
# 3 7.7783 7.7783 73.7375 0.0000 0.0000 0.0000
# 4 0.0000 0.0000 0.0000 -31.2099 0.0000 0.0000
# 5 0.0000 0.0000 0.0000 0.0000 -31.2099 0.0000
# 6 0.0000 0.0000 0.0000 0.0000 0.0000 32.8787
#
#
#
# Elastic Compliance Matrix: (Units=1/GPa)
#
#
# Indices 1 2 3 4 5 6 
#
# 1 0.029362 -0.020880 -0.000895 0.000000 0.000000 0.000000
# 2 -0.020880 0.029362 -0.000895 0.000000 0.000000 0.000000
# 3 -0.000895 -0.000895 0.013750 0.000000 0.000000 0.000000
# 4 0.000000 0.000000 0.000000 -0.032041 0.000000 0.000000
# 5 0.000000 0.000000 0.000000 0.000000 -0.032041 0.000000
# 6 0.000000 0.000000 0.000000 0.000000 0.000000 0.030415
#
#
# Mechanical properties :
#
#
# Convention : Reuss Voigt Hill
#
# Bulk Modulus (GPa) = 36.85164 38.21326 37.53245
# Shear Modulus (GPa) = 53.65385 3.94538 28.79961
#
# Velocity S-wave (km/s) = 5.35754 1.45281 3.92517
# Velocity P-wave (km/s) = 7.61483 4.82257 6.37349
#
# Compressibility (1/GPa) = 0.02713584
#
# Stress axis : x y z
#
# Youngs Moduli (GPa) = 34.05788 34.05788 72.72519
#
# Poissons Ratio (x) = 0.71111 0.06507
# Poissons Ratio (y) = 0.71111 0.06507
# Poissons Ratio (z) = 0.03047 0.03047
#
# Static dielectric constant tensor:
#      x y z
#    x 1.648260 0.000000 0.000000 
#    y 0.000000 1.648260 0.000000 
#    z 0.000000 0.000000 1.629190 
# 
# From -- ./inp_files/3224.got.cif
#   From: 2010.05.17/outbox.cif.g08.bks.cpg/sg109_2_cif.got.tgz:3224.got - 2010.05.20 10:51:12.
