data_PCOD9554006
_publ_section_title
;
Structure prediction by ZEFSAII (Michael W. Deem and Ramdas Pophale) SiO2 
 PCOD9554006
Probable space group: I 4 C M
;
_chemical_formula_sum "Si O2"
_cell_formula_units_Z 112
_cell_length_a 15.061283
_cell_length_b 15.061283
_cell_length_c 30.511900
_cell_angle_alpha 90.000000
_cell_angle_beta 90.000000
_cell_angle_gamma 90.000000
_cell_volume 6921.387914
_symmetry_space_group_name_H-M "I 4 C M"
_symmetry_group_IT_number 108
_symmetry_cell_setting 'tetragonal'
loop_
_space_group_symop_operation_xyz
x,y,z
-y,x,z
-x,-y,z
y,-x,z
-x,y,1/2+z
x,-y,1/2+z
-y,-x,1/2+z
y,x,1/2+z
1/2+x,1/2+y,1/2+z
1/2-y,1/2+x,1/2+z
1/2-x,1/2-y,1/2+z
1/2+y,1/2-x,1/2+z
1/2-x,1/2+y,z
1/2+x,1/2-y,z
1/2-y,1/2-x,z
1/2+y,1/2+x,z
loop_
_atom_site_type_symbol
_atom_site_label
_atom_site_fract_x
_atom_site_fract_y
_atom_site_fract_z
Si Si1 0.605604 0.394397 0.359630
Si Si2 0.890880 0.243905 0.430055
Si Si3 0.609125 0.743898 0.789200
Si Si4 0.459661 0.354756 0.513422
Si Si5 0.000002 0.643921 0.359625
Si Si6 0.540344 0.645243 0.705832
Si Si7 0.144768 0.959735 0.109627
O O1 0.618682 0.500001 0.359631
O O2 0.657903 0.360204 0.402014
O O3 0.639793 0.342105 0.317243
O O4 0.808622 0.308622 0.438985
O O5 0.937171 0.210355 0.474025
O O6 0.958478 0.297306 0.398355
O O7 0.691388 0.808613 0.780274
O O8 0.541523 0.797302 0.820897
O O9 0.562839 0.710352 0.745229
O O10 0.558991 0.395145 0.510106
O O11 0.447791 0.312345 0.561923
O O12 0.079243 0.579243 0.343759
O O13 0.920764 0.579237 0.375488
O O14 0.441012 0.604857 0.709147
O O15 0.552212 0.687655 0.657331
O O16 0.058935 0.895652 0.109627
#
# Coordination Sequence:
#
# PCOD9554006 Si02
#       7
#    16  16  16  16  16  16  16
#     4  11  21  34  48  66  95 129 158 194 246 293
#     4  11  21  33  48  71  98 127 164 203 243 283
#     4  11  21  33  48  71  98 127 164 203 243 283
#     4   9  17  31  50  73  97 125 158 195 243 295
#     4   9  20  38  53  64  90 134 175 202 230 279
#     4   9  17  31  50  73  97 125 158 195 243 295
#     4   7  12  26  49  70  92 123 159 191 228 291
#
# _framework density 16.181725
#
# number of rings (size 3 to 8) (size 9 to 14) (size 15 to 20)
#    0.000    2.429    1.429    3.857    0.000    2.286 
#    0.000    0.714    0.000    0.000    0.000    3.000 
#    0.000    4.571    0.000    0.000    0.000    0.000 
#
# Total GULP energy -311879.438821 kJ/mol
# GULP energy per Si atom -5569.275693 kJ/mol
# Density = 1.614490 g / cm^3
# Si number density = 16.181725 Si / 1000 Ang^3
#
#
#
# Elastic Constant Matrix: (Units=GPa)
#
#
# Indices 1 2 3 4 5 6 
#
# 1 66.6935 26.4663 39.9035 0.0000 0.0000 0.0002
# 2 26.4663 66.6935 39.9035 0.0000 0.0000 -0.0002
# 3 39.9035 39.9035 136.6021 0.0000 0.0000 0.0000
# 4 0.0000 0.0000 0.0000 1.0528 0.0000 0.0000
# 5 0.0000 0.0000 0.0000 0.0000 1.0528 0.0000
# 6 0.0002 -0.0002 0.0000 0.0000 0.0000 18.8504
#
#
#
# Elastic Compliance Matrix: (Units=1/GPa)
#
#
# Indices 1 2 3 4 5 6 
#
# 1 0.019588 -0.005271 -0.004182 0.000000 0.000000 0.000000
# 2 -0.005271 0.019588 -0.004182 0.000000 0.000000 0.000000
# 3 -0.004182 -0.004182 0.009764 0.000000 0.000000 0.000000
# 4 0.000000 0.000000 0.000000 0.949866 0.000000 0.000000
# 5 0.000000 0.000000 0.000000 0.000000 0.949866 0.000000
# 6 0.000000 0.000000 0.000000 0.000000 0.000000 0.053049
#
#
# Mechanical properties :
#
#
# Convention : Reuss Voigt Hill
#
# Bulk Modulus (GPa) = 46.14873 53.61508 49.88191
# Shear Modulus (GPa) = 2.45554 15.10559 8.78056
#
# Velocity S-wave (km/s) = 1.23319 3.05863 2.33195
# Velocity P-wave (km/s) = 5.53251 6.75860 6.17606
#
# Compressibility (1/GPa) = 0.02166907
#
# Stress axis : x y z
#
# Youngs Moduli (GPa) = 51.05193 51.05193 102.41808
#
# Poissons Ratio (x) = 0.26909 0.42833
# Poissons Ratio (y) = 0.26909 0.42833
# Poissons Ratio (z) = 0.21351 0.21351
#
# Static dielectric constant tensor:
#      x y z
#    x 1.547170 0.000000 0.000000 
#    y 0.000000 1.547170 0.000000 
#    z 0.000000 0.000000 1.566560 
# 
# From -- ./inp_files/3372.got.cif
#   From: 2010.05.17/outbox.cif.g08.bks.cpg/sg108_2_cif.got.tgz:3372.got - 2010.05.20 10:49:05.
