data_PCOD9554106
_publ_section_title
;
Structure prediction by ZEFSAII (Michael W. Deem and Ramdas Pophale) SiO2 
 PCOD9554106
Probable space group: I 41 M D
;
_chemical_formula_sum "Si O2"
_cell_formula_units_Z 112
_cell_length_a 14.347090
_cell_length_b 14.347090
_cell_length_c 25.797296
_cell_angle_alpha 90.000000
_cell_angle_beta 90.000000
_cell_angle_gamma 90.000000
_cell_volume 5310.089391
_symmetry_space_group_name_H-M "I 41 M D"
_symmetry_group_IT_number 109
_symmetry_cell_setting 'tetragonal'
loop_
_space_group_symop_operation_xyz
x,y,z
-y,1/2+x,1/4+z
-x,-y,z
y,1/2-x,1/4+z
-x,y,z
x,-y,z
-y,1/2-x,1/4+z
y,1/2+x,1/4+z
1/2+x,1/2+y,1/2+z
1/2-y,x,3/4+z
1/2-x,1/2-y,1/2+z
1/2+y,-x,3/4+z
1/2-x,1/2+y,1/2+z
1/2+x,1/2-y,1/2+z
1/2-y,-x,3/4+z
1/2+y,x,3/4+z
loop_
_atom_site_type_symbol
_atom_site_label
_atom_site_fract_x
_atom_site_fract_y
_atom_site_fract_z
Si Si1 0.106202 0.900338 0.891270
Si Si2 0.895039 0.107494 0.088599
Si Si3 0.102091 0.611987 0.967337
Si Si4 0.342411 0.241017 0.927798
Si Si5 0.662196 0.795438 0.363375
Si Si6 0.185081 0.111828 0.501138
Si Si7 0.392355 0.229322 0.744752
O O1 0.123950 0.809983 0.857765
O O2 0.167448 0.895288 0.942679
O O3 0.000000 0.898304 0.908422
O O4 0.123203 0.000000 0.865013
O O5 0.833916 0.108152 0.140727
O O6 0.000000 0.146934 0.095413
O O7 0.906278 0.000000 0.073008
O O8 0.833242 0.147125 0.041597
O O9 0.100682 0.500000 0.967516
O O10 0.107680 0.651862 0.908958
O O11 0.204067 0.636595 0.991058
O O12 0.000000 0.643508 0.988796
O O13 0.263881 0.279917 0.887872
O O14 0.374019 0.334661 0.956905
O O15 0.308743 0.177843 0.976557
O O16 0.648923 0.841284 0.307963
O O17 0.176621 0.000000 0.498824
O O18 0.500000 0.258910 0.755841
#
# Coordination Sequence:
#
# PCOD9554106 Si02
#       7
#    16  16  16  16  16  16  16
#     4   9  16  25  40  67 103 137 165 196 239 294
#     4  10  20  35  57  81 105 137 176 218 268 330
#     4   9  18  32  49  69  94 126 166 210 252 294
#     4  10  20  34  51  76 106 137 174 218 266 315
#     4  10  19  32  49  70  98 133 171 209 250 302
#     4  10  20  33  50  71  99 136 175 215 258 304
#     4   9  17  30  49  74 105 137 168 209 260 315
#
# _framework density 21.091923999999999
#
# number of rings (size 3 to 8) (size 9 to 14) (size 15 to 20)
#    0.000    2.429    0.000    3.000    0.000    2.857 
#    0.000    7.143    0.000    3.857    0.000    2.000 
#    0.000    0.000    0.000    0.000    0.000    0.000 
#
# Total GULP energy -311780.253114 kJ/mol
# GULP energy per Si atom -5567.504520 kJ/mol
# Density = 2.104392 g / cm^3
# Si number density = 21.091924 Si / 1000 Ang^3
#
#
#
# Elastic Constant Matrix: (Units=GPa)
#
#
# Indices 1 2 3 4 5 6 
#
# 1 24.7737 8.1261 8.1812 0.0000 0.0000 0.0000
# 2 8.1261 24.7737 8.1812 0.0000 0.0000 0.0000
# 3 8.1812 8.1812 49.6554 0.0000 0.0000 0.0000
# 4 0.0000 0.0000 0.0000 33.0255 0.0000 0.0000
# 5 0.0000 0.0000 0.0000 0.0000 33.0255 0.0000
# 6 0.0000 0.0000 0.0000 0.0000 0.0000 17.4247
#
#
#
# Elastic Compliance Matrix: (Units=1/GPa)
#
#
# Indices 1 2 3 4 5 6 
#
# 1 0.046588 -0.013480 -0.005455 0.000000 0.000000 0.000000
# 2 -0.013480 0.046588 -0.005455 0.000000 0.000000 0.000000
# 3 -0.005455 -0.005455 0.021936 0.000000 0.000000 0.000000
# 4 0.000000 0.000000 0.000000 0.030280 0.000000 0.000000
# 5 0.000000 0.000000 0.000000 0.000000 0.030280 0.000000
# 6 0.000000 0.000000 0.000000 0.000000 0.000000 0.057390
#
#
# Mechanical properties :
#
#
# Convention : Reuss Voigt Hill
#
# Bulk Modulus (GPa) = 15.07543 16.46443 15.76993
# Shear Modulus (GPa) = 16.44989 21.67608 19.06298
#
# Velocity S-wave (km/s) = 2.79572 3.20925 3.00960
# Velocity P-wave (km/s) = 4.19338 4.64277 4.42379
#
# Compressibility (1/GPa) = 0.06633311
#
# Stress axis : x y z
#
# Youngs Moduli (GPa) = 21.46455 21.46455 45.58659
#
# Poissons Ratio (x) = 0.28935 0.24867
# Poissons Ratio (y) = 0.28935 0.24867
# Poissons Ratio (z) = 0.11709 0.11709
#
# Static dielectric constant tensor:
#      x y z
#    x 1.814370 0.000000 0.000000 
#    y 0.000000 1.814370 0.000000 
#    z 0.000000 0.000000 1.753870 
# 
# From -- ./inp_files/5065.got.cif
#   From: 2010.05.17/outbox.cif.g08.bks.cpg/sg109_3_cif.got.tgz:5065.got - 2010.05.20 10:51:12.
