data_PCOD9554008
_publ_section_title
;
Structure prediction by ZEFSAII (Michael W. Deem and Ramdas Pophale) SiO2 
 PCOD9554008
Probable space group: I 4 C M
;
_chemical_formula_sum "Si O2"
_cell_formula_units_Z 96
_cell_length_a 16.021730
_cell_length_b 16.021730
_cell_length_c 19.041937
_cell_angle_alpha 90.000000
_cell_angle_beta 90.000000
_cell_angle_gamma 90.000000
_cell_volume 4887.985865
_symmetry_space_group_name_H-M "I 4 C M"
_symmetry_group_IT_number 108
_symmetry_cell_setting 'tetragonal'
loop_
_space_group_symop_operation_xyz
x,y,z
-y,x,z
-x,-y,z
y,-x,z
-x,y,1/2+z
x,-y,1/2+z
-y,-x,1/2+z
y,x,1/2+z
1/2+x,1/2+y,1/2+z
1/2-y,1/2+x,1/2+z
1/2-x,1/2-y,1/2+z
1/2+y,1/2-x,1/2+z
1/2-x,1/2+y,z
1/2+x,1/2-y,z
1/2-y,1/2-x,z
1/2+y,1/2+x,z
loop_
_atom_site_type_symbol
_atom_site_label
_atom_site_fract_x
_atom_site_fract_y
_atom_site_fract_z
Si Si1 0.884275 0.921815 0.037620
Si Si2 0.864963 0.491211 0.192683
Si Si3 0.101032 0.743680 0.781085
Si Si4 0.237121 0.593927 0.943565
Si Si5 0.328380 0.692300 0.144234
Si Si6 0.312892 0.050085 0.549321
O O1 0.822294 0.879622 0.982099
O O2 0.890048 0.021376 0.030753
O O3 0.713043 0.992086 0.983992
O O4 0.806706 0.859429 0.724530
O O5 0.907045 0.407045 0.217221
O O6 0.790935 0.519457 0.242251
O O7 0.841668 0.487898 0.111268
O O8 0.935063 0.564938 0.196143
O O9 0.169044 0.669044 0.782169
O O10 0.083179 0.760633 0.861943
O O11 0.162812 0.662812 0.950105
O O12 0.341154 0.601936 0.111288
O O13 0.239111 0.739111 0.140314
O O14 0.389539 0.748940 0.093488
O O15 0.388983 0.111018 0.528847
#
# Coordination Sequence:
#
# PCOD9554008 Si02
#       6
#    16  16  16  16  16  16
#     4  11  23  40  61  85 108 142 196 245 283 332
#     4   8  13  24  44  73 113 158 191 219 265 328
#     4   8  17  31  52  81 115 151 184 225 279 346
#     4  11  21  35  57  89 122 152 187 231 291 346
#     4   9  17  37  63  83 108 147 190 234 286 335
#     4   9  17  30  53  86 120 152 193 235 277 337
#
# _framework density 19.639990999999998
#
# number of rings (size 3 to 8) (size 9 to 14) (size 15 to 20)
#    0.000    2.667    1.667    3.000    0.000    1.667 
#    0.000    3.333    0.000    2.000    0.000    0.000 
#    0.000    0.000    0.000    0.000    0.000    0.000 
#
# Total GULP energy -267237.452003 kJ/mol
# GULP energy per Si atom -5567.446917 kJ/mol
# Density = 1.959529 g / cm^3
# Si number density = 19.639991 Si / 1000 Ang^3
#
#
#
# Elastic Constant Matrix: (Units=GPa)
#
#
# Indices 1 2 3 4 5 6 
#
# 1 60.5714 20.9803 32.7059 0.0000 0.0000 0.0000
# 2 20.9803 60.5714 32.7059 0.0000 0.0000 0.0000
# 3 32.7059 32.7059 157.4557 0.0000 0.0000 0.0000
# 4 0.0000 0.0000 0.0000 20.1922 0.0000 0.0000
# 5 0.0000 0.0000 0.0000 0.0000 20.1922 0.0000
# 6 0.0000 0.0000 0.0000 0.0000 0.0000 12.9330
#
#
#
# Elastic Compliance Matrix: (Units=1/GPa)
#
#
# Indices 1 2 3 4 5 6 
#
# 1 0.019986 -0.005272 -0.003056 0.000000 0.000000 0.000000
# 2 -0.005272 0.019986 -0.003056 0.000000 0.000000 0.000000
# 3 -0.003056 -0.003056 0.007621 0.000000 0.000000 0.000000
# 4 0.000000 0.000000 0.000000 0.049524 0.000000 0.000000
# 5 0.000000 0.000000 0.000000 0.000000 0.049524 0.000000
# 6 0.000000 0.000000 0.000000 0.000000 0.000000 0.077322
#
#
# Mechanical properties :
#
#
# Convention : Reuss Voigt Hill
#
# Bulk Modulus (GPa) = 40.28551 50.15362 45.21956
# Shear Modulus (GPa) = 19.60739 23.47724 21.54232
#
# Velocity S-wave (km/s) = 3.16308 3.46118 3.31548
# Velocity P-wave (km/s) = 5.82208 6.44709 6.14254
#
# Compressibility (1/GPa) = 0.02482282
#
# Stress axis : x y z
#
# Youngs Moduli (GPa) = 50.03533 50.03533 131.22265
#
# Poissons Ratio (x) = 0.26380 0.40105
# Poissons Ratio (y) = 0.26380 0.40105
# Poissons Ratio (z) = 0.15292 0.15292
#
# Static dielectric constant tensor:
#      x y z
#    x 1.756160 0.000000 0.000000 
#    y 0.000000 1.756160 0.000000 
#    z 0.000000 0.000000 1.699270 
# 
# From -- ./inp_files/2472.got.cif
#   From: 2010.05.17/outbox.cif.g08.bks.cpg/sg108_2_cif.got.tgz:2472.got - 2010.05.20 10:49:05.
