data_PCOD9554787
_publ_section_title
;
Structure prediction by ZEFSAII (Michael W. Deem and Ramdas Pophale) SiO2 
 PCOD9554787
Probable space group: P -4 2 M 
;
_chemical_formula_sum "Si O2"
_cell_formula_units_Z 45
_cell_length_a 12.578744
_cell_length_b 12.578744
_cell_length_c 16.979937
_cell_angle_alpha 90.000000
_cell_angle_beta 90.000000
_cell_angle_gamma 90.000000
_cell_volume 2686.647146
_symmetry_space_group_name_H-M "P -4 2 M "
_symmetry_group_IT_number 111
_symmetry_cell_setting 'tetragonal'
loop_
_space_group_symop_operation_xyz
x,y,z
y,-x,-z
-x,-y,z
-y,x,-z
x,-y,-z
-x,y,-z
-y,-x,z
y,x,z
loop_
_atom_site_type_symbol
_atom_site_label
_atom_site_fract_x
_atom_site_fract_y
_atom_site_fract_z
Si Si1 0.000000 0.000000 0.000000
Si Si2 0.915182 0.915182 0.842433
Si Si3 0.641179 0.820848 0.164938
Si Si4 0.702424 0.970455 0.748242
Si Si5 0.797837 0.622455 0.994496
Si Si6 0.780035 0.601146 0.821616
Si Si7 0.003549 0.821819 0.588158
O O1 0.929875 0.929875 0.937725
O O2 0.803005 0.947584 0.805833
O O3 0.000000 0.000000 0.809897
O O4 0.737243 0.737243 0.177547
O O5 0.525902 0.765177 0.175309
O O6 0.648974 0.922174 0.220677
O O7 0.647514 0.862289 0.073674
O O8 0.630502 0.865916 0.756036
O O9 0.743373 0.986562 0.660090
O O10 0.694938 0.694938 0.001351
O O11 0.836242 0.634380 0.905215
O O12 0.767469 0.500000 0.000000
O O13 0.674175 0.674175 0.815019
O O14 0.910380 0.910380 0.590926
O O15 0.000000 0.774975 0.500000
O O16 0.113113 0.886887 0.598411
#
# Coordination Sequence:
#
# PCOD9554787 Si02
#       7
#     1   4   8   8   8   8   8
#     4   8  24  32  40  76 110 160 184 192 244 296
#     4  10  20  34  46  67 109 144 178 202 233 299
#     4  10  21  34  52  74 101 138 178 222 260 306
#     4  12  20  33  53  78 106 136 171 213 264 316
#     4   8  16  30  45  66  94 128 176 218 256 293
#     4  10  20  35  52  74 101 138 178 219 265 307
#     4   9  17  30  51  76 103 135 171 209 256 312
#
# _framework density 16.749500000000001
#
# number of rings (size 3 to 8) (size 9 to 14) (size 15 to 20)
#    0.267    1.956    1.778    2.667    0.000    2.667 
#    0.000    6.222    0.000    2.133    0.000    0.000 
#    0.000    0.000    0.000    7.467    0.000    0.356 
#
# Total GULP energy -250503.822219 kJ/mol
# GULP energy per Si atom -5566.751605 kJ/mol
# Density = 1.671138 g / cm^3
# Si number density = 16.749500 Si / 1000 Ang^3
#
#
#
# Elastic Constant Matrix: (Units=GPa)
#
#
# Indices 1 2 3 4 5 6 
#
# 1 35.9626 16.5192 16.3350 0.0000 0.0000 0.0000
# 2 16.5192 35.9631 16.3353 0.0000 0.0000 0.0000
# 3 16.3350 16.3353 113.9183 0.0000 0.0000 0.0000
# 4 0.0000 0.0000 0.0000 22.6012 0.0000 0.0000
# 5 0.0000 0.0000 0.0000 0.0000 22.6008 0.0000
# 6 0.0000 0.0000 0.0000 0.0000 0.0000 154.7449
#
#
#
# Elastic Compliance Matrix: (Units=1/GPa)
#
#
# Indices 1 2 3 4 5 6 
#
# 1 0.036176 -0.015255 -0.003000 0.000000 0.000000 0.000000
# 2 -0.015255 0.036176 -0.003000 0.000000 0.000000 0.000000
# 3 -0.003000 -0.003000 0.009639 0.000000 0.000000 0.000000
# 4 0.000000 0.000000 0.000000 0.044245 0.000000 0.000000
# 5 0.000000 0.000000 0.000000 0.000000 0.044246 0.000000
# 6 0.000000 0.000000 0.000000 0.000000 0.000000 0.006462
#
#
# Mechanical properties :
#
#
# Convention : Reuss Voigt Hill
#
# Bulk Modulus (GPa) = 25.32816 31.58034 28.45425
# Shear Modulus (GPa) = 21.49481 49.09970 35.29725
#
# Velocity S-wave (km/s) = 3.58622 5.42013 4.59558
# Velocity P-wave (km/s) = 5.68353 7.62009 6.72192
#
# Compressibility (1/GPa) = 0.03948175
#
# Stress axis : x y z
#
# Youngs Moduli (GPa) = 27.64236 27.64270 103.74968
#
# Poissons Ratio (x) = 0.42168 0.31125
# Poissons Ratio (y) = 0.42167 0.31126
# Poissons Ratio (z) = 0.08293 0.08293
#
# Static dielectric constant tensor:
#      x y z
#    x 1.566010 0.000000 0.000000 
#    y 0.000000 1.566010 0.000000 
#    z 0.000000 0.000000 1.596870 
# 
# From -- ./inp_files/3702.got.cif
#   From: 2010.05.17/outbox.cif.g08.bks.cpg/sg111_2_cif.got.tgz:3702.got - 2010.05.20 10:56:05.
