data_PCOD9554355
_publ_section_title
;
Structure prediction by ZEFSAII (Michael W. Deem and Ramdas Pophale) SiO2 
 PCOD9554355
Probable space group: I 41 C D
;
_chemical_formula_sum "Si O2"
_cell_formula_units_Z 112
_cell_length_a 26.169680
_cell_length_b 26.169680
_cell_length_c 10.390395
_cell_angle_alpha 90.000000
_cell_angle_beta 90.000000
_cell_angle_gamma 90.000000
_cell_volume 7115.884369
_symmetry_space_group_name_H-M "I 41 C D"
_symmetry_group_IT_number 110
_symmetry_cell_setting 'tetragonal'
loop_
_space_group_symop_operation_xyz
x,y,z
-y,1/2+x,1/4+z
-x,-y,z
y,1/2-x,1/4+z
-x,y,1/2+z
x,-y,1/2+z
1/2-y,-x,1/4+z
1/2+y,x,1/4+z
1/2+x,1/2+y,1/2+z
1/2-y,x,3/4+z
1/2-x,1/2-y,1/2+z
1/2+y,-x,3/4+z
1/2-x,1/2+y,z
1/2+x,1/2-y,z
-y,1/2-x,3/4+z
y,1/2+x,3/4+z
loop_
_atom_site_type_symbol
_atom_site_label
_atom_site_fract_x
_atom_site_fract_y
_atom_site_fract_z
Si Si1 0.794221 0.250000 0.816010
Si Si2 0.711454 0.447633 0.945193
Si Si3 0.288546 0.052367 0.186826
Si Si4 0.932898 0.279918 0.182947
Si Si5 0.860998 0.352707 0.791944
Si Si6 0.220082 0.432898 0.199072
Si Si7 0.352707 0.139002 0.090076
O O1 0.760521 0.239479 0.691010
O O2 0.829120 0.299657 0.794081
O O3 0.829120 0.200343 0.837939
O O4 0.701996 0.508023 0.930540
O O5 0.740783 0.427663 0.818756
O O6 0.750000 0.441892 0.066009
O O7 0.661791 0.414179 0.975166
O O8 0.259217 0.072337 0.313263
O O9 0.338209 0.085821 0.156854
O O10 0.298004 0.991977 0.201479
O O11 0.923690 0.250000 0.316009
O O12 0.894689 0.326685 0.160743
O O13 0.826685 0.394688 0.721276
O O14 0.868209 0.368210 0.941010
#
# Coordination Sequence:
#
# PCOD9554355 Si02
#       7
#    16  16  16  16  16  16  16
#     4  10  20  30  46  70 106 138 168 204 256 320
#     4  10  18  37  54  76 110 140 187 216 259 330
#     4  10  18  37  54  76 110 140 187 216 259 330
#     4  10  22  33  54  82 108 144 178 227 265 313
#     4  11  19  35  55  76 102 148 180 216 268 324
#     4  10  22  33  54  82 108 144 178 227 265 313
#     4  11  19  35  55  76 102 148 180 216 268 324
#
# _framework density 15.739435
#
# number of rings (size 3 to 8) (size 9 to 14) (size 15 to 20)
#    0.000    1.714    4.286    1.714    2.000    1.143 
#    0.000    0.000    0.000    0.857    0.000    2.000 
#    0.000    0.000    0.000    0.000    0.000    0.000 
#
# Total GULP energy -312499.567531 kJ/mol
# GULP energy per Si atom -5580.349420 kJ/mol
# Density = 1.570361 g / cm^3
# Si number density = 15.739435 Si / 1000 Ang^3
#
#
#
# Elastic Constant Matrix: (Units=GPa)
#
#
# Indices 1 2 3 4 5 6 
#
# 1 80.7771 53.2827 35.3325 0.0000 0.0000 0.0000
# 2 53.2827 80.7771 35.3325 0.0000 0.0000 0.0000
# 3 35.3325 35.3325 108.2232 0.0000 0.0000 0.0000
# 4 0.0000 0.0000 0.0000 17.2304 0.0000 0.0000
# 5 0.0000 0.0000 0.0000 0.0000 17.2304 0.0000
# 6 0.0000 0.0000 0.0000 0.0000 0.0000 21.4479
#
#
#
# Elastic Compliance Matrix: (Units=1/GPa)
#
#
# Indices 1 2 3 4 5 6 
#
# 1 0.022690 -0.013681 -0.002942 0.000000 0.000000 0.000000
# 2 -0.013681 0.022690 -0.002942 0.000000 0.000000 0.000000
# 3 -0.002942 -0.002942 0.011161 0.000000 0.000000 0.000000
# 4 0.000000 0.000000 0.000000 0.058037 0.000000 0.000000
# 5 0.000000 0.000000 0.000000 0.000000 0.058037 0.000000
# 6 0.000000 0.000000 0.000000 0.000000 0.000000 0.046625
#
#
# Mechanical properties :
#
#
# Convention : Reuss Voigt Hill
#
# Bulk Modulus (GPa) = 57.42342 57.51921 57.47132
# Shear Modulus (GPa) = 18.92700 20.90369 19.91535
#
# Velocity S-wave (km/s) = 3.47150 3.64828 3.56099
# Velocity P-wave (km/s) = 7.25475 7.37364 7.31444
#
# Compressibility (1/GPa) = 0.01741450
#
# Stress axis : x y z
#
# Youngs Moduli (GPa) = 44.07133 44.07133 89.59885
#
# Poissons Ratio (x) = 0.60292 0.26356
# Poissons Ratio (y) = 0.60292 0.26356
# Poissons Ratio (z) = 0.12964 0.12964
#
# Static dielectric constant tensor:
#      x y z
#    x 1.521550 0.000000 0.000000 
#    y 0.000000 1.521550 0.000000 
#    z 0.000000 0.000000 1.539140 
# 
# From -- ./inp_files/972.got.cif
#   From: 2010.05.17/outbox.cif.g08.bks.cpg/sg110_1_cif.got.tgz:972.got - 2010.05.20 10:54:03.
