data_PCOD9554669
_publ_section_title
;
Structure prediction by ZEFSAII (Michael W. Deem and Ramdas Pophale) SiO2 
 PCOD9554669
Probable space group: P -4 2 M 
;
_chemical_formula_sum "Si O2"
_cell_formula_units_Z 56
_cell_length_a 17.314374
_cell_length_b 17.314374
_cell_length_c 11.932086
_cell_angle_alpha 90.000000
_cell_angle_beta 90.000000
_cell_angle_gamma 90.000000
_cell_volume 3577.090793
_symmetry_space_group_name_H-M "P -4 2 M "
_symmetry_group_IT_number 111
_symmetry_cell_setting 'tetragonal'
loop_
_space_group_symop_operation_xyz
x,y,z
y,-x,-z
-x,-y,z
-y,x,-z
x,-y,-z
-x,y,-z
-y,-x,z
y,x,z
loop_
_atom_site_type_symbol
_atom_site_label
_atom_site_fract_x
_atom_site_fract_y
_atom_site_fract_z
Si Si1 0.410659 0.885809 0.036914
Si Si2 0.842454 0.407633 0.382833
Si Si3 0.405836 0.849063 0.643659
Si Si4 0.263114 0.615695 0.193797
Si Si5 0.009598 0.592791 0.238010
Si Si6 0.345793 0.222020 0.141023
Si Si7 0.647108 0.528847 0.122631
O O1 0.405955 0.811303 0.119265
O O2 0.385130 0.958578 0.114010
O O3 0.500000 0.896421 0.000000
O O4 0.361412 0.856062 0.930217
O O5 0.838400 0.500706 0.359674
O O6 0.844578 0.386535 0.512897
O O7 0.770783 0.371815 0.317046
O O8 0.922094 0.384966 0.322850
O O9 0.365474 0.789844 0.728069
O O10 0.383959 0.930498 0.701673
O O11 0.309809 0.690192 0.152078
O O12 0.320823 0.543369 0.190293
O O13 0.000000 0.500000 0.230998
O O14 0.263618 0.263618 0.124939
O O15 0.411375 0.282752 0.102389
O O16 0.577164 0.577164 0.174606
O O17 0.624018 0.500000 0.000000
#
# Coordination Sequence:
#
# PCOD9554669 Si02
#       7
#     8   8   8   8   8   8   8
#     4  11  18  30  44  65  91 113 142 181 235 280
#     4   9  18  31  46  65  85 109 144 186 232 276
#     4  10  18  32  47  62  86 112 145 182 228 277
#     4  11  19  30  45  62  84 114 152 195 237 277
#     4   9  18  28  47  70  86 107 134 183 230 278
#     4  11  20  30  44  61  88 121 150 185 228 277
#     4  11  20  30  43  61  83 112 153 202 252 287
#
# _framework density 15.655179
#
# number of rings (size 3 to 8) (size 9 to 14) (size 15 to 20)
#    0.000    1.714    4.286    3.000    0.000    5.286 
#    0.000    0.000    0.000    0.000    0.000    0.000 
#    0.000    0.000    0.000    0.000    0.000   40.000 
#
# Total GULP energy -311974.305511 kJ/mol
# GULP energy per Si atom -5570.969741 kJ/mol
# Density = 1.561955 g / cm^3
# Si number density = 15.655179 Si / 1000 Ang^3
#
#
#
# Elastic Constant Matrix: (Units=GPa)
#
#
# Indices 1 2 3 4 5 6 
#
# 1 40.1293 21.2339 23.7171 0.0000 0.0000 0.0000
# 2 21.2339 40.1289 23.7179 0.0000 0.0000 0.0000
# 3 23.7171 23.7179 117.9974 0.0000 0.0000 0.0000
# 4 0.0000 0.0000 0.0000 15.8456 0.0000 0.0000
# 5 0.0000 0.0000 0.0000 0.0000 15.8457 0.0000
# 6 0.0000 0.0000 0.0000 0.0000 0.0000 8.7090
#
#
#
# Elastic Compliance Matrix: (Units=1/GPa)
#
#
# Indices 1 2 3 4 5 6 
#
# 1 0.036109 -0.016815 -0.003878 0.000000 0.000000 0.000000
# 2 -0.016815 0.036109 -0.003878 0.000000 0.000000 0.000000
# 3 -0.003878 -0.003878 0.010034 0.000000 0.000000 0.000000
# 4 0.000000 0.000000 0.000000 0.063109 0.000000 0.000000
# 5 0.000000 0.000000 0.000000 0.000000 0.063108 0.000000
# 6 0.000000 0.000000 0.000000 0.000000 0.000000 0.114824
#
#
# Mechanical properties :
#
#
# Convention : Reuss Voigt Hill
#
# Bulk Modulus (GPa) = 30.20250 37.28817 33.74533
# Shear Modulus (GPa) = 13.03879 16.71918 14.87899
#
# Velocity S-wave (km/s) = 2.88909 3.27152 3.08623
# Velocity P-wave (km/s) = 5.51936 6.17581 5.85679
#
# Compressibility (1/GPa) = 0.03310984
#
# Stress axis : x y z
#
# Youngs Moduli (GPa) = 27.69426 27.69368 99.66329
#
# Poissons Ratio (x) = 0.46566 0.38649
# Poissons Ratio (y) = 0.46567 0.38654
# Poissons Ratio (z) = 0.10740 0.10741
#
# Static dielectric constant tensor:
#      x y z
#    x 1.537700 0.000000 0.000000 
#    y 0.000000 1.537700 0.000000 
#    z 0.000000 0.000000 1.577740 
# 
# From -- ./inp_files/2859.got.cif
#   From: 2010.05.17/outbox.cif.g08.bks.cpg/sg111_2_cif.got.tgz:2859.got - 2010.05.20 10:56:05.
