data_PCOD9554341
_publ_section_title
;
Structure prediction by ZEFSAII (Michael W. Deem and Ramdas Pophale) SiO2 
 PCOD9554341
Probable space group: I 41 C D
;
_chemical_formula_sum "Si O2"
_cell_formula_units_Z 120
_cell_length_a 14.227015
_cell_length_b 14.227015
_cell_length_c 30.532643
_cell_angle_alpha 90.000000
_cell_angle_beta 90.000000
_cell_angle_gamma 90.000000
_cell_volume 6180.049855
_symmetry_space_group_name_H-M "I 41 C D"
_symmetry_group_IT_number 110
_symmetry_cell_setting 'tetragonal'
loop_
_space_group_symop_operation_xyz
x,y,z
-y,1/2+x,1/4+z
-x,-y,z
y,1/2-x,1/4+z
-x,y,1/2+z
x,-y,1/2+z
1/2-y,-x,1/4+z
1/2+y,x,1/4+z
1/2+x,1/2+y,1/2+z
1/2-y,x,3/4+z
1/2-x,1/2-y,1/2+z
1/2+y,-x,3/4+z
1/2-x,1/2+y,z
1/2+x,1/2-y,z
-y,1/2-x,3/4+z
y,1/2+x,3/4+z
loop_
_atom_site_type_symbol
_atom_site_label
_atom_site_fract_x
_atom_site_fract_y
_atom_site_fract_z
Si Si1 0.666627 0.116283 0.645050
Si Si2 0.693997 0.006313 0.737051
Si Si3 0.650238 0.629801 0.432000
Si Si4 0.659882 0.335975 0.651857
Si Si5 0.881333 0.854504 0.146870
Si Si6 0.403418 0.517268 0.717055
Si Si7 0.000000 0.500000 0.134843
Si Si8 0.532303 0.606360 0.077636
O O1 0.639384 0.225394 0.649577
O O2 0.775470 0.123747 0.630746
O O3 0.670921 0.066634 0.693253
O O4 0.593055 0.054307 0.616721
O O5 0.652342 0.901715 0.727847
O O6 0.650112 0.047323 0.780451
O O7 0.806291 0.001688 0.741466
O O8 0.640917 0.730048 0.407080
O O9 0.761075 0.612688 0.427068
O O10 0.587033 0.547748 0.411186
O O11 0.608963 0.382156 0.693737
O O12 0.622465 0.384235 0.608223
O O13 0.908414 0.942909 0.176893
O O14 0.950568 0.843289 0.106047
O O15 0.500000 0.500000 0.742470
O O16 0.500000 0.500000 0.072772
#
# Coordination Sequence:
#
# PCOD9554341 Si02
#       8
#    16  16  16  16  16  16   8  16
#     4   9  20  35  59  86 120 158 206 239 295 374
#     4   9  22  37  56  91 123 148 194 256 306 354
#     4   9  20  35  59  86 120 158 206 239 295 374
#     4  10  18  36  60  90 114 158 206 252 292 358
#     4  10  18  36  60  90 114 158 206 252 292 358
#     4  10  17  35  62  85 111 156 206 236 284 368
#     4  10  18  30  56  82 118 146 198 246 284 340
#     4  12  22  35  62  91 121 147 197 260 308 342
#
# _framework density 19.417318000000002
#
# number of rings (size 3 to 8) (size 9 to 14) (size 15 to 20)
#    0.000    2.133    2.667    1.600    3.733    0.000 
#    0.000   10.667    8.800    0.000    0.000    0.000 
#    0.000    0.000    0.000    0.000    0.000    0.000 
#
# Total GULP energy -334122.053490 kJ/mol
# GULP energy per Si atom -5568.700891 kJ/mol
# Density = 1.937312 g / cm^3
# Si number density = 19.417318 Si / 1000 Ang^3
#
#
#
# Elastic Constant Matrix: (Units=GPa)
#
#
# Indices 1 2 3 4 5 6 
#
# 1 83.6589 10.2340 -7.5307 0.0000 0.0000 0.0000
# 2 10.2340 83.6589 -7.5307 0.0000 0.0000 0.0000
# 3 -7.5307 -7.5307 36.5363 0.0000 0.0000 0.0000
# 4 0.0000 0.0000 0.0000 8.5986 0.0000 0.0000
# 5 0.0000 0.0000 0.0000 0.0000 8.5986 0.0000
# 6 0.0000 0.0000 0.0000 0.0000 0.0000 35.5803
#
#
#
# Elastic Compliance Matrix: (Units=1/GPa)
#
#
# Indices 1 2 3 4 5 6 
#
# 1 0.012317 -0.001302 0.002270 0.000000 0.000000 0.000000
# 2 -0.001302 0.012317 0.002270 0.000000 0.000000 0.000000
# 3 0.002270 0.002270 0.028306 0.000000 0.000000 0.000000
# 4 0.000000 0.000000 0.000000 0.116298 0.000000 0.000000
# 5 0.000000 0.000000 0.000000 0.000000 0.116298 0.000000
# 6 0.000000 0.000000 0.000000 0.000000 0.000000 0.028105
#
#
# Mechanical properties :
#
#
# Convention : Reuss Voigt Hill
#
# Bulk Modulus (GPa) = 16.83038 21.57767 19.20402
# Shear Modulus (GPa) = 15.29188 24.46759 19.87974
#
# Velocity S-wave (km/s) = 2.80936 3.55363 3.20318
# Velocity P-wave (km/s) = 4.38290 5.28908 4.85717
#
# Compressibility (1/GPa) = 0.05941637
#
# Stress axis : x y z
#
# Youngs Moduli (GPa) = 81.18869 81.18869 35.32828
#
# Poissons Ratio (x) = 0.10574 -0.08021
# Poissons Ratio (y) = 0.10574 -0.08021
# Poissons Ratio (z) = -0.18432 -0.18432
#
# Static dielectric constant tensor:
#      x y z
#    x 1.733600 0.000000 0.000000 
#    y 0.000000 1.733600 0.000000 
#    z 0.000000 0.000000 1.637870 
# 
# From -- ./inp_files/3307.got.cif
#   From: 2010.05.17/outbox.cif.g08.bks.cpg/sg110_2_cif.got.tgz:3307.got - 2010.05.20 10:54:03.
