data_PCOD9554966
_publ_section_title
;
Structure prediction by ZEFSAII (Michael W. Deem and Ramdas Pophale) SiO2 
 PCOD9554966
Probable space group: P -4 2 C
;
_chemical_formula_sum "Si O2"
_cell_formula_units_Z 56
_cell_length_a 14.898618
_cell_length_b 14.898618
_cell_length_c 11.645834
_cell_angle_alpha 90.000000
_cell_angle_beta 90.000000
_cell_angle_gamma 90.000000
_cell_volume 2585.012011
_symmetry_space_group_name_H-M "P -4 2 C"
_symmetry_group_IT_number 112
_symmetry_cell_setting 'tetragonal'
loop_
_space_group_symop_operation_xyz
x,y,z
y,-x,-z
-x,-y,z
-y,x,-z
x,-y,1/2-z
-x,y,1/2-z
-y,-x,1/2+z
y,x,1/2+z
loop_
_atom_site_type_symbol
_atom_site_label
_atom_site_fract_x
_atom_site_fract_y
_atom_site_fract_z
Si Si1 0.005112 0.138525 0.483002
Si Si2 0.747010 0.504583 0.053686
Si Si3 0.951285 0.688984 0.868109
Si Si4 0.352818 0.731172 0.743140
Si Si5 0.064256 0.432714 0.479292
Si Si6 0.230625 0.417864 0.827119
Si Si7 0.266906 0.909883 0.680616
O O1 0.965013 0.226260 0.546129
O O2 0.073287 0.075891 0.555624
O O3 0.068199 0.173106 0.379533
O O4 0.745661 0.580765 0.150677
O O5 0.724205 0.414555 0.126624
O O6 0.846193 0.487100 0.003480
O O7 0.709356 0.545629 0.935243
O O8 0.849521 0.652257 0.859223
O O9 0.000000 0.715059 0.750000
O O10 0.007848 0.603685 0.914725
O O11 0.297116 0.640721 0.751743
O O12 0.283818 0.815681 0.742232
O O13 0.092141 0.343627 0.414762
O O14 0.000000 0.500000 0.409485
O O15 0.195980 0.500000 0.750000
O O16 0.287331 0.000000 0.750000
#
# Coordination Sequence:
#
# PCOD9554966 Si02
#       7
#     8   8   8   8   8   8   8
#     4  10  23  42  61  87 129 179 228 275 330 394
#     4  10  22  43  66  94 136 172 222 281 335 411
#     4  11  24  40  63  97 134 173 221 276 343 408
#     4  10  24  43  68 100 134 177 225 286 345 402
#     4  10  18  35  61  91 126 163 204 269 337 391
#     4  12  26  42  70 102 136 181 226 280 353 414
#     4  10  21  37  63  96 123 167 223 273 335 401
#
# _framework density 21.663343000000001
#
# number of rings (size 3 to 8) (size 9 to 14) (size 15 to 20)
#    0.000    1.571    1.429    2.571    4.000    3.714 
#    0.000    2.857    0.000    0.000    0.000    0.000 
#    0.000    0.000    0.000    0.000    0.000    0.000 
#
# Total GULP energy -311862.389950 kJ/mol
# GULP energy per Si atom -5568.971249 kJ/mol
# Density = 2.161404 g / cm^3
# Si number density = 21.663343 Si / 1000 Ang^3
#
#
#
# Elastic Constant Matrix: (Units=GPa)
#
#
# Indices 1 2 3 4 5 6 
#
# 1 86.6124 42.1149 8.0669 0.0000 0.0000 0.0000
# 2 42.1149 86.6124 8.0669 0.0000 0.0000 0.0000
# 3 8.0669 8.0669 52.3718 0.0000 0.0000 0.0000
# 4 0.0000 0.0000 0.0000 -25.0951 0.0000 0.0000
# 5 0.0000 0.0000 0.0000 0.0000 -25.0951 0.0000
# 6 0.0000 0.0000 0.0000 0.0000 0.0000 30.3873
#
#
#
# Elastic Compliance Matrix: (Units=1/GPa)
#
#
# Indices 1 2 3 4 5 6 
#
# 1 0.015197 -0.007276 -0.001220 0.000000 0.000000 0.000000
# 2 -0.007276 0.015197 -0.001220 0.000000 0.000000 0.000000
# 3 -0.001220 -0.001220 0.019470 0.000000 0.000000 0.000000
# 4 0.000000 0.000000 0.000000 -0.039848 0.000000 0.000000
# 5 0.000000 0.000000 0.000000 0.000000 -0.039848 0.000000
# 6 0.000000 0.000000 0.000000 0.000000 0.000000 0.032909
#
#
# Mechanical properties :
#
#
# Convention : Reuss Voigt Hill
#
# Bulk Modulus (GPa) = 32.85996 38.01047 35.43521
# Shear Modulus (GPa) = 153.12666 7.19594 80.16130
#
# Velocity S-wave (km/s) = 8.41654 1.82453 6.08962
# Velocity P-wave (km/s) = 10.47150 4.69283 8.11403
#
# Compressibility (1/GPa) = 0.03043217
#
# Stress axis : x y z
#
# Youngs Moduli (GPa) = 65.80151 65.80151 51.36069
#
# Poissons Ratio (x) = 0.47877 0.06267
# Poissons Ratio (y) = 0.47877 0.06267
# Poissons Ratio (z) = 0.08029 0.08029
#
# Static dielectric constant tensor:
#      x y z
#    x 1.890090 0.000000 0.000000 
#    y 0.000000 1.890090 0.000000 
#    z 0.000000 0.000000 1.908990 
# 
# From -- ./inp_files/2647.got.cif
#   From: 2010.05.17/outbox.cif.g08.bks.cpg/sg112_2_cif.got.tgz:2647.got - 2010.05.20 10:59:04.
