data_PCOD9554255
_publ_section_title
;
Structure prediction by ZEFSAII (Michael W. Deem and Ramdas Pophale) SiO2 
 PCOD9554255
Probable space group: I 41 M D
;
_chemical_formula_sum "Si O2"
_cell_formula_units_Z 112
_cell_length_a 14.105497
_cell_length_b 14.105497
_cell_length_c 27.690779
_cell_angle_alpha 90.000000
_cell_angle_beta 90.000000
_cell_angle_gamma 90.000000
_cell_volume 5509.497107
_symmetry_space_group_name_H-M "I 41 M D"
_symmetry_group_IT_number 109
_symmetry_cell_setting 'tetragonal'
loop_
_space_group_symop_operation_xyz
x,y,z
-y,1/2+x,1/4+z
-x,-y,z
y,1/2-x,1/4+z
-x,y,z
x,-y,z
-y,1/2-x,1/4+z
y,1/2+x,1/4+z
1/2+x,1/2+y,1/2+z
1/2-y,x,3/4+z
1/2-x,1/2-y,1/2+z
1/2+y,-x,3/4+z
1/2-x,1/2+y,1/2+z
1/2+x,1/2-y,1/2+z
1/2-y,-x,3/4+z
1/2+y,x,3/4+z
loop_
_atom_site_type_symbol
_atom_site_label
_atom_site_fract_x
_atom_site_fract_y
_atom_site_fract_z
Si Si1 0.609828 0.223889 0.192690
Si Si2 0.312715 0.388777 0.478583
Si Si3 0.292221 0.107745 0.546964
Si Si4 0.386626 0.398388 0.738169
Si Si5 0.394243 0.770234 0.891478
Si Si6 0.889322 0.732903 0.907097
Si Si7 0.293680 0.104289 0.815057
O O1 0.500000 0.207834 0.182130
O O2 0.623381 0.224582 0.250753
O O3 0.677047 0.149360 0.165819
O O4 0.644680 0.327246 0.175027
O O5 0.311045 0.500000 0.466703
O O6 0.209776 0.359973 0.501551
O O7 0.339781 0.323863 0.432863
O O8 0.387907 0.363833 0.519693
O O9 0.242674 0.114583 0.599187
O O10 0.371571 0.188639 0.546598
O O11 0.329394 0.000000 0.542422
O O12 0.500000 0.400217 0.740600
O O13 0.353123 0.500000 0.760744
O O14 0.348290 0.401140 0.683664
O O15 0.500000 0.752657 0.871991
O O16 0.326956 0.815381 0.851808
O O17 0.000000 0.728682 0.921100
O O18 0.297695 0.000000 0.837149
#
# Coordination Sequence:
#
# PCOD9554255 Si02
#       7
#    16  16  16  16  16  16  16
#     4  11  23  43  67  92 124 165 215 270 330 388
#     4  11  22  37  58  91 136 179 218 260 312 382
#     4  10  22  40  65  93 127 166 213 266 318 378
#     4   9  17  32  56  82 111 155 207 254 303 360
#     4  11  22  39  62  90 125 163 209 264 322 382
#     4  11  22  40  63  91 128 169 213 263 318 380
#     4  12  23  38  62  95 135 176 217 261 317 387
#
# _framework density 20.328533
#
# number of rings (size 3 to 8) (size 9 to 14) (size 15 to 20)
#    0.000    1.286    4.286    1.286    0.000    5.143 
#    0.000    4.286    0.000    4.286    0.000    0.000 
#    0.000    0.000    0.000    0.000    0.000    0.000 
#
# Total GULP energy -312395.463506 kJ/mol
# GULP energy per Si atom -5578.490420 kJ/mol
# Density = 2.028226 g / cm^3
# Si number density = 20.328533 Si / 1000 Ang^3
#
#
#
# Elastic Constant Matrix: (Units=GPa)
#
#
# Indices 1 2 3 4 5 6 
#
# 1 100.1831 25.3177 27.3688 0.0000 0.0000 0.0000
# 2 25.3177 100.1831 27.3688 0.0000 0.0000 0.0000
# 3 27.3688 27.3688 65.4637 0.0000 0.0000 0.0000
# 4 0.0000 0.0000 0.0000 19.4576 0.0000 0.0000
# 5 0.0000 0.0000 0.0000 0.0000 19.4576 0.0000
# 6 0.0000 0.0000 0.0000 0.0000 0.0000 11.7203
#
#
#
# Elastic Compliance Matrix: (Units=1/GPa)
#
#
# Indices 1 2 3 4 5 6 
#
# 1 0.011551 -0.001806 -0.004074 0.000000 0.000000 0.000000
# 2 -0.001806 0.011551 -0.004074 0.000000 0.000000 0.000000
# 3 -0.004074 -0.004074 0.018682 0.000000 0.000000 0.000000
# 4 0.000000 0.000000 0.000000 0.051394 0.000000 0.000000
# 5 0.000000 0.000000 0.000000 0.000000 0.051394 0.000000
# 6 0.000000 0.000000 0.000000 0.000000 0.000000 0.085322
#
#
# Mechanical properties :
#
#
# Convention : Reuss Voigt Hill
#
# Bulk Modulus (GPa) = 45.71289 47.32674 46.51982
# Shear Modulus (GPa) = 19.44809 22.51210 20.98010
#
# Velocity S-wave (km/s) = 3.09640 3.33139 3.21604
# Velocity P-wave (km/s) = 5.94302 6.17487 6.06005
#
# Compressibility (1/GPa) = 0.02187567
#
# Stress axis : x y z
#
# Youngs Moduli (GPa) = 86.57134 86.57134 53.52675
#
# Poissons Ratio (x) = 0.15636 0.21808
# Poissons Ratio (y) = 0.15636 0.21808
# Poissons Ratio (z) = 0.35271 0.35271
#
# Static dielectric constant tensor:
#      x y z
#    x 1.749610 0.000000 0.000000 
#    y 0.000000 1.749610 0.000000 
#    z 0.000000 0.000000 1.729970 
# 
# From -- ./inp_files/5023.got.cif
#   From: 2010.05.17/outbox.cif.g08.bks.cpg/sg109_3_cif.got.tgz:5023.got - 2010.05.20 10:51:12.
