data_PCOD9554635
_publ_section_title
;
Structure prediction by ZEFSAII (Michael W. Deem and Ramdas Pophale) SiO2 
 PCOD9554635
Probable space group: I 41 C D
;
_chemical_formula_sum "Si O2"
_cell_formula_units_Z 40
_cell_length_a 10.827882
_cell_length_b 10.827882
_cell_length_c 14.257603
_cell_angle_alpha 90.000000
_cell_angle_beta 90.000000
_cell_angle_gamma 90.000000
_cell_volume 1671.604556
_symmetry_space_group_name_H-M "I 41 C D"
_symmetry_group_IT_number 110
_symmetry_cell_setting 'tetragonal'
loop_
_space_group_symop_operation_xyz
x,y,z
-y,1/2+x,1/4+z
-x,-y,z
y,1/2-x,1/4+z
-x,y,1/2+z
x,-y,1/2+z
1/2-y,-x,1/4+z
1/2+y,x,1/4+z
1/2+x,1/2+y,1/2+z
1/2-y,x,3/4+z
1/2-x,1/2-y,1/2+z
1/2+y,-x,3/4+z
1/2-x,1/2+y,z
1/2+x,1/2-y,z
-y,1/2-x,3/4+z
y,1/2+x,3/4+z
loop_
_atom_site_type_symbol
_atom_site_label
_atom_site_fract_x
_atom_site_fract_y
_atom_site_fract_z
Si Si1 0.617273 0.335659 0.913040
Si Si2 0.164341 0.117273 0.124974
Si Si3 0.000000 0.000000 0.769007
O O1 0.500000 0.250000 0.894007
O O2 0.750000 0.273281 0.894007
O O3 0.603738 0.445400 0.837477
O O4 0.616468 0.383532 0.019007
O O5 0.054600 0.103738 0.200536
#
# Coordination Sequence:
#
# PCOD9554635 Si02
#       3
#    16  16   8
#     4  12  27  51  83 117 167 223 289 356 441 523
#     4  12  27  51  83 117 167 223 289 356 441 523
#     4  12  26  48  80 122 156 224 282 372 428 522
#
# _framework density 23.929105
#
# number of rings (size 3 to 8) (size 9 to 14) (size 15 to 20)
#    0.000    0.000    8.000    1.200    0.000    9.600 
#    0.000    0.000    0.000    0.000    0.000    0.000 
#    0.000    0.000    0.000    0.000    0.000    0.000 
#
# Total GULP energy -112031.900794 kJ/mol
# GULP energy per Si atom -5601.595040 kJ/mol
# Density = 2.387464 g / cm^3
# Si number density = 23.929105 Si / 1000 Ang^3
#
#
#
# Elastic Constant Matrix: (Units=GPa)
#
#
# Indices 1 2 3 4 5 6 
#
# 1 131.9529 48.8993 62.1024 0.0000 0.0000 0.0000
# 2 48.8993 131.9529 62.1024 0.0000 0.0000 0.0000
# 3 62.1024 62.1024 253.3861 0.0000 0.0000 0.0000
# 4 0.0000 0.0000 0.0000 30.4432 0.0000 0.0000
# 5 0.0000 0.0000 0.0000 0.0000 30.4432 0.0000
# 6 0.0000 0.0000 0.0000 0.0000 0.0000 51.0211
#
#
#
# Elastic Compliance Matrix: (Units=1/GPa)
#
#
# Indices 1 2 3 4 5 6 
#
# 1 0.009344 -0.002696 -0.001629 0.000000 0.000000 0.000000
# 2 -0.002696 0.009344 -0.001629 0.000000 0.000000 0.000000
# 3 -0.001629 -0.001629 0.004745 0.000000 0.000000 0.000000
# 4 0.000000 0.000000 0.000000 0.032848 0.000000 0.000000
# 5 0.000000 0.000000 0.000000 0.000000 0.032848 0.000000
# 6 0.000000 0.000000 0.000000 0.000000 0.000000 0.019600
#
#
# Mechanical properties :
#
#
# Convention : Reuss Voigt Hill
#
# Bulk Modulus (GPa) = 86.77309 95.94447 91.35878
# Shear Modulus (GPa) = 40.16668 45.32735 42.74702
#
# Velocity S-wave (km/s) = 4.10148 4.35700 4.23117
# Velocity P-wave (km/s) = 7.66621 8.09281 7.88240
#
# Compressibility (1/GPa) = 0.01152431
#
# Stress axis : x y z
#
# Youngs Moduli (GPa) = 107.01551 107.01551 210.73571
#
# Poissons Ratio (x) = 0.28851 0.34339
# Poissons Ratio (y) = 0.28851 0.34339
# Poissons Ratio (z) = 0.17438 0.17438
#
# Static dielectric constant tensor:
#      x y z
#    x 1.966460 0.000000 0.000000 
#    y 0.000000 1.966460 0.000000 
#    z 0.000000 0.000000 1.895970 
# 
# From -- ./inp_files/1075.got.cif
#   From: 2010.05.17/outbox.cif.g08.bks.cpg/sg110_1_cif.got.tgz:1075.got - 2010.05.20 10:54:03.
