data_PCOD9554477
_publ_section_title
;
Structure prediction by ZEFSAII (Michael W. Deem and Ramdas Pophale) SiO2 
 PCOD9554477
Probable space group: I 41 C D
;
_chemical_formula_sum "Si O2"
_cell_formula_units_Z 96
_cell_length_a 14.377947
_cell_length_b 14.377947
_cell_length_c 19.296084
_cell_angle_alpha 90.000000
_cell_angle_beta 90.000000
_cell_angle_gamma 90.000000
_cell_volume 3988.989910
_symmetry_space_group_name_H-M "I 41 C D"
_symmetry_group_IT_number 110
_symmetry_cell_setting 'tetragonal'
loop_
_space_group_symop_operation_xyz
x,y,z
-y,1/2+x,1/4+z
-x,-y,z
y,1/2-x,1/4+z
-x,y,1/2+z
x,-y,1/2+z
1/2-y,-x,1/4+z
1/2+y,x,1/4+z
1/2+x,1/2+y,1/2+z
1/2-y,x,3/4+z
1/2-x,1/2-y,1/2+z
1/2+y,-x,3/4+z
1/2-x,1/2+y,z
1/2+x,1/2-y,z
-y,1/2-x,3/4+z
y,1/2+x,3/4+z
loop_
_atom_site_type_symbol
_atom_site_label
_atom_site_fract_x
_atom_site_fract_y
_atom_site_fract_z
Si Si1 0.604277 0.007583 0.316360
Si Si2 0.176672 0.650073 0.984192
Si Si3 0.564734 0.309384 0.708265
Si Si4 0.393698 0.513262 0.785093
Si Si5 0.395937 0.607440 0.423635
Si Si6 0.159889 0.714405 0.848397
O O1 0.661610 0.955097 0.377269
O O2 0.605882 0.965757 0.238718
O O3 0.500000 0.000000 0.342779
O O4 0.623692 0.118333 0.316398
O O5 0.196129 0.540007 0.990214
O O6 0.218523 0.679210 0.911976
O O7 0.066330 0.661754 0.993614
O O8 0.226306 0.709968 0.041449
O O9 0.623090 0.383727 0.754807
O O10 0.605474 0.206922 0.705505
O O11 0.500000 0.500000 0.763030
O O12 0.394500 0.477215 0.865787
O O13 0.406192 0.704545 0.381424
#
# Coordination Sequence:
#
# PCOD9554477 Si02
#       6
#    16  16  16  16  16  16
#     4  11  23  44  72 104 147 202 254 309 376 456
#     4   9  19  39  66  94 135 191 233 302 362 433
#     4  10  21  41  66 102 138 192 241 300 369 435
#     4   9  19  39  66  95 138 190 237 297 369 425
#     4  11  24  40  71 107 150 193 247 305 372 457
#     4  10  22  41  68 100 148 186 245 309 367 438
#
# _framework density 24.066244000000001
#
# number of rings (size 3 to 8) (size 9 to 14) (size 15 to 20)
#    0.000    2.000    0.000    4.000    4.667    0.000 
#    6.000    0.000    0.000    0.000    0.000    0.000 
#    0.000    0.000    0.000    0.000    0.000    0.000 
#
# Total GULP energy -267299.348173 kJ/mol
# GULP energy per Si atom -5568.736420 kJ/mol
# Density = 2.401147 g / cm^3
# Si number density = 24.066244 Si / 1000 Ang^3
#
#
#
# Elastic Constant Matrix: (Units=GPa)
#
#
# Indices 1 2 3 4 5 6 
#
# 1 95.3481 38.7494 60.8460 0.0000 0.0000 0.0000
# 2 38.7494 95.3481 60.8460 0.0000 0.0000 0.0000
# 3 60.8460 60.8460 177.6758 0.0000 0.0000 0.0000
# 4 0.0000 0.0000 0.0000 34.4909 0.0000 0.0000
# 5 0.0000 0.0000 0.0000 0.0000 34.4909 0.0000
# 6 0.0000 0.0000 0.0000 0.0000 0.0000 6.3501
#
#
#
# Elastic Compliance Matrix: (Units=1/GPa)
#
#
# Indices 1 2 3 4 5 6 
#
# 1 0.014244 -0.003424 -0.003705 0.000000 0.000000 0.000000
# 2 -0.003424 0.014244 -0.003705 0.000000 0.000000 0.000000
# 3 -0.003705 -0.003705 0.008166 0.000000 0.000000 0.000000
# 4 0.000000 0.000000 0.000000 0.028993 0.000000 0.000000
# 5 0.000000 0.000000 0.000000 0.000000 0.028993 0.000000
# 6 0.000000 0.000000 0.000000 0.000000 0.000000 0.157478
#
#
# Mechanical properties :
#
#
# Convention : Reuss Voigt Hill
#
# Bulk Modulus (GPa) = 66.73600 76.58383 71.65991
# Shear Modulus (GPa) = 17.93512 28.92841 23.43177
#
# Velocity S-wave (km/s) = 2.73287 3.47080 3.12370
# Velocity P-wave (km/s) = 6.14397 6.92482 6.54605
#
# Compressibility (1/GPa) = 0.01498442
#
# Stress axis : x y z
#
# Youngs Moduli (GPa) = 70.20494 70.20494 122.45875
#
# Poissons Ratio (x) = 0.24040 0.45374
# Poissons Ratio (y) = 0.24040 0.45374
# Poissons Ratio (z) = 0.26013 0.26013
#
# Static dielectric constant tensor:
#      x y z
#    x 2.133530 0.000000 0.000000 
#    y 0.000000 2.133530 0.000000 
#    z 0.000000 0.000000 2.105730 
# 
# From -- ./inp_files/2187.got.cif
#   From: 2010.05.17/outbox.cif.g08.bks.cpg/sg110_2_cif.got.tgz:2187.got - 2010.05.20 10:54:03.
