data_PCOD9554739
_publ_section_title
;
Structure prediction by ZEFSAII (Michael W. Deem and Ramdas Pophale) SiO2 
 PCOD9554739
Probable space group: P -4 2 M 
;
_chemical_formula_sum "Si O2"
_cell_formula_units_Z 56
_cell_length_a 14.655904
_cell_length_b 14.655904
_cell_length_c 15.189009
_cell_angle_alpha 90.000000
_cell_angle_beta 90.000000
_cell_angle_gamma 90.000000
_cell_volume 3262.531118
_symmetry_space_group_name_H-M "P -4 2 M "
_symmetry_group_IT_number 111
_symmetry_cell_setting 'tetragonal'
loop_
_space_group_symop_operation_xyz
x,y,z
y,-x,-z
-x,-y,z
-y,x,-z
x,-y,-z
-x,y,-z
-y,-x,z
y,x,z
loop_
_atom_site_type_symbol
_atom_site_label
_atom_site_fract_x
_atom_site_fract_y
_atom_site_fract_z
Si Si1 0.854121 0.706908 0.341790
Si Si2 0.609583 0.240557 0.995664
Si Si3 0.309619 0.836897 0.330738
Si Si4 0.611415 0.097253 0.148564
Si Si5 0.894065 0.606968 0.160513
Si Si6 0.238285 0.394185 0.503744
Si Si7 0.979271 0.835534 0.602392
O O1 0.761700 0.761700 0.321530
O O2 0.882316 0.647828 0.257540
O O3 0.829707 0.643614 0.426730
O O4 0.930815 0.785176 0.359549
O O5 0.667536 0.332465 0.002476
O O6 0.634861 0.171248 0.074684
O O7 0.500000 0.255636 0.000000
O O8 0.632353 0.187196 0.905399
O O9 0.254003 0.745998 0.307168
O O10 0.343307 0.881808 0.241837
O O11 0.384605 0.810992 0.402035
O O12 0.240805 0.902853 0.382216
O O13 0.502700 0.103962 0.162619
O O14 0.634845 0.993373 0.123178
O O15 0.264996 0.500000 0.500000
O O16 0.324512 0.324512 0.502416
O O17 0.928781 0.928781 0.636088
O O18 0.000000 0.850303 0.500000
#
# Coordination Sequence:
#
# PCOD9554739 Si02
#       7
#     8   8   8   8   8   8   8
#     4  11  21  35  53  76 109 146 180 219 272 326
#     4  10  21  37  57  81 108 140 177 221 275 331
#     4  10  19  33  52  76 106 138 177 220 265 320
#     4  10  19  34  56  79 106 137 173 221 273 322
#     4  10  20  34  54  81 108 135 174 222 269 324
#     4  10  21  36  54  77 107 143 183 228 277 330
#     4  11  21  35  52  74 107 145 186 228 267 316
#
# _framework density 17.164587999999998
#
# number of rings (size 3 to 8) (size 9 to 14) (size 15 to 20)
#    0.000    1.714    2.857    2.571    0.000    3.000 
#    0.000    0.714    0.000    0.000    0.000    4.000 
#    0.000    2.286    0.000    0.000    0.000    0.000 
#
# Total GULP energy -311980.610600 kJ/mol
# GULP energy per Si atom -5571.082332 kJ/mol
# Density = 1.712552 g / cm^3
# Si number density = 17.164588 Si / 1000 Ang^3
#
#
#
# Elastic Constant Matrix: (Units=GPa)
#
#
# Indices 1 2 3 4 5 6 
#
# 1 64.9856 29.7362 29.4817 0.0000 0.0000 0.0000
# 2 29.7362 64.9829 29.4814 0.0000 0.0000 0.0000
# 3 29.4817 29.4814 73.4059 0.0000 0.0000 0.0000
# 4 0.0000 0.0000 0.0000 19.4208 0.0000 0.0000
# 5 0.0000 0.0000 0.0000 0.0000 19.4205 0.0000
# 6 0.0000 0.0000 0.0000 0.0000 0.0000 24.3350
#
#
#
# Elastic Compliance Matrix: (Units=1/GPa)
#
#
# Indices 1 2 3 4 5 6 
#
# 1 0.021223 -0.007147 -0.005653 0.000000 0.000000 0.000000
# 2 -0.007147 0.021224 -0.005654 0.000000 0.000000 0.000000
# 3 -0.005653 -0.005654 0.018164 0.000000 0.000000 0.000000
# 4 0.000000 0.000000 0.000000 0.051491 0.000000 0.000000
# 5 0.000000 0.000000 0.000000 0.000000 0.051492 0.000000
# 6 0.000000 0.000000 0.000000 0.000000 0.000000 0.041093
#
#
# Mechanical properties :
#
#
# Convention : Reuss Voigt Hill
#
# Bulk Modulus (GPa) = 42.18820 42.30812 42.24816
# Shear Modulus (GPa) = 20.04039 20.28027 20.16033
#
# Velocity S-wave (km/s) = 3.42064 3.44105 3.43086
# Velocity P-wave (km/s) = 6.34295 6.36316 6.35306
#
# Compressibility (1/GPa) = 0.02370331
#
# Stress axis : x y z
#
# Youngs Moduli (GPa) = 47.11868 47.11645 55.05373
#
# Poissons Ratio (x) = 0.33673 0.31124
# Poissons Ratio (y) = 0.33675 0.31126
# Poissons Ratio (z) = 0.26638 0.26638
#
# Static dielectric constant tensor:
#      x y z
#    x 1.587290 0.000000 0.000000 
#    y 0.000000 1.587290 0.000000 
#    z 0.000000 0.000000 1.565490 
# 
# From -- ./inp_files/3390.got.cif
#   From: 2010.05.17/outbox.cif.g08.bks.cpg/sg111_2_cif.got.tgz:3390.got - 2010.05.20 10:56:05.
