data_PCOD9554075
_publ_section_title
;
Structure prediction by ZEFSAII (Michael W. Deem and Ramdas Pophale) SiO2 
 PCOD9554075
Probable space group: I 41 M D
;
_chemical_formula_sum "Si O2"
_cell_formula_units_Z 96
_cell_length_a 15.208737
_cell_length_b 15.208737
_cell_length_c 25.779811
_cell_angle_alpha 90.000000
_cell_angle_beta 90.000000
_cell_angle_gamma 90.000000
_cell_volume 5963.016743
_symmetry_space_group_name_H-M "I 41 M D"
_symmetry_group_IT_number 109
_symmetry_cell_setting 'tetragonal'
loop_
_space_group_symop_operation_xyz
x,y,z
-y,1/2+x,1/4+z
-x,-y,z
y,1/2-x,1/4+z
-x,y,z
x,-y,z
-y,1/2-x,1/4+z
y,1/2+x,1/4+z
1/2+x,1/2+y,1/2+z
1/2-y,x,3/4+z
1/2-x,1/2-y,1/2+z
1/2+y,-x,3/4+z
1/2-x,1/2+y,1/2+z
1/2+x,1/2-y,1/2+z
1/2-y,-x,3/4+z
1/2+y,x,3/4+z
loop_
_atom_site_type_symbol
_atom_site_label
_atom_site_fract_x
_atom_site_fract_y
_atom_site_fract_z
Si Si1 0.217189 0.601140 0.317540
Si Si2 0.898956 0.354951 0.222231
Si Si3 0.282811 0.398860 0.644685
Si Si4 0.894199 0.902767 0.359510
Si Si5 0.597233 0.394199 0.352715
Si Si6 0.854951 0.601044 0.489994
O O1 0.215964 0.500000 0.336639
O O2 0.170173 0.605177 0.262189
O O3 0.160545 0.660545 0.356113
O O4 0.318297 0.632899 0.318999
O O5 0.877316 0.379193 0.163016
O O6 0.896997 0.250000 0.231113
O O7 0.000000 0.384217 0.232436
O O8 0.284036 0.500000 0.625586
O O9 0.181703 0.367101 0.643226
O O10 0.329827 0.394823 0.700036
O O11 0.877316 0.879193 0.299209
O O12 0.000000 0.907872 0.364570
O O13 0.858567 0.000000 0.371882
O O14 0.500000 0.358567 0.340343
O O15 0.592128 0.500000 0.347655
O O16 0.884217 0.500000 0.479789
#
# Coordination Sequence:
#
# PCOD9554075 Si02
#       6
#    16  16  16  16  16  16
#     4  11  20  29  45  70  96 124 157 191 227 274
#     4  10  18  30  46  68  99 130 155 184 231 287
#     4  11  20  29  45  70  96 124 157 191 227 274
#     4   9  18  32  47  64  92 129 161 188 227 280
#     4   9  18  32  47  64  92 129 161 188 227 280
#     4  10  18  30  46  68  99 130 155 184 231 287
#
# _framework density 16.099233000000002
#
# number of rings (size 3 to 8) (size 9 to 14) (size 15 to 20)
#    0.000    2.000    3.333    2.000    0.000    3.667 
#    0.000    0.000    0.000    1.000    0.000    0.000 
#    0.000    0.667    0.000    0.000    0.000    0.000 
#
# Total GULP energy -267523.899948 kJ/mol
# GULP energy per Si atom -5573.414582 kJ/mol
# Density = 1.606259 g / cm^3
# Si number density = 16.099233 Si / 1000 Ang^3
#
#
#
# Elastic Constant Matrix: (Units=GPa)
#
#
# Indices 1 2 3 4 5 6 
#
# 1 99.0613 21.7683 21.3370 0.0000 0.0000 0.0000
# 2 21.7683 99.0613 21.3370 0.0000 0.0000 0.0000
# 3 21.3370 21.3370 44.7371 0.0000 0.0000 0.0000
# 4 0.0000 0.0000 0.0000 20.2782 0.0000 0.0000
# 5 0.0000 0.0000 0.0000 0.0000 20.2782 0.0000
# 6 0.0000 0.0000 0.0000 0.0000 0.0000 6.6146
#
#
#
# Elastic Compliance Matrix: (Units=1/GPa)
#
#
# Indices 1 2 3 4 5 6 
#
# 1 0.011445 -0.001493 -0.004747 0.000000 0.000000 0.000000
# 2 -0.001493 0.011445 -0.004747 0.000000 0.000000 0.000000
# 3 -0.004747 -0.004747 0.026881 0.000000 0.000000 0.000000
# 4 0.000000 0.000000 0.000000 0.049314 0.000000 0.000000
# 5 0.000000 0.000000 0.000000 0.000000 0.049314 0.000000
# 6 0.000000 0.000000 0.000000 0.000000 0.000000 0.151180
#
#
# Mechanical properties :
#
#
# Convention : Reuss Voigt Hill
#
# Bulk Modulus (GPa) = 35.97298 41.30493 38.63896
# Shear Modulus (GPa) = 15.11404 21.32870 18.22137
#
# Velocity S-wave (km/s) = 3.06732 3.64377 3.36790
# Velocity P-wave (km/s) = 5.91080 6.58900 6.25909
#
# Compressibility (1/GPa) = 0.02779864
#
# Stress axis : x y z
#
# Youngs Moduli (GPa) = 87.37300 87.37300 37.20141
#
# Poissons Ratio (x) = 0.13041 0.17659
# Poissons Ratio (y) = 0.13041 0.17659
# Poissons Ratio (z) = 0.41474 0.41474
#
# Static dielectric constant tensor:
#      x y z
#    x 1.569950 0.000000 0.000000 
#    y 0.000000 1.569950 0.000000 
#    z 0.000000 0.000000 1.533850 
# 
# From -- ./inp_files/5682.got.cif
#   From: 2010.05.17/outbox.cif.g08.bks.cpg/sg109_3_cif.got.tgz:5682.got - 2010.05.20 10:51:12.
