data_PCOD9554369
_publ_section_title
;
Structure prediction by ZEFSAII (Michael W. Deem and Ramdas Pophale) SiO2 
 PCOD9554369
Probable space group: I 41 C D
;
_chemical_formula_sum "Si O2"
_cell_formula_units_Z 112
_cell_length_a 29.237862
_cell_length_b 29.237862
_cell_length_c 5.984355
_cell_angle_alpha 90.000000
_cell_angle_beta 90.000000
_cell_angle_gamma 90.000000
_cell_volume 5115.741277
_symmetry_space_group_name_H-M "I 41 C D"
_symmetry_group_IT_number 110
_symmetry_cell_setting 'tetragonal'
loop_
_space_group_symop_operation_xyz
x,y,z
-y,1/2+x,1/4+z
-x,-y,z
y,1/2-x,1/4+z
-x,y,1/2+z
x,-y,1/2+z
1/2-y,-x,1/4+z
1/2+y,x,1/4+z
1/2+x,1/2+y,1/2+z
1/2-y,x,3/4+z
1/2-x,1/2-y,1/2+z
1/2+y,-x,3/4+z
1/2-x,1/2+y,z
1/2+x,1/2-y,z
-y,1/2-x,3/4+z
y,1/2+x,3/4+z
loop_
_atom_site_type_symbol
_atom_site_label
_atom_site_fract_x
_atom_site_fract_y
_atom_site_fract_z
Si Si1 0.328844 0.400530 0.559780
Si Si2 0.179610 0.381253 0.512664
Si Si3 0.721071 0.546168 0.917846
Si Si4 0.685425 0.011466 0.482216
Si Si5 0.863524 0.737465 0.960934
Si Si6 0.781042 0.700394 0.694786
Si Si7 0.126451 0.009881 0.951150
O O1 0.359659 0.370346 0.726386
O O2 0.290217 0.431525 0.678909
O O3 0.300913 0.368094 0.399649
O O4 0.361268 0.436619 0.436979
O O5 0.183195 0.434922 0.539157
O O6 0.212024 0.369298 0.304900
O O7 0.203148 0.351603 0.707455
O O8 0.764903 0.513268 0.946164
O O9 0.674094 0.518993 0.969251
O O10 0.728151 0.591062 0.066278
O O11 0.666243 0.991302 0.722128
O O12 0.814724 0.729438 0.850717
O O13 0.727492 0.706183 0.721145
O O14 0.105561 0.996662 0.705272
#
# Coordination Sequence:
#
# PCOD9554369 Si02
#       7
#    16  16  16  16  16  16  16
#     4  11  23  40  60  96 132 170 232 283 351 411
#     4  12  25  41  65  98 132 184 238 293 346 423
#     4  11  21  39  62  94 124 172 220 289 345 410
#     4  12  26  43  67  99 134 175 231 291 363 415
#     4  12  22  40  64  88 127 184 233 287 334 405
#     4  12  26  43  59  87 133 190 243 280 331 406
#     4  10  19  34  59  88 126 164 209 274 345 398
#
# _framework density 21.893211999999998
#
# number of rings (size 3 to 8) (size 9 to 14) (size 15 to 20)
#    0.000    0.571    4.286    6.000    2.000    1.143 
#    0.000    0.000    0.000    0.000    0.000    0.000 
#    0.000   13.714    0.000    0.000    0.000    0.000 
#
# Total GULP energy -312165.254975 kJ/mol
# GULP energy per Si atom -5574.379553 kJ/mol
# Density = 2.184338 g / cm^3
# Si number density = 21.893212 Si / 1000 Ang^3
#
#
#
# Elastic Constant Matrix: (Units=GPa)
#
#
# Indices 1 2 3 4 5 6 
#
# 1 75.9189 3.3548 6.2783 0.0000 0.0000 0.0000
# 2 3.3548 75.9189 6.2783 0.0000 0.0000 0.0000
# 3 6.2783 6.2783 92.9155 0.0000 0.0000 0.0000
# 4 0.0000 0.0000 0.0000 31.1278 0.0000 0.0000
# 5 0.0000 0.0000 0.0000 0.0000 31.1278 0.0000
# 6 0.0000 0.0000 0.0000 0.0000 0.0000 11.7710
#
#
#
# Elastic Compliance Matrix: (Units=1/GPa)
#
#
# Indices 1 2 3 4 5 6 
#
# 1 0.013266 -0.000515 -0.000862 0.000000 0.000000 0.000000
# 2 -0.000515 0.013266 -0.000862 0.000000 0.000000 0.000000
# 3 -0.000862 -0.000862 0.010879 0.000000 0.000000 0.000000
# 4 0.000000 0.000000 0.000000 0.032126 0.000000 0.000000
# 5 0.000000 0.000000 0.000000 0.000000 0.032126 0.000000
# 6 0.000000 0.000000 0.000000 0.000000 0.000000 0.084955
#
#
# Mechanical properties :
#
#
# Convention : Reuss Voigt Hill
#
# Bulk Modulus (GPa) = 30.36325 30.73068 30.54697
# Shear Modulus (GPa) = 24.74372 30.06143 27.40258
#
# Velocity S-wave (km/s) = 3.36549 3.70955 3.54170
# Velocity P-wave (km/s) = 5.38525 5.69340 5.54147
#
# Compressibility (1/GPa) = 0.03293455
#
# Stress axis : x y z
#
# Youngs Moduli (GPa) = 75.38091 75.38091 91.92108
#
# Poissons Ratio (x) = 0.03882 0.07920
# Poissons Ratio (y) = 0.03882 0.07920
# Poissons Ratio (z) = 0.06495 0.06495
#
# Static dielectric constant tensor:
#      x y z
#    x 1.796780 0.000000 0.000000 
#    y 0.000000 1.796780 0.000000 
#    z 0.000000 0.000000 2.043530 
# 
# From -- ./inp_files/164.got.cif
#   From: 2010.05.17/outbox.cif.g08.bks.cpg/sg110_1_cif.got.tgz:164.got - 2010.05.20 10:54:03.
