data_PCOD9554238
_publ_section_title
;
Structure prediction by ZEFSAII (Michael W. Deem and Ramdas Pophale) SiO2 
 PCOD9554238
Probable space group: I 41 M D
;
_chemical_formula_sum "Si O2"
_cell_formula_units_Z 64
_cell_length_a 20.176644
_cell_length_b 20.176644
_cell_length_c 7.792617
_cell_angle_alpha 90.000000
_cell_angle_beta 90.000000
_cell_angle_gamma 90.000000
_cell_volume 3172.350715
_symmetry_space_group_name_H-M "I 41 M D"
_symmetry_group_IT_number 109
_symmetry_cell_setting 'tetragonal'
loop_
_space_group_symop_operation_xyz
x,y,z
-y,1/2+x,1/4+z
-x,-y,z
y,1/2-x,1/4+z
-x,y,z
x,-y,z
-y,1/2-x,1/4+z
y,1/2+x,1/4+z
1/2+x,1/2+y,1/2+z
1/2-y,x,3/4+z
1/2-x,1/2-y,1/2+z
1/2+y,-x,3/4+z
1/2-x,1/2+y,1/2+z
1/2+x,1/2-y,1/2+z
1/2-y,-x,3/4+z
1/2+y,x,3/4+z
loop_
_atom_site_type_symbol
_atom_site_label
_atom_site_fract_x
_atom_site_fract_y
_atom_site_fract_z
Si Si1 0.857908 0.921100 0.202250
Si Si2 0.139447 0.868953 0.844668
Si Si3 0.000000 0.921469 0.742759
Si Si4 0.230016 0.922109 0.541565
Si Si5 0.000000 0.919285 0.349077
O O1 0.811266 0.912840 0.367121
O O2 0.932157 0.899337 0.256652
O O3 0.859821 0.000000 0.161822
O O4 0.834284 0.881632 0.035616
O O5 0.183390 0.904950 0.702289
O O6 0.126101 0.792760 0.799903
O O7 0.066265 0.900624 0.837645
O O8 0.000000 0.895073 0.546380
O O9 0.000000 0.000000 0.729303
O O10 0.249897 0.000000 0.550336
O O11 0.000000 0.000000 0.352838
#
# Coordination Sequence:
#
# PCOD9554238 Si02
#       5
#    16  16   8  16   8
#     4  10  21  39  66  97 130 169 216 279 341 397
#     4  12  24  43  66  96 133 177 222 272 335 410
#     4  11  19  37  71 100 127 162 214 288 341 384
#     4  11  25  45  65  97 136 172 224 280 334 402
#     4   9  17  33  63  98 127 157 208 276 343 385
#
# _framework density 20.174313999999999
#
# number of rings (size 3 to 8) (size 9 to 14) (size 15 to 20)
#    0.000    1.250    3.750    3.000    0.000    3.000 
#    4.500    0.000    0.000    0.000    0.000    0.000 
#    0.000    0.000    0.000    0.000    0.000    0.000 
#
# Total GULP energy -178908.563929 kJ/mol
# GULP energy per Si atom -5590.892623 kJ/mol
# Density = 2.012840 g / cm^3
# Si number density = 20.174314 Si / 1000 Ang^3
#
#
#
# Elastic Constant Matrix: (Units=GPa)
#
#
# Indices 1 2 3 4 5 6 
#
# 1 52.1885 7.7679 26.9791 0.0000 0.0000 0.0000
# 2 7.7679 52.1885 26.9791 0.0000 0.0000 0.0000
# 3 26.9791 26.9791 140.4104 0.0000 0.0000 0.0000
# 4 0.0000 0.0000 0.0000 -19.3065 0.0000 0.0000
# 5 0.0000 0.0000 0.0000 0.0000 -19.3065 0.0000
# 6 0.0000 0.0000 0.0000 0.0000 0.0000 23.5255
#
#
#
# Elastic Compliance Matrix: (Units=1/GPa)
#
#
# Indices 1 2 3 4 5 6 
#
# 1 0.021339 -0.001173 -0.003875 0.000000 0.000000 0.000000
# 2 -0.001173 0.021339 -0.003875 0.000000 0.000000 0.000000
# 3 -0.003875 -0.003875 0.008611 0.000000 0.000000 0.000000
# 4 0.000000 0.000000 0.000000 -0.051796 0.000000 0.000000
# 5 0.000000 0.000000 0.000000 0.000000 -0.051796 0.000000
# 6 0.000000 0.000000 0.000000 0.000000 0.000000 0.042507
#
#
# Mechanical properties :
#
#
# Convention : Reuss Voigt Hill
#
# Bulk Modulus (GPa) = 29.90096 40.91554 35.40825
# Shear Modulus (GPa) = 260.45537 9.18659 134.82098
#
# Velocity S-wave (km/s) = 11.37465 2.13623 8.18371
# Velocity P-wave (km/s) = 13.68809 5.13904 10.33860
#
# Compressibility (1/GPa) = 0.03344374
#
# Stress axis : x y z
#
# Youngs Moduli (GPa) = 46.86259 46.86259 116.13035
#
# Poissons Ratio (x) = 0.05497 0.44998
# Poissons Ratio (y) = 0.05497 0.44998
# Poissons Ratio (z) = 0.18158 0.18158
#
# Static dielectric constant tensor:
#      x y z
#    x 1.713040 0.000000 0.000000 
#    y 0.000000 1.713040 0.000000 
#    z 0.000000 0.000000 1.713430 
# 
# From -- ./inp_files/1218.got.cif
#   From: 2010.05.17/outbox.cif.g08.bks.cpg/sg109_1_cif.got.tgz:1218.got - 2010.05.20 10:51:12.
