data_PCOD9554054
_publ_section_title
;
Structure prediction by ZEFSAII (Michael W. Deem and Ramdas Pophale) SiO2 
 PCOD9554054
Probable space group: I 41 M D
;
_chemical_formula_sum "Si O2"
_cell_formula_units_Z 96
_cell_length_a 19.067025
_cell_length_b 19.067025
_cell_length_c 18.188651
_cell_angle_alpha 90.000000
_cell_angle_beta 90.000000
_cell_angle_gamma 90.000000
_cell_volume 6612.510305
_symmetry_space_group_name_H-M "I 41 M D"
_symmetry_group_IT_number 109
_symmetry_cell_setting 'tetragonal'
loop_
_space_group_symop_operation_xyz
x,y,z
-y,1/2+x,1/4+z
-x,-y,z
y,1/2-x,1/4+z
-x,y,z
x,-y,z
-y,1/2-x,1/4+z
y,1/2+x,1/4+z
1/2+x,1/2+y,1/2+z
1/2-y,x,3/4+z
1/2-x,1/2-y,1/2+z
1/2+y,-x,3/4+z
1/2-x,1/2+y,1/2+z
1/2+x,1/2-y,1/2+z
1/2-y,-x,3/4+z
1/2+y,x,3/4+z
loop_
_atom_site_type_symbol
_atom_site_label
_atom_site_fract_x
_atom_site_fract_y
_atom_site_fract_z
Si Si1 0.416199 0.918593 0.600080
Si Si2 0.355298 0.855297 0.749420
Si Si3 0.307563 0.167734 0.986376
Si Si4 0.307563 0.667735 0.262465
Si Si5 0.779381 0.250001 0.624421
Si Si6 0.083801 0.081407 0.148760
O O1 0.500000 0.912105 0.603307
O O2 0.384263 0.893641 0.677720
O O3 0.384738 0.866772 0.538969
O O4 0.398470 0.000000 0.586783
O O5 0.364786 0.771004 0.741262
O O6 0.271005 0.864786 0.757578
O O7 0.393641 0.884262 0.821120
O O8 0.298403 0.228209 0.924247
O O9 0.366773 0.115262 0.959872
O O10 0.320668 0.203937 0.065107
O O11 0.320668 0.703939 0.183735
O O12 0.298401 0.728209 0.324594
O O13 0.000000 0.087897 0.145531
O O14 0.101529 0.000000 0.162057
#
# Coordination Sequence:
#
# PCOD9554054 Si02
#       6
#    16  16  16  16  16  16
#     4  11  22  32  44  71 109 136 159 197 243 294
#     4  10  18  33  52  72  94 134 168 199 234 296
#     4  10  16  33  50  74  92 124 165 201 244 280
#     4  10  16  33  50  74  92 124 165 201 244 280
#     4   8  16  30  54  70  92 114 160 216 232 268
#     4  11  22  32  44  71 109 136 159 197 243 294
#
# _framework density 14.517935
#
# number of rings (size 3 to 8) (size 9 to 14) (size 15 to 20)
#    0.000    2.333    6.667    1.000    0.000    5.333 
#    0.000    0.833    0.000    0.000    0.000    0.000 
#    0.000   10.667    0.000    0.000    0.000    0.000 
#
# Total GULP energy -267381.757982 kJ/mol
# GULP energy per Si atom -5570.453291 kJ/mol
# Density = 1.448489 g / cm^3
# Si number density = 14.517935 Si / 1000 Ang^3
#
#
#
# Elastic Constant Matrix: (Units=GPa)
#
#
# Indices 1 2 3 4 5 6 
#
# 1 91.1470 67.5732 49.8312 0.0000 0.0000 0.0000
# 2 67.5732 91.1470 49.8312 0.0000 0.0000 0.0000
# 3 49.8312 49.8312 106.3477 0.0000 0.0000 0.0000
# 4 0.0000 0.0000 0.0000 10.6535 0.0000 0.0000
# 5 0.0000 0.0000 0.0000 0.0000 10.6535 0.0000
# 6 0.0000 0.0000 0.0000 0.0000 0.0000 29.1449
#
#
#
# Elastic Compliance Matrix: (Units=1/GPa)
#
#
# Indices 1 2 3 4 5 6 
#
# 1 0.025673 -0.016747 -0.004183 0.000000 0.000000 0.000000
# 2 -0.016747 0.025673 -0.004183 0.000000 0.000000 0.000000
# 3 -0.004183 -0.004183 0.013323 0.000000 0.000000 0.000000
# 4 0.000000 0.000000 0.000000 0.093866 0.000000 0.000000
# 5 0.000000 0.000000 0.000000 0.000000 0.093866 0.000000
# 6 0.000000 0.000000 0.000000 0.000000 0.000000 0.034311
#
#
# Mechanical properties :
#
#
# Convention : Reuss Voigt Hill
#
# Bulk Modulus (GPa) = 69.22640 69.23474 69.23057
# Shear Modulus (GPa) = 14.63048 18.18413 16.40730
#
# Velocity S-wave (km/s) = 3.17795 3.54295 3.36540
# Velocity P-wave (km/s) = 7.82641 8.03301 7.93038
#
# Compressibility (1/GPa) = 0.01444536
#
# Stress axis : x y z
#
# Youngs Moduli (GPa) = 38.95080 38.95080 75.05806
#
# Poissons Ratio (x) = 0.65229 0.31396
# Poissons Ratio (y) = 0.65229 0.31396
# Poissons Ratio (z) = 0.16293 0.16293
#
# Static dielectric constant tensor:
#      x y z
#    x 1.475060 0.000000 0.000000 
#    y 0.000000 1.475060 0.000000 
#    z 0.000000 0.000000 1.489540 
# 
# From -- ./inp_files/3138.got.cif
#   From: 2010.05.17/outbox.cif.g08.bks.cpg/sg109_2_cif.got.tgz:3138.got - 2010.05.20 10:51:12.
