data_PCOD9554429
_publ_section_title
;
Structure prediction by ZEFSAII (Michael W. Deem and Ramdas Pophale) SiO2 
 PCOD9554429
Probable space group: I 41 C D
;
_chemical_formula_sum "Si O2"
_cell_formula_units_Z 128
_cell_length_a 18.947752
_cell_length_b 18.947752
_cell_length_c 18.193495
_cell_angle_alpha 90.000000
_cell_angle_beta 90.000000
_cell_angle_gamma 90.000000
_cell_volume 6531.779559
_symmetry_space_group_name_H-M "I 41 C D"
_symmetry_group_IT_number 110
_symmetry_cell_setting 'tetragonal'
loop_
_space_group_symop_operation_xyz
x,y,z
-y,1/2+x,1/4+z
-x,-y,z
y,1/2-x,1/4+z
-x,y,1/2+z
x,-y,1/2+z
1/2-y,-x,1/4+z
1/2+y,x,1/4+z
1/2+x,1/2+y,1/2+z
1/2-y,x,3/4+z
1/2-x,1/2-y,1/2+z
1/2+y,-x,3/4+z
1/2-x,1/2+y,z
1/2+x,1/2-y,z
-y,1/2-x,3/4+z
y,1/2+x,3/4+z
loop_
_atom_site_type_symbol
_atom_site_label
_atom_site_fract_x
_atom_site_fract_y
_atom_site_fract_z
Si Si1 0.443817 0.345774 0.831680
Si Si2 0.255545 0.551043 0.506950
Si Si3 0.112299 0.497915 0.736087
Si Si4 0.914306 0.104805 0.677800
Si Si5 0.489907 0.901400 0.301751
Si Si6 0.809182 0.544667 0.860172
Si Si7 0.236418 0.170722 0.147846
Si Si8 0.299654 0.298338 0.058150
O O1 0.511173 0.308974 0.794541
O O2 0.471913 0.385301 0.903396
O O3 0.411724 0.392693 0.765888
O O4 0.387519 0.286843 0.858727
O O5 0.322604 0.509458 0.535329
O O6 0.254557 0.545027 0.418269
O O7 0.259443 0.631458 0.532895
O O8 0.077395 0.573179 0.753239
O O9 0.187140 0.485828 0.777037
O O10 0.056998 0.447201 0.778151
O O11 0.910557 0.030273 0.636734
O O12 0.845831 0.148151 0.648052
O O13 0.988126 0.138583 0.649523
O O14 0.822046 0.628460 0.850041
O O15 0.254171 0.244375 0.107071
O O16 0.259570 0.177476 0.232843
#
# Coordination Sequence:
#
# PCOD9554429 Si02
#       8
#    16  16  16  16  16  16  16  16
#     4  11  22  41  64  95 132 166 218 270 328 392
#     4  11  22  40  63  92 129 169 215 266 323 393
#     4  10  21  40  66  92 124 168 214 271 324 382
#     4  10  23  41  65  92 127 170 215 270 327 391
#     4  10  20  40  67  88 119 171 215 262 328 385
#     4  10  21  39  63  90 123 169 212 258 322 389
#     4  12  22  39  65  95 126 172 214 263 322 395
#     4  12  23  40  66  93 128 172 216 263 329 390
#
# _framework density 19.596496999999999
#
# number of rings (size 3 to 8) (size 9 to 14) (size 15 to 20)
#    0.000    1.250    6.250    0.000    0.000    0.000 
#    9.000    7.500    5.500    0.000    0.000    0.000 
#    0.000    0.000    0.000    0.000    0.000    0.000 
#
# Total GULP energy -356500.345741 kJ/mol
# GULP energy per Si atom -5570.317902 kJ/mol
# Density = 1.955189 g / cm^3
# Si number density = 19.596497 Si / 1000 Ang^3
#
#
#
# Elastic Constant Matrix: (Units=GPa)
#
#
# Indices 1 2 3 4 5 6 
#
# 1 56.6391 37.6758 42.0030 0.0000 0.0000 0.0000
# 2 37.6758 56.6391 42.0030 0.0000 0.0000 0.0000
# 3 42.0030 42.0030 148.9796 0.0000 0.0000 0.0000
# 4 0.0000 0.0000 0.0000 26.6603 0.0000 0.0000
# 5 0.0000 0.0000 0.0000 0.0000 26.6603 0.0000
# 6 0.0000 0.0000 0.0000 0.0000 0.0000 29.0061
#
#
#
# Elastic Compliance Matrix: (Units=1/GPa)
#
#
# Indices 1 2 3 4 5 6 
#
# 1 0.033446 -0.019287 -0.003992 0.000000 0.000000 0.000000
# 2 -0.019287 0.033446 -0.003992 0.000000 0.000000 0.000000
# 3 -0.003992 -0.003992 0.008963 0.000000 0.000000 0.000000
# 4 0.000000 0.000000 0.000000 0.037509 0.000000 0.000000
# 5 0.000000 0.000000 0.000000 0.000000 0.037509 0.000000
# 6 0.000000 0.000000 0.000000 0.000000 0.000000 0.034475
#
#
# Mechanical properties :
#
#
# Convention : Reuss Voigt Hill
#
# Bulk Modulus (GPa) = 46.92051 56.18018 51.55034
# Shear Modulus (GPa) = 20.24340 25.83709 23.04024
#
# Velocity S-wave (km/s) = 3.21754 3.63499 3.43262
# Velocity P-wave (km/s) = 6.14806 6.80796 6.48641
#
# Compressibility (1/GPa) = 0.02131264
#
# Stress axis : x y z
#
# Youngs Moduli (GPa) = 29.89920 29.89920 111.56761
#
# Poissons Ratio (x) = 0.57668 0.44535
# Poissons Ratio (y) = 0.57668 0.44535
# Poissons Ratio (z) = 0.11935 0.11935
#
# Static dielectric constant tensor:
#      x y z
#    x 1.721540 0.000000 0.000000 
#    y 0.000000 1.721540 0.000000 
#    z 0.000000 0.000000 1.717940 
# 
# From -- ./inp_files/1866.got.cif
#   From: 2010.05.17/outbox.cif.g08.bks.cpg/sg110_1_cif.got.tgz:1866.got - 2010.05.20 10:54:03.
