data_PCOD9554861
_publ_section_title
;
Structure prediction by ZEFSAII (Michael W. Deem and Ramdas Pophale) SiO2 
 PCOD9554861
Probable space group: P -4 2 M 
;
_chemical_formula_sum "Si O2"
_cell_formula_units_Z 40
_cell_length_a 14.560483
_cell_length_b 14.560483
_cell_length_c 9.614319
_cell_angle_alpha 90.000000
_cell_angle_beta 90.000000
_cell_angle_gamma 90.000000
_cell_volume 2038.309324
_symmetry_space_group_name_H-M "P -4 2 M "
_symmetry_group_IT_number 111
_symmetry_cell_setting 'tetragonal'
loop_
_space_group_symop_operation_xyz
x,y,z
y,-x,-z
-x,-y,z
-y,x,-z
x,-y,-z
-x,y,-z
-y,-x,z
y,x,z
loop_
_atom_site_type_symbol
_atom_site_label
_atom_site_fract_x
_atom_site_fract_y
_atom_site_fract_z
Si Si1 0.228376 0.080350 0.310855
Si Si2 0.831732 0.556865 0.807024
Si Si3 0.097629 0.625619 0.922564
Si Si4 0.495783 0.348076 0.339922
Si Si5 0.876842 0.273794 0.377987
O O1 0.130067 0.130067 0.305929
O O2 0.289626 0.109682 0.180061
O O3 0.275527 0.113103 0.455132
O O4 0.227157 0.970035 0.320351
O O5 0.895297 0.468496 0.835129
O O6 0.733903 0.517849 0.762305
O O7 0.867254 0.626649 0.690184
O O8 0.830458 0.612960 0.951875
O O9 0.000000 0.633124 0.000000
O O10 0.500000 0.314752 0.500000
O O11 0.574114 0.425887 0.328626
O O12 0.399134 0.399134 0.316365
O O13 0.788648 0.211353 0.343713
#
# Coordination Sequence:
#
# PCOD9554861 Si02
#       5
#     8   8   8   8   8
#     4  10  23  42  65  95 132 168 209 271 327 381
#     4  11  22  38  66  89 126 166 210 264 315 377
#     4  11  24  43  61  87 128 170 210 257 324 383
#     4   9  20  39  61  90 128 165 207 262 321 381
#     4  10  22  40  66 100 127 163 217 265 325 393
#
# _framework density 19.624106999999999
#
# number of rings (size 3 to 8) (size 9 to 14) (size 15 to 20)
#    0.000    1.800    2.000    2.400    2.800    2.800 
#    0.000   10.000    0.000    4.800    0.000    0.000 
#    0.000    0.000    0.000    0.000    0.000    0.000 
#
# Total GULP energy -223349.510941 kJ/mol
# GULP energy per Si atom -5583.737774 kJ/mol
# Density = 1.957944 g / cm^3
# Si number density = 19.624107 Si / 1000 Ang^3
#
#
#
# Elastic Constant Matrix: (Units=GPa)
#
#
# Indices 1 2 3 4 5 6 
#
# 1 78.6816 17.9716 47.1203 0.0000 0.0000 0.0000
# 2 17.9716 78.6776 47.1180 0.0000 0.0000 0.0000
# 3 47.1203 47.1180 80.1624 0.0000 0.0000 0.0000
# 4 0.0000 0.0000 0.0000 30.7042 0.0000 0.0000
# 5 0.0000 0.0000 0.0000 0.0000 30.7045 0.0000
# 6 0.0000 0.0000 0.0000 0.0000 0.0000 21.7511
#
#
#
# Elastic Compliance Matrix: (Units=1/GPa)
#
#
# Indices 1 2 3 4 5 6 
#
# 1 0.020355 0.003883 -0.014247 0.000000 0.000000 0.000000
# 2 0.003883 0.020355 -0.014247 0.000000 0.000000 0.000000
# 3 -0.014247 -0.014247 0.029223 0.000000 0.000000 0.000000
# 4 0.000000 0.000000 0.000000 0.032569 0.000000 0.000000
# 5 0.000000 0.000000 0.000000 0.000000 0.032568 0.000000
# 6 0.000000 0.000000 0.000000 0.000000 0.000000 0.045975
#
#
# Mechanical properties :
#
#
# Convention : Reuss Voigt Hill
#
# Bulk Modulus (GPa) = 48.28311 51.32682 49.80497
# Shear Modulus (GPa) = 21.08190 24.98607 23.03399
#
# Velocity S-wave (km/s) = 3.28119 3.57211 3.42973
# Velocity P-wave (km/s) = 6.24598 6.57458 6.41239
#
# Compressibility (1/GPa) = 0.02071117
#
# Stress axis : x y z
#
# Youngs Moduli (GPa) = 49.12880 49.12759 34.21964
#
# Poissons Ratio (x) = -0.19074 0.48752
# Poissons Ratio (y) = -0.19075 0.48751
# Poissons Ratio (z) = 0.69993 0.69990
#
# Static dielectric constant tensor:
#      x y z
#    x 1.683230 0.000000 0.000000 
#    y 0.000000 1.683230 0.000000 
#    z 0.000000 0.000000 1.695850 
# 
# From -- ./inp_files/1548.got.cif
#   From: 2010.05.17/outbox.cif.g08.bks.cpg/sg111_1_cif.got.tgz:1548.got - 2010.05.20 10:56:05.
