data_PCOD9554513
_publ_section_title
;
Structure prediction by ZEFSAII (Michael W. Deem and Ramdas Pophale) SiO2 
 PCOD9554513
Probable space group: I 41 C D
;
_chemical_formula_sum "Si O2"
_cell_formula_units_Z 112
_cell_length_a 31.544734
_cell_length_b 31.544734
_cell_length_c 5.124232
_cell_angle_alpha 90.000000
_cell_angle_beta 90.000000
_cell_angle_gamma 90.000000
_cell_volume 5098.970782
_symmetry_space_group_name_H-M "I 41 C D"
_symmetry_group_IT_number 110
_symmetry_cell_setting 'tetragonal'
loop_
_space_group_symop_operation_xyz
x,y,z
-y,1/2+x,1/4+z
-x,-y,z
y,1/2-x,1/4+z
-x,y,1/2+z
x,-y,1/2+z
1/2-y,-x,1/4+z
1/2+y,x,1/4+z
1/2+x,1/2+y,1/2+z
1/2-y,x,3/4+z
1/2-x,1/2-y,1/2+z
1/2+y,-x,3/4+z
1/2-x,1/2+y,z
1/2+x,1/2-y,z
-y,1/2-x,3/4+z
y,1/2+x,3/4+z
loop_
_atom_site_type_symbol
_atom_site_label
_atom_site_fract_x
_atom_site_fract_y
_atom_site_fract_z
Si Si1 0.339427 0.339186 0.064460
Si Si2 0.108465 0.731919 0.548939
Si Si3 0.416350 0.472942 0.492005
Si Si4 0.472540 0.815972 0.273415
Si Si5 0.889950 0.471562 0.794369
Si Si6 0.605399 0.329800 0.039279
Si Si7 0.186570 0.755572 0.902275
O O1 0.299532 0.370902 0.083026
O O2 0.371725 0.351352 0.292627
O O3 0.364129 0.336386 0.790550
O O4 0.324973 0.290378 0.122788
O O5 0.068077 0.710183 0.681938
O O6 0.098357 0.780247 0.472189
O O7 0.145693 0.738261 0.759306
O O8 0.424826 0.490042 0.202036
O O9 0.366242 0.462672 0.510182
O O10 0.444622 0.433008 0.563651
O O11 0.490034 0.807222 0.562956
O O12 0.888331 0.491970 0.509295
O O13 0.851801 0.439070 0.840055
O O14 0.216275 0.785089 0.728145
#
# Coordination Sequence:
#
# PCOD9554513 Si02
#       7
#    16  16  16  16  16  16  16
#     4  11  23  42  66  93 126 175 230 279 322 375
#     4  11  23  41  68  94 127 181 229 266 326 397
#     4  10  22  42  67  96 126 159 208 266 319 379
#     4  10  24  42  65  95 127 164 215 280 328 372
#     4  12  26  44  68  99 136 172 204 258 337 412
#     4  11  26  43  64  96 135 174 221 275 327 389
#     4  11  22  38  62  99 141 178 223 283 333 382
#
# _framework density 21.965218
#
# number of rings (size 3 to 8) (size 9 to 14) (size 15 to 20)
#    0.000    1.143    0.000    6.000    0.000   12.000 
#    0.000    0.000    0.000    0.000    0.000    0.000 
#    0.000    0.000    0.000    0.000    0.000    0.000 
#
# Total GULP energy -313442.100446 kJ/mol
# GULP energy per Si atom -5597.180365 kJ/mol
# Density = 2.191522 g / cm^3
# Si number density = 21.965218 Si / 1000 Ang^3
#
#
#
# Elastic Constant Matrix: (Units=GPa)
#
#
# Indices 1 2 3 4 5 6 
#
# 1 64.6024 67.9436 -7.2330 0.0000 0.0000 0.0000
# 2 67.9436 64.6024 -7.2330 0.0000 0.0000 0.0000
# 3 -7.2330 -7.2330 42.4962 0.0000 0.0000 0.0000
# 4 0.0000 0.0000 0.0000 24.9477 0.0000 0.0000
# 5 0.0000 0.0000 0.0000 0.0000 24.9477 0.0000
# 6 0.0000 0.0000 0.0000 0.0000 0.0000 37.5504
#
#
#
# Elastic Compliance Matrix: (Units=1/GPa)
#
#
# Indices 1 2 3 4 5 6 
#
# 1 -0.145804 0.153492 0.001308 0.000000 0.000000 0.000000
# 2 0.153492 -0.145804 0.001308 0.000000 0.000000 0.000000
# 3 0.001308 0.001308 0.023977 0.000000 0.000000 0.000000
# 4 0.000000 0.000000 0.000000 0.040084 0.000000 0.000000
# 5 0.000000 0.000000 0.000000 0.000000 0.040084 0.000000
# 6 0.000000 0.000000 0.000000 0.000000 0.000000 0.026631
#
#
# Mechanical properties :
#
#
# Convention : Reuss Voigt Hill
#
# Bulk Modulus (GPa) = 22.42896 30.96182 26.69539
# Shear Modulus (GPa) = -10.91255 25.37071 7.22908
#
# Velocity S-wave (km/s) = -2.23134 3.40228 1.81612
# Velocity P-wave (km/s) = 1.89599 5.43695 4.07156
#
# Compressibility (1/GPa) = 0.04458522
#
# Stress axis : x y z
#
# Youngs Moduli (GPa) = -6.85851 -6.85851 41.70684
#
# Poissons Ratio (x) = 1.05272 -0.05457
# Poissons Ratio (y) = 1.05272 -0.05457
# Poissons Ratio (z) = 0.00897 0.00897
#
# Static dielectric constant tensor:
#      x y z
#    x 1.825310 0.000000 0.000000 
#    y 0.000000 1.825310 0.000000 
#    z 0.000000 0.000000 1.835980 
# 
# From -- ./inp_files/151.got.cif
#   From: 2010.05.17/outbox.cif.g08.bks.cpg/sg110_1_cif.got.tgz:151.got - 2010.05.20 10:54:03.
