data_PCOD9554542
_publ_section_title
;
Structure prediction by ZEFSAII (Michael W. Deem and Ramdas Pophale) SiO2 
 PCOD9554542
Probable space group: I 41 C D
;
_chemical_formula_sum "Si O2"
_cell_formula_units_Z 64
_cell_length_a 10.352415
_cell_length_b 10.352415
_cell_length_c 25.201758
_cell_angle_alpha 90.000000
_cell_angle_beta 90.000000
_cell_angle_gamma 90.000000
_cell_volume 2700.935317
_symmetry_space_group_name_H-M "I 41 C D"
_symmetry_group_IT_number 110
_symmetry_cell_setting 'tetragonal'
loop_
_space_group_symop_operation_xyz
x,y,z
-y,1/2+x,1/4+z
-x,-y,z
y,1/2-x,1/4+z
-x,y,1/2+z
x,-y,1/2+z
1/2-y,-x,1/4+z
1/2+y,x,1/4+z
1/2+x,1/2+y,1/2+z
1/2-y,x,3/4+z
1/2-x,1/2-y,1/2+z
1/2+y,-x,3/4+z
1/2-x,1/2+y,z
1/2+x,1/2-y,z
-y,1/2-x,3/4+z
y,1/2+x,3/4+z
loop_
_atom_site_type_symbol
_atom_site_label
_atom_site_fract_x
_atom_site_fract_y
_atom_site_fract_z
Si Si1 0.099182 0.608556 0.231390
Si Si2 0.244616 0.125185 0.584214
Si Si3 0.493785 0.216527 0.120785
Si Si4 0.449809 0.864136 0.430117
O O1 0.078919 0.718628 0.274716
O O2 0.250240 0.576092 0.221974
O O3 0.000000 0.500000 0.251429
O O4 0.052316 0.643369 0.172899
O O5 0.397217 0.144531 0.587823
O O6 0.136001 0.239342 0.590721
O O7 0.200160 0.042167 0.635400
O O8 0.582991 0.331162 0.145056
O O9 0.500000 0.000000 0.453542
#
# Coordination Sequence:
#
# PCOD9554542 Si02
#       4
#    16  16  16  16
#     4  12  24  44  76 106 149 207 252 316 404 452
#     4  11  25  44  74 105 148 195 250 316 388 457
#     4  11  23  45  69 106 148 188 253 318 369 475
#     4  10  23  44  68 105 151 186 249 321 367 467
#
# _framework density 23.695495999999999
#
# number of rings (size 3 to 8) (size 9 to 14) (size 15 to 20)
#    0.000    1.000    5.000    2.250    0.000    8.000 
#    0.000    1.250    0.000    0.000    0.000    0.000 
#    0.000    0.000    0.000    0.000    0.000    0.000 
#
# Total GULP energy -178561.926834 kJ/mol
# GULP energy per Si atom -5580.060214 kJ/mol
# Density = 2.364156 g / cm^3
# Si number density = 23.695496 Si / 1000 Ang^3
#
#
#
# Elastic Constant Matrix: (Units=GPa)
#
#
# Indices 1 2 3 4 5 6 
#
# 1 82.3230 15.0409 22.0010 0.0000 0.0000 0.0000
# 2 15.0409 82.3230 22.0010 0.0000 0.0000 0.0000
# 3 22.0010 22.0010 95.0585 0.0000 0.0000 0.0000
# 4 0.0000 0.0000 0.0000 99.0851 0.0000 0.0000
# 5 0.0000 0.0000 0.0000 0.0000 99.0851 0.0000
# 6 0.0000 0.0000 0.0000 0.0000 0.0000 66.2880
#
#
#
# Elastic Compliance Matrix: (Units=1/GPa)
#
#
# Indices 1 2 3 4 5 6 
#
# 1 0.013167 -0.001696 -0.002655 0.000000 0.000000 0.000000
# 2 -0.001696 0.013167 -0.002655 0.000000 0.000000 0.000000
# 3 -0.002655 -0.002655 0.011749 0.000000 0.000000 0.000000
# 4 0.000000 0.000000 0.000000 0.010092 0.000000 0.000000
# 5 0.000000 0.000000 0.000000 0.000000 0.010092 0.000000
# 6 0.000000 0.000000 0.000000 0.000000 0.000000 0.015086
#
#
# Mechanical properties :
#
#
# Convention : Reuss Voigt Hill
#
# Bulk Modulus (GPa) = 41.54453 41.97668 41.76061
# Shear Modulus (GPa) = 52.41778 66.26907 59.34342
#
# Velocity S-wave (km/s) = 4.70844 5.29412 5.00985
# Velocity P-wave (km/s) = 6.86513 7.42453 7.15030
#
# Compressibility (1/GPa) = 0.02407056
#
# Stress axis : x y z
#
# Youngs Moduli (GPa) = 75.94936 75.94935 85.11553
#
# Poissons Ratio (x) = 0.12882 0.22597
# Poissons Ratio (y) = 0.12882 0.22597
# Poissons Ratio (z) = 0.20163 0.20163
#
# Static dielectric constant tensor:
#      x y z
#    x 2.001260 0.000000 0.000000 
#    y 0.000000 2.001260 0.000000 
#    z 0.000000 0.000000 1.872850 
# 
# From -- ./inp_files/2042.got.cif
#   From: 2010.05.17/outbox.cif.g08.bks.cpg/sg110_2_cif.got.tgz:2042.got - 2010.05.20 10:54:03.
