data_PCOD9554791
_publ_section_title
;
Structure prediction by ZEFSAII (Michael W. Deem and Ramdas Pophale) SiO2 
 PCOD9554791
Probable space group: P -4 2 M 
;
_chemical_formula_sum "Si O2"
_cell_formula_units_Z 48
_cell_length_a 12.832051
_cell_length_b 12.832051
_cell_length_c 17.390319
_cell_angle_alpha 90.000000
_cell_angle_beta 90.000000
_cell_angle_gamma 90.000000
_cell_volume 2863.516584
_symmetry_space_group_name_H-M "P -4 2 M "
_symmetry_group_IT_number 111
_symmetry_cell_setting 'tetragonal'
loop_
_space_group_symop_operation_xyz
x,y,z
y,-x,-z
-x,-y,z
-y,x,-z
x,-y,-z
-x,y,-z
-y,-x,z
y,x,z
loop_
_atom_site_type_symbol
_atom_site_label
_atom_site_fract_x
_atom_site_fract_y
_atom_site_fract_z
Si Si1 0.794837 0.622137 0.683512
Si Si2 0.621518 0.795228 1.000000
Si Si3 0.122059 0.706258 0.158685
Si Si4 0.000000 0.626450 0.411862
Si Si5 0.794838 0.377863 0.683513
Si Si6 0.706259 0.122058 0.841315
O O1 0.696104 0.696104 0.668354
O O2 0.829476 0.638843 0.772003
O O3 0.894498 0.656418 0.632581
O O4 0.773530 0.500000 0.669427
O O5 0.690854 0.690854 0.999999
O O6 0.652309 0.857545 0.923205
O O7 0.500000 0.772198 0.000000
O O8 0.652311 0.857545 0.076795
O O9 0.185233 0.814768 0.158401
O O10 0.000000 0.720245 0.171530
O O11 0.000000 0.500000 0.411859
O O12 0.000000 0.662326 0.500000
O O13 0.894498 0.656418 0.367419
O O14 0.696106 0.303895 0.668356
O O15 0.829478 0.361159 0.772004
O O16 0.814768 0.185233 0.841597
#
# Coordination Sequence:
#
# PCOD9554791 Si02
#       6
#     8   8   8   8   8   8
#     4  10  20  34  54  80 109 141 177 218 265 316
#     4  10  21  34  50  74 102 136 177 218 262 312
#     4  10  20  34  52  76 105 138 177 219 263 311
#     4   9  18  34  56  78 102 136 175 214 259 315
#     4  10  20  34  54  80 109 141 177 218 265 316
#     4  10  20  34  52  76 105 138 177 219 263 311
#
# _framework density 16.762606000000002
#
# number of rings (size 3 to 8) (size 9 to 14) (size 15 to 20)
#    0.000    2.167    1.667    1.500    0.000    4.167 
#    0.000    0.000    0.000    9.500    0.000    5.833 
#    0.000    0.000    0.000    0.000    0.000    0.000 
#
# Total GULP energy -267742.328587 kJ/mol
# GULP energy per Si atom -5577.965179 kJ/mol
# Density = 1.672445 g / cm^3
# Si number density = 16.762606 Si / 1000 Ang^3
#
#
#
# Elastic Constant Matrix: (Units=GPa)
#
#
# Indices 1 2 3 4 5 6 
#
# 1 119.0081 51.7850 32.5510 0.0000 0.0000 0.0000
# 2 51.7850 119.0073 32.5510 0.0000 0.0000 0.0000
# 3 32.5510 32.5510 103.5862 0.0000 0.0000 0.0000
# 4 0.0000 0.0000 0.0000 17.7325 0.0000 0.0000
# 5 0.0000 0.0000 0.0000 0.0000 17.7325 0.0000
# 6 0.0000 0.0000 0.0000 0.0000 0.0000 8.3406
#
#
#
# Elastic Compliance Matrix: (Units=1/GPa)
#
#
# Indices 1 2 3 4 5 6 
#
# 1 0.010764 -0.004112 -0.002090 0.000000 0.000000 0.000000
# 2 -0.004112 0.010764 -0.002090 0.000000 0.000000 0.000000
# 3 -0.002090 -0.002090 0.010967 0.000000 0.000000 0.000000
# 4 0.000000 0.000000 0.000000 0.056394 0.000000 0.000000
# 5 0.000000 0.000000 0.000000 0.000000 0.056394 0.000000
# 6 0.000000 0.000000 0.000000 0.000000 0.000000 0.119896
#
#
# Mechanical properties :
#
#
# Convention : Reuss Voigt Hill
#
# Bulk Modulus (GPa) = 62.85343 63.93063 63.39203
# Shear Modulus (GPa) = 17.41754 23.74208 20.57981
#
# Velocity S-wave (km/s) = 3.22696 3.76755 3.50769
# Velocity P-wave (km/s) = 7.17370 7.55960 7.36918
#
# Compressibility (1/GPa) = 0.01591003
#
# Stress axis : x y z
#
# Youngs Moduli (GPa) = 92.90372 92.90302 91.17854
#
# Poissons Ratio (x) = 0.38202 0.19059
# Poissons Ratio (y) = 0.38203 0.19059
# Poissons Ratio (z) = 0.19419 0.19419
#
# Static dielectric constant tensor:
#      x y z
#    x 1.541400 0.000000 0.000000 
#    y 0.000000 1.541400 0.000000 
#    z 0.000000 0.000000 1.573790 
# 
# From -- ./inp_files/3605.got.cif
#   From: 2010.05.17/outbox.cif.g08.bks.cpg/sg111_2_cif.got.tgz:3605.got - 2010.05.20 10:56:05.
