data_PCOD9554131
_publ_section_title
;
Structure prediction by ZEFSAII (Michael W. Deem and Ramdas Pophale) SiO2 
 PCOD9554131
Probable space group: I 41 M D
;
_chemical_formula_sum "Si O2"
_cell_formula_units_Z 112
_cell_length_a 14.242081
_cell_length_b 14.242081
_cell_length_c 26.498542
_cell_angle_alpha 90.000000
_cell_angle_beta 90.000000
_cell_angle_gamma 90.000000
_cell_volume 5374.881351
_symmetry_space_group_name_H-M "I 41 M D"
_symmetry_group_IT_number 109
_symmetry_cell_setting 'tetragonal'
loop_
_space_group_symop_operation_xyz
x,y,z
-y,1/2+x,1/4+z
-x,-y,z
y,1/2-x,1/4+z
-x,y,z
x,-y,z
-y,1/2-x,1/4+z
y,1/2+x,1/4+z
1/2+x,1/2+y,1/2+z
1/2-y,x,3/4+z
1/2-x,1/2-y,1/2+z
1/2+y,-x,3/4+z
1/2-x,1/2+y,1/2+z
1/2+x,1/2-y,1/2+z
1/2-y,-x,3/4+z
1/2+y,x,3/4+z
loop_
_atom_site_type_symbol
_atom_site_label
_atom_site_fract_x
_atom_site_fract_y
_atom_site_fract_z
Si Si1 0.394310 0.254915 0.970950
Si Si2 0.713965 0.400109 0.026583
Si Si3 0.104777 0.213746 0.277823
Si Si4 0.752446 0.676375 0.131671
Si Si5 0.606489 0.695735 0.577937
Si Si6 0.326050 0.397579 0.230157
Si Si7 0.611898 0.160116 0.128117
O O1 0.500000 0.218400 0.973628
O O2 0.384997 0.320925 0.921479
O O3 0.365224 0.324445 0.015827
O O4 0.318065 0.174082 0.982834
O O5 0.671184 0.500000 0.017236
O O6 0.752031 0.389958 0.083013
O O7 0.803146 0.385836 0.989379
O O8 0.126424 0.314209 0.304707
O O9 0.117465 0.139184 0.323654
O O10 0.000000 0.213682 0.258666
O O11 0.839038 0.748092 0.122345
O O12 0.744756 0.622501 0.184035
O O13 0.655528 0.735441 0.127553
O O14 0.500000 0.662199 0.590163
O O15 0.596581 0.768510 0.531924
O O16 0.372345 0.500000 0.222011
O O17 0.500000 0.154324 0.137201
#
# Coordination Sequence:
#
# PCOD9554131 Si02
#       7
#    16  16  16  16  16  16  16
#     4  12  24  40  60  89 123 159 207 261 313 373
#     4  11  22  37  58  89 128 164 202 257 317 372
#     4  11  23  42  66  92 124 163 209 260 317 377
#     4  10  19  36  59  90 123 164 207 258 306 366
#     4   9  19  38  62  89 123 162 203 254 312 366
#     4  10  19  36  61  85 120 167 211 252 302 365
#     4  11  22  40  64  88 121 167 211 254 310 378
#
# _framework density 20.837669000000002
#
# number of rings (size 3 to 8) (size 9 to 14) (size 15 to 20)
#    0.000    1.429    5.714    1.714    0.000    3.429 
#    0.000    6.429    0.000    8.143    0.000    0.000 
#    0.000    0.000    0.000    0.000    0.000    0.000 
#
# Total GULP energy -311851.545959 kJ/mol
# GULP energy per Si atom -5568.777606 kJ/mol
# Density = 2.079024 g / cm^3
# Si number density = 20.837669 Si / 1000 Ang^3
#
#
#
# Elastic Constant Matrix: (Units=GPa)
#
#
# Indices 1 2 3 4 5 6 
#
# 1 107.9150 8.6205 13.1010 0.0000 0.0000 0.0000
# 2 8.6205 107.9150 13.1010 0.0000 0.0000 0.0000
# 3 13.1010 13.1010 105.4331 0.0000 0.0000 0.0000
# 4 0.0000 0.0000 0.0000 11.6781 0.0000 0.0000
# 5 0.0000 0.0000 0.0000 0.0000 11.6781 0.0000
# 6 0.0000 0.0000 0.0000 0.0000 0.0000 -15.6942
#
#
#
# Elastic Compliance Matrix: (Units=1/GPa)
#
#
# Indices 1 2 3 4 5 6 
#
# 1 0.009449 -0.000622 -0.001097 0.000000 0.000000 0.000000
# 2 -0.000622 0.009449 -0.001097 0.000000 0.000000 0.000000
# 3 -0.001097 -0.001097 0.009757 0.000000 0.000000 0.000000
# 4 0.000000 0.000000 0.000000 0.085631 0.000000 0.000000
# 5 0.000000 0.000000 0.000000 0.000000 0.085631 0.000000
# 6 0.000000 0.000000 0.000000 0.000000 0.000000 -0.063718
#
#
# Mechanical properties :
#
#
# Convention : Reuss Voigt Hill
#
# Bulk Modulus (GPa) = 43.43102 43.43425 43.43264
# Shear Modulus (GPa) = 33.44363 20.62843 27.03603
#
# Velocity S-wave (km/s) = 4.01054 3.14977 3.60593
# Velocity P-wave (km/s) = 6.50644 5.84102 6.18268
#
# Compressibility (1/GPa) = 0.02302502
#
# Stress axis : x y z
#
# Youngs Moduli (GPa) = 105.82704 105.82704 102.48748
#
# Poissons Ratio (x) = 0.06579 0.11242
# Poissons Ratio (y) = 0.06579 0.11242
# Poissons Ratio (z) = 0.11608 0.11608
#
# Static dielectric constant tensor:
#      x y z
#    x 1.782150 0.000000 0.000000 
#    y 0.000000 1.782150 0.000000 
#    z 0.000000 0.000000 1.785830 
# 
# From -- ./inp_files/5063.got.cif
#   From: 2010.05.17/outbox.cif.g08.bks.cpg/sg109_3_cif.got.tgz:5063.got - 2010.05.20 10:51:12.
