data_PCOD9554491
_publ_section_title
;
Structure prediction by ZEFSAII (Michael W. Deem and Ramdas Pophale) SiO2 
 PCOD9554491
Probable space group: I 41 C D
;
_chemical_formula_sum "Si O2"
_cell_formula_units_Z 80
_cell_length_a 13.592174
_cell_length_b 13.592174
_cell_length_c 15.118169
_cell_angle_alpha 90.000000
_cell_angle_beta 90.000000
_cell_angle_gamma 90.000000
_cell_volume 2793.039302
_symmetry_space_group_name_H-M "I 41 C D"
_symmetry_group_IT_number 110
_symmetry_cell_setting 'tetragonal'
loop_
_space_group_symop_operation_xyz
x,y,z
-y,1/2+x,1/4+z
-x,-y,z
y,1/2-x,1/4+z
-x,y,1/2+z
x,-y,1/2+z
1/2-y,-x,1/4+z
1/2+y,x,1/4+z
1/2+x,1/2+y,1/2+z
1/2-y,x,3/4+z
1/2-x,1/2-y,1/2+z
1/2+y,-x,3/4+z
1/2-x,1/2+y,z
1/2+x,1/2-y,z
-y,1/2-x,3/4+z
y,1/2+x,3/4+z
loop_
_atom_site_type_symbol
_atom_site_label
_atom_site_fract_x
_atom_site_fract_y
_atom_site_fract_z
Si Si1 0.528377 0.287054 0.503140
Si Si2 0.625470 0.166992 0.067704
Si Si3 0.500000 0.500000 0.982506
Si Si4 0.364549 0.593873 0.128374
Si Si5 0.297611 0.735192 0.645074
Si Si6 0.000000 0.500000 0.509497
O O1 0.432205 0.273136 0.568518
O O2 0.538188 0.391312 0.456413
O O3 0.510284 0.197738 0.436471
O O4 0.621645 0.271049 0.568036
O O5 0.701284 0.154762 0.986413
O O6 0.544363 0.083635 0.072389
O O7 0.700944 0.164731 0.146956
O O8 0.406633 0.537382 0.043032
O O9 0.267119 0.665820 0.129542
O O10 0.457868 0.588141 0.198245
#
# Coordination Sequence:
#
# PCOD9554491 Si02
#       6
#    16  16   8  16  16   8
#     4  11  23  45  69 101 144 184 238 293 361 421
#     4  11  25  47  72 106 145 190 238 298 361 432
#     4  11  22  46  75  96 153 184 233 306 361 424
#     4  10  21  43  71 102 137 188 233 290 356 421
#     4  12  23  46  73 105 142 192 240 295 356 433
#     4   9  22  48  69 100 147 184 231 308 357 420
#
# _framework density 28.642631999999999
#
# number of rings (size 3 to 8) (size 9 to 14) (size 15 to 20)
#    0.000    1.200    4.000    3.600    0.000    0.000 
#   28.800    0.000    0.000    0.000    0.000    0.000 
#    0.000    0.000    0.000    0.000    0.000    0.000 
#
# Total GULP energy -222830.272665 kJ/mol
# GULP energy per Si atom -5570.756817 kJ/mol
# Density = 2.857744 g / cm^3
# Si number density = 28.642632 Si / 1000 Ang^3
#
#
#
# Elastic Constant Matrix: (Units=GPa)
#
#
# Indices 1 2 3 4 5 6 
#
# 1 122.4449 1.4406 -5.1953 0.0000 0.0000 0.0000
# 2 1.4406 122.4449 -5.1953 0.0000 0.0000 0.0000
# 3 -5.1953 -5.1953 11.6311 0.0000 0.0000 0.0000
# 4 0.0000 0.0000 0.0000 22.4301 0.0000 0.0000
# 5 0.0000 0.0000 0.0000 0.0000 22.4301 0.0000
# 6 0.0000 0.0000 0.0000 0.0000 0.0000 31.6525
#
#
#
# Elastic Compliance Matrix: (Units=1/GPa)
#
#
# Indices 1 2 3 4 5 6 
#
# 1 0.008325 0.000061 0.003746 0.000000 0.000000 0.000000
# 2 0.000061 0.008325 0.003746 0.000000 0.000000 0.000000
# 3 0.003746 0.003746 0.089322 0.000000 0.000000 0.000000
# 4 0.000000 0.000000 0.000000 0.044583 0.000000 0.000000
# 5 0.000000 0.000000 0.000000 0.000000 0.044583 0.000000
# 6 0.000000 0.000000 0.000000 0.000000 0.000000 0.031593
#
#
# Mechanical properties :
#
#
# Convention : Reuss Voigt Hill
#
# Bulk Modulus (GPa) = 8.25913 26.51343 17.38628
# Shear Modulus (GPa) = 19.84239 33.00060 26.42150
#
# Velocity S-wave (km/s) = 2.63488 3.39802 3.04049
# Velocity P-wave (km/s) = 3.48520 4.96710 4.29061
#
# Compressibility (1/GPa) = 0.12107813
#
# Stress axis : x y z
#
# Youngs Moduli (GPa) = 120.11786 120.11787 11.19540
#
# Poissons Ratio (x) = -0.00733 -0.04194
# Poissons Ratio (y) = -0.00733 -0.04194
# Poissons Ratio (z) = -0.44994 -0.44994
#
# Static dielectric constant tensor:
#      x y z
#    x 2.441000 0.000000 0.000000 
#    y 0.000000 2.441000 0.000000 
#    z 0.000000 0.000000 2.618690 
# 
# From -- ./inp_files/2106.got.cif
#   From: 2010.05.17/outbox.cif.g08.bks.cpg/sg110_2_cif.got.tgz:2106.got - 2010.05.20 10:54:03.
