data_PCOD9554638
_publ_section_title
;
Structure prediction by ZEFSAII (Michael W. Deem and Ramdas Pophale) SiO2 
 PCOD9554638
Probable space group: I 41 C D
;
_chemical_formula_sum "Si O2"
_cell_formula_units_Z 64
_cell_length_a 9.749513
_cell_length_b 9.749513
_cell_length_c 26.825448
_cell_angle_alpha 90.000000
_cell_angle_beta 90.000000
_cell_angle_gamma 90.000000
_cell_volume 2549.839409
_symmetry_space_group_name_H-M "I 41 C D"
_symmetry_group_IT_number 110
_symmetry_cell_setting 'tetragonal'
loop_
_space_group_symop_operation_xyz
x,y,z
-y,1/2+x,1/4+z
-x,-y,z
y,1/2-x,1/4+z
-x,y,1/2+z
x,-y,1/2+z
1/2-y,-x,1/4+z
1/2+y,x,1/4+z
1/2+x,1/2+y,1/2+z
1/2-y,x,3/4+z
1/2-x,1/2-y,1/2+z
1/2+y,-x,3/4+z
1/2-x,1/2+y,z
1/2+x,1/2-y,z
-y,1/2-x,3/4+z
y,1/2+x,3/4+z
loop_
_atom_site_type_symbol
_atom_site_label
_atom_site_fract_x
_atom_site_fract_y
_atom_site_fract_z
Si Si1 0.887234 0.247176 0.021550
Si Si2 0.000000 0.500000 0.839029
Si Si3 0.000000 0.000000 0.431786
Si Si4 0.251052 0.637597 0.704641
Si Si5 0.848896 0.767368 0.370016
O O1 0.820033 0.342811 0.063468
O O2 0.762066 0.198808 0.988010
O O3 0.946704 0.122567 0.053991
O O4 0.000610 0.306040 0.982802
O O5 0.074777 0.620567 0.870639
O O6 0.886641 0.086990 0.460785
O O7 0.066345 0.117945 0.398870
O O8 0.264386 0.701187 0.648498
#
# Coordination Sequence:
#
# PCOD9554638 Si02
#       5
#    16   8   8  16  16
#     4  12  27  50  80 123 170 229 282 359 433 533
#     4  12  27  54  79 124 176 226 301 356 443 536
#     4  12  27  52  77 124 172 214 291 350 429 518
#     4  12  27  52  80 120 171 227 287 349 443 517
#     4  12  28  51  86 123 171 235 285 368 434 534
#
# _framework density 25.099619000000001
#
# number of rings (size 3 to 8) (size 9 to 14) (size 15 to 20)
#    0.000    0.000    5.000    3.750    3.500    0.000 
#    0.000    0.000    0.000    0.000    0.000    0.000 
#    0.000    0.000    0.000    0.000    0.000    0.000 
#
# Total GULP energy -178720.573420 kJ/mol
# GULP energy per Si atom -5585.017919 kJ/mol
# Density = 2.504249 g / cm^3
# Si number density = 25.099619 Si / 1000 Ang^3
#
#
#
# Elastic Constant Matrix: (Units=GPa)
#
#
# Indices 1 2 3 4 5 6 
#
# 1 102.6820 28.1501 40.1542 0.0000 0.0000 0.0000
# 2 28.1501 102.6820 40.1542 0.0000 0.0000 0.0000
# 3 40.1542 40.1542 149.3918 0.0000 0.0000 0.0000
# 4 0.0000 0.0000 0.0000 26.9246 0.0000 0.0000
# 5 0.0000 0.0000 0.0000 0.0000 26.9246 0.0000
# 6 0.0000 0.0000 0.0000 0.0000 0.0000 54.0315
#
#
#
# Elastic Compliance Matrix: (Units=1/GPa)
#
#
# Indices 1 2 3 4 5 6 
#
# 1 0.011285 -0.002132 -0.002460 0.000000 0.000000 0.000000
# 2 -0.002132 0.011285 -0.002460 0.000000 0.000000 0.000000
# 3 -0.002460 -0.002460 0.008016 0.000000 0.000000 0.000000
# 4 0.000000 0.000000 0.000000 0.037141 0.000000 0.000000
# 5 0.000000 0.000000 0.000000 0.000000 0.037141 0.000000
# 6 0.000000 0.000000 0.000000 0.000000 0.000000 0.018508
#
#
# Mechanical properties :
#
#
# Convention : Reuss Voigt Hill
#
# Bulk Modulus (GPa) = 60.67135 63.51922 62.09528
# Shear Modulus (GPa) = 34.97109 37.99597 36.48353
#
# Velocity S-wave (km/s) = 3.73673 3.89499 3.81668
# Velocity P-wave (km/s) = 6.54540 6.75201 6.64951
#
# Compressibility (1/GPa) = 0.01648224
#
# Stress axis : x y z
#
# Youngs Moduli (GPa) = 88.61052 88.61052 124.74407
#
# Poissons Ratio (x) = 0.18889 0.30691
# Poissons Ratio (y) = 0.18889 0.30691
# Poissons Ratio (z) = 0.21801 0.21801
#
# Static dielectric constant tensor:
#      x y z
#    x 2.143410 0.000000 0.000000 
#    y 0.000000 2.143410 0.000000 
#    z 0.000000 0.000000 2.089060 
# 
# From -- ./inp_files/2845.got.cif
#   From: 2010.05.17/outbox.cif.g08.bks.cpg/sg110_2_cif.got.tgz:2845.got - 2010.05.20 10:54:03.
