data_PCOD9554672
_publ_section_title
;
Structure prediction by ZEFSAII (Michael W. Deem and Ramdas Pophale) SiO2 
 PCOD9554672
Probable space group: P -4 2 M 
;
_chemical_formula_sum "Si O2"
_cell_formula_units_Z 56
_cell_length_a 11.506601
_cell_length_b 11.506601
_cell_length_c 21.617547
_cell_angle_alpha 90.000000
_cell_angle_beta 90.000000
_cell_angle_gamma 90.000000
_cell_volume 2862.203574
_symmetry_space_group_name_H-M "P -4 2 M "
_symmetry_group_IT_number 111
_symmetry_cell_setting 'tetragonal'
loop_
_space_group_symop_operation_xyz
x,y,z
y,-x,-z
-x,-y,z
-y,x,-z
x,-y,-z
-x,y,-z
-y,-x,z
y,x,z
loop_
_atom_site_type_symbol
_atom_site_label
_atom_site_fract_x
_atom_site_fract_y
_atom_site_fract_z
Si Si1 0.991823 0.192755 0.298717
Si Si2 0.862580 0.482019 0.903075
Si Si3 0.755747 0.435339 0.560829
Si Si4 0.244304 0.052994 0.432329
Si Si5 0.489155 0.689443 0.312859
Si Si6 0.358505 0.841135 0.771373
Si Si7 0.862697 0.318361 0.013508
O O1 0.876314 0.123686 0.278075
O O2 0.976658 0.233993 0.370171
O O3 0.042979 0.295140 0.255122
O O4 0.095764 0.095764 0.300386
O O5 0.847340 0.423751 0.836798
O O6 0.823864 0.609956 0.925270
O O7 0.000000 0.500000 0.911331
O O8 0.817902 0.393061 0.955026
O O9 0.795196 0.500000 0.500000
O O10 0.640847 0.359154 0.546676
O O11 0.853093 0.344299 0.581818
O O12 0.726940 0.521919 0.616184
O O13 0.124085 0.124085 0.438710
O O14 0.267550 0.000000 0.500000
O O15 0.372656 0.627345 0.289533
O O16 0.590193 0.590193 0.311995
O O17 0.542916 0.795233 0.275296
O O18 0.257284 0.742717 0.774740
O O19 0.806447 0.193554 0.014865
O O20 0.000000 0.310087 0.000000
#
# Coordination Sequence:
#
# PCOD9554672 Si02
#       7
#     8   8   8   8   8   8   8
#     4   9  17  31  52  77 107 144 187 242 306 365
#     4   9  19  35  55  80 114 157 191 223 282 348
#     4  10  19  32  49  70  96 129 175 230 290 360
#     4  10  19  32  50  73 100 133 180 238 299 365
#     4   9  17  30  49  73 100 132 175 230 290 350
#     4  10  18  32  54  79 109 147 192 242 295 356
#     4   9  18  35  59  87 118 153 194 235 280 337
#
# _framework density 19.565345000000001
#
# number of rings (size 3 to 8) (size 9 to 14) (size 15 to 20)
#    0.000    2.571    1.429    2.143    0.000    2.429 
#    0.000    4.286    0.000   12.000    0.000    0.000 
#    0.000    0.000    0.000    0.000    0.000    0.000 
#
# Total GULP energy -311788.359404 kJ/mol
# GULP energy per Si atom -5567.649275 kJ/mol
# Density = 1.952081 g / cm^3
# Si number density = 19.565345 Si / 1000 Ang^3
#
#
#
# Elastic Constant Matrix: (Units=GPa)
#
#
# Indices 1 2 3 4 5 6 
#
# 1 57.6497 40.2029 37.2839 0.0000 0.0000 0.0000
# 2 40.2029 57.6514 37.2839 0.0000 0.0000 0.0000
# 3 37.2839 37.2839 110.4206 0.0000 0.0000 0.0000
# 4 0.0000 0.0000 0.0000 22.8341 0.0000 0.0000
# 5 0.0000 0.0000 0.0000 0.0000 22.8347 0.0000
# 6 0.0000 0.0000 0.0000 0.0000 0.0000 14.1391
#
#
#
# Elastic Compliance Matrix: (Units=1/GPa)
#
#
# Indices 1 2 3 4 5 6 
#
# 1 0.035538 -0.021777 -0.004646 0.000000 0.000000 0.000000
# 2 -0.021777 0.035536 -0.004646 0.000000 0.000000 0.000000
# 3 -0.004646 -0.004646 0.012194 0.000000 0.000000 0.000000
# 4 0.000000 0.000000 0.000000 0.043794 0.000000 0.000000
# 5 0.000000 0.000000 0.000000 0.000000 0.043793 0.000000
# 6 0.000000 0.000000 0.000000 0.000000 0.000000 0.070726
#
#
# Mechanical properties :
#
#
# Convention : Reuss Voigt Hill
#
# Bulk Modulus (GPa) = 47.32778 50.58477 48.95627
# Shear Modulus (GPa) = 16.08944 19.35831 17.72387
#
# Velocity S-wave (km/s) = 2.87076 3.14891 3.01305
# Velocity P-wave (km/s) = 5.93553 6.25550 6.09761
#
# Compressibility (1/GPa) = 0.02112924
#
# Stress axis : x y z
#
# Youngs Moduli (GPa) = 28.13911 28.14018 82.00896
#
# Poissons Ratio (x) = 0.61282 0.38104
# Poissons Ratio (y) = 0.61279 0.38100
# Poissons Ratio (z) = 0.13074 0.13073
#
# Static dielectric constant tensor:
#      x y z
#    x 1.705160 0.000000 0.000000 
#    y 0.000000 1.705160 0.000000 
#    z 0.000000 0.000000 1.719170 
# 
# From -- ./inp_files/3988.got.cif
#   From: 2010.05.17/outbox.cif.g08.bks.cpg/sg111_2_cif.got.tgz:3988.got - 2010.05.20 10:56:05.
