data_PCOD9554577
_publ_section_title
;
Structure prediction by ZEFSAII (Michael W. Deem and Ramdas Pophale) SiO2 
 PCOD9554577
Probable space group: I 41 C D
;
_chemical_formula_sum "Si O2"
_cell_formula_units_Z 56
_cell_length_a 16.009439
_cell_length_b 16.009439
_cell_length_c 8.262603
_cell_angle_alpha 90.000000
_cell_angle_beta 90.000000
_cell_angle_gamma 90.000000
_cell_volume 2117.722807
_symmetry_space_group_name_H-M "I 41 C D"
_symmetry_group_IT_number 110
_symmetry_cell_setting 'tetragonal'
loop_
_space_group_symop_operation_xyz
x,y,z
-y,1/2+x,1/4+z
-x,-y,z
y,1/2-x,1/4+z
-x,y,1/2+z
x,-y,1/2+z
1/2-y,-x,1/4+z
1/2+y,x,1/4+z
1/2+x,1/2+y,1/2+z
1/2-y,x,3/4+z
1/2-x,1/2-y,1/2+z
1/2+y,-x,3/4+z
1/2-x,1/2+y,z
1/2+x,1/2-y,z
-y,1/2-x,3/4+z
y,1/2+x,3/4+z
loop_
_atom_site_type_symbol
_atom_site_label
_atom_site_fract_x
_atom_site_fract_y
_atom_site_fract_z
Si Si1 0.654264 0.085128 0.486590
Si Si2 0.673372 0.529111 0.515572
Si Si3 0.805342 0.158920 0.052269
Si Si4 0.500000 0.000000 0.580217
O O1 0.742593 0.054718 0.423682
O O2 0.606625 0.154447 0.383217
O O3 0.666964 0.120952 0.667415
O O4 0.586176 0.011434 0.484960
O O5 0.694108 0.439341 0.593430
O O6 0.587042 0.513135 0.422131
O O7 0.720762 0.181617 0.952800
#
# Coordination Sequence:
#
# PCOD9554577 Si02
#       4
#    16  16  16   8
#     4  11  24  47  72 115 161 216 279 346 431 515
#     4  11  26  46  79 111 166 220 278 355 434 523
#     4  11  26  51  77 122 163 216 287 351 435 520
#     4  10  26  42  74 112 162 214 280 348 442 512
#
# _framework density 26.443497000000001
#
# number of rings (size 3 to 8) (size 9 to 14) (size 15 to 20)
#    0.000    1.143    2.857    0.857   12.000    2.286 
#    5.143    0.000    0.000    0.000    0.000    0.000 
#    0.000    0.000    0.000    0.000    0.000    0.000 
#
# Total GULP energy -156856.741275 kJ/mol
# GULP energy per Si atom -5602.026474 kJ/mol
# Density = 2.638331 g / cm^3
# Si number density = 26.443497 Si / 1000 Ang^3
#
#
#
# Elastic Constant Matrix: (Units=GPa)
#
#
# Indices 1 2 3 4 5 6 
#
# 1 216.6896 96.5559 64.6963 0.0000 0.0000 0.0000
# 2 96.5559 216.6896 64.6963 0.0000 0.0000 0.0000
# 3 64.6963 64.6963 79.2607 0.0000 0.0000 0.0000
# 4 0.0000 0.0000 0.0000 23.2837 0.0000 0.0000
# 5 0.0000 0.0000 0.0000 0.0000 23.2837 0.0000
# 6 0.0000 0.0000 0.0000 0.0000 0.0000 27.4816
#
#
#
# Elastic Compliance Matrix: (Units=1/GPa)
#
#
# Indices 1 2 3 4 5 6 
#
# 1 0.006570 -0.001754 -0.003931 0.000000 0.000000 0.000000
# 2 -0.001754 0.006570 -0.003931 0.000000 0.000000 0.000000
# 3 -0.003931 -0.003931 0.019034 0.000000 0.000000 0.000000
# 4 0.000000 0.000000 0.000000 0.042948 0.000000 0.000000
# 5 0.000000 0.000000 0.000000 0.000000 0.042948 0.000000
# 6 0.000000 0.000000 0.000000 0.000000 0.000000 0.036388
#
#
# Mechanical properties :
#
#
# Convention : Reuss Voigt Hill
#
# Bulk Modulus (GPa) = 77.26881 107.17076 92.21979
# Shear Modulus (GPa) = 28.08887 33.92256 31.00572
#
# Velocity S-wave (km/s) = 3.26271 3.58555 3.42793
# Velocity P-wave (km/s) = 6.59375 7.59985 7.11461
#
# Compressibility (1/GPa) = 0.01294183
#
# Stress axis : x y z
#
# Youngs Moduli (GPa) = 152.20310 152.20310 52.53660
#
# Poissons Ratio (x) = 0.26695 0.20654
# Poissons Ratio (y) = 0.26695 0.20654
# Poissons Ratio (z) = 0.59835 0.59835
#
# Static dielectric constant tensor:
#      x y z
#    x 2.056070 0.000000 0.000000 
#    y 0.000000 2.056070 0.000000 
#    z 0.000000 0.000000 2.152730 
# 
# From -- ./inp_files/273.got.cif
#   From: 2010.05.17/outbox.cif.g08.bks.cpg/sg110_1_cif.got.tgz:273.got - 2010.05.20 10:54:03.
