data_PCOD9554430
_publ_section_title
;
Structure prediction by ZEFSAII (Michael W. Deem and Ramdas Pophale) SiO2 
 PCOD9554430
Probable space group: I 41 C D
;
_chemical_formula_sum "Si O2"
_cell_formula_units_Z 96
_cell_length_a 14.393561
_cell_length_b 14.393561
_cell_length_c 19.671055
_cell_angle_alpha 90.000000
_cell_angle_beta 90.000000
_cell_angle_gamma 90.000000
_cell_volume 4075.342917
_symmetry_space_group_name_H-M "I 41 C D"
_symmetry_group_IT_number 110
_symmetry_cell_setting 'tetragonal'
loop_
_space_group_symop_operation_xyz
x,y,z
-y,1/2+x,1/4+z
-x,-y,z
y,1/2-x,1/4+z
-x,y,1/2+z
x,-y,1/2+z
1/2-y,-x,1/4+z
1/2+y,x,1/4+z
1/2+x,1/2+y,1/2+z
1/2-y,x,3/4+z
1/2-x,1/2-y,1/2+z
1/2+y,-x,3/4+z
1/2-x,1/2+y,z
1/2+x,1/2-y,z
-y,1/2-x,3/4+z
y,1/2+x,3/4+z
loop_
_atom_site_type_symbol
_atom_site_label
_atom_site_fract_x
_atom_site_fract_y
_atom_site_fract_z
Si Si1 0.311805 0.467030 0.789290
Si Si2 0.162474 0.379152 0.271811
Si Si3 0.326494 0.061693 0.620428
Si Si4 0.779525 0.207216 0.030534
Si Si5 0.627255 0.877473 0.173528
Si Si6 0.000000 0.500000 0.526871
Si Si7 0.000000 0.500000 0.273750
O O1 0.255660 0.561466 0.784856
O O2 0.237092 0.386208 0.780637
O O3 0.351037 0.441294 0.862981
O O4 0.404203 0.466533 0.742201
O O5 0.146213 0.385452 0.190197
O O6 0.198100 0.277548 0.290886
O O7 0.075492 0.430345 0.307030
O O8 0.253499 0.125503 0.580275
O O9 0.301599 0.957000 0.645912
O O10 0.412618 0.039332 0.570451
O O11 0.781183 0.167450 0.953483
O O12 0.563000 0.931853 0.227732
#
# Coordination Sequence:
#
# PCOD9554430 Si02
#       7
#    16  16  16  16  16   8   8
#     4  11  21  41  65  95 131 169 224 282 334 406
#     4  11  22  40  67  99 131 170 229 281 335 410
#     4  10  20  40  68  94 133 179 224 277 343 409
#     4  12  23  38  71 100 132 180 233 283 337 413
#     4  10  22  41  66  97 130 184 227 273 348 413
#     4  10  21  42  70  89 130 185 220 268 349 414
#     4  10  21  42  68  87 136 179 208 268 347 404
#
# _framework density 23.5563
#
# number of rings (size 3 to 8) (size 9 to 14) (size 15 to 20)
#    0.000    1.333    5.000    5.500    0.000    2.667 
#    0.000    0.000    0.000    2.000    0.000    0.000 
#    0.000    0.000    0.000    0.000    0.000    0.000 
#
# Total GULP energy -267360.302543 kJ/mol
# GULP energy per Si atom -5570.006303 kJ/mol
# Density = 2.350268 g / cm^3
# Si number density = 23.556300 Si / 1000 Ang^3
#
#
#
# Elastic Constant Matrix: (Units=GPa)
#
#
# Indices 1 2 3 4 5 6 
#
# 1 99.6638 33.4745 14.6295 0.0000 0.0000 0.0000
# 2 33.4745 99.6638 14.6295 0.0000 0.0000 0.0000
# 3 14.6295 14.6295 26.7329 0.0000 0.0000 0.0000
# 4 0.0000 0.0000 0.0000 11.0420 0.0000 0.0000
# 5 0.0000 0.0000 0.0000 0.0000 11.0420 0.0000
# 6 0.0000 0.0000 0.0000 0.0000 0.0000 43.7963
#
#
#
# Elastic Compliance Matrix: (Units=1/GPa)
#
#
# Indices 1 2 3 4 5 6 
#
# 1 0.011823 -0.003285 -0.004672 0.000000 0.000000 0.000000
# 2 -0.003285 0.011823 -0.004672 0.000000 0.000000 0.000000
# 3 -0.004672 -0.004672 0.042521 0.000000 0.000000 0.000000
# 4 0.000000 0.000000 0.000000 0.090564 0.000000 0.000000
# 5 0.000000 0.000000 0.000000 0.000000 0.090564 0.000000
# 6 0.000000 0.000000 0.000000 0.000000 0.000000 0.022833
#
#
# Mechanical properties :
#
#
# Convention : Reuss Voigt Hill
#
# Bulk Modulus (GPa) = 24.44547 39.05860 31.75204
# Shear Modulus (GPa) = 16.18005 24.06452 20.12229
#
# Velocity S-wave (km/s) = 2.62366 3.19968 2.92588
# Velocity P-wave (km/s) = 4.42472 5.50159 4.99228
#
# Compressibility (1/GPa) = 0.04090738
#
# Stress axis : x y z
#
# Youngs Moduli (GPa) = 84.58109 84.58109 23.51784
#
# Poissons Ratio (x) = 0.27787 0.10988
# Poissons Ratio (y) = 0.27787 0.10988
# Poissons Ratio (z) = 0.39519 0.39519
#
# Static dielectric constant tensor:
#      x y z
#    x 2.005460 0.000000 0.000000 
#    y 0.000000 2.005460 0.000000 
#    z 0.000000 0.000000 2.010840 
# 
# From -- ./inp_files/2229.got.cif
#   From: 2010.05.17/outbox.cif.g08.bks.cpg/sg110_2_cif.got.tgz:2229.got - 2010.05.20 10:54:03.
