data_PCOD9554379
_publ_section_title
;
Structure prediction by ZEFSAII (Michael W. Deem and Ramdas Pophale) SiO2 
 PCOD9554379
Probable space group: I 41 C D
;
_chemical_formula_sum "Si O2"
_cell_formula_units_Z 128
_cell_length_a 23.935849
_cell_length_b 23.935849
_cell_length_c 11.662811
_cell_angle_alpha 90.000000
_cell_angle_beta 90.000000
_cell_angle_gamma 90.000000
_cell_volume 6681.914445
_symmetry_space_group_name_H-M "I 41 C D"
_symmetry_group_IT_number 110
_symmetry_cell_setting 'tetragonal'
loop_
_space_group_symop_operation_xyz
x,y,z
-y,1/2+x,1/4+z
-x,-y,z
y,1/2-x,1/4+z
-x,y,1/2+z
x,-y,1/2+z
1/2-y,-x,1/4+z
1/2+y,x,1/4+z
1/2+x,1/2+y,1/2+z
1/2-y,x,3/4+z
1/2-x,1/2-y,1/2+z
1/2+y,-x,3/4+z
1/2-x,1/2+y,z
1/2+x,1/2-y,z
-y,1/2-x,3/4+z
y,1/2+x,3/4+z
loop_
_atom_site_type_symbol
_atom_site_label
_atom_site_fract_x
_atom_site_fract_y
_atom_site_fract_z
Si Si1 0.808584 0.414098 0.593710
Si Si2 0.107581 0.574563 0.389062
Si Si3 0.048195 0.284610 0.389872
Si Si4 0.543533 0.578713 0.702303
Si Si5 0.312684 0.566297 0.549306
Si Si6 0.136652 0.016642 0.339276
Si Si7 0.835783 0.539585 0.654231
Si Si8 0.094712 0.376320 0.243081
O O1 0.838460 0.419485 0.470380
O O2 0.743260 0.399122 0.578175
O O3 0.817661 0.474396 0.655005
O O4 0.848790 0.375651 0.670323
O O5 0.070967 0.522931 0.437237
O O6 0.077841 0.634819 0.382687
O O7 0.127269 0.555451 0.263079
O O8 0.019349 0.312268 0.500365
O O9 0.070677 0.223313 0.409875
O O10 0.092342 0.325675 0.333029
O O11 0.996158 0.286849 0.302108
O O12 0.581001 0.534028 0.770499
O O13 0.549132 0.632977 0.784243
O O14 0.570288 0.586947 0.576682
O O15 0.344117 0.565454 0.427639
O O16 0.126420 0.958865 0.407447
#
# Coordination Sequence:
#
# PCOD9554379 Si02
#       8
#    16  16  16  16  16  16  16  16
#     4  10  21  36  57  84 116 152 201 251 293 361
#     4  11  20  36  60  85 114 157 198 247 308 355
#     4   9  20  35  58  86 114 158 201 248 294 354
#     4  10  21  37  59  87 123 160 194 241 311 373
#     4  10  20  36  56  85 113 154 201 244 297 353
#     4  10  19  37  59  85 126 154 197 245 305 379
#     4  10  19  37  59  84 115 155 206 243 293 364
#     4  10  20  38  56  88 123 158 198 245 311 361
#
# _framework density 19.156186999999999
#
# number of rings (size 3 to 8) (size 9 to 14) (size 15 to 20)
#    0.000    2.000    2.500    1.500    0.000    1.000 
#    2.250   21.875    0.000    1.500    0.000    0.000 
#    0.000    0.000    0.000    0.000    0.000    0.000 
#
# Total GULP energy -356332.370465 kJ/mol
# GULP energy per Si atom -5567.693289 kJ/mol
# Density = 1.911259 g / cm^3
# Si number density = 19.156187 Si / 1000 Ang^3
#
#
#
# Elastic Constant Matrix: (Units=GPa)
#
#
# Indices 1 2 3 4 5 6 
#
# 1 67.3056 47.3296 32.9302 0.0000 0.0000 0.0000
# 2 47.3296 67.3056 32.9302 0.0000 0.0000 0.0000
# 3 32.9302 32.9302 98.7616 0.0000 0.0000 0.0000
# 4 0.0000 0.0000 0.0000 12.9340 0.0000 0.0000
# 5 0.0000 0.0000 0.0000 0.0000 12.9340 0.0000
# 6 0.0000 0.0000 0.0000 0.0000 0.0000 11.8619
#
#
#
# Elastic Compliance Matrix: (Units=1/GPa)
#
#
# Indices 1 2 3 4 5 6 
#
# 1 0.030425 -0.019635 -0.003598 0.000000 0.000000 0.000000
# 2 -0.019635 0.030425 -0.003598 0.000000 0.000000 0.000000
# 3 -0.003598 -0.003598 0.012525 0.000000 0.000000 0.000000
# 4 0.000000 0.000000 0.000000 0.077316 0.000000 0.000000
# 5 0.000000 0.000000 0.000000 0.000000 0.077316 0.000000
# 6 0.000000 0.000000 0.000000 0.000000 0.000000 0.084303
#
#
# Mechanical properties :
#
#
# Convention : Reuss Voigt Hill
#
# Bulk Modulus (GPa) = 50.72534 51.08365 50.90449
# Shear Modulus (GPa) = 13.42129 15.55815 14.48972
#
# Velocity S-wave (km/s) = 2.64980 2.85296 2.75325
# Velocity P-wave (km/s) = 5.99160 6.13003 6.06121
#
# Compressibility (1/GPa) = 0.01971401
#
# Stress axis : x y z
#
# Youngs Moduli (GPa) = 32.86750 32.86750 79.84240
#
# Poissons Ratio (x) = 0.64535 0.28726
# Poissons Ratio (y) = 0.64535 0.28726
# Poissons Ratio (z) = 0.11825 0.11825
#
# Static dielectric constant tensor:
#      x y z
#    x 1.722460 0.000000 0.000000 
#    y 0.000000 1.722460 0.000000 
#    z 0.000000 0.000000 1.718410 
# 
# From -- ./inp_files/1009.got.cif
#   From: 2010.05.17/outbox.cif.g08.bks.cpg/sg110_1_cif.got.tgz:1009.got - 2010.05.20 10:54:03.
