data_PCOD9554819
_publ_section_title
;
Structure prediction by ZEFSAII (Michael W. Deem and Ramdas Pophale) SiO2 
 PCOD9554819
Probable space group: P -4 2 M 
;
_chemical_formula_sum "Si O2"
_cell_formula_units_Z 40
_cell_length_a 18.406254
_cell_length_b 18.406254
_cell_length_c 5.797997
_cell_angle_alpha 90.000000
_cell_angle_beta 90.000000
_cell_angle_gamma 90.000000
_cell_volume 1964.304484
_symmetry_space_group_name_H-M "P -4 2 M "
_symmetry_group_IT_number 111
_symmetry_cell_setting 'tetragonal'
loop_
_space_group_symop_operation_xyz
x,y,z
y,-x,-z
-x,-y,z
-y,x,-z
x,-y,-z
-x,y,-z
-y,-x,z
y,x,z
loop_
_atom_site_type_symbol
_atom_site_label
_atom_site_fract_x
_atom_site_fract_y
_atom_site_fract_z
Si Si1 0.697412 0.421122 0.597357
Si Si2 0.203856 0.317688 0.723650
Si Si3 0.040671 0.162497 0.243300
Si Si4 0.425172 0.159974 0.107825
Si Si5 0.922558 0.686076 0.385429
O O1 0.675530 0.500000 0.500000
O O2 0.629021 0.370980 0.669258
O O3 0.742313 0.373194 0.410848
O O4 0.758599 0.434432 0.791318
O O5 0.253131 0.253131 0.818897
O O6 0.142004 0.288486 0.554817
O O7 0.165292 0.363816 0.916471
O O8 0.107546 0.107546 0.262849
O O9 0.065903 0.246213 0.215570
O O10 0.000000 0.159286 0.500000
O O11 0.000000 0.144103 0.000000
O O12 0.390559 0.106638 0.293240
O O13 0.500000 0.134858 0.000000
O O14 0.000000 0.674153 0.500000
#
# Coordination Sequence:
#
# PCOD9554819 Si02
#       5
#     8   8   8   8   8
#     4  10  20  37  60  91 127 165 210 266 329 400
#     4  10  21  39  66  93 123 168 217 266 322 395
#     4  11  25  45  72 104 143 185 230 289 349 419
#     4  11  22  40  68  91 124 169 222 278 333 396
#     4  10  25  43  64  94 134 171 220 276 339 404
#
# _framework density 20.363441999999999
#
# number of rings (size 3 to 8) (size 9 to 14) (size 15 to 20)
#    0.000    1.600    2.000    1.800    5.600    3.800 
#    0.000    3.000    0.000    0.000    0.000    0.000 
#    0.000    0.000    0.000    0.000    0.000    0.000 
#
# Total GULP energy -223092.067860 kJ/mol
# GULP energy per Si atom -5577.301697 kJ/mol
# Density = 2.031709 g / cm^3
# Si number density = 20.363442 Si / 1000 Ang^3
#
#
#
# Elastic Constant Matrix: (Units=GPa)
#
#
# Indices 1 2 3 4 5 6 
#
# 1 96.5464 67.0043 16.8937 0.0000 0.0000 0.0000
# 2 67.0043 96.5480 16.8945 0.0000 0.0000 0.0000
# 3 16.8937 16.8945 47.4407 0.0000 0.0000 0.0000
# 4 0.0000 0.0000 0.0000 15.2790 0.0000 0.0000
# 5 0.0000 0.0000 0.0000 0.0000 15.2803 0.0000
# 6 0.0000 0.0000 0.0000 0.0000 0.0000 9.3155
#
#
#
# Elastic Compliance Matrix: (Units=1/GPa)
#
#
# Indices 1 2 3 4 5 6 
#
# 1 0.020225 -0.013625 -0.002350 0.000000 0.000000 0.000000
# 2 -0.013625 0.020224 -0.002351 0.000000 0.000000 0.000000
# 3 -0.002350 -0.002351 0.022753 0.000000 0.000000 0.000000
# 4 0.000000 0.000000 0.000000 0.065449 0.000000 0.000000
# 5 0.000000 0.000000 0.000000 0.000000 0.065444 0.000000
# 6 0.000000 0.000000 0.000000 0.000000 0.000000 0.107348
#
#
# Mechanical properties :
#
#
# Convention : Reuss Voigt Hill
#
# Bulk Modulus (GPa) = 37.66271 49.12445 43.39358
# Shear Modulus (GPa) = 14.41156 17.29112 15.85134
#
# Velocity S-wave (km/s) = 2.66318 2.91714 2.79305
# Velocity P-wave (km/s) = 5.29076 5.96007 5.63536
#
# Compressibility (1/GPa) = 0.02655146
#
# Stress axis : x y z
#
# Youngs Moduli (GPa) = 49.44479 49.44530 43.95049
#
# Poissons Ratio (x) = 0.67367 0.10328
# Poissons Ratio (y) = 0.67367 0.10331
# Poissons Ratio (z) = 0.11619 0.11622
#
# Static dielectric constant tensor:
#      x y z
#    x 1.664790 0.000000 0.000000 
#    y 0.000000 1.664770 0.000000 
#    z 0.000000 0.000000 1.797510 
# 
# From -- ./inp_files/458.got.cif
#   From: 2010.05.17/outbox.cif.g08.bks.cpg/sg111_1_cif.got.tgz:458.got - 2010.05.20 10:56:05.
