data_PCOD9554775
_publ_section_title
;
Structure prediction by ZEFSAII (Michael W. Deem and Ramdas Pophale) SiO2 
 PCOD9554775
Probable space group: P -4 2 M 
;
_chemical_formula_sum "Si O2"
_cell_formula_units_Z 48
_cell_length_a 12.814263
_cell_length_b 12.814263
_cell_length_c 16.682086
_cell_angle_alpha 90.000000
_cell_angle_beta 90.000000
_cell_angle_gamma 90.000000
_cell_volume 2739.287541
_symmetry_space_group_name_H-M "P -4 2 M "
_symmetry_group_IT_number 111
_symmetry_cell_setting 'tetragonal'
loop_
_space_group_symop_operation_xyz
x,y,z
y,-x,-z
-x,-y,z
-y,x,-z
x,-y,-z
-x,y,-z
-y,-x,z
y,x,z
loop_
_atom_site_type_symbol
_atom_site_label
_atom_site_fract_x
_atom_site_fract_y
_atom_site_fract_z
Si Si1 0.947972 0.774294 0.414041
Si Si2 0.803519 0.367042 0.687014
Si Si3 0.386996 0.011653 0.188118
Si Si4 0.133588 0.298376 0.682016
Si Si5 0.000847 0.829964 0.096586
Si Si6 0.272229 0.554273 0.413794
O O1 0.877286 0.877286 0.413564
O O2 0.873818 0.679180 0.386055
O O3 0.000000 0.760064 0.500000
O O4 0.041170 0.775150 0.349870
O O5 0.723477 0.276524 0.710025
O O6 0.882689 0.387459 0.759312
O O7 0.740339 0.465490 0.653525
O O8 0.284364 0.007107 0.133696
O O9 0.500000 0.000000 0.147660
O O10 0.372090 0.917758 0.252078
O O11 0.228500 0.228500 0.713255
O O12 0.179281 0.365133 0.607883
O O13 0.902909 0.902909 0.121058
O O14 0.105005 0.894996 0.120093
O O15 0.000000 0.824064 0.000000
O O16 0.263575 0.500000 0.500000
O O17 0.378479 0.621522 0.410223
#
# Coordination Sequence:
#
# PCOD9554775 Si02
#       6
#     8   8   8   8   8   8
#     4  10  20  32  48  69  96 130 169 219 278 338
#     4  10  21  36  51  73 101 134 178 227 276 327
#     4  11  20  35  55  82 112 149 179 212 269 325
#     4  10  21  35  50  72 102 137 179 224 269 323
#     4   9  19  37  62  91 120 149 181 219 264 319
#     4  11  22  36  53  71  94 133 186 242 289 325
#
# _framework density 17.522804000000001
#
# number of rings (size 3 to 8) (size 9 to 14) (size 15 to 20)
#    0.000    1.833    1.667    3.500    0.000    6.000 
#    0.000    2.500    0.000    0.000    0.000    0.000 
#    0.000    0.000    0.000    7.667    0.000    0.000 
#
# Total GULP energy -267798.477710 kJ/mol
# GULP energy per Si atom -5579.134952 kJ/mol
# Density = 1.748292 g / cm^3
# Si number density = 17.522804 Si / 1000 Ang^3
#
#
#
# Elastic Constant Matrix: (Units=GPa)
#
#
# Indices 1 2 3 4 5 6 
#
# 1 110.4662 54.8428 34.9733 0.0000 0.0000 0.0000
# 2 54.8428 110.4676 34.9739 0.0000 0.0000 0.0000
# 3 34.9733 34.9739 39.7975 0.0000 0.0000 0.0000
# 4 0.0000 0.0000 0.0000 20.5305 0.0000 0.0000
# 5 0.0000 0.0000 0.0000 0.0000 20.5300 0.0000
# 6 0.0000 0.0000 0.0000 0.0000 0.0000 16.5443
#
#
#
# Elastic Compliance Matrix: (Units=1/GPa)
#
#
# Indices 1 2 3 4 5 6 
#
# 1 0.013804 -0.004174 -0.008463 0.000000 0.000000 0.000000
# 2 -0.004174 0.013804 -0.008463 0.000000 0.000000 0.000000
# 3 -0.008463 -0.008463 0.040001 0.000000 0.000000 0.000000
# 4 0.000000 0.000000 0.000000 0.048708 0.000000 0.000000
# 5 0.000000 0.000000 0.000000 0.000000 0.048709 0.000000
# 6 0.000000 0.000000 0.000000 0.000000 0.000000 0.060444
#
#
# Mechanical properties :
#
#
# Convention : Reuss Voigt Hill
#
# Bulk Modulus (GPa) = 39.35428 56.70125 48.02777
# Shear Modulus (GPa) = 18.10679 20.58371 19.34525
#
# Velocity S-wave (km/s) = 3.21803 3.43108 3.32626
# Velocity P-wave (km/s) = 6.02621 6.93723 6.49771
#
# Compressibility (1/GPa) = 0.02541019
#
# Stress axis : x y z
#
# Youngs Moduli (GPa) = 72.44282 72.44308 24.99919
#
# Poissons Ratio (x) = 0.30237 0.21156
# Poissons Ratio (y) = 0.30237 0.21157
# Poissons Ratio (z) = 0.61306 0.61308
#
# Static dielectric constant tensor:
#      x y z
#    x 1.614720 0.000000 0.000000 
#    y 0.000000 1.614710 0.000000 
#    z 0.000000 0.000000 1.578440 
# 
# From -- ./inp_files/3644.got.cif
#   From: 2010.05.17/outbox.cif.g08.bks.cpg/sg111_2_cif.got.tgz:3644.got - 2010.05.20 10:56:05.
