data_PCOD9554913
_publ_section_title
;
Structure prediction by ZEFSAII (Michael W. Deem and Ramdas Pophale) SiO2 
 PCOD9554913
Probable space group: P -4 2 C
;
_chemical_formula_sum "Si O2"
_cell_formula_units_Z 56
_cell_length_a 19.642896
_cell_length_b 19.642896
_cell_length_c 7.009318
_cell_angle_alpha 90.000000
_cell_angle_beta 90.000000
_cell_angle_gamma 90.000000
_cell_volume 2704.498831
_symmetry_space_group_name_H-M "P -4 2 C"
_symmetry_group_IT_number 112
_symmetry_cell_setting 'tetragonal'
loop_
_space_group_symop_operation_xyz
x,y,z
y,-x,-z
-x,-y,z
-y,x,-z
x,-y,1/2-z
-x,y,1/2-z
-y,-x,1/2+z
y,x,1/2+z
loop_
_atom_site_type_symbol
_atom_site_label
_atom_site_fract_x
_atom_site_fract_y
_atom_site_fract_z
Si Si1 0.371824 0.238426 0.565062
Si Si2 0.060437 0.542475 0.953175
Si Si3 0.296978 0.978757 0.466061
Si Si4 0.519443 0.213471 0.477821
Si Si5 0.156787 0.764561 0.883561
Si Si6 0.126864 0.736049 0.440032
Si Si7 0.266632 0.344372 0.623841
O O1 0.451723 0.232741 0.589367
O O2 0.327520 0.173129 0.628665
O O3 0.338606 0.307798 0.638311
O O4 0.360642 0.242158 0.336457
O O5 0.066651 0.500000 0.750000
O O6 0.039741 0.622238 0.954618
O O7 0.136312 0.538689 0.030364
O O8 0.000000 0.500000 0.048730
O O9 0.251742 0.911186 0.503911
O O10 0.278861 0.000000 0.250000
O O11 0.281090 0.047233 0.585332
O O12 0.500000 0.214853 0.250000
O O13 0.586452 0.259567 0.492675
O O14 0.138689 0.742634 0.668703
O O15 0.215925 0.713666 0.955523
O O16 0.193072 0.838221 0.872443
#
# Coordination Sequence:
#
# PCOD9554913 Si02
#       7
#     8   8   8   8   8   8   8
#     4   9  17  28  45  65  92 119 154 186 228 274
#     4  10  15  20  38  68 103 119 141 178 244 287
#     4  10  16  26  43  69  96 126 148 192 234 277
#     4   9  16  25  41  65  93 121 146 186 231 275
#     4   9  17  30  45  66  94 123 154 191 231 276
#     4   9  18  29  46  67  95 121 157 190 232 275
#     4   9  16  29  44  64  91 121 151 188 226 274
#
# _framework density 20.706240000000001
#
# number of rings (size 3 to 8) (size 9 to 14) (size 15 to 20)
#    0.000    2.714    2.857    0.857    4.000    0.000 
#    0.000    1.429    0.000    0.857    0.000    6.000 
#    0.000    0.000    0.000    0.000    0.000    0.000 
#
# Total GULP energy -312317.136596 kJ/mol
# GULP energy per Si atom -5577.091725 kJ/mol
# Density = 2.065911 g / cm^3
# Si number density = 20.706240 Si / 1000 Ang^3
#
#
#
# Elastic Constant Matrix: (Units=GPa)
#
#
# Indices 1 2 3 4 5 6 
#
# 1 157.9752 103.8074 16.3671 0.0000 0.0000 0.0000
# 2 103.8074 157.9752 16.3671 0.0000 0.0000 0.0000
# 3 16.3671 16.3671 56.3668 0.0000 0.0000 0.0000
# 4 0.0000 0.0000 0.0000 9.6214 0.0000 0.0000
# 5 0.0000 0.0000 0.0000 0.0000 9.6214 0.0000
# 6 0.0000 0.0000 0.0000 0.0000 0.0000 28.6297
#
#
#
# Elastic Compliance Matrix: (Units=1/GPa)
#
#
# Indices 1 2 3 4 5 6 
#
# 1 0.011213 -0.007249 -0.001151 0.000000 0.000000 0.000000
# 2 -0.007249 0.011213 -0.001151 0.000000 0.000000 0.000000
# 3 -0.001151 -0.001151 0.018409 0.000000 0.000000 0.000000
# 4 0.000000 0.000000 0.000000 0.103935 0.000000 0.000000
# 5 0.000000 0.000000 0.000000 0.000000 0.103935 0.000000
# 6 0.000000 0.000000 0.000000 0.000000 0.000000 0.034929
#
#
# Mechanical properties :
#
#
# Convention : Reuss Voigt Hill
#
# Bulk Modulus (GPa) = 46.01260 71.71118 58.86189
# Shear Modulus (GPa) = 16.13014 25.29287 20.71151
#
# Velocity S-wave (km/s) = 2.79408 3.49880 3.16611
# Velocity P-wave (km/s) = 5.71656 7.14353 6.46951
#
# Compressibility (1/GPa) = 0.02173318
#
# Stress axis : x y z
#
# Youngs Moduli (GPa) = 89.18604 89.18604 54.32023
#
# Poissons Ratio (x) = 0.64648 0.06252
# Poissons Ratio (y) = 0.64648 0.06252
# Poissons Ratio (z) = 0.10265 0.10265
#
# Static dielectric constant tensor:
#      x y z
#    x 1.751270 0.000000 0.000000 
#    y 0.000000 1.751270 0.000000 
#    z 0.000000 0.000000 1.929120 
# 
# From -- ./inp_files/2724.got.cif
#   From: 2010.05.17/outbox.cif.g08.bks.cpg/sg112_2_cif.got.tgz:2724.got - 2010.05.20 10:59:04.
