data_PCOD9554296
_publ_section_title
;
Structure prediction by ZEFSAII (Michael W. Deem and Ramdas Pophale) SiO2 
 PCOD9554296
Probable space group: I 41 M D
;
_chemical_formula_sum "Si O2"
_cell_formula_units_Z 112
_cell_length_a 14.509595
_cell_length_b 14.509595
_cell_length_c 26.456957
_cell_angle_alpha 90.000000
_cell_angle_beta 90.000000
_cell_angle_gamma 90.000000
_cell_volume 5569.939426
_symmetry_space_group_name_H-M "I 41 M D"
_symmetry_group_IT_number 109
_symmetry_cell_setting 'tetragonal'
loop_
_space_group_symop_operation_xyz
x,y,z
-y,1/2+x,1/4+z
-x,-y,z
y,1/2-x,1/4+z
-x,y,z
x,-y,z
-y,1/2-x,1/4+z
y,1/2+x,1/4+z
1/2+x,1/2+y,1/2+z
1/2-y,x,3/4+z
1/2-x,1/2-y,1/2+z
1/2+y,-x,3/4+z
1/2-x,1/2+y,1/2+z
1/2+x,1/2-y,1/2+z
1/2-y,-x,3/4+z
1/2+y,x,3/4+z
loop_
_atom_site_type_symbol
_atom_site_label
_atom_site_fract_x
_atom_site_fract_y
_atom_site_fract_z
Si Si1 0.192056 0.602018 0.436060
Si Si2 0.360212 0.604094 0.792880
Si Si3 0.773075 0.604632 0.636713
Si Si4 0.895906 0.139788 0.551581
Si Si5 0.102325 0.102325 0.922231
Si Si6 0.192056 0.102018 0.658401
Si Si7 0.604632 0.226925 0.207748
O O1 0.175890 0.500000 0.414777
O O2 0.131431 0.614682 0.486033
O O3 0.164925 0.681859 0.396792
O O4 0.300418 0.606604 0.451509
O O5 0.392188 0.500000 0.805056
O O6 0.393882 0.682245 0.831386
O O7 0.250000 0.603981 0.797231
O O8 0.752924 0.500000 0.651869
O O9 0.850773 0.649227 0.672231
O O10 0.868569 0.114682 0.608428
O O11 0.817755 0.106118 0.513075
O O12 0.000000 0.107812 0.539405
O O13 0.106604 0.199582 0.892953
O O14 0.000000 0.104920 0.947552
O O15 0.104920 0.000000 0.896910
O O16 0.164925 0.181859 0.697670
O O17 0.175890 0.000000 0.679684
O O18 0.500000 0.247076 0.192592
#
# Coordination Sequence:
#
# PCOD9554296 Si02
#       7
#    16  16  16  16  16  16  16
#     4  11  22  40  64  90 125 165 205 253 311 372
#     4  11  22  39  62  88 122 165 209 255 309 370
#     4  12  24  39  59  87 122 160 206 256 304 360
#     4  11  22  39  62  88 122 165 209 255 309 370
#     4   9  18  36  64  92 117 156 208 256 305 360
#     4  11  22  40  64  90 125 165 205 253 311 372
#     4  12  24  39  59  87 122 160 206 256 304 360
#
# _framework density 20.107938999999998
#
# number of rings (size 3 to 8) (size 9 to 14) (size 15 to 20)
#    0.000    1.000    4.286    2.571    0.000    5.429 
#    0.000    1.429    0.000    8.571    0.000    0.000 
#    0.000    0.000    0.000    0.000    0.000    0.000 
#
# Total GULP energy -312220.572694 kJ/mol
# GULP energy per Si atom -5575.367370 kJ/mol
# Density = 2.006217 g / cm^3
# Si number density = 20.107939 Si / 1000 Ang^3
#
#
#
# Elastic Constant Matrix: (Units=GPa)
#
#
# Indices 1 2 3 4 5 6 
#
# 1 156.5511 38.5099 23.3317 0.0000 0.0000 0.0000
# 2 38.5099 156.5511 23.3317 0.0000 0.0000 0.0000
# 3 23.3317 23.3317 53.1845 0.0000 0.0000 0.0000
# 4 0.0000 0.0000 0.0000 21.8802 0.0000 0.0000
# 5 0.0000 0.0000 0.0000 0.0000 21.8802 0.0000
# 6 0.0000 0.0000 0.0000 0.0000 0.0000 -57.6081
#
#
#
# Elastic Compliance Matrix: (Units=1/GPa)
#
#
# Indices 1 2 3 4 5 6 
#
# 1 0.007100 -0.001372 -0.002513 0.000000 0.000000 0.000000
# 2 -0.001372 0.007100 -0.002513 0.000000 0.000000 0.000000
# 3 -0.002513 -0.002513 0.021007 0.000000 0.000000 0.000000
# 4 0.000000 0.000000 0.000000 0.045703 0.000000 0.000000
# 5 0.000000 0.000000 0.000000 0.000000 0.045703 0.000000
# 6 0.000000 0.000000 0.000000 0.000000 0.000000 -0.017359
#
#
# Mechanical properties :
#
#
# Convention : Reuss Voigt Hill
#
# Bulk Modulus (GPa) = 44.61960 59.62591 52.12275
# Shear Modulus (GPa) = 38.60418 15.97137 27.28778
#
# Velocity S-wave (km/s) = 4.38636 2.82136 3.68783
# Velocity P-wave (km/s) = 6.92039 6.35065 6.64163
#
# Compressibility (1/GPa) = 0.02241167
#
# Stress axis : x y z
#
# Youngs Moduli (GPa) = 140.85180 140.85180 47.60301
#
# Poissons Ratio (x) = 0.19324 0.11961
# Poissons Ratio (y) = 0.19324 0.11961
# Poissons Ratio (z) = 0.35392 0.35392
#
# Static dielectric constant tensor:
#      x y z
#    x 1.746430 0.000000 0.000000 
#    y 0.000000 1.746430 0.000000 
#    z 0.000000 0.000000 1.690750 
# 
# From -- ./inp_files/5052.got.cif
#   From: 2010.05.17/outbox.cif.g08.bks.cpg/sg109_3_cif.got.tgz:5052.got - 2010.05.20 10:51:12.
