data_PCOD9554653
_publ_section_title
;
Structure prediction by ZEFSAII (Michael W. Deem and Ramdas Pophale) SiO2 
 PCOD9554653
Probable space group: P -4 2 M 
;
_chemical_formula_sum "Si O2"
_cell_formula_units_Z 40
_cell_length_a 21.464415
_cell_length_b 21.464415
_cell_length_c 5.160603
_cell_angle_alpha 90.000000
_cell_angle_beta 90.000000
_cell_angle_gamma 90.000000
_cell_volume 2377.598749
_symmetry_space_group_name_H-M "P -4 2 M "
_symmetry_group_IT_number 111
_symmetry_cell_setting 'tetragonal'
loop_
_space_group_symop_operation_xyz
x,y,z
y,-x,-z
-x,-y,z
-y,x,-z
x,-y,-z
-x,y,-z
-y,-x,z
y,x,z
loop_
_atom_site_type_symbol
_atom_site_label
_atom_site_fract_x
_atom_site_fract_y
_atom_site_fract_z
Si Si1 0.132784 0.764721 0.988043
Si Si2 0.960039 0.143655 0.760133
Si Si3 0.431217 0.672782 0.992097
Si Si4 0.293763 0.810896 0.474073
Si Si5 0.239450 0.430131 0.508614
O O1 0.173918 0.826083 0.044843
O O2 0.068978 0.792518 0.876310
O O3 0.165239 0.727894 0.754008
O O4 0.139853 0.725989 0.251725
O O5 0.903795 0.096206 0.695523
O O6 0.000000 0.153039 0.500000
O O7 0.000000 0.117054 0.000000
O O8 0.378091 0.621910 0.992970
O O9 0.427353 0.716684 0.241073
O O10 0.500000 0.643413 0.000000
O O11 0.425269 0.716573 0.742180
O O12 0.253514 0.746487 0.423796
O O13 0.367760 0.801205 0.477269
O O14 0.209995 0.500000 0.500000
#
# Coordination Sequence:
#
# PCOD9554653 Si02
#       5
#     8   8   8   8   8
#     4   9  19  32  48  72  96 125 165 206 240 274
#     4  11  22  36  53  75 108 143 175 208 236 269
#     4  10  19  30  42  58  83 116 156 197 239 290
#     4  10  17  29  49  68  92 125 161 199 248 303
#     4  10  20  31  45  67  93 119 151 198 252 308
#
# _framework density 16.823695000000001
#
# number of rings (size 3 to 8) (size 9 to 14) (size 15 to 20)
#    0.000    2.000    0.000    4.800    0.000    6.200 
#    0.000    0.000    0.000    3.600    0.000    0.000 
#    0.000   12.000    0.000    0.000    0.000    0.000 
#
# Total GULP energy -222959.690929 kJ/mol
# GULP energy per Si atom -5573.992273 kJ/mol
# Density = 1.678540 g / cm^3
# Si number density = 16.823695 Si / 1000 Ang^3
#
#
#
# Elastic Constant Matrix: (Units=GPa)
#
#
# Indices 1 2 3 4 5 6 
#
# 1 51.7924 15.8348 1.5100 0.0000 0.0000 0.0000
# 2 15.8348 51.7911 1.5095 0.0000 0.0000 0.0000
# 3 1.5100 1.5095 98.9299 0.0000 0.0000 0.0000
# 4 0.0000 0.0000 0.0000 21.2557 0.0000 0.0000
# 5 0.0000 0.0000 0.0000 0.0000 21.2564 0.0000
# 6 0.0000 0.0000 0.0000 0.0000 0.0000 19.6658
#
#
#
# Elastic Compliance Matrix: (Units=1/GPa)
#
#
# Indices 1 2 3 4 5 6 
#
# 1 0.021304 -0.006507 -0.000226 0.000000 0.000000 0.000000
# 2 -0.006507 0.021304 -0.000226 0.000000 0.000000 0.000000
# 3 -0.000226 -0.000226 0.010115 0.000000 0.000000 0.000000
# 4 0.000000 0.000000 0.000000 0.047046 0.000000 0.000000
# 5 0.000000 0.000000 0.000000 0.000000 0.047045 0.000000
# 6 0.000000 0.000000 0.000000 0.000000 0.000000 0.050850
#
#
# Mechanical properties :
#
#
# Convention : Reuss Voigt Hill
#
# Bulk Modulus (GPa) = 25.76911 26.69133 26.23022
# Shear Modulus (GPa) = 22.27010 24.67953 23.47481
#
# Velocity S-wave (km/s) = 3.64226 3.83423 3.73948
# Velocity P-wave (km/s) = 5.74791 5.95832 5.85406
#
# Compressibility (1/GPa) = 0.03880615
#
# Stress axis : x y z
#
# Youngs Moduli (GPa) = 46.93988 46.93867 98.86245
#
# Poissons Ratio (x) = 0.30543 0.02233
# Poissons Ratio (y) = 0.30544 0.02232
# Poissons Ratio (z) = 0.01060 0.01060
#
# Static dielectric constant tensor:
#      x y z
#    x 1.585330 0.000000 0.000000 
#    y 0.000000 1.585330 0.000000 
#    z 0.000000 0.000000 1.568390 
# 
# From -- ./inp_files/486.got.cif
#   From: 2010.05.17/outbox.cif.g08.bks.cpg/sg111_1_cif.got.tgz:486.got - 2010.05.20 10:56:05.
