data_PCOD9554776
_publ_section_title
;
Structure prediction by ZEFSAII (Michael W. Deem and Ramdas Pophale) SiO2 
 PCOD9554776
Probable space group: P -4 2 M 
;
_chemical_formula_sum "Si O2"
_cell_formula_units_Z 32
_cell_length_a 13.383088
_cell_length_b 13.383088
_cell_length_c 8.276937
_cell_angle_alpha 90.000000
_cell_angle_beta 90.000000
_cell_angle_gamma 90.000000
_cell_volume 1482.457723
_symmetry_space_group_name_H-M "P -4 2 M "
_symmetry_group_IT_number 111
_symmetry_cell_setting 'tetragonal'
loop_
_space_group_symop_operation_xyz
x,y,z
y,-x,-z
-x,-y,z
-y,x,-z
x,-y,-z
-x,y,-z
-y,-x,z
y,x,z
loop_
_atom_site_type_symbol
_atom_site_label
_atom_site_fract_x
_atom_site_fract_y
_atom_site_fract_z
Si Si1 0.614727 0.213231 0.005816
Si Si2 0.699694 0.129504 0.322853
Si Si3 0.360587 0.805664 0.659714
Si Si4 0.163756 0.000000 0.500000
Si Si5 0.500000 0.658518 0.500000
O O1 0.693307 0.306694 0.005498
O O2 0.636101 0.145479 0.162837
O O3 0.500000 0.247589 0.000000
O O4 0.631277 0.152039 0.838598
O O5 0.776292 0.223709 0.321262
O O6 0.639522 0.134157 0.492208
O O7 0.768847 0.032653 0.348283
O O8 0.258817 0.741184 0.656890
O O9 0.450290 0.726341 0.635434
O O10 0.092605 0.907396 0.540870
O O11 0.587403 0.587403 0.566136
#
# Coordination Sequence:
#
# PCOD9554776 Si02
#       5
#     8   8   8   4   4
#     4  10  20  32  50  79 115 159 206 242 275 325
#     4   9  18  34  55  79 109 143 180 229 295 361
#     4   9  17  29  46  69 103 147 186 227 284 337
#     4   9  18  36  66  95 110 132 182 247 314 383
#     4   9  16  26  44  71 104 152 216 267 288 312
#
# _framework density 21.585774000000001
#
# number of rings (size 3 to 8) (size 9 to 14) (size 15 to 20)
#    0.000    2.750    0.000    1.500    0.000    3.250 
#    0.000    3.750    0.000   12.750    0.000   14.000 
#    0.000    0.000    0.000    0.000    0.000    2.500 
#
# Total GULP energy -178297.396271 kJ/mol
# GULP energy per Si atom -5571.793633 kJ/mol
# Density = 2.153664 g / cm^3
# Si number density = 21.585774 Si / 1000 Ang^3
#
#
#
# Elastic Constant Matrix: (Units=GPa)
#
#
# Indices 1 2 3 4 5 6 
#
# 1 59.3980 43.5068 51.1902 0.0000 0.0000 0.0000
# 2 43.5068 59.3974 51.1901 0.0000 0.0000 0.0000
# 3 51.1902 51.1901 202.3508 0.0000 0.0000 0.0000
# 4 0.0000 0.0000 0.0000 17.4578 0.0000 0.0000
# 5 0.0000 0.0000 0.0000 0.0000 17.4583 0.0000
# 6 0.0000 0.0000 0.0000 0.0000 0.0000 32.6694
#
#
#
# Elastic Compliance Matrix: (Units=1/GPa)
#
#
# Indices 1 2 3 4 5 6 
#
# 1 0.037957 -0.024971 -0.003285 0.000000 0.000000 0.000000
# 2 -0.024971 0.037958 -0.003285 0.000000 0.000000 0.000000
# 3 -0.003285 -0.003285 0.006604 0.000000 0.000000 0.000000
# 4 0.000000 0.000000 0.000000 0.057281 0.000000 0.000000
# 5 0.000000 0.000000 0.000000 0.000000 0.057279 0.000000
# 6 0.000000 0.000000 0.000000 0.000000 0.000000 0.030610
#
#
# Mechanical properties :
#
#
# Convention : Reuss Voigt Hill
#
# Bulk Modulus (GPa) = 51.45182 68.10227 59.77705
# Shear Modulus (GPa) = 16.82078 25.20105 21.01092
#
# Velocity S-wave (km/s) = 2.79454 3.42055 3.12327
# Velocity P-wave (km/s) = 5.85665 6.87156 6.38430
#
# Compressibility (1/GPa) = 0.01943566
#
# Stress axis : x y z
#
# Youngs Moduli (GPa) = 26.34533 26.34501 151.42140
#
# Poissons Ratio (x) = 0.65787 0.49744
# Poissons Ratio (y) = 0.65788 0.49746
# Poissons Ratio (z) = 0.08655 0.08655
#
# Static dielectric constant tensor:
#      x y z
#    x 1.823800 0.000000 0.000000 
#    y 0.000000 1.823800 0.000000 
#    z 0.000000 0.000000 1.809240 
# 
# From -- ./inp_files/1340.got.cif
#   From: 2010.05.17/outbox.cif.g08.bks.cpg/sg111_1_cif.got.tgz:1340.got - 2010.05.20 10:56:05.
