data_PCOD9554187
_publ_section_title
;
Structure prediction by ZEFSAII (Michael W. Deem and Ramdas Pophale) SiO2 
 PCOD9554187
Probable space group: I 41 M D
;
_chemical_formula_sum "Si O2"
_cell_formula_units_Z 112
_cell_length_a 14.393844
_cell_length_b 14.393844
_cell_length_c 26.075592
_cell_angle_alpha 90.000000
_cell_angle_beta 90.000000
_cell_angle_gamma 90.000000
_cell_volume 5402.412731
_symmetry_space_group_name_H-M "I 41 M D"
_symmetry_group_IT_number 109
_symmetry_cell_setting 'tetragonal'
loop_
_space_group_symop_operation_xyz
x,y,z
-y,1/2+x,1/4+z
-x,-y,z
y,1/2-x,1/4+z
-x,y,z
x,-y,z
-y,1/2-x,1/4+z
y,1/2+x,1/4+z
1/2+x,1/2+y,1/2+z
1/2-y,x,3/4+z
1/2-x,1/2-y,1/2+z
1/2+y,-x,3/4+z
1/2-x,1/2+y,1/2+z
1/2+x,1/2-y,1/2+z
1/2-y,-x,3/4+z
1/2+y,x,3/4+z
loop_
_atom_site_type_symbol
_atom_site_label
_atom_site_fract_x
_atom_site_fract_y
_atom_site_fract_z
Si Si1 0.251222 0.604618 0.352930
Si Si2 0.208830 0.400088 0.036026
Si Si3 0.605024 0.754104 0.831206
Si Si4 0.815172 0.394796 0.747200
Si Si5 0.176630 0.108844 0.696506
Si Si6 0.396851 0.752187 0.114197
Si Si7 0.756175 0.334255 0.465967
O O1 0.267989 0.500000 0.334343
O O2 0.322300 0.678569 0.327147
O O3 0.151112 0.645652 0.339194
O O4 0.254909 0.607997 0.414411
O O5 0.211890 0.500000 0.061596
O O6 0.306632 0.384241 0.005798
O O7 0.129659 0.394103 0.992737
O O8 0.500000 0.750051 0.847769
O O9 0.665391 0.677608 0.861742
O O10 0.613726 0.736457 0.769982
O O11 0.843491 0.500000 0.730960
O O12 0.778974 0.404292 0.805391
O O13 0.731884 0.347811 0.714779
O O14 0.139250 0.165792 0.647617
O O15 0.267578 0.165294 0.715724
O O16 0.190027 0.000000 0.687682
O O17 0.500000 0.780240 0.132207
#
# Coordination Sequence:
#
# PCOD9554187 Si02
#       7
#    16  16  16  16  16  16  16
#     4  12  24  42  64  92 127 167 215 266 318 378
#     4  11  23  40  61  93 136 176 216 258 312 381
#     4  11  23  43  66  92 125 164 209 268 329 380
#     4   9  19  38  63  88 123 162 204 260 317 370
#     4  11  21  38  65  93 131 175 213 258 314 377
#     4  10  20  38  62  94 125 158 208 257 312 383
#     4  10  21  41  62  94 123 166 214 267 317 377
#
# _framework density 20.731477999999999
#
# number of rings (size 3 to 8) (size 9 to 14) (size 15 to 20)
#    0.000    1.429    5.714    1.286    0.000    5.714 
#    0.000    1.429    0.000    6.857    0.000    0.000 
#    0.000    0.000    0.000    0.000    0.000    0.000 
#
# Total GULP energy -312298.087930 kJ/mol
# GULP energy per Si atom -5576.751570 kJ/mol
# Density = 2.068429 g / cm^3
# Si number density = 20.731478 Si / 1000 Ang^3
#
#
#
# Elastic Constant Matrix: (Units=GPa)
#
#
# Indices 1 2 3 4 5 6 
#
# 1 142.3164 40.7473 23.7296 0.0000 0.0000 0.0000
# 2 40.7473 142.3164 23.7296 0.0000 0.0000 0.0000
# 3 23.7296 23.7296 61.7078 0.0000 0.0000 0.0000
# 4 0.0000 0.0000 0.0000 22.5927 0.0000 0.0000
# 5 0.0000 0.0000 0.0000 0.0000 22.5927 0.0000
# 6 0.0000 0.0000 0.0000 0.0000 0.0000 5.2312
#
#
#
# Elastic Compliance Matrix: (Units=1/GPa)
#
#
# Indices 1 2 3 4 5 6 
#
# 1 0.007956 -0.001889 -0.002333 0.000000 0.000000 0.000000
# 2 -0.001889 0.007956 -0.002333 0.000000 0.000000 0.000000
# 3 -0.002333 -0.002333 0.018000 0.000000 0.000000 0.000000
# 4 0.000000 0.000000 0.000000 0.044262 0.000000 0.000000
# 5 0.000000 0.000000 0.000000 0.000000 0.044262 0.000000
# 6 0.000000 0.000000 0.000000 0.000000 0.000000 0.191159
#
#
# Mechanical properties :
#
#
# Convention : Reuss Voigt Hill
#
# Bulk Modulus (GPa) = 48.07258 58.08376 53.07817
# Shear Modulus (GPa) = 14.98616 27.29226 21.13921
#
# Velocity S-wave (km/s) = 2.69154 3.63225 3.19669
# Velocity P-wave (km/s) = 5.73565 6.75788 6.26764
#
# Compressibility (1/GPa) = 0.02080188
#
# Stress axis : x y z
#
# Youngs Moduli (GPa) = 125.68346 125.68346 55.55593
#
# Poissons Ratio (x) = 0.23742 0.12963
# Poissons Ratio (y) = 0.23742 0.12963
# Poissons Ratio (z) = 0.29325 0.29325
#
# Static dielectric constant tensor:
#      x y z
#    x 1.767350 0.000000 0.000000 
#    y 0.000000 1.767350 0.000000 
#    z 0.000000 0.000000 1.792200 
# 
# From -- ./inp_files/5055.got.cif
#   From: 2010.05.17/outbox.cif.g08.bks.cpg/sg109_3_cif.got.tgz:5055.got - 2010.05.20 10:51:12.
