data_PCOD9554518
_publ_section_title
;
Structure prediction by ZEFSAII (Michael W. Deem and Ramdas Pophale) SiO2 
 PCOD9554518
Probable space group: I 41 C D
;
_chemical_formula_sum "Si O2"
_cell_formula_units_Z 88
_cell_length_a 10.913445
_cell_length_b 10.913445
_cell_length_c 27.462629
_cell_angle_alpha 90.000000
_cell_angle_beta 90.000000
_cell_angle_gamma 90.000000
_cell_volume 3270.889240
_symmetry_space_group_name_H-M "I 41 C D"
_symmetry_group_IT_number 110
_symmetry_cell_setting 'tetragonal'
loop_
_space_group_symop_operation_xyz
x,y,z
-y,1/2+x,1/4+z
-x,-y,z
y,1/2-x,1/4+z
-x,y,1/2+z
x,-y,1/2+z
1/2-y,-x,1/4+z
1/2+y,x,1/4+z
1/2+x,1/2+y,1/2+z
1/2-y,x,3/4+z
1/2-x,1/2-y,1/2+z
1/2+y,-x,3/4+z
1/2-x,1/2+y,z
1/2+x,1/2-y,z
-y,1/2-x,3/4+z
y,1/2+x,3/4+z
loop_
_atom_site_type_symbol
_atom_site_label
_atom_site_fract_x
_atom_site_fract_y
_atom_site_fract_z
Si Si1 0.881702 0.350057 0.591520
Si Si2 0.598482 0.250415 0.259169
Si Si3 0.358636 0.142165 0.479594
Si Si4 0.281808 0.638246 0.349510
Si Si5 0.500000 0.000000 0.259415
Si Si6 0.473017 0.307560 0.925541
O O1 0.906906 0.375331 0.534757
O O2 0.737275 0.320798 0.589332
O O3 0.881011 0.442657 0.636751
O O4 0.994260 0.257797 0.603541
O O5 0.490207 0.294440 0.223232
O O6 0.729095 0.218688 0.234039
O O7 0.627587 0.338922 0.303911
O O8 0.547494 0.124009 0.283347
O O9 0.464263 0.180030 0.441540
O O10 0.345768 0.691457 0.397601
O O11 0.613480 0.965081 0.224552
#
# Coordination Sequence:
#
# PCOD9554518 Si02
#       6
#    16  16  16  16   8  16
#     4  11  24  45  75 107 152 206 261 329 407 474
#     4  10  23  43  73 104 148 196 252 318 394 472
#     4  10  24  42  71 110 147 197 257 326 392 478
#     4  11  24  47  75 104 152 205 260 331 401 489
#     4  10  22  42  72 104 146 198 256 316 396 470
#     4  11  22  43  74 104 150 206 263 326 403 478
#
# _framework density 26.903998999999999
#
# number of rings (size 3 to 8) (size 9 to 14) (size 15 to 20)
#    0.000    1.455    3.636    0.000    2.545    8.727 
#    3.273    0.000    8.000    0.000    0.000    0.000 
#    0.000    0.000    0.000    0.000    0.000    0.000 
#
# Total GULP energy -245668.476788 kJ/mol
# GULP energy per Si atom -5583.374472 kJ/mol
# Density = 2.684276 g / cm^3
# Si number density = 26.903999 Si / 1000 Ang^3
#
#
#
# Elastic Constant Matrix: (Units=GPa)
#
#
# Indices 1 2 3 4 5 6 
#
# 1 99.1493 35.5702 25.4168 0.0000 0.0000 0.0000
# 2 35.5702 99.1494 25.4168 0.0000 0.0000 0.0000
# 3 25.4168 25.4168 86.5449 0.0000 0.0000 0.0000
# 4 0.0000 0.0000 0.0000 26.7417 0.0000 0.0000
# 5 0.0000 0.0000 0.0000 0.0000 26.7417 0.0000
# 6 0.0000 0.0000 0.0000 0.0000 0.0000 46.0157
#
#
#
# Elastic Compliance Matrix: (Units=1/GPa)
#
#
# Indices 1 2 3 4 5 6 
#
# 1 0.012038 -0.003690 -0.002452 0.000000 0.000000 0.000000
# 2 -0.003690 0.012038 -0.002452 0.000000 0.000000 0.000000
# 3 -0.002452 -0.002452 0.012995 0.000000 0.000000 0.000000
# 4 0.000000 0.000000 0.000000 0.037395 0.000000 0.000000
# 5 0.000000 0.000000 0.000000 0.000000 0.037395 0.000000
# 6 0.000000 0.000000 0.000000 0.000000 0.000000 0.021732
#
#
# Mechanical properties :
#
#
# Convention : Reuss Voigt Hill
#
# Bulk Modulus (GPa) = 50.29181 50.85013 50.57097
# Shear Modulus (GPa) = 31.76470 33.12913 32.44692
#
# Velocity S-wave (km/s) = 3.43981 3.51291 3.47656
# Velocity P-wave (km/s) = 5.87453 5.94943 5.91210
#
# Compressibility (1/GPa) = 0.01988395
#
# Stress axis : x y z
#
# Youngs Moduli (GPa) = 83.06914 83.06914 76.95443
#
# Poissons Ratio (x) = 0.30655 0.18866
# Poissons Ratio (y) = 0.30655 0.18866
# Poissons Ratio (z) = 0.20366 0.20366
#
# Static dielectric constant tensor:
#      x y z
#    x 2.208760 0.000000 0.000000 
#    y 0.000000 2.208760 0.000000 
#    z 0.000000 0.000000 2.060240 
# 
# From -- ./inp_files/3167.got.cif
#   From: 2010.05.17/outbox.cif.g08.bks.cpg/sg110_2_cif.got.tgz:3167.got - 2010.05.20 10:54:03.
