data_PCOD9554983
_publ_section_title
;
Structure prediction by ZEFSAII (Michael W. Deem and Ramdas Pophale) SiO2 
 PCOD9554983
Probable space group: P -4 2 C
;
_chemical_formula_sum "Si O2"
_cell_formula_units_Z 32
_cell_length_a 8.495486
_cell_length_b 8.495486
_cell_length_c 22.710942
_cell_angle_alpha 90.000000
_cell_angle_beta 90.000000
_cell_angle_gamma 90.000000
_cell_volume 1639.123230
_symmetry_space_group_name_H-M "P -4 2 C"
_symmetry_group_IT_number 112
_symmetry_cell_setting 'tetragonal'
loop_
_space_group_symop_operation_xyz
x,y,z
y,-x,-z
-x,-y,z
-y,x,-z
x,-y,1/2-z
-x,y,1/2-z
-y,-x,1/2+z
y,x,1/2+z
loop_
_atom_site_type_symbol
_atom_site_label
_atom_site_fract_x
_atom_site_fract_y
_atom_site_fract_z
Si Si1 0.354674 0.087524 0.133287
Si Si2 0.053135 0.815432 0.311685
Si Si3 0.886694 0.147653 0.075098
Si Si4 0.376580 0.277173 0.014776
O O1 0.238676 0.176077 0.177623
O O2 0.395591 0.204980 0.079749
O O3 0.500000 0.000000 0.162630
O O4 0.261877 0.942722 0.102470
O O5 0.000000 0.743245 0.250000
O O6 0.971941 0.757386 0.371844
O O7 0.000000 0.000000 0.310027
O O8 0.836130 0.262607 0.023052
O O9 0.000000 0.000000 0.060136
O O10 0.298552 0.450897 0.014006
#
# Coordination Sequence:
#
# PCOD9554983 Si02
#       4
#     8   8   8   8
#     4  10  19  32  55  83 112 148 198 233 292 359
#     4   8  17  34  54  80 112 143 186 250 291 333
#     4   9  20  33  55  80 112 151 188 239 283 355
#     4  11  23  36  54  83 123 155 190 238 296 353
#
# _framework density 19.522634
#
# number of rings (size 3 to 8) (size 9 to 14) (size 15 to 20)
#    0.000    3.000    2.500    0.000    7.000    1.000 
#    0.000   10.000    0.000    3.000    0.000    3.500 
#    0.000    0.000    0.000    0.000    0.000    0.000 
#
# Total GULP energy -178275.075386 kJ/mol
# GULP energy per Si atom -5571.096106 kJ/mol
# Density = 1.947820 g / cm^3
# Si number density = 19.522634 Si / 1000 Ang^3
#
#
#
# Elastic Constant Matrix: (Units=GPa)
#
#
# Indices 1 2 3 4 5 6 
#
# 1 70.6622 35.4942 32.2615 0.0000 0.0000 0.0000
# 2 35.4942 70.6622 32.2615 0.0000 0.0000 0.0000
# 3 32.2615 32.2615 99.4429 0.0000 0.0000 0.0000
# 4 0.0000 0.0000 0.0000 7.9642 0.0000 0.0000
# 5 0.0000 0.0000 0.0000 0.0000 7.9642 0.0000
# 6 0.0000 0.0000 0.0000 0.0000 0.0000 22.5729
#
#
#
# Elastic Compliance Matrix: (Units=1/GPa)
#
#
# Indices 1 2 3 4 5 6 
#
# 1 0.020084 -0.008351 -0.003807 0.000000 0.000000 0.000000
# 2 -0.008351 0.020084 -0.003807 0.000000 0.000000 0.000000
# 3 -0.003807 -0.003807 0.012526 0.000000 0.000000 0.000000
# 4 0.000000 0.000000 0.000000 0.125561 0.000000 0.000000
# 5 0.000000 0.000000 0.000000 0.000000 0.125561 0.000000
# 6 0.000000 0.000000 0.000000 0.000000 0.000000 0.044301
#
#
# Mechanical properties :
#
#
# Convention : Reuss Voigt Hill
#
# Bulk Modulus (GPa) = 48.15383 48.97797 48.56590
# Shear Modulus (GPa) = 12.92094 17.08361 15.00227
#
# Velocity S-wave (km/s) = 2.57542 2.96136 2.77511
# Velocity P-wave (km/s) = 5.79335 6.06920 5.93288
#
# Compressibility (1/GPa) = 0.02076678
#
# Stress axis : x y z
#
# Youngs Moduli (GPa) = 49.78988 49.78988 79.83408
#
# Poissons Ratio (x) = 0.41577 0.30391
# Poissons Ratio (y) = 0.41577 0.30391
# Poissons Ratio (z) = 0.18954 0.18954
#
# Static dielectric constant tensor:
#      x y z
#    x 1.732630 0.000000 0.000000 
#    y 0.000000 1.732630 0.000000 
#    z 0.000000 0.000000 1.753330 
# 
# From -- ./inp_files/5172.got.cif
#   From: 2010.05.17/outbox.cif.g08.bks.cpg/sg112_3_cif.got.tgz:5172.got - 2010.05.20 10:59:04.
