data_PCOD9554981
_publ_section_title
;
Structure prediction by ZEFSAII (Michael W. Deem and Ramdas Pophale) SiO2 
 PCOD9554981
Probable space group: P -4 2 C
;
_chemical_formula_sum "Si O2"
_cell_formula_units_Z 64
_cell_length_a 11.824665
_cell_length_b 11.824665
_cell_length_c 26.638988
_cell_angle_alpha 90.000000
_cell_angle_beta 90.000000
_cell_angle_gamma 90.000000
_cell_volume 3724.735290
_symmetry_space_group_name_H-M "P -4 2 C"
_symmetry_group_IT_number 112
_symmetry_cell_setting 'tetragonal'
loop_
_space_group_symop_operation_xyz
x,y,z
y,-x,-z
-x,-y,z
-y,x,-z
x,-y,1/2-z
-x,y,1/2-z
-y,-x,1/2+z
y,x,1/2+z
loop_
_atom_site_type_symbol
_atom_site_label
_atom_site_fract_x
_atom_site_fract_y
_atom_site_fract_z
Si Si1 0.043725 0.828849 0.015373
Si Si2 0.222506 0.132900 0.140340
Si Si3 0.182357 0.127935 0.385144
Si Si4 0.873117 0.455768 0.806333
Si Si5 0.350520 0.156968 0.041455
Si Si6 0.566369 0.783973 0.401526
Si Si7 0.861570 0.995437 0.807358
Si Si8 0.626018 0.606547 0.479843
O O1 0.100062 0.835546 0.069760
O O2 0.053031 0.709668 0.986910
O O3 0.918719 0.880131 0.016040
O O4 0.321040 0.127349 0.182933
O O5 0.278590 0.188303 0.091212
O O6 0.106230 0.179855 0.162681
O O7 0.192336 0.006601 0.121680
O O8 0.308648 0.167063 0.395966
O O9 0.120403 0.171273 0.335000
O O10 0.851097 0.500000 0.750000
O O11 0.788829 0.511047 0.846674
O O12 0.000000 0.500000 0.819257
O O13 0.478349 0.147545 0.062535
O O14 0.346565 0.256941 0.000714
O O15 0.583957 0.664554 0.429145
O O16 0.824870 0.000000 0.750000
O O17 0.000000 0.000000 0.807598
O O18 0.633270 0.471527 0.479239
#
# Coordination Sequence:
#
# PCOD9554981 Si02
#       8
#     8   8   8   8   8   8   8   8
#     4  11  21  31  48  69 101 143 176 203 249 311
#     4  10  19  32  45  67  99 132 172 207 251 310
#     4  11  19  31  47  69  98 132 173 208 251 305
#     4  10  20  29  46  70 103 138 168 207 261 306
#     4  10  19  32  47  73  99 130 166 206 254 306
#     4  10  20  32  50  72  99 133 167 209 254 313
#     4   9  20  31  47  66  95 134 172 216 253 298
#     4   9  18  34  54  75  99 128 163 207 262 312
#
# _framework density 17.182428000000002
#
# number of rings (size 3 to 8) (size 9 to 14) (size 15 to 20)
#    0.000    2.000    3.750    0.750    5.250    1.000 
#    0.000    0.000    0.000    0.000    0.000   15.750 
#    0.000    1.000    0.000    0.000    0.000    0.000 
#
# Total GULP energy -356461.297654 kJ/mol
# GULP energy per Si atom -5569.707776 kJ/mol
# Density = 1.714332 g / cm^3
# Si number density = 17.182428 Si / 1000 Ang^3
#
#
#
# Elastic Constant Matrix: (Units=GPa)
#
#
# Indices 1 2 3 4 5 6 
#
# 1 59.4789 5.1907 24.5717 0.0000 0.0000 0.0000
# 2 5.1907 59.4789 24.5717 0.0000 0.0000 0.0000
# 3 24.5717 24.5717 97.6260 0.0000 0.0000 0.0000
# 4 0.0000 0.0000 0.0000 19.6204 0.0000 0.0000
# 5 0.0000 0.0000 0.0000 0.0000 19.6204 0.0000
# 6 0.0000 0.0000 0.0000 0.0000 0.0000 14.5261
#
#
#
# Elastic Compliance Matrix: (Units=1/GPa)
#
#
# Indices 1 2 3 4 5 6 
#
# 1 0.018770 0.000350 -0.004812 0.000000 0.000000 0.000000
# 2 0.000350 0.018770 -0.004812 0.000000 0.000000 0.000000
# 3 -0.004812 -0.004812 0.012666 0.000000 0.000000 0.000000
# 4 0.000000 0.000000 0.000000 0.050967 0.000000 0.000000
# 5 0.000000 0.000000 0.000000 0.000000 0.050967 0.000000
# 6 0.000000 0.000000 0.000000 0.000000 0.000000 0.068842
#
#
# Mechanical properties :
#
#
# Convention : Reuss Voigt Hill
#
# Bulk Modulus (GPa) = 31.58910 36.13911 33.86411
# Shear Modulus (GPa) = 19.99325 21.57002 20.78164
#
# Velocity S-wave (km/s) = 3.41484 3.54694 3.48152
# Velocity P-wave (km/s) = 5.82860 6.15245 5.99271
#
# Compressibility (1/GPa) = 0.03165649
#
# Stress axis : x y z
#
# Youngs Moduli (GPa) = 53.27583 53.27583 78.95358
#
# Poissons Ratio (x) = -0.01865 0.37996
# Poissons Ratio (y) = -0.01865 0.37996
# Poissons Ratio (z) = 0.25639 0.25639
#
# Static dielectric constant tensor:
#      x y z
#    x 1.603600 0.000000 0.000000 
#    y 0.000000 1.603600 0.000000 
#    z 0.000000 0.000000 1.611130 
# 
# From -- ./inp_files/5977.got.cif
#   From: 2010.05.17/outbox.cif.g08.bks.cpg/sg112_3_cif.got.tgz:5977.got - 2010.05.20 10:59:04.
