data_PCOD9554544
_publ_section_title
;
Structure prediction by ZEFSAII (Michael W. Deem and Ramdas Pophale) SiO2 
 PCOD9554544
Probable space group: I 41 C D
;
_chemical_formula_sum "Si O2"
_cell_formula_units_Z 96
_cell_length_a 13.891972
_cell_length_b 13.891972
_cell_length_c 19.485470
_cell_angle_alpha 90.000000
_cell_angle_beta 90.000000
_cell_angle_gamma 90.000000
_cell_volume 3760.440178
_symmetry_space_group_name_H-M "I 41 C D"
_symmetry_group_IT_number 110
_symmetry_cell_setting 'tetragonal'
loop_
_space_group_symop_operation_xyz
x,y,z
-y,1/2+x,1/4+z
-x,-y,z
y,1/2-x,1/4+z
-x,y,1/2+z
x,-y,1/2+z
1/2-y,-x,1/4+z
1/2+y,x,1/4+z
1/2+x,1/2+y,1/2+z
1/2-y,x,3/4+z
1/2-x,1/2-y,1/2+z
1/2+y,-x,3/4+z
1/2-x,1/2+y,z
1/2+x,1/2-y,z
-y,1/2-x,3/4+z
y,1/2+x,3/4+z
loop_
_atom_site_type_symbol
_atom_site_label
_atom_site_fract_x
_atom_site_fract_y
_atom_site_fract_z
Si Si1 0.241940 0.182819 0.900300
Si Si2 0.995036 0.850218 0.086576
Si Si3 0.781769 0.936820 0.216408
Si Si4 0.960630 0.358284 0.737800
Si Si5 0.500000 0.000000 0.447872
Si Si6 0.943282 0.211093 0.336020
Si Si7 0.000000 0.500000 0.122882
O O1 0.280547 0.084858 0.867421
O O2 0.332869 0.234317 0.931789
O O3 0.170072 0.228368 0.845923
O O4 0.177763 0.142723 0.961904
O O5 0.934943 0.929350 0.044247
O O6 0.037258 0.910294 0.150202
O O7 0.053827 0.784521 0.033616
O O8 0.747036 0.007768 0.156276
O O9 0.896634 0.959139 0.228225
O O10 0.016529 0.271731 0.773112
O O11 0.015414 0.410471 0.675350
O O12 0.970062 0.097102 0.332744
#
# Coordination Sequence:
#
# PCOD9554544 Si02
#       7
#    16  16  16  16   8  16   8
#     4  10  24  42  64 112 140 176 252 292 360 440
#     4  11  22  45  73  99 140 189 239 298 358 435
#     4  11  23  44  72 102 142 188 240 302 359 435
#     4  11  22  45  73  99 140 189 239 298 358 435
#     4  10  23  44  77 106 142 193 241 296 376 420
#     4  11  23  44  72 102 142 188 240 302 359 435
#     4  10  23  44  77 106 142 193 241 296 376 420
#
# _framework density 25.528926999999999
#
# number of rings (size 3 to 8) (size 9 to 14) (size 15 to 20)
#    0.000    1.333    6.667    0.500    0.000    5.333 
#    6.000    8.333    0.000    0.000    0.000    0.000 
#    0.000    0.000    0.000    0.000    0.000    0.000 
#
# Total GULP energy -268495.665230 kJ/mol
# GULP energy per Si atom -5593.659692 kJ/mol
# Density = 2.547082 g / cm^3
# Si number density = 25.528927 Si / 1000 Ang^3
#
#
#
# Elastic Constant Matrix: (Units=GPa)
#
#
# Indices 1 2 3 4 5 6 
#
# 1 103.2816 23.5879 39.1448 0.0000 0.0000 0.0000
# 2 23.5879 103.2816 39.1448 0.0000 0.0000 0.0000
# 3 39.1448 39.1448 63.9296 0.0000 0.0000 0.0000
# 4 0.0000 0.0000 0.0000 62.2311 0.0000 0.0000
# 5 0.0000 0.0000 0.0000 0.0000 62.2311 0.0000
# 6 0.0000 0.0000 0.0000 0.0000 0.0000 46.5690
#
#
#
# Elastic Compliance Matrix: (Units=1/GPa)
#
#
# Indices 1 2 3 4 5 6 
#
# 1 0.012609 0.000061 -0.007757 0.000000 0.000000 0.000000
# 2 0.000061 0.012609 -0.007757 0.000000 0.000000 0.000000
# 3 -0.007757 -0.007757 0.025142 0.000000 0.000000 0.000000
# 4 0.000000 0.000000 0.000000 0.016069 0.000000 0.000000
# 5 0.000000 0.000000 0.000000 0.000000 0.016069 0.000000
# 6 0.000000 0.000000 0.000000 0.000000 0.000000 0.021474
#
#
# Mechanical properties :
#
#
# Convention : Reuss Voigt Hill
#
# Bulk Modulus (GPa) = 51.41225 52.69422 52.05323
# Shear Modulus (GPa) = 35.36982 45.44727 40.40855
#
# Velocity S-wave (km/s) = 3.72624 4.22385 3.98283
# Velocity P-wave (km/s) = 6.22059 6.66886 6.44862
#
# Compressibility (1/GPa) = 0.01945062
#
# Stress axis : x y z
#
# Youngs Moduli (GPa) = 79.31097 79.31097 39.77378
#
# Poissons Ratio (x) = -0.00480 0.30854
# Poissons Ratio (y) = -0.00480 0.30854
# Poissons Ratio (z) = 0.61525 0.61525
#
# Static dielectric constant tensor:
#      x y z
#    x 1.934040 0.000000 0.000000 
#    y 0.000000 1.934040 0.000000 
#    z 0.000000 0.000000 2.130950 
# 
# From -- ./inp_files/2630.got.cif
#   From: 2010.05.17/outbox.cif.g08.bks.cpg/sg110_2_cif.got.tgz:2630.got - 2010.05.20 10:54:03.
