data_PCOD9554567
_publ_section_title
;
Structure prediction by ZEFSAII (Michael W. Deem and Ramdas Pophale) SiO2 
 PCOD9554567
Probable space group: I 41 C D
;
_chemical_formula_sum "Si O2"
_cell_formula_units_Z 80
_cell_length_a 13.783094
_cell_length_b 13.783094
_cell_length_c 18.687690
_cell_angle_alpha 90.000000
_cell_angle_beta 90.000000
_cell_angle_gamma 90.000000
_cell_volume 3550.169244
_symmetry_space_group_name_H-M "I 41 C D"
_symmetry_group_IT_number 110
_symmetry_cell_setting 'tetragonal'
loop_
_space_group_symop_operation_xyz
x,y,z
-y,1/2+x,1/4+z
-x,-y,z
y,1/2-x,1/4+z
-x,y,1/2+z
x,-y,1/2+z
1/2-y,-x,1/4+z
1/2+y,x,1/4+z
1/2+x,1/2+y,1/2+z
1/2-y,x,3/4+z
1/2-x,1/2-y,1/2+z
1/2+y,-x,3/4+z
1/2-x,1/2+y,z
1/2+x,1/2-y,z
-y,1/2-x,3/4+z
y,1/2+x,3/4+z
loop_
_atom_site_type_symbol
_atom_site_label
_atom_site_fract_x
_atom_site_fract_y
_atom_site_fract_z
Si Si1 0.624628 0.668757 0.357350
Si Si2 0.229076 0.672163 0.118646
Si Si3 0.796955 0.987236 0.009828
Si Si4 0.867387 0.536980 0.726676
Si Si5 0.990349 0.266978 0.099035
O O1 0.723727 0.722054 0.380429
O O2 0.568054 0.739441 0.304773
O O3 0.552360 0.638759 0.421342
O O4 0.657091 0.569112 0.319929
O O5 0.284684 0.608664 0.058427
O O6 0.212028 0.611108 0.191196
O O7 0.117506 0.690330 0.095658
O O8 0.901312 0.035138 0.990924
O O9 0.749762 0.979832 0.931382
O O10 0.828848 0.505166 0.803025
#
# Coordination Sequence:
#
# PCOD9554567 Si02
#       5
#    16  16  16  16  16
#     4  11  25  46  74 101 152 195 239 316 378 444
#     4  10  24  46  71 104 146 199 241 305 381 443
#     4  10  24  44  71 105 146 187 255 299 373 451
#     4  10  24  44  71 106 148 186 253 304 368 453
#     4  11  25  40  74 106 138 199 244 302 375 443
#
# _framework density 22.534137999999999
#
# number of rings (size 3 to 8) (size 9 to 14) (size 15 to 20)
#    0.000    1.600    2.000    0.000   11.200    7.200 
#    0.000    0.000    4.400    0.000    0.000    0.000 
#    0.000    0.000    0.000    0.000    0.000    0.000 
#
# Total GULP energy -223554.331436 kJ/mol
# GULP energy per Si atom -5588.858286 kJ/mol
# Density = 2.248285 g / cm^3
# Si number density = 22.534138 Si / 1000 Ang^3
#
#
#
# Elastic Constant Matrix: (Units=GPa)
#
#
# Indices 1 2 3 4 5 6 
#
# 1 134.9362 33.2354 17.8958 0.0000 0.0000 0.0000
# 2 33.2354 134.9362 17.8958 0.0000 0.0000 0.0000
# 3 17.8958 17.8958 74.7098 0.0000 0.0000 0.0000
# 4 0.0000 0.0000 0.0000 31.3767 0.0000 0.0000
# 5 0.0000 0.0000 0.0000 0.0000 31.3767 0.0000
# 6 0.0000 0.0000 0.0000 0.0000 0.0000 27.2968
#
#
#
# Elastic Compliance Matrix: (Units=1/GPa)
#
#
# Indices 1 2 3 4 5 6 
#
# 1 0.008049 -0.001784 -0.001501 0.000000 0.000000 0.000000
# 2 -0.001784 0.008049 -0.001501 0.000000 0.000000 0.000000
# 3 -0.001501 -0.001501 0.014104 0.000000 0.000000 0.000000
# 4 0.000000 0.000000 0.000000 0.031871 0.000000 0.000000
# 5 0.000000 0.000000 0.000000 0.000000 0.031871 0.000000
# 6 0.000000 0.000000 0.000000 0.000000 0.000000 0.036634
#
#
# Mechanical properties :
#
#
# Convention : Reuss Voigt Hill
#
# Bulk Modulus (GPa) = 48.46811 53.62623 51.04717
# Shear Modulus (GPa) = 34.00747 36.38037 35.19392
#
# Velocity S-wave (km/s) = 3.88900 4.02239 3.95625
# Velocity P-wave (km/s) = 6.45919 6.73960 6.60089
#
# Compressibility (1/GPa) = 0.02063212
#
# Stress axis : x y z
#
# Youngs Moduli (GPa) = 124.23513 124.23513 70.90105
#
# Poissons Ratio (x) = 0.22158 0.10641
# Poissons Ratio (y) = 0.22158 0.10641
# Poissons Ratio (z) = 0.18646 0.18646
#
# Static dielectric constant tensor:
#      x y z
#    x 1.902560 0.000000 0.000000 
#    y 0.000000 1.902560 0.000000 
#    z 0.000000 0.000000 1.814060 
# 
# From -- ./inp_files/2097.got.cif
#   From: 2010.05.17/outbox.cif.g08.bks.cpg/sg110_2_cif.got.tgz:2097.got - 2010.05.20 10:54:03.
