data_PCOD9554397
_publ_section_title
;
Structure prediction by ZEFSAII (Michael W. Deem and Ramdas Pophale) SiO2 
 PCOD9554397
Probable space group: I 41 C D
;
_chemical_formula_sum "Si O2"
_cell_formula_units_Z 120
_cell_length_a 26.119931
_cell_length_b 26.119931
_cell_length_c 7.736811
_cell_angle_alpha 90.000000
_cell_angle_beta 90.000000
_cell_angle_gamma 90.000000
_cell_volume 5278.445459
_symmetry_space_group_name_H-M "I 41 C D"
_symmetry_group_IT_number 110
_symmetry_cell_setting 'tetragonal'
loop_
_space_group_symop_operation_xyz
x,y,z
-y,1/2+x,1/4+z
-x,-y,z
y,1/2-x,1/4+z
-x,y,1/2+z
x,-y,1/2+z
1/2-y,-x,1/4+z
1/2+y,x,1/4+z
1/2+x,1/2+y,1/2+z
1/2-y,x,3/4+z
1/2-x,1/2-y,1/2+z
1/2+y,-x,3/4+z
1/2-x,1/2+y,z
1/2+x,1/2-y,z
-y,1/2-x,3/4+z
y,1/2+x,3/4+z
loop_
_atom_site_type_symbol
_atom_site_label
_atom_site_fract_x
_atom_site_fract_y
_atom_site_fract_z
Si Si1 0.387387 0.962464 0.924720
Si Si2 0.700710 0.710140 0.017488
Si Si3 0.500000 0.000000 0.444952
Si Si4 0.061354 0.831993 0.822886
Si Si5 0.631135 0.420753 0.910767
Si Si6 0.385288 0.843864 0.638019
Si Si7 0.113643 0.270479 0.334713
Si Si8 0.111494 0.021854 0.274859
O O1 0.443472 0.985123 0.869014
O O2 0.353784 0.940307 0.768284
O O3 0.394287 0.918250 0.071047
O O4 0.355698 0.011470 0.989329
O O5 0.756653 0.702040 0.938650
O O6 0.673512 0.655050 0.030511
O O7 0.667508 0.741687 0.872328
O O8 0.489936 0.948111 0.549720
O O9 0.115424 0.855939 0.763343
O O10 0.070340 0.771983 0.800286
O O11 0.642751 0.469798 0.789748
O O12 0.682463 0.388688 0.951047
O O13 0.616517 0.450002 0.090536
O O14 0.397843 0.794985 0.521859
O O15 0.438683 0.870722 0.671931
#
# Coordination Sequence:
#
# PCOD9554397 Si02
#       8
#    16  16   8  16  16  16  16  16
#     4  11  24  38  65  99 134 175 224 278 332 414
#     4   9  18  38  64  88 112 157 212 271 334 385
#     4  10  20  34  56  92 126 160 208 262 320 376
#     4  11  23  40  66  95 132 176 227 275 340 400
#     4  10  23  38  59  92 128 170 220 263 336 397
#     4   9  19  38  62  84 123 169 205 264 338 381
#     4   9  21  43  64  84 133 175 215 278 342 400
#     4  10  20  34  58  84 129 168 206 261 322 397
#
# _framework density 22.733965999999999
#
# number of rings (size 3 to 8) (size 9 to 14) (size 15 to 20)
#    0.000    2.133    1.333    0.800    5.600    4.800 
#    7.200    0.000    2.933    0.000    0.000    0.000 
#    0.000    0.000    0.000    0.000    0.000    0.000 
#
# Total GULP energy -334465.467886 kJ/mol
# GULP energy per Si atom -5574.424465 kJ/mol
# Density = 2.268222 g / cm^3
# Si number density = 22.733966 Si / 1000 Ang^3
#
#
#
# Elastic Constant Matrix: (Units=GPa)
#
#
# Indices 1 2 3 4 5 6 
#
# 1 92.0962 13.3792 12.3264 0.0000 0.0000 0.0000
# 2 13.3792 92.0962 12.3264 0.0000 0.0000 0.0000
# 3 12.3264 12.3264 63.3211 0.0000 0.0000 0.0000
# 4 0.0000 0.0000 0.0000 17.5654 0.0000 0.0000
# 5 0.0000 0.0000 0.0000 0.0000 17.5654 0.0000
# 6 0.0000 0.0000 0.0000 0.0000 0.0000 41.8233
#
#
#
# Elastic Compliance Matrix: (Units=1/GPa)
#
#
# Indices 1 2 3 4 5 6 
#
# 1 0.011318 -0.001385 -0.001934 0.000000 0.000000 0.000000
# 2 -0.001385 0.011318 -0.001934 0.000000 0.000000 0.000000
# 3 -0.001934 -0.001934 0.016545 0.000000 0.000000 0.000000
# 4 0.000000 0.000000 0.000000 0.056930 0.000000 0.000000
# 5 0.000000 0.000000 0.000000 0.000000 0.056930 0.000000
# 6 0.000000 0.000000 0.000000 0.000000 0.000000 0.023910
#
#
# Mechanical properties :
#
#
# Convention : Reuss Voigt Hill
#
# Bulk Modulus (GPa) = 34.87156 35.95307 35.41231
# Shear Modulus (GPa) = 25.37861 29.35624 27.36743
#
# Velocity S-wave (km/s) = 3.34478 3.59736 3.47336
# Velocity P-wave (km/s) = 5.50354 5.75358 5.62995
#
# Compressibility (1/GPa) = 0.02867666
#
# Stress axis : x y z
#
# Youngs Moduli (GPa) = 88.35263 88.35263 60.44004
#
# Poissons Ratio (x) = 0.12241 0.11687
# Poissons Ratio (y) = 0.12241 0.11687
# Poissons Ratio (z) = 0.17084 0.17084
#
# Static dielectric constant tensor:
#      x y z
#    x 1.902560 0.000000 0.000000 
#    y 0.000000 1.902560 0.000000 
#    z 0.000000 0.000000 1.920360 
# 
# From -- ./inp_files/550.got.cif
#   From: 2010.05.17/outbox.cif.g08.bks.cpg/sg110_1_cif.got.tgz:550.got - 2010.05.20 10:54:03.
