data_PCOD9554076
_publ_section_title
;
Structure prediction by ZEFSAII (Michael W. Deem and Ramdas Pophale) SiO2 
 PCOD9554076
Probable space group: I 41 M D
;
_chemical_formula_sum "Si O2"
_cell_formula_units_Z 48
_cell_length_a 13.582440
_cell_length_b 13.582440
_cell_length_c 15.982666
_cell_angle_alpha 90.000000
_cell_angle_beta 90.000000
_cell_angle_gamma 90.000000
_cell_volume 2948.524999
_symmetry_space_group_name_H-M "I 41 M D"
_symmetry_group_IT_number 109
_symmetry_cell_setting 'tetragonal'
loop_
_space_group_symop_operation_xyz
x,y,z
-y,1/2+x,1/4+z
-x,-y,z
y,1/2-x,1/4+z
-x,y,z
x,-y,z
-y,1/2-x,1/4+z
y,1/2+x,1/4+z
1/2+x,1/2+y,1/2+z
1/2-y,x,3/4+z
1/2-x,1/2-y,1/2+z
1/2+y,-x,3/4+z
1/2-x,1/2+y,1/2+z
1/2+x,1/2-y,1/2+z
1/2-y,-x,3/4+z
1/2+y,x,3/4+z
loop_
_atom_site_type_symbol
_atom_site_label
_atom_site_fract_x
_atom_site_fract_y
_atom_site_fract_z
Si Si1 0.809926 0.690074 0.280920
Si Si2 0.612462 0.882104 0.958405
Si Si3 0.112462 0.117896 0.853435
O O1 0.831847 0.804873 0.265567
O O2 0.865157 0.651277 0.363406
O O3 0.848722 0.634843 0.198434
O O4 0.695127 0.668153 0.296273
O O5 0.500000 0.858282 0.980402
O O6 0.625537 0.000000 0.962915
O O7 0.000000 0.141718 0.831438
O O8 0.125537 0.000000 0.848925
#
# Coordination Sequence:
#
# PCOD9554076 Si02
#       3
#    16  16  16
#     4  10  18  31  50  71  96 122 154 196 236 275
#     4  10  19  31  49  72  96 123 156 194 235 277
#     4  10  19  31  49  72  96 123 156 194 235 277
#
# _framework density 16.279325
#
# number of rings (size 3 to 8) (size 9 to 14) (size 15 to 20)
#    0.000    2.000    0.000    8.000    0.000    2.667 
#    0.000    6.667    0.000    5.000    0.000    0.000 
#    0.000    0.000    0.000    0.000    0.000    0.000 
#
# Total GULP energy -133918.207459 kJ/mol
# GULP energy per Si atom -5579.925311 kJ/mol
# Density = 1.624227 g / cm^3
# Si number density = 16.279325 Si / 1000 Ang^3
#
#
#
# Elastic Constant Matrix: (Units=GPa)
#
#
# Indices 1 2 3 4 5 6 
#
# 1 140.1824 84.1082 35.7160 0.0000 0.0000 0.0000
# 2 84.1082 140.1824 35.7160 0.0000 0.0000 0.0000
# 3 35.7160 35.7160 35.9577 0.0000 0.0000 0.0000
# 4 0.0000 0.0000 0.0000 15.1662 0.0000 0.0000
# 5 0.0000 0.0000 0.0000 0.0000 15.1662 0.0000
# 6 0.0000 0.0000 0.0000 0.0000 0.0000 33.0415
#
#
#
# Elastic Compliance Matrix: (Units=1/GPa)
#
#
# Indices 1 2 3 4 5 6 
#
# 1 0.012178 -0.005656 -0.006478 0.000000 0.000000 0.000000
# 2 -0.005656 0.012178 -0.006478 0.000000 0.000000 0.000000
# 3 -0.006478 -0.006478 0.040679 0.000000 0.000000 0.000000
# 4 0.000000 0.000000 0.000000 0.065936 0.000000 0.000000
# 5 0.000000 0.000000 0.000000 0.000000 0.065936 0.000000
# 6 0.000000 0.000000 0.000000 0.000000 0.000000 0.030265
#
#
# Mechanical properties :
#
#
# Convention : Reuss Voigt Hill
#
# Bulk Modulus (GPa) = 35.95689 69.71144 52.83417
# Shear Modulus (GPa) = 18.27058 23.39360 20.83209
#
# Velocity S-wave (km/s) = 3.35374 3.79491 3.58112
# Velocity P-wave (km/s) = 6.09361 7.88142 7.04446
#
# Compressibility (1/GPa) = 0.02781108
#
# Stress axis : x y z
#
# Youngs Moduli (GPa) = 82.11856 82.11855 24.58283
#
# Poissons Ratio (x) = 0.46446 0.15924
# Poissons Ratio (y) = 0.46446 0.15924
# Poissons Ratio (z) = 0.53194 0.53194
#
# Static dielectric constant tensor:
#      x y z
#    x 1.549410 0.000000 0.000000 
#    y 0.000000 1.549410 0.000000 
#    z 0.000000 0.000000 1.520560 
# 
# From -- ./inp_files/1750.got.cif
#   From: 2010.05.17/outbox.cif.g08.bks.cpg/sg109_1_cif.got.tgz:1750.got - 2010.05.20 10:51:12.
