data_PCOD9554165
_publ_section_title
;
Structure prediction by ZEFSAII (Michael W. Deem and Ramdas Pophale) SiO2 
 PCOD9554165
Probable space group: I 41 M D
;
_chemical_formula_sum "Si O2"
_cell_formula_units_Z 112
_cell_length_a 14.602946
_cell_length_b 14.602946
_cell_length_c 24.354965
_cell_angle_alpha 90.000000
_cell_angle_beta 90.000000
_cell_angle_gamma 90.000000
_cell_volume 5193.599643
_symmetry_space_group_name_H-M "I 41 M D"
_symmetry_group_IT_number 109
_symmetry_cell_setting 'tetragonal'
loop_
_space_group_symop_operation_xyz
x,y,z
-y,1/2+x,1/4+z
-x,-y,z
y,1/2-x,1/4+z
-x,y,z
x,-y,z
-y,1/2-x,1/4+z
y,1/2+x,1/4+z
1/2+x,1/2+y,1/2+z
1/2-y,x,3/4+z
1/2-x,1/2-y,1/2+z
1/2+y,-x,3/4+z
1/2-x,1/2+y,1/2+z
1/2+x,1/2-y,1/2+z
1/2-y,-x,3/4+z
1/2+y,x,3/4+z
loop_
_atom_site_type_symbol
_atom_site_label
_atom_site_fract_x
_atom_site_fract_y
_atom_site_fract_z
Si Si1 0.104159 0.389600 0.373740
Si Si2 0.609269 0.609269 0.846007
Si Si3 0.602945 0.653885 0.502042
Si Si4 0.897055 0.346115 0.939972
Si Si5 0.604159 0.389600 0.068274
Si Si6 0.105325 0.803175 0.233458
Si Si7 0.303175 0.605325 0.958556
O O1 0.098422 0.500000 0.379217
O O2 0.158867 0.376932 0.317219
O O3 0.151136 0.353635 0.428981
O O4 0.000000 0.354675 0.366783
O O5 0.500000 0.623128 0.854255
O O6 0.623128 0.500000 0.837759
O O7 0.642503 0.661745 0.791642
O O8 0.661745 0.642503 0.900372
O O9 0.500000 0.612320 0.496481
O O10 0.599538 0.750000 0.471007
O O11 0.693493 0.606342 0.478718
O O12 0.876932 0.341133 0.874795
O O13 0.806507 0.393658 0.963296
O O14 0.000000 0.387680 0.945533
O O15 0.500000 0.354675 0.075231
O O16 0.598422 0.500000 0.062797
O O17 0.651136 0.353635 0.013033
O O18 0.000000 0.833947 0.235835
O O19 0.333947 0.500000 0.956179
#
# Coordination Sequence:
#
# PCOD9554165 Si02
#       7
#    16  16  16  16  16  16  16
#     4   9  18  35  59  85 115 153 194 238 297 368
#     4   9  18  34  56  88 132 170 200 243 302 372
#     4  10  22  39  57  78 110 154 201 250 304 359
#     4  10  22  39  57  78 110 154 201 250 304 359
#     4   9  18  35  59  85 115 153 194 238 297 368
#     4  10  20  34  57  88 118 154 200 248 303 365
#     4  10  20  34  57  88 118 154 200 248 303 365
#
# _framework density 21.565006
#
# number of rings (size 3 to 8) (size 9 to 14) (size 15 to 20)
#    0.000    2.429    0.000    1.714    0.000    8.571 
#    0.000    0.000    0.000    8.571    0.000   16.000 
#    0.000    0.000    0.000    0.000    0.000    0.000 
#
# Total GULP energy -312249.695515 kJ/mol
# GULP energy per Si atom -5575.887420 kJ/mol
# Density = 2.151592 g / cm^3
# Si number density = 21.565006 Si / 1000 Ang^3
#
#
#
# Elastic Constant Matrix: (Units=GPa)
#
#
# Indices 1 2 3 4 5 6 
#
# 1 104.0059 1.0506 61.9053 0.0000 0.0000 0.0000
# 2 1.0506 104.0059 61.9053 0.0000 0.0000 0.0000
# 3 61.9053 61.9053 179.2872 0.0000 0.0000 0.0000
# 4 0.0000 0.0000 0.0000 36.9223 0.0000 0.0000
# 5 0.0000 0.0000 0.0000 0.0000 36.9223 0.0000
# 6 0.0000 0.0000 0.0000 0.0000 0.0000 12.8572
#
#
#
# Elastic Compliance Matrix: (Units=1/GPa)
#
#
# Indices 1 2 3 4 5 6 
#
# 1 0.012881 0.003168 -0.005542 0.000000 0.000000 0.000000
# 2 0.003168 0.012881 -0.005542 0.000000 0.000000 0.000000
# 3 -0.005542 -0.005542 0.009405 0.000000 0.000000 0.000000
# 4 0.000000 0.000000 0.000000 0.027084 0.000000 0.000000
# 5 0.000000 0.000000 0.000000 0.000000 0.027084 0.000000
# 6 0.000000 0.000000 0.000000 0.000000 0.000000 0.077777
#
#
# Mechanical properties :
#
#
# Convention : Reuss Voigt Hill
#
# Bulk Modulus (GPa) = 51.71413 70.78018 61.24716
# Shear Modulus (GPa) = 26.40079 34.83622 30.61850
#
# Velocity S-wave (km/s) = 3.50271 4.02357 3.77214
# Velocity P-wave (km/s) = 6.35542 7.38096 6.88730
#
# Compressibility (1/GPa) = 0.01933707
#
# Stress axis : x y z
#
# Youngs Moduli (GPa) = 77.63173 77.63173 106.33083
#
# Poissons Ratio (x) = -0.24597 0.58926
# Poissons Ratio (y) = -0.24597 0.58926
# Poissons Ratio (z) = 0.43021 0.43021
#
# Static dielectric constant tensor:
#      x y z
#    x 1.833360 0.000000 0.000000 
#    y 0.000000 1.833360 0.000000 
#    z 0.000000 0.000000 1.778570 
# 
# From -- ./inp_files/4481.got.cif
#   From: 2010.05.17/outbox.cif.g08.bks.cpg/sg109_3_cif.got.tgz:4481.got - 2010.05.20 10:51:12.
