data_PCOD9554762
_publ_section_title
;
Structure prediction by ZEFSAII (Michael W. Deem and Ramdas Pophale) SiO2 
 PCOD9554762
Probable space group: P -4 2 M 
;
_chemical_formula_sum "Si O2"
_cell_formula_units_Z 48
_cell_length_a 13.050050
_cell_length_b 13.050050
_cell_length_c 17.331836
_cell_angle_alpha 90.000000
_cell_angle_beta 90.000000
_cell_angle_gamma 90.000000
_cell_volume 2951.677618
_symmetry_space_group_name_H-M "P -4 2 M "
_symmetry_group_IT_number 111
_symmetry_cell_setting 'tetragonal'
loop_
_space_group_symop_operation_xyz
x,y,z
y,-x,-z
-x,-y,z
-y,x,-z
x,-y,-z
-x,y,-z
-y,-x,z
y,x,z
loop_
_atom_site_type_symbol
_atom_site_label
_atom_site_fract_x
_atom_site_fract_y
_atom_site_fract_z
Si Si1 0.732707 0.434957 0.074619
Si Si2 0.623689 0.795649 0.172725
Si Si3 0.421887 0.745012 0.430576
Si Si4 0.880986 0.288746 0.985411
Si Si5 0.889675 0.721868 0.468061
Si Si6 0.107708 0.440467 0.331199
O O1 0.647094 0.352907 0.095886
O O2 0.756718 0.514264 0.141674
O O3 0.696716 0.500000 0.000000
O O4 0.831634 0.372635 0.043491
O O5 0.700696 0.700696 0.186208
O O6 0.670340 0.859615 0.101071
O O7 0.606154 0.860058 0.249504
O O8 0.500000 0.715513 0.500000
O O9 0.351868 0.648132 0.407666
O O10 0.346732 0.829789 0.468521
O O11 0.485295 0.801893 0.363604
O O12 0.813859 0.186142 0.995206
O O13 0.000000 0.274323 0.000000
O O14 0.818084 0.818084 0.450031
O O15 0.902433 0.649197 0.394205
O O16 0.000000 0.752014 0.500000
O O17 0.000000 0.500000 0.326751
#
# Coordination Sequence:
#
# PCOD9554762 Si02
#       6
#     8   8   8   8   8   8
#     4   9  18  32  52  77 105 140 180 219 260 310
#     4  10  22  35  50  79 110 139 175 219 266 317
#     4   9  19  34  54  79 107 138 178 220 255 305
#     4   9  19  35  55  78 105 134 179 228 267 314
#     4  10  19  35  57  80 105 135 177 225 262 309
#     4  11  21  34  56  78 108 146 179 212 267 324
#
# _framework density 16.261938000000001
#
# number of rings (size 3 to 8) (size 9 to 14) (size 15 to 20)
#    0.000    2.333    1.667    2.000    2.333    5.333 
#    0.000    0.000    0.000    1.000    0.000    2.333 
#    0.000    0.000    0.000    0.000    0.000    0.000 
#
# Total GULP energy -267704.348028 kJ/mol
# GULP energy per Si atom -5577.173917 kJ/mol
# Density = 1.622493 g / cm^3
# Si number density = 16.261938 Si / 1000 Ang^3
#
#
#
# Elastic Constant Matrix: (Units=GPa)
#
#
# Indices 1 2 3 4 5 6 
#
# 1 104.1698 83.2953 44.5052 0.0000 0.0000 0.0000
# 2 83.2953 104.1695 44.5058 0.0000 0.0000 0.0000
# 3 44.5052 44.5058 66.9698 0.0000 0.0000 0.0000
# 4 0.0000 0.0000 0.0000 12.7714 0.0000 0.0000
# 5 0.0000 0.0000 0.0000 0.0000 12.7713 0.0000
# 6 0.0000 0.0000 0.0000 0.0000 0.0000 18.9842
#
#
#
# Elastic Compliance Matrix: (Units=1/GPa)
#
#
# Indices 1 2 3 4 5 6 
#
# 1 0.027849 -0.020056 -0.005179 0.000000 0.000000 0.000000
# 2 -0.020056 0.027850 -0.005180 0.000000 0.000000 0.000000
# 3 -0.005179 -0.005180 0.021816 0.000000 0.000000 0.000000
# 4 0.000000 0.000000 0.000000 0.078300 0.000000 0.000000
# 5 0.000000 0.000000 0.000000 0.000000 0.078300 0.000000
# 6 0.000000 0.000000 0.000000 0.000000 0.000000 0.052675
#
#
# Mechanical properties :
#
#
# Convention : Reuss Voigt Hill
#
# Bulk Modulus (GPa) = 59.93066 68.88018 64.40542
# Shear Modulus (GPa) = 14.15701 15.77224 14.96463
#
# Velocity S-wave (km/s) = 2.95373 3.11768 3.03681
# Velocity P-wave (km/s) = 6.96893 7.44369 7.21022
#
# Compressibility (1/GPa) = 0.01668595
#
# Stress axis : x y z
#
# Youngs Moduli (GPa) = 35.90741 35.90687 45.83795
#
# Poissons Ratio (x) = 0.72015 0.23739
# Poissons Ratio (y) = 0.72016 0.23742
# Poissons Ratio (z) = 0.18596 0.18598
#
# Static dielectric constant tensor:
#      x y z
#    x 1.534620 0.000000 0.000000 
#    y 0.000000 1.534620 0.000000 
#    z 0.000000 0.000000 1.529370 
# 
# From -- ./inp_files/3626.got.cif
#   From: 2010.05.17/outbox.cif.g08.bks.cpg/sg111_2_cif.got.tgz:3626.got - 2010.05.20 10:56:05.
