data_PCOD9554626
_publ_section_title
;
Structure prediction by ZEFSAII (Michael W. Deem and Ramdas Pophale) SiO2 
 PCOD9554626
Probable space group: I 41 C D
;
_chemical_formula_sum "Si O2"
_cell_formula_units_Z 96
_cell_length_a 14.074698
_cell_length_b 14.074698
_cell_length_c 20.218825
_cell_angle_alpha 90.000000
_cell_angle_beta 90.000000
_cell_angle_gamma 90.000000
_cell_volume 4005.291079
_symmetry_space_group_name_H-M "I 41 C D"
_symmetry_group_IT_number 110
_symmetry_cell_setting 'tetragonal'
loop_
_space_group_symop_operation_xyz
x,y,z
-y,1/2+x,1/4+z
-x,-y,z
y,1/2-x,1/4+z
-x,y,1/2+z
x,-y,1/2+z
1/2-y,-x,1/4+z
1/2+y,x,1/4+z
1/2+x,1/2+y,1/2+z
1/2-y,x,3/4+z
1/2-x,1/2-y,1/2+z
1/2+y,-x,3/4+z
1/2-x,1/2+y,z
1/2+x,1/2-y,z
-y,1/2-x,3/4+z
y,1/2+x,3/4+z
loop_
_atom_site_type_symbol
_atom_site_label
_atom_site_fract_x
_atom_site_fract_y
_atom_site_fract_z
Si Si1 0.609449 0.134768 0.315560
Si Si2 0.089474 0.675165 0.380078
Si Si3 0.013834 0.802901 0.969209
Si Si4 0.384996 0.985761 0.434415
Si Si5 0.450491 0.398616 0.831637
Si Si6 0.187000 0.738620 0.052005
O O1 0.498237 0.156166 0.329685
O O2 0.630175 0.045450 0.268245
O O3 0.642468 0.103729 0.389537
O O4 0.670322 0.222843 0.288970
O O5 0.047006 0.708810 0.450833
O O6 0.146838 0.579134 0.396968
O O7 0.173815 0.730545 0.343843
O O8 0.014910 0.844524 0.895762
O O9 0.120162 0.782898 0.994639
O O10 0.357600 0.978798 0.510042
O O11 0.500000 0.000000 0.432133
O O12 0.500000 0.500000 0.834385
O O13 0.336629 0.388594 0.833471
#
# Coordination Sequence:
#
# PCOD9554626 Si02
#       6
#    16  16  16  16  16  16
#     4  11  25  50  82 108 158 206 264 330 404 473
#     4  11  25  50  81 112 155 207 263 331 402 478
#     4  12  27  48  77 118 156 205 273 323 396 480
#     4   9  20  47  77  99 148 204 242 320 402 458
#     4  11  26  47  74 112 161 199 262 328 396 462
#     4  12  27  49  80 116 156 210 268 329 397 486
#
# _framework density 23.968295000000001
#
# number of rings (size 3 to 8) (size 9 to 14) (size 15 to 20)
#    0.000    1.000    3.333    3.000    4.667    2.667 
#    3.000    0.000    0.000    0.000    0.000    0.000 
#    0.000    0.000    0.000    0.000    0.000    0.000 
#
# Total GULP energy -267815.758047 kJ/mol
# GULP energy per Si atom -5579.494959 kJ/mol
# Density = 2.391374 g / cm^3
# Si number density = 23.968295 Si / 1000 Ang^3
#
#
#
# Elastic Constant Matrix: (Units=GPa)
#
#
# Indices 1 2 3 4 5 6 
#
# 1 80.5444 21.3854 42.1510 0.0000 0.0000 0.0000
# 2 21.3854 80.5444 42.1510 0.0000 0.0000 0.0000
# 3 42.1510 42.1510 109.6234 0.0000 0.0000 0.0000
# 4 0.0000 0.0000 0.0000 33.9788 0.0000 0.0000
# 5 0.0000 0.0000 0.0000 0.0000 33.9788 0.0000
# 6 0.0000 0.0000 0.0000 0.0000 0.0000 26.2174
#
#
#
# Elastic Compliance Matrix: (Units=1/GPa)
#
#
# Indices 1 2 3 4 5 6 
#
# 1 0.015644 -0.001259 -0.005531 0.000000 0.000000 0.000000
# 2 -0.001259 0.015644 -0.005531 0.000000 0.000000 0.000000
# 3 -0.005531 -0.005531 0.013376 0.000000 0.000000 0.000000
# 4 0.000000 0.000000 0.000000 0.029430 0.000000 0.000000
# 5 0.000000 0.000000 0.000000 0.000000 0.029430 0.000000
# 6 0.000000 0.000000 0.000000 0.000000 0.000000 0.038143
#
#
# Mechanical properties :
#
#
# Convention : Reuss Voigt Hill
#
# Bulk Modulus (GPa) = 49.94656 53.56522 51.75589
# Shear Modulus (GPa) = 28.90427 29.83664 29.37045
#
# Velocity S-wave (km/s) = 3.47643 3.53205 3.50435
# Velocity P-wave (km/s) = 6.08259 6.24746 6.16558
#
# Compressibility (1/GPa) = 0.02002140
#
# Stress axis : x y z
#
# Youngs Moduli (GPa) = 63.92026 63.92026 74.76202
#
# Poissons Ratio (x) = 0.08048 0.41353
# Poissons Ratio (y) = 0.08048 0.41353
# Poissons Ratio (z) = 0.35356 0.35356
#
# Static dielectric constant tensor:
#      x y z
#    x 2.187380 0.000000 0.000000 
#    y 0.000000 2.187380 0.000000 
#    z 0.000000 0.000000 1.902130 
# 
# From -- ./inp_files/2206.got.cif
#   From: 2010.05.17/outbox.cif.g08.bks.cpg/sg110_2_cif.got.tgz:2206.got - 2010.05.20 10:54:03.
