data_PCOD9554139
_publ_section_title
;
Structure prediction by ZEFSAII (Michael W. Deem and Ramdas Pophale) SiO2 
 PCOD9554139
Probable space group: I 41 M D
;
_chemical_formula_sum "Si O2"
_cell_formula_units_Z 112
_cell_length_a 15.220075
_cell_length_b 15.220075
_cell_length_c 25.396808
_cell_angle_alpha 90.000000
_cell_angle_beta 90.000000
_cell_angle_gamma 90.000000
_cell_volume 5883.187919
_symmetry_space_group_name_H-M "I 41 M D"
_symmetry_group_IT_number 109
_symmetry_cell_setting 'tetragonal'
loop_
_space_group_symop_operation_xyz
x,y,z
-y,1/2+x,1/4+z
-x,-y,z
y,1/2-x,1/4+z
-x,y,z
x,-y,z
-y,1/2-x,1/4+z
y,1/2+x,1/4+z
1/2+x,1/2+y,1/2+z
1/2-y,x,3/4+z
1/2-x,1/2-y,1/2+z
1/2+y,-x,3/4+z
1/2-x,1/2+y,1/2+z
1/2+x,1/2-y,1/2+z
1/2-y,-x,3/4+z
1/2+y,x,3/4+z
loop_
_atom_site_type_symbol
_atom_site_label
_atom_site_fract_x
_atom_site_fract_y
_atom_site_fract_z
Si Si1 0.099053 0.893248 0.667390
Si Si2 0.790803 0.144136 0.054450
Si Si3 0.823723 0.105522 0.783491
Si Si4 0.401940 0.893898 0.027365
Si Si5 0.771802 0.402444 0.120335
Si Si6 0.406610 0.839500 0.691687
Si Si7 0.898396 0.860817 0.156186
O O1 0.129419 0.877878 0.727575
O O2 0.177553 0.856429 0.630101
O O3 0.000000 0.860673 0.657629
O O4 0.096213 0.000000 0.662557
O O5 0.840113 0.234258 0.039989
O O6 0.832875 0.113407 0.109472
O O7 0.684633 0.147201 0.054328
O O8 0.816659 0.089510 0.002976
O O9 0.877518 0.152830 0.829515
O O10 0.812784 0.000000 0.790140
O O11 0.500000 0.868052 0.045751
O O12 0.396054 0.876293 0.964350
O O13 0.394039 0.000000 0.033038
O O14 0.747280 0.500000 0.105901
O O15 0.823120 0.396322 0.175832
O O16 0.500000 0.879118 0.675563
O O17 0.395369 0.745215 0.662794
O O18 0.000000 0.884585 0.143984
#
# Coordination Sequence:
#
# PCOD9554139 Si02
#       7
#    16  16  16  16  16  16  16
#     4   9  19  36  55  76 107 149 192 231 275 333
#     4  11  19  31  55  80 108 143 191 231 276 331
#     4  11  21  34  53  79 113 151 187 230 288 352
#     4   9  20  38  56  77 108 145 186 230 279 338
#     4  11  21  33  52  78 106 146 191 229 275 333
#     4  10  20  33  48  74 111 144 175 222 279 331
#     4   9  18  33  54  77 107 147 180 216 276 348
#
# _framework density 19.037298
#
# number of rings (size 3 to 8) (size 9 to 14) (size 15 to 20)
#    0.000    2.000    2.857    2.571    0.000    3.429 
#    0.000    0.714    0.000    3.857    0.000    0.000 
#    0.000    1.143    0.000    0.000    0.000    0.286 
#
# Total GULP energy -311740.388302 kJ/mol
# GULP energy per Si atom -5566.792648 kJ/mol
# Density = 1.899397 g / cm^3
# Si number density = 19.037298 Si / 1000 Ang^3
#
#
#
# Elastic Constant Matrix: (Units=GPa)
#
#
# Indices 1 2 3 4 5 6 
#
# 1 107.8427 25.0138 26.4101 0.0000 0.0000 0.0000
# 2 25.0138 107.8427 26.4101 0.0000 0.0000 0.0000
# 3 26.4101 26.4101 61.7830 0.0000 0.0000 0.0000
# 4 0.0000 0.0000 0.0000 13.1457 0.0000 0.0000
# 5 0.0000 0.0000 0.0000 0.0000 13.1457 0.0000
# 6 0.0000 0.0000 0.0000 0.0000 0.0000 16.9783
#
#
#
# Elastic Compliance Matrix: (Units=1/GPa)
#
#
# Indices 1 2 3 4 5 6 
#
# 1 0.010571 -0.001503 -0.003876 0.000000 0.000000 0.000000
# 2 -0.001503 0.010571 -0.003876 0.000000 0.000000 0.000000
# 3 -0.003876 -0.003876 0.019500 0.000000 0.000000 0.000000
# 4 0.000000 0.000000 0.000000 0.076070 0.000000 0.000000
# 5 0.000000 0.000000 0.000000 0.000000 0.076070 0.000000
# 6 0.000000 0.000000 0.000000 0.000000 0.000000 0.058899
#
#
# Mechanical properties :
#
#
# Convention : Reuss Voigt Hill
#
# Bulk Modulus (GPa) = 45.18631 48.12627 46.65629
# Shear Modulus (GPa) = 18.01365 21.96291 19.98828
#
# Velocity S-wave (km/s) = 3.07942 3.40027 3.24381
# Velocity P-wave (km/s) = 6.03581 6.38362 6.21215
#
# Compressibility (1/GPa) = 0.02213060
#
# Stress axis : x y z
#
# Youngs Moduli (GPa) = 94.60249 94.60249 51.28302
#
# Poissons Ratio (x) = 0.14214 0.19879
# Poissons Ratio (y) = 0.14214 0.19879
# Poissons Ratio (z) = 0.36670 0.36670
#
# Static dielectric constant tensor:
#      x y z
#    x 1.720060 0.000000 0.000000 
#    y 0.000000 1.720060 0.000000 
#    z 0.000000 0.000000 1.709350 
# 
# From -- ./inp_files/5034.got.cif
#   From: 2010.05.17/outbox.cif.g08.bks.cpg/sg109_3_cif.got.tgz:5034.got - 2010.05.20 10:51:12.
