data_PCOD9554976
_publ_section_title
;
Structure prediction by ZEFSAII (Michael W. Deem and Ramdas Pophale) SiO2 
 PCOD9554976
Probable space group: P -4 2 C
;
_chemical_formula_sum "Si O2"
_cell_formula_units_Z 56
_cell_length_a 17.130530
_cell_length_b 17.130530
_cell_length_c 13.456071
_cell_angle_alpha 90.000000
_cell_angle_beta 90.000000
_cell_angle_gamma 90.000000
_cell_volume 3948.752097
_symmetry_space_group_name_H-M "P -4 2 C"
_symmetry_group_IT_number 112
_symmetry_cell_setting 'tetragonal'
loop_
_space_group_symop_operation_xyz
x,y,z
y,-x,-z
-x,-y,z
-y,x,-z
x,-y,1/2-z
-x,y,1/2-z
-y,-x,1/2+z
y,x,1/2+z
loop_
_atom_site_type_symbol
_atom_site_label
_atom_site_fract_x
_atom_site_fract_y
_atom_site_fract_z
Si Si1 0.094925 0.312625 0.445779
Si Si2 0.409486 0.094712 0.139477
Si Si3 0.409486 0.094712 0.360523
Si Si4 0.687375 0.094925 0.945779
Si Si5 0.000000 0.905882 0.633218
Si Si6 0.905183 0.590028 0.250000
Si Si7 0.143464 0.143464 1.000000
O O1 0.118654 0.357144 0.546827
O O2 0.117328 0.363104 0.349323
O O3 0.131359 0.226973 0.449450
O O4 0.000000 0.305024 0.444997
O O5 0.383485 0.119917 0.250000
O O6 0.500000 0.117887 0.125994
O O7 0.408664 0.000000 0.139582
O O8 0.357144 0.118653 0.453173
O O9 0.636896 0.117328 0.849323
O O10 0.773027 0.131358 0.949450
O O11 0.924444 0.869878 0.580850
O O12 0.000000 0.890301 0.750000
O O13 0.075557 0.869878 0.580850
O O14 0.000000 0.000000 0.618858
O O15 0.878241 0.500000 0.250000
O O16 0.000000 0.587482 0.250000
#
# Coordination Sequence:
#
# PCOD9554976 Si02
#       7
#     8   8   8   8   8   8   8
#     4  10  19  30  45  64  87 115 150 197 236 278
#     4   8  14  26  44  64  83 103 133 175 224 277
#     4   8  14  26  44  64  83 103 133 175 224 277
#     4  10  19  30  45  64  87 115 150 197 236 278
#     4  11  22  36  50  56  78 123 169 215 247 273
#     4   9  18  32  50  69  87 111 150 196 245 293
#     4  12  21  36  44  66  88 118 166 199 242 280
#
# _framework density 14.181696000000001
#
# number of rings (size 3 to 8) (size 9 to 14) (size 15 to 20)
#    0.000    2.286    2.857    1.714    2.000    4.571 
#    0.000    0.000    0.000    0.000    0.000    0.000 
#    0.000    0.000    0.000    0.000    0.000   17.143 
#
# Total GULP energy -312087.539561 kJ/mol
# GULP energy per Si atom -5572.991778 kJ/mol
# Density = 1.414942 g / cm^3
# Si number density = 14.181696 Si / 1000 Ang^3
#
#
#
# Elastic Constant Matrix: (Units=GPa)
#
#
# Indices 1 2 3 4 5 6 
#
# 1 84.5124 18.6711 55.0867 0.0000 0.0000 0.0000
# 2 18.6711 84.5124 55.0867 0.0000 0.0000 0.0000
# 3 55.0867 55.0867 137.4585 0.0000 0.0000 0.0000
# 4 0.0000 0.0000 0.0000 12.3356 0.0000 0.0000
# 5 0.0000 0.0000 0.0000 0.0000 12.3356 0.0000
# 6 0.0000 0.0000 0.0000 0.0000 0.0000 3.1758
#
#
#
# Elastic Compliance Matrix: (Units=1/GPa)
#
#
# Indices 1 2 3 4 5 6 
#
# 1 0.016064 0.000876 -0.006789 0.000000 0.000000 0.000000
# 2 0.000876 0.016064 -0.006789 0.000000 0.000000 0.000000
# 3 -0.006789 -0.006789 0.012716 0.000000 0.000000 0.000000
# 4 0.000000 0.000000 0.000000 0.081066 0.000000 0.000000
# 5 0.000000 0.000000 0.000000 0.000000 0.081066 0.000000
# 6 0.000000 0.000000 0.000000 0.000000 0.000000 0.314877
#
#
# Mechanical properties :
#
#
# Convention : Reuss Voigt Hill
#
# Bulk Modulus (GPa) = 51.43689 62.68582 57.06136
# Shear Modulus (GPa) = 9.02955 17.41201 13.22078
#
# Velocity S-wave (km/s) = 2.52604 3.50777 3.05658
# Velocity P-wave (km/s) = 6.69750 7.79127 7.26499
#
# Compressibility (1/GPa) = 0.01944130
#
# Stress axis : x y z
#
# Youngs Moduli (GPa) = 62.25065 62.25065 78.64007
#
# Poissons Ratio (x) = -0.05454 0.53387
# Poissons Ratio (y) = -0.05454 0.53387
# Poissons Ratio (z) = 0.42261 0.42261
#
# Static dielectric constant tensor:
#      x y z
#    x 1.447200 0.000000 0.000000 
#    y 0.000000 1.447200 0.000000 
#    z 0.000000 0.000000 1.486190 
# 
# From -- ./inp_files/2737.got.cif
#   From: 2010.05.17/outbox.cif.g08.bks.cpg/sg112_2_cif.got.tgz:2737.got - 2010.05.20 10:59:04.
