data_PCOD9554689
_publ_section_title
;
Structure prediction by ZEFSAII (Michael W. Deem and Ramdas Pophale) SiO2 
 PCOD9554689
Probable space group: P -4 2 M 
;
_chemical_formula_sum "Si O2"
_cell_formula_units_Z 60
_cell_length_a 11.919374
_cell_length_b 11.919374
_cell_length_c 25.341773
_cell_angle_alpha 90.000000
_cell_angle_beta 90.000000
_cell_angle_gamma 90.000000
_cell_volume 3600.343109
_symmetry_space_group_name_H-M "P -4 2 M "
_symmetry_group_IT_number 111
_symmetry_cell_setting 'tetragonal'
loop_
_space_group_symop_operation_xyz
x,y,z
y,-x,-z
-x,-y,z
-y,x,-z
x,-y,-z
-x,y,-z
-y,-x,z
y,x,z
loop_
_atom_site_type_symbol
_atom_site_label
_atom_site_fract_x
_atom_site_fract_y
_atom_site_fract_z
Si Si1 0.603474 0.780822 0.582538
Si Si2 0.830186 0.351155 0.597051
Si Si3 0.500000 0.689547 0.000000
Si Si4 0.129487 0.480240 0.208442
Si Si5 0.332063 0.851261 0.297882
Si Si6 0.499133 0.309439 0.883644
Si Si7 0.046764 0.779766 0.444307
Si Si8 0.291308 0.888330 0.710543
O O1 0.655214 0.655214 0.576827
O O2 0.473815 0.809013 0.573383
O O3 0.628566 0.818944 0.643104
O O4 0.681826 0.861562 0.547719
O O5 0.727093 0.272908 0.581825
O O6 0.836655 0.358831 0.660743
O O7 0.942962 0.281937 0.583462
O O8 0.499712 0.745110 0.057556
O O9 0.607110 0.607110 0.999818
O O10 0.154309 0.568819 0.255300
O O11 0.216790 0.494956 0.161456
O O12 0.137205 0.359039 0.236211
O O13 0.000000 0.500000 0.192063
O O14 0.234298 0.765703 0.283159
O O15 0.289142 0.978754 0.297464
O O16 0.604620 0.395381 0.879963
O O17 0.389225 0.389225 0.878534
O O18 0.117016 0.882984 0.418452
O O19 0.000000 0.819328 0.500000
O O20 0.171517 0.828484 0.710284
#
# Coordination Sequence:
#
# PCOD9554689 Si02
#       8
#     8   8   4   8   8   8   8   8
#     4  10  21  38  58  78 105 140 176 209 254 313
#     4  11  22  36  57  80 108 140 169 209 262 312
#     4   7  12  24  43  66  94 130 167 211 260 298
#     4  10  19  30  47  68 100 139 165 206 250 300
#     4  10  19  33  51  71  97 133 170 206 248 300
#     4   9  16  28  47  71  98 129 172 217 255 296
#     4  11  24  41  62  85 108 133 168 216 265 314
#     4  10  20  32  48  72 100 132 167 205 252 304
#
# _framework density 16.665078999999999
#
# number of rings (size 3 to 8) (size 9 to 14) (size 15 to 20)
#    0.000    2.067    2.667    2.400    0.000    2.533 
#    0.000    1.667    0.000    0.000    0.000    1.867 
#    0.000    0.000    0.000    0.000    0.000   80.000 
#
# Total GULP energy -334352.074977 kJ/mol
# GULP energy per Si atom -5572.534583 kJ/mol
# Density = 1.662715 g / cm^3
# Si number density = 16.665079 Si / 1000 Ang^3
#
#
#
# Elastic Constant Matrix: (Units=GPa)
#
#
# Indices 1 2 3 4 5 6 
#
# 1 72.3376 58.3882 19.7356 0.0000 0.0000 0.0000
# 2 58.3882 72.3310 19.7375 0.0000 0.0000 0.0000
# 3 19.7356 19.7375 51.5577 0.0000 0.0000 0.0000
# 4 0.0000 0.0000 0.0000 21.2348 0.0000 0.0000
# 5 0.0000 0.0000 0.0000 0.0000 21.2349 0.0000
# 6 0.0000 0.0000 0.0000 0.0000 0.0000 19.1109
#
#
#
# Elastic Compliance Matrix: (Units=1/GPa)
#
#
# Indices 1 2 3 4 5 6 
#
# 1 0.040174 -0.031527 -0.003309 0.000000 0.000000 0.000000
# 2 -0.031527 0.040179 -0.003313 0.000000 0.000000 0.000000
# 3 -0.003309 -0.003313 0.021931 0.000000 0.000000 0.000000
# 4 0.000000 0.000000 0.000000 0.047093 0.000000 0.000000
# 5 0.000000 0.000000 0.000000 0.000000 0.047092 0.000000
# 6 0.000000 0.000000 0.000000 0.000000 0.000000 0.052326
#
#
# Mechanical properties :
#
#
# Convention : Reuss Voigt Hill
#
# Bulk Modulus (GPa) = 38.48294 43.54987 41.01641
# Shear Modulus (GPa) = 14.98097 18.87378 16.92737
#
# Velocity S-wave (km/s) = 3.00149 3.36897 3.19052
# Velocity P-wave (km/s) = 5.92908 6.42825 6.18371
#
# Compressibility (1/GPa) = 0.02598554
#
# Stress axis : x y z
#
# Youngs Moduli (GPa) = 24.89143 24.88833 45.59803
#
# Poissons Ratio (x) = 0.78466 0.15088
# Poissons Ratio (y) = 0.78476 0.15108
# Poissons Ratio (z) = 0.08236 0.08246
#
# Static dielectric constant tensor:
#      x y z
#    x 1.569410 0.000000 0.000000 
#    y 0.000000 1.569410 0.000000 
#    z 0.000000 0.000000 1.585660 
# 
# From -- ./inp_files/4261.got.cif
#   From: 2010.05.17/outbox.cif.g08.bks.cpg/sg111_3_cif.got.tgz:4261.got - 2010.05.20 10:56:05.
