data_PCOD9554671
_publ_section_title
;
Structure prediction by ZEFSAII (Michael W. Deem and Ramdas Pophale) SiO2 
 PCOD9554671
Probable space group: P -4 2 M 
;
_chemical_formula_sum "Si O2"
_cell_formula_units_Z 56
_cell_length_a 12.737694
_cell_length_b 12.737694
_cell_length_c 20.993827
_cell_angle_alpha 90.000000
_cell_angle_beta 90.000000
_cell_angle_gamma 90.000000
_cell_volume 3406.224255
_symmetry_space_group_name_H-M "P -4 2 M "
_symmetry_group_IT_number 111
_symmetry_cell_setting 'tetragonal'
loop_
_space_group_symop_operation_xyz
x,y,z
y,-x,-z
-x,-y,z
-y,x,-z
x,-y,-z
-x,y,-z
-y,-x,z
y,x,z
loop_
_atom_site_type_symbol
_atom_site_label
_atom_site_fract_x
_atom_site_fract_y
_atom_site_fract_z
Si Si1 0.381896 0.793675 0.124594
Si Si2 0.613299 0.945035 0.642761
Si Si3 0.371416 0.198150 0.144671
Si Si4 0.779179 0.390715 0.464108
Si Si5 0.922539 0.759744 0.448111
Si Si6 0.125344 0.297902 0.005597
Si Si7 0.986435 0.374424 0.211770
O O1 0.307900 0.692101 0.134769
O O2 0.503429 0.778495 0.145195
O O3 0.370510 0.828356 0.050897
O O4 0.340049 0.894425 0.164152
O O5 0.602800 0.835953 0.604487
O O6 0.644894 0.947339 0.716541
O O7 0.500000 0.000000 0.638090
O O8 0.697305 0.012906 0.603993
O O9 0.300821 0.300821 0.156402
O O10 0.338009 0.103269 0.192289
O O11 0.345339 0.155462 0.073988
O O12 0.766689 0.500000 0.500000
O O13 0.671307 0.328694 0.457887
O O14 0.855261 0.322467 0.509913
O O15 0.844630 0.844630 0.419733
O O16 0.000000 0.810253 0.500000
O O17 0.186986 0.186986 0.999503
O O18 0.000000 0.288806 0.000000
O O19 0.000000 0.500000 0.204492
#
# Coordination Sequence:
#
# PCOD9554671 Si02
#       7
#     8   8   8   8   8   8   8
#     4  10  20  34  53  77 107 144 183 222 270 327
#     4  10  18  32  54  76 101 135 176 217 255 306
#     4  10  20  34  53  80 110 139 180 229 275 322
#     4  10  19  32  52  78 105 137 173 211 260 315
#     4   9  18  30  49  74  98 127 162 203 251 301
#     4  10  19  32  54  80 107 143 183 230 280 328
#     4   9  19  33  52  77 101 138 182 221 260 311
#
# _framework density 16.440491000000002
#
# number of rings (size 3 to 8) (size 9 to 14) (size 15 to 20)
#    0.000    2.286    2.857    0.429    0.000    2.429 
#    0.000    0.000    0.000    3.000    0.000    4.000 
#    0.000    0.000    0.000    0.000    0.000    0.000 
#
# Total GULP energy -311907.025830 kJ/mol
# GULP energy per Si atom -5569.768318 kJ/mol
# Density = 1.640307 g / cm^3
# Si number density = 16.440491 Si / 1000 Ang^3
#
#
#
# Elastic Constant Matrix: (Units=GPa)
#
#
# Indices 1 2 3 4 5 6 
#
# 1 85.2469 53.0101 24.6212 0.0000 0.0000 0.0000
# 2 53.0101 85.2462 24.6202 0.0000 0.0000 0.0000
# 3 24.6212 24.6202 83.3578 0.0000 0.0000 0.0000
# 4 0.0000 0.0000 0.0000 11.9591 0.0000 0.0000
# 5 0.0000 0.0000 0.0000 0.0000 11.9590 0.0000
# 6 0.0000 0.0000 0.0000 0.0000 0.0000 15.7048
#
#
#
# Elastic Compliance Matrix: (Units=1/GPa)
#
#
# Indices 1 2 3 4 5 6 
#
# 1 0.019552 -0.011469 -0.002388 0.000000 0.000000 0.000000
# 2 -0.011469 0.019552 -0.002387 0.000000 0.000000 0.000000
# 3 -0.002388 -0.002387 0.013407 0.000000 0.000000 0.000000
# 4 0.000000 0.000000 0.000000 0.083618 0.000000 0.000000
# 5 0.000000 0.000000 0.000000 0.000000 0.083619 0.000000
# 6 0.000000 0.000000 0.000000 0.000000 0.000000 0.063675
#
#
# Mechanical properties :
#
#
# Convention : Reuss Voigt Hill
#
# Bulk Modulus (GPa) = 49.94161 50.92822 50.43491
# Shear Modulus (GPa) = 15.49981 18.03121 16.76551
#
# Velocity S-wave (km/s) = 3.07381 3.31532 3.19685
# Velocity P-wave (km/s) = 6.56055 6.76016 6.66110
#
# Compressibility (1/GPa) = 0.02002338
#
# Stress axis : x y z
#
# Youngs Moduli (GPa) = 51.14565 51.14554 74.58887
#
# Poissons Ratio (x) = 0.58658 0.17809
# Poissons Ratio (y) = 0.58658 0.17807
# Poissons Ratio (z) = 0.12212 0.12210
#
# Static dielectric constant tensor:
#      x y z
#    x 1.551060 0.000000 0.000000 
#    y 0.000000 1.551060 0.000000 
#    z 0.000000 0.000000 1.554940 
# 
# From -- ./inp_files/3951.got.cif
#   From: 2010.05.17/outbox.cif.g08.bks.cpg/sg111_2_cif.got.tgz:3951.got - 2010.05.20 10:56:05.
