data_PCOD9554690
_publ_section_title
;
Structure prediction by ZEFSAII (Michael W. Deem and Ramdas Pophale) SiO2 
 PCOD9554690
Probable space group: P -4 2 M 
;
_chemical_formula_sum "Si O2"
_cell_formula_units_Z 56
_cell_length_a 12.793296
_cell_length_b 12.793296
_cell_length_c 21.753498
_cell_angle_alpha 90.000000
_cell_angle_beta 90.000000
_cell_angle_gamma 90.000000
_cell_volume 3560.360702
_symmetry_space_group_name_H-M "P -4 2 M "
_symmetry_group_IT_number 111
_symmetry_cell_setting 'tetragonal'
loop_
_space_group_symop_operation_xyz
x,y,z
y,-x,-z
-x,-y,z
-y,x,-z
x,-y,-z
-x,y,-z
-y,-x,z
y,x,z
loop_
_atom_site_type_symbol
_atom_site_label
_atom_site_fract_x
_atom_site_fract_y
_atom_site_fract_z
Si Si1 0.000001 0.377887 0.655725
Si Si2 0.000001 0.172558 0.573911
Si Si3 0.619095 0.793445 0.117473
Si Si4 0.621502 0.202054 0.742248
Si Si5 0.621499 0.797944 0.742248
Si Si6 0.711215 0.886708 1.000000
Si Si7 0.619095 0.793446 0.882527
O O1 0.000000 0.285537 0.605626
O O2 0.103904 0.364192 0.697286
O O3 0.000000 0.500000 0.633725
O O4 0.896099 0.364191 0.697287
O O5 0.101469 0.101469 0.590529
O O6 0.000000 0.183250 0.500000
O O7 0.898533 0.101468 0.590529
O O8 0.695298 0.695298 0.110857
O O9 0.634902 0.834875 0.186783
O O10 0.644826 0.870727 0.061889
O O11 0.500000 0.759479 0.112168
O O12 0.704528 0.295473 0.731293
O O13 0.500002 0.237796 0.736279
O O14 0.704524 0.704524 0.731294
O O15 0.634900 0.834876 0.813216
O O16 0.799198 0.799198 1.000000
O O17 0.644826 0.870727 0.938111
O O18 0.760165 0.000000 0.000000
O O19 0.695298 0.695298 0.889142
#
# Coordination Sequence:
#
# PCOD9554690 Si02
#       7
#     8   8   8   8   8   8   8
#     4  10  19  30  48  73 101 130 156 191 237 276
#     4   9  18  33  53  75  98 127 162 196 230 272
#     4   9  18  31  46  67  91 115 148 186 227 277
#     4   9  18  31  47  68  95 126 159 195 234 279
#     4   9  18  31  47  68  95 126 159 195 234 279
#     4  10  21  34  48  64  82 112 151 192 238 282
#     4   9  18  31  46  67  91 115 148 186 227 277
#
# _framework density 15.728744000000001
#
# number of rings (size 3 to 8) (size 9 to 14) (size 15 to 20)
#    0.000    2.714    0.000    1.714    2.000    2.143 
#    0.000    2.857    0.000    2.571    0.000    0.000 
#    0.000    0.000    0.000   26.571    0.000    0.286 
#
# Total GULP energy -311740.010374 kJ/mol
# GULP energy per Si atom -5566.785900 kJ/mol
# Density = 1.569294 g / cm^3
# Si number density = 15.728744 Si / 1000 Ang^3
#
#
#
# Elastic Constant Matrix: (Units=GPa)
#
#
# Indices 1 2 3 4 5 6 
#
# 1 92.8332 37.0449 48.7557 0.0000 0.0000 0.0000
# 2 37.0449 92.8329 48.7557 0.0000 0.0000 0.0000
# 3 48.7557 48.7557 66.0097 0.0000 0.0000 0.0000
# 4 0.0000 0.0000 0.0000 17.4403 0.0000 0.0000
# 5 0.0000 0.0000 0.0000 0.0000 17.4404 0.0000
# 6 0.0000 0.0000 0.0000 0.0000 0.0000 10.7821
#
#
#
# Elastic Compliance Matrix: (Units=1/GPa)
#
#
# Indices 1 2 3 4 5 6 
#
# 1 0.017605 -0.000320 -0.012767 0.000000 0.000000 0.000000
# 2 -0.000320 0.017605 -0.012767 0.000000 0.000000 0.000000
# 3 -0.012767 -0.012767 0.034009 0.000000 0.000000 0.000000
# 4 0.000000 0.000000 0.000000 0.057338 0.000000 0.000000
# 5 0.000000 0.000000 0.000000 0.000000 0.057338 0.000000
# 6 0.000000 0.000000 0.000000 0.000000 0.000000 0.092746
#
#
# Mechanical properties :
#
#
# Convention : Reuss Voigt Hill
#
# Bulk Modulus (GPa) = 57.10647 57.86539 57.48593
# Shear Modulus (GPa) = 14.96177 16.94053 15.95115
#
# Velocity S-wave (km/s) = 3.08756 3.28539 3.18801
# Velocity P-wave (km/s) = 7.00690 7.15969 7.08371
#
# Compressibility (1/GPa) = 0.01751115
#
# Stress axis : x y z
#
# Youngs Moduli (GPa) = 56.80272 56.80245 29.40428
#
# Poissons Ratio (x) = 0.01818 0.37540
# Poissons Ratio (y) = 0.01818 0.37540
# Poissons Ratio (z) = 0.72518 0.72518
#
# Static dielectric constant tensor:
#      x y z
#    x 1.506390 0.000000 0.000000 
#    y 0.000000 1.506390 0.000000 
#    z 0.000000 0.000000 1.538590 
# 
# From -- ./inp_files/3945.got.cif
#   From: 2010.05.17/outbox.cif.g08.bks.cpg/sg111_2_cif.got.tgz:3945.got - 2010.05.20 10:56:05.
