data_PCOD9554623
_publ_section_title
;
Structure prediction by ZEFSAII (Michael W. Deem and Ramdas Pophale) SiO2 
 PCOD9554623
Probable space group: I 41 C D
;
_chemical_formula_sum "Si O2"
_cell_formula_units_Z 96
_cell_length_a 16.029949
_cell_length_b 16.029949
_cell_length_c 16.257002
_cell_angle_alpha 90.000000
_cell_angle_beta 90.000000
_cell_angle_gamma 90.000000
_cell_volume 4177.387284
_symmetry_space_group_name_H-M "I 41 C D"
_symmetry_group_IT_number 110
_symmetry_cell_setting 'tetragonal'
loop_
_space_group_symop_operation_xyz
x,y,z
-y,1/2+x,1/4+z
-x,-y,z
y,1/2-x,1/4+z
-x,y,1/2+z
x,-y,1/2+z
1/2-y,-x,1/4+z
1/2+y,x,1/4+z
1/2+x,1/2+y,1/2+z
1/2-y,x,3/4+z
1/2-x,1/2-y,1/2+z
1/2+y,-x,3/4+z
1/2-x,1/2+y,z
1/2+x,1/2-y,z
-y,1/2-x,3/4+z
y,1/2+x,3/4+z
loop_
_atom_site_type_symbol
_atom_site_label
_atom_site_fract_x
_atom_site_fract_y
_atom_site_fract_z
Si Si1 0.680750 0.079810 0.026020
Si Si2 0.907003 0.154497 0.729161
Si Si3 0.838823 0.993956 0.804791
Si Si4 0.328325 0.985521 0.210668
Si Si5 0.169999 0.110434 0.061194
Si Si6 0.144952 0.942324 0.987128
O O1 0.600447 0.137976 0.030609
O O2 0.683000 0.032563 0.114254
O O3 0.665751 0.005166 0.960910
O O4 0.772963 0.114205 0.005248
O O5 0.850969 0.149807 0.648455
O O6 0.879450 0.234752 0.782486
O O7 0.901163 0.065717 0.774141
O O8 0.753666 0.014694 0.758291
O O9 0.838252 0.006549 0.902737
O O10 0.351002 0.896305 0.248589
O O11 0.603847 0.942368 0.226704
O O12 0.146484 0.011950 0.058517
#
# Coordination Sequence:
#
# PCOD9554623 Si02
#       6
#    16  16  16  16  16  16
#     4  11  25  46  73 107 146 196 251 305 377 448
#     4  11  25  46  73 106 146 194 255 309 377 445
#     4  12  25  45  72 105 148 196 247 310 376 448
#     4  12  25  45  72 105 148 196 247 310 376 448
#     4  11  25  46  73 106 146 194 255 309 377 445
#     4  11  25  46  73 107 146 196 251 305 377 448
#
# _framework density 22.980871
#
# number of rings (size 3 to 8) (size 9 to 14) (size 15 to 20)
#    0.000    0.667    3.333    5.000    0.000    8.000 
#    0.000    0.000    0.000    0.000    0.000    0.000 
#    0.000    0.000    0.000    0.000    0.000    0.000 
#
# Total GULP energy -268359.265873 kJ/mol
# GULP energy per Si atom -5590.818039 kJ/mol
# Density = 2.292857 g / cm^3
# Si number density = 22.980871 Si / 1000 Ang^3
#
#
#
# Elastic Constant Matrix: (Units=GPa)
#
#
# Indices 1 2 3 4 5 6 
#
# 1 53.0630 9.4417 21.7749 0.0000 0.0000 0.0000
# 2 9.4417 53.0630 21.7748 0.0000 0.0000 0.0000
# 3 21.7749 21.7748 78.9223 0.0000 0.0000 0.0000
# 4 0.0000 0.0000 0.0000 34.9810 0.0000 0.0000
# 5 0.0000 0.0000 0.0000 0.0000 34.9811 0.0000
# 6 0.0000 0.0000 0.0000 0.0000 0.0000 23.2862
#
#
#
# Elastic Compliance Matrix: (Units=1/GPa)
#
#
# Indices 1 2 3 4 5 6 
#
# 1 0.021365 -0.001559 -0.005465 0.000000 0.000000 0.000000
# 2 -0.001559 0.021365 -0.005465 0.000000 0.000000 0.000000
# 3 -0.005465 -0.005465 0.015686 0.000000 0.000000 0.000000
# 4 0.000000 0.000000 0.000000 0.028587 0.000000 0.000000
# 5 0.000000 0.000000 0.000000 0.000000 0.028587 0.000000
# 6 0.000000 0.000000 0.000000 0.000000 0.000000 0.042944
#
#
# Mechanical properties :
#
#
# Convention : Reuss Voigt Hill
#
# Bulk Modulus (GPa) = 29.90416 32.33679 31.12048
# Shear Modulus (GPa) = 25.68607 27.45345 26.56976
#
# Velocity S-wave (km/s) = 3.34685 3.46008 3.40394
# Velocity P-wave (km/s) = 5.28924 5.48312 5.38705
#
# Compressibility (1/GPa) = 0.03344016
#
# Stress axis : x y z
#
# Youngs Moduli (GPa) = 46.80468 46.80467 63.75087
#
# Poissons Ratio (x) = 0.07298 0.34837
# Poissons Ratio (y) = 0.07298 0.34837
# Poissons Ratio (z) = 0.25577 0.25577
#
# Static dielectric constant tensor:
#      x y z
#    x 1.909580 0.000000 0.000000 
#    y 0.000000 1.909580 0.000000 
#    z 0.000000 0.000000 1.899440 
# 
# From -- ./inp_files/1707.got.cif
#   From: 2010.05.17/outbox.cif.g08.bks.cpg/sg110_1_cif.got.tgz:1707.got - 2010.05.20 10:54:03.
