data_PCOD9554607
_publ_section_title
;
Structure prediction by ZEFSAII (Michael W. Deem and Ramdas Pophale) SiO2 
 PCOD9554607
Probable space group: I 41 C D
;
_chemical_formula_sum "Si O2"
_cell_formula_units_Z 88
_cell_length_a 14.591506
_cell_length_b 14.591506
_cell_length_c 19.741534
_cell_angle_alpha 90.000000
_cell_angle_beta 90.000000
_cell_angle_gamma 90.000000
_cell_volume 4203.210422
_symmetry_space_group_name_H-M "I 41 C D"
_symmetry_group_IT_number 110
_symmetry_cell_setting 'tetragonal'
loop_
_space_group_symop_operation_xyz
x,y,z
-y,1/2+x,1/4+z
-x,-y,z
y,1/2-x,1/4+z
-x,y,1/2+z
x,-y,1/2+z
1/2-y,-x,1/4+z
1/2+y,x,1/4+z
1/2+x,1/2+y,1/2+z
1/2-y,x,3/4+z
1/2-x,1/2-y,1/2+z
1/2+y,-x,3/4+z
1/2-x,1/2+y,z
1/2+x,1/2-y,z
-y,1/2-x,3/4+z
y,1/2+x,3/4+z
loop_
_atom_site_type_symbol
_atom_site_label
_atom_site_fract_x
_atom_site_fract_y
_atom_site_fract_z
Si Si1 0.851230 0.791931 0.408970
Si Si2 1.000000 0.707652 0.315183
Si Si3 0.500000 0.500000 0.549338
Si Si4 0.851230 0.208069 0.408970
Si Si5 0.299166 0.500000 0.906227
Si Si6 0.701645 0.000000 0.766110
O O1 0.750000 0.750000 0.411875
O O2 0.848569 0.901763 0.399018
O O3 0.909620 0.749891 0.348024
O O4 0.909284 0.766397 0.476482
O O5 1.000000 0.599395 0.333693
O O6 0.090380 0.749891 0.348024
O O7 0.000000 0.727550 0.235334
O O8 0.500000 0.592676 0.507404
O O9 0.909284 0.233603 0.476482
O O10 0.848569 0.098237 0.399018
O O11 0.225407 0.500000 0.845236
#
# Coordination Sequence:
#
# PCOD9554607 Si02
#       6
#    16  16   8  16  16  16
#     4  11  26  47  71 107 145 196 246 305 376 450
#     4  11  26  45  77 104 141 198 244 301 384 442
#     4  12  20  48  62 100 140 192 228 306 364 428
#     4  11  26  47  71 107 145 196 246 305 376 450
#     4  12  26  44  74 106 145 194 242 316 357 450
#     4  11  24  42  72  99 144 194 240 302 375 435
#
# _framework density 20.936377
#
# number of rings (size 3 to 8) (size 9 to 14) (size 15 to 20)
#    0.000    0.727    3.636    2.182    5.091    2.182 
#    0.000    0.000    0.000    0.000    0.000    0.000 
#    0.000    0.000    0.000    0.000    0.000    0.000 
#
# Total GULP energy -245644.770740 kJ/mol
# GULP energy per Si atom -5582.835699 kJ/mol
# Density = 2.088872 g / cm^3
# Si number density = 20.936377 Si / 1000 Ang^3
#
#
#
# Elastic Constant Matrix: (Units=GPa)
#
#
# Indices 1 2 3 4 5 6 
#
# 1 164.7938 69.0654 71.4286 0.0000 0.0000 0.0000
# 2 69.0654 164.7938 71.4286 0.0000 0.0000 0.0000
# 3 71.4286 71.4286 153.7264 0.0000 0.0000 0.0000
# 4 0.0000 0.0000 0.0000 22.9871 0.0000 0.0000
# 5 0.0000 0.0000 0.0000 0.0000 22.9871 0.0000
# 6 0.0000 0.0000 0.0000 0.0000 0.0000 21.5093
#
#
#
# Elastic Compliance Matrix: (Units=1/GPa)
#
#
# Indices 1 2 3 4 5 6 
#
# 1 0.008209 -0.002238 -0.002774 0.000000 0.000000 0.000000
# 2 -0.002238 0.008209 -0.002774 0.000000 0.000000 0.000000
# 3 -0.002774 -0.002774 0.009083 0.000000 0.000000 0.000000
# 4 0.000000 0.000000 0.000000 0.043503 0.000000 0.000000
# 5 0.000000 0.000000 0.000000 0.000000 0.043503 0.000000
# 6 0.000000 0.000000 0.000000 0.000000 0.000000 0.046492
#
#
# Mechanical properties :
#
#
# Convention : Reuss Voigt Hill
#
# Bulk Modulus (GPa) = 100.72958 100.79545 100.76251
# Shear Modulus (GPa) = 28.10895 31.58943 29.84919
#
# Velocity S-wave (km/s) = 3.66811 3.88858 3.77995
# Velocity P-wave (km/s) = 8.13368 8.27101 8.20263
#
# Compressibility (1/GPa) = 0.00992757
#
# Stress axis : x y z
#
# Youngs Moduli (GPa) = 121.82457 121.82457 110.09295
#
# Poissons Ratio (x) = 0.27261 0.30543
# Poissons Ratio (y) = 0.27261 0.30543
# Poissons Ratio (z) = 0.33798 0.33798
#
# Static dielectric constant tensor:
#      x y z
#    x 1.795490 0.000000 0.000000 
#    y 0.000000 1.795490 0.000000 
#    z 0.000000 0.000000 1.754860 
# 
# From -- ./inp_files/2129.got.cif
#   From: 2010.05.17/outbox.cif.g08.bks.cpg/sg110_2_cif.got.tgz:2129.got - 2010.05.20 10:54:03.
