data_PCOD9554343
_publ_section_title
;
Structure prediction by ZEFSAII (Michael W. Deem and Ramdas Pophale) SiO2 
 PCOD9554343
Probable space group: I 41 C D
;
_chemical_formula_sum "Si O2"
_cell_formula_units_Z 112
_cell_length_a 31.846121
_cell_length_b 31.846121
_cell_length_c 5.314492
_cell_angle_alpha 90.000000
_cell_angle_beta 90.000000
_cell_angle_gamma 90.000000
_cell_volume 5389.827171
_symmetry_space_group_name_H-M "I 41 C D"
_symmetry_group_IT_number 110
_symmetry_cell_setting 'tetragonal'
loop_
_space_group_symop_operation_xyz
x,y,z
-y,1/2+x,1/4+z
-x,-y,z
y,1/2-x,1/4+z
-x,y,1/2+z
x,-y,1/2+z
1/2-y,-x,1/4+z
1/2+y,x,1/4+z
1/2+x,1/2+y,1/2+z
1/2-y,x,3/4+z
1/2-x,1/2-y,1/2+z
1/2+y,-x,3/4+z
1/2-x,1/2+y,z
1/2+x,1/2-y,z
-y,1/2-x,3/4+z
y,1/2+x,3/4+z
loop_
_atom_site_type_symbol
_atom_site_label
_atom_site_fract_x
_atom_site_fract_y
_atom_site_fract_z
Si Si1 0.456695 0.157002 0.803840
Si Si2 0.768377 0.611796 0.256088
Si Si3 0.275168 0.692872 0.731931
Si Si4 0.087734 0.368180 0.797712
Si Si5 0.685985 0.860584 0.245317
Si Si6 0.485312 0.072737 0.299886
Si Si7 0.480680 0.248629 0.691636
O O1 0.427033 0.149967 0.564165
O O2 0.487315 0.116610 0.821340
O O3 0.482822 0.198726 0.746703
O O4 0.429558 0.158488 0.059507
O O5 0.730277 0.644488 0.306856
O O6 0.801791 0.623683 0.470720
O O7 0.755807 0.564561 0.317265
O O8 0.786037 0.619737 0.973895
O O9 0.228227 0.707430 0.666284
O O10 0.310134 0.693017 0.512601
O O11 0.137474 0.370718 0.791625
O O12 0.062670 0.412496 0.776233
O O13 0.496165 0.050583 0.558064
O O14 0.512198 0.265425 0.475482
#
# Coordination Sequence:
#
# PCOD9554343 Si02
#       7
#    16  16  16  16  16  16  16
#     4  10  18  29  48  76 101 126 169 210 256 332
#     4  11  25  40  55  80 106 135 191 245 279 336
#     4  10  21  37  57  77 106 147 191 239 291 332
#     4  10  18  30  48  70 101 138 170 212 267 314
#     4  11  23  38  55  75 104 143 188 235 281 328
#     4   8  14  24  39  64  94 120 156 197 240 311
#     4  12  23  38  58  78 104 137 173 230 298 340
#
# _framework density 20.779888
#
# number of rings (size 3 to 8) (size 9 to 14) (size 15 to 20)
#    0.000    1.714    0.000    6.857    0.000    6.857 
#    0.000    0.000    0.000    0.000    0.000    0.000 
#    0.000    0.000    0.000    0.000    0.000  450.000 
#
# Total GULP energy -312401.731538 kJ/mol
# GULP energy per Si atom -5578.602349 kJ/mol
# Density = 2.073259 g / cm^3
# Si number density = 20.779888 Si / 1000 Ang^3
#
#
#
# Elastic Constant Matrix: (Units=GPa)
#
#
# Indices 1 2 3 4 5 6 
#
# 1 59.8515 7.4905 2.7789 0.0000 0.0000 0.0000
# 2 7.4905 59.8515 2.7789 0.0000 0.0000 0.0000
# 3 2.7789 2.7789 101.0849 0.0000 0.0000 0.0000
# 4 0.0000 0.0000 0.0000 17.3299 0.0000 0.0000
# 5 0.0000 0.0000 0.0000 0.0000 17.3299 0.0000
# 6 0.0000 0.0000 0.0000 0.0000 0.0000 -2.3231
#
#
#
# Elastic Compliance Matrix: (Units=1/GPa)
#
#
# Indices 1 2 3 4 5 6 
#
# 1 0.016991 -0.002107 -0.000409 0.000000 0.000000 0.000000
# 2 -0.002107 0.016991 -0.000409 0.000000 0.000000 0.000000
# 3 -0.000409 -0.000409 0.009915 0.000000 0.000000 0.000000
# 4 0.000000 0.000000 0.000000 0.057704 0.000000 0.000000
# 5 0.000000 0.000000 0.000000 0.000000 0.057704 0.000000
# 6 0.000000 0.000000 0.000000 0.000000 0.000000 -0.430459
#
#
# Mechanical properties :
#
#
# Convention : Reuss Voigt Hill
#
# Bulk Modulus (GPa) = 26.28446 27.43158 26.85802
# Shear Modulus (GPa) = -19.79247 20.31664 0.26208
#
# Velocity S-wave (km/s) = -3.08958 3.13022 0.35552
# Velocity P-wave (km/s) = 0.22556 5.12777 3.62237
#
# Compressibility (1/GPa) = 0.03804529
#
# Stress axis : x y z
#
# Youngs Moduli (GPa) = 58.85547 58.85547 100.85552
#
# Poissons Ratio (x) = 0.12403 0.04127
# Poissons Ratio (y) = 0.12403 0.04127
# Poissons Ratio (z) = 0.02408 0.02408
#
# Static dielectric constant tensor:
#      x y z
#    x 1.760310 0.000000 0.000000 
#    y 0.000000 1.760310 0.000000 
#    z 0.000000 0.000000 1.837560 
# 
# From -- ./inp_files/163.got.cif
#   From: 2010.05.17/outbox.cif.g08.bks.cpg/sg110_1_cif.got.tgz:163.got - 2010.05.20 10:54:03.
