data_PCOD9554374
_publ_section_title
;
Structure prediction by ZEFSAII (Michael W. Deem and Ramdas Pophale) SiO2 
 PCOD9554374
Probable space group: I 41 C D
;
_chemical_formula_sum "Si O2"
_cell_formula_units_Z 64
_cell_length_a 21.155747
_cell_length_b 21.155747
_cell_length_c 5.500541
_cell_angle_alpha 90.000000
_cell_angle_beta 90.000000
_cell_angle_gamma 90.000000
_cell_volume 2461.853104
_symmetry_space_group_name_H-M "I 41 C D"
_symmetry_group_IT_number 110
_symmetry_cell_setting 'tetragonal'
loop_
_space_group_symop_operation_xyz
x,y,z
-y,1/2+x,1/4+z
-x,-y,z
y,1/2-x,1/4+z
-x,y,1/2+z
x,-y,1/2+z
1/2-y,-x,1/4+z
1/2+y,x,1/4+z
1/2+x,1/2+y,1/2+z
1/2-y,x,3/4+z
1/2-x,1/2-y,1/2+z
1/2+y,-x,3/4+z
1/2-x,1/2+y,z
1/2+x,1/2-y,z
-y,1/2-x,3/4+z
y,1/2+x,3/4+z
loop_
_atom_site_type_symbol
_atom_site_label
_atom_site_fract_x
_atom_site_fract_y
_atom_site_fract_z
Si Si1 0.105156 0.211486 0.347070
Si Si2 0.508094 0.393908 0.353575
Si Si3 0.877606 0.174999 0.354927
Si Si4 0.664542 0.534784 0.497323
O O1 0.074549 0.141528 0.354969
O O2 0.136490 0.214279 0.611350
O O3 0.049590 0.261722 0.303364
O O4 0.143739 0.211711 0.097100
O O5 0.499419 0.429541 0.603234
O O6 0.453850 0.338810 0.354655
O O7 0.854673 0.103449 0.392209
O O8 0.645465 0.510463 0.769235
#
# Coordination Sequence:
#
# PCOD9554374 Si02
#       4
#    16  16  16  16
#     4  10  19  36  59  81 110 159 205 233 286 374
#     4   8  14  27  49  71  96 138 186 217 257 338
#     4  10  20  34  56  85 118 150 191 248 302 348
#     4  12  23  37  60  93 122 147 198 265 309 347
#
# _framework density 25.996675
#
# number of rings (size 3 to 8) (size 9 to 14) (size 15 to 20)
#    0.000    2.000    0.000    7.500    0.000    0.000 
#    0.000    0.000    0.000   43.500    0.000    0.000 
#    0.000    0.000    0.000    0.000    0.000    0.000 
#
# Total GULP energy -178238.645285 kJ/mol
# GULP energy per Si atom -5569.957665 kJ/mol
# Density = 2.593751 g / cm^3
# Si number density = 25.996675 Si / 1000 Ang^3
#
#
#
# Elastic Constant Matrix: (Units=GPa)
#
#
# Indices 1 2 3 4 5 6 
#
# 1 38.1804 19.6788 11.5650 0.0000 0.0000 0.0000
# 2 19.6788 38.1804 11.5650 0.0000 0.0000 0.0000
# 3 11.5650 11.5650 335.8782 0.0000 0.0000 0.0000
# 4 0.0000 0.0000 0.0000 15.5144 0.0000 0.0000
# 5 0.0000 0.0000 0.0000 0.0000 15.5144 0.0000
# 6 0.0000 0.0000 0.0000 0.0000 0.0000 17.9376
#
#
#
# Elastic Compliance Matrix: (Units=1/GPa)
#
#
# Indices 1 2 3 4 5 6 
#
# 1 0.035787 -0.018262 -0.000603 0.000000 0.000000 0.000000
# 2 -0.018262 0.035787 -0.000603 0.000000 0.000000 0.000000
# 3 -0.000603 -0.000603 0.003019 0.000000 0.000000 0.000000
# 4 0.000000 0.000000 0.000000 0.064456 0.000000 0.000000
# 5 0.000000 0.000000 0.000000 0.000000 0.064456 0.000000
# 6 0.000000 0.000000 0.000000 0.000000 0.000000 0.055749
#
#
# Mechanical properties :
#
#
# Convention : Reuss Voigt Hill
#
# Bulk Modulus (GPa) = 28.04709 55.31740 41.68225
# Shear Modulus (GPa) = 16.12503 34.42198 25.27350
#
# Velocity S-wave (km/s) = 2.49323 3.64275 3.12137
# Velocity P-wave (km/s) = 4.37040 6.24642 5.39065
#
# Compressibility (1/GPa) = 0.03565432
#
# Stress axis : x y z
#
# Youngs Moduli (GPa) = 27.94310 27.94310 331.25488
#
# Poissons Ratio (x) = 0.51031 0.19988
# Poissons Ratio (y) = 0.51031 0.19988
# Poissons Ratio (z) = 0.01686 0.01686
#
# Static dielectric constant tensor:
#      x y z
#    x 2.060460 0.000000 0.000000 
#    y 0.000000 2.060460 0.000000 
#    z 0.000000 0.000000 2.304750 
# 
# From -- ./inp_files/86.got.cif
#   From: 2010.05.17/outbox.cif.g08.bks.cpg/sg110_1_cif.got.tgz:86.got - 2010.05.20 10:54:03.
