data_PCOD9554250
_publ_section_title
;
Structure prediction by ZEFSAII (Michael W. Deem and Ramdas Pophale) SiO2 
 PCOD9554250
Probable space group: I 41 M D
;
_chemical_formula_sum "Si O2"
_cell_formula_units_Z 112
_cell_length_a 29.865957
_cell_length_b 29.865957
_cell_length_c 5.403838
_cell_angle_alpha 90.000000
_cell_angle_beta 90.000000
_cell_angle_gamma 90.000000
_cell_volume 4820.090494
_symmetry_space_group_name_H-M "I 41 M D"
_symmetry_group_IT_number 109
_symmetry_cell_setting 'tetragonal'
loop_
_space_group_symop_operation_xyz
x,y,z
-y,1/2+x,1/4+z
-x,-y,z
y,1/2-x,1/4+z
-x,y,z
x,-y,z
-y,1/2-x,1/4+z
y,1/2+x,1/4+z
1/2+x,1/2+y,1/2+z
1/2-y,x,3/4+z
1/2-x,1/2-y,1/2+z
1/2+y,-x,3/4+z
1/2-x,1/2+y,1/2+z
1/2+x,1/2-y,1/2+z
1/2-y,-x,3/4+z
1/2+y,x,3/4+z
loop_
_atom_site_type_symbol
_atom_site_label
_atom_site_fract_x
_atom_site_fract_y
_atom_site_fract_z
Si Si1 0.300377 0.621842 0.255450
Si Si2 0.399691 0.283085 0.156327
Si Si3 0.277752 0.452500 0.631579
Si Si4 0.449832 0.414392 0.909006
Si Si5 0.694307 0.286931 0.053363
Si Si6 0.357817 0.451734 0.027275
Si Si7 0.356548 0.050250 0.664573
O O1 0.284842 0.593182 0.486116
O O2 0.303142 0.675491 0.273815
O O3 0.261860 0.613701 0.051984
O O4 0.344431 0.593741 0.172694
O O5 0.357474 0.294380 0.980996
O O6 0.412169 0.320300 0.354679
O O7 0.444551 0.269721 0.013172
O O8 0.276187 0.500000 0.492754
O O9 0.319212 0.454475 0.820336
O O10 0.500000 0.434071 0.880081
O O11 0.407140 0.446447 0.917909
O O12 0.442579 0.382142 0.672590
O O13 0.449591 0.388741 0.172989
O O14 0.701801 0.235522 0.126879
O O15 0.356437 0.500000 0.164781
O O16 0.336725 0.000000 0.679624
#
# Coordination Sequence:
#
# PCOD9554250 Si02
#       7
#    16  16  16  16  16  16  16
#     4  10  22  41  60  91 125 170 219 277 342 406
#     4  10  22  39  60  92 123 170 219 280 341 402
#     4  10  22  38  62  93 124 164 220 278 340 404
#     4  10  23  41  64  97 134 175 221 270 333 408
#     4  10  23  40  60  89 125 171 225 284 345 422
#     4  10  22  40  64  92 128 170 217 279 339 407
#     4  10  22  41  65  97 135 175 222 279 339 408
#
# _framework density 23.236079
#
# number of rings (size 3 to 8) (size 9 to 14) (size 15 to 20)
#    0.000    2.000    0.000    1.714    8.000    2.000 
#    0.000    0.000    0.000    2.571    0.000    0.000 
#    0.000    0.000    0.000    0.000    0.000    0.000 
#
# Total GULP energy -312173.584359 kJ/mol
# GULP energy per Si atom -5574.528292 kJ/mol
# Density = 2.318319 g / cm^3
# Si number density = 23.236079 Si / 1000 Ang^3
#
#
#
# Elastic Constant Matrix: (Units=GPa)
#
#
# Indices 1 2 3 4 5 6 
#
# 1 85.7887 22.8754 7.1990 0.0000 0.0000 0.0000
# 2 22.8754 85.7887 7.1990 0.0000 0.0000 0.0000
# 3 7.1990 7.1990 53.3526 0.0000 0.0000 0.0000
# 4 0.0000 0.0000 0.0000 24.9158 0.0000 0.0000
# 5 0.0000 0.0000 0.0000 0.0000 24.9158 0.0000
# 6 0.0000 0.0000 0.0000 0.0000 0.0000 41.3447
#
#
#
# Elastic Compliance Matrix: (Units=1/GPa)
#
#
# Indices 1 2 3 4 5 6 
#
# 1 0.012633 -0.003262 -0.001264 0.000000 0.000000 0.000000
# 2 -0.003262 0.012633 -0.001264 0.000000 0.000000 0.000000
# 3 -0.001264 -0.001264 0.019084 0.000000 0.000000 0.000000
# 4 0.000000 0.000000 0.000000 0.040135 0.000000 0.000000
# 5 0.000000 0.000000 0.000000 0.000000 0.040135 0.000000
# 6 0.000000 0.000000 0.000000 0.000000 0.000000 0.024187
#
#
# Mechanical properties :
#
#
# Convention : Reuss Voigt Hill
#
# Bulk Modulus (GPa) = 30.51808 33.27520 31.89664
# Shear Modulus (GPa) = 29.18661 30.74568 29.96615
#
# Velocity S-wave (km/s) = 3.54798 3.64151 3.59505
# Velocity P-wave (km/s) = 5.47235 5.65971 5.56682
#
# Compressibility (1/GPa) = 0.03276746
#
# Stress axis : x y z
#
# Youngs Moduli (GPa) = 79.16065 79.16065 52.39870
#
# Poissons Ratio (x) = 0.25825 0.06625
# Poissons Ratio (y) = 0.25825 0.06625
# Poissons Ratio (z) = 0.10009 0.10009
#
# Static dielectric constant tensor:
#      x y z
#    x 1.917690 0.000000 0.000000 
#    y 0.000000 1.917690 0.000000 
#    z 0.000000 0.000000 1.913540 
# 
# From -- ./inp_files/700.got.cif
#   From: 2010.05.17/outbox.cif.g08.bks.cpg/sg109_1_cif.got.tgz:700.got - 2010.05.20 10:51:12.
