data_PCOD9554474
_publ_section_title
;
Structure prediction by ZEFSAII (Michael W. Deem and Ramdas Pophale) SiO2 
 PCOD9554474
Probable space group: I 41 C D
;
_chemical_formula_sum "Si O2"
_cell_formula_units_Z 96
_cell_length_a 12.408737
_cell_length_b 12.408737
_cell_length_c 23.045389
_cell_angle_alpha 90.000000
_cell_angle_beta 90.000000
_cell_angle_gamma 90.000000
_cell_volume 3548.454191
_symmetry_space_group_name_H-M "I 41 C D"
_symmetry_group_IT_number 110
_symmetry_cell_setting 'tetragonal'
loop_
_space_group_symop_operation_xyz
x,y,z
-y,1/2+x,1/4+z
-x,-y,z
y,1/2-x,1/4+z
-x,y,1/2+z
x,-y,1/2+z
1/2-y,-x,1/4+z
1/2+y,x,1/4+z
1/2+x,1/2+y,1/2+z
1/2-y,x,3/4+z
1/2-x,1/2-y,1/2+z
1/2+y,-x,3/4+z
1/2-x,1/2+y,z
1/2+x,1/2-y,z
-y,1/2-x,3/4+z
y,1/2+x,3/4+z
loop_
_atom_site_type_symbol
_atom_site_label
_atom_site_fract_x
_atom_site_fract_y
_atom_site_fract_z
Si Si1 0.809539 0.532204 0.326900
Si Si2 0.500000 0.500000 0.485999
Si Si3 0.255646 0.164814 0.402689
Si Si4 0.998170 0.721175 0.236844
Si Si5 0.500000 0.000000 0.525532
Si Si6 0.888588 0.189498 0.332457
Si Si7 0.649635 0.618169 0.690894
O O1 0.754588 0.419716 0.348581
O O2 0.721623 0.625772 0.314715
O O3 0.875248 0.578905 0.382339
O O4 0.892936 0.513998 0.275155
O O5 0.389516 0.501204 0.451964
O O6 0.290473 0.090144 0.455811
O O7 0.347354 0.253419 0.390229
O O8 0.146474 0.229782 0.419974
O O9 0.050407 0.711519 0.299486
O O10 0.885588 0.777356 0.229453
O O11 0.401241 0.024472 0.568190
O O12 0.527161 0.101704 0.483107
#
# Coordination Sequence:
#
# PCOD9554474 Si02
#       7
#    16   8  16  16   8  16  16
#     4  10  22  41  66  99 138 180 234 288 357 433
#     4  12  23  40  67 108 134 180 248 282 352 442
#     4  10  21  44  69  95 141 185 229 294 362 423
#     4  10  23  41  68 101 138 181 242 298 359 434
#     4  10  21  40  69  98 134 186 250 292 356 438
#     4  10  22  44  66  99 141 185 235 298 359 427
#     4   9  21  41  64  97 134 184 234 297 358 414
#
# _framework density 27.054034999999999
#
# number of rings (size 3 to 8) (size 9 to 14) (size 15 to 20)
#    0.000    2.000    1.667    0.500    4.667    0.000 
#    9.000   10.833    0.000    0.000    0.000    0.000 
#    0.000    0.000    0.000    0.000    0.000    0.000 
#
# Total GULP energy -267633.787958 kJ/mol
# GULP energy per Si atom -5575.703916 kJ/mol
# Density = 2.699246 g / cm^3
# Si number density = 27.054035 Si / 1000 Ang^3
#
#
#
# Elastic Constant Matrix: (Units=GPa)
#
#
# Indices 1 2 3 4 5 6 
#
# 1 113.4787 22.8433 20.8243 0.0000 0.0000 0.0000
# 2 22.8433 113.4787 20.8243 0.0000 0.0000 0.0000
# 3 20.8243 20.8243 48.2060 0.0000 0.0000 0.0000
# 4 0.0000 0.0000 0.0000 35.8469 0.0000 0.0000
# 5 0.0000 0.0000 0.0000 0.0000 35.8469 0.0000
# 6 0.0000 0.0000 0.0000 0.0000 0.0000 32.9917
#
#
#
# Elastic Compliance Matrix: (Units=1/GPa)
#
#
# Indices 1 2 3 4 5 6 
#
# 1 0.009742 -0.001291 -0.003651 0.000000 0.000000 0.000000
# 2 -0.001291 0.009742 -0.003651 0.000000 0.000000 0.000000
# 3 -0.003651 -0.003651 0.023898 0.000000 0.000000 0.000000
# 4 0.000000 0.000000 0.000000 0.027896 0.000000 0.000000
# 5 0.000000 0.000000 0.000000 0.000000 0.027896 0.000000
# 6 0.000000 0.000000 0.000000 0.000000 0.000000 0.030311
#
#
# Mechanical properties :
#
#
# Convention : Reuss Voigt Hill
#
# Bulk Modulus (GPa) = 38.17152 44.90521 41.53836
# Shear Modulus (GPa) = 32.17431 34.98188 33.57810
#
# Velocity S-wave (km/s) = 3.45231 3.59978 3.52682
# Velocity P-wave (km/s) = 5.48008 5.82343 5.65436
#
# Compressibility (1/GPa) = 0.02619754
#
# Stress axis : x y z
#
# Youngs Moduli (GPa) = 102.64765 102.64765 41.84381
#
# Poissons Ratio (x) = 0.13253 0.15276
# Poissons Ratio (y) = 0.13253 0.15276
# Poissons Ratio (z) = 0.37473 0.37473
#
# Static dielectric constant tensor:
#      x y z
#    x 2.190980 0.000000 0.000000 
#    y 0.000000 2.190980 0.000000 
#    z 0.000000 0.000000 2.169110 
# 
# From -- ./inp_files/2627.got.cif
#   From: 2010.05.17/outbox.cif.g08.bks.cpg/sg110_2_cif.got.tgz:2627.got - 2010.05.20 10:54:03.
