data_PCOD9554741
_publ_section_title
;
Structure prediction by ZEFSAII (Michael W. Deem and Ramdas Pophale) SiO2 
 PCOD9554741
Probable space group: P -4 2 M 
;
_chemical_formula_sum "Si O2"
_cell_formula_units_Z 36
_cell_length_a 16.279172
_cell_length_b 16.279172
_cell_length_c 7.575123
_cell_angle_alpha 90.000000
_cell_angle_beta 90.000000
_cell_angle_gamma 90.000000
_cell_volume 2007.494262
_symmetry_space_group_name_H-M "P -4 2 M "
_symmetry_group_IT_number 111
_symmetry_cell_setting 'tetragonal'
loop_
_space_group_symop_operation_xyz
x,y,z
y,-x,-z
-x,-y,z
-y,x,-z
x,-y,-z
-x,y,-z
-y,-x,z
y,x,z
loop_
_atom_site_type_symbol
_atom_site_label
_atom_site_fract_x
_atom_site_fract_y
_atom_site_fract_z
Si Si1 0.869968 0.000000 0.500000
Si Si2 0.985047 0.255865 0.797601
Si Si3 0.304258 0.830842 0.267140
Si Si4 0.593870 0.270009 0.550177
Si Si5 0.324968 0.810814 0.862777
O O1 0.815658 0.967118 0.340139
O O2 0.928008 0.071993 0.430190
O O3 0.071032 0.294297 0.730939
O O4 0.905400 0.313646 0.806848
O O5 0.000000 0.227564 0.000000
O O6 0.216367 0.783633 0.284181
O O7 0.362000 0.794304 0.417773
O O8 0.337875 0.808321 0.072573
O O9 0.500000 0.281031 0.500000
O O10 0.646471 0.353530 0.536736
O O11 0.606850 0.233475 0.745747
O O12 0.240511 0.759490 0.827588
#
# Coordination Sequence:
#
# PCOD9554741 Si02
#       5
#     4   8   8   8   8
#     4  11  22  30  40  66 103 140 180 228 271 298
#     4  10  19  33  53  74  99 137 182 218 252 302
#     4   9  18  33  53  76 103 137 175 214 255 298
#     4  10  21  37  57  79 103 131 163 204 256 314
#     4   9  18  33  53  76 103 137 175 214 255 298
#
# _framework density 17.932804000000001
#
# number of rings (size 3 to 8) (size 9 to 14) (size 15 to 20)
#    0.000    2.333    0.000    2.667    0.000    5.556 
#    0.000    3.333    0.000    4.000    0.000    6.222 
#    0.000    0.000    0.000    0.000    0.000    0.000 
#
# Total GULP energy -200803.220297 kJ/mol
# GULP energy per Si atom -5577.867230 kJ/mol
# Density = 1.789199 g / cm^3
# Si number density = 17.932804 Si / 1000 Ang^3
#
#
#
# Elastic Constant Matrix: (Units=GPa)
#
#
# Indices 1 2 3 4 5 6 
#
# 1 57.7596 -15.9084 10.3158 0.0000 0.0000 0.0000
# 2 -15.9084 57.7596 10.3161 0.0000 0.0000 0.0000
# 3 10.3158 10.3161 32.3769 0.0000 0.0000 0.0000
# 4 0.0000 0.0000 0.0000 20.0121 0.0000 0.0000
# 5 0.0000 0.0000 0.0000 0.0000 20.0141 0.0000
# 6 0.0000 0.0000 0.0000 0.0000 0.0000 7.5243
#
#
#
# Elastic Compliance Matrix: (Units=1/GPa)
#
#
# Indices 1 2 3 4 5 6 
#
# 1 0.020961 0.007386 -0.009032 0.000000 0.000000 0.000000
# 2 0.007386 0.020961 -0.009032 0.000000 0.000000 0.000000
# 3 -0.009032 -0.009032 0.036642 0.000000 0.000000 0.000000
# 4 0.000000 0.000000 0.000000 0.049970 0.000000 0.000000
# 5 0.000000 0.000000 0.000000 0.000000 0.049965 0.000000
# 6 0.000000 0.000000 0.000000 0.000000 0.000000 0.132902
#
#
# Mechanical properties :
#
#
# Convention : Reuss Voigt Hill
#
# Bulk Modulus (GPa) = 17.48016 17.48257 17.48136
# Shear Modulus (GPa) = 14.21164 19.05495 16.63329
#
# Velocity S-wave (km/s) = 2.81818 3.26325 3.04885
# Velocity P-wave (km/s) = 4.51201 4.89577 4.70780
#
# Compressibility (1/GPa) = 0.05720772
#
# Stress axis : x y z
#
# Youngs Moduli (GPa) = 47.70868 47.70852 27.29129
#
# Poissons Ratio (x) = -0.35238 0.24649
# Poissons Ratio (y) = -0.35238 0.24649
# Poissons Ratio (z) = 0.43089 0.43090
#
# Static dielectric constant tensor:
#      x y z
#    x 1.602270 0.000000 0.000000 
#    y 0.000000 1.602280 0.000000 
#    z 0.000000 0.000000 1.623340 
# 
# From -- ./inp_files/1391.got.cif
#   From: 2010.05.17/outbox.cif.g08.bks.cpg/sg111_1_cif.got.tgz:1391.got - 2010.05.20 10:56:05.
