data_PCOD9554920
_publ_section_title
;
Structure prediction by ZEFSAII (Michael W. Deem and Ramdas Pophale) SiO2 
 PCOD9554920
Probable space group: P -4 2 C
;
_chemical_formula_sum "Si O2"
_cell_formula_units_Z 48
_cell_length_a 25.812799
_cell_length_b 25.812799
_cell_length_c 5.418480
_cell_angle_alpha 90.000000
_cell_angle_beta 90.000000
_cell_angle_gamma 90.000000
_cell_volume 3610.336433
_symmetry_space_group_name_H-M "P -4 2 C"
_symmetry_group_IT_number 112
_symmetry_cell_setting 'tetragonal'
loop_
_space_group_symop_operation_xyz
x,y,z
y,-x,-z
-x,-y,z
-y,x,-z
x,-y,1/2-z
-x,y,1/2-z
-y,-x,1/2+z
y,x,1/2+z
loop_
_atom_site_type_symbol
_atom_site_label
_atom_site_fract_x
_atom_site_fract_y
_atom_site_fract_z
Si Si1 0.559701 0.021930 0.002655
Si Si2 0.300212 0.387063 0.590422
Si Si3 0.240796 0.398040 0.089631
Si Si4 0.261401 0.281761 0.090249
Si Si5 0.466689 0.859597 0.999037
Si Si6 0.445150 0.405893 0.151334
O O1 0.558570 0.083694 0.019810
O O2 0.500000 0.000000 0.002402
O O3 0.584650 0.000000 0.250000
O O4 0.582801 0.000000 0.750000
O O5 0.272951 0.409268 0.342116
O O6 0.294237 0.324245 0.582931
O O7 0.359385 0.404136 0.618474
O O8 0.273369 0.406831 0.840277
O O9 0.232439 0.336225 0.099474
O O10 0.187752 0.428247 0.052748
O O11 0.252987 0.250510 0.337886
O O12 0.500000 0.850892 0.250000
O O13 0.500000 0.862929 0.750000
O O14 0.500000 0.384429 0.250000
O O15 0.430068 0.444434 0.376671
#
# Coordination Sequence:
#
# PCOD9554920 Si02
#       6
#     8   8   8   8   8   8
#     4  10  16  30  46  56  71 111 149 152 162 217
#     4  10  19  36  52  63  79 105 124 134 175 249
#     4  10  20  30  44  66  84  96 117 155 182 203
#     4   8  14  27  45  56  71  95 119 133 158 219
#     4  12  21  30  42  62  87 105 126 161 194 208
#     4  12  25  40  57  70  80  98 121 150 181 225
#
# _framework density 13.295161
#
# number of rings (size 3 to 8) (size 9 to 14) (size 15 to 20)
#    0.000    1.667    3.333    5.500    0.000    3.000 
#    0.000    0.000    0.000    0.000    0.000    0.000 
#    0.000    0.000    0.000    0.000    0.000    0.000 
#
# Total GULP energy -267330.263823 kJ/mol
# GULP energy per Si atom -5569.380496 kJ/mol
# Density = 1.326490 g / cm^3
# Si number density = 13.295161 Si / 1000 Ang^3
#
#
#
# Elastic Constant Matrix: (Units=GPa)
#
#
# Indices 1 2 3 4 5 6 
#
# 1 44.3217 12.1119 26.0893 0.0000 0.0000 0.0000
# 2 12.1119 44.3217 26.0893 0.0000 0.0000 0.0000
# 3 26.0893 26.0893 154.1232 0.0000 0.0000 0.0000
# 4 0.0000 0.0000 0.0000 7.4027 0.0000 0.0000
# 5 0.0000 0.0000 0.0000 0.0000 7.4027 0.0000
# 6 0.0000 0.0000 0.0000 0.0000 0.0000 -0.1527
#
#
#
# Elastic Compliance Matrix: (Units=1/GPa)
#
#
# Indices 1 2 3 4 5 6 
#
# 1 0.026027 -0.005019 -0.003556 0.000000 0.000000 0.000000
# 2 -0.005019 0.026027 -0.003556 0.000000 0.000000 0.000000
# 3 -0.003556 -0.003556 0.007692 0.000000 0.000000 0.000000
# 4 0.000000 0.000000 0.000000 0.135086 0.000000 0.000000
# 5 0.000000 0.000000 0.000000 0.000000 0.135086 0.000000
# 6 0.000000 0.000000 0.000000 0.000000 0.000000 -6.550406
#
#
# Mechanical properties :
#
#
# Convention : Reuss Voigt Hill
#
# Bulk Modulus (GPa) = 28.18207 41.26088 34.72147
# Shear Modulus (GPa) = -0.80849 14.82896 7.01024
#
# Velocity S-wave (km/s) = -0.78066 3.34333 2.29874
# Velocity P-wave (km/s) = 4.52003 6.78275 5.76352
#
# Compressibility (1/GPa) = 0.03548356
#
# Stress axis : x y z
#
# Youngs Moduli (GPa) = 38.42136 38.42136 130.00094
#
# Poissons Ratio (x) = 0.19285 0.46230
# Poissons Ratio (y) = 0.19285 0.46230
# Poissons Ratio (z) = 0.13663 0.13663
#
# Static dielectric constant tensor:
#      x y z
#    x 1.393440 0.000000 0.000000 
#    y 0.000000 1.393440 0.000000 
#    z 0.000000 0.000000 1.480360 
# 
# From -- ./inp_files/435.got.cif
#   From: 2010.05.17/outbox.cif.g08.bks.cpg/sg112_1_cif.got.tgz:435.got - 2010.05.20 10:59:04.
