data_PCOD9554158
_publ_section_title
;
Structure prediction by ZEFSAII (Michael W. Deem and Ramdas Pophale) SiO2 
 PCOD9554158
Probable space group: I 41 M D
;
_chemical_formula_sum "Si O2"
_cell_formula_units_Z 96
_cell_length_a 20.785008
_cell_length_b 20.785008
_cell_length_c 9.767598
_cell_angle_alpha 90.000000
_cell_angle_beta 90.000000
_cell_angle_gamma 90.000000
_cell_volume 4219.764064
_symmetry_space_group_name_H-M "I 41 M D"
_symmetry_group_IT_number 109
_symmetry_cell_setting 'tetragonal'
loop_
_space_group_symop_operation_xyz
x,y,z
-y,1/2+x,1/4+z
-x,-y,z
y,1/2-x,1/4+z
-x,y,z
x,-y,z
-y,1/2-x,1/4+z
y,1/2+x,1/4+z
1/2+x,1/2+y,1/2+z
1/2-y,x,3/4+z
1/2-x,1/2-y,1/2+z
1/2+y,-x,3/4+z
1/2-x,1/2+y,1/2+z
1/2+x,1/2-y,1/2+z
1/2-y,-x,3/4+z
1/2+y,x,3/4+z
loop_
_atom_site_type_symbol
_atom_site_label
_atom_site_fract_x
_atom_site_fract_y
_atom_site_fract_z
Si Si1 0.305690 0.749372 0.369640
Si Si2 0.882569 0.209020 0.455044
Si Si3 0.426148 0.171826 0.812553
Si Si4 0.927616 0.426706 0.069358
Si Si5 0.068303 0.791759 0.730596
Si Si6 0.573831 0.077058 0.072101
O O1 0.297188 0.760027 0.530414
O O2 0.293611 0.815528 0.286024
O O3 0.377386 0.730871 0.331606
O O4 0.884804 0.264166 0.340032
O O5 0.927540 0.235083 0.577956
O O6 0.902408 0.138059 0.405259
O O7 0.500000 0.194345 0.803563
O O8 0.413696 0.128984 0.678498
O O9 0.421485 0.120526 0.935921
O O10 0.925996 0.500000 0.129412
O O11 0.869033 0.425015 0.964238
O O12 0.000000 0.418120 0.014845
O O13 0.000000 0.776695 0.792884
O O14 0.500000 0.087789 0.128004
O O15 0.578296 0.000000 0.046453
#
# Coordination Sequence:
#
# PCOD9554158 Si02
#       6
#    16  16  16  16  16  16
#     4  10  23  40  60  87 118 162 204 250 306 367
#     4  11  22  37  57  86 116 157 200 247 305 362
#     4  10  20  36  59  85 115 150 192 247 302 359
#     4   9  19  37  61  89 120 156 198 248 309 369
#     4  10  21  39  60  84 117 158 199 243 301 367
#     4  10  20  34  55  83 114 150 195 248 301 358
#
# _framework density 22.750086
#
# number of rings (size 3 to 8) (size 9 to 14) (size 15 to 20)
#    0.000    2.000    0.000    4.000    2.333    4.667 
#    0.000    4.167    0.000    4.000    0.000    0.000 
#    0.000    0.000    0.000    0.000    0.000    0.000 
#
# Total GULP energy -267785.976142 kJ/mol
# GULP energy per Si atom -5578.874503 kJ/mol
# Density = 2.269831 g / cm^3
# Si number density = 22.750086 Si / 1000 Ang^3
#
#
#
# Elastic Constant Matrix: (Units=GPa)
#
#
# Indices 1 2 3 4 5 6 
#
# 1 69.7083 16.0608 6.6932 0.0000 0.0000 0.0000
# 2 16.0608 69.7083 6.6932 0.0000 0.0000 0.0000
# 3 6.6932 6.6932 42.4943 0.0000 0.0000 0.0000
# 4 0.0000 0.0000 0.0000 6.2047 0.0000 0.0000
# 5 0.0000 0.0000 0.0000 0.0000 6.2047 0.0000
# 6 0.0000 0.0000 0.0000 0.0000 0.0000 26.2734
#
#
#
# Elastic Compliance Matrix: (Units=1/GPa)
#
#
# Indices 1 2 3 4 5 6 
#
# 1 0.015297 -0.003344 -0.001883 0.000000 0.000000 0.000000
# 2 -0.003344 0.015297 -0.001883 0.000000 0.000000 0.000000
# 3 -0.001883 -0.001883 0.024126 0.000000 0.000000 0.000000
# 4 0.000000 0.000000 0.000000 0.161167 0.000000 0.000000
# 5 0.000000 0.000000 0.000000 0.000000 0.161167 0.000000
# 6 0.000000 0.000000 0.000000 0.000000 0.000000 0.038061
#
#
# Mechanical properties :
#
#
# Convention : Reuss Voigt Hill
#
# Bulk Modulus (GPa) = 24.69075 26.75612 25.72343
# Shear Modulus (GPa) = 11.29096 17.90083 14.59589
#
# Velocity S-wave (km/s) = 2.23020 2.80812 2.53568
# Velocity P-wave (km/s) = 4.18430 4.72234 4.46144
#
# Compressibility (1/GPa) = 0.04050099
#
# Stress axis : x y z
#
# Youngs Moduli (GPa) = 65.37387 65.37387 41.44965
#
# Poissons Ratio (x) = 0.21858 0.07804
# Poissons Ratio (y) = 0.21858 0.07804
# Poissons Ratio (z) = 0.12308 0.12308
#
# Static dielectric constant tensor:
#      x y z
#    x 1.995520 0.000000 0.000000 
#    y 0.000000 1.995520 0.000000 
#    z 0.000000 0.000000 1.818810 
# 
# From -- ./inp_files/2045.got.cif
#   From: 2010.05.17/outbox.cif.g08.bks.cpg/sg109_2_cif.got.tgz:2045.got - 2010.05.20 10:51:12.
