data_PCOD9554658
_publ_section_title
;
Structure prediction by ZEFSAII (Michael W. Deem and Ramdas Pophale) SiO2 
 PCOD9554658
Probable space group: P -4 2 M 
;
_chemical_formula_sum "Si O2"
_cell_formula_units_Z 56
_cell_length_a 11.955995
_cell_length_b 11.955995
_cell_length_c 21.399331
_cell_angle_alpha 90.000000
_cell_angle_beta 90.000000
_cell_angle_gamma 90.000000
_cell_volume 3058.944841
_symmetry_space_group_name_H-M "P -4 2 M "
_symmetry_group_IT_number 111
_symmetry_cell_setting 'tetragonal'
loop_
_space_group_symop_operation_xyz
x,y,z
y,-x,-z
-x,-y,z
-y,x,-z
x,-y,-z
-x,y,-z
-y,-x,z
y,x,z
loop_
_atom_site_type_symbol
_atom_site_label
_atom_site_fract_x
_atom_site_fract_y
_atom_site_fract_z
Si Si1 0.187663 0.000481 0.427892
Si Si2 0.648090 0.169177 0.109558
Si Si3 0.761663 0.414193 0.250533
Si Si4 0.167879 0.654730 0.770902
Si Si5 0.950659 0.224133 0.936127
Si Si6 0.782462 0.396458 0.915193
Si Si7 0.627454 0.027236 0.324005
O O1 0.108073 0.108073 0.419425
O O2 0.286319 0.999667 0.378265
O O3 0.226699 0.000000 0.500000
O O4 0.106886 0.893115 0.419287
O O5 0.734075 0.265926 0.091220
O O6 0.619759 0.186412 0.183147
O O7 0.527611 0.194336 0.077472
O O8 0.712023 0.051401 0.099314
O O9 0.641164 0.358836 0.254277
O O10 0.764156 0.547545 0.254445
O O11 0.844630 0.366710 0.302653
O O12 0.231692 0.768309 0.756081
O O13 0.172663 0.636508 0.845442
O O14 0.048905 0.650307 0.737406
O O15 0.874551 0.125450 0.905321
O O16 0.863683 0.321161 0.956815
O O17 0.000000 0.177422 0.000000
O O18 0.657173 0.342828 0.919751
O O19 0.500000 0.000000 0.342704
#
# Coordination Sequence:
#
# PCOD9554658 Si02
#       7
#     8   8   8   8   8   8   8
#     4   9  18  32  48  65  88 121 159 197 236 278
#     4  10  20  34  53  76 102 129 158 198 244 289
#     4   9  18  31  47  70  99 128 156 188 231 282
#     4   9  17  30  49  72  97 125 157 192 231 279
#     4  11  23  38  55  72  94 127 166 205 244 292
#     4   9  19  35  54  76 100 128 162 198 240 291
#     4  10  18  28  46  70  96 124 154 192 234 276
#
# _framework density 18.306965999999999
#
# number of rings (size 3 to 8) (size 9 to 14) (size 15 to 20)
#    0.000    2.429    0.000    3.000    0.000    5.286 
#    0.000    3.571    0.000    1.714    0.000    2.000 
#    0.000    0.000    0.000   26.571    0.000    0.286 
#
# Total GULP energy -312121.105086 kJ/mol
# GULP energy per Si atom -5573.591162 kJ/mol
# Density = 1.826530 g / cm^3
# Si number density = 18.306966 Si / 1000 Ang^3
#
#
#
# Elastic Constant Matrix: (Units=GPa)
#
#
# Indices 1 2 3 4 5 6 
#
# 1 77.8841 42.1403 15.2047 0.0000 0.0000 0.0000
# 2 42.1403 77.8765 15.2042 0.0000 0.0000 0.0000
# 3 15.2047 15.2042 38.6431 0.0000 0.0000 0.0000
# 4 0.0000 0.0000 0.0000 23.9353 0.0000 0.0000
# 5 0.0000 0.0000 0.0000 0.0000 23.9356 0.0000
# 6 0.0000 0.0000 0.0000 0.0000 0.0000 24.0196
#
#
#
# Elastic Compliance Matrix: (Units=1/GPa)
#
#
# Indices 1 2 3 4 5 6 
#
# 1 0.018616 -0.009363 -0.003641 0.000000 0.000000 0.000000
# 2 -0.009363 0.018618 -0.003641 0.000000 0.000000 0.000000
# 3 -0.003641 -0.003641 0.028743 0.000000 0.000000 0.000000
# 4 0.000000 0.000000 0.000000 0.041779 0.000000 0.000000
# 5 0.000000 0.000000 0.000000 0.000000 0.041779 0.000000
# 6 0.000000 0.000000 0.000000 0.000000 0.000000 0.041633
#
#
# Mechanical properties :
#
#
# Convention : Reuss Voigt Hill
#
# Bulk Modulus (GPa) = 30.59307 37.72246 34.15777
# Shear Modulus (GPa) = 21.24456 22.50173 21.87315
#
# Velocity S-wave (km/s) = 3.41025 3.50971 3.46034
# Velocity P-wave (km/s) = 5.67925 6.08887 5.88762
#
# Compressibility (1/GPa) = 0.03268714
#
# Stress axis : x y z
#
# Youngs Moduli (GPa) = 53.71666 53.71117 34.79083
#
# Poissons Ratio (x) = 0.50288 0.12667
# Poissons Ratio (y) = 0.50293 0.12669
# Poissons Ratio (z) = 0.19558 0.19559
#
# Static dielectric constant tensor:
#      x y z
#    x 1.638790 0.000000 0.000000 
#    y 0.000000 1.638800 0.000000 
#    z 0.000000 0.000000 1.657810 
# 
# From -- ./inp_files/3962.got.cif
#   From: 2010.05.17/outbox.cif.g08.bks.cpg/sg111_2_cif.got.tgz:3962.got - 2010.05.20 10:56:05.
