data_PCOD9554720
_publ_section_title
;
Structure prediction by ZEFSAII (Michael W. Deem and Ramdas Pophale) SiO2 
 PCOD9554720
Probable space group: P -4 2 M 
;
_chemical_formula_sum "Si O2"
_cell_formula_units_Z 36
_cell_length_a 12.319868
_cell_length_b 12.319868
_cell_length_c 14.002168
_cell_angle_alpha 90.000000
_cell_angle_beta 90.000000
_cell_angle_gamma 90.000000
_cell_volume 2125.237123
_symmetry_space_group_name_H-M "P -4 2 M "
_symmetry_group_IT_number 111
_symmetry_cell_setting 'tetragonal'
loop_
_space_group_symop_operation_xyz
x,y,z
y,-x,-z
-x,-y,z
-y,x,-z
x,-y,-z
-x,y,-z
-y,-x,z
y,x,z
loop_
_atom_site_type_symbol
_atom_site_label
_atom_site_fract_x
_atom_site_fract_y
_atom_site_fract_z
Si Si1 0.000000 0.186842 0.500000
Si Si2 0.304076 0.126664 0.987156
Si Si3 0.786769 0.393922 0.207144
Si Si4 0.374821 0.988941 0.341049
Si Si5 0.366016 0.809266 0.801443
O O1 0.997744 0.272717 0.588134
O O2 0.105335 0.105335 0.501647
O O3 0.192502 0.192502 0.973283
O O4 0.355426 0.167790 0.085925
O O5 0.376172 0.153257 0.894701
O O6 0.285444 0.000000 0.000000
O O7 0.686435 0.313566 0.210333
O O8 0.753778 0.518614 0.216122
O O9 0.872668 0.367660 0.289847
O O10 0.365985 0.080190 0.258737
O O11 0.500000 0.000000 0.380290
O O12 0.266801 0.733200 0.772275
#
# Coordination Sequence:
#
# PCOD9554720 Si02
#       5
#     4   8   8   8   8
#     4  11  23  38  56  78 107 135 160 206 266 315
#     4  10  19  32  50  74 106 141 178 213 248 296
#     4  10  20  33  52  77 105 138 173 212 253 297
#     4  10  20  36  58  78 100 132 175 213 249 303
#     4  10  20  33  52  77 105 138 173 212 253 297
#
# _framework density 16.939287
#
# number of rings (size 3 to 8) (size 9 to 14) (size 15 to 20)
#    0.000    1.889    2.222    2.333    0.000    1.556 
#    0.000    0.000    0.000    4.000    0.000    0.000 
#    0.000   16.000    0.000    0.000    0.000    0.000 
#
# Total GULP energy -200669.297064 kJ/mol
# GULP energy per Si atom -5574.147141 kJ/mol
# Density = 1.690073 g / cm^3
# Si number density = 16.939287 Si / 1000 Ang^3
#
#
#
# Elastic Constant Matrix: (Units=GPa)
#
#
# Indices 1 2 3 4 5 6 
#
# 1 61.9058 17.4057 3.7531 0.0000 0.0000 0.0000
# 2 17.4057 61.8906 3.7487 0.0000 0.0000 0.0000
# 3 3.7531 3.7487 55.5286 0.0000 0.0000 0.0000
# 4 0.0000 0.0000 0.0000 22.6070 0.0000 0.0000
# 5 0.0000 0.0000 0.0000 0.0000 22.6065 0.0000
# 6 0.0000 0.0000 0.0000 0.0000 0.0000 18.1995
#
#
#
# Elastic Compliance Matrix: (Units=1/GPa)
#
#
# Indices 1 2 3 4 5 6 
#
# 1 0.017581 -0.004892 -0.000858 0.000000 0.000000 0.000000
# 2 -0.004892 0.017585 -0.000856 0.000000 0.000000 0.000000
# 3 -0.000858 -0.000856 0.018125 0.000000 0.000000 0.000000
# 4 0.000000 0.000000 0.000000 0.044234 0.000000 0.000000
# 5 0.000000 0.000000 0.000000 0.000000 0.044235 0.000000
# 6 0.000000 0.000000 0.000000 0.000000 0.000000 0.054947
#
#
# Mechanical properties :
#
#
# Convention : Reuss Voigt Hill
#
# Bulk Modulus (GPa) = 24.95183 25.45997 25.20590
# Shear Modulus (GPa) = 22.39343 22.97710 22.68526
#
# Velocity S-wave (km/s) = 3.63985 3.68698 3.66349
# Velocity P-wave (km/s) = 5.69446 5.76089 5.72777
#
# Compressibility (1/GPa) = 0.04007722
#
# Stress axis : x y z
#
# Youngs Moduli (GPa) = 56.87909 56.86559 55.17377
#
# Poissons Ratio (x) = 0.27821 0.04734
# Poissons Ratio (y) = 0.27828 0.04726
# Poissons Ratio (z) = 0.04880 0.04870
#
# Static dielectric constant tensor:
#      x y z
#    x 1.553370 0.000000 0.000000 
#    y 0.000000 1.553370 0.000000 
#    z 0.000000 0.000000 1.580980 
# 
# From -- ./inp_files/3193.got.cif
#   From: 2010.05.17/outbox.cif.g08.bks.cpg/sg111_2_cif.got.tgz:3193.got - 2010.05.20 10:56:05.
