data_PCOD9554989
_publ_section_title
;
Structure prediction by ZEFSAII (Michael W. Deem and Ramdas Pophale) SiO2 
 PCOD9554989
Probable space group: P -4 2 C
;
_chemical_formula_sum "Si O2"
_cell_formula_units_Z 48
_cell_length_a 16.160272
_cell_length_b 16.160272
_cell_length_c 9.261337
_cell_angle_alpha 90.000000
_cell_angle_beta 90.000000
_cell_angle_gamma 90.000000
_cell_volume 2418.638825
_symmetry_space_group_name_H-M "P -4 2 C"
_symmetry_group_IT_number 112
_symmetry_cell_setting 'tetragonal'
loop_
_space_group_symop_operation_xyz
x,y,z
y,-x,-z
-x,-y,z
-y,x,-z
x,-y,1/2-z
-x,y,1/2-z
-y,-x,1/2+z
y,x,1/2+z
loop_
_atom_site_type_symbol
_atom_site_label
_atom_site_fract_x
_atom_site_fract_y
_atom_site_fract_z
Si Si1 0.736001 0.087280 0.319262
Si Si2 0.825012 0.287618 0.085016
Si Si3 0.851202 0.286123 0.518884
Si Si4 0.471411 0.612816 0.913998
Si Si5 0.911308 0.838008 0.190463
Si Si6 0.206471 0.582456 0.321898
O O1 0.687748 0.108355 0.464741
O O2 0.836223 0.097941 0.338478
O O3 0.718242 0.000000 0.250000
O O4 0.707788 0.146636 0.189630
O O5 0.757437 0.237511 0.991541
O O6 0.873443 0.223465 0.188787
O O7 0.784083 0.355086 0.186717
O O8 0.916524 0.219805 0.452983
O O9 0.852816 0.370927 0.433586
O O10 0.500000 0.592024 0.750000
O O11 0.439810 0.706843 0.899274
O O12 0.549875 0.596861 0.020328
O O13 0.000000 0.868230 0.250000
O O14 0.171803 0.500000 0.250000
#
# Coordination Sequence:
#
# PCOD9554989 Si02
#       6
#     8   8   8   8   8   8
#     4  10  19  33  57  85 114 151 189 238 294 345
#     4   9  19  36  54  80 115 149 194 234 282 347
#     4   9  19  35  54  79 111 148 193 232 281 345
#     4  10  21  38  55  83 121 151 179 226 302 372
#     4   9  17  32  55  83 118 153 182 228 285 355
#     4  10  22  37  58  80 106 148 198 235 282 340
#
# _framework density 19.845873000000001
#
# number of rings (size 3 to 8) (size 9 to 14) (size 15 to 20)
#    0.000    2.500    0.000    3.000    4.667    0.333 
#    0.000    0.833    0.000   25.000    0.000    0.000 
#    0.000    0.000    0.000    0.000    0.000    0.000 
#
# Total GULP energy -267221.814321 kJ/mol
# GULP energy per Si atom -5567.121132 kJ/mol
# Density = 1.980070 g / cm^3
# Si number density = 19.845873 Si / 1000 Ang^3
#
#
#
# Elastic Constant Matrix: (Units=GPa)
#
#
# Indices 1 2 3 4 5 6 
#
# 1 43.0762 -4.8824 2.1417 0.0000 0.0000 0.0000
# 2 -4.8824 43.0762 2.1417 0.0000 0.0000 0.0000
# 3 2.1417 2.1417 96.9757 0.0000 0.0000 0.0000
# 4 0.0000 0.0000 0.0000 24.1597 0.0000 0.0000
# 5 0.0000 0.0000 0.0000 0.0000 24.1597 0.0000
# 6 0.0000 0.0000 0.0000 0.0000 0.0000 14.9426
#
#
#
# Elastic Compliance Matrix: (Units=1/GPa)
#
#
# Indices 1 2 3 4 5 6 
#
# 1 0.023549 0.002698 -0.000580 0.000000 0.000000 0.000000
# 2 0.002698 0.023549 -0.000580 0.000000 0.000000 0.000000
# 3 -0.000580 -0.000580 0.010337 0.000000 0.000000 0.000000
# 4 0.000000 0.000000 0.000000 0.041391 0.000000 0.000000
# 5 0.000000 0.000000 0.000000 0.000000 0.041391 0.000000
# 6 0.000000 0.000000 0.000000 0.000000 0.000000 0.066923
#
#
# Mechanical properties :
#
#
# Convention : Reuss Voigt Hill
#
# Bulk Modulus (GPa) = 16.52529 20.21445 18.36987
# Shear Modulus (GPa) = 22.29805 24.90090 23.59948
#
# Velocity S-wave (km/s) = 3.35559 3.54604 3.45213
# Velocity P-wave (km/s) = 4.83303 5.19362 5.01657
#
# Compressibility (1/GPa) = 0.06051332
#
# Stress axis : x y z
#
# Youngs Moduli (GPa) = 42.46414 42.46414 96.73550
#
# Poissons Ratio (x) = -0.11457 0.05607
# Poissons Ratio (y) = -0.11457 0.05607
# Poissons Ratio (z) = 0.02461 0.02461
#
# Static dielectric constant tensor:
#      x y z
#    x 1.750510 0.000000 0.000000 
#    y 0.000000 1.750510 0.000000 
#    z 0.000000 0.000000 1.777730 
# 
# From -- ./inp_files/1452.got.cif
#   From: 2010.05.17/outbox.cif.g08.bks.cpg/sg112_1_cif.got.tgz:1452.got - 2010.05.20 10:59:04.
