data_PCOD9554368
_publ_section_title
;
Structure prediction by ZEFSAII (Michael W. Deem and Ramdas Pophale) SiO2 
 PCOD9554368
Probable space group: I 41 C D
;
_chemical_formula_sum "Si O2"
_cell_formula_units_Z 88
_cell_length_a 10.947891
_cell_length_b 10.947891
_cell_length_c 31.632731
_cell_angle_alpha 90.000000
_cell_angle_beta 90.000000
_cell_angle_gamma 90.000000
_cell_volume 3791.382645
_symmetry_space_group_name_H-M "I 41 C D"
_symmetry_group_IT_number 110
_symmetry_cell_setting 'tetragonal'
loop_
_space_group_symop_operation_xyz
x,y,z
-y,1/2+x,1/4+z
-x,-y,z
y,1/2-x,1/4+z
-x,y,1/2+z
x,-y,1/2+z
1/2-y,-x,1/4+z
1/2+y,x,1/4+z
1/2+x,1/2+y,1/2+z
1/2-y,x,3/4+z
1/2-x,1/2-y,1/2+z
1/2+y,-x,3/4+z
1/2-x,1/2+y,z
1/2+x,1/2-y,z
-y,1/2-x,3/4+z
y,1/2+x,3/4+z
loop_
_atom_site_type_symbol
_atom_site_label
_atom_site_fract_x
_atom_site_fract_y
_atom_site_fract_z
Si Si1 0.358035 0.897949 0.990120
Si Si2 0.000000 0.500000 0.068637
Si Si3 0.000000 0.000000 0.530858
Si Si4 0.713850 0.862179 0.099182
Si Si5 0.862179 0.713850 0.250313
Si Si6 0.000000 0.500000 0.424747
Si Si7 0.602051 0.141965 0.859375
O O1 0.279760 0.776242 0.984697
O O2 0.472346 0.892529 0.958239
O O3 0.286708 0.024223 0.980474
O O4 0.411944 0.921447 0.037193
O O5 0.074458 0.593591 0.096974
O O6 0.088056 0.078553 0.562302
O O7 0.925542 0.093591 0.502521
O O8 0.720240 0.723758 0.114798
O O9 0.786708 0.975777 0.119021
O O10 0.750000 0.856607 0.049748
O O11 0.892529 0.472346 0.391256
#
# Coordination Sequence:
#
# PCOD9554368 Si02
#       7
#    16   8   8  16  16   8  16
#     4  10  21  36  56  80 114 151 191 239 295 365
#     4   9  18  33  58  87 114 141 184 242 304 355
#     4   9  18  33  58  87 114 141 184 242 304 355
#     4  10  19  34  58  87 113 145 192 250 304 355
#     4  10  19  34  58  87 113 145 192 250 304 355
#     4  10  24  40  52  72 108 158 192 226 292 366
#     4  10  21  36  56  80 114 151 191 239 295 365
#
# _framework density 23.210528
#
# number of rings (size 3 to 8) (size 9 to 14) (size 15 to 20)
#    0.000    2.182    0.000    4.364    0.000    7.273 
#    0.000    0.000    0.000    0.000    0.000    0.000 
#    0.000    0.000    0.000    0.000    0.000    0.000 
#
# Total GULP energy -244979.073450 kJ/mol
# GULP energy per Si atom -5567.706215 kJ/mol
# Density = 2.315770 g / cm^3
# Si number density = 23.210528 Si / 1000 Ang^3
#
#
#
# Elastic Constant Matrix: (Units=GPa)
#
#
# Indices 1 2 3 4 5 6 
#
# 1 141.2732 68.6468 17.2206 0.0000 0.0000 0.0000
# 2 68.6468 141.2732 17.2206 0.0000 0.0000 0.0000
# 3 17.2206 17.2206 38.5384 0.0000 0.0000 0.0000
# 4 0.0000 0.0000 0.0000 4.1402 0.0000 0.0000
# 5 0.0000 0.0000 0.0000 0.0000 4.1402 0.0000
# 6 0.0000 0.0000 0.0000 0.0000 0.0000 41.2203
#
#
#
# Elastic Compliance Matrix: (Units=1/GPa)
#
#
# Indices 1 2 3 4 5 6 
#
# 1 0.009455 -0.004314 -0.002297 0.000000 0.000000 0.000000
# 2 -0.004314 0.009455 -0.002297 0.000000 0.000000 0.000000
# 3 -0.002297 -0.002297 0.028001 0.000000 0.000000 0.000000
# 4 0.000000 0.000000 0.000000 0.241532 0.000000 0.000000
# 5 0.000000 0.000000 0.000000 0.000000 0.241532 0.000000
# 6 0.000000 0.000000 0.000000 0.000000 0.000000 0.024260
#
#
# Mechanical properties :
#
#
# Convention : Reuss Voigt Hill
#
# Bulk Modulus (GPa) = 34.37134 58.58454 46.47794
# Shear Modulus (GPa) = 8.59477 24.43327 16.51402
#
# Velocity S-wave (km/s) = 1.92640 3.24802 2.67027
# Velocity P-wave (km/s) = 4.44845 6.27388 5.43830
#
# Compressibility (1/GPa) = 0.02909400
#
# Stress axis : x y z
#
# Youngs Moduli (GPa) = 105.76588 105.76588 35.71305
#
# Poissons Ratio (x) = 0.45630 0.08203
# Poissons Ratio (y) = 0.45630 0.08203
# Poissons Ratio (z) = 0.24295 0.24295
#
# Static dielectric constant tensor:
#      x y z
#    x 2.017880 0.000000 0.000000 
#    y 0.000000 2.017880 0.000000 
#    z 0.000000 0.000000 1.871900 
# 
# From -- ./inp_files/3179.got.cif
#   From: 2010.05.17/outbox.cif.g08.bks.cpg/sg110_2_cif.got.tgz:3179.got - 2010.05.20 10:54:03.
