data_PCOD9554230
_publ_section_title
;
Structure prediction by ZEFSAII (Michael W. Deem and Ramdas Pophale) SiO2 
 PCOD9554230
Probable space group: I 41 M D
;
_chemical_formula_sum "Si O2"
_cell_formula_units_Z 64
_cell_length_a 23.575353
_cell_length_b 23.575353
_cell_length_c 4.765530
_cell_angle_alpha 90.000000
_cell_angle_beta 90.000000
_cell_angle_gamma 90.000000
_cell_volume 2648.668560
_symmetry_space_group_name_H-M "I 41 M D"
_symmetry_group_IT_number 109
_symmetry_cell_setting 'tetragonal'
loop_
_space_group_symop_operation_xyz
x,y,z
-y,1/2+x,1/4+z
-x,-y,z
y,1/2-x,1/4+z
-x,y,z
x,-y,z
-y,1/2-x,1/4+z
y,1/2+x,1/4+z
1/2+x,1/2+y,1/2+z
1/2-y,x,3/4+z
1/2-x,1/2-y,1/2+z
1/2+y,-x,3/4+z
1/2-x,1/2+y,1/2+z
1/2+x,1/2-y,1/2+z
1/2-y,-x,3/4+z
1/2+y,x,3/4+z
loop_
_atom_site_type_symbol
_atom_site_label
_atom_site_fract_x
_atom_site_fract_y
_atom_site_fract_z
Si Si1 0.567151 0.724381 0.768220
Si Si2 0.939097 0.560556 0.389426
Si Si3 0.154387 0.610196 0.024910
Si Si4 0.935342 0.675955 0.723046
O O1 0.500000 0.719742 0.703136
O O2 0.568879 0.610036 0.419621
O O3 0.605354 0.707964 0.494165
O O4 0.585258 0.676687 0.987477
O O5 0.934351 0.500000 0.534856
O O6 0.938640 0.613925 0.590294
O O7 0.000000 0.562342 0.239397
O O8 0.280730 0.574912 0.713921
O O9 0.117000 0.666540 0.942792
O O10 0.000000 0.688339 0.834990
#
# Coordination Sequence:
#
# PCOD9554230 Si02
#       4
#    16  16  16  16
#     4  11  25  41  66  99 140 185 244 308 371 449
#     4  10  21  38  63  99 142 183 227 290 374 457
#     4  12  23  41  66  98 135 188 245 298 365 450
#     4  10  24  44  67 102 147 194 242 310 392 461
#
# _framework density 24.163086
#
# number of rings (size 3 to 8) (size 9 to 14) (size 15 to 20)
#    0.000    1.250    2.500    3.000    3.500    2.000 
#    0.000    2.500    0.000    0.000    6.500    0.000 
#    0.000    0.000    0.000    0.000    0.000    0.000 
#
# Total GULP energy -178452.357875 kJ/mol
# GULP energy per Si atom -5576.636184 kJ/mol
# Density = 2.410809 g / cm^3
# Si number density = 24.163086 Si / 1000 Ang^3
#
#
#
# Elastic Constant Matrix: (Units=GPa)
#
#
# Indices 1 2 3 4 5 6 
#
# 1 165.5009 43.9189 56.9241 0.0000 0.0000 0.0000
# 2 43.9189 165.5009 56.9241 0.0000 0.0000 0.0000
# 3 56.9241 56.9241 138.4893 0.0000 0.0000 0.0000
# 4 0.0000 0.0000 0.0000 32.9703 0.0000 0.0000
# 5 0.0000 0.0000 0.0000 0.0000 32.9703 0.0000
# 6 0.0000 0.0000 0.0000 0.0000 0.0000 14.0687
#
#
#
# Elastic Compliance Matrix: (Units=1/GPa)
#
#
# Indices 1 2 3 4 5 6 
#
# 1 0.007187 -0.001038 -0.002528 0.000000 0.000000 0.000000
# 2 -0.001038 0.007187 -0.002528 0.000000 0.000000 0.000000
# 3 -0.002528 -0.002528 0.009299 0.000000 0.000000 0.000000
# 4 0.000000 0.000000 0.000000 0.030330 0.000000 0.000000
# 5 0.000000 0.000000 0.000000 0.000000 0.030330 0.000000
# 6 0.000000 0.000000 0.000000 0.000000 0.000000 0.071080
#
#
# Mechanical properties :
#
#
# Convention : Reuss Voigt Hill
#
# Bulk Modulus (GPa) = 87.05651 87.22503 87.14077
# Shear Modulus (GPa) = 29.16677 36.78347 32.97512
#
# Velocity S-wave (km/s) = 3.47807 3.90590 3.69818
# Velocity P-wave (km/s) = 7.22747 7.51786 7.37409
#
# Compressibility (1/GPa) = 0.01148679
#
# Stress axis : x y z
#
# Youngs Moduli (GPa) = 139.13962 139.13962 107.54335
#
# Poissons Ratio (x) = 0.14441 0.27182
# Poissons Ratio (y) = 0.14441 0.27182
# Poissons Ratio (z) = 0.35168 0.35168
#
# Static dielectric constant tensor:
#      x y z
#    x 1.992160 0.000000 0.000000 
#    y 0.000000 1.992160 0.000000 
#    z 0.000000 0.000000 1.975330 
# 
# From -- ./inp_files/473.got.cif
#   From: 2010.05.17/outbox.cif.g08.bks.cpg/sg109_1_cif.got.tgz:473.got - 2010.05.20 10:51:12.
