data_PCOD9554213
_publ_section_title
;
Structure prediction by ZEFSAII (Michael W. Deem and Ramdas Pophale) SiO2 
 PCOD9554213
Probable space group: I 41 M D
;
_chemical_formula_sum "Si O2"
_cell_formula_units_Z 96
_cell_length_a 15.735367
_cell_length_b 15.735367
_cell_length_c 16.617414
_cell_angle_alpha 90.000000
_cell_angle_beta 90.000000
_cell_angle_gamma 90.000000
_cell_volume 4114.501196
_symmetry_space_group_name_H-M "I 41 M D"
_symmetry_group_IT_number 109
_symmetry_cell_setting 'tetragonal'
loop_
_space_group_symop_operation_xyz
x,y,z
-y,1/2+x,1/4+z
-x,-y,z
y,1/2-x,1/4+z
-x,y,z
x,-y,z
-y,1/2-x,1/4+z
y,1/2+x,1/4+z
1/2+x,1/2+y,1/2+z
1/2-y,x,3/4+z
1/2-x,1/2-y,1/2+z
1/2+y,-x,3/4+z
1/2-x,1/2+y,1/2+z
1/2+x,1/2-y,1/2+z
1/2-y,-x,3/4+z
1/2+y,x,3/4+z
loop_
_atom_site_type_symbol
_atom_site_label
_atom_site_fract_x
_atom_site_fract_y
_atom_site_fract_z
Si Si1 0.597187 0.900463 0.598500
Si Si2 0.357174 0.590872 0.757994
Si Si3 0.777302 0.834705 0.986491
Si Si4 0.361087 0.729912 0.207540
Si Si5 0.092881 0.593524 0.331445
Si Si6 0.835905 0.593384 0.777686
O O1 0.500000 0.889079 0.570611
O O2 0.614823 0.831088 0.668559
O O3 0.664060 0.887269 0.526699
O O4 0.605486 0.000000 0.624292
O O5 0.374594 0.500000 0.802709
O O6 0.368888 0.690576 0.778677
O O7 0.408767 0.587392 0.676359
O O8 0.257105 0.587697 0.737081
O O9 0.766541 0.740678 0.953423
O O10 0.844786 0.832497 0.058422
O O11 0.391980 0.694186 0.121191
O O12 0.383822 0.825974 0.238030
O O13 0.106576 0.500000 0.299873
O O14 0.000000 0.624731 0.303119
O O15 0.877136 0.500000 0.770839
#
# Coordination Sequence:
#
# PCOD9554213 Si02
#       6
#    16  16  16  16  16  16
#     4  11  24  41  62  96 139 177 216 267 326 393
#     4   9  21  38  59  89 123 166 215 269 324 382
#     4  11  21  35  63  94 125 173 216 260 323 397
#     4  11  22  42  66  96 132 174 225 279 340 395
#     4  10  21  37  57  88 131 170 207 256 318 393
#     4  10  22  42  68  96 131 177 230 284 340 405
#
# _framework density 23.332111999999999
#
# number of rings (size 3 to 8) (size 9 to 14) (size 15 to 20)
#    0.000    1.667    1.667    2.500    7.000    5.333 
#    0.000    0.833    0.000    4.000    0.000    0.000 
#    0.000    0.000    0.000    0.000    0.000    0.000 
#
# Total GULP energy -267289.955582 kJ/mol
# GULP energy per Si atom -5568.540741 kJ/mol
# Density = 2.327901 g / cm^3
# Si number density = 23.332112 Si / 1000 Ang^3
#
#
#
# Elastic Constant Matrix: (Units=GPa)
#
#
# Indices 1 2 3 4 5 6 
#
# 1 82.1331 47.4326 18.9291 0.0000 0.0000 0.0000
# 2 47.4326 82.1331 18.9291 0.0000 0.0000 0.0000
# 3 18.9291 18.9291 37.5177 0.0000 0.0000 0.0000
# 4 0.0000 0.0000 0.0000 22.9664 0.0000 0.0000
# 5 0.0000 0.0000 0.0000 0.0000 22.9664 0.0000
# 6 0.0000 0.0000 0.0000 0.0000 0.0000 18.8114
#
#
#
# Elastic Compliance Matrix: (Units=1/GPa)
#
#
# Indices 1 2 3 4 5 6 
#
# 1 0.018935 -0.009883 -0.004567 0.000000 0.000000 0.000000
# 2 -0.009883 0.018935 -0.004567 0.000000 0.000000 0.000000
# 3 -0.004567 -0.004567 0.031263 0.000000 0.000000 0.000000
# 4 0.000000 0.000000 0.000000 0.043542 0.000000 0.000000
# 5 0.000000 0.000000 0.000000 0.000000 0.043542 0.000000
# 6 0.000000 0.000000 0.000000 0.000000 0.000000 0.053159
#
#
# Mechanical properties :
#
#
# Convention : Reuss Voigt Hill
#
# Bulk Modulus (GPa) = 32.15577 41.37393 36.76485
# Shear Modulus (GPa) = 19.39655 20.71505 20.05580
#
# Velocity S-wave (km/s) = 2.88640 2.98289 2.93504
# Velocity P-wave (km/s) = 4.99200 5.44377 5.22277
#
# Compressibility (1/GPa) = 0.03109862
#
# Stress axis : x y z
#
# Youngs Moduli (GPa) = 52.81129 52.81129 31.98680
#
# Poissons Ratio (x) = 0.52192 0.14610
# Poissons Ratio (y) = 0.52192 0.14610
# Poissons Ratio (z) = 0.24121 0.24121
#
# Static dielectric constant tensor:
#      x y z
#    x 1.908460 0.000000 0.000000 
#    y 0.000000 1.908460 0.000000 
#    z 0.000000 0.000000 1.972220 
# 
# From -- ./inp_files/3819.got.cif
#   From: 2010.05.17/outbox.cif.g08.bks.cpg/sg109_2_cif.got.tgz:3819.got - 2010.05.20 10:51:12.
