data_PCOD9554879
_publ_section_title
;
Structure prediction by ZEFSAII (Michael W. Deem and Ramdas Pophale) SiO2 
 PCOD9554879
Probable space group: P -4 2 M 
;
_chemical_formula_sum "Si O2"
_cell_formula_units_Z 32
_cell_length_a 15.884884
_cell_length_b 15.884884
_cell_length_c 7.563852
_cell_angle_alpha 90.000000
_cell_angle_beta 90.000000
_cell_angle_gamma 90.000000
_cell_volume 1908.583293
_symmetry_space_group_name_H-M "P -4 2 M "
_symmetry_group_IT_number 111
_symmetry_cell_setting 'tetragonal'
loop_
_space_group_symop_operation_xyz
x,y,z
y,-x,-z
-x,-y,z
-y,x,-z
x,-y,-z
-x,y,-z
-y,-x,z
y,x,z
loop_
_atom_site_type_symbol
_atom_site_label
_atom_site_fract_x
_atom_site_fract_y
_atom_site_fract_z
Si Si1 0.687891 0.820688 0.272419
Si Si2 0.086971 0.660249 0.395643
Si Si3 0.505580 0.102767 0.790675
Si Si4 0.088209 0.223435 0.940285
O O1 0.726180 0.726180 0.258458
O O2 0.711285 0.856723 0.465240
O O3 0.589563 0.847314 0.264748
O O4 0.729353 0.871144 0.109162
O O5 0.129518 0.574289 0.326296
O O6 0.070323 0.711794 0.217310
O O7 0.000000 0.642885 0.500000
O O8 0.500000 0.000000 0.772208
O O9 0.500000 0.118312 0.000000
O O10 0.153780 0.153780 0.879982
O O11 0.000000 0.185227 0.000000
#
# Coordination Sequence:
#
# PCOD9554879 Si02
#       4
#     8   8   8   8
#     4  11  23  37  54  82 120 152 183 237 302 351
#     4  12  21  35  59  85 111 148 196 247 292 346
#     4  11  20  34  57  85 115 147 192 238 289 355
#     4  11  22  38  55  77 113 155 198 245 290 341
#
# _framework density 16.766362999999998
#
# number of rings (size 3 to 8) (size 9 to 14) (size 15 to 20)
#    0.000    0.750    7.500    1.500    0.000    0.250 
#    0.000    0.000    0.000    0.000    0.000    0.000 
#    0.000   27.500    0.000    0.000    0.000    0.000 
#
# Total GULP energy -178225.839287 kJ/mol
# GULP energy per Si atom -5569.557478 kJ/mol
# Density = 1.672820 g / cm^3
# Si number density = 16.766363 Si / 1000 Ang^3
#
#
#
# Elastic Constant Matrix: (Units=GPa)
#
#
# Indices 1 2 3 4 5 6 
#
# 1 77.2335 43.8621 23.7768 0.0000 0.0000 0.0000
# 2 43.8621 77.2335 23.7768 0.0000 0.0000 0.0000
# 3 23.7768 23.7768 106.4858 0.0000 0.0000 0.0000
# 4 0.0000 0.0000 0.0000 19.8588 0.0000 0.0000
# 5 0.0000 0.0000 0.0000 0.0000 19.8588 0.0000
# 6 0.0000 0.0000 0.0000 0.0000 0.0000 25.0977
#
#
#
# Elastic Compliance Matrix: (Units=1/GPa)
#
#
# Indices 1 2 3 4 5 6 
#
# 1 0.019509 -0.010457 -0.002021 0.000000 0.000000 0.000000
# 2 -0.010457 0.019509 -0.002021 0.000000 0.000000 0.000000
# 3 -0.002021 -0.002021 0.010293 0.000000 0.000000 0.000000
# 4 0.000000 0.000000 0.000000 0.050355 0.000000 0.000000
# 5 0.000000 0.000000 0.000000 0.000000 0.050355 0.000000
# 6 0.000000 0.000000 0.000000 0.000000 0.000000 0.039844
#
#
# Mechanical properties :
#
#
# Convention : Reuss Voigt Hill
#
# Bulk Modulus (GPa) = 49.23121 49.30936 49.27028
# Shear Modulus (GPa) = 22.15965 24.26555 23.21260
#
# Velocity S-wave (km/s) = 3.63943 3.80844 3.72489
# Velocity P-wave (km/s) = 6.86203 6.98659 6.92459
#
# Compressibility (1/GPa) = 0.02031232
#
# Stress axis : x y z
#
# Youngs Moduli (GPa) = 51.25923 51.25923 97.14881
#
# Poissons Ratio (x) = 0.53602 0.19635
# Poissons Ratio (y) = 0.53602 0.19635
# Poissons Ratio (z) = 0.10360 0.10360
#
# Static dielectric constant tensor:
#      x y z
#    x 1.585170 0.000000 0.000000 
#    y 0.000000 1.585170 0.000000 
#    z 0.000000 0.000000 1.621230 
# 
# From -- ./inp_files/1293.got.cif
#   From: 2010.05.17/outbox.cif.g08.bks.cpg/sg111_1_cif.got.tgz:1293.got - 2010.05.20 10:56:05.
