data_PCOD9554722
_publ_section_title
;
Structure prediction by ZEFSAII (Michael W. Deem and Ramdas Pophale) SiO2 
 PCOD9554722
Probable space group: P -4 2 M 
;
_chemical_formula_sum "Si O2"
_cell_formula_units_Z 48
_cell_length_a 12.672548
_cell_length_b 12.672548
_cell_length_c 19.049662
_cell_angle_alpha 90.000000
_cell_angle_beta 90.000000
_cell_angle_gamma 90.000000
_cell_volume 3059.251376
_symmetry_space_group_name_H-M "P -4 2 M "
_symmetry_group_IT_number 111
_symmetry_cell_setting 'tetragonal'
loop_
_space_group_symop_operation_xyz
x,y,z
y,-x,-z
-x,-y,z
-y,x,-z
x,-y,-z
-x,y,-z
-y,-x,z
y,x,z
loop_
_atom_site_type_symbol
_atom_site_label
_atom_site_fract_x
_atom_site_fract_y
_atom_site_fract_z
Si Si1 0.500002 0.121767 0.680118
Si Si2 0.706073 0.881329 0.222844
Si Si3 0.624820 0.202033 0.078862
Si Si4 0.118676 0.706070 0.222845
Si Si5 0.202029 0.375179 0.078863
Si Si6 0.325885 0.500001 0.584252
O O1 0.603371 0.134274 0.728741
O O2 0.396635 0.134275 0.728743
O O3 0.500000 0.213955 0.622681
O O4 0.500000 0.000000 0.653359
O O5 0.794262 0.794262 0.237787
O O6 0.669342 0.867426 0.142100
O O7 0.745616 0.000003 0.233841
O O8 0.687230 0.312771 0.083244
O O9 0.669344 0.132580 0.142100
O O10 0.499999 0.215891 0.087591
O O11 0.643655 0.159297 1.000000
O O12 0.205745 0.794256 0.237791
O O13 0.312765 0.312765 0.083247
O O14 0.313071 0.500000 0.500000
O O15 0.397790 0.602211 0.602672
O O16 0.397792 0.397792 0.602672
#
# Coordination Sequence:
#
# PCOD9554722 Si02
#       6
#     8   8   8   8   8   8
#     4  10  19  32  51  74  99 125 156 197 235 271
#     4  10  20  33  48  68  94 124 160 198 238 283
#     4   9  17  29  45  65  91 123 158 198 242 285
#     4  10  20  33  48  68  94 124 160 198 238 283
#     4   9  17  29  45  65  91 123 158 198 242 285
#     4   9  18  33  53  76 102 131 158 184 222 276
#
# _framework density 15.690111999999999
#
# number of rings (size 3 to 8) (size 9 to 14) (size 15 to 20)
#    0.000    2.500    1.667    1.500    0.000    1.667 
#    0.000    3.333    0.000    0.000    0.000    4.667 
#    0.000    0.000    0.000   31.000    0.000    0.000 
#
# Total GULP energy -267442.902333 kJ/mol
# GULP energy per Si atom -5571.727132 kJ/mol
# Density = 1.565440 g / cm^3
# Si number density = 15.690112 Si / 1000 Ang^3
#
#
#
# Elastic Constant Matrix: (Units=GPa)
#
#
# Indices 1 2 3 4 5 6 
#
# 1 111.5692 63.6665 44.1077 0.0000 0.0000 0.0000
# 2 63.6665 111.5716 44.1066 0.0000 0.0000 0.0000
# 3 44.1077 44.1066 55.8405 0.0000 0.0000 0.0000
# 4 0.0000 0.0000 0.0000 23.8547 0.0000 0.0000
# 5 0.0000 0.0000 0.0000 0.0000 23.8550 0.0000
# 6 0.0000 0.0000 0.0000 0.0000 0.0000 13.8962
#
#
#
# Elastic Compliance Matrix: (Units=1/GPa)
#
#
# Indices 1 2 3 4 5 6 
#
# 1 0.015175 -0.005701 -0.007483 0.000000 0.000000 0.000000
# 2 -0.005701 0.015174 -0.007482 0.000000 0.000000 0.000000
# 3 -0.007483 -0.007482 0.029729 0.000000 0.000000 0.000000
# 4 0.000000 0.000000 0.000000 0.041920 0.000000 0.000000
# 5 0.000000 0.000000 0.000000 0.000000 0.041920 0.000000
# 6 0.000000 0.000000 0.000000 0.000000 0.000000 0.071962
#
#
# Mechanical properties :
#
#
# Convention : Reuss Voigt Hill
#
# Bulk Modulus (GPa) = 53.34844 64.74920 59.04882
# Shear Modulus (GPa) = 18.97808 20.79454 19.88631
#
# Velocity S-wave (km/s) = 3.48164 3.64445 3.56398
# Velocity P-wave (km/s) = 7.08785 7.68547 7.39270
#
# Compressibility (1/GPa) = 0.01874469
#
# Stress axis : x y z
#
# Youngs Moduli (GPa) = 65.89921 65.90274 33.63694
#
# Poissons Ratio (x) = 0.37570 0.25172
# Poissons Ratio (y) = 0.37568 0.25168
# Poissons Ratio (z) = 0.49315 0.49311
#
# Static dielectric constant tensor:
#      x y z
#    x 1.507330 0.000000 0.000000 
#    y 0.000000 1.507330 0.000000 
#    z 0.000000 0.000000 1.518620 
# 
# From -- ./inp_files/3620.got.cif
#   From: 2010.05.17/outbox.cif.g08.bks.cpg/sg111_2_cif.got.tgz:3620.got - 2010.05.20 10:56:05.
