data_PCOD9554562
_publ_section_title
;
Structure prediction by ZEFSAII (Michael W. Deem and Ramdas Pophale) SiO2 
 PCOD9554562
Probable space group: I 41 C D
;
_chemical_formula_sum "Si O2"
_cell_formula_units_Z 64
_cell_length_a 22.983893
_cell_length_b 22.983893
_cell_length_c 5.295523
_cell_angle_alpha 90.000000
_cell_angle_beta 90.000000
_cell_angle_gamma 90.000000
_cell_volume 2797.409471
_symmetry_space_group_name_H-M "I 41 C D"
_symmetry_group_IT_number 110
_symmetry_cell_setting 'tetragonal'
loop_
_space_group_symop_operation_xyz
x,y,z
-y,1/2+x,1/4+z
-x,-y,z
y,1/2-x,1/4+z
-x,y,1/2+z
x,-y,1/2+z
1/2-y,-x,1/4+z
1/2+y,x,1/4+z
1/2+x,1/2+y,1/2+z
1/2-y,x,3/4+z
1/2-x,1/2-y,1/2+z
1/2+y,-x,3/4+z
1/2-x,1/2+y,z
1/2+x,1/2-y,z
-y,1/2-x,3/4+z
y,1/2+x,3/4+z
loop_
_atom_site_type_symbol
_atom_site_label
_atom_site_fract_x
_atom_site_fract_y
_atom_site_fract_z
Si Si1 0.162810 0.642363 0.500000
Si Si2 0.159035 0.966933 0.218700
Si Si3 0.248006 0.334799 0.609425
Si Si4 0.800151 0.533500 0.252490
O O1 0.097099 0.635447 0.407136
O O2 0.212058 0.622602 0.294912
O O3 0.161320 0.708528 0.618332
O O4 0.176084 0.599030 0.731843
O O5 0.229662 0.964666 0.237416
O O6 0.141546 0.989357 0.495610
O O7 0.290689 0.303305 0.801705
O O8 0.819350 0.502125 0.506738
#
# Coordination Sequence:
#
# PCOD9554562 Si02
#       4
#    16  16  16  16
#     4  12  26  40  70  95 140 176 226 282 344 415
#     4  10  24  44  65  95 134 179 226 274 335 407
#     4  12  22  38  56 102 138 170 202 268 354 420
#     4  10  24  44  65  95 134 179 226 274 335 407
#
# _framework density 22.878309999999999
#
# number of rings (size 3 to 8) (size 9 to 14) (size 15 to 20)
#    0.000    1.000    2.500    3.000   17.500    0.000 
#    0.000    0.000    0.000    4.500    0.000    0.000 
#    0.000    0.000    0.000    0.000    0.000    0.000 
#
# Total GULP energy -178462.580599 kJ/mol
# GULP energy per Si atom -5576.955644 kJ/mol
# Density = 2.282624 g / cm^3
# Si number density = 22.878310 Si / 1000 Ang^3
#
#
#
# Elastic Constant Matrix: (Units=GPa)
#
#
# Indices 1 2 3 4 5 6 
#
# 1 87.5258 -7.1698 21.8905 0.0000 0.0000 0.0000
# 2 -7.1698 87.5258 21.8905 0.0000 0.0000 0.0000
# 3 21.8905 21.8905 121.5759 0.0000 0.0000 0.0000
# 4 0.0000 0.0000 0.0000 28.2512 0.0000 0.0000
# 5 0.0000 0.0000 0.0000 0.0000 28.2512 0.0000
# 6 0.0000 0.0000 0.0000 0.0000 0.0000 18.1406
#
#
#
# Elastic Compliance Matrix: (Units=1/GPa)
#
#
# Indices 1 2 3 4 5 6 
#
# 1 0.012179 0.001619 -0.002484 0.000000 0.000000 0.000000
# 2 0.001619 0.012179 -0.002484 0.000000 0.000000 0.000000
# 3 -0.002484 -0.002484 0.009120 0.000000 0.000000 0.000000
# 4 0.000000 0.000000 0.000000 0.035397 0.000000 0.000000
# 5 0.000000 0.000000 0.000000 0.000000 0.035397 0.000000
# 6 0.000000 0.000000 0.000000 0.000000 0.000000 0.055125
#
#
# Mechanical properties :
#
#
# Convention : Reuss Voigt Hill
#
# Bulk Modulus (GPa) = 37.34319 41.09445 39.21882
# Shear Modulus (GPa) = 28.56769 32.26301 30.41535
#
# Velocity S-wave (km/s) = 3.53750 3.75934 3.65010
# Velocity P-wave (km/s) = 5.74832 6.06998 5.91134
#
# Compressibility (1/GPa) = 0.02677864
#
# Stress axis : x y z
#
# Youngs Moduli (GPa) = 82.10718 82.10718 109.64909
#
# Poissons Ratio (x) = -0.13294 0.27242
# Poissons Ratio (y) = -0.13294 0.27242
# Poissons Ratio (z) = 0.20399 0.20399
#
# Static dielectric constant tensor:
#      x y z
#    x 1.851300 0.000000 0.000000 
#    y 0.000000 1.851300 0.000000 
#    z 0.000000 0.000000 1.931860 
# 
# From -- ./inp_files/64.got.cif
#   From: 2010.05.17/outbox.cif.g08.bks.cpg/sg110_1_cif.got.tgz:64.got - 2010.05.20 10:54:03.
