data_PCOD9554485
_publ_section_title
;
Structure prediction by ZEFSAII (Michael W. Deem and Ramdas Pophale) SiO2 
 PCOD9554485
Probable space group: I 41 C D
;
_chemical_formula_sum "Si O2"
_cell_formula_units_Z 120
_cell_length_a 25.149895
_cell_length_b 25.149895
_cell_length_c 9.829340
_cell_angle_alpha 90.000000
_cell_angle_beta 90.000000
_cell_angle_gamma 90.000000
_cell_volume 6217.226797
_symmetry_space_group_name_H-M "I 41 C D"
_symmetry_group_IT_number 110
_symmetry_cell_setting 'tetragonal'
loop_
_space_group_symop_operation_xyz
x,y,z
-y,1/2+x,1/4+z
-x,-y,z
y,1/2-x,1/4+z
-x,y,1/2+z
x,-y,1/2+z
1/2-y,-x,1/4+z
1/2+y,x,1/4+z
1/2+x,1/2+y,1/2+z
1/2-y,x,3/4+z
1/2-x,1/2-y,1/2+z
1/2+y,-x,3/4+z
1/2-x,1/2+y,z
1/2+x,1/2-y,z
-y,1/2-x,3/4+z
y,1/2+x,3/4+z
loop_
_atom_site_type_symbol
_atom_site_label
_atom_site_fract_x
_atom_site_fract_y
_atom_site_fract_z
Si Si1 0.500000 0.500000 0.349520
Si Si2 0.015717 0.593015 0.915172
Si Si3 0.978671 0.663372 0.672100
Si Si4 0.256156 0.399109 0.049051
Si Si5 0.565462 0.363083 0.767814
Si Si6 0.594186 0.817598 0.576340
Si Si7 0.713501 0.787741 0.632996
Si Si8 0.011398 0.095497 0.032530
O O1 0.451881 0.484693 0.251786
O O2 0.484261 0.548114 0.446049
O O3 0.984403 0.621209 0.794562
O O4 0.066132 0.560829 0.856526
O O5 0.031176 0.635995 0.027390
O O6 0.039539 0.685682 0.661412
O O7 0.930228 0.702619 0.703440
O O8 0.198557 0.420072 0.008917
O O9 0.246871 0.335544 0.059774
O O10 0.278132 0.413130 0.199169
O O11 0.621300 0.395675 0.777337
O O12 0.527538 0.378505 0.641630
O O13 0.535096 0.368929 0.912074
O O14 0.650892 0.802580 0.643246
O O15 0.738052 0.781029 0.781991
#
# Coordination Sequence:
#
# PCOD9554485 Si02
#       8
#     8  16  16  16  16  16  16  16
#     4  12  24  36  60  92 124 172 210 260 296 384
#     4  12  24  36  59  91 128 168 217 249 310 377
#     4  12  24  40  61  93 130 168 212 261 318 393
#     4  10  24  42  68  89 131 164 212 263 341 376
#     4  11  25  42  62  91 128 171 212 263 318 380
#     4  10  21  42  66  91 123 174 207 264 324 391
#     4   9  20  45  72  95 118 164 220 274 326 384
#     4  12  25  37  60  90 130 167 211 253 305 381
#
# _framework density 19.301209
#
# number of rings (size 3 to 8) (size 9 to 14) (size 15 to 20)
#    0.000    1.067    5.333    0.400    5.600    0.000 
#    2.400    0.000    2.933    0.000    0.000    0.000 
#    0.000    0.000    0.000    0.000    0.000    0.000 
#
# Total GULP energy -334759.332938 kJ/mol
# GULP energy per Si atom -5579.322216 kJ/mol
# Density = 1.925728 g / cm^3
# Si number density = 19.301209 Si / 1000 Ang^3
#
#
#
# Elastic Constant Matrix: (Units=GPa)
#
#
# Indices 1 2 3 4 5 6 
#
# 1 38.1548 -9.0371 0.7324 0.0000 0.0000 0.0000
# 2 -9.0371 38.1548 0.7324 0.0000 0.0000 0.0000
# 3 0.7324 0.7324 73.7200 0.0000 0.0000 0.0000
# 4 0.0000 0.0000 0.0000 29.2479 0.0000 0.0000
# 5 0.0000 0.0000 0.0000 0.0000 29.2479 0.0000
# 6 0.0000 0.0000 0.0000 0.0000 0.0000 31.3980
#
#
#
# Elastic Compliance Matrix: (Units=1/GPa)
#
#
# Indices 1 2 3 4 5 6 
#
# 1 0.027775 0.006585 -0.000341 0.000000 0.000000 0.000000
# 2 0.006585 0.027775 -0.000341 0.000000 0.000000 0.000000
# 3 -0.000341 -0.000341 0.013572 0.000000 0.000000 0.000000
# 4 0.000000 0.000000 0.000000 0.034190 0.000000 0.000000
# 5 0.000000 0.000000 0.000000 0.000000 0.034190 0.000000
# 6 0.000000 0.000000 0.000000 0.000000 0.000000 0.031849
#
#
# Mechanical properties :
#
#
# Convention : Reuss Voigt Hill
#
# Bulk Modulus (GPa) = 12.35676 14.98723 13.67200
# Shear Modulus (GPa) = 27.09687 28.48556 27.79121
#
# Velocity S-wave (km/s) = 3.75092 3.84584 3.79868
# Velocity P-wave (km/s) = 5.01749 5.24427 5.13213
#
# Compressibility (1/GPa) = 0.08092734
#
# Stress axis : x y z
#
# Youngs Moduli (GPa) = 36.00314 36.00314 73.68319
#
# Poissons Ratio (x) = -0.23709 0.02515
# Poissons Ratio (y) = -0.23709 0.02515
# Poissons Ratio (z) = 0.01229 0.01229
#
# Static dielectric constant tensor:
#      x y z
#    x 1.709120 0.000000 0.000000 
#    y 0.000000 1.709120 0.000000 
#    z 0.000000 0.000000 1.667880 
# 
# From -- ./inp_files/521.got.cif
#   From: 2010.05.17/outbox.cif.g08.bks.cpg/sg110_1_cif.got.tgz:521.got - 2010.05.20 10:54:03.
