data_PCOD9554533
_publ_section_title
;
Structure prediction by ZEFSAII (Michael W. Deem and Ramdas Pophale) SiO2 
 PCOD9554533
Probable space group: I 41 C D
;
_chemical_formula_sum "Si O2"
_cell_formula_units_Z 104
_cell_length_a 14.486705
_cell_length_b 14.486705
_cell_length_c 18.937143
_cell_angle_alpha 90.000000
_cell_angle_beta 90.000000
_cell_angle_gamma 90.000000
_cell_volume 3974.236353
_symmetry_space_group_name_H-M "I 41 C D"
_symmetry_group_IT_number 110
_symmetry_cell_setting 'tetragonal'
loop_
_space_group_symop_operation_xyz
x,y,z
-y,1/2+x,1/4+z
-x,-y,z
y,1/2-x,1/4+z
-x,y,1/2+z
x,-y,1/2+z
1/2-y,-x,1/4+z
1/2+y,x,1/4+z
1/2+x,1/2+y,1/2+z
1/2-y,x,3/4+z
1/2-x,1/2-y,1/2+z
1/2+y,-x,3/4+z
1/2-x,1/2+y,z
1/2+x,1/2-y,z
-y,1/2-x,3/4+z
y,1/2+x,3/4+z
loop_
_atom_site_type_symbol
_atom_site_label
_atom_site_fract_x
_atom_site_fract_y
_atom_site_fract_z
Si Si1 0.298270 0.546890 0.760910
Si Si2 0.116954 0.841527 0.458228
Si Si3 0.000000 0.500000 0.371714
Si Si4 0.774263 0.228899 0.327274
Si Si5 0.545457 0.153776 0.762103
Si Si6 0.365231 0.003496 0.490205
Si Si7 0.108783 0.637256 0.108401
O O1 0.228323 0.530382 0.697636
O O2 0.393421 0.593379 0.743948
O O3 0.454068 0.396123 0.811728
O O4 0.302353 0.473772 0.821368
O O5 0.186504 0.825457 0.395087
O O6 0.145178 0.766179 0.525542
O O7 0.102050 0.937216 0.490233
O O8 0.951947 0.416402 0.331372
O O9 0.919233 0.541174 0.424226
O O10 0.857034 0.283112 0.292776
O O11 0.691944 0.296705 0.344445
O O12 0.496289 0.256701 0.740295
O O13 0.593827 0.120944 0.688783
#
# Coordination Sequence:
#
# PCOD9554533 Si02
#       7
#    16  16   8  16  16  16  16
#     4  10  23  44  75 107 148 208 259 326 398 484
#     4  10  22  46  70 106 154 195 261 332 390 474
#     4  12  32  50  78 128 160 208 282 340 402 498
#     4  10  23  44  72 107 146 201 263 313 403 471
#     4  12  28  49  78 119 162 206 277 338 400 497
#     4  12  26  54  77 111 167 210 263 339 417 475
#     4  12  24  48  82 108 162 216 258 331 414 485
#
# _framework density 26.168548999999999
#
# number of rings (size 3 to 8) (size 9 to 14) (size 15 to 20)
#    0.923    0.000    4.615    0.923    6.462    2.462 
#    0.000    0.000    0.000    0.000    0.000    0.000 
#    0.000    0.000    0.000    0.000    0.000    0.000 
#
# Total GULP energy -289535.301812 kJ/mol
# GULP energy per Si atom -5567.986573 kJ/mol
# Density = 2.610899 g / cm^3
# Si number density = 26.168549 Si / 1000 Ang^3
#
#
#
# Elastic Constant Matrix: (Units=GPa)
#
#
# Indices 1 2 3 4 5 6 
#
# 1 103.5679 23.3484 23.7116 0.0000 0.0000 0.0000
# 2 23.3484 103.5679 23.7116 0.0000 0.0000 0.0000
# 3 23.7116 23.7116 119.4906 0.0000 0.0000 0.0000
# 4 0.0000 0.0000 0.0000 35.9729 0.0000 0.0000
# 5 0.0000 0.0000 0.0000 0.0000 35.9729 0.0000
# 6 0.0000 0.0000 0.0000 0.0000 0.0000 44.4575
#
#
#
# Elastic Compliance Matrix: (Units=1/GPa)
#
#
# Indices 1 2 3 4 5 6 
#
# 1 0.010488 -0.001978 -0.001689 0.000000 0.000000 0.000000
# 2 -0.001978 0.010488 -0.001689 0.000000 0.000000 0.000000
# 3 -0.001689 -0.001689 0.009039 0.000000 0.000000 0.000000
# 4 0.000000 0.000000 0.000000 0.027799 0.000000 0.000000
# 5 0.000000 0.000000 0.000000 0.000000 0.027799 0.000000
# 6 0.000000 0.000000 0.000000 0.000000 0.000000 0.022493
#
#
# Mechanical properties :
#
#
# Convention : Reuss Voigt Hill
#
# Bulk Modulus (GPa) = 51.80140 52.01885 51.91013
# Shear Modulus (GPa) = 39.91974 40.33766 40.12870
#
# Velocity S-wave (km/s) = 3.90998 3.93040 3.92020
# Velocity P-wave (km/s) = 6.34210 6.36545 6.35378
#
# Compressibility (1/GPa) = 0.01930450
#
# Stress axis : x y z
#
# Youngs Moduli (GPa) = 95.34698 95.34698 110.63058
#
# Poissons Ratio (x) = 0.18858 0.18683
# Poissons Ratio (y) = 0.18858 0.18683
# Poissons Ratio (z) = 0.16102 0.16102
#
# Static dielectric constant tensor:
#      x y z
#    x 2.458680 0.000000 0.000000 
#    y 0.000000 2.458680 0.000000 
#    z 0.000000 0.000000 2.120530 
# 
# From -- ./inp_files/1770.got.cif
#   From: 2010.05.17/outbox.cif.g08.bks.cpg/sg110_1_cif.got.tgz:1770.got - 2010.05.20 10:54:03.
