data_PCOD9554726
_publ_section_title
;
Structure prediction by ZEFSAII (Michael W. Deem and Ramdas Pophale) SiO2 
 PCOD9554726
Probable space group: P -4 2 M 
;
_chemical_formula_sum "Si O2"
_cell_formula_units_Z 56
_cell_length_a 12.688497
_cell_length_b 12.688497
_cell_length_c 21.882706
_cell_angle_alpha 90.000000
_cell_angle_beta 90.000000
_cell_angle_gamma 90.000000
_cell_volume 3523.070940
_symmetry_space_group_name_H-M "P -4 2 M "
_symmetry_group_IT_number 111
_symmetry_cell_setting 'tetragonal'
loop_
_space_group_symop_operation_xyz
x,y,z
y,-x,-z
-x,-y,z
-y,x,-z
x,-y,-z
-x,y,-z
-y,-x,z
y,x,z
loop_
_atom_site_type_symbol
_atom_site_label
_atom_site_fract_x
_atom_site_fract_y
_atom_site_fract_z
Si Si1 0.298260 0.123634 0.869655
Si Si2 0.123561 0.296891 0.427960
Si Si3 0.374585 0.798484 1.000000
Si Si4 0.876366 0.701740 0.130345
Si Si5 0.500000 0.128146 0.649581
Si Si6 0.876438 0.296892 0.427961
Si Si7 0.500000 0.872090 0.789619
O O1 0.196843 0.196843 0.859744
O O2 0.337677 0.141067 0.939107
O O3 0.394549 0.158521 0.825936
O O4 0.276661 0.000000 0.859495
O O5 0.195681 0.195681 0.416352
O O6 0.159035 0.395207 0.387005
O O7 0.132360 0.324206 0.499999
O O8 1.000000 0.275492 0.415796
O O9 0.312814 0.687187 1.000000
O O10 0.500000 0.787022 0.000000
O O11 0.337678 0.858933 0.939106
O O12 0.803157 0.803157 0.140256
O O13 0.841479 0.605452 0.174065
O O14 0.395209 0.159035 0.612994
O O15 0.499999 0.164302 0.719615
O O16 0.500000 0.000000 0.649860
O O17 0.804318 0.195683 0.416353
O O18 0.500000 0.000000 0.789365
#
# Coordination Sequence:
#
# PCOD9554726 Si02
#       7
#     8   8   8   8   8   8   8
#     4  10  20  33  51  75 101 130 163 200 244 294
#     4   9  17  29  47  72 100 129 161 198 241 289
#     4  10  19  32  52  76 102 133 168 207 250 294
#     4  10  20  33  51  75 101 130 163 200 244 294
#     4   9  17  30  48  69  93 126 166 204 239 279
#     4   9  17  29  47  72 100 129 161 198 241 289
#     4   9  18  32  50  69  92 126 168 206 237 282
#
# _framework density 15.895222
#
# number of rings (size 3 to 8) (size 9 to 14) (size 15 to 20)
#    0.000    2.571    1.429    0.857    0.000    4.143 
#    0.000    1.429    0.000    3.429    0.000   12.000 
#    0.000    0.000    0.000    0.000    0.000    0.000 
#
# Total GULP energy -312082.178790 kJ/mol
# GULP energy per Si atom -5572.896050 kJ/mol
# Density = 1.585904 g / cm^3
# Si number density = 15.895222 Si / 1000 Ang^3
#
#
#
# Elastic Constant Matrix: (Units=GPa)
#
#
# Indices 1 2 3 4 5 6 
#
# 1 97.7213 64.6356 55.8335 0.0000 0.0000 0.0000
# 2 64.6356 97.7223 55.8347 0.0000 0.0000 0.0000
# 3 55.8335 55.8347 105.4519 0.0000 0.0000 0.0000
# 4 0.0000 0.0000 0.0000 12.8516 0.0000 0.0000
# 5 0.0000 0.0000 0.0000 0.0000 12.8520 0.0000
# 6 0.0000 0.0000 0.0000 0.0000 0.0000 4.7234
#
#
#
# Elastic Compliance Matrix: (Units=1/GPa)
#
#
# Indices 1 2 3 4 5 6 
#
# 1 0.019955 -0.010269 -0.005129 0.000000 0.000000 0.000000
# 2 -0.010269 0.019956 -0.005129 0.000000 0.000000 0.000000
# 3 -0.005129 -0.005129 0.014914 0.000000 0.000000 0.000000
# 4 0.000000 0.000000 0.000000 0.077811 0.000000 0.000000
# 5 0.000000 0.000000 0.000000 0.000000 0.077809 0.000000
# 6 0.000000 0.000000 0.000000 0.000000 0.000000 0.211714
#
#
# Mechanical properties :
#
#
# Convention : Reuss Voigt Hill
#
# Bulk Modulus (GPa) = 72.60974 72.61144 72.61059
# Shear Modulus (GPa) = 10.68825 14.39151 12.53988
#
# Velocity S-wave (km/s) = 2.59592 3.01225 2.81180
# Velocity P-wave (km/s) = 7.40030 7.60780 7.50477
#
# Compressibility (1/GPa) = 0.01377226
#
# Stress axis : x y z
#
# Youngs Moduli (GPa) = 50.11161 50.11142 67.04971
#
# Poissons Ratio (x) = 0.51457 0.34388
# Poissons Ratio (y) = 0.51457 0.34391
# Poissons Ratio (z) = 0.25701 0.25703
#
# Static dielectric constant tensor:
#      x y z
#    x 1.510020 0.000000 0.000000 
#    y 0.000000 1.510020 0.000000 
#    z 0.000000 0.000000 1.537100 
# 
# From -- ./inp_files/3959.got.cif
#   From: 2010.05.17/outbox.cif.g08.bks.cpg/sg111_2_cif.got.tgz:3959.got - 2010.05.20 10:56:05.
