data_PCOD9554511
_publ_section_title
;
Structure prediction by ZEFSAII (Michael W. Deem and Ramdas Pophale) SiO2 
 PCOD9554511
Probable space group: I 41 C D
;
_chemical_formula_sum "Si O2"
_cell_formula_units_Z 120
_cell_length_a 17.274047
_cell_length_b 17.274047
_cell_length_c 19.450863
_cell_angle_alpha 90.000000
_cell_angle_beta 90.000000
_cell_angle_gamma 90.000000
_cell_volume 5803.995523
_symmetry_space_group_name_H-M "I 41 C D"
_symmetry_group_IT_number 110
_symmetry_cell_setting 'tetragonal'
loop_
_space_group_symop_operation_xyz
x,y,z
-y,1/2+x,1/4+z
-x,-y,z
y,1/2-x,1/4+z
-x,y,1/2+z
x,-y,1/2+z
1/2-y,-x,1/4+z
1/2+y,x,1/4+z
1/2+x,1/2+y,1/2+z
1/2-y,x,3/4+z
1/2-x,1/2-y,1/2+z
1/2+y,-x,3/4+z
1/2-x,1/2+y,z
1/2+x,1/2-y,z
-y,1/2-x,3/4+z
y,1/2+x,3/4+z
loop_
_atom_site_type_symbol
_atom_site_label
_atom_site_fract_x
_atom_site_fract_y
_atom_site_fract_z
Si Si1 0.509001 0.219465 0.133430
Si Si2 0.836589 0.946429 0.238505
Si Si3 0.000000 0.500000 0.017714
Si Si4 0.113458 0.598475 0.610348
Si Si5 0.797119 0.838397 0.425242
Si Si6 0.287185 0.037051 0.129810
Si Si7 0.768512 0.772218 0.806616
Si Si8 0.618725 0.726667 0.742739
O O1 0.545030 0.136115 0.154847
O O2 0.424144 0.235101 0.162298
O O3 0.575487 0.272026 0.168929
O O4 0.491751 0.204646 0.051965
O O5 0.792280 0.960231 0.169409
O O6 0.837912 0.855061 0.252607
O O7 0.925343 0.969380 0.229655
O O8 0.070067 0.463128 0.061459
O O9 0.174389 0.544303 0.647128
O O10 0.158347 0.671549 0.575361
O O11 0.888213 0.835557 0.406238
O O12 0.780855 0.815747 0.503337
O O13 0.756379 0.774576 0.375379
O O14 0.271935 0.051471 0.049600
O O15 0.686366 0.787332 0.765959
#
# Coordination Sequence:
#
# PCOD9554511 Si02
#       8
#    16  16   8  16  16  16  16  16
#     4  11  23  39  65  94 129 180 225 274 349 419
#     4  11  22  43  67  96 133 185 225 281 350 419
#     4  10  22  42  64  88 132 186 228 266 356 414
#     4  11  23  40  65  96 129 173 235 282 340 426
#     4  11  21  40  63  95 132 172 219 276 348 409
#     4  11  21  42  69  95 135 173 223 286 346 415
#     4  11  23  39  64  97 130 171 226 288 333 414
#     4  11  22  42  65  96 135 179 220 284 354 411
#
# _framework density 20.675412000000001
#
# number of rings (size 3 to 8) (size 9 to 14) (size 15 to 20)
#    0.000    1.067    5.333    2.400    1.867    4.267 
#    0.000    0.000    0.000    3.200    0.000    0.000 
#    0.000    0.000    0.000    0.000    0.000    0.000 
#
# Total GULP energy -334161.552110 kJ/mol
# GULP energy per Si atom -5569.359202 kJ/mol
# Density = 2.062835 g / cm^3
# Si number density = 20.675412 Si / 1000 Ang^3
#
#
#
# Elastic Constant Matrix: (Units=GPa)
#
#
# Indices 1 2 3 4 5 6 
#
# 1 91.7505 28.0825 22.3188 0.0000 0.0000 0.0000
# 2 28.0825 91.7505 22.3188 0.0000 0.0000 0.0000
# 3 22.3188 22.3188 59.9358 0.0000 0.0000 0.0000
# 4 0.0000 0.0000 0.0000 28.4871 0.0000 0.0000
# 5 0.0000 0.0000 0.0000 0.0000 28.4871 0.0000
# 6 0.0000 0.0000 0.0000 0.0000 0.0000 943.6052
#
#
#
# Elastic Compliance Matrix: (Units=1/GPa)
#
#
# Indices 1 2 3 4 5 6 
#
# 1 0.012698 -0.003009 -0.003608 0.000000 0.000000 0.000000
# 2 -0.003009 0.012698 -0.003608 0.000000 0.000000 0.000000
# 3 -0.003608 -0.003608 0.019372 0.000000 0.000000 0.000000
# 4 0.000000 0.000000 0.000000 0.035104 0.000000 0.000000
# 5 0.000000 0.000000 0.000000 0.000000 0.035104 0.000000
# 6 0.000000 0.000000 0.000000 0.000000 0.000000 0.001060
#
#
# Mechanical properties :
#
#
# Convention : Reuss Voigt Hill
#
# Bulk Modulus (GPa) = 41.12245 43.20853 42.16549
# Shear Modulus (GPa) = 34.58078 211.49701 123.03890
#
# Velocity S-wave (km/s) = 4.09413 10.12502 7.72263
# Velocity P-wave (km/s) = 6.50245 12.55516 9.99785
#
# Compressibility (1/GPa) = 0.02431762
#
# Stress axis : x y z
#
# Youngs Moduli (GPa) = 78.75454 78.75454 51.62209
#
# Poissons Ratio (x) = 0.23696 0.18625
# Poissons Ratio (y) = 0.23696 0.18625
# Poissons Ratio (z) = 0.28414 0.28414
#
# Static dielectric constant tensor:
#      x y z
#    x 1.836500 0.000000 0.000000 
#    y 0.000000 1.836500 0.000000 
#    z 0.000000 0.000000 1.772040 
# 
# From -- ./inp_files/2351.got.cif
#   From: 2010.05.17/outbox.cif.g08.bks.cpg/sg110_2_cif.got.tgz:2351.got - 2010.05.20 10:54:03.
