data_PCOD9554740
_publ_section_title
;
Structure prediction by ZEFSAII (Michael W. Deem and Ramdas Pophale) SiO2 
 PCOD9554740
Probable space group: P -4 2 M 
;
_chemical_formula_sum "Si O2"
_cell_formula_units_Z 40
_cell_length_a 21.059379
_cell_length_b 21.059379
_cell_length_c 5.011045
_cell_angle_alpha 90.000000
_cell_angle_beta 90.000000
_cell_angle_gamma 90.000000
_cell_volume 2222.385649
_symmetry_space_group_name_H-M "P -4 2 M "
_symmetry_group_IT_number 111
_symmetry_cell_setting 'tetragonal'
loop_
_space_group_symop_operation_xyz
x,y,z
y,-x,-z
-x,-y,z
-y,x,-z
x,-y,-z
-x,y,-z
-y,-x,z
y,x,z
loop_
_atom_site_type_symbol
_atom_site_label
_atom_site_fract_x
_atom_site_fract_y
_atom_site_fract_z
Si Si1 0.633767 0.462734 0.249281
Si Si2 0.766211 0.873868 0.396061
Si Si3 0.773182 0.337748 0.466875
Si Si4 0.239976 0.575747 0.983393
Si Si5 0.177161 0.069401 0.893009
O O1 0.662226 0.500000 0.500000
O O2 0.582055 0.417946 0.378019
O O3 0.688484 0.425579 0.096510
O O4 0.604296 0.500000 0.000000
O O5 0.820465 0.820465 0.421354
O O6 0.702741 0.835125 0.453253
O O7 0.772759 0.901234 0.101981
O O8 0.787908 0.926379 0.609523
O O9 0.712757 0.287244 0.445812
O O10 0.789821 0.375231 0.195001
O O11 0.761303 0.390952 0.695184
O O12 0.220532 0.500000 0.000000
O O13 0.115346 0.115346 0.890271
O O14 0.159983 0.000000 0.000000
#
# Coordination Sequence:
#
# PCOD9554740 Si02
#       5
#     8   8   8   8   8
#     4  11  22  34  46  61  84 116 156 199 244 299
#     4   9  19  33  51  77 104 136 178 221 254 285
#     4  11  20  34  55  73  97 132 168 207 262 321
#     4  11  22  34  48  71  98 122 156 206 263 325
#     4  10  19  33  52  78 116 152 181 211 238 270
#
# _framework density 17.998677000000001
#
# number of rings (size 3 to 8) (size 9 to 14) (size 15 to 20)
#    0.000    1.600    0.000    7.200    0.000    4.600 
#    0.000    0.000    0.000    3.600    0.000    0.000 
#    0.000   56.000    0.000    0.000    0.000    0.000 
#
# Total GULP energy -222741.047720 kJ/mol
# GULP energy per Si atom -5568.526193 kJ/mol
# Density = 1.795771 g / cm^3
# Si number density = 17.998677 Si / 1000 Ang^3
#
#
#
# Elastic Constant Matrix: (Units=GPa)
#
#
# Indices 1 2 3 4 5 6 
#
# 1 -83.2913 154.6079 4.8258 0.0000 0.0000 0.0000
# 2 154.6079 -83.2740 4.7851 0.0000 0.0000 0.0000
# 3 4.8258 4.7851 62.7348 0.0000 0.0000 0.0000
# 4 0.0000 0.0000 0.0000 22.6927 0.0000 0.0000
# 5 0.0000 0.0000 0.0000 0.0000 22.6927 0.0000
# 6 0.0000 0.0000 0.0000 0.0000 0.0000 16.0672
#
#
#
# Elastic Compliance Matrix: (Units=1/GPa)
#
#
# Indices 1 2 3 4 5 6 
#
# 1 0.004981 0.009185 -0.001084 0.000000 0.000000 0.000000
# 2 0.009185 0.004982 -0.001087 0.000000 0.000000 0.000000
# 3 -0.001084 -0.001087 0.016106 0.000000 0.000000 0.000000
# 4 0.000000 0.000000 0.000000 0.044067 0.000000 0.000000
# 5 0.000000 0.000000 0.000000 0.000000 0.044067 0.000000
# 6 0.000000 0.000000 0.000000 0.000000 0.000000 0.062238
#
#
# Mechanical properties :
#
#
# Convention : Reuss Voigt Hill
#
# Bulk Modulus (GPa) = 24.93840 24.95633 24.94737
# Shear Modulus (GPa) = 28.44491 -5.57942 11.43274
#
# Velocity S-wave (km/s) = 3.97972 -1.76256 2.52305
# Velocity P-wave (km/s) = 5.91636 3.12307 4.73059
#
# Compressibility (1/GPa) = 0.04009880
#
# Stress axis : x y z
#
# Youngs Moduli (GPa) = 200.77324 200.71682 62.08727
#
# Poissons Ratio (x) = -1.84360 0.06729
# Poissons Ratio (y) = -1.84411 0.06746
# Poissons Ratio (z) = 0.21758 0.21809
#
# Static dielectric constant tensor:
#      x y z
#    x 1.656770 0.000000 0.000000 
#    y 0.000000 1.656780 0.000000 
#    z 0.000000 0.000000 1.719630 
# 
# From -- ./inp_files/478.got.cif
#   From: 2010.05.17/outbox.cif.g08.bks.cpg/sg111_1_cif.got.tgz:478.got - 2010.05.20 10:56:05.
