data_PCOD9554231
_publ_section_title
;
Structure prediction by ZEFSAII (Michael W. Deem and Ramdas Pophale) SiO2 
 PCOD9554231
Probable space group: I 41 M D
;
_chemical_formula_sum "Si O2"
_cell_formula_units_Z 112
_cell_length_a 27.720423
_cell_length_b 27.720423
_cell_length_c 7.465856
_cell_angle_alpha 90.000000
_cell_angle_beta 90.000000
_cell_angle_gamma 90.000000
_cell_volume 5736.926889
_symmetry_space_group_name_H-M "I 41 M D"
_symmetry_group_IT_number 109
_symmetry_cell_setting 'tetragonal'
loop_
_space_group_symop_operation_xyz
x,y,z
-y,1/2+x,1/4+z
-x,-y,z
y,1/2-x,1/4+z
-x,y,z
x,-y,z
-y,1/2-x,1/4+z
y,1/2+x,1/4+z
1/2+x,1/2+y,1/2+z
1/2-y,x,3/4+z
1/2-x,1/2-y,1/2+z
1/2+y,-x,3/4+z
1/2-x,1/2+y,1/2+z
1/2+x,1/2-y,1/2+z
1/2-y,-x,3/4+z
1/2+y,x,3/4+z
loop_
_atom_site_type_symbol
_atom_site_label
_atom_site_fract_x
_atom_site_fract_y
_atom_site_fract_z
Si Si1 0.706838 0.407192 0.442070
Si Si2 0.785854 0.202568 0.011800
Si Si3 0.125842 0.441611 0.583356
Si Si4 0.725500 0.115000 0.602775
Si Si5 0.730857 0.944565 0.250898
Si Si6 0.556723 0.446102 0.139073
Si Si7 0.886756 0.599438 0.190916
O O1 0.706056 0.353726 0.528282
O O2 0.740357 0.404253 0.264458
O O3 0.730343 0.440738 0.591647
O O4 0.650456 0.413448 0.404189
O O5 0.732406 0.208463 0.939808
O O6 0.826655 0.224069 0.876108
O O7 0.122810 0.500000 0.559138
O O8 0.179301 0.431873 0.660467
O O9 0.087247 0.423969 0.729539
O O10 0.115540 0.415370 0.397381
O O11 0.740841 0.091942 0.414403
O O12 0.669263 0.100788 0.629880
O O13 0.728032 0.000000 0.317146
O O14 0.500000 0.450264 0.103561
O O15 0.577406 0.500000 0.145649
O O16 0.562684 0.417004 0.322192
#
# Coordination Sequence:
#
# PCOD9554231 Si02
#       7
#    16  16  16  16  16  16  16
#     4  10  23  40  56  89 126 154 198 251 297 359
#     4   9  20  36  56  86 114 155 194 239 299 348
#     4  10  21  38  64  91 117 157 206 255 306 365
#     4  10  21  40  58  86 123 157 206 249 295 356
#     4  11  23  39  63  88 116 162 210 252 299 356
#     4  10  22  40  63  93 121 150 200 256 311 373
#     4  11  21  39  65  88 124 163 199 251 311 363
#
# _framework density 19.522649000000001
#
# number of rings (size 3 to 8) (size 9 to 14) (size 15 to 20)
#    0.000    1.857    2.857    0.429    2.000    3.429 
#    2.571    2.857    0.000    0.000    0.000    0.000 
#    0.000    0.000    0.000    0.000    0.000    0.000 
#
# Total GULP energy -312302.291392 kJ/mol
# GULP energy per Si atom -5576.826632 kJ/mol
# Density = 1.947821 g / cm^3
# Si number density = 19.522649 Si / 1000 Ang^3
#
#
#
# Elastic Constant Matrix: (Units=GPa)
#
#
# Indices 1 2 3 4 5 6 
#
# 1 26.4304 13.9204 11.1274 0.0000 0.0000 0.0000
# 2 13.9204 26.4304 11.1274 0.0000 0.0000 0.0000
# 3 11.1274 11.1274 75.6818 0.0000 0.0000 0.0000
# 4 0.0000 0.0000 0.0000 24.3873 0.0000 0.0000
# 5 0.0000 0.0000 0.0000 0.0000 24.3873 0.0000
# 6 0.0000 0.0000 0.0000 0.0000 0.0000 37.3789
#
#
#
# Elastic Compliance Matrix: (Units=1/GPa)
#
#
# Indices 1 2 3 4 5 6 
#
# 1 0.053453 -0.026483 -0.003965 0.000000 0.000000 0.000000
# 2 -0.026483 0.053453 -0.003965 0.000000 0.000000 0.000000
# 3 -0.003965 -0.003965 0.014379 0.000000 0.000000 0.000000
# 4 0.000000 0.000000 0.000000 0.041005 0.000000 0.000000
# 5 0.000000 0.000000 0.000000 0.000000 0.041005 0.000000
# 6 0.000000 0.000000 0.000000 0.000000 0.000000 0.026753
#
#
# Mechanical properties :
#
#
# Convention : Reuss Voigt Hill
#
# Bulk Modulus (GPa) = 19.06311 22.32144 20.69228
# Shear Modulus (GPa) = 15.80474 23.38855 19.59664
#
# Velocity S-wave (km/s) = 2.84836 3.46500 3.17170
# Velocity P-wave (km/s) = 4.53909 5.24087 4.90256
#
# Compressibility (1/GPa) = 0.05245733
#
# Stress axis : x y z
#
# Youngs Moduli (GPa) = 18.70811 18.70811 69.54471
#
# Poissons Ratio (x) = 0.49545 0.27577
# Poissons Ratio (y) = 0.49545 0.27577
# Poissons Ratio (z) = 0.07418 0.07418
#
# Static dielectric constant tensor:
#      x y z
#    x 1.716050 0.000000 0.000000 
#    y 0.000000 1.716050 0.000000 
#    z 0.000000 0.000000 1.653070 
# 
# From -- ./inp_files/735.got.cif
#   From: 2010.05.17/outbox.cif.g08.bks.cpg/sg109_1_cif.got.tgz:735.got - 2010.05.20 10:51:12.
