data_PCOD9554043
_publ_section_title
;
Structure prediction by ZEFSAII (Michael W. Deem and Ramdas Pophale) SiO2 
 PCOD9554043
Probable space group: I 4 C M
;
_chemical_formula_sum "Si O2"
_cell_formula_units_Z 52
_cell_length_a 16.932685
_cell_length_b 16.932685
_cell_length_c 8.787673
_cell_angle_alpha 90.000000
_cell_angle_beta 90.000000
_cell_angle_gamma 90.000000
_cell_volume 2519.564882
_symmetry_space_group_name_H-M "I 4 C M"
_symmetry_group_IT_number 108
_symmetry_cell_setting 'tetragonal'
loop_
_space_group_symop_operation_xyz
x,y,z
-y,x,z
-x,-y,z
y,-x,z
-x,y,1/2+z
x,-y,1/2+z
-y,-x,1/2+z
y,x,1/2+z
1/2+x,1/2+y,1/2+z
1/2-y,1/2+x,1/2+z
1/2-x,1/2-y,1/2+z
1/2+y,1/2-x,1/2+z
1/2-x,1/2+y,z
1/2+x,1/2-y,z
1/2-y,1/2-x,z
1/2+y,1/2+x,z
loop_
_atom_site_type_symbol
_atom_site_label
_atom_site_fract_x
_atom_site_fract_y
_atom_site_fract_z
Si Si1 0.373018 0.873018 0.551890
Si Si2 0.706616 0.583573 0.042597
Si Si3 0.500000 0.000000 0.474931
Si Si4 0.916426 0.206615 0.907262
Si Si5 0.373019 0.126982 0.397971
O O1 0.296006 0.903740 0.464579
O O2 0.351451 0.851451 0.724931
O O3 0.440121 0.940121 0.557359
O O4 0.703872 0.583015 0.224930
O O5 0.653021 0.653020 0.974929
O O6 0.678803 0.500000 0.974930
O O7 0.796007 0.596259 0.985282
O O8 0.440122 0.059879 0.392501
#
# Coordination Sequence:
#
# PCOD9554043 Si02
#       5
#     8  16   4  16   8
#     4  12  25  44  70 104 143 182 227 280 344 410
#     4  12  26  46  71 101 138 181 231 284 343 407
#     4  12  26  40  76 106 146 176 226 268 346 400
#     4  12  26  46  71 101 138 181 231 284 343 407
#     4  12  25  44  70 104 143 182 227 280 344 410
#
# _framework density 20.638483000000001
#
# number of rings (size 3 to 8) (size 9 to 14) (size 15 to 20)
#    0.000    0.000    3.077    7.846    0.000    3.077 
#    0.000    3.077    0.000    0.000    0.000    0.000 
#    0.000    0.000    0.000    0.000    0.000    0.000 
#
# Total GULP energy -145553.107233 kJ/mol
# GULP energy per Si atom -5598.196432 kJ/mol
# Density = 2.059151 g / cm^3
# Si number density = 20.638483 Si / 1000 Ang^3
#
#
#
# Elastic Constant Matrix: (Units=GPa)
#
#
# Indices 1 2 3 4 5 6 
#
# 1 109.9296 80.4881 59.9071 0.0000 0.0000 -0.0007
# 2 80.4881 109.9296 59.9071 0.0000 0.0000 0.0007
# 3 59.9071 59.9071 243.2541 0.0000 0.0000 0.0000
# 4 0.0000 0.0000 0.0000 9.3493 0.0000 0.0000
# 5 0.0000 0.0000 0.0000 0.0000 9.3493 0.0000
# 6 -0.0007 0.0007 0.0000 0.0000 0.0000 49.5966
#
#
#
# Elastic Compliance Matrix: (Units=1/GPa)
#
#
# Indices 1 2 3 4 5 6 
#
# 1 0.020090 -0.013875 -0.001531 0.000000 0.000000 0.000000
# 2 -0.013875 0.020090 -0.001531 0.000000 0.000000 0.000000
# 3 -0.001531 -0.001531 0.004865 0.000000 0.000000 0.000000
# 4 0.000000 0.000000 0.000000 0.106960 0.000000 0.000000
# 5 0.000000 0.000000 0.000000 0.000000 0.106960 0.000000
# 6 0.000000 0.000000 0.000000 0.000000 0.000000 0.020163
#
#
# Mechanical properties :
#
#
# Convention : Reuss Voigt Hill
#
# Bulk Modulus (GPa) = 89.50924 95.96866 92.73895
# Shear Modulus (GPa) = 15.78661 31.17979 23.48320
#
# Velocity S-wave (km/s) = 2.76870 3.89107 3.37684
# Velocity P-wave (km/s) = 7.32702 8.17239 7.76122
#
# Compressibility (1/GPa) = 0.01117203
#
# Stress axis : x y z
#
# Youngs Moduli (GPa) = 49.77577 49.77577 205.55952
#
# Poissons Ratio (x) = 0.69066 0.31461
# Poissons Ratio (y) = 0.69066 0.31461
# Poissons Ratio (z) = 0.07618 0.07618
#
# Static dielectric constant tensor:
#      x y z
#    x 1.730900 0.000000 0.000000 
#    y 0.000000 1.730900 0.000000 
#    z 0.000000 0.000000 1.697790 
# 
# From -- ./inp_files/417.got.cif
#   From: 2010.05.17/outbox.cif.g08.bks.cpg/sg108_1_cif.got.tgz:417.got - 2010.05.20 10:49:05.
