data_PCOD9554885
_publ_section_title
;
Structure prediction by ZEFSAII (Michael W. Deem and Ramdas Pophale) SiO2 
 PCOD9554885
Probable space group: P -4 2 M 
;
_chemical_formula_sum "Si O2"
_cell_formula_units_Z 64
_cell_length_a 11.355841
_cell_length_b 11.355841
_cell_length_c 23.838103
_cell_angle_alpha 90.000000
_cell_angle_beta 90.000000
_cell_angle_gamma 90.000000
_cell_volume 3074.045548
_symmetry_space_group_name_H-M "P -4 2 M "
_symmetry_group_IT_number 111
_symmetry_cell_setting 'tetragonal'
loop_
_space_group_symop_operation_xyz
x,y,z
y,-x,-z
-x,-y,z
-y,x,-z
x,-y,-z
-x,y,-z
-y,-x,z
y,x,z
loop_
_atom_site_type_symbol
_atom_site_label
_atom_site_fract_x
_atom_site_fract_y
_atom_site_fract_z
Si Si1 0.942791 0.233511 0.280587
Si Si2 0.961986 0.780342 0.168907
Si Si3 0.745099 0.074180 0.049778
Si Si4 0.238189 0.434308 0.712119
Si Si5 0.332764 0.856548 0.649740
Si Si6 0.804653 0.995615 0.566266
Si Si7 0.141039 0.539729 0.828438
Si Si8 0.451684 0.268056 0.936242
O O1 0.893777 0.106223 0.297660
O O2 0.854217 0.331782 0.302350
O O3 0.936518 0.241003 0.213408
O O4 0.071974 0.269155 0.299834
O O5 0.904503 0.904503 0.180871
O O6 0.869958 0.677860 0.180353
O O7 0.002466 0.772550 0.105278
O O8 0.863293 0.136708 0.028321
O O9 0.653550 0.174196 0.064425
O O10 0.691423 0.000000 0.000000
O O11 0.367340 0.367340 0.709230
O O12 0.196958 0.543172 0.671784
O O13 0.205487 0.477970 0.775660
O O14 0.255795 0.744206 0.633405
O O15 0.308307 0.955693 0.601061
O O16 0.907497 0.092504 0.577150
O O17 0.779269 0.000000 0.500000
O O18 0.868661 0.868661 0.578105
O O19 0.216024 0.527885 0.885649
O O20 0.000000 0.500000 0.833700
O O21 0.394909 0.394909 0.923792
O O22 0.500000 0.269979 0.000000
#
# Coordination Sequence:
#
# PCOD9554885 Si02
#       8
#     8   8   8   8   8   8   8   8
#     4  11  22  37  58  85 121 163 205 257 321 385
#     4  12  24  37  58  89 117 146 191 250 316 390
#     4  11  23  38  55  79 110 147 184 230 302 386
#     4  11  23  40  61  86 122 174 225 268 318 383
#     4  11  21  35  58  92 131 170 217 270 321 380
#     4   8  15  30  55  91 137 183 220 263 330 403
#     4  12  21  40  66  83 114 158 206 258 322 391
#     4  11  25  42  63  87 111 147 200 258 316 380
#
# _framework density 20.819469000000002
#
# number of rings (size 3 to 8) (size 9 to 14) (size 15 to 20)
#    0.000    1.125    3.750    3.375    0.000    6.750 
#    0.000    0.000    0.000    3.750    0.000    0.000 
#    0.000    1.000    0.000   14.125    0.000    0.500 
#
# Total GULP energy -356467.644539 kJ/mol
# GULP energy per Si atom -5569.806946 kJ/mol
# Density = 2.077208 g / cm^3
# Si number density = 20.819469 Si / 1000 Ang^3
#
#
#
# Elastic Constant Matrix: (Units=GPa)
#
#
# Indices 1 2 3 4 5 6 
#
# 1 90.6534 52.3360 29.8571 0.0000 0.0000 0.0000
# 2 52.3360 90.6551 29.8573 0.0000 0.0000 0.0000
# 3 29.8571 29.8573 114.7480 0.0000 0.0000 0.0000
# 4 0.0000 0.0000 0.0000 18.8270 0.0000 0.0000
# 5 0.0000 0.0000 0.0000 0.0000 18.8262 0.0000
# 6 0.0000 0.0000 0.0000 0.0000 0.0000 26.2164
#
#
#
# Elastic Compliance Matrix: (Units=1/GPa)
#
#
# Indices 1 2 3 4 5 6 
#
# 1 0.016972 -0.009126 -0.002042 0.000000 0.000000 0.000000
# 2 -0.009126 0.016972 -0.002042 0.000000 0.000000 0.000000
# 3 -0.002042 -0.002042 0.009777 0.000000 0.000000 0.000000
# 4 0.000000 0.000000 0.000000 0.053115 0.000000 0.000000
# 5 0.000000 0.000000 0.000000 0.000000 0.053117 0.000000
# 6 0.000000 0.000000 0.000000 0.000000 0.000000 0.038144
#
#
# Mechanical properties :
#
#
# Convention : Reuss Voigt Hill
#
# Bulk Modulus (GPa) = 57.79298 57.79527 57.79413
# Shear Modulus (GPa) = 22.69816 25.04099 23.86958
#
# Velocity S-wave (km/s) = 3.30546 3.47186 3.38968
# Velocity P-wave (km/s) = 6.51056 6.62512 6.56809
#
# Compressibility (1/GPa) = 0.01730314
#
# Stress axis : x y z
#
# Youngs Moduli (GPa) = 58.92119 58.92231 102.27930
#
# Poissons Ratio (x) = 0.53770 0.20881
# Poissons Ratio (y) = 0.53769 0.20880
# Poissons Ratio (z) = 0.12029 0.12029
#
# Static dielectric constant tensor:
#      x y z
#    x 1.732650 0.000000 0.000000 
#    y 0.000000 1.732530 0.000000 
#    z 0.000000 0.000000 1.818670 
# 
# From -- ./inp_files/4269.got.cif
#   From: 2010.05.17/outbox.cif.g08.bks.cpg/sg111_3_cif.got.tgz:4269.got - 2010.05.20 10:56:05.
