data_PCOD9554277
_publ_section_title
;
Structure prediction by ZEFSAII (Michael W. Deem and Ramdas Pophale) SiO2 
 PCOD9554277
Probable space group: I 41 M D
;
_chemical_formula_sum "Si O2"
_cell_formula_units_Z 52
_cell_length_a 13.324993
_cell_length_b 13.324993
_cell_length_c 11.825808
_cell_angle_alpha 90.000000
_cell_angle_beta 90.000000
_cell_angle_gamma 90.000000
_cell_volume 2099.736524
_symmetry_space_group_name_H-M "I 41 M D"
_symmetry_group_IT_number 109
_symmetry_cell_setting 'tetragonal'
loop_
_space_group_symop_operation_xyz
x,y,z
-y,1/2+x,1/4+z
-x,-y,z
y,1/2-x,1/4+z
-x,y,z
x,-y,z
-y,1/2-x,1/4+z
y,1/2+x,1/4+z
1/2+x,1/2+y,1/2+z
1/2-y,x,3/4+z
1/2-x,1/2-y,1/2+z
1/2+y,-x,3/4+z
1/2-x,1/2+y,1/2+z
1/2+x,1/2-y,1/2+z
1/2-y,-x,3/4+z
1/2+y,x,3/4+z
loop_
_atom_site_type_symbol
_atom_site_label
_atom_site_fract_x
_atom_site_fract_y
_atom_site_fract_z
Si Si1 0.824480 0.000000 0.646410
Si Si2 0.500000 0.000000 0.970811
Si Si3 0.718633 0.723208 0.659705
Si Si4 0.712609 0.500000 0.720784
Si Si5 0.337603 0.000000 0.439666
Si Si6 0.500000 0.716286 0.616390
O O1 0.758526 0.000000 0.528159
O O2 0.899149 0.092431 0.682639
O O3 0.733228 0.000000 0.733958
O O4 0.400485 0.000000 0.896854
O O5 0.500000 0.895478 0.034520
O O6 0.760450 0.742020 0.787091
O O7 0.721625 0.602230 0.652470
O O8 0.603658 0.759718 0.661873
O O9 0.793277 0.500000 0.815594
#
# Coordination Sequence:
#
# PCOD9554277 Si02
#       6
#     8   4  16   8   8   8
#     4  11  29  52  77 117 166 223 274 349 426 517
#     4   8  20  48  68 112 134 196 252 344 384 470
#     4  11  26  45  72 112 147 199 262 322 397 482
#     4  10  24  44  74 102 158 201 262 327 400 479
#     4  11  29  52  77 117 166 223 274 349 426 517
#     4  10  24  44  74 102 158 201 262 327 400 479
#
# _framework density 24.765011999999999
#
# number of rings (size 3 to 8) (size 9 to 14) (size 15 to 20)
#    0.000    1.538    0.000    0.923   12.923    2.462 
#    5.538    0.000    0.000    0.000    0.000    0.000 
#    0.000    0.000    0.000    0.000    0.000    0.000 
#
# Total GULP energy -144779.982599 kJ/mol
# GULP energy per Si atom -5568.460869 kJ/mol
# Density = 2.470865 g / cm^3
# Si number density = 24.765012 Si / 1000 Ang^3
#
#
#
# Elastic Constant Matrix: (Units=GPa)
#
#
# Indices 1 2 3 4 5 6 
#
# 1 95.3690 36.5201 30.7154 0.0000 0.0000 0.0000
# 2 36.5201 95.3690 30.7154 0.0000 0.0000 0.0000
# 3 30.7154 30.7154 154.4681 0.0000 0.0000 0.0000
# 4 0.0000 0.0000 0.0000 33.7520 0.0000 0.0000
# 5 0.0000 0.0000 0.0000 0.0000 33.7520 0.0000
# 6 0.0000 0.0000 0.0000 0.0000 0.0000 23.8343
#
#
#
# Elastic Compliance Matrix: (Units=1/GPa)
#
#
# Indices 1 2 3 4 5 6 
#
# 1 0.012674 -0.004318 -0.001662 0.000000 0.000000 0.000000
# 2 -0.004318 0.012674 -0.001662 0.000000 0.000000 0.000000
# 3 -0.001662 -0.001662 0.007135 0.000000 0.000000 0.000000
# 4 0.000000 0.000000 0.000000 0.029628 0.000000 0.000000
# 5 0.000000 0.000000 0.000000 0.000000 0.029628 0.000000
# 6 0.000000 0.000000 0.000000 0.000000 0.000000 0.041956
#
#
# Mechanical properties :
#
#
# Convention : Reuss Voigt Hill
#
# Bulk Modulus (GPa) = 58.13801 60.12307 59.13054
# Shear Modulus (GPa) = 32.31817 34.75135 33.53476
#
# Velocity S-wave (km/s) = 3.61639 3.75005 3.68383
# Velocity P-wave (km/s) = 6.40035 6.56359 6.48248
#
# Compressibility (1/GPa) = 0.01720045
#
# Stress axis : x y z
#
# Youngs Moduli (GPa) = 78.89947 78.89947 140.16165
#
# Poissons Ratio (x) = 0.34071 0.23289
# Poissons Ratio (y) = 0.34071 0.23289
# Poissons Ratio (z) = 0.13110 0.13110
#
# Static dielectric constant tensor:
#      x y z
#    x 2.078320 0.000000 0.000000 
#    y 0.000000 2.078320 0.000000 
#    z 0.000000 0.000000 1.904060 
# 
# From -- ./inp_files/1796.got.cif
#   From: 2010.05.17/outbox.cif.g08.bks.cpg/sg109_1_cif.got.tgz:1796.got - 2010.05.20 10:51:12.
