data_PCOD9554279
_publ_section_title
;
Structure prediction by ZEFSAII (Michael W. Deem and Ramdas Pophale) SiO2 
 PCOD9554279
Probable space group: I 41 M D
;
_chemical_formula_sum "Si O2"
_cell_formula_units_Z 68
_cell_length_a 17.019943
_cell_length_b 17.019943
_cell_length_c 10.497810
_cell_angle_alpha 90.000000
_cell_angle_beta 90.000000
_cell_angle_gamma 90.000000
_cell_volume 3040.989431
_symmetry_space_group_name_H-M "I 41 M D"
_symmetry_group_IT_number 109
_symmetry_cell_setting 'tetragonal'
loop_
_space_group_symop_operation_xyz
x,y,z
-y,1/2+x,1/4+z
-x,-y,z
y,1/2-x,1/4+z
-x,y,z
x,-y,z
-y,1/2-x,1/4+z
y,1/2+x,1/4+z
1/2+x,1/2+y,1/2+z
1/2-y,x,3/4+z
1/2-x,1/2-y,1/2+z
1/2+y,-x,3/4+z
1/2-x,1/2+y,1/2+z
1/2+x,1/2-y,1/2+z
1/2-y,-x,3/4+z
1/2+y,x,3/4+z
loop_
_atom_site_type_symbol
_atom_site_label
_atom_site_fract_x
_atom_site_fract_y
_atom_site_fract_z
Si Si1 0.089709 0.827877 0.685900
Si Si2 0.381791 0.856845 0.181042
Si Si3 0.092576 0.907031 0.958551
Si Si4 0.814039 0.724153 0.328827
Si Si5 0.000000 0.500000 0.628111
O O1 0.139983 0.874605 0.583654
O O2 0.095505 0.734508 0.658678
O O3 0.107100 0.859571 0.827025
O O4 0.000000 0.851388 0.661480
O O5 0.295992 0.867973 0.121776
O O6 0.433736 0.928732 0.134143
O O7 0.000000 0.901711 0.988142
O O8 0.111614 0.000000 0.945246
O O9 0.145537 0.864102 0.063176
O O10 0.749538 0.718995 0.440782
#
# Coordination Sequence:
#
# PCOD9554279 Si02
#       5
#    16  16  16  16   4
#     4  11  24  43  75 109 152 196 260 317 372 456
#     4  12  25  46  73 111 150 198 254 314 383 451
#     4  10  26  48  73 110 154 204 256 313 379 455
#     4  12  27  49  79 109 152 201 255 315 381 459
#     4  12  28  44  76 112 154 208 248 316 386 464
#
# _framework density 22.361142999999998
#
# number of rings (size 3 to 8) (size 9 to 14) (size 15 to 20)
#    0.000    0.706    4.706    1.412    6.588    0.941 
#    2.118    0.000    0.000    0.000    0.000    0.000 
#    0.000    0.000    0.000    0.000    0.000    0.000 
#
# Total GULP energy -189445.589341 kJ/mol
# GULP energy per Si atom -5571.929098 kJ/mol
# Density = 2.231025 g / cm^3
# Si number density = 22.361143 Si / 1000 Ang^3
#
#
#
# Elastic Constant Matrix: (Units=GPa)
#
#
# Indices 1 2 3 4 5 6 
#
# 1 82.3404 22.0389 35.8649 0.0000 0.0000 0.0000
# 2 22.0389 82.3404 35.8649 0.0000 0.0000 0.0000
# 3 35.8649 35.8649 72.4011 0.0000 0.0000 0.0000
# 4 0.0000 0.0000 0.0000 -24.2372 0.0000 0.0000
# 5 0.0000 0.0000 0.0000 0.0000 -24.2372 0.0000
# 6 0.0000 0.0000 0.0000 0.0000 0.0000 26.2381
#
#
#
# Elastic Compliance Matrix: (Units=1/GPa)
#
#
# Indices 1 2 3 4 5 6 
#
# 1 0.015554 -0.001029 -0.007195 0.000000 0.000000 0.000000
# 2 -0.001029 0.015554 -0.007195 0.000000 0.000000 0.000000
# 3 -0.007195 -0.007195 0.020940 0.000000 0.000000 0.000000
# 4 0.000000 0.000000 0.000000 -0.041259 0.000000 0.000000
# 5 0.000000 0.000000 0.000000 0.000000 -0.041259 0.000000
# 6 0.000000 0.000000 0.000000 0.000000 0.000000 0.038112
#
#
# Mechanical properties :
#
#
# Convention : Reuss Voigt Hill
#
# Bulk Modulus (GPa) = 47.14815 47.17990 47.16402
# Shear Modulus (GPa) = 109.76425 5.10696 57.43560
#
# Velocity S-wave (km/s) = 7.01382 1.51288 5.07358
# Velocity P-wave (km/s) = 9.31247 4.91901 7.44710
#
# Compressibility (1/GPa) = 0.02120974
#
# Stress axis : x y z
#
# Youngs Moduli (GPa) = 64.29151 64.29151 47.75467
#
# Poissons Ratio (x) = 0.06617 0.34360
# Poissons Ratio (y) = 0.06617 0.34360
# Poissons Ratio (z) = 0.46259 0.46259
#
# Static dielectric constant tensor:
#      x y z
#    x 1.829260 0.000000 0.000000 
#    y 0.000000 1.829260 0.000000 
#    z 0.000000 0.000000 1.879220 
# 
# From -- ./inp_files/1903.got.cif
#   From: 2010.05.17/outbox.cif.g08.bks.cpg/sg109_1_cif.got.tgz:1903.got - 2010.05.20 10:51:12.
