data_PCOD9554538
_publ_section_title
;
Structure prediction by ZEFSAII (Michael W. Deem and Ramdas Pophale) SiO2 
 PCOD9554538
Probable space group: I 41 C D
;
_chemical_formula_sum "Si O2"
_cell_formula_units_Z 112
_cell_length_a 13.970442
_cell_length_b 13.970442
_cell_length_c 22.481903
_cell_angle_alpha 90.000000
_cell_angle_beta 90.000000
_cell_angle_gamma 90.000000
_cell_volume 4387.866067
_symmetry_space_group_name_H-M "I 41 C D"
_symmetry_group_IT_number 110
_symmetry_cell_setting 'tetragonal'
loop_
_space_group_symop_operation_xyz
x,y,z
-y,1/2+x,1/4+z
-x,-y,z
y,1/2-x,1/4+z
-x,y,1/2+z
x,-y,1/2+z
1/2-y,-x,1/4+z
1/2+y,x,1/4+z
1/2+x,1/2+y,1/2+z
1/2-y,x,3/4+z
1/2-x,1/2-y,1/2+z
1/2+y,-x,3/4+z
1/2-x,1/2+y,z
1/2+x,1/2-y,z
-y,1/2-x,3/4+z
y,1/2+x,3/4+z
loop_
_atom_site_type_symbol
_atom_site_label
_atom_site_fract_x
_atom_site_fract_y
_atom_site_fract_z
Si Si1 0.640641 0.411937 0.761210
Si Si2 0.909259 0.131853 0.512697
Si Si3 0.271152 0.624741 0.121197
Si Si4 0.681205 0.377780 0.884123
Si Si5 0.631700 0.367169 0.276912
Si Si6 0.472782 0.274759 0.192522
Si Si7 0.613216 0.327817 0.486753
O O1 0.753670 0.395039 0.761022
O O2 0.616108 0.365317 0.825889
O O3 0.614094 0.522058 0.767544
O O4 0.593931 0.366447 0.702919
O O5 0.849978 0.095648 0.570813
O O6 0.875156 0.105626 0.445758
O O7 0.023176 0.118667 0.514951
O O8 0.297216 0.735856 0.136081
O O9 0.170015 0.605413 0.091083
O O10 0.247856 0.578303 0.184832
O O11 0.741747 0.478777 0.881190
O O12 0.565810 0.307711 0.231286
O O13 0.744825 0.340789 0.276498
O O14 0.405262 0.190063 0.216540
#
# Coordination Sequence:
#
# PCOD9554538 Si02
#       7
#    16  16  16  16  16  16  16
#     4  10  24  41  70 103 139 189 242 293 362 436
#     4  10  23  41  66 101 142 180 241 295 349 446
#     4  11  20  43  70  95 140 186 231 295 367 421
#     4  11  22  41  69 102 141 188 241 294 365 439
#     4  11  23  45  68 101 140 182 244 301 350 441
#     4  12  23  43  71 103 142 189 237 305 361 440
#     4  11  24  42  71 100 139 194 230 300 371 424
#
# _framework density 25.524934999999999
#
# number of rings (size 3 to 8) (size 9 to 14) (size 15 to 20)
#    0.000    1.143    2.857    3.857    2.000    0.571 
#    2.571    1.429    6.286    0.000    0.000    0.000 
#    0.000    0.000    0.000    0.000    0.000    0.000 
#
# Total GULP energy -312305.492952 kJ/mol
# GULP energy per Si atom -5576.883803 kJ/mol
# Density = 2.546684 g / cm^3
# Si number density = 25.524935 Si / 1000 Ang^3
#
#
#
# Elastic Constant Matrix: (Units=GPa)
#
#
# Indices 1 2 3 4 5 6 
#
# 1 91.9938 29.7419 6.6560 0.0000 0.0000 0.0000
# 2 29.7419 91.9937 6.6560 0.0000 0.0000 0.0000
# 3 6.6560 6.6560 75.8988 0.0000 0.0000 0.0000
# 4 0.0000 0.0000 0.0000 25.0197 0.0000 0.0000
# 5 0.0000 0.0000 0.0000 0.0000 25.0197 0.0000
# 6 0.0000 0.0000 0.0000 0.0000 0.0000 27.2911
#
#
#
# Elastic Compliance Matrix: (Units=1/GPa)
#
#
# Indices 1 2 3 4 5 6 
#
# 1 0.012179 -0.003885 -0.000727 0.000000 0.000000 0.000000
# 2 -0.003885 0.012179 -0.000727 0.000000 0.000000 0.000000
# 3 -0.000727 -0.000727 0.013303 0.000000 0.000000 0.000000
# 4 0.000000 0.000000 0.000000 0.039968 0.000000 0.000000
# 5 0.000000 0.000000 0.000000 0.000000 0.039968 0.000000
# 6 0.000000 0.000000 0.000000 0.000000 0.000000 0.036642
#
#
# Mechanical properties :
#
#
# Convention : Reuss Voigt Hill
#
# Bulk Modulus (GPa) = 37.06212 38.44378 37.75295
# Shear Modulus (GPa) = 28.75005 29.92161 29.33583
#
# Velocity S-wave (km/s) = 3.35976 3.42753 3.39381
# Velocity P-wave (km/s) = 5.44078 5.54598 5.49363
#
# Compressibility (1/GPa) = 0.02698172
#
# Stress axis : x y z
#
# Youngs Moduli (GPa) = 82.10912 82.10912 75.17091
#
# Poissons Ratio (x) = 0.31898 0.05468
# Poissons Ratio (y) = 0.31898 0.05468
# Poissons Ratio (z) = 0.05972 0.05972
#
# Static dielectric constant tensor:
#      x y z
#    x 2.066590 0.000000 0.000000 
#    y 0.000000 2.066590 0.000000 
#    z 0.000000 0.000000 2.086430 
# 
# From -- ./inp_files/2672.got.cif
#   From: 2010.05.17/outbox.cif.g08.bks.cpg/sg110_2_cif.got.tgz:2672.got - 2010.05.20 10:54:03.
