data_PCOD9554640
_publ_section_title
;
Structure prediction by ZEFSAII (Michael W. Deem and Ramdas Pophale) SiO2 
 PCOD9554640
Probable space group: I 41 C D
;
_chemical_formula_sum "Si O2"
_cell_formula_units_Z 56
_cell_length_a 14.184983
_cell_length_b 14.184983
_cell_length_c 11.632332
_cell_angle_alpha 90.000000
_cell_angle_beta 90.000000
_cell_angle_gamma 90.000000
_cell_volume 2340.585058
_symmetry_space_group_name_H-M "I 41 C D"
_symmetry_group_IT_number 110
_symmetry_cell_setting 'tetragonal'
loop_
_space_group_symop_operation_xyz
x,y,z
-y,1/2+x,1/4+z
-x,-y,z
y,1/2-x,1/4+z
-x,y,1/2+z
x,-y,1/2+z
1/2-y,-x,1/4+z
1/2+y,x,1/4+z
1/2+x,1/2+y,1/2+z
1/2-y,x,3/4+z
1/2-x,1/2-y,1/2+z
1/2+y,-x,3/4+z
1/2-x,1/2+y,z
1/2+x,1/2-y,z
-y,1/2-x,3/4+z
y,1/2+x,3/4+z
loop_
_atom_site_type_symbol
_atom_site_label
_atom_site_fract_x
_atom_site_fract_y
_atom_site_fract_z
Si Si1 0.724162 0.199107 0.537110
Si Si2 0.181856 0.517006 0.606543
Si Si3 0.623147 0.861031 0.392193
Si Si4 0.000000 0.500000 0.754726
O O1 0.795238 0.229970 0.645482
O O2 0.653412 0.287430 0.558392
O O3 0.698044 0.091324 0.567640
O O4 0.265341 0.569131 0.675334
O O5 0.167174 0.579599 0.493852
O O6 0.086960 0.528548 0.677198
O O7 0.539738 0.917251 0.331876
#
# Coordination Sequence:
#
# PCOD9554640 Si02
#       4
#    16  16  16   8
#     4  12  28  56  81 122 173 223 276 357 431 499
#     4  12  29  50  80 120 169 218 292 352 429 511
#     4  12  28  49  80 117 162 228 276 352 432 504
#     4  12  28  46  80 120 158 220 288 346 424 516
#
# _framework density 23.925642
#
# number of rings (size 3 to 8) (size 9 to 14) (size 15 to 20)
#    0.000    0.000    5.714    0.857   12.000    2.286 
#    0.000    0.000    0.000    0.000    0.000    0.000 
#    0.000    0.000    0.000    0.000    0.000    0.000 
#
# Total GULP energy -156206.320329 kJ/mol
# GULP energy per Si atom -5578.797155 kJ/mol
# Density = 2.387119 g / cm^3
# Si number density = 23.925642 Si / 1000 Ang^3
#
#
#
# Elastic Constant Matrix: (Units=GPa)
#
#
# Indices 1 2 3 4 5 6 
#
# 1 39.2742 158.8965 48.0560 0.0000 0.0000 0.0000
# 2 158.8965 39.2742 48.0560 0.0000 0.0000 0.0000
# 3 48.0560 48.0560 139.6631 0.0000 0.0000 0.0000
# 4 0.0000 0.0000 0.0000 37.2434 0.0000 0.0000
# 5 0.0000 0.0000 0.0000 0.0000 37.2434 0.0000
# 6 0.0000 0.0000 0.0000 0.0000 0.0000 34.6583
#
#
#
# Elastic Compliance Matrix: (Units=1/GPa)
#
#
# Indices 1 2 3 4 5 6 
#
# 1 -0.001151 0.007208 -0.002084 0.000000 0.000000 0.000000
# 2 0.007208 -0.001151 -0.002084 0.000000 0.000000 0.000000
# 3 -0.002084 -0.002084 0.008594 0.000000 0.000000 0.000000
# 4 0.000000 0.000000 0.000000 0.026850 0.000000 0.000000
# 5 0.000000 0.000000 0.000000 0.000000 0.026850 0.000000
# 6 0.000000 0.000000 0.000000 0.000000 0.000000 0.028853
#
#
# Mechanical properties :
#
#
# Convention : Reuss Voigt Hill
#
# Bulk Modulus (GPa) = 80.82916 80.91426 80.87171
# Shear Modulus (GPa) = 57.54455 19.37590 38.46023
#
# Velocity S-wave (km/s) = 4.90954 2.84885 4.01370
# Velocity P-wave (km/s) = 8.12373 6.68683 7.44005
#
# Compressibility (1/GPa) = 0.01237177
#
# Stress axis : x y z
#
# Youngs Moduli (GPa) = -868.54163 -868.54163 116.35611
#
# Poissons Ratio (x) = 6.26070 0.24250
# Poissons Ratio (y) = 6.26070 0.24250
# Poissons Ratio (z) = -1.81013 -1.81013
#
# Static dielectric constant tensor:
#      x y z
#    x 1.963460 0.000000 0.000000 
#    y 0.000000 1.963460 0.000000 
#    z 0.000000 0.000000 1.958730 
# 
# From -- ./inp_files/702.got.cif
#   From: 2010.05.17/outbox.cif.g08.bks.cpg/sg110_1_cif.got.tgz:702.got - 2010.05.20 10:54:03.
