data_PCOD9554757
_publ_section_title
;
Structure prediction by ZEFSAII (Michael W. Deem and Ramdas Pophale) SiO2 
 PCOD9554757
Probable space group: P -4 2 M 
;
_chemical_formula_sum "Si O2"
_cell_formula_units_Z 64
_cell_length_a 12.179390
_cell_length_b 12.179390
_cell_length_c 22.801980
_cell_angle_alpha 90.000000
_cell_angle_beta 90.000000
_cell_angle_gamma 90.000000
_cell_volume 3382.389638
_symmetry_space_group_name_H-M "P -4 2 M "
_symmetry_group_IT_number 111
_symmetry_cell_setting 'tetragonal'
loop_
_space_group_symop_operation_xyz
x,y,z
y,-x,-z
-x,-y,z
-y,x,-z
x,-y,-z
-x,y,-z
-y,-x,z
y,x,z
loop_
_atom_site_type_symbol
_atom_site_label
_atom_site_fract_x
_atom_site_fract_y
_atom_site_fract_z
Si Si1 0.685717 0.865882 0.217749
Si Si2 0.300620 0.877375 0.226856
Si Si3 0.808678 0.627604 0.347920
Si Si4 0.377056 0.199078 0.648147
Si Si5 0.395725 0.217395 0.092348
Si Si6 0.633848 0.004458 0.432887
Si Si7 0.044948 0.779902 0.937860
Si Si8 0.825050 0.352768 0.100557
O O1 0.798470 0.798470 0.219744
O O2 0.627776 0.844780 0.279846
O O3 0.623399 0.821935 0.160094
O O4 0.706668 0.994466 0.214354
O O5 0.183121 0.816880 0.230498
O O6 0.360757 0.856701 0.288272
O O7 0.361494 0.823275 0.171531
O O8 0.705724 0.705724 0.353520
O O9 0.781405 0.503742 0.364083
O O10 0.904905 0.668530 0.390824
O O11 0.309738 0.309738 0.648823
O O12 0.332947 0.116034 0.599177
O O13 0.338675 0.338675 0.086944
O O14 0.317002 0.135011 0.056202
O O15 0.523334 0.194737 0.077565
O O16 0.500000 0.000000 0.432825
O O17 0.670765 0.000000 0.500000
O O18 0.116767 0.883234 0.911165
O O19 0.938196 0.716141 0.911141
O O20 0.000000 0.818709 0.000000
O O21 0.726018 0.273983 0.081137
#
# Coordination Sequence:
#
# PCOD9554757 Si02
#       8
#     8   8   8   8   8   8   8   8
#     4  10  19  34  56  83 114 150 187 227 276 330
#     4  10  20  33  53  84 117 148 183 226 280 339
#     4  10  20  33  54  81 108 143 184 224 270 327
#     4  10  20  34  53  79 111 145 180 223 275 327
#     4  10  22  39  60  87 117 153 196 236 280 339
#     4   9  18  33  53  75 100 135 180 226 270 321
#     4  11  24  42  63  87 116 151 192 243 296 346
#     4  11  23  37  59  89 119 154 191 232 286 345
#
# _framework density 18.921534999999999
#
# number of rings (size 3 to 8) (size 9 to 14) (size 15 to 20)
#    0.000    1.875    2.500    1.500    0.000    4.125 
#    0.000    1.250    0.000    4.875    0.000    6.125 
#    0.000    0.000    0.000    0.000    0.000    0.000 
#
# Total GULP energy -356682.514642 kJ/mol
# GULP energy per Si atom -5573.164291 kJ/mol
# Density = 1.887847 g / cm^3
# Si number density = 18.921535 Si / 1000 Ang^3
#
#
#
# Elastic Constant Matrix: (Units=GPa)
#
#
# Indices 1 2 3 4 5 6 
#
# 1 81.0298 80.7875 12.1171 0.0000 0.0000 0.0000
# 2 80.7875 81.0289 12.1205 0.0000 0.0000 0.0000
# 3 12.1171 12.1205 63.6327 0.0000 0.0000 0.0000
# 4 0.0000 0.0000 0.0000 19.7721 0.0000 0.0000
# 5 0.0000 0.0000 0.0000 0.0000 19.7724 0.0000
# 6 0.0000 0.0000 0.0000 0.0000 0.0000 4.2077
#
#
#
# Elastic Compliance Matrix: (Units=1/GPa)
#
#
# Indices 1 2 3 4 5 6 
#
# 1 2.070548 -2.064216 -0.001096 0.000000 0.000000 0.000000
# 2 -2.064216 2.070606 -0.001327 0.000000 0.000000 0.000000
# 3 -0.001096 -0.001327 0.016177 0.000000 0.000000 0.000000
# 4 0.000000 0.000000 0.000000 0.050576 0.000000 0.000000
# 5 0.000000 0.000000 0.000000 0.000000 0.050576 0.000000
# 6 0.000000 0.000000 0.000000 0.000000 0.000000 0.237662
#
#
# Mechanical properties :
#
#
# Convention : Reuss Voigt Hill
#
# Bulk Modulus (GPa) = 41.57450 48.41576 44.99513
# Shear Modulus (GPa) = 0.57888 16.79487 8.68687
#
# Velocity S-wave (km/s) = 0.55371 2.98250 2.14499
# Velocity P-wave (km/s) = 4.73588 6.12402 5.47413
#
# Compressibility (1/GPa) = 0.02405321
#
# Stress axis : x y z
#
# Youngs Moduli (GPa) = 0.48296 0.48295 61.81752
#
# Poissons Ratio (x) = 0.99691 0.06776
# Poissons Ratio (y) = 0.99694 0.08202
# Poissons Ratio (z) = 0.00053 0.00064
#
# Static dielectric constant tensor:
#      x y z
#    x 1.651840 0.000000 0.000000 
#    y 0.000000 1.651840 0.000000 
#    z 0.000000 0.000000 1.705490 
# 
# From -- ./inp_files/4226.got.cif
#   From: 2010.05.17/outbox.cif.g08.bks.cpg/sg111_3_cif.got.tgz:4226.got - 2010.05.20 10:56:05.
