data_PCOD9554214
_publ_section_title
;
Structure prediction by ZEFSAII (Michael W. Deem and Ramdas Pophale) SiO2 
 PCOD9554214
Probable space group: I 41 M D
;
_chemical_formula_sum "Si O2"
_cell_formula_units_Z 96
_cell_length_a 31.183423
_cell_length_b 31.183423
_cell_length_c 5.001443
_cell_angle_alpha 90.000000
_cell_angle_beta 90.000000
_cell_angle_gamma 90.000000
_cell_volume 4863.432532
_symmetry_space_group_name_H-M "I 41 M D"
_symmetry_group_IT_number 109
_symmetry_cell_setting 'tetragonal'
loop_
_space_group_symop_operation_xyz
x,y,z
-y,1/2+x,1/4+z
-x,-y,z
y,1/2-x,1/4+z
-x,y,z
x,-y,z
-y,1/2-x,1/4+z
y,1/2+x,1/4+z
1/2+x,1/2+y,1/2+z
1/2-y,x,3/4+z
1/2-x,1/2-y,1/2+z
1/2+y,-x,3/4+z
1/2-x,1/2+y,1/2+z
1/2+x,1/2-y,1/2+z
1/2-y,-x,3/4+z
1/2+y,x,3/4+z
loop_
_atom_site_type_symbol
_atom_site_label
_atom_site_fract_x
_atom_site_fract_y
_atom_site_fract_z
Si Si1 0.629583 0.500000 0.138500
Si Si2 0.336295 0.907094 0.458882
Si Si3 0.000000 0.571232 0.395632
Si Si4 0.866476 0.796392 0.212921
Si Si5 0.795553 0.132983 0.240011
Si Si6 0.929020 0.500000 0.431531
Si Si7 0.164202 0.092470 0.748780
Si Si8 0.129713 0.500000 0.938462
O O1 0.589329 0.500000 0.344898
O O2 0.655969 0.543305 0.185223
O O3 0.611445 0.500000 0.840643
O O4 0.302471 0.886036 0.666886
O O5 0.380391 0.880093 0.486869
O O6 0.344015 0.957022 0.498152
O O7 0.321220 0.898891 0.158329
O O8 0.958895 0.541745 0.458146
O O9 0.822045 0.822724 0.219569
O O10 0.861096 0.750644 0.354634
O O11 0.802988 0.115090 0.539160
O O12 0.818848 0.099013 0.046756
O O13 0.890130 0.500000 0.641134
O O14 0.910669 0.500000 0.134728
#
# Coordination Sequence:
#
# PCOD9554214 Si02
#       8
#     8  16   8  16  16   8  16   8
#     4  12  22  37  57  82 114 160 202 232 282 349
#     4  10  21  37  58  83 116 155 194 237 286 340
#     4  11  22  34  52  80 113 148 196 258 301 328
#     4  10  21  40  62  86 115 147 185 237 296 353
#     4  10  21  40  62  86 115 147 185 237 296 353
#     4  11  22  34  52  80 113 148 196 258 301 328
#     4  10  21  37  58  83 116 155 194 237 286 340
#     4  12  22  37  57  82 114 160 202 232 282 349
#
# _framework density 19.739146000000002
#
# number of rings (size 3 to 8) (size 9 to 14) (size 15 to 20)
#    0.000    1.500    0.000    6.000    0.000    4.000 
#    0.000   10.000    0.000    0.000    0.000    0.000 
#    0.000    0.000    0.000    0.000    0.000    0.000 
#
# Total GULP energy -268060.746641 kJ/mol
# GULP energy per Si atom -5584.598888 kJ/mol
# Density = 1.969422 g / cm^3
# Si number density = 19.739146 Si / 1000 Ang^3
#
#
#
# Elastic Constant Matrix: (Units=GPa)
#
#
# Indices 1 2 3 4 5 6 
#
# 1 87.0448 48.1177 -6.1428 0.0000 0.0000 0.0000
# 2 48.1177 87.0448 -6.1428 0.0000 0.0000 0.0000
# 3 -6.1428 -6.1428 65.0973 0.0000 0.0000 0.0000
# 4 0.0000 0.0000 0.0000 21.6899 0.0000 0.0000
# 5 0.0000 0.0000 0.0000 0.0000 21.6899 0.0000
# 6 0.0000 0.0000 0.0000 0.0000 0.0000 6.9292
#
#
#
# Elastic Compliance Matrix: (Units=1/GPa)
#
#
# Indices 1 2 3 4 5 6 
#
# 1 0.016576 -0.009113 0.000704 0.000000 0.000000 0.000000
# 2 -0.009113 0.016576 0.000704 0.000000 0.000000 0.000000
# 3 0.000704 0.000704 0.015495 0.000000 0.000000 0.000000
# 4 0.000000 0.000000 0.000000 0.046104 0.000000 0.000000
# 5 0.000000 0.000000 0.000000 0.000000 0.046104 0.000000
# 6 0.000000 0.000000 0.000000 0.000000 0.000000 0.144316
#
#
# Mechanical properties :
#
#
# Convention : Reuss Voigt Hill
#
# Bulk Modulus (GPa) = 30.08760 34.53901 32.31330
# Shear Modulus (GPa) = 16.04316 23.61880 19.83098
#
# Velocity S-wave (km/s) = 2.85398 3.46287 3.17306
# Velocity P-wave (km/s) = 5.11234 5.79002 5.46170
#
# Compressibility (1/GPa) = 0.03323629
#
# Stress axis : x y z
#
# Youngs Moduli (GPa) = 60.32895 60.32895 64.53892
#
# Poissons Ratio (x) = 0.54979 -0.04545
# Poissons Ratio (y) = 0.54979 -0.04545
# Poissons Ratio (z) = -0.04248 -0.04248
#
# Static dielectric constant tensor:
#      x y z
#    x 1.682180 0.000000 0.000000 
#    y 0.000000 1.682180 0.000000 
#    z 0.000000 0.000000 1.666860 
# 
# From -- ./inp_files/694.got.cif
#   From: 2010.05.17/outbox.cif.g08.bks.cpg/sg109_1_cif.got.tgz:694.got - 2010.05.20 10:51:12.
