data_PCOD9554873
_publ_section_title
;
Structure prediction by ZEFSAII (Michael W. Deem and Ramdas Pophale) SiO2 
 PCOD9554873
Probable space group: P -4 2 M 
;
_chemical_formula_sum "Si O2"
_cell_formula_units_Z 56
_cell_length_a 20.670803
_cell_length_b 20.670803
_cell_length_c 9.282031
_cell_angle_alpha 90.000000
_cell_angle_beta 90.000000
_cell_angle_gamma 90.000000
_cell_volume 3966.045667
_symmetry_space_group_name_H-M "P -4 2 M "
_symmetry_group_IT_number 111
_symmetry_cell_setting 'tetragonal'
loop_
_space_group_symop_operation_xyz
x,y,z
y,-x,-z
-x,-y,z
-y,x,-z
x,-y,-z
-x,y,-z
-y,-x,z
y,x,z
loop_
_atom_site_type_symbol
_atom_site_label
_atom_site_fract_x
_atom_site_fract_y
_atom_site_fract_z
Si Si1 0.648531 0.246505 0.282792
Si Si2 0.583325 0.881911 0.660803
Si Si3 0.565723 0.667099 0.912725
Si Si4 0.567809 0.136916 0.676390
Si Si5 0.008448 0.422027 0.161697
Si Si6 0.382519 0.518283 0.664948
Si Si7 0.623747 0.726215 0.383911
O O1 0.718695 0.281306 0.274285
O O2 0.636720 0.170103 0.290374
O O3 0.607835 0.273488 0.147059
O O4 0.621021 0.267848 0.441169
O O5 0.510150 0.856907 0.701097
O O6 0.579039 0.886224 0.488096
O O7 0.597932 0.950584 0.732613
O O8 0.614786 0.614786 0.983548
O O9 0.539967 0.636026 0.765165
O O10 0.500000 0.681524 0.000000
O O11 0.605186 0.205023 0.684846
O O12 0.591732 0.079795 0.779081
O O13 0.000000 0.500000 0.157776
O O14 0.000000 0.397188 0.000000
O O15 0.393060 0.500000 0.500000
O O16 0.445610 0.554391 0.720884
O O17 0.323751 0.569015 0.664252
O O18 0.692665 0.692665 0.349046
#
# Coordination Sequence:
#
# PCOD9554873 Si02
#       7
#     8   8   8   8   8   8   8
#     4   9  17  31  46  61  79 103 134 168 204 249
#     4   9  16  27  45  64  79 105 132 165 204 246
#     4  11  22  34  42  52  74 100 132 174 220 266
#     4   9  16  26  45  63  82 105 132 163 204 248
#     4   9  17  29  41  62  87 102 126 161 203 247
#     4  11  20  30  44  58  72  94 131 175 215 257
#     4   9  17  29  46  64  80  99 133 173 205 244
#
# _framework density 14.119858000000001
#
# number of rings (size 3 to 8) (size 9 to 14) (size 15 to 20)
#    0.000    2.429    1.429    2.143    2.000    3.429 
#    7.714    0.000    0.000    0.000    0.000    0.000 
#    0.000    0.000    0.000    0.000    0.000    0.714 
#
# Total GULP energy -311894.228377 kJ/mol
# GULP energy per Si atom -5569.539792 kJ/mol
# Density = 1.408772 g / cm^3
# Si number density = 14.119858 Si / 1000 Ang^3
#
#
#
# Elastic Constant Matrix: (Units=GPa)
#
#
# Indices 1 2 3 4 5 6 
#
# 1 55.1759 43.3215 21.2152 0.0000 0.0000 0.0000
# 2 43.3215 55.1779 21.2158 0.0000 0.0000 0.0000
# 3 21.2152 21.2158 34.5917 0.0000 0.0000 0.0000
# 4 0.0000 0.0000 0.0000 13.0124 0.0000 0.0000
# 5 0.0000 0.0000 0.0000 0.0000 13.0111 0.0000
# 6 0.0000 0.0000 0.0000 0.0000 0.0000 11.8793
#
#
#
# Elastic Compliance Matrix: (Units=1/GPa)
#
#
# Indices 1 2 3 4 5 6 
#
# 1 0.049074 -0.035276 -0.008462 0.000000 0.000000 0.000000
# 2 -0.035276 0.049073 -0.008463 0.000000 0.000000 0.000000
# 3 -0.008462 -0.008463 0.039289 0.000000 0.000000 0.000000
# 4 0.000000 0.000000 0.000000 0.076850 0.000000 0.000000
# 5 0.000000 0.000000 0.000000 0.000000 0.076857 0.000000
# 6 0.000000 0.000000 0.000000 0.000000 0.000000 0.084180
#
#
# Mechanical properties :
#
#
# Convention : Reuss Voigt Hill
#
# Bulk Modulus (GPa) = 30.27090 35.16116 32.71603
# Shear Modulus (GPa) = 10.18877 11.52677 10.85777
#
# Velocity S-wave (km/s) = 2.68916 2.86029 2.77604
# Velocity P-wave (km/s) = 5.57917 5.98868 5.78755
#
# Compressibility (1/GPa) = 0.03303502
#
# Stress axis : x y z
#
# Youngs Moduli (GPa) = 20.37723 20.37786 25.45249
#
# Poissons Ratio (x) = 0.71884 0.21538
# Poissons Ratio (y) = 0.71882 0.21539
# Poissons Ratio (z) = 0.17244 0.17245
#
# Static dielectric constant tensor:
#      x y z
#    x 1.465860 0.000000 0.000000 
#    y 0.000000 1.465860 0.000000 
#    z 0.000000 0.000000 1.501260 
# 
# From -- ./inp_files/1937.got.cif
#   From: 2010.05.17/outbox.cif.g08.bks.cpg/sg111_1_cif.got.tgz:1937.got - 2010.05.20 10:56:05.
