data_PCOD9554315
_publ_section_title
;
Structure prediction by ZEFSAII (Michael W. Deem and Ramdas Pophale) SiO2 
 PCOD9554315
Probable space group: I 41 M D
;
_chemical_formula_sum "Si O2"
_cell_formula_units_Z 80
_cell_length_a 14.209650
_cell_length_b 14.209650
_cell_length_c 25.490808
_cell_angle_alpha 90.000000
_cell_angle_beta 90.000000
_cell_angle_gamma 90.000000
_cell_volume 5146.954910
_symmetry_space_group_name_H-M "I 41 M D"
_symmetry_group_IT_number 109
_symmetry_cell_setting 'tetragonal'
loop_
_space_group_symop_operation_xyz
x,y,z
-y,1/2+x,1/4+z
-x,-y,z
y,1/2-x,1/4+z
-x,y,z
x,-y,z
-y,1/2-x,1/4+z
y,1/2+x,1/4+z
1/2+x,1/2+y,1/2+z
1/2-y,x,3/4+z
1/2-x,1/2-y,1/2+z
1/2+y,-x,3/4+z
1/2-x,1/2+y,1/2+z
1/2+x,1/2-y,1/2+z
1/2-y,-x,3/4+z
1/2+y,x,3/4+z
loop_
_atom_site_type_symbol
_atom_site_label
_atom_site_fract_x
_atom_site_fract_y
_atom_site_fract_z
Si Si1 0.609081 0.388384 0.418490
Si Si2 0.109081 0.388384 0.742560
Si Si3 0.392835 0.611982 0.293935
Si Si4 0.781374 0.781373 0.705525
Si Si5 0.388018 0.607165 0.117115
O O1 0.500000 0.363615 0.432189
O O2 0.619889 0.500000 0.427168
O O3 0.619574 0.371183 0.355898
O O4 0.685804 0.325814 0.448166
O O5 0.119888 0.500000 0.733882
O O6 0.185804 0.325814 0.712884
O O7 0.119573 0.371184 0.805152
O O8 0.000000 0.363615 0.728862
O O9 0.500000 0.639736 0.280296
O O10 0.384634 0.500000 0.285456
O O11 0.322768 0.666164 0.256503
O O12 0.833836 0.822767 0.654547
O O13 0.500000 0.615366 0.125595
O O14 0.360263 0.500000 0.130754
#
# Coordination Sequence:
#
# PCOD9554315 Si02
#       5
#    16  16  16  16  16
#     4   9  19  33  45  63  95 125 145 177 228 273
#     4   9  19  33  45  63  95 125 145 177 228 273
#     4   9  17  28  43  68  98 118 136 173 226 278
#     4  12  18  25  48  71  86 116 160 186 206 258
#     4   9  17  28  43  68  98 118 136 173 226 278
#
# _framework density 15.54317
#
# number of rings (size 3 to 8) (size 9 to 14) (size 15 to 20)
#    0.000    2.400    0.000    7.200    0.000    4.800 
#    0.000    0.000    0.000    5.400    0.000    5.600 
#    0.000    0.000    0.000    0.000    0.000    0.000 
#
# Total GULP energy -223122.678258 kJ/mol
# GULP energy per Si atom -5578.066956 kJ/mol
# Density = 1.550779 g / cm^3
# Si number density = 15.543170 Si / 1000 Ang^3
#
#
#
# Elastic Constant Matrix: (Units=GPa)
#
#
# Indices 1 2 3 4 5 6 
#
# 1 74.1612 47.9770 30.3412 0.0000 0.0000 0.0000
# 2 47.9770 74.1612 30.3412 0.0000 0.0000 0.0000
# 3 30.3412 30.3412 26.4874 0.0000 0.0000 0.0000
# 4 0.0000 0.0000 0.0000 21.9880 0.0000 0.0000
# 5 0.0000 0.0000 0.0000 0.0000 21.9880 0.0000
# 6 0.0000 0.0000 0.0000 0.0000 0.0000 25.0814
#
#
#
# Elastic Compliance Matrix: (Units=1/GPa)
#
#
# Indices 1 2 3 4 5 6 
#
# 1 0.028596 -0.009595 -0.021766 0.000000 0.000000 0.000000
# 2 -0.009595 0.028596 -0.021766 0.000000 0.000000 0.000000
# 3 -0.021766 -0.021766 0.087621 0.000000 0.000000 0.000000
# 4 0.000000 0.000000 0.000000 0.045479 0.000000 0.000000
# 5 0.000000 0.000000 0.000000 0.000000 0.045479 0.000000
# 6 0.000000 0.000000 0.000000 0.000000 0.000000 0.039870
#
#
# Mechanical properties :
#
#
# Convention : Reuss Voigt Hill
#
# Bulk Modulus (GPa) = 25.93478 43.56987 34.75233
# Shear Modulus (GPa) = 12.66624 18.22148 15.44386
#
# Velocity S-wave (km/s) = 2.85775 3.42762 3.15558
# Velocity P-wave (km/s) = 5.25461 6.61492 5.97361
#
# Compressibility (1/GPa) = 0.03855826
#
# Stress axis : x y z
#
# Youngs Moduli (GPa) = 34.96949 34.96949 11.41284
#
# Poissons Ratio (x) = 0.33552 0.24842
# Poissons Ratio (y) = 0.33552 0.24842
# Poissons Ratio (z) = 0.76116 0.76116
#
# Static dielectric constant tensor:
#      x y z
#    x 1.534960 0.000000 0.000000 
#    y 0.000000 1.534960 0.000000 
#    z 0.000000 0.000000 1.510240 
# 
# From -- ./inp_files/3691.got.cif
#   From: 2010.05.17/outbox.cif.g08.bks.cpg/sg109_2_cif.got.tgz:3691.got - 2010.05.20 10:51:12.
