data_PCOD9554101
_publ_section_title
;
Structure prediction by ZEFSAII (Michael W. Deem and Ramdas Pophale) SiO2 
 PCOD9554101
Probable space group: I 41 M D
;
_chemical_formula_sum "Si O2"
_cell_formula_units_Z 112
_cell_length_a 15.597137
_cell_length_b 15.597137
_cell_length_c 24.753956
_cell_angle_alpha 90.000000
_cell_angle_beta 90.000000
_cell_angle_gamma 90.000000
_cell_volume 6021.911773
_symmetry_space_group_name_H-M "I 41 M D"
_symmetry_group_IT_number 109
_symmetry_cell_setting 'tetragonal'
loop_
_space_group_symop_operation_xyz
x,y,z
-y,1/2+x,1/4+z
-x,-y,z
y,1/2-x,1/4+z
-x,y,z
x,-y,z
-y,1/2-x,1/4+z
y,1/2+x,1/4+z
1/2+x,1/2+y,1/2+z
1/2-y,x,3/4+z
1/2-x,1/2-y,1/2+z
1/2+y,-x,3/4+z
1/2-x,1/2+y,1/2+z
1/2+x,1/2-y,1/2+z
1/2-y,-x,3/4+z
1/2+y,x,3/4+z
loop_
_atom_site_type_symbol
_atom_site_label
_atom_site_fract_x
_atom_site_fract_y
_atom_site_fract_z
Si Si1 0.102403 0.341044 0.687360
Si Si2 0.103195 0.596361 0.565145
Si Si3 0.395579 0.500000 0.398591
Si Si4 0.220613 0.400695 0.784879
Si Si5 0.101127 0.000000 0.773202
Si Si6 0.178205 0.400409 0.202738
Si Si7 0.823085 0.665350 0.991415
Si Si8 0.402227 0.217335 0.341894
O O1 0.118079 0.378621 0.627965
O O2 0.163440 0.386894 0.731349
O O3 0.130892 0.242486 0.696588
O O4 0.000000 0.349682 0.698354
O O5 0.137120 0.500000 0.553506
O O6 0.132959 0.681172 0.532371
O O7 0.000000 0.591063 0.557945
O O8 0.500000 0.500000 0.395948
O O9 0.364999 0.500000 0.335766
O O10 0.371832 0.414919 0.431943
O O11 0.227226 0.500000 0.796985
O O12 0.166030 0.356541 0.831967
O O13 0.129416 0.081860 0.739479
O O14 0.000000 0.000000 0.778487
O O15 0.172952 0.500000 0.222388
O O16 0.231907 0.337183 0.241244
O O17 0.237194 0.400482 0.149185
O O18 0.785876 0.626928 0.046861
O O19 0.500000 0.189714 0.330930
#
# Coordination Sequence:
#
# PCOD9554101 Si02
#       8
#    16  16   8  16   8  16  16  16
#     4  10  20  33  51  76 109 146 174 211 265 330
#     4   9  18  33  52  73 101 140 182 215 254 314
#     4   9  18  32  52  68  95 139 183 209 254 323
#     4  10  19  31  50  75 100 133 176 218 257 305
#     4  11  18  30  50  75 103 145 179 204 250 323
#     4  10  19  32  48  72  98 134 177 218 255 307
#     4  11  19  30  49  75 102 132 178 221 255 305
#     4  10  20  33  50  71 108 146 171 206 264 324
#
# _framework density 18.598744
#
# number of rings (size 3 to 8) (size 9 to 14) (size 15 to 20)
#    0.000    2.000    2.143    3.857    0.000    1.714 
#    0.000    1.429    6.286    0.000    0.000    0.000 
#    0.000    0.000    0.000    0.000    0.000    0.000 
#
# Total GULP energy -311925.756226 kJ/mol
# GULP energy per Si atom -5570.102790 kJ/mol
# Density = 1.855641 g / cm^3
# Si number density = 18.598744 Si / 1000 Ang^3
#
#
#
# Elastic Constant Matrix: (Units=GPa)
#
#
# Indices 1 2 3 4 5 6 
#
# 1 100.1940 48.4731 6.7489 0.0000 0.0000 0.0000
# 2 48.4731 100.1940 6.7489 0.0000 0.0000 0.0000
# 3 6.7489 6.7489 17.7675 0.0000 0.0000 0.0000
# 4 0.0000 0.0000 0.0000 48.1870 0.0000 0.0000
# 5 0.0000 0.0000 0.0000 0.0000 48.1870 0.0000
# 6 0.0000 0.0000 0.0000 0.0000 0.0000 -133.7192
#
#
#
# Elastic Compliance Matrix: (Units=1/GPa)
#
#
# Indices 1 2 3 4 5 6 
#
# 1 0.013151 -0.006184 -0.002646 0.000000 0.000000 0.000000
# 2 -0.006184 0.013151 -0.002646 0.000000 0.000000 0.000000
# 3 -0.002646 -0.002646 0.058293 0.000000 0.000000 0.000000
# 4 0.000000 0.000000 0.000000 0.020752 0.000000 0.000000
# 5 0.000000 0.000000 0.000000 0.000000 0.020752 0.000000
# 6 0.000000 0.000000 0.000000 0.000000 0.000000 -0.007478
#
#
# Mechanical properties :
#
#
# Convention : Reuss Voigt Hill
#
# Bulk Modulus (GPa) = 16.22295 38.01082 27.11689
# Shear Modulus (GPa) = 30.84122 2.94326 16.89224
#
# Velocity S-wave (km/s) = 4.07657 1.25934 3.01698
# Velocity P-wave (km/s) = 5.55873 4.75355 5.17183
#
# Compressibility (1/GPa) = 0.06164108
#
# Stress axis : x y z
#
# Youngs Moduli (GPa) = 76.04202 76.04202 17.15478
#
# Poissons Ratio (x) = 0.47024 0.04540
# Poissons Ratio (y) = 0.47024 0.04540
# Poissons Ratio (z) = 0.20123 0.20123
#
# Static dielectric constant tensor:
#      x y z
#    x 1.689430 0.000000 0.000000 
#    y 0.000000 1.689430 0.000000 
#    z 0.000000 0.000000 1.671130 
# 
# From -- ./inp_files/5082.got.cif
#   From: 2010.05.17/outbox.cif.g08.bks.cpg/sg109_3_cif.got.tgz:5082.got - 2010.05.20 10:51:12.
