data_PCOD9554660
_publ_section_title
;
Structure prediction by ZEFSAII (Michael W. Deem and Ramdas Pophale) SiO2 
 PCOD9554660
Probable space group: P -4 2 M 
;
_chemical_formula_sum "Si O2"
_cell_formula_units_Z 20
_cell_length_a 10.231372
_cell_length_b 10.231372
_cell_length_c 10.816782
_cell_angle_alpha 90.000000
_cell_angle_beta 90.000000
_cell_angle_gamma 90.000000
_cell_volume 1132.311265
_symmetry_space_group_name_H-M "P -4 2 M "
_symmetry_group_IT_number 111
_symmetry_cell_setting 'tetragonal'
loop_
_space_group_symop_operation_xyz
x,y,z
y,-x,-z
-x,-y,z
-y,x,-z
x,-y,-z
-x,y,-z
-y,-x,z
y,x,z
loop_
_atom_site_type_symbol
_atom_site_label
_atom_site_fract_x
_atom_site_fract_y
_atom_site_fract_z
Si Si1 0.500000 0.289305 0.500000
Si Si2 0.316260 0.903032 0.383815
Si Si3 0.780204 0.005641 0.863839
O O1 0.383994 0.383994 0.454583
O O2 0.562801 0.196046 0.397140
O O3 0.185789 0.814212 0.394558
O O4 0.320793 0.000000 0.500000
O O5 0.309081 0.976408 0.253668
O O6 0.859423 0.140577 0.846881
O O7 0.892076 0.892076 0.866927
O O8 0.717480 0.000000 0.000000
#
# Coordination Sequence:
#
# PCOD9554660 Si02
#       3
#     4   8   8
#     4   9  19  34  48  64  91 129 170 208 240 269
#     4  10  18  28  47  74 100 125 156 196 239 285
#     4   8  14  25  42  69 106 136 150 172 227 300
#
# _framework density 17.662987999999999
#
# number of rings (size 3 to 8) (size 9 to 14) (size 15 to 20)
#    0.000    3.000    0.000    3.000    0.000    2.000 
#    0.000    0.000    0.000    4.800    0.000    8.400 
#    0.000   22.400    0.000    0.000    0.000    0.000 
#
# Total GULP energy -111404.714988 kJ/mol
# GULP energy per Si atom -5570.235749 kJ/mol
# Density = 1.762279 g / cm^3
# Si number density = 17.662988 Si / 1000 Ang^3
#
#
#
# Elastic Constant Matrix: (Units=GPa)
#
#
# Indices 1 2 3 4 5 6 
#
# 1 66.7135 35.1650 64.0247 0.0000 0.0000 0.0000
# 2 35.1650 66.7128 64.0245 0.0000 0.0000 0.0000
# 3 64.0247 64.0245 178.2276 0.0000 0.0000 0.0000
# 4 0.0000 0.0000 0.0000 6.0821 0.0000 0.0000
# 5 0.0000 0.0000 0.0000 0.0000 6.0821 0.0000
# 6 0.0000 0.0000 0.0000 0.0000 0.0000 9.6121
#
#
#
# Elastic Compliance Matrix: (Units=1/GPa)
#
#
# Indices 1 2 3 4 5 6 
#
# 1 0.024797 -0.006901 -0.006429 0.000000 0.000000 0.000000
# 2 -0.006901 0.024797 -0.006429 0.000000 0.000000 0.000000
# 3 -0.006429 -0.006429 0.010230 0.000000 0.000000 0.000000
# 4 0.000000 0.000000 0.000000 0.164417 0.000000 0.000000
# 5 0.000000 0.000000 0.000000 0.000000 0.164416 0.000000
# 6 0.000000 0.000000 0.000000 0.000000 0.000000 0.104036
#
#
# Mechanical properties :
#
#
# Convention : Reuss Voigt Hill
#
# Bulk Modulus (GPa) = 49.24568 70.89803 60.07186
# Shear Modulus (GPa) = 9.27682 14.25124 11.76403
#
# Velocity S-wave (km/s) = 2.29424 2.84358 2.58355
# Velocity P-wave (km/s) = 5.91264 7.14197 6.55618
#
# Compressibility (1/GPa) = 0.02030635
#
# Stress axis : x y z
#
# Youngs Moduli (GPa) = 40.32827 40.32776 97.75593
#
# Poissons Ratio (x) = 0.27830 0.62844
# Poissons Ratio (y) = 0.27830 0.62845
# Poissons Ratio (z) = 0.25926 0.25926
#
# Static dielectric constant tensor:
#      x y z
#    x 1.619780 0.000000 0.000000 
#    y 0.000000 1.619790 0.000000 
#    z 0.000000 0.000000 1.590730 
# 
# From -- ./inp_files/978.got.cif
#   From: 2010.05.17/outbox.cif.g08.bks.cpg/sg111_1_cif.got.tgz:978.got - 2010.05.20 10:56:05.
