data_PCOD9554896
_publ_section_title
;
Structure prediction by ZEFSAII (Michael W. Deem and Ramdas Pophale) SiO2 
 PCOD9554896
Probable space group: P -4 2 M 
;
_chemical_formula_sum "Si O2"
_cell_formula_units_Z 24
_cell_length_a 10.559272
_cell_length_b 10.559272
_cell_length_c 8.511456
_cell_angle_alpha 90.000000
_cell_angle_beta 90.000000
_cell_angle_gamma 90.000000
_cell_volume 949.012238
_symmetry_space_group_name_H-M "P -4 2 M "
_symmetry_group_IT_number 111
_symmetry_cell_setting 'tetragonal'
loop_
_space_group_symop_operation_xyz
x,y,z
y,-x,-z
-x,-y,z
-y,x,-z
x,-y,-z
-x,y,-z
-y,-x,z
y,x,z
loop_
_atom_site_type_symbol
_atom_site_label
_atom_site_fract_x
_atom_site_fract_y
_atom_site_fract_z
Si Si1 0.259947 0.059455 0.346070
Si Si2 0.126736 0.678033 0.094673
Si Si3 0.266467 0.531607 0.689345
O O1 0.132268 0.132268 0.385163
O O2 0.361277 0.161151 0.290703
O O3 0.319282 0.000000 0.500000
O O4 0.243276 0.947540 0.226249
O O5 0.224296 0.775705 0.012035
O O6 0.214205 0.576752 0.191275
O O7 0.000000 0.632635 0.000000
O O8 0.271423 0.500000 0.500000
O O9 0.400160 0.599841 0.728763
#
# Coordination Sequence:
#
# PCOD9554896 Si02
#       3
#     8   8   8
#     4  11  23  41  70 109 151 202 260 315 380 459
#     4  12  27  47  74 114 160 209 258 319 399 474
#     4  11  24  45  77 118 157 203 264 328 393 466
#
# _framework density 25.289453999999999
#
# number of rings (size 3 to 8) (size 9 to 14) (size 15 to 20)
#    0.000    0.667    3.333    4.000    0.000    9.000 
#    0.000    0.000    0.000    4.000    0.000   14.000 
#    0.000    0.000    0.000    0.000    0.000    0.000 
#
# Total GULP energy -133915.544532 kJ/mol
# GULP energy per Si atom -5579.814355 kJ/mol
# Density = 2.523189 g / cm^3
# Si number density = 25.289454 Si / 1000 Ang^3
#
#
#
# Elastic Constant Matrix: (Units=GPa)
#
#
# Indices 1 2 3 4 5 6 
#
# 1 100.2124 162.2983 45.6140 0.0000 0.0000 0.0000
# 2 162.2983 100.2145 45.6122 0.0000 0.0000 0.0000
# 3 45.6140 45.6122 92.3823 0.0000 0.0000 0.0000
# 4 0.0000 0.0000 0.0000 12.9146 0.0000 0.0000
# 5 0.0000 0.0000 0.0000 0.0000 12.9098 0.0000
# 6 0.0000 0.0000 0.0000 0.0000 0.0000 20.0296
#
#
#
# Elastic Compliance Matrix: (Units=1/GPa)
#
#
# Indices 1 2 3 4 5 6 
#
# 1 -0.005754 0.010353 -0.002270 0.000000 0.000000 0.000000
# 2 0.010353 -0.005754 -0.002271 0.000000 0.000000 0.000000
# 3 -0.002270 -0.002271 0.013067 0.000000 0.000000 0.000000
# 4 0.000000 0.000000 0.000000 0.077432 0.000000 0.000000
# 5 0.000000 0.000000 0.000000 0.000000 0.077461 0.000000
# 6 0.000000 0.000000 0.000000 0.000000 0.000000 0.049926
#
#
# Mechanical properties :
#
#
# Convention : Reuss Voigt Hill
#
# Bulk Modulus (GPa) = 75.86294 88.87313 82.36804
# Shear Modulus (GPa) = 25.10708 11.78977 18.44842
#
# Velocity S-wave (km/s) = 3.15427 2.16149 2.70384
# Velocity P-wave (km/s) = 6.58247 6.43802 6.51064
#
# Compressibility (1/GPa) = 0.01318167
#
# Stress axis : x y z
#
# Youngs Moduli (GPa) = -173.77782 -173.78637 76.53112
#
# Poissons Ratio (x) = 1.79915 0.17374
# Poissons Ratio (y) = 1.79907 0.17377
# Poissons Ratio (z) = -0.39451 -0.39460
#
# Static dielectric constant tensor:
#      x y z
#    x 1.947270 0.000000 0.000000 
#    y 0.000000 1.947270 0.000000 
#    z 0.000000 0.000000 2.114400 
# 
# From -- ./inp_files/1068.got.cif
#   From: 2010.05.17/outbox.cif.g08.bks.cpg/sg111_1_cif.got.tgz:1068.got - 2010.05.20 10:56:05.
