data_PCOD9554433
_publ_section_title
;
Structure prediction by ZEFSAII (Michael W. Deem and Ramdas Pophale) SiO2 
 PCOD9554433
Probable space group: I 41 C D
;
_chemical_formula_sum "Si O2"
_cell_formula_units_Z 112
_cell_length_a 14.999529
_cell_length_b 14.999529
_cell_length_c 22.421006
_cell_angle_alpha 90.000000
_cell_angle_beta 90.000000
_cell_angle_gamma 90.000000
_cell_volume 5044.409546
_symmetry_space_group_name_H-M "I 41 C D"
_symmetry_group_IT_number 110
_symmetry_cell_setting 'tetragonal'
loop_
_space_group_symop_operation_xyz
x,y,z
-y,1/2+x,1/4+z
-x,-y,z
y,1/2-x,1/4+z
-x,y,1/2+z
x,-y,1/2+z
1/2-y,-x,1/4+z
1/2+y,x,1/4+z
1/2+x,1/2+y,1/2+z
1/2-y,x,3/4+z
1/2-x,1/2-y,1/2+z
1/2+y,-x,3/4+z
1/2-x,1/2+y,z
1/2+x,1/2-y,z
-y,1/2-x,3/4+z
y,1/2+x,3/4+z
loop_
_atom_site_type_symbol
_atom_site_label
_atom_site_fract_x
_atom_site_fract_y
_atom_site_fract_z
Si Si1 0.440758 0.088647 0.259830
Si Si2 0.901560 0.545560 0.890998
Si Si3 0.305166 0.637180 0.736932
Si Si4 0.791347 0.518386 0.676481
Si Si5 0.717934 0.112798 0.352269
Si Si6 0.937951 0.733073 0.297202
Si Si7 0.204044 0.807272 0.717276
O O1 0.399237 0.096248 0.326734
O O2 0.379098 0.063547 0.204159
O O3 0.495603 0.179494 0.254559
O O4 0.500000 0.000000 0.265792
O O5 0.882740 0.608766 0.947172
O O6 0.823315 0.474127 0.882386
O O7 0.000000 0.500000 0.897262
O O8 0.228494 0.577399 0.704537
O O9 0.296778 0.602558 0.804900
O O10 0.282895 0.742914 0.740391
O O11 0.777296 0.519143 0.605649
O O12 0.720860 0.590395 0.702183
O O13 0.633114 0.157729 0.318712
O O14 0.740072 0.179211 0.405248
O O15 0.877573 0.802129 0.262237
#
# Coordination Sequence:
#
# PCOD9554433 Si02
#       7
#    16  16  16  16  16  16  16
#     4  11  19  36  67  93 124 178 222 261 338 406
#     4  11  19  36  67  93 124 178 222 261 338 406
#     4  11  22  40  66  93 127 169 223 274 324 411
#     4  11  22  40  66  93 127 169 223 274 324 411
#     4  10  20  41  63  90 127 167 215 277 333 405
#     4  10  20  41  63  90 127 167 215 277 333 405
#     4  10  24  42  64  94 132 164 214 282 342 392
#
# _framework density 22.202794999999998
#
# number of rings (size 3 to 8) (size 9 to 14) (size 15 to 20)
#    0.000    1.429    5.714    1.714    0.000    4.571 
#    5.143    0.000    0.000    0.000    0.000    0.000 
#    0.000    0.000    0.000    0.000    0.000    0.000 
#
# Total GULP energy -312438.077627 kJ/mol
# GULP energy per Si atom -5579.251386 kJ/mol
# Density = 2.215226 g / cm^3
# Si number density = 22.202795 Si / 1000 Ang^3
#
#
#
# Elastic Constant Matrix: (Units=GPa)
#
#
# Indices 1 2 3 4 5 6 
#
# 1 51.5714 1.6535 15.6550 0.0000 0.0000 0.0000
# 2 1.6535 51.5714 15.6550 0.0000 0.0000 0.0000
# 3 15.6550 15.6550 61.7541 0.0000 0.0000 0.0000
# 4 0.0000 0.0000 0.0000 27.9487 0.0000 0.0000
# 5 0.0000 0.0000 0.0000 0.0000 27.9487 0.0000
# 6 0.0000 0.0000 0.0000 0.0000 0.0000 10.8534
#
#
#
# Elastic Compliance Matrix: (Units=1/GPa)
#
#
# Indices 1 2 3 4 5 6 
#
# 1 0.021057 0.001024 -0.005598 0.000000 0.000000 0.000000
# 2 0.001024 0.021057 -0.005598 0.000000 0.000000 0.000000
# 3 -0.005598 -0.005598 0.019031 0.000000 0.000000 0.000000
# 4 0.000000 0.000000 0.000000 0.035780 0.000000 0.000000
# 5 0.000000 0.000000 0.000000 0.000000 0.035780 0.000000
# 6 0.000000 0.000000 0.000000 0.000000 0.000000 0.092137
#
#
# Mechanical properties :
#
#
# Convention : Reuss Voigt Hill
#
# Bulk Modulus (GPa) = 24.50813 25.64710 25.07761
# Shear Modulus (GPa) = 19.32104 22.14572 20.73338
#
# Velocity S-wave (km/s) = 2.95313 3.16164 3.05916
# Velocity P-wave (km/s) = 4.76343 4.99042 4.87824
#
# Compressibility (1/GPa) = 0.04080279
#
# Stress axis : x y z
#
# Youngs Moduli (GPa) = 47.49024 47.49024 52.54499
#
# Poissons Ratio (x) = -0.04863 0.29413
# Poissons Ratio (y) = -0.04863 0.29413
# Poissons Ratio (z) = 0.26583 0.26583
#
# Static dielectric constant tensor:
#      x y z
#    x 1.870340 0.000000 0.000000 
#    y 0.000000 1.870340 0.000000 
#    z 0.000000 0.000000 1.821460 
# 
# From -- ./inp_files/2648.got.cif
#   From: 2010.05.17/outbox.cif.g08.bks.cpg/sg110_2_cif.got.tgz:2648.got - 2010.05.20 10:54:03.
