data_PCOD9554994
_publ_section_title
;
Structure prediction by ZEFSAII (Michael W. Deem and Ramdas Pophale) SiO2 
 PCOD9554994
Probable space group: P -4 2 C
;
_chemical_formula_sum "Si O2"
_cell_formula_units_Z 36
_cell_length_a 20.143613
_cell_length_b 20.143613
_cell_length_c 5.239943
_cell_angle_alpha 90.000000
_cell_angle_beta 90.000000
_cell_angle_gamma 90.000000
_cell_volume 2126.186230
_symmetry_space_group_name_H-M "P -4 2 C"
_symmetry_group_IT_number 112
_symmetry_cell_setting 'tetragonal'
loop_
_space_group_symop_operation_xyz
x,y,z
y,-x,-z
-x,-y,z
-y,x,-z
x,-y,1/2-z
-x,y,1/2-z
-y,-x,1/2+z
y,x,1/2+z
loop_
_atom_site_type_symbol
_atom_site_label
_atom_site_fract_x
_atom_site_fract_y
_atom_site_fract_z
Si Si1 0.076205 0.422253 0.319021
Si Si2 0.651268 0.605791 0.446070
Si Si3 0.750450 0.721524 0.858096
Si Si4 0.845803 0.605018 0.839284
Si Si5 0.738577 0.500000 0.750000
O O1 0.083906 0.500000 0.250000
O O2 0.103608 0.412582 0.607675
O O3 0.000000 0.406004 0.250000
O O4 0.118950 0.384191 0.107960
O O5 0.596471 0.621368 0.664474
O O6 0.691647 0.675821 0.410517
O O7 0.695609 0.546665 0.561576
O O8 0.744721 0.773694 0.633804
O O9 0.801991 0.667354 0.760855
O O10 0.789616 0.549043 0.890245
#
# Coordination Sequence:
#
# PCOD9554994 Si02
#       5
#     8   8   8   8   4
#     4  11  23  36  48  71 102 125 157 200 238 298
#     4  10  22  35  48  70  97 114 149 212 248 299
#     4  10  19  34  49  74  99 113 153 212 249 288
#     4  12  22  33  56  74  92 131 164 191 258 316
#     4  12  22  34  57  75  92 124 166 190 266 336
#
# _framework density 16.931723000000002
#
# number of rings (size 3 to 8) (size 9 to 14) (size 15 to 20)
#    0.000    1.111    6.667    2.000    3.111    4.444 
#    0.000    0.000    0.000    2.000    0.000    0.000 
#    0.000    0.000    0.000    0.000    0.000    0.000 
#
# Total GULP energy -200465.631376 kJ/mol
# GULP energy per Si atom -5568.489760 kJ/mol
# Density = 1.689319 g / cm^3
# Si number density = 16.931723 Si / 1000 Ang^3
#
#
#
# Elastic Constant Matrix: (Units=GPa)
#
#
# Indices 1 2 3 4 5 6 
#
# 1 42.1846 22.1704 4.4257 0.0000 0.0000 0.0000
# 2 22.1704 42.1846 4.4257 0.0000 0.0000 0.0000
# 3 4.4257 4.4257 98.3536 0.0000 0.0000 0.0000
# 4 0.0000 0.0000 0.0000 12.8926 0.0000 0.0000
# 5 0.0000 0.0000 0.0000 0.0000 12.8926 0.0000
# 6 0.0000 0.0000 0.0000 0.0000 0.0000 17.7615
#
#
#
# Elastic Compliance Matrix: (Units=1/GPa)
#
#
# Indices 1 2 3 4 5 6 
#
# 1 0.032800 -0.017164 -0.000704 0.000000 0.000000 0.000000
# 2 -0.017164 0.032800 -0.000704 0.000000 0.000000 0.000000
# 3 -0.000704 -0.000704 0.010231 0.000000 0.000000 0.000000
# 4 0.000000 0.000000 0.000000 0.077564 0.000000 0.000000
# 5 0.000000 0.000000 0.000000 0.000000 0.077564 0.000000
# 6 0.000000 0.000000 0.000000 0.000000 0.000000 0.056301
#
#
# Mechanical properties :
#
#
# Convention : Reuss Voigt Hill
#
# Bulk Modulus (GPa) = 25.84806 27.19626 26.52216
# Shear Modulus (GPa) = 14.82365 18.82275 16.82320
#
# Velocity S-wave (km/s) = 2.96209 3.33781 3.15555
# Velocity P-wave (km/s) = 5.19594 5.56344 5.38283
#
# Compressibility (1/GPa) = 0.03868762
#
# Stress axis : x y z
#
# Youngs Moduli (GPa) = 30.48773 30.48773 97.74486
#
# Poissons Ratio (x) = 0.52331 0.06877
# Poissons Ratio (y) = 0.52331 0.06877
# Poissons Ratio (z) = 0.02145 0.02145
#
# Static dielectric constant tensor:
#      x y z
#    x 1.616040 0.000000 0.000000 
#    y 0.000000 1.616040 0.000000 
#    z 0.000000 0.000000 0.879520 
# 
# From -- ./inp_files/270.got.cif
#   From: 2010.05.17/outbox.cif.g08.bks.cpg/sg112_1_cif.got.tgz:270.got - 2010.05.20 10:59:04.
