data_PCOD9554070
_publ_section_title
;
Structure prediction by ZEFSAII (Michael W. Deem and Ramdas Pophale) SiO2 
 PCOD9554070
Probable space group: I 41 M D
;
_chemical_formula_sum "Si O2"
_cell_formula_units_Z 128
_cell_length_a 21.845024
_cell_length_b 21.845024
_cell_length_c 16.930486
_cell_angle_alpha 90.000000
_cell_angle_beta 90.000000
_cell_angle_gamma 90.000000
_cell_volume 8079.313817
_symmetry_space_group_name_H-M "I 41 M D"
_symmetry_group_IT_number 109
_symmetry_cell_setting 'tetragonal'
loop_
_space_group_symop_operation_xyz
x,y,z
-y,1/2+x,1/4+z
-x,-y,z
y,1/2-x,1/4+z
-x,y,z
x,-y,z
-y,1/2-x,1/4+z
y,1/2+x,1/4+z
1/2+x,1/2+y,1/2+z
1/2-y,x,3/4+z
1/2-x,1/2-y,1/2+z
1/2+y,-x,3/4+z
1/2-x,1/2+y,1/2+z
1/2+x,1/2-y,1/2+z
1/2-y,-x,3/4+z
1/2+y,x,3/4+z
loop_
_atom_site_type_symbol
_atom_site_label
_atom_site_fract_x
_atom_site_fract_y
_atom_site_fract_z
Si Si1 0.286901 0.566386 0.223900
Si Si2 0.297308 0.181118 0.485547
Si Si3 0.816941 0.432392 0.094841
Si Si4 0.762688 0.066807 0.910619
Si Si5 0.401641 0.571062 0.450144
Si Si6 0.168641 0.163377 0.193091
Si Si7 0.930612 0.926583 0.129134
Si Si8 0.718581 0.271220 0.841492
O O1 0.317090 0.500000 0.205317
O O2 0.317993 0.631542 0.209874
O O3 0.225457 0.568812 0.172576
O O4 0.273876 0.565866 0.316937
O O5 0.292601 0.119088 0.535756
O O6 0.256174 0.193214 0.409004
O O7 0.275175 0.236136 0.543784
O O8 0.813384 0.500000 0.059287
O O9 0.884884 0.421134 0.129005
O O10 0.828095 0.074145 0.952001
O O11 0.719957 0.123154 0.927605
O O12 0.737188 0.000000 0.933237
O O13 0.419072 0.500000 0.436823
O O14 0.425875 0.590780 0.535991
O O15 0.124730 0.105895 0.175491
O O16 0.226732 0.169331 0.134169
O O17 0.192633 0.178667 0.280688
O O18 0.000000 0.911129 0.155883
O O19 0.923963 0.000000 0.132694
#
# Coordination Sequence:
#
# PCOD9554070 Si02
#       8
#    16  16  16  16  16  16  16  16
#     4  10  19  30  46  70  99 134 169 198 234 286
#     4  11  19  36  49  71 101 132 166 207 246 302
#     4  11  21  31  49  71  97 134 170 203 243 289
#     4  10  18  27  47  74 105 140 166 194 230 282
#     4  10  19  30  44  71 108 139 166 193 231 287
#     4  11  19  33  49  73  98 125 170 206 246 295
#     4  10  21  35  50  69 100 138 166 197 243 297
#     4  10  22  31  52  72  96 131 163 207 258 288
#
# _framework density 15.842930000000001
#
# number of rings (size 3 to 8) (size 9 to 14) (size 15 to 20)
#    0.000    1.625    3.750    2.250    1.750    1.750 
#    0.000    1.250    0.000    0.000    0.000    0.000 
#    0.000    0.000    0.000    0.000    0.000    0.000 
#
# Total GULP energy -356569.937121 kJ/mol
# GULP energy per Si atom -5571.405268 kJ/mol
# Density = 1.580687 g / cm^3
# Si number density = 15.842930 Si / 1000 Ang^3
#
#
#
# Elastic Constant Matrix: (Units=GPa)
#
#
# Indices 1 2 3 4 5 6 
#
# 1 63.0092 31.7551 31.2073 0.0000 0.0000 0.0000
# 2 31.7551 63.0092 31.2073 0.0000 0.0000 0.0000
# 3 31.2073 31.2073 60.2619 0.0000 0.0000 0.0000
# 4 0.0000 0.0000 0.0000 19.1288 0.0000 0.0000
# 5 0.0000 0.0000 0.0000 0.0000 19.1288 0.0000
# 6 0.0000 0.0000 0.0000 0.0000 0.0000 4.5548
#
#
#
# Elastic Compliance Matrix: (Units=1/GPa)
#
#
# Indices 1 2 3 4 5 6 
#
# 1 0.024005 -0.007991 -0.008293 0.000000 0.000000 0.000000
# 2 -0.007991 0.024005 -0.008293 0.000000 0.000000 0.000000
# 3 -0.008293 -0.008293 0.025184 0.000000 0.000000 0.000000
# 4 0.000000 0.000000 0.000000 0.052277 0.000000 0.000000
# 5 0.000000 0.000000 0.000000 0.000000 0.052277 0.000000
# 6 0.000000 0.000000 0.000000 0.000000 0.000000 0.219549
#
#
# Mechanical properties :
#
#
# Convention : Reuss Voigt Hill
#
# Bulk Modulus (GPa) = 41.59774 41.62441 41.61107
# Shear Modulus (GPa) = 11.00191 14.70316 12.85254
#
# Velocity S-wave (km/s) = 2.63808 3.04971 2.85133
# Velocity P-wave (km/s) = 5.96595 6.22344 6.09606
#
# Compressibility (1/GPa) = 0.02403977
#
# Stress axis : x y z
#
# Youngs Moduli (GPa) = 41.65741 41.65741 39.70781
#
# Poissons Ratio (x) = 0.33286 0.32932
# Poissons Ratio (y) = 0.33286 0.32932
# Poissons Ratio (z) = 0.34548 0.34548
#
# Static dielectric constant tensor:
#      x y z
#    x 1.570570 0.000000 0.000000 
#    y 0.000000 1.570570 0.000000 
#    z 0.000000 0.000000 1.517310 
# 
# From -- ./inp_files/3316.got.cif
#   From: 2010.05.17/outbox.cif.g08.bks.cpg/sg109_2_cif.got.tgz:3316.got - 2010.05.20 10:51:12.
