data_PCOD9554814
_publ_section_title
;
Structure prediction by ZEFSAII (Michael W. Deem and Ramdas Pophale) SiO2 
 PCOD9554814
Probable space group: P -4 2 M 
;
_chemical_formula_sum "Si O2"
_cell_formula_units_Z 24
_cell_length_a 9.398343
_cell_length_b 9.398343
_cell_length_c 14.272946
_cell_angle_alpha 90.000000
_cell_angle_beta 90.000000
_cell_angle_gamma 90.000000
_cell_volume 1260.712923
_symmetry_space_group_name_H-M "P -4 2 M "
_symmetry_group_IT_number 111
_symmetry_cell_setting 'tetragonal'
loop_
_space_group_symop_operation_xyz
x,y,z
y,-x,-z
-x,-y,z
-y,x,-z
x,-y,-z
-x,y,-z
-y,-x,z
y,x,z
loop_
_atom_site_type_symbol
_atom_site_label
_atom_site_fract_x
_atom_site_fract_y
_atom_site_fract_z
Si Si1 0.762093 0.006510 0.101343
Si Si2 0.079204 0.689531 0.696765
Si Si3 0.193270 0.571532 0.398055
O O1 0.886060 0.886060 0.094767
O O2 0.680095 0.972784 0.196206
O O3 0.843981 0.156020 0.113097
O O4 0.687689 0.000000 0.000000
O O5 0.162780 0.837221 0.683309
O O6 0.184609 0.560101 0.673307
O O7 0.944204 0.667049 0.628830
O O8 0.181460 0.500000 0.500000
O O9 0.332443 0.667558 0.392736
#
# Coordination Sequence:
#
# PCOD9554814 Si02
#       3
#     8   8   8
#     4   8  14  27  51  84 118 147 175 215 272 329
#     4  10  20  36  60  87 111 140 185 232 269 317
#     4  11  24  40  56  78 111 148 185 227 281 337
#
# _framework density 19.036846000000001
#
# number of rings (size 3 to 8) (size 9 to 14) (size 15 to 20)
#    0.000    2.333    0.000    5.000    0.000    4.333 
#    0.000    5.000    0.000   12.000    0.000    2.333 
#    0.000   29.333    0.000    0.000    0.000    0.000 
#
# Total GULP energy -133818.375361 kJ/mol
# GULP energy per Si atom -5575.765640 kJ/mol
# Density = 1.899352 g / cm^3
# Si number density = 19.036846 Si / 1000 Ang^3
#
#
#
# Elastic Constant Matrix: (Units=GPa)
#
#
# Indices 1 2 3 4 5 6 
#
# 1 61.0336 29.1004 68.5609 0.0000 0.0000 0.0000
# 2 29.1004 61.0339 68.5603 0.0000 0.0000 0.0000
# 3 68.5609 68.5603 184.4599 0.0000 0.0000 0.0000
# 4 0.0000 0.0000 0.0000 23.4267 0.0000 0.0000
# 5 0.0000 0.0000 0.0000 0.0000 23.4269 0.0000
# 6 0.0000 0.0000 0.0000 0.0000 0.0000 48.9703
#
#
#
# Elastic Compliance Matrix: (Units=1/GPa)
#
#
# Indices 1 2 3 4 5 6 
#
# 1 0.028423 -0.002892 -0.009489 0.000000 0.000000 0.000000
# 2 -0.002892 0.028423 -0.009489 0.000000 0.000000 0.000000
# 3 -0.009489 -0.009489 0.012475 0.000000 0.000000 0.000000
# 4 0.000000 0.000000 0.000000 0.042686 0.000000 0.000000
# 5 0.000000 0.000000 0.000000 0.000000 0.042686 0.000000
# 6 0.000000 0.000000 0.000000 0.000000 0.000000 0.020421
#
#
# Mechanical properties :
#
#
# Convention : Reuss Voigt Hill
#
# Bulk Modulus (GPa) = 39.09405 70.99674 55.04539
# Shear Modulus (GPa) = 21.98941 28.51851 25.25396
#
# Velocity S-wave (km/s) = 3.40236 3.87469 3.64618
# Velocity P-wave (km/s) = 6.00128 7.57581 6.83404
#
# Compressibility (1/GPa) = 0.02557934
#
# Stress axis : x y z
#
# Youngs Moduli (GPa) = 35.18250 35.18316 80.15864
#
# Poissons Ratio (x) = 0.10176 0.76066
# Poissons Ratio (y) = 0.10176 0.76064
# Poissons Ratio (z) = 0.33386 0.33386
#
# Static dielectric constant tensor:
#      x y z
#    x 1.682760 0.000000 0.000000 
#    y 0.000000 1.682760 0.000000 
#    z 0.000000 0.000000 1.692420 
# 
# From -- ./inp_files/3018.got.cif
#   From: 2010.05.17/outbox.cif.g08.bks.cpg/sg111_2_cif.got.tgz:3018.got - 2010.05.20 10:56:05.
