data_PCOD9554602
_publ_section_title
;
Structure prediction by ZEFSAII (Michael W. Deem and Ramdas Pophale) SiO2 
 PCOD9554602
Probable space group: I 41 C D
;
_chemical_formula_sum "Si O2"
_cell_formula_units_Z 120
_cell_length_a 17.009258
_cell_length_b 17.009258
_cell_length_c 17.633746
_cell_angle_alpha 90.000000
_cell_angle_beta 90.000000
_cell_angle_gamma 90.000000
_cell_volume 5101.704715
_symmetry_space_group_name_H-M "I 41 C D"
_symmetry_group_IT_number 110
_symmetry_cell_setting 'tetragonal'
loop_
_space_group_symop_operation_xyz
x,y,z
-y,1/2+x,1/4+z
-x,-y,z
y,1/2-x,1/4+z
-x,y,1/2+z
x,-y,1/2+z
1/2-y,-x,1/4+z
1/2+y,x,1/4+z
1/2+x,1/2+y,1/2+z
1/2-y,x,3/4+z
1/2-x,1/2-y,1/2+z
1/2+y,-x,3/4+z
1/2-x,1/2+y,z
1/2+x,1/2-y,z
-y,1/2-x,3/4+z
y,1/2+x,3/4+z
loop_
_atom_site_type_symbol
_atom_site_label
_atom_site_fract_x
_atom_site_fract_y
_atom_site_fract_z
Si Si1 0.763213 0.100497 0.764850
Si Si2 0.487457 0.390829 0.356847
Si Si3 0.885894 0.656569 0.670711
Si Si4 0.982013 0.274741 0.775364
Si Si5 0.884384 0.903559 0.134232
Si Si6 0.500000 0.000000 0.481431
Si Si7 0.349477 0.162504 0.676566
Si Si8 0.749673 0.588841 0.285698
O O1 0.792966 0.135255 0.845198
O O2 0.681060 0.132408 0.731454
O O3 0.822311 0.122545 0.697408
O O4 0.766568 0.004021 0.771988
O O5 0.572660 0.415975 0.387765
O O6 0.502418 0.305361 0.319871
O O7 0.453652 0.445411 0.290292
O O8 0.424394 0.388203 0.423210
O O9 0.952253 0.704964 0.714424
O O10 0.972761 0.343571 0.836577
O O11 0.898920 0.280291 0.731020
O O12 0.908490 0.832551 0.080787
O O13 0.955139 0.939622 0.179975
O O14 0.362605 0.193314 0.591953
O O15 0.264506 0.140964 0.710128
#
# Coordination Sequence:
#
# PCOD9554602 Si02
#       8
#    16  16  16  16  16   8  16  16
#     4  12  25  50  73 111 152 200 255 321 378 466
#     4  12  24  46  70 107 144 192 249 316 372 454
#     4  12  26  46  79 102 155 197 253 318 392 445
#     4  11  25  45  70 108 146 193 254 315 373 460
#     4  11  25  43  72 105 154 192 250 315 383 450
#     4  12  24  36  74 106 138 196 250 308 388 446
#     4  11  23  45  75 100 152 194 242 315 378 439
#     4  11  24  45  73 107 148 198 251 313 379 456
#
# _framework density 23.521549
#
# number of rings (size 3 to 8) (size 9 to 14) (size 15 to 20)
#    0.000    0.533    5.333    2.400    1.867    0.000 
#    4.800    0.000    0.000    0.000    0.000    0.000 
#    0.000    0.000    0.000    0.000    0.000    0.000 
#
# Total GULP energy -335407.024740 kJ/mol
# GULP energy per Si atom -5590.117079 kJ/mol
# Density = 2.346801 g / cm^3
# Si number density = 23.521549 Si / 1000 Ang^3
#
#
#
# Elastic Constant Matrix: (Units=GPa)
#
#
# Indices 1 2 3 4 5 6 
#
# 1 53.1757 21.5334 23.5620 0.0000 0.0000 0.0000
# 2 21.5334 53.1757 23.5620 0.0000 0.0000 0.0000
# 3 23.5620 23.5620 118.0710 0.0000 0.0000 0.0000
# 4 0.0000 0.0000 0.0000 56.4449 0.0000 0.0000
# 5 0.0000 0.0000 0.0000 0.0000 56.4449 0.0000
# 6 0.0000 0.0000 0.0000 0.0000 0.0000 19.6856
#
#
#
# Elastic Compliance Matrix: (Units=1/GPa)
#
#
# Indices 1 2 3 4 5 6 
#
# 1 0.023458 -0.008145 -0.003056 0.000000 0.000000 0.000000
# 2 -0.008145 0.023458 -0.003056 0.000000 0.000000 0.000000
# 3 -0.003056 -0.003056 0.009689 0.000000 0.000000 0.000000
# 4 0.000000 0.000000 0.000000 0.017716 0.000000 0.000000
# 5 0.000000 0.000000 0.000000 0.000000 0.017716 0.000000
# 6 0.000000 0.000000 0.000000 0.000000 0.000000 0.050799
#
#
# Mechanical properties :
#
#
# Convention : Reuss Voigt Hill
#
# Bulk Modulus (GPa) = 35.59803 40.19303 37.89553
# Shear Modulus (GPa) = 27.66804 36.89942 32.28373
#
# Velocity S-wave (km/s) = 3.43342 3.96504 3.70877
# Velocity P-wave (km/s) = 5.55742 6.17146 5.87247
#
# Compressibility (1/GPa) = 0.02809144
#
# Stress axis : x y z
#
# Youngs Moduli (GPa) = 42.62938 42.62937 103.20890
#
# Poissons Ratio (x) = 0.34723 0.31538
# Poissons Ratio (y) = 0.34723 0.31538
# Poissons Ratio (z) = 0.13027 0.13027
#
# Static dielectric constant tensor:
#      x y z
#    x 1.887860 0.000000 0.000000 
#    y 0.000000 1.887860 0.000000 
#    z 0.000000 0.000000 1.916040 
# 
# From -- ./inp_files/1776.got.cif
#   From: 2010.05.17/outbox.cif.g08.bks.cpg/sg110_1_cif.got.tgz:1776.got - 2010.05.20 10:54:03.
