data_PCOD9554643
_publ_section_title
;
Structure prediction by ZEFSAII (Michael W. Deem and Ramdas Pophale) SiO2 
 PCOD9554643
Probable space group: I 41 C D
;
_chemical_formula_sum "Si O2"
_cell_formula_units_Z 56
_cell_length_a 30.000000
_cell_length_b 30.000000
_cell_length_c 6.000000
_cell_angle_alpha 90.000000
_cell_angle_beta 90.000000
_cell_angle_gamma 90.000000
_cell_volume 5400.000000
_symmetry_space_group_name_H-M "I 41 C D"
_symmetry_group_IT_number 110
_symmetry_cell_setting 'tetragonal'
loop_
_space_group_symop_operation_xyz
x,y,z
-y,1/2+x,1/4+z
-x,-y,z
y,1/2-x,1/4+z
-x,y,1/2+z
x,-y,1/2+z
1/2-y,-x,1/4+z
1/2+y,x,1/4+z
1/2+x,1/2+y,1/2+z
1/2-y,x,3/4+z
1/2-x,1/2-y,1/2+z
1/2+y,-x,3/4+z
1/2-x,1/2+y,z
1/2+x,1/2-y,z
-y,1/2-x,3/4+z
y,1/2+x,3/4+z
loop_
_atom_site_type_symbol
_atom_site_label
_atom_site_fract_x
_atom_site_fract_y
_atom_site_fract_z
Si Si1 0.200476 0.020831 0.524480
Si Si2 0.767135 0.808708 0.381318
Si Si3 0.664683 0.906035 0.022329
Si Si4 0.349737 0.308095 0.385031
Si Si5 0.120923 0.332221 0.785524
Si Si6 0.295221 0.945668 0.904389
Si Si7 0.007421 0.116990 0.149633
O O1 0.178090 0.069400 0.541877
O O2 0.253714 0.028691 0.506026
O O3 0.189887 0.001878 0.269647
O O4 0.798059 0.766393 0.432060
O O5 0.732332 0.816945 0.585071
O O6 0.795858 0.853631 0.381869
O O7 0.631760 0.881468 0.194459
O O8 0.704740 0.931975 0.144080
O O9 0.636164 0.942330 0.890082
O O10 0.684047 0.865890 0.881044
O O11 0.330314 0.352530 0.269905
O O12 0.397352 0.297602 0.268951
O O13 0.340223 0.974608 0.918767
O O14 0.002633 0.095646 0.402615
#
# Coordination Sequence:
#
# PCOD9554643 Si02
#       7
#    16  16  16  16  16  16  16
#     4  12  27  43  65  93 128 171 219 274 328 398
#     4  10  22  38  53  80 115 164 231 278 314 361
#     4  10  21  35  62  84 121 168 196 265 321 383
#     4  10  20  39  59  83 121 166 213 271 318 373
#     4  10  24  42  58  86 125 167 225 267 322 383
#     4  10  20  36  57  93 121 155 203 258 333 382
#     4  10  18  31  54  87 121 147 187 241 314 384
#
# _framework density 10.370369999999999
#
# number of rings (size 3 to 8) (size 9 to 14) (size 15 to 20)
#    0.000    1.714    2.857    1.714    6.000    0.000 
#    2.571    0.000    0.000    0.000    0.000    0.000 
#    0.000   30.857    0.000    0.000    0.000    0.000 
#
# Total GULP energy -311858.277242 kJ/mol
# GULP energy per Si atom -5568.897808 kJ/mol
# Density = 1.034677 g / cm^3
# Si number density = 10.370370 Si / 1000 Ang^3
#
#
#
# Elastic Constant Matrix: (Units=GPa)
#
#
# Indices 1 2 3 4 5 6 
#
# 1 83.8260 26.1785 27.6149 0.0000 0.0000 0.0000
# 2 26.1785 83.8260 27.6149 0.0000 0.0000 0.0000
# 3 27.6149 27.6149 112.5357 0.0000 0.0000 0.0000
# 4 0.0000 0.0000 0.0000 22.8970 0.0000 0.0000
# 5 0.0000 0.0000 0.0000 0.0000 22.8970 0.0000
# 6 0.0000 0.0000 0.0000 0.0000 0.0000 14.8340
#
#
#
# Elastic Compliance Matrix: (Units=1/GPa)
#
#
# Indices 1 2 3 4 5 6 
#
# 1 0.013857 -0.003489 -0.002544 0.000000 0.000000 0.000000
# 2 -0.003489 0.013857 -0.002544 0.000000 0.000000 0.000000
# 3 -0.002544 -0.002544 0.010135 0.000000 0.000000 0.000000
# 4 0.000000 0.000000 0.000000 0.043674 0.000000 0.000000
# 5 0.000000 0.000000 0.000000 0.000000 0.043674 0.000000
# 6 0.000000 0.000000 0.000000 0.000000 0.000000 0.067413
#
#
# Mechanical properties :
#
#
# Convention : Reuss Voigt Hill
#
# Bulk Modulus (GPa) = 48.32361 49.22270 48.77315
# Shear Modulus (GPa) = 23.07732 25.37758 24.22745
#
# Velocity S-wave (km/s) = 3.33927 3.50174 3.42147
# Velocity P-wave (km/s) = 6.18200 6.33510 6.25902
#
# Compressibility (1/GPa) = 0.02069382
#
# Stress axis : x y z
#
# Youngs Moduli (GPa) = 72.16391 72.16391 98.67120
#
# Poissons Ratio (x) = 0.25181 0.25103
# Poissons Ratio (y) = 0.25181 0.25103
# Poissons Ratio (z) = 0.18360 0.18360
#
# Static dielectric constant tensor:
#      x y z
#    x 1.733040 0.000000 0.000000 
#    y 0.000000 1.733040 0.000000 
#    z 0.000000 0.000000 1.946340 
# 
# From -- ./inp_files/157.got.cif
#   From: 2010.05.17/outbox.ucp.g08.bks.cvg/sg110_1_cif.got.tgz:157.got - 2010.06.11 11:32:47.
