data_PCOD9554826
_publ_section_title
;
Structure prediction by ZEFSAII (Michael W. Deem and Ramdas Pophale) SiO2 
 PCOD9554826
Probable space group: P -4 2 M 
;
_chemical_formula_sum "Si O2"
_cell_formula_units_Z 53
_cell_length_a 15.044851
_cell_length_b 15.044851
_cell_length_c 11.752416
_cell_angle_alpha 90.000000
_cell_angle_beta 90.000000
_cell_angle_gamma 90.000000
_cell_volume 2660.130470
_symmetry_space_group_name_H-M "P -4 2 M "
_symmetry_group_IT_number 111
_symmetry_cell_setting 'tetragonal'
loop_
_space_group_symop_operation_xyz
x,y,z
y,-x,-z
-x,-y,z
-y,x,-z
x,-y,-z
-x,y,-z
-y,-x,z
y,x,z
loop_
_atom_site_type_symbol
_atom_site_label
_atom_site_fract_x
_atom_site_fract_y
_atom_site_fract_z
Si Si1 0.814353 0.675026 0.842656
Si Si2 0.524844 0.667322 0.864980
Si Si3 0.899213 0.400160 0.957657
Si Si4 0.072001 0.072001 0.773759
Si Si5 0.632987 0.226877 0.759584
Si Si6 0.862327 0.279556 0.569879
Si Si7 0.000000 0.000000 0.000000
Si Si8 0.730606 0.055027 0.325627
O O1 0.765958 0.765958 0.809985
O O2 0.741984 0.598062 0.835588
O O3 0.901730 0.665209 0.766728
O O4 0.843989 0.672303 0.972363
O O5 0.573504 0.573504 0.841723
O O6 0.440785 0.700401 0.793132
O O7 0.500000 0.668188 0.000000
O O8 0.862339 0.389513 0.830807
O O9 0.875322 0.500000 0.000000
O O10 0.000000 0.388843 0.000000
O O11 0.058561 0.058561 0.910734
O O12 0.051766 0.170940 0.729379
O O13 0.000000 0.000000 0.726646
O O14 0.726244 0.273757 0.793348
O O15 0.645813 0.200240 0.627527
O O16 0.813952 0.186049 0.595176
O O17 0.881549 0.278702 0.435890
O O18 0.956632 0.288262 0.631269
#
# Coordination Sequence:
#
# PCOD9554826 Si02
#       8
#     8   8   8   4   8   8   1   8
#     4  11  20  36  58  83 118 160 208 264 329 411
#     4  11  22  38  63  94 129 166 213 268 341 432
#     4  11  21  35  55  84 122 163 207 253 330 414
#     4  10  20  42  59  88 133 170 227 284 334 394
#     4  11  21  39  59  89 131 162 206 284 335 397
#     4  10  22  39  60  90 122 167 232 280 326 383
#     4   8  24  40  52  90 132 168 204 304 346 384
#     4  11  21  40  62  88 122 177 229 275 329 395
#
# _framework density 19.923835
#
# number of rings (size 3 to 8) (size 9 to 14) (size 15 to 20)
#    0.226    1.057    4.528    2.264    0.000    1.057 
#    4.075    0.755    0.000    1.811    0.000    1.057 
#    0.000    9.660    0.000    0.000    0.000    0.000 
#
# Total GULP energy -295156.305358 kJ/mol
# GULP energy per Si atom -5568.986894 kJ/mol
# Density = 1.987849 g / cm^3
# Si number density = 19.923835 Si / 1000 Ang^3
#
#
#
# Elastic Constant Matrix: (Units=GPa)
#
#
# Indices 1 2 3 4 5 6 
#
# 1 69.1580 28.1958 35.1774 0.0000 0.0000 0.0000
# 2 28.1958 69.1596 35.1777 0.0000 0.0000 0.0000
# 3 35.1774 35.1777 112.1068 0.0000 0.0000 0.0000
# 4 0.0000 0.0000 0.0000 27.7853 0.0000 0.0000
# 5 0.0000 0.0000 0.0000 0.0000 27.7849 0.0000
# 6 0.0000 0.0000 0.0000 0.0000 0.0000 28.3659
#
#
#
# Elastic Compliance Matrix: (Units=1/GPa)
#
#
# Indices 1 2 3 4 5 6 
#
# 1 0.018848 -0.005564 -0.004168 0.000000 0.000000 0.000000
# 2 -0.005564 0.018848 -0.004168 0.000000 0.000000 0.000000
# 3 -0.004168 -0.004168 0.011536 0.000000 0.000000 0.000000
# 4 0.000000 0.000000 0.000000 0.035990 0.000000 0.000000
# 5 0.000000 0.000000 0.000000 0.000000 0.035991 0.000000
# 6 0.000000 0.000000 0.000000 0.000000 0.000000 0.035254
#
#
# Mechanical properties :
#
#
# Convention : Reuss Voigt Hill
#
# Bulk Modulus (GPa) = 46.66199 49.72515 48.19357
# Shear Modulus (GPa) = 26.12164 26.91212 26.51688
#
# Velocity S-wave (km/s) = 3.62480 3.67924 3.65212
# Velocity P-wave (km/s) = 6.40234 6.56208 6.48270
#
# Compressibility (1/GPa) = 0.02143072
#
# Stress axis : x y z
#
# Youngs Moduli (GPa) = 53.05482 53.05611 86.68503
#
# Poissons Ratio (x) = 0.29521 0.36134
# Poissons Ratio (y) = 0.29520 0.36133
# Poissons Ratio (z) = 0.22115 0.22115
#
# Static dielectric constant tensor:
#      x y z
#    x 1.737330 0.000000 0.000000 
#    y 0.000000 1.737330 0.000000 
#    z 0.000000 0.000000 1.710720 
# 
# From -- ./inp_files/2844.got.cif
#   From: 2010.05.17/outbox.cif.g08.bks.cpg/sg111_2_cif.got.tgz:2844.got - 2010.05.20 10:56:05.
