data_PCOD9554856
_publ_section_title
;
Structure prediction by ZEFSAII (Michael W. Deem and Ramdas Pophale) SiO2 
 PCOD9554856
Probable space group: P -4 2 M 
;
_chemical_formula_sum "Si O2"
_cell_formula_units_Z 34
_cell_length_a 11.832824
_cell_length_b 11.832824
_cell_length_c 12.437471
_cell_angle_alpha 90.000000
_cell_angle_beta 90.000000
_cell_angle_gamma 90.000000
_cell_volume 1741.441504
_symmetry_space_group_name_H-M "P -4 2 M "
_symmetry_group_IT_number 111
_symmetry_cell_setting 'tetragonal'
loop_
_space_group_symop_operation_xyz
x,y,z
y,-x,-z
-x,-y,z
-y,x,-z
x,-y,-z
-x,y,-z
-y,-x,z
y,x,z
loop_
_atom_site_type_symbol
_atom_site_label
_atom_site_fract_x
_atom_site_fract_y
_atom_site_fract_z
Si Si1 0.902239 0.724217 0.357980
Si Si2 0.684843 0.506037 0.293146
Si Si3 0.660002 0.155614 0.405344
Si Si4 0.000000 0.500000 0.000000
Si Si5 0.632151 0.810536 0.131375
O O1 0.852568 0.852568 0.367244
O O2 0.857100 0.663728 0.465947
O O3 0.856005 0.677625 0.246032
O O4 0.034733 0.697803 0.360030
O O5 0.589263 0.410738 0.294314
O O6 0.620179 0.620179 0.333774
O O7 0.789649 0.454217 0.359341
O O8 0.727083 0.533234 0.172791
O O9 0.756907 0.243094 0.374497
O O10 0.914575 0.419336 0.933524
O O11 0.733127 0.733127 0.082621
#
# Coordination Sequence:
#
# PCOD9554856 Si02
#       5
#     8   8   8   2   8
#     4   9  18  33  52  78 113 147 180 221 267 320
#     4   9  18  34  56  83 115 148 181 221 272 334
#     4   9  17  30  52  82 115 150 182 211 256 328
#     4  12  24  40  64  82 100 144 192 240 296 334
#     4  10  22  39  57  79 107 139 182 234 284 333
#
# _framework density 19.524055000000001
#
# number of rings (size 3 to 8) (size 9 to 14) (size 15 to 20)
#    0.000    2.588    0.000    1.412    0.000    2.353 
#    0.000    9.412    0.000   11.647    0.000    0.000 
#    0.000    0.000    0.000    0.706    0.000    0.000 
#
# Total GULP energy -189367.748159 kJ/mol
# GULP energy per Si atom -5569.639652 kJ/mol
# Density = 1.947962 g / cm^3
# Si number density = 19.524055 Si / 1000 Ang^3
#
#
#
# Elastic Constant Matrix: (Units=GPa)
#
#
# Indices 1 2 3 4 5 6 
#
# 1 146.3498 76.4540 41.5339 0.0000 0.0000 0.0000
# 2 76.4540 146.3491 41.5335 0.0000 0.0000 0.0000
# 3 41.5339 41.5335 53.9132 0.0000 0.0000 0.0000
# 4 0.0000 0.0000 0.0000 25.4587 0.0000 0.0000
# 5 0.0000 0.0000 0.0000 0.0000 25.4586 0.0000
# 6 0.0000 0.0000 0.0000 0.0000 0.0000 27.2673
#
#
#
# Elastic Compliance Matrix: (Units=1/GPa)
#
#
# Indices 1 2 3 4 5 6 
#
# 1 0.010302 -0.004005 -0.004851 0.000000 0.000000 0.000000
# 2 -0.004005 0.010302 -0.004851 0.000000 0.000000 0.000000
# 3 -0.004851 -0.004851 0.026022 0.000000 0.000000 0.000000
# 4 0.000000 0.000000 0.000000 0.039279 0.000000 0.000000
# 5 0.000000 0.000000 0.000000 0.000000 0.039279 0.000000
# 6 0.000000 0.000000 0.000000 0.000000 0.000000 0.036674
#
#
# Mechanical properties :
#
#
# Convention : Reuss Voigt Hill
#
# Bulk Modulus (GPa) = 52.04991 73.96164 63.00578
# Shear Modulus (GPa) = 25.55229 28.10965 26.83097
#
# Velocity S-wave (km/s) = 3.62160 3.79851 3.71111
# Velocity P-wave (km/s) = 6.64870 7.56325 7.12068
#
# Compressibility (1/GPa) = 0.01921233
#
# Stress axis : x y z
#
# Youngs Moduli (GPa) = 97.06902 97.06889 38.42831
#
# Poissons Ratio (x) = 0.38877 0.18642
# Poissons Ratio (y) = 0.38877 0.18641
# Poissons Ratio (z) = 0.47088 0.47087
#
# Static dielectric constant tensor:
#      x y z
#    x 1.737460 0.000000 0.000000 
#    y 0.000000 1.737460 0.000000 
#    z 0.000000 0.000000 1.674660 
# 
# From -- ./inp_files/2399.got.cif
#   From: 2010.05.17/outbox.cif.g08.bks.cpg/sg111_2_cif.got.tgz:2399.got - 2010.05.20 10:56:05.
