data_PCOD9554185
_publ_section_title
;
Structure prediction by ZEFSAII (Michael W. Deem and Ramdas Pophale) SiO2 
 PCOD9554185
Probable space group: I 41 M D
;
_chemical_formula_sum "Si O2"
_cell_formula_units_Z 48
_cell_length_a 7.935213
_cell_length_b 7.935213
_cell_length_c 38.466676
_cell_angle_alpha 90.000000
_cell_angle_beta 90.000000
_cell_angle_gamma 90.000000
_cell_volume 2422.154474
_symmetry_space_group_name_H-M "I 41 M D"
_symmetry_group_IT_number 109
_symmetry_cell_setting 'tetragonal'
loop_
_space_group_symop_operation_xyz
x,y,z
-y,1/2+x,1/4+z
-x,-y,z
y,1/2-x,1/4+z
-x,y,z
x,-y,z
-y,1/2-x,1/4+z
y,1/2+x,1/4+z
1/2+x,1/2+y,1/2+z
1/2-y,x,3/4+z
1/2-x,1/2-y,1/2+z
1/2+y,-x,3/4+z
1/2-x,1/2+y,1/2+z
1/2+x,1/2-y,1/2+z
1/2-y,-x,3/4+z
1/2+y,x,3/4+z
loop_
_atom_site_type_symbol
_atom_site_label
_atom_site_fract_x
_atom_site_fract_y
_atom_site_fract_z
Si Si1 0.306522 0.199494 0.814590
Si Si2 0.198922 0.000000 0.612506
Si Si3 0.704471 0.000000 0.692896
Si Si4 0.205219 0.815271 0.238201
O O1 0.500000 0.252792 0.823162
O O2 0.251530 0.285289 0.778510
O O3 0.168633 0.232373 0.843985
O O4 0.312278 0.000000 0.807647
O O5 0.242248 0.000000 0.653078
O O6 0.000000 0.000000 0.607798
O O7 0.764459 0.164937 0.713678
O O8 0.500000 0.000000 0.693875
O O9 0.000000 0.811886 0.237339
O O10 0.261880 0.000000 0.226846
#
# Coordination Sequence:
#
# PCOD9554185 Si02
#       4
#    16   8   8  16
#     4  10  20  39  66  93 120 159 213 267 318 379
#     4  12  26  40  56  90 132 170 210 259 325 386
#     4  10  20  38  58  82 120 162 212 264 320 379
#     4   9  17  33  60  89 117 156 208 262 315 378
#
# _framework density 19.817067999999999
#
# number of rings (size 3 to 8) (size 9 to 14) (size 15 to 20)
#    0.000    2.000    1.667    2.500    0.000    3.333 
#    3.000    3.333    0.000    0.000    0.000    0.000 
#    0.000    0.000    0.000    0.000    0.000    0.000 
#
# Total GULP energy -134042.101746 kJ/mol
# GULP energy per Si atom -5585.087573 kJ/mol
# Density = 1.977196 g / cm^3
# Si number density = 19.817068 Si / 1000 Ang^3
#
#
#
# Elastic Constant Matrix: (Units=GPa)
#
#
# Indices 1 2 3 4 5 6 
#
# 1 98.9046 20.4552 49.5920 0.0000 0.0000 0.0000
# 2 20.4552 98.9046 49.5920 0.0000 0.0000 0.0000
# 3 49.5920 49.5920 138.7566 0.0000 0.0000 0.0000
# 4 0.0000 0.0000 0.0000 -18.6881 0.0000 0.0000
# 5 0.0000 0.0000 0.0000 0.0000 -18.6881 0.0000
# 6 0.0000 0.0000 0.0000 0.0000 0.0000 14.0284
#
#
#
# Elastic Compliance Matrix: (Units=1/GPa)
#
#
# Indices 1 2 3 4 5 6 
#
# 1 0.012332 -0.000415 -0.004259 0.000000 0.000000 0.000000
# 2 -0.000415 0.012332 -0.004259 0.000000 0.000000 0.000000
# 3 -0.004259 -0.004259 0.010251 0.000000 0.000000 0.000000
# 4 0.000000 0.000000 0.000000 -0.053510 0.000000 0.000000
# 5 0.000000 0.000000 0.000000 0.000000 -0.053510 0.000000
# 6 0.000000 0.000000 0.000000 0.000000 0.000000 0.071284
#
#
# Mechanical properties :
#
#
# Convention : Reuss Voigt Hill
#
# Bulk Modulus (GPa) = 58.65458 63.98269 61.31864
# Shear Modulus (GPa) = 219.97471 9.79220 114.88346
#
# Velocity S-wave (km/s) = 10.54721 2.22531 7.62219
# Velocity P-wave (km/s) = 13.34118 6.24175 10.41505
#
# Compressibility (1/GPa) = 0.01704897
#
# Stress axis : x y z
#
# Youngs Moduli (GPa) = 81.08841 81.08841 97.54729
#
# Poissons Ratio (x) = 0.03364 0.41548
# Poissons Ratio (y) = 0.03364 0.41548
# Poissons Ratio (z) = 0.34538 0.34538
#
# Static dielectric constant tensor:
#      x y z
#    x 1.798260 0.000000 0.000000 
#    y 0.000000 1.798260 0.000000 
#    z 0.000000 0.000000 1.642100 
# 
# From -- ./inp_files/5253.got.cif
#   From: 2010.05.17/outbox.cif.g08.bks.cpg/sg109_3_cif.got.tgz:5253.got - 2010.05.20 10:51:12.
