data_PCOD9554883
_publ_section_title
;
Structure prediction by ZEFSAII (Michael W. Deem and Ramdas Pophale) SiO2 
 PCOD9554883
Probable space group: P -4 2 M 
;
_chemical_formula_sum "Si O2"
_cell_formula_units_Z 36
_cell_length_a 11.955152
_cell_length_b 11.955152
_cell_length_c 16.583402
_cell_angle_alpha 90.000000
_cell_angle_beta 90.000000
_cell_angle_gamma 90.000000
_cell_volume 2370.193665
_symmetry_space_group_name_H-M "P -4 2 M "
_symmetry_group_IT_number 111
_symmetry_cell_setting 'tetragonal'
loop_
_space_group_symop_operation_xyz
x,y,z
y,-x,-z
-x,-y,z
-y,x,-z
x,-y,-z
-x,y,-z
-y,-x,z
y,x,z
loop_
_atom_site_type_symbol
_atom_site_label
_atom_site_fract_x
_atom_site_fract_y
_atom_site_fract_z
Si Si1 0.190464 0.000000 0.000000
Si Si2 0.630740 0.814724 0.719604
Si Si3 0.000001 0.628792 0.857507
Si Si4 0.369261 0.814724 0.719604
Si Si5 0.363960 1.000000 0.408101
O O1 0.274265 0.999999 0.923657
O O2 0.108132 0.108132 1.000000
O O3 0.707301 0.707301 0.726711
O O4 0.500001 0.787106 0.709189
O O5 0.667831 0.891349 0.643856
O O6 0.639997 0.893178 0.798483
O O7 0.106823 0.639997 0.798483
O O8 0.000000 0.500000 0.889371
O O9 0.292700 0.707301 0.726710
O O10 0.332169 0.891349 0.643856
O O11 0.500000 0.000000 0.408881
O O12 0.324330 0.000000 0.500000
#
# Coordination Sequence:
#
# PCOD9554883 Si02
#       5
#     4   8   8   8   8
#     4  11  21  30  46  72  95 113 140 186 236 267
#     4   9  17  29  46  67  90 116 146 182 222 262
#     4   9  18  33  49  64  87 121 155 179 208 262
#     4   9  17  29  46  67  90 116 146 182 222 262
#     4   8  15  28  44  61  83 116 153 179 206 254
#
# _framework density 15.188631000000001
#
# number of rings (size 3 to 8) (size 9 to 14) (size 15 to 20)
#    0.000    3.000    0.000    4.333    0.000    1.333 
#    0.000    0.000    0.000    6.000    0.000   12.444 
#    0.000   16.000    0.000    0.000    0.000    0.000 
#
# Total GULP energy -200451.513556 kJ/mol
# GULP energy per Si atom -5568.097599 kJ/mol
# Density = 1.515406 g / cm^3
# Si number density = 15.188631 Si / 1000 Ang^3
#
#
#
# Elastic Constant Matrix: (Units=GPa)
#
#
# Indices 1 2 3 4 5 6 
#
# 1 107.4415 74.3065 52.1628 0.0000 0.0000 0.0000
# 2 74.3065 107.4437 52.1625 0.0000 0.0000 0.0000
# 3 52.1628 52.1625 99.8975 0.0000 0.0000 0.0000
# 4 0.0000 0.0000 0.0000 8.3968 0.0000 0.0000
# 5 0.0000 0.0000 0.0000 0.0000 8.3987 0.0000
# 6 0.0000 0.0000 0.0000 0.0000 0.0000 27.8164
#
#
#
# Elastic Compliance Matrix: (Units=1/GPa)
#
#
# Indices 1 2 3 4 5 6 
#
# 1 0.019018 -0.011161 -0.004103 0.000000 0.000000 0.000000
# 2 -0.011161 0.019018 -0.004102 0.000000 0.000000 0.000000
# 3 -0.004103 -0.004102 0.014295 0.000000 0.000000 0.000000
# 4 0.000000 0.000000 0.000000 0.119094 0.000000 0.000000
# 5 0.000000 0.000000 0.000000 0.000000 0.119066 0.000000
# 6 0.000000 0.000000 0.000000 0.000000 0.000000 0.035950
#
#
# Mechanical properties :
#
#
# Convention : Reuss Voigt Hill
#
# Bulk Modulus (GPa) = 73.53889 74.67181 74.10535
# Shear Modulus (GPa) = 13.52430 17.99910 15.76170
#
# Velocity S-wave (km/s) = 2.98723 3.44617 3.22488
# Velocity P-wave (km/s) = 7.77305 8.06874 7.92227
#
# Compressibility (1/GPa) = 0.01359825
#
# Stress axis : x y z
#
# Youngs Moduli (GPa) = 52.58153 52.58310 69.95577
#
# Poissons Ratio (x) = 0.58687 0.28702
# Poissons Ratio (y) = 0.58685 0.28699
# Poissons Ratio (z) = 0.21573 0.21572
#
# Static dielectric constant tensor:
#      x y z
#    x 1.485860 0.000000 0.000000 
#    y 0.000000 1.485850 0.000000 
#    z 0.000000 0.000000 1.511150 
# 
# From -- ./inp_files/3185.got.cif
#   From: 2010.05.17/outbox.cif.g08.bks.cpg/sg111_2_cif.got.tgz:3185.got - 2010.05.20 10:56:05.
