data_PCOD9554772
_publ_section_title
;
Structure prediction by ZEFSAII (Michael W. Deem and Ramdas Pophale) SiO2 
 PCOD9554772
Probable space group: P -4 2 M 
;
_chemical_formula_sum "Si O2"
_cell_formula_units_Z 32
_cell_length_a 20.007502
_cell_length_b 20.007502
_cell_length_c 4.839435
_cell_angle_alpha 90.000000
_cell_angle_beta 90.000000
_cell_angle_gamma 90.000000
_cell_volume 1937.226490
_symmetry_space_group_name_H-M "P -4 2 M "
_symmetry_group_IT_number 111
_symmetry_cell_setting 'tetragonal'
loop_
_space_group_symop_operation_xyz
x,y,z
y,-x,-z
-x,-y,z
-y,x,-z
x,-y,-z
-x,y,-z
-y,-x,z
y,x,z
loop_
_atom_site_type_symbol
_atom_site_label
_atom_site_fract_x
_atom_site_fract_y
_atom_site_fract_z
Si Si1 0.333147 0.666854 0.014469
Si Si2 0.631847 0.156913 0.456315
Si Si3 0.267415 0.267415 0.478712
Si Si4 0.419786 0.077591 0.049802
Si Si5 0.729959 0.457949 0.744902
O O1 0.284587 0.715414 0.837233
O O2 0.315770 0.593509 0.911573
O O3 0.314998 0.685003 0.327865
O O4 0.704597 0.192717 0.468615
O O5 0.615566 0.130553 0.153505
O O6 0.582168 0.214161 0.573161
O O7 0.610232 0.096034 0.652613
O O8 0.500000 0.084113 0.000000
O O9 0.404208 0.000000 0.000000
O O10 0.695419 0.500000 0.500000
O O11 0.759926 0.500000 0.000000
#
# Coordination Sequence:
#
# PCOD9554772 Si02
#       5
#     4   8   4   8   8
#     4  10  20  32  44  67  90 104 142 194 240 289
#     4  11  20  33  49  69  93 118 158 198 234 273
#     4  10  20  32  50  70  90 117 150 201 246 274
#     4  11  22  33  47  69  99 133 164 192 226 279
#     4  11  20  31  49  67  85 113 146 190 241 283
#
# _framework density 16.518460000000001
#
# number of rings (size 3 to 8) (size 9 to 14) (size 15 to 20)
#    0.000    1.250    0.000   11.250    0.000    2.000 
#    0.000    0.000    0.000    2.250    0.000    0.000 
#    0.000    0.000    0.000    0.000    0.000   43.750 
#
# Total GULP energy -178328.626808 kJ/mol
# GULP energy per Si atom -5572.769588 kJ/mol
# Density = 1.648086 g / cm^3
# Si number density = 16.518460 Si / 1000 Ang^3
#
#
#
# Elastic Constant Matrix: (Units=GPa)
#
#
# Indices 1 2 3 4 5 6 
#
# 1 49.0124 23.7113 -8.7406 0.0000 0.0000 0.0000
# 2 23.7113 49.0113 -8.7402 0.0000 0.0000 0.0000
# 3 -8.7406 -8.7402 49.4362 0.0000 0.0000 0.0000
# 4 0.0000 0.0000 0.0000 24.8504 0.0000 0.0000
# 5 0.0000 0.0000 0.0000 0.0000 24.8506 0.0000
# 6 0.0000 0.0000 0.0000 0.0000 0.0000 15.6628
#
#
#
# Elastic Compliance Matrix: (Units=1/GPa)
#
#
# Indices 1 2 3 4 5 6 
#
# 1 0.026943 -0.012582 0.002539 0.000000 0.000000 0.000000
# 2 -0.012582 0.026943 0.002539 0.000000 0.000000 0.000000
# 3 0.002539 0.002539 0.021126 0.000000 0.000000 0.000000
# 4 0.000000 0.000000 0.000000 0.040241 0.000000 0.000000
# 5 0.000000 0.000000 0.000000 0.000000 0.040241 0.000000
# 6 0.000000 0.000000 0.000000 0.000000 0.000000 0.063846
#
#
# Mechanical properties :
#
#
# Convention : Reuss Voigt Hill
#
# Bulk Modulus (GPa) = 16.66545 17.76899 17.21722
# Shear Modulus (GPa) = 19.65813 22.48805 21.07309
#
# Velocity S-wave (km/s) = 3.45348 3.69370 3.57561
# Velocity P-wave (km/s) = 5.10029 5.38253 5.24331
#
# Compressibility (1/GPa) = 0.06000438
#
# Stress axis : x y z
#
# Youngs Moduli (GPa) = 37.11584 37.11505 47.33527
#
# Poissons Ratio (x) = 0.46698 -0.12019
# Poissons Ratio (y) = 0.46699 -0.12018
# Poissons Ratio (z) = -0.09424 -0.09423
#
# Static dielectric constant tensor:
#      x y z
#    x 1.588060 0.000000 0.000000 
#    y 0.000000 1.588060 0.000000 
#    z 0.000000 0.000000 1.591960 
# 
# From -- ./inp_files/436.got.cif
#   From: 2010.05.17/outbox.cif.g08.bks.cpg/sg111_1_cif.got.tgz:436.got - 2010.05.20 10:56:05.
