data_PCOD9554240
_publ_section_title
;
Structure prediction by ZEFSAII (Michael W. Deem and Ramdas Pophale) SiO2 
 PCOD9554240
Probable space group: I 41 M D
;
_chemical_formula_sum "Si O2"
_cell_formula_units_Z 96
_cell_length_a 15.624716
_cell_length_b 15.624716
_cell_length_c 18.288151
_cell_angle_alpha 90.000000
_cell_angle_beta 90.000000
_cell_angle_gamma 90.000000
_cell_volume 4464.718309
_symmetry_space_group_name_H-M "I 41 M D"
_symmetry_group_IT_number 109
_symmetry_cell_setting 'tetragonal'
loop_
_space_group_symop_operation_xyz
x,y,z
-y,1/2+x,1/4+z
-x,-y,z
y,1/2-x,1/4+z
-x,y,z
x,-y,z
-y,1/2-x,1/4+z
y,1/2+x,1/4+z
1/2+x,1/2+y,1/2+z
1/2-y,x,3/4+z
1/2-x,1/2-y,1/2+z
1/2+y,-x,3/4+z
1/2-x,1/2+y,1/2+z
1/2+x,1/2-y,1/2+z
1/2-y,-x,3/4+z
1/2+y,x,3/4+z
loop_
_atom_site_type_symbol
_atom_site_label
_atom_site_fract_x
_atom_site_fract_y
_atom_site_fract_z
Si Si1 0.643411 0.265991 0.941080
Si Si2 0.800638 0.339552 0.852525
Si Si3 0.000000 0.097808 0.447074
Si Si4 0.500000 0.598264 0.124863
Si Si5 0.900953 0.189387 0.830649
Si Si6 0.745818 0.904154 0.744796
Si Si7 0.593503 0.595569 0.612033
O O1 0.735292 0.289739 0.905616
O O2 0.581786 0.346076 0.924339
O O3 0.609050 0.177859 0.908746
O O4 0.641055 0.251074 0.028227
O O5 0.844302 0.417997 0.894026
O O6 0.882298 0.289407 0.817300
O O7 0.000000 0.095554 0.535997
O O8 0.000000 0.000000 0.420997
O O9 0.500000 0.500000 0.151509
O O10 0.825843 0.142919 0.784914
O O11 0.000000 0.163827 0.818055
O O12 0.882727 0.195602 0.918612
O O13 0.669985 0.903913 0.802851
O O14 0.778474 0.000000 0.730612
O O15 0.500000 0.602556 0.650126
O O16 0.596777 0.500000 0.579461
#
# Coordination Sequence:
#
# PCOD9554240 Si02
#       7
#    16  16   8   8  16  16  16
#     4  11  22  40  63  93 127 166 214 261 325 390
#     4  11  23  39  63  90 124 165 213 261 319 382
#     4   9  20  38  61  91 131 165 205 255 309 384
#     4   9  20  40  60  84 122 166 209 255 306 372
#     4  11  23  42  65  96 136 177 228 283 340 410
#     4  10  23  42  66 100 137 177 227 285 350 418
#     4  10  21  40  66  95 129 168 214 275 339 405
#
# _framework density 21.501915
#
# number of rings (size 3 to 8) (size 9 to 14) (size 15 to 20)
#    0.000    1.667    2.500    1.500    1.167    1.667 
#    6.000    3.333    0.000    0.000    0.000    0.000 
#    0.000    0.000    0.000    0.000    0.000    0.000 
#
# Total GULP energy -267233.689258 kJ/mol
# GULP energy per Si atom -5567.368526 kJ/mol
# Density = 2.145298 g / cm^3
# Si number density = 21.501915 Si / 1000 Ang^3
#
#
#
# Elastic Constant Matrix: (Units=GPa)
#
#
# Indices 1 2 3 4 5 6 
#
# 1 141.7990 51.3255 42.5507 0.0000 0.0000 0.0000
# 2 51.3255 141.7990 42.5507 0.0000 0.0000 0.0000
# 3 42.5507 42.5507 90.9564 0.0000 0.0000 0.0000
# 4 0.0000 0.0000 0.0000 18.8858 0.0000 0.0000
# 5 0.0000 0.0000 0.0000 0.0000 18.8858 0.0000
# 6 0.0000 0.0000 0.0000 0.0000 0.0000 7.9798
#
#
#
# Elastic Compliance Matrix: (Units=1/GPa)
#
#
# Indices 1 2 3 4 5 6 
#
# 1 0.008788 -0.002265 -0.003051 0.000000 0.000000 0.000000
# 2 -0.002265 0.008788 -0.003051 0.000000 0.000000 0.000000
# 3 -0.003051 -0.003051 0.013849 0.000000 0.000000 0.000000
# 4 0.000000 0.000000 0.000000 0.052950 0.000000 0.000000
# 5 0.000000 0.000000 0.000000 0.000000 0.052950 0.000000
# 6 0.000000 0.000000 0.000000 0.000000 0.000000 0.125317
#
#
# Mechanical properties :
#
#
# Convention : Reuss Voigt Hill
#
# Bulk Modulus (GPa) = 68.07832 71.93426 70.00629
# Shear Modulus (GPa) = 17.58872 25.02544 21.30708
#
# Velocity S-wave (km/s) = 2.86318 3.41526 3.15133
# Velocity P-wave (km/s) = 6.53151 7.00567 6.77274
#
# Compressibility (1/GPa) = 0.01468896
#
# Stress axis : x y z
#
# Youngs Moduli (GPa) = 113.79433 113.79433 72.20617
#
# Poissons Ratio (x) = 0.25776 0.22033
# Poissons Ratio (y) = 0.25776 0.22033
# Poissons Ratio (z) = 0.34723 0.34723
#
# Static dielectric constant tensor:
#      x y z
#    x 1.872730 0.000000 0.000000 
#    y 0.000000 1.872730 0.000000 
#    z 0.000000 0.000000 1.859840 
# 
# From -- ./inp_files/3826.got.cif
#   From: 2010.05.17/outbox.cif.g08.bks.cpg/sg109_2_cif.got.tgz:3826.got - 2010.05.20 10:51:12.
