data_PCOD9554849
_publ_section_title
;
Structure prediction by ZEFSAII (Michael W. Deem and Ramdas Pophale) SiO2 
 PCOD9554849
Probable space group: P -4 2 M 
;
_chemical_formula_sum "Si O2"
_cell_formula_units_Z 56
_cell_length_a 14.657959
_cell_length_b 14.657959
_cell_length_c 11.952651
_cell_angle_alpha 90.000000
_cell_angle_beta 90.000000
_cell_angle_gamma 90.000000
_cell_volume 2568.095939
_symmetry_space_group_name_H-M "P -4 2 M "
_symmetry_group_IT_number 111
_symmetry_cell_setting 'tetragonal'
loop_
_space_group_symop_operation_xyz
x,y,z
y,-x,-z
-x,-y,z
-y,x,-z
x,-y,-z
-x,y,-z
-y,-x,z
y,x,z
loop_
_atom_site_type_symbol
_atom_site_label
_atom_site_fract_x
_atom_site_fract_y
_atom_site_fract_z
Si Si1 0.764491 0.625687 0.573773
Si Si2 0.141497 0.706607 0.831000
Si Si3 0.778236 0.084206 0.430652
Si Si4 0.473661 0.677608 0.130787
Si Si5 0.044318 0.190307 0.821467
Si Si6 0.179326 0.333007 0.929118
Si Si7 0.774931 0.567471 0.321225
O O1 0.671945 0.671945 0.620264
O O2 0.842972 0.699720 0.587779
O O3 0.749047 0.610071 0.441392
O O4 0.794886 0.534975 0.636498
O O5 0.231624 0.768377 0.815796
O O6 0.146679 0.632420 0.731515
O O7 0.058786 0.778953 0.846576
O O8 0.144479 0.649851 0.946100
O O9 0.861663 0.138338 0.488640
O O10 0.812885 0.049490 0.311845
O O11 0.744082 0.000000 0.500000
O O12 0.407154 0.592847 0.160424
O O13 0.418733 0.773623 0.126905
O O14 0.551505 0.699158 0.222951
O O15 0.500000 0.662590 0.000000
O O16 0.098432 0.098432 0.863619
O O17 0.104477 0.276458 0.861850
O O18 0.262756 0.262756 0.942726
#
# Coordination Sequence:
#
# PCOD9554849 Si02
#       7
#     8   8   8   8   8   8   8
#     4  10  22  41  63  86 121 169 221 273 329 394
#     4  11  22  38  62  91 128 169 210 261 322 389
#     4  10  21  39  62  89 122 163 210 263 327 394
#     4  11  22  39  63  91 125 164 210 264 324 389
#     4  10  21  38  63  92 123 163 210 258 316 389
#     4   9  19  38  62  87 123 168 209 252 317 388
#     4  11  22  38  64  93 121 168 221 267 330 394
#
# _framework density 21.806038000000001
#
# number of rings (size 3 to 8) (size 9 to 14) (size 15 to 20)
#    0.000    1.714    1.429    3.000    0.000    5.143 
#    0.000   10.000    0.000   18.429    0.000    0.000 
#    0.000    0.000    0.000    0.000    0.000    0.000 
#
# Total GULP energy -312136.039211 kJ/mol
# GULP energy per Si atom -5573.857843 kJ/mol
# Density = 2.175641 g / cm^3
# Si number density = 21.806038 Si / 1000 Ang^3
#
#
#
# Elastic Constant Matrix: (Units=GPa)
#
#
# Indices 1 2 3 4 5 6 
#
# 1 713.8086 -631.1777 7.6460 0.0000 0.0000 0.0000
# 2 -631.1777 714.0764 7.6134 0.0000 0.0000 0.0000
# 3 7.6460 7.6134 87.7419 0.0000 0.0000 0.0000
# 4 0.0000 0.0000 0.0000 -94.1809 0.0000 0.0000
# 5 0.0000 0.0000 0.0000 0.0000 -94.1671 0.0000
# 6 0.0000 0.0000 0.0000 0.0000 0.0000 26.0558
#
#
#
# Elastic Compliance Matrix: (Units=1/GPa)
#
#
# Indices 1 2 3 4 5 6 
#
# 1 0.006513 0.005768 -0.001068 0.000000 0.000000 0.000000
# 2 0.005768 0.006510 -0.001068 0.000000 0.000000 0.000000
# 3 -0.001068 -0.001068 0.011583 0.000000 0.000000 0.000000
# 4 0.000000 0.000000 0.000000 -0.010618 0.000000 0.000000
# 5 0.000000 0.000000 0.000000 0.000000 -0.010619 0.000000
# 6 0.000000 0.000000 0.000000 0.000000 0.000000 0.038379
#
#
# Mechanical properties :
#
#
# Convention : Reuss Voigt Hill
#
# Bulk Modulus (GPa) = 31.37717 31.53225 31.45471
# Shear Modulus (GPa) = 110.85002 109.64457 110.24730
#
# Velocity S-wave (km/s) = 7.13757 7.09866 7.11814
# Velocity P-wave (km/s) = 9.07452 9.03768 9.05612
#
# Compressibility (1/GPa) = 0.03187031
#
# Stress axis : x y z
#
# Youngs Moduli (GPa) = 153.54836 153.60725 86.33519
#
# Poissons Ratio (x) = -0.88600 0.09221
# Poissons Ratio (y) = -0.88566 0.09216
# Poissons Ratio (z) = 0.16399 0.16398
#
# Static dielectric constant tensor:
#      x y z
#    x 3.719990 0.000000 0.000000 
#    y 0.000000 3.719490 0.000000 
#    z 0.000000 0.000000 1.840460 
# 
# From -- ./inp_files/2830.got.cif
#   From: 2010.05.17/outbox.cif.g08.bks.cpg/sg111_2_cif.got.tgz:2830.got - 2010.05.20 10:56:05.
