data_PCOD9554768
_publ_section_title
;
Structure prediction by ZEFSAII (Michael W. Deem and Ramdas Pophale) SiO2 
 PCOD9554768
Probable space group: P -4 2 M 
;
_chemical_formula_sum "Si O2"
_cell_formula_units_Z 45
_cell_length_a 11.473708
_cell_length_b 11.473708
_cell_length_c 17.484702
_cell_angle_alpha 90.000000
_cell_angle_beta 90.000000
_cell_angle_gamma 90.000000
_cell_volume 2301.790647
_symmetry_space_group_name_H-M "P -4 2 M "
_symmetry_group_IT_number 111
_symmetry_cell_setting 'tetragonal'
loop_
_space_group_symop_operation_xyz
x,y,z
y,-x,-z
-x,-y,z
-y,x,-z
x,-y,-z
-x,y,-z
-y,-x,z
y,x,z
loop_
_atom_site_type_symbol
_atom_site_label
_atom_site_fract_x
_atom_site_fract_y
_atom_site_fract_z
Si Si1 0.119598 0.559070 0.583379
Si Si2 0.100644 0.899357 0.785329
Si Si3 0.036479 0.235349 0.911118
Si Si4 0.500000 0.693446 0.000000
Si Si5 0.693709 0.496685 0.704594
Si Si6 0.000000 0.000000 0.500000
Si Si7 0.213049 0.415113 0.854348
Si Si8 0.837233 0.837233 0.391983
O O1 0.127730 0.500000 0.500000
O O2 0.231361 0.517500 0.629714
O O3 0.128495 0.701352 0.587970
O O4 0.000000 0.500000 0.615492
O O5 0.140271 0.859730 0.699853
O O6 0.049506 0.801337 0.842589
O O7 0.000000 0.000000 0.774851
O O8 0.129980 0.129980 0.914995
O O9 0.099174 0.348661 0.879337
O O10 0.000000 0.250835 0.000000
O O11 0.504806 0.762639 0.077912
O O12 0.611330 0.611330 0.996824
O O13 0.618547 0.381454 0.721188
O O14 0.601199 0.601199 0.697785
O O15 0.780670 0.523839 0.773606
O O16 0.080366 0.919635 0.555526
O O17 0.317464 0.317464 0.852136
#
# Coordination Sequence:
#
# PCOD9554768 Si02
#       8
#     8   4   8   4   8   1   8   4
#     4  11  26  48  68 102 141 178 221 286 359 425
#     4  10  22  40  67  97 129 179 233 281 344 413
#     4  10  19  36  59  89 128 175 228 285 341 405
#     4   9  16  32  55  74 108 154 205 260 320 393
#     4  10  21  41  69  96 128 174 227 280 340 419
#     4  12  24  48  80 104 138 180 224 280 320 436
#     4   9  19  34  54  88 119 162 215 270 335 395
#     4  12  26  50  73 111 141 184 237 280 360 433
#
# _framework density 19.549997999999999
#
# number of rings (size 3 to 8) (size 9 to 14) (size 15 to 20)
#    0.000    1.867    2.222    1.600    3.733    2.133 
#    4.800    1.333    0.000    0.000    0.000    0.000 
#    0.000    0.000    0.000    0.000    0.000    0.000 
#
# Total GULP energy -250701.000610 kJ/mol
# GULP energy per Si atom -5571.133347 kJ/mol
# Density = 1.950550 g / cm^3
# Si number density = 19.549998 Si / 1000 Ang^3
#
#
#
# Elastic Constant Matrix: (Units=GPa)
#
#
# Indices 1 2 3 4 5 6 
#
# 1 88.8261 42.5193 63.0114 0.0000 0.0000 0.0000
# 2 42.5193 88.8264 63.0116 0.0000 0.0000 0.0000
# 3 63.0114 63.0116 165.0656 0.0000 0.0000 0.0000
# 4 0.0000 0.0000 0.0000 28.4437 0.0000 0.0000
# 5 0.0000 0.0000 0.0000 0.0000 28.4432 0.0000
# 6 0.0000 0.0000 0.0000 0.0000 0.0000 29.6682
#
#
#
# Elastic Compliance Matrix: (Units=1/GPa)
#
#
# Indices 1 2 3 4 5 6 
#
# 1 0.016804 -0.004791 -0.004586 0.000000 0.000000 0.000000
# 2 -0.004791 0.016804 -0.004586 0.000000 0.000000 0.000000
# 3 -0.004586 -0.004586 0.009560 0.000000 0.000000 0.000000
# 4 0.000000 0.000000 0.000000 0.035157 0.000000 0.000000
# 5 0.000000 0.000000 0.000000 0.000000 0.035158 0.000000
# 6 0.000000 0.000000 0.000000 0.000000 0.000000 0.033706
#
#
# Mechanical properties :
#
#
# Convention : Reuss Voigt Hill
#
# Bulk Modulus (GPa) = 65.60511 75.53362 70.56936
# Shear Modulus (GPa) = 27.74758 28.92274 28.33516
#
# Velocity S-wave (km/s) = 3.77147 3.85050 3.81119
# Velocity P-wave (km/s) = 7.25229 7.64778 7.45266
#
# Compressibility (1/GPa) = 0.01524272
#
# Stress axis : x y z
#
# Youngs Moduli (GPa) = 59.50818 59.50836 104.60744
#
# Poissons Ratio (x) = 0.28508 0.47974
# Poissons Ratio (y) = 0.28508 0.47974
# Poissons Ratio (z) = 0.27291 0.27291
#
# Static dielectric constant tensor:
#      x y z
#    x 1.693580 0.000000 0.000000 
#    y 0.000000 1.693580 0.000000 
#    z 0.000000 0.000000 1.641240 
# 
# From -- ./inp_files/3709.got.cif
#   From: 2010.05.17/outbox.cif.g08.bks.cpg/sg111_2_cif.got.tgz:3709.got - 2010.05.20 10:56:05.
