data_PCOD9554161
_publ_section_title
;
Structure prediction by ZEFSAII (Michael W. Deem and Ramdas Pophale) SiO2 
 PCOD9554161
Probable space group: I 41 M D
;
_chemical_formula_sum "Si O2"
_cell_formula_units_Z 88
_cell_length_a 11.750277
_cell_length_b 11.750277
_cell_length_c 37.019303
_cell_angle_alpha 90.000000
_cell_angle_beta 90.000000
_cell_angle_gamma 90.000000
_cell_volume 5111.218500
_symmetry_space_group_name_H-M "I 41 M D"
_symmetry_group_IT_number 109
_symmetry_cell_setting 'tetragonal'
loop_
_space_group_symop_operation_xyz
x,y,z
-y,1/2+x,1/4+z
-x,-y,z
y,1/2-x,1/4+z
-x,y,z
x,-y,z
-y,1/2-x,1/4+z
y,1/2+x,1/4+z
1/2+x,1/2+y,1/2+z
1/2-y,x,3/4+z
1/2-x,1/2-y,1/2+z
1/2+y,-x,3/4+z
1/2-x,1/2+y,1/2+z
1/2+x,1/2-y,1/2+z
1/2-y,-x,3/4+z
1/2+y,x,3/4+z
loop_
_atom_site_type_symbol
_atom_site_label
_atom_site_fract_x
_atom_site_fract_y
_atom_site_fract_z
Si Si1 0.500000 0.862320 0.423910
Si Si2 0.637094 0.371912 0.694040
Si Si3 0.277918 0.368603 0.511480
Si Si4 0.730207 0.206277 0.633413
Si Si5 0.500000 0.867817 0.590354
Si Si6 0.628664 0.632903 0.834251
Si Si7 0.713183 0.500000 0.257748
O O1 0.394446 0.794528 0.405171
O O2 0.500000 0.846792 0.467994
O O3 0.500000 0.000000 0.416682
O O4 0.500000 0.374928 0.692200
O O5 0.680120 0.500000 0.691748
O O6 0.667911 0.312753 0.731523
O O7 0.682682 0.294352 0.662456
O O8 0.310878 0.500000 0.504299
O O9 0.213595 0.365097 0.549433
O O10 0.387886 0.290970 0.509363
O O11 0.618605 0.176666 0.608614
O O12 0.824131 0.272781 0.610215
O O13 0.500000 0.851362 0.546686
O O14 0.500000 0.000000 0.598615
O O15 0.500000 0.646302 0.849611
O O16 0.641519 0.500000 0.824635
#
# Coordination Sequence:
#
# PCOD9554161 Si02
#       7
#     8  16  16  16   8  16   8
#     4  12  27  44  66  88 118 168 212 264 310 380
#     4  10  20  34  56  89 124 159 196 243 302 371
#     4  10  20  35  59  89 122 159 200 252 310 369
#     4  12  22  40  62  89 122 155 207 255 313 370
#     4  12  25  41  63  92 123 161 202 265 329 379
#     4  10  21  38  60  87 122 163 203 249 302 365
#     4  12  22  42  62  87 126 160 212 256 318 382
#
# _framework density 17.217030999999999
#
# number of rings (size 3 to 8) (size 9 to 14) (size 15 to 20)
#    0.000    1.091    5.455    2.182    0.000    2.182 
#    1.636    0.000    0.000    0.000    0.000    2.545 
#    0.000    0.000    0.000    0.000    0.000    0.000 
#
# Total GULP energy -245250.612865 kJ/mol
# GULP energy per Si atom -5573.877565 kJ/mol
# Density = 1.717784 g / cm^3
# Si number density = 17.217031 Si / 1000 Ang^3
#
#
#
# Elastic Constant Matrix: (Units=GPa)
#
#
# Indices 1 2 3 4 5 6 
#
# 1 103.4611 56.5783 35.6298 0.0000 0.0000 0.0000
# 2 56.5783 103.4611 35.6298 0.0000 0.0000 0.0000
# 3 35.6298 35.6298 81.3814 0.0000 0.0000 0.0000
# 4 0.0000 0.0000 0.0000 22.7361 0.0000 0.0000
# 5 0.0000 0.0000 0.0000 0.0000 22.7361 0.0000
# 6 0.0000 0.0000 0.0000 0.0000 0.0000 26.6881
#
#
#
# Elastic Compliance Matrix: (Units=1/GPa)
#
#
# Indices 1 2 3 4 5 6 
#
# 1 0.014546 -0.006784 -0.003398 0.000000 0.000000 0.000000
# 2 -0.006784 0.014546 -0.003398 0.000000 0.000000 0.000000
# 3 -0.003398 -0.003398 0.015263 0.000000 0.000000 0.000000
# 4 0.000000 0.000000 0.000000 0.043983 0.000000 0.000000
# 5 0.000000 0.000000 0.000000 0.000000 0.043983 0.000000
# 6 0.000000 0.000000 0.000000 0.000000 0.000000 0.037470
#
#
# Mechanical properties :
#
#
# Convention : Reuss Voigt Hill
#
# Bulk Modulus (GPa) = 58.16003 60.44215 59.30109
# Shear Modulus (GPa) = 24.66917 25.12978 24.89947
#
# Velocity S-wave (km/s) = 3.78939 3.82460 3.80703
# Velocity P-wave (km/s) = 7.28010 7.39498 7.33776
#
# Compressibility (1/GPa) = 0.01719394
#
# Stress axis : x y z
#
# Youngs Moduli (GPa) = 68.74910 68.74910 65.51684
#
# Poissons Ratio (x) = 0.46640 0.22263
# Poissons Ratio (y) = 0.46640 0.22263
# Poissons Ratio (z) = 0.23361 0.23361
#
# Static dielectric constant tensor:
#      x y z
#    x 1.578690 0.000000 0.000000 
#    y 0.000000 1.578690 0.000000 
#    z 0.000000 0.000000 1.592400 
# 
# From -- ./inp_files/5610.got.cif
#   From: 2010.05.17/outbox.cif.g08.bks.cpg/sg109_3_cif.got.tgz:5610.got - 2010.05.20 10:51:12.
