data_PCOD9554572
_publ_section_title
;
Structure prediction by ZEFSAII (Michael W. Deem and Ramdas Pophale) SiO2 
 PCOD9554572
Probable space group: I 41 C D
;
_chemical_formula_sum "Si O2"
_cell_formula_units_Z 32
_cell_length_a 10.092849
_cell_length_b 10.092849
_cell_length_c 11.138220
_cell_angle_alpha 90.000000
_cell_angle_beta 90.000000
_cell_angle_gamma 90.000000
_cell_volume 1134.601474
_symmetry_space_group_name_H-M "I 41 C D"
_symmetry_group_IT_number 110
_symmetry_cell_setting 'tetragonal'
loop_
_space_group_symop_operation_xyz
x,y,z
-y,1/2+x,1/4+z
-x,-y,z
y,1/2-x,1/4+z
-x,y,1/2+z
x,-y,1/2+z
1/2-y,-x,1/4+z
1/2+y,x,1/4+z
1/2+x,1/2+y,1/2+z
1/2-y,x,3/4+z
1/2-x,1/2-y,1/2+z
1/2+y,-x,3/4+z
1/2-x,1/2+y,z
1/2+x,1/2-y,z
-y,1/2-x,3/4+z
y,1/2+x,3/4+z
loop_
_atom_site_type_symbol
_atom_site_label
_atom_site_fract_x
_atom_site_fract_y
_atom_site_fract_z
Si Si1 0.576429 0.650472 0.061800
Si Si2 0.722604 0.930216 0.057057
O O1 0.686215 0.773377 0.052295
O O2 0.491537 0.689377 0.177584
O O3 0.641404 0.508434 0.081995
O O4 0.518587 0.648984 0.927152
#
# Coordination Sequence:
#
# PCOD9554572 Si02
#       2
#    16  16
#     4  10  24  48  76 108 146 194 244 300 362 434
#     4  10  24  46  76 106 146 192 244 296 362 434
#
# _framework density 28.203737
#
# number of rings (size 3 to 8) (size 9 to 14) (size 15 to 20)
#    0.000    2.000    0.000    0.000    0.000   22.000 
#    0.000   30.000    0.000    0.000    0.000    0.000 
#    0.000    0.000    0.000    0.000    0.000    0.000 
#
# Total GULP energy -89257.070343 kJ/mol
# GULP energy per Si atom -5578.566896 kJ/mol
# Density = 2.813954 g / cm^3
# Si number density = 28.203737 Si / 1000 Ang^3
#
#
#
# Elastic Constant Matrix: (Units=GPa)
#
#
# Indices 1 2 3 4 5 6 
#
# 1 131.5029 29.5762 32.0632 0.0000 0.0000 0.0000
# 2 29.5762 131.5029 32.0632 0.0000 0.0000 0.0000
# 3 32.0632 32.0632 109.5896 0.0000 0.0000 0.0000
# 4 0.0000 0.0000 0.0000 51.6520 0.0000 0.0000
# 5 0.0000 0.0000 0.0000 0.0000 51.6520 0.0000
# 6 0.0000 0.0000 0.0000 0.0000 0.0000 77.6499
#
#
#
# Elastic Compliance Matrix: (Units=1/GPa)
#
#
# Indices 1 2 3 4 5 6 
#
# 1 0.008419 -0.001392 -0.002056 0.000000 0.000000 0.000000
# 2 -0.001392 0.008419 -0.002056 0.000000 0.000000 0.000000
# 3 -0.002056 -0.002056 0.010328 0.000000 0.000000 0.000000
# 4 0.000000 0.000000 0.000000 0.019360 0.000000 0.000000
# 5 0.000000 0.000000 0.000000 0.000000 0.019360 0.000000
# 6 0.000000 0.000000 0.000000 0.000000 0.000000 0.012878
#
#
# Mechanical properties :
#
#
# Convention : Reuss Voigt Hill
#
# Bulk Modulus (GPa) = 61.88951 62.22230 62.05591
# Shear Modulus (GPa) = 52.54421 54.78363 53.66392
#
# Velocity S-wave (km/s) = 4.32096 4.41208 4.36675
# Velocity P-wave (km/s) = 6.84731 6.93288 6.89023
#
# Compressibility (1/GPa) = 0.01615783
#
# Stress axis : x y z
#
# Youngs Moduli (GPa) = 118.78232 118.78232 96.82503
#
# Poissons Ratio (x) = 0.16537 0.19905
# Poissons Ratio (y) = 0.16537 0.19905
# Poissons Ratio (z) = 0.24419 0.24419
#
# Static dielectric constant tensor:
#      x y z
#    x 2.442640 0.000000 0.000000 
#    y 0.000000 2.442640 0.000000 
#    z 0.000000 0.000000 2.134690 
# 
# From -- ./inp_files/589.got.cif
#   From: 2010.05.17/outbox.cif.g08.bks.cpg/sg110_1_cif.got.tgz:589.got - 2010.05.20 10:54:03.
