data_PCOD9554486
_publ_section_title
;
Structure prediction by ZEFSAII (Michael W. Deem and Ramdas Pophale) SiO2 
 PCOD9554486
Probable space group: I 41 C D
;
_chemical_formula_sum "Si O2"
_cell_formula_units_Z 112
_cell_length_a 15.343271
_cell_length_b 15.343271
_cell_length_c 18.750838
_cell_angle_alpha 90.000000
_cell_angle_beta 90.000000
_cell_angle_gamma 90.000000
_cell_volume 4414.246622
_symmetry_space_group_name_H-M "I 41 C D"
_symmetry_group_IT_number 110
_symmetry_cell_setting 'tetragonal'
loop_
_space_group_symop_operation_xyz
x,y,z
-y,1/2+x,1/4+z
-x,-y,z
y,1/2-x,1/4+z
-x,y,1/2+z
x,-y,1/2+z
1/2-y,-x,1/4+z
1/2+y,x,1/4+z
1/2+x,1/2+y,1/2+z
1/2-y,x,3/4+z
1/2-x,1/2-y,1/2+z
1/2+y,-x,3/4+z
1/2-x,1/2+y,z
1/2+x,1/2-y,z
-y,1/2-x,3/4+z
y,1/2+x,3/4+z
loop_
_atom_site_type_symbol
_atom_site_label
_atom_site_fract_x
_atom_site_fract_y
_atom_site_fract_z
Si Si1 0.385027 0.106824 0.558760
Si Si2 0.309675 0.646949 0.229580
Si Si3 0.187490 0.515933 0.169874
Si Si4 0.849659 0.965703 0.421374
Si Si5 0.498076 0.355847 0.180623
Si Si6 0.407369 0.591190 0.039956
Si Si7 0.772829 0.271737 0.838991
O O1 0.470003 0.116015 0.608577
O O2 0.333515 0.196798 0.561483
O O3 0.319713 0.038194 0.597513
O O4 0.402284 0.073498 0.479356
O O5 0.275542 0.555337 0.200875
O O6 0.412809 0.647074 0.226102
O O7 0.277993 0.721797 0.173912
O O8 0.269327 0.677190 0.303978
O O9 0.149292 0.452192 0.229355
O O10 0.124646 0.599988 0.163112
O O11 0.744916 0.969363 0.419099
O O12 0.883075 0.003545 0.497849
O O13 0.527922 0.402145 0.107474
O O14 0.318106 0.637771 0.063884
#
# Coordination Sequence:
#
# PCOD9554486 Si02
#       7
#    16  16  16  16  16  16  16
#     4  11  22  41  67 100 133 181 230 276 355 416
#     4  11  22  41  65  99 129 172 234 281 334 411
#     4  11  25  41  67  97 136 186 227 276 359 424
#     4  11  22  47  67  91 147 187 218 287 369 413
#     4  11  23  40  72 101 132 182 236 292 338 418
#     4  10  21  42  66  93 133 179 225 280 355 405
#     4  11  21  42  69  91 133 178 217 283 337 412
#
# _framework density 25.372394
#
# number of rings (size 3 to 8) (size 9 to 14) (size 15 to 20)
#    0.000    1.143    4.286    4.286    2.000    3.429 
#    2.571    5.714    3.143    0.000    0.000    0.000 
#    0.000    0.000    0.000    0.000    0.000    0.000 
#
# Total GULP energy -313797.373498 kJ/mol
# GULP energy per Si atom -5603.524527 kJ/mol
# Density = 2.531464 g / cm^3
# Si number density = 25.372394 Si / 1000 Ang^3
#
#
#
# Elastic Constant Matrix: (Units=GPa)
#
#
# Indices 1 2 3 4 5 6 
#
# 1 61.9437 4.1270 11.7678 0.0000 0.0000 0.0000
# 2 4.1270 61.9437 11.7678 0.0000 0.0000 0.0000
# 3 11.7678 11.7678 133.1265 0.0000 0.0000 0.0000
# 4 0.0000 0.0000 0.0000 31.6148 0.0000 0.0000
# 5 0.0000 0.0000 0.0000 0.0000 31.6148 0.0000
# 6 0.0000 0.0000 0.0000 0.0000 0.0000 22.8188
#
#
#
# Elastic Compliance Matrix: (Units=1/GPa)
#
#
# Indices 1 2 3 4 5 6 
#
# 1 0.016462 -0.000834 -0.001381 0.000000 0.000000 0.000000
# 2 -0.000834 0.016462 -0.001381 0.000000 0.000000 0.000000
# 3 -0.001381 -0.001381 0.007756 0.000000 0.000000 0.000000
# 4 0.000000 0.000000 0.000000 0.031631 0.000000 0.000000
# 5 0.000000 0.000000 0.000000 0.000000 0.031631 0.000000
# 6 0.000000 0.000000 0.000000 0.000000 0.000000 0.043823
#
#
# Mechanical properties :
#
#
# Convention : Reuss Voigt Hill
#
# Bulk Modulus (GPa) = 29.86407 34.70435 32.28421
# Shear Modulus (GPa) = 30.09869 32.49977 31.29923
#
# Velocity S-wave (km/s) = 3.44797 3.58286 3.51607
# Velocity P-wave (km/s) = 5.25806 5.55190 5.40698
#
# Compressibility (1/GPa) = 0.03348506
#
# Stress axis : x y z
#
# Youngs Moduli (GPa) = 60.74703 60.74703 128.93457
#
# Poissons Ratio (x) = 0.05068 0.17811
# Poissons Ratio (y) = 0.05068 0.17811
# Poissons Ratio (z) = 0.08392 0.08392
#
# Static dielectric constant tensor:
#      x y z
#    x 1.991970 0.000000 0.000000 
#    y 0.000000 1.991970 0.000000 
#    z 0.000000 0.000000 2.024030 
# 
# From -- ./inp_files/2300.got.cif
#   From: 2010.05.17/outbox.cif.g08.bks.cpg/sg110_2_cif.got.tgz:2300.got - 2010.05.20 10:54:03.
