data_PCOD9554142
_publ_section_title
;
Structure prediction by ZEFSAII (Michael W. Deem and Ramdas Pophale) SiO2 
 PCOD9554142
Probable space group: I 41 M D
;
_chemical_formula_sum "Si O2"
_cell_formula_units_Z 112
_cell_length_a 15.492608
_cell_length_b 15.492608
_cell_length_c 22.696741
_cell_angle_alpha 90.000000
_cell_angle_beta 90.000000
_cell_angle_gamma 90.000000
_cell_volume 5447.692262
_symmetry_space_group_name_H-M "I 41 M D"
_symmetry_group_IT_number 109
_symmetry_cell_setting 'tetragonal'
loop_
_space_group_symop_operation_xyz
x,y,z
-y,1/2+x,1/4+z
-x,-y,z
y,1/2-x,1/4+z
-x,y,z
x,-y,z
-y,1/2-x,1/4+z
y,1/2+x,1/4+z
1/2+x,1/2+y,1/2+z
1/2-y,x,3/4+z
1/2-x,1/2-y,1/2+z
1/2+y,-x,3/4+z
1/2-x,1/2+y,1/2+z
1/2+x,1/2-y,1/2+z
1/2-y,-x,3/4+z
1/2+y,x,3/4+z
loop_
_atom_site_type_symbol
_atom_site_label
_atom_site_fract_x
_atom_site_fract_y
_atom_site_fract_z
Si Si1 0.840355 0.687860 0.940810
Si Si2 0.597831 0.626980 0.435656
Si Si3 0.202905 0.098820 0.051797
Si Si4 0.099194 0.099900 0.805866
Si Si5 0.180563 0.739484 0.496149
Si Si6 0.602365 0.904039 0.915616
Si Si7 0.101214 0.396651 0.820031
O O1 0.902317 0.770114 0.940574
O O2 0.744634 0.727029 0.944514
O O3 0.867055 0.630611 0.885439
O O4 0.848589 0.642069 0.003745
O O5 0.500000 0.594151 0.438716
O O6 0.654509 0.594217 0.489185
O O7 0.636628 0.607404 0.371359
O O8 0.134371 0.125337 0.101759
O O9 0.235305 0.000000 0.065026
O O10 0.268950 0.178335 0.043130
O O11 0.000000 0.128415 0.811546
O O12 0.100787 0.000000 0.788406
O O13 0.121649 0.668715 0.463950
O O14 0.140203 0.824562 0.526354
O O15 0.500000 0.913639 0.914243
O O16 0.640542 0.000000 0.926732
O O17 0.101249 0.500000 0.815220
O O18 0.000000 0.368070 0.810917
#
# Coordination Sequence:
#
# PCOD9554142 Si02
#       7
#    16  16  16  16  16  16  16
#     4  11  22  36  56  83 116 154 195 242 300 367
#     4  10  20  33  52  81 118 157 194 234 284 347
#     4  10  21  37  59  88 123 162 203 250 306 370
#     4  10  20  34  53  77 108 148 193 239 285 341
#     4  11  23  40  60  89 123 159 202 258 315 375
#     4  10  21  39  64  90 119 160 209 261 317 378
#     4  11  24  42  64  88 117 157 206 261 320 381
#
# _framework density 20.559166000000001
#
# number of rings (size 3 to 8) (size 9 to 14) (size 15 to 20)
#    0.000    1.571    0.000    5.143    0.000    8.286 
#    0.000    7.143    0.000    0.000    0.000    6.000 
#    0.000    0.000    0.000    0.000    0.000    0.000 
#
# Total GULP energy -312416.807684 kJ/mol
# GULP energy per Si atom -5578.871566 kJ/mol
# Density = 2.051237 g / cm^3
# Si number density = 20.559166 Si / 1000 Ang^3
#
#
#
# Elastic Constant Matrix: (Units=GPa)
#
#
# Indices 1 2 3 4 5 6 
#
# 1 100.7317 39.8102 34.7776 0.0000 0.0000 0.0000
# 2 39.8102 100.7317 34.7776 0.0000 0.0000 0.0000
# 3 34.7776 34.7776 89.4780 0.0000 0.0000 0.0000
# 4 0.0000 0.0000 0.0000 31.6550 0.0000 0.0000
# 5 0.0000 0.0000 0.0000 0.0000 31.6550 0.0000
# 6 0.0000 0.0000 0.0000 0.0000 0.0000 6.3087
#
#
#
# Elastic Compliance Matrix: (Units=1/GPa)
#
#
# Indices 1 2 3 4 5 6 
#
# 1 0.012612 -0.003802 -0.003424 0.000000 0.000000 0.000000
# 2 -0.003802 0.012612 -0.003424 0.000000 0.000000 0.000000
# 3 -0.003424 -0.003424 0.013838 0.000000 0.000000 0.000000
# 4 0.000000 0.000000 0.000000 0.031591 0.000000 0.000000
# 5 0.000000 0.000000 0.000000 0.000000 0.031591 0.000000
# 6 0.000000 0.000000 0.000000 0.000000 0.000000 0.158511
#
#
# Mechanical properties :
#
#
# Convention : Reuss Voigt Hill
#
# Bulk Modulus (GPa) = 56.30349 56.63025 56.46687
# Shear Modulus (GPa) = 17.36253 26.02880 21.69566
#
# Velocity S-wave (km/s) = 2.90921 3.56201 3.25203
# Velocity P-wave (km/s) = 6.22336 6.67248 6.45183
#
# Compressibility (1/GPa) = 0.01776089
#
# Stress axis : x y z
#
# Youngs Moduli (GPa) = 79.28781 79.28781 72.26634
#
# Poissons Ratio (x) = 0.30148 0.24745
# Poissons Ratio (y) = 0.30148 0.24745
# Poissons Ratio (z) = 0.27150 0.27150
#
# Static dielectric constant tensor:
#      x y z
#    x 1.744920 0.000000 0.000000 
#    y 0.000000 1.744920 0.000000 
#    z 0.000000 0.000000 1.742200 
# 
# From -- ./inp_files/4459.got.cif
#   From: 2010.05.17/outbox.cif.g08.bks.cpg/sg109_3_cif.got.tgz:4459.got - 2010.05.20 10:51:12.
