data_PCOD9554889
_publ_section_title
;
Structure prediction by ZEFSAII (Michael W. Deem and Ramdas Pophale) SiO2 
 PCOD9554889
Probable space group: P -4 2 M 
;
_chemical_formula_sum "Si O2"
_cell_formula_units_Z 24
_cell_length_a 14.461524
_cell_length_b 14.461524
_cell_length_c 4.910998
_cell_angle_alpha 90.000000
_cell_angle_beta 90.000000
_cell_angle_gamma 90.000000
_cell_volume 1027.064889
_symmetry_space_group_name_H-M "P -4 2 M "
_symmetry_group_IT_number 111
_symmetry_cell_setting 'tetragonal'
loop_
_space_group_symop_operation_xyz
x,y,z
y,-x,-z
-x,-y,z
-y,x,-z
x,-y,-z
-x,y,-z
-y,-x,z
y,x,z
loop_
_atom_site_type_symbol
_atom_site_label
_atom_site_fract_x
_atom_site_fract_y
_atom_site_fract_z
Si Si1 0.600124 0.758876 0.045950
Si Si2 0.888874 0.372190 0.472567
Si Si3 0.945077 0.807160 0.248301
O O1 0.683531 0.683531 0.068327
O O2 0.580303 0.822558 0.309197
O O3 0.500000 0.711644 0.000000
O O4 0.623207 0.835611 0.813091
O O5 0.887570 0.268313 0.589317
O O6 0.000000 0.396526 0.500000
O O7 0.883124 0.883124 0.106593
O O8 0.000000 0.850236 0.500000
O O9 0.000000 0.761216 0.000000
#
# Coordination Sequence:
#
# PCOD9554889 Si02
#       3
#     8   8   8
#     4  12  26  45  71 101 137 180 225 278 336 400
#     4  11  24  43  68  99 133 173 221 275 337 401
#     4  11  22  36  56  84 124 173 223 277 332 392
#
# _framework density 23.367559
#
# number of rings (size 3 to 8) (size 9 to 14) (size 15 to 20)
#    0.000    0.667    0.000   10.000    0.000    6.333 
#    0.000    0.000    0.000    4.000    0.000    0.000 
#    0.000    0.000    0.000    0.000    0.000    0.000 
#
# Total GULP energy -133740.976922 kJ/mol
# GULP energy per Si atom -5572.540705 kJ/mol
# Density = 2.331437 g / cm^3
# Si number density = 23.367559 Si / 1000 Ang^3
#
#
#
# Elastic Constant Matrix: (Units=GPa)
#
#
# Indices 1 2 3 4 5 6 
#
# 1 94.8054 87.4295 37.6432 0.0000 0.0000 0.0000
# 2 87.4295 94.8054 37.6432 0.0000 0.0000 0.0000
# 3 37.6432 37.6432 164.9506 0.0000 0.0000 0.0000
# 4 0.0000 0.0000 0.0000 26.5512 0.0000 0.0000
# 5 0.0000 0.0000 0.0000 0.0000 26.5512 0.0000
# 6 0.0000 0.0000 0.0000 0.0000 0.0000 -16.7015
#
#
#
# Elastic Compliance Matrix: (Units=1/GPa)
#
#
# Indices 1 2 3 4 5 6 
#
# 1 0.070817 -0.064759 -0.001383 0.000000 0.000000 0.000000
# 2 -0.064759 0.070817 -0.001383 0.000000 0.000000 0.000000
# 3 -0.001383 -0.001383 0.006693 0.000000 0.000000 0.000000
# 4 0.000000 0.000000 0.000000 0.037663 0.000000 0.000000
# 5 0.000000 0.000000 0.000000 0.000000 0.037663 0.000000
# 6 0.000000 0.000000 0.000000 0.000000 0.000000 -0.059875
#
#
# Mechanical properties :
#
#
# Convention : Reuss Voigt Hill
#
# Bulk Modulus (GPa) = 75.30006 75.55480 75.42743
# Shear Modulus (GPa) = 16.48784 20.06987 18.27886
#
# Velocity S-wave (km/s) = 2.65917 2.93384 2.79988
# Velocity P-wave (km/s) = 6.45929 6.62419 6.54226
#
# Compressibility (1/GPa) = 0.01328020
#
# Stress axis : x y z
#
# Youngs Moduli (GPa) = 14.12085 14.12085 149.39910
#
# Poissons Ratio (x) = 0.91445 0.20656
# Poissons Ratio (y) = 0.91445 0.20656
# Poissons Ratio (z) = 0.01952 0.01952
#
# Static dielectric constant tensor:
#      x y z
#    x 2.000920 0.000000 0.000000 
#    y 0.000000 2.000920 0.000000 
#    z 0.000000 0.000000 1.947240 
# 
# From -- ./inp_files/168.got.cif
#   From: 2010.05.17/outbox.cif.g08.bks.cpg/sg111_1_cif.got.tgz:168.got - 2010.05.20 10:56:05.
