data_PCOD9554454
_publ_section_title
;
Structure prediction by ZEFSAII (Michael W. Deem and Ramdas Pophale) SiO2 
 PCOD9554454
Probable space group: I 41 C D
;
_chemical_formula_sum "Si O2"
_cell_formula_units_Z 120
_cell_length_a 23.322774
_cell_length_b 23.322774
_cell_length_c 9.330968
_cell_angle_alpha 90.000000
_cell_angle_beta 90.000000
_cell_angle_gamma 90.000000
_cell_volume 5075.596719
_symmetry_space_group_name_H-M "I 41 C D"
_symmetry_group_IT_number 110
_symmetry_cell_setting 'tetragonal'
loop_
_space_group_symop_operation_xyz
x,y,z
-y,1/2+x,1/4+z
-x,-y,z
y,1/2-x,1/4+z
-x,y,1/2+z
x,-y,1/2+z
1/2-y,-x,1/4+z
1/2+y,x,1/4+z
1/2+x,1/2+y,1/2+z
1/2-y,x,3/4+z
1/2-x,1/2-y,1/2+z
1/2+y,-x,3/4+z
1/2-x,1/2+y,z
1/2+x,1/2-y,z
-y,1/2-x,3/4+z
y,1/2+x,3/4+z
loop_
_atom_site_type_symbol
_atom_site_label
_atom_site_fract_x
_atom_site_fract_y
_atom_site_fract_z
Si Si1 0.583715 0.301570 0.377700
Si Si2 0.762927 0.704045 0.745280
Si Si3 0.046924 0.679129 0.863572
Si Si4 0.874740 0.483382 0.323856
Si Si5 0.419154 0.651616 0.848007
Si Si6 0.681259 0.145409 0.342587
Si Si7 0.974774 0.383773 0.593604
Si Si8 0.000000 0.000000 0.017308
O O1 0.644061 0.289923 0.452435
O O2 0.544370 0.245810 0.407138
O O3 0.561064 0.359761 0.446872
O O4 0.597152 0.304084 0.209866
O O5 0.752845 0.702423 0.913502
O O6 0.702369 0.710104 0.658011
O O7 0.113769 0.661504 0.853722
O O8 0.020493 0.667188 0.709036
O O9 0.015554 0.634620 0.966523
O O10 0.860963 0.541441 0.237730
O O11 0.838785 0.461243 0.461986
O O12 0.942210 0.488623 0.357454
O O13 0.388027 0.592421 0.803328
O O14 0.373522 0.692915 0.928416
O O15 0.990680 0.443753 0.669395
#
# Coordination Sequence:
#
# PCOD9554454 Si02
#       8
#    16  16  16  16  16  16  16   8
#     4  10  21  38  60  85 121 162 205 257 315 379
#     4   9  19  36  60  88 118 158 205 259 318 378
#     4  10  21  37  57  84 119 157 200 255 313 374
#     4  11  22  36  57  87 120 158 208 255 310 381
#     4  10  22  36  55  83 116 156 201 253 308 372
#     4   9  19  38  58  81 116 159 203 252 313 377
#     4  10  21  36  56  84 117 153 200 251 310 371
#     4  10  22  38  62  90 122 164 208 262 318 376
#
# _framework density 23.64254
#
# number of rings (size 3 to 8) (size 9 to 14) (size 15 to 20)
#    0.000    2.133    0.000    2.400    0.000   11.200 
#    0.000    0.000    0.000    4.000    0.000    0.000 
#    0.000    0.000    0.000    0.000    0.000    0.000 
#
# Total GULP energy -334746.498689 kJ/mol
# GULP energy per Si atom -5579.108311 kJ/mol
# Density = 2.358873 g / cm^3
# Si number density = 23.642540 Si / 1000 Ang^3
#
#
#
# Elastic Constant Matrix: (Units=GPa)
#
#
# Indices 1 2 3 4 5 6 
#
# 1 40.2569 10.4160 18.7610 0.0000 0.0000 0.0000
# 2 10.4160 40.2569 18.7610 0.0000 0.0000 0.0000
# 3 18.7610 18.7610 73.1974 0.0000 0.0000 0.0000
# 4 0.0000 0.0000 0.0000 35.6853 0.0000 0.0000
# 5 0.0000 0.0000 0.0000 0.0000 35.6853 0.0000
# 6 0.0000 0.0000 0.0000 0.0000 0.0000 20.4551
#
#
#
# Elastic Compliance Matrix: (Units=1/GPa)
#
#
# Indices 1 2 3 4 5 6 
#
# 1 0.028934 -0.004577 -0.006243 0.000000 0.000000 0.000000
# 2 -0.004577 0.028934 -0.006243 0.000000 0.000000 0.000000
# 3 -0.006243 -0.006243 0.016862 0.000000 0.000000 0.000000
# 4 0.000000 0.000000 0.000000 0.028023 0.000000 0.000000
# 5 0.000000 0.000000 0.000000 0.000000 0.028023 0.000000
# 6 0.000000 0.000000 0.000000 0.000000 0.000000 0.048888
#
#
# Mechanical properties :
#
#
# Convention : Reuss Voigt Hill
#
# Bulk Modulus (GPa) = 24.62779 27.73192 26.17985
# Shear Modulus (GPa) = 21.99507 25.41667 23.70587
#
# Velocity S-wave (km/s) = 3.05342 3.28234 3.16995
# Velocity P-wave (km/s) = 4.78231 5.11078 4.94927
#
# Compressibility (1/GPa) = 0.04060453
#
# Stress axis : x y z
#
# Youngs Moduli (GPa) = 34.56129 34.56129 59.30528
#
# Poissons Ratio (x) = 0.15819 0.37024
# Poissons Ratio (y) = 0.15819 0.37024
# Poissons Ratio (z) = 0.21576 0.21576
#
# Static dielectric constant tensor:
#      x y z
#    x 1.954090 0.000000 0.000000 
#    y 0.000000 1.954090 0.000000 
#    z 0.000000 0.000000 1.911370 
# 
# From -- ./inp_files/549.got.cif
#   From: 2010.05.17/outbox.cif.g08.bks.cpg/sg110_1_cif.got.tgz:549.got - 2010.05.20 10:54:03.
