data_PCOD9554246
_publ_section_title
;
Structure prediction by ZEFSAII (Michael W. Deem and Ramdas Pophale) SiO2 
 PCOD9554246
Probable space group: I 41 M D
;
_chemical_formula_sum "Si O2"
_cell_formula_units_Z 76
_cell_length_a 16.618494
_cell_length_b 16.618494
_cell_length_c 15.663451
_cell_angle_alpha 90.000000
_cell_angle_beta 90.000000
_cell_angle_gamma 90.000000
_cell_volume 4325.843286
_symmetry_space_group_name_H-M "I 41 M D"
_symmetry_group_IT_number 109
_symmetry_cell_setting 'tetragonal'
loop_
_space_group_symop_operation_xyz
x,y,z
-y,1/2+x,1/4+z
-x,-y,z
y,1/2-x,1/4+z
-x,y,z
x,-y,z
-y,1/2-x,1/4+z
y,1/2+x,1/4+z
1/2+x,1/2+y,1/2+z
1/2-y,x,3/4+z
1/2-x,1/2-y,1/2+z
1/2+y,-x,3/4+z
1/2-x,1/2+y,1/2+z
1/2+x,1/2-y,1/2+z
1/2-y,-x,3/4+z
1/2+y,x,3/4+z
loop_
_atom_site_type_symbol
_atom_site_label
_atom_site_fract_x
_atom_site_fract_y
_atom_site_fract_z
Si Si1 0.000000 0.247613 0.195630
Si Si2 0.741880 0.825777 0.330939
Si Si3 0.132090 0.500000 0.596135
Si Si4 0.153475 0.093775 0.464719
Si Si5 0.000000 0.658476 0.330225
Si Si6 0.500000 0.000000 0.947726
Si Si7 0.820875 0.329360 0.402983
O O1 0.000000 0.216628 0.296195
O O2 0.000000 0.340285 0.225442
O O3 0.080809 0.215096 0.152986
O O4 0.770041 0.885539 0.405242
O O5 0.653283 0.841725 0.295062
O O6 0.758533 0.735736 0.364852
O O7 0.801533 0.836682 0.250310
O O8 0.118240 0.423193 0.656061
O O9 0.073400 0.500000 0.514748
O O10 0.148318 0.000000 0.485129
O O11 0.905903 0.679525 0.356373
O O12 0.000000 0.575463 0.386228
#
# Coordination Sequence:
#
# PCOD9554246 Si02
#       7
#     8  16   8  16   8   4  16
#     4  12  20  32  58  82 113 152 173 224 283 331
#     4  10  22  34  54  80 114 144 186 223 272 344
#     4  12  20  32  54  92 116 134 171 224 285 354
#     4  11  22  36  57  82 114 146 182 229 282 325
#     4  12  20  32  56  78 122 143 174 226 279 336
#     4  12  20  32  52  88 122 138 178 212 284 356
#     4  11  20  35  53  84 113 147 183 221 281 343
#
# _framework density 17.568828
#
# number of rings (size 3 to 8) (size 9 to 14) (size 15 to 20)
#    0.000    0.842    7.368    1.263    2.947    0.000 
#    0.000    0.000   11.579    0.000    0.000    0.000 
#    0.000    0.000    0.000    0.000    0.000    0.000 
#
# Total GULP energy -211617.575666 kJ/mol
# GULP energy per Si atom -5568.883570 kJ/mol
# Density = 1.752884 g / cm^3
# Si number density = 17.568828 Si / 1000 Ang^3
#
#
#
# Elastic Constant Matrix: (Units=GPa)
#
#
# Indices 1 2 3 4 5 6 
#
# 1 96.4451 24.5749 22.5229 0.0000 0.0000 0.0000
# 2 24.5749 96.4451 22.5229 0.0000 0.0000 0.0000
# 3 22.5229 22.5229 33.3062 0.0000 0.0000 0.0000
# 4 0.0000 0.0000 0.0000 28.1269 0.0000 0.0000
# 5 0.0000 0.0000 0.0000 0.0000 28.1269 0.0000
# 6 0.0000 0.0000 0.0000 0.0000 0.0000 17.9215
#
#
#
# Elastic Compliance Matrix: (Units=1/GPa)
#
#
# Indices 1 2 3 4 5 6 
#
# 1 0.012478 -0.001436 -0.007467 0.000000 0.000000 0.000000
# 2 -0.001436 0.012478 -0.007467 0.000000 0.000000 0.000000
# 3 -0.007467 -0.007467 0.040124 0.000000 0.000000 0.000000
# 4 0.000000 0.000000 0.000000 0.035553 0.000000 0.000000
# 5 0.000000 0.000000 0.000000 0.000000 0.035553 0.000000
# 6 0.000000 0.000000 0.000000 0.000000 0.000000 0.055799
#
#
# Mechanical properties :
#
#
# Convention : Reuss Voigt Hill
#
# Bulk Modulus (GPa) = 30.92197 40.60418 35.76308
# Shear Modulus (GPa) = 21.23079 25.27341 23.25210
#
# Velocity S-wave (km/s) = 3.48003 3.79692 3.64192
# Velocity P-wave (km/s) = 5.81258 6.51028 6.17130
#
# Compressibility (1/GPa) = 0.03233947
#
# Stress axis : x y z
#
# Youngs Moduli (GPa) = 80.13913 80.13913 24.92273
#
# Poissons Ratio (x) = 0.11505 0.18611
# Poissons Ratio (y) = 0.11505 0.18611
# Poissons Ratio (z) = 0.59843 0.59843
#
# Static dielectric constant tensor:
#      x y z
#    x 1.646520 0.000000 0.000000 
#    y 0.000000 1.646520 0.000000 
#    z 0.000000 0.000000 1.612710 
# 
# From -- ./inp_files/2514.got.cif
#   From: 2010.05.17/outbox.cif.g08.bks.cpg/sg109_2_cif.got.tgz:2514.got - 2010.05.20 10:51:12.
