data_PCOD9554914
_publ_section_title
;
Structure prediction by ZEFSAII (Michael W. Deem and Ramdas Pophale) SiO2 
 PCOD9554914
Probable space group: P -4 2 C
;
_chemical_formula_sum "Si O2"
_cell_formula_units_Z 44
_cell_length_a 25.918311
_cell_length_b 25.918311
_cell_length_c 5.513713
_cell_angle_alpha 90.000000
_cell_angle_beta 90.000000
_cell_angle_gamma 90.000000
_cell_volume 3703.885477
_symmetry_space_group_name_H-M "P -4 2 C"
_symmetry_group_IT_number 112
_symmetry_cell_setting 'tetragonal'
loop_
_space_group_symop_operation_xyz
x,y,z
y,-x,-z
-x,-y,z
-y,x,-z
x,-y,1/2-z
-x,y,1/2-z
-y,-x,1/2+z
y,x,1/2+z
loop_
_atom_site_type_symbol
_atom_site_label
_atom_site_fract_x
_atom_site_fract_y
_atom_site_fract_z
Si Si1 0.172865 0.138279 0.818693
Si Si2 0.946078 0.249836 0.100531
Si Si3 0.032811 0.637922 0.999885
Si Si4 0.521128 0.940120 0.001260
Si Si5 0.938154 0.084758 0.599931
Si Si6 0.000000 0.823412 0.750000
O O1 0.165107 0.174288 0.583398
O O2 0.221569 0.101260 0.771890
O O3 0.121430 0.102628 0.852987
O O4 0.000000 0.249222 0.250000
O O5 0.936138 0.308683 0.024997
O O6 0.958466 0.213257 0.872490
O O7 0.000000 0.642078 0.750000
O O8 0.060433 0.582842 0.990038
O O9 0.000000 0.634983 0.250000
O O10 0.500000 0.917589 0.750000
O O11 0.500000 0.000000 0.001403
O O12 0.500000 0.916677 0.250000
O O13 0.940384 0.050623 0.361288
O O14 0.970950 0.137176 0.571577
#
# Coordination Sequence:
#
# PCOD9554914 Si02
#       6
#     8   8   8   8   8   4
#     4  10  19  34  45  56  71  92 111 125 164 224
#     4  11  22  29  44  63  80  86 108 145 176 191
#     4  11  19  27  37  60  79  94 116 140 162 186
#     4  10  15  25  41  50  72 107 125 129 146 184
#     4  10  20  32  45  59  66  82 107 118 153 211
#     4  12  20  30  50  57  69  86 100 134 164 196
#
# _framework density 11.879417999999999
#
# number of rings (size 3 to 8) (size 9 to 14) (size 15 to 20)
#    0.000    1.455    8.182    2.182    0.000    0.000 
#    0.000    0.000    0.000    1.636    0.000    0.000 
#    0.000    0.000    0.000    0.000    0.000    0.000 
#
# Total GULP energy -245127.375690 kJ/mol
# GULP energy per Si atom -5571.076720 kJ/mol
# Density = 1.185238 g / cm^3
# Si number density = 11.879418 Si / 1000 Ang^3
#
#
#
# Elastic Constant Matrix: (Units=GPa)
#
#
# Indices 1 2 3 4 5 6 
#
# 1 57.3489 19.8057 12.5239 0.0000 0.0000 0.0000
# 2 19.8057 57.3489 12.5239 0.0000 0.0000 0.0000
# 3 12.5239 12.5239 94.4752 0.0000 0.0000 0.0000
# 4 0.0000 0.0000 0.0000 69.6904 0.0000 0.0000
# 5 0.0000 0.0000 0.0000 0.0000 69.6904 0.0000
# 6 0.0000 0.0000 0.0000 0.0000 0.0000 0.2861
#
#
#
# Elastic Compliance Matrix: (Units=1/GPa)
#
#
# Indices 1 2 3 4 5 6 
#
# 1 0.020090 -0.006546 -0.001795 0.000000 0.000000 0.000000
# 2 -0.006546 0.020090 -0.001795 0.000000 0.000000 0.000000
# 3 -0.001795 -0.001795 0.011061 0.000000 0.000000 0.000000
# 4 0.000000 0.000000 0.000000 0.014349 0.000000 0.000000
# 5 0.000000 0.000000 0.000000 0.000000 0.014349 0.000000
# 6 0.000000 0.000000 0.000000 0.000000 0.000000 3.495514
#
#
# Mechanical properties :
#
#
# Convention : Reuss Voigt Hill
#
# Bulk Modulus (GPa) = 32.29260 33.20890 32.75075
# Shear Modulus (GPa) = 1.38656 38.88800 20.13728
#
# Velocity S-wave (km/s) = 1.08154 5.72771 4.12167
# Velocity P-wave (km/s) = 5.36678 8.47100 7.09085
#
# Compressibility (1/GPa) = 0.03096685
#
# Stress axis : x y z
#
# Youngs Moduli (GPa) = 49.77623 49.77623 90.40934
#
# Poissons Ratio (x) = 0.32584 0.16232
# Poissons Ratio (y) = 0.32584 0.16232
# Poissons Ratio (z) = 0.08937 0.08937
#
# Static dielectric constant tensor:
#      x y z
#    x 1.353620 0.000000 0.000000 
#    y 0.000000 1.353620 0.000000 
#    z 0.000000 0.000000 1.525720 
# 
# From -- ./inp_files/424.got.cif
#   From: 2010.05.17/outbox.cif.g08.bks.cpg/sg112_1_cif.got.tgz:424.got - 2010.05.20 10:59:04.
