data_PCOD9554800
_publ_section_title
;
Structure prediction by ZEFSAII (Michael W. Deem and Ramdas Pophale) SiO2 
 PCOD9554800
Probable space group: P -4 2 M 
;
_chemical_formula_sum "Si O2"
_cell_formula_units_Z 48
_cell_length_a 16.816769
_cell_length_b 16.816769
_cell_length_c 7.271291
_cell_angle_alpha 90.000000
_cell_angle_beta 90.000000
_cell_angle_gamma 90.000000
_cell_volume 2056.348141
_symmetry_space_group_name_H-M "P -4 2 M "
_symmetry_group_IT_number 111
_symmetry_cell_setting 'tetragonal'
loop_
_space_group_symop_operation_xyz
x,y,z
y,-x,-z
-x,-y,z
-y,x,-z
x,-y,-z
-x,y,-z
-y,-x,z
y,x,z
loop_
_atom_site_type_symbol
_atom_site_label
_atom_site_fract_x
_atom_site_fract_y
_atom_site_fract_z
Si Si1 0.725313 0.924924 0.892937
Si Si2 0.147092 0.269557 0.518342
Si Si3 0.660400 0.464982 0.800169
Si Si4 0.602910 0.824124 0.062339
Si Si5 0.615009 0.036119 0.686007
Si Si6 0.564713 0.217631 0.352194
O O1 0.763096 0.891687 0.707340
O O2 0.643555 0.964609 0.813385
O O3 0.693628 0.852012 0.016355
O O4 0.763263 0.000000 0.000000
O O5 0.203532 0.203532 0.434927
O O6 0.079577 0.305263 0.389299
O O7 0.198703 0.347769 0.574055
O O8 0.589706 0.410295 0.731154
O O9 0.740424 0.410293 0.833366
O O10 0.691297 0.537893 0.677214
O O11 0.639262 0.500000 0.000000
O O12 0.573937 0.898001 0.188336
O O13 0.565028 0.811697 0.860430
O O14 0.579504 0.000000 0.500000
O O15 0.500000 0.185189 0.500000
#
# Coordination Sequence:
#
# PCOD9554800 Si02
#       6
#     8   8   8   8   8   8
#     4   8  16  32  54  79 113 147 178 233 291 344
#     4  10  20  34  56  83 112 151 198 241 287 349
#     4  10  22  39  59  81 108 145 192 248 307 364
#     4   9  18  33  55  77 105 146 193 234 289 355
#     4   9  17  32  56  83 116 151 184 237 296 349
#     4  10  21  35  53  78 114 149 191 246 300 348
#
# _framework density 23.342352000000002
#
# number of rings (size 3 to 8) (size 9 to 14) (size 15 to 20)
#    0.000    2.667    0.000    1.000    0.000    8.833 
#    0.000    4.167    0.000  220.000    0.000    1.167 
#    0.000   39.333    0.000    0.000    0.000    0.000 
#
# Total GULP energy -267563.136462 kJ/mol
# GULP energy per Si atom -5574.232010 kJ/mol
# Density = 2.328922 g / cm^3
# Si number density = 23.342352 Si / 1000 Ang^3
#
#
#
# Elastic Constant Matrix: (Units=GPa)
#
#
# Indices 1 2 3 4 5 6 
#
# 1 60.7193 47.5657 2.5164 0.0000 0.0000 0.0000
# 2 47.5657 60.7169 2.5161 0.0000 0.0000 0.0000
# 3 2.5164 2.5161 103.1912 0.0000 0.0000 0.0000
# 4 0.0000 0.0000 0.0000 17.2194 0.0000 0.0000
# 5 0.0000 0.0000 0.0000 0.0000 17.2192 0.0000
# 6 0.0000 0.0000 0.0000 0.0000 0.0000 19.5419
#
#
#
# Elastic Compliance Matrix: (Units=1/GPa)
#
#
# Indices 1 2 3 4 5 6 
#
# 1 0.042638 -0.033393 -0.000226 0.000000 0.000000 0.000000
# 2 -0.033393 0.042639 -0.000225 0.000000 0.000000 0.000000
# 3 -0.000226 -0.000225 0.009702 0.000000 0.000000 0.000000
# 4 0.000000 0.000000 0.000000 0.058074 0.000000 0.000000
# 5 0.000000 0.000000 0.000000 0.000000 0.058075 0.000000
# 6 0.000000 0.000000 0.000000 0.000000 0.000000 0.051172
#
#
# Mechanical properties :
#
#
# Convention : Reuss Voigt Hill
#
# Bulk Modulus (GPa) = 36.64223 36.64707 36.64465
# Shear Modulus (GPa) = 14.74556 22.26471 18.50514
#
# Velocity S-wave (km/s) = 2.51611 3.09177 2.81867
# Velocity P-wave (km/s) = 4.91659 5.33660 5.13090
#
# Compressibility (1/GPa) = 0.02729091
#
# Stress axis : x y z
#
# Youngs Moduli (GPa) = 23.45335 23.45244 103.07430
#
# Poissons Ratio (x) = 0.78315 0.02325
# Poissons Ratio (y) = 0.78318 0.02323
# Poissons Ratio (z) = 0.00529 0.00529
#
# Static dielectric constant tensor:
#      x y z
#    x 1.908460 0.000000 0.000000 
#    y 0.000000 1.908460 0.000000 
#    z 0.000000 0.000000 2.011850 
# 
# From -- ./inp_files/1745.got.cif
#   From: 2010.05.17/outbox.cif.g08.bks.cpg/sg111_1_cif.got.tgz:1745.got - 2010.05.20 10:56:05.
