data_PCOD9554785
_publ_section_title
;
Structure prediction by ZEFSAII (Michael W. Deem and Ramdas Pophale) SiO2 
 PCOD9554785
Probable space group: P -4 2 M 
;
_chemical_formula_sum "Si O2"
_cell_formula_units_Z 64
_cell_length_a 12.574153
_cell_length_b 12.574153
_cell_length_c 22.731196
_cell_angle_alpha 90.000000
_cell_angle_beta 90.000000
_cell_angle_gamma 90.000000
_cell_volume 3594.014026
_symmetry_space_group_name_H-M "P -4 2 M "
_symmetry_group_IT_number 111
_symmetry_cell_setting 'tetragonal'
loop_
_space_group_symop_operation_xyz
x,y,z
y,-x,-z
-x,-y,z
-y,x,-z
x,-y,-z
-x,y,-z
-y,-x,z
y,x,z
loop_
_atom_site_type_symbol
_atom_site_label
_atom_site_fract_x
_atom_site_fract_y
_atom_site_fract_z
Si Si1 0.790968 0.387933 0.633168
Si Si2 0.124192 0.493135 0.845531
Si Si3 0.924017 0.254218 0.555734
Si Si4 0.686844 0.867811 0.243923
Si Si5 0.430775 0.748781 0.441310
Si Si6 0.324256 0.501036 0.929510
Si Si7 0.292610 0.111738 0.759509
Si Si8 0.288645 0.889163 0.373465
O O1 0.705236 0.294765 0.635137
O O2 0.865843 0.361120 0.577102
O O3 0.854847 0.375896 0.693718
O O4 0.731426 0.495205 0.615857
O O5 0.145340 0.596819 0.805500
O O6 0.212926 0.492679 0.896036
O O7 0.134744 0.387322 0.805150
O O8 0.000000 0.500000 0.865043
O O9 0.835673 0.164328 0.546669
O O10 0.000000 0.256843 0.500000
O O11 0.999620 0.233599 0.611776
O O12 0.778066 0.778066 0.241122
O O13 0.734791 0.986191 0.236060
O O14 0.500000 0.746122 0.500000
O O15 0.340642 0.659359 0.447061
O O16 0.374065 0.859492 0.423504
O O17 0.392678 0.607323 0.914698
O O18 0.401649 0.401649 0.914639
O O19 0.309425 0.500000 0.000000
O O20 0.193824 0.193824 0.766360
O O21 0.333658 0.119769 0.692021
O O22 0.199296 0.800705 0.378055
#
# Coordination Sequence:
#
# PCOD9554785 Si02
#       8
#     8   8   8   8   8   8   8   8
#     4  10  21  37  55  74  99 127 163 215 264 317
#     4  10  20  33  54  83 115 152 188 230 273 318
#     4  11  22  36  53  74  99 128 164 212 270 328
#     4  10  20  36  56  79 109 145 184 227 274 326
#     4  11  23  38  55  72  93 123 159 203 258 324
#     4   9  18  34  57  85 118 154 190 229 272 320
#     4  10  20  35  56  80 109 144 184 229 274 325
#     4  10  21  36  53  74 100 127 163 212 261 317
#
# _framework density 17.807389000000001
#
# number of rings (size 3 to 8) (size 9 to 14) (size 15 to 20)
#    0.000    1.875    1.250    3.375    0.000    4.750 
#    0.000    3.125    0.000    1.500    0.000    0.000 
#    0.000    0.000    0.000   23.250    0.000    0.125 
#
# Total GULP energy -356684.341297 kJ/mol
# GULP energy per Si atom -5573.192833 kJ/mol
# Density = 1.776686 g / cm^3
# Si number density = 17.807389 Si / 1000 Ang^3
#
#
#
# Elastic Constant Matrix: (Units=GPa)
#
#
# Indices 1 2 3 4 5 6 
#
# 1 79.2711 60.4116 49.4815 0.0000 0.0000 0.0000
# 2 60.4116 79.2869 49.5083 0.0000 0.0000 0.0000
# 3 49.4815 49.5083 73.2590 0.0000 0.0000 0.0000
# 4 0.0000 0.0000 0.0000 23.7751 0.0000 0.0000
# 5 0.0000 0.0000 0.0000 0.0000 23.7764 0.0000
# 6 0.0000 0.0000 0.0000 0.0000 0.0000 -0.3505
#
#
#
# Elastic Compliance Matrix: (Units=1/GPa)
#
#
# Indices 1 2 3 4 5 6 
#
# 1 0.033360 -0.019634 -0.009264 0.000000 0.000000 0.000000
# 2 -0.019634 0.033375 -0.009294 0.000000 0.000000 0.000000
# 3 -0.009264 -0.009294 0.026188 0.000000 0.000000 0.000000
# 4 0.000000 0.000000 0.000000 0.042061 0.000000 0.000000
# 5 0.000000 0.000000 0.000000 0.000000 0.042058 0.000000
# 6 0.000000 0.000000 0.000000 0.000000 0.000000 -2.853209
#
#
# Mechanical properties :
#
#
# Convention : Reuss Voigt Hill
#
# Bulk Modulus (GPa) = 60.45748 61.17998 60.81873
# Shear Modulus (GPa) = -1.92733 14.26792 6.17030
#
# Velocity S-wave (km/s) = -1.04147 2.83368 1.86348
# Velocity P-wave (km/s) = 5.70774 6.71844 6.23361
#
# Compressibility (1/GPa) = 0.01654055
#
# Stress axis : x y z
#
# Youngs Moduli (GPa) = 29.97565 29.96230 38.18504
#
# Poissons Ratio (x) = 0.58827 0.35376
# Poissons Ratio (y) = 0.58853 0.35488
# Poissons Ratio (z) = 0.27770 0.27846
#
# Static dielectric constant tensor:
#      x y z
#    x 1.625940 0.000000 0.000000 
#    y 0.000000 1.625940 0.000000 
#    z 0.000000 0.000000 1.610040 
# 
# From -- ./inp_files/4232.got.cif
#   From: 2010.05.17/outbox.cif.g08.bks.cpg/sg111_3_cif.got.tgz:4232.got - 2010.05.20 10:56:05.
