data_PCOD9554251
_publ_section_title
;
Structure prediction by ZEFSAII (Michael W. Deem and Ramdas Pophale) SiO2 
 PCOD9554251
Probable space group: I 41 M D
;
_chemical_formula_sum "Si O2"
_cell_formula_units_Z 80
_cell_length_a 11.281278
_cell_length_b 11.281278
_cell_length_c 31.915417
_cell_angle_alpha 90.000000
_cell_angle_beta 90.000000
_cell_angle_gamma 90.000000
_cell_volume 4061.786822
_symmetry_space_group_name_H-M "I 41 M D"
_symmetry_group_IT_number 109
_symmetry_cell_setting 'tetragonal'
loop_
_space_group_symop_operation_xyz
x,y,z
-y,1/2+x,1/4+z
-x,-y,z
y,1/2-x,1/4+z
-x,y,z
x,-y,z
-y,1/2-x,1/4+z
y,1/2+x,1/4+z
1/2+x,1/2+y,1/2+z
1/2-y,x,3/4+z
1/2-x,1/2-y,1/2+z
1/2+y,-x,3/4+z
1/2-x,1/2+y,1/2+z
1/2+x,1/2-y,1/2+z
1/2-y,-x,3/4+z
1/2+y,x,3/4+z
loop_
_atom_site_type_symbol
_atom_site_label
_atom_site_fract_x
_atom_site_fract_y
_atom_site_fract_z
Si Si1 0.747280 0.271252 0.905090
Si Si2 0.500000 0.140831 0.373176
Si Si3 0.633327 0.500000 0.733955
Si Si4 0.143274 0.000000 0.527222
Si Si5 0.360268 0.364081 0.578642
Si Si6 0.770662 0.258425 0.501607
Si Si7 0.867716 0.500000 0.674667
O O1 0.710156 0.179683 0.869109
O O2 0.630820 0.357504 0.903905
O O3 0.876174 0.321999 0.894185
O O4 0.758581 0.222987 0.952680
O O5 0.500000 0.185839 0.325362
O O6 0.500000 0.000000 0.372282
O O7 0.500000 0.500000 0.716171
O O8 0.658373 0.383808 0.760649
O O9 0.744155 0.500000 0.701355
O O10 0.190874 0.120953 0.506571
O O11 0.000000 0.000000 0.529037
O O12 0.500000 0.372690 0.579328
O O13 0.312471 0.500000 0.580368
O O14 0.322489 0.297324 0.536193
O O15 0.000000 0.500000 0.694011
#
# Coordination Sequence:
#
# PCOD9554251 Si02
#       7
#    16   8   8   8  16  16   8
#     4  11  24  42  68  99 134 177 230 275 341 400
#     4  11  24  42  62  97 141 177 218 278 346 406
#     4  10  22  38  65  99 138 169 222 276 343 401
#     4  11  22  40  67  97 136 179 215 279 350 405
#     4  11  25  47  68  94 132 182 231 280 336 408
#     4  11  24  41  68 101 134 175 225 280 339 406
#     4  10  22  40  68 101 133 175 229 283 339 404
#
# _framework density 19.695765999999999
#
# number of rings (size 3 to 8) (size 9 to 14) (size 15 to 20)
#    0.000    1.200    4.000    1.200    8.400    4.000 
#    1.800    2.000    0.000    0.000    0.000    0.000 
#    0.000    0.000    0.000    0.000    0.000    0.000 
#
# Total GULP energy -222890.101268 kJ/mol
# GULP energy per Si atom -5572.252532 kJ/mol
# Density = 1.965094 g / cm^3
# Si number density = 19.695766 Si / 1000 Ang^3
#
#
#
# Elastic Constant Matrix: (Units=GPa)
#
#
# Indices 1 2 3 4 5 6 
#
# 1 133.5695 36.0828 42.9129 0.0000 0.0000 0.0000
# 2 36.0828 133.5695 42.9129 0.0000 0.0000 0.0000
# 3 42.9129 42.9129 136.9087 0.0000 0.0000 0.0000
# 4 0.0000 0.0000 0.0000 18.1648 0.0000 0.0000
# 5 0.0000 0.0000 0.0000 0.0000 18.1648 0.0000
# 6 0.0000 0.0000 0.0000 0.0000 0.0000 20.1754
#
#
#
# Elastic Compliance Matrix: (Units=1/GPa)
#
#
# Indices 1 2 3 4 5 6 
#
# 1 0.008632 -0.001626 -0.002196 0.000000 0.000000 0.000000
# 2 -0.001626 0.008632 -0.002196 0.000000 0.000000 0.000000
# 3 -0.002196 -0.002196 0.008681 0.000000 0.000000 0.000000
# 4 0.000000 0.000000 0.000000 0.055052 0.000000 0.000000
# 5 0.000000 0.000000 0.000000 0.000000 0.055052 0.000000
# 6 0.000000 0.000000 0.000000 0.000000 0.000000 0.049565
#
#
# Mechanical properties :
#
#
# Convention : Reuss Voigt Hill
#
# Bulk Modulus (GPa) = 71.90044 71.98499 71.94271
# Shear Modulus (GPa) = 24.71774 30.11026 27.41400
#
# Velocity S-wave (km/s) = 3.54641 3.91419 3.73483
# Velocity P-wave (km/s) = 7.30439 7.55352 7.43000
#
# Compressibility (1/GPa) = 0.01390812
#
# Stress axis : x y z
#
# Youngs Moduli (GPa) = 115.85465 115.85465 115.19943
#
# Poissons Ratio (x) = 0.18841 0.25295
# Poissons Ratio (y) = 0.18841 0.25295
# Poissons Ratio (z) = 0.25438 0.25438
#
# Static dielectric constant tensor:
#      x y z
#    x 1.690160 0.000000 0.000000 
#    y 0.000000 1.690160 0.000000 
#    z 0.000000 0.000000 1.741120 
# 
# From -- ./inp_files/5552.got.cif
#   From: 2010.05.17/outbox.cif.g08.bks.cpg/sg109_3_cif.got.tgz:5552.got - 2010.05.20 10:51:12.
