data_PCOD9554451
_publ_section_title
;
Structure prediction by ZEFSAII (Michael W. Deem and Ramdas Pophale) SiO2 
 PCOD9554451
Probable space group: I 41 C D
;
_chemical_formula_sum "Si O2"
_cell_formula_units_Z 88
_cell_length_a 10.879240
_cell_length_b 10.879240
_cell_length_c 31.827422
_cell_angle_alpha 90.000000
_cell_angle_beta 90.000000
_cell_angle_gamma 90.000000
_cell_volume 3767.025652
_symmetry_space_group_name_H-M "I 41 C D"
_symmetry_group_IT_number 110
_symmetry_cell_setting 'tetragonal'
loop_
_space_group_symop_operation_xyz
x,y,z
-y,1/2+x,1/4+z
-x,-y,z
y,1/2-x,1/4+z
-x,y,1/2+z
x,-y,1/2+z
1/2-y,-x,1/4+z
1/2+y,x,1/4+z
1/2+x,1/2+y,1/2+z
1/2-y,x,3/4+z
1/2-x,1/2-y,1/2+z
1/2+y,-x,3/4+z
1/2-x,1/2+y,z
1/2+x,1/2-y,z
-y,1/2-x,3/4+z
y,1/2+x,3/4+z
loop_
_atom_site_type_symbol
_atom_site_label
_atom_site_fract_x
_atom_site_fract_y
_atom_site_fract_z
Si Si1 0.000000 0.000000 0.232031
Si Si2 0.324945 0.863928 0.638268
Si Si3 0.675055 0.363928 0.290406
Si Si4 0.400182 0.340786 0.521239
Si Si5 0.000000 0.000000 0.946644
Si Si6 0.840786 0.099818 0.157435
Si Si7 0.500000 0.500000 0.589337
O O1 0.059187 0.102996 0.261503
O O2 0.902792 0.067559 0.201640
O O3 0.355832 0.855832 0.589337
O O4 0.440813 0.897004 0.667171
O O5 0.275630 0.731415 0.653848
O O6 0.237811 0.980293 0.645923
O O7 0.762189 0.480293 0.282751
O O8 0.724369 0.231415 0.274826
O O9 0.432441 0.402792 0.477034
O O10 0.399080 0.445377 0.557670
O O11 0.945377 0.100921 0.121004
#
# Coordination Sequence:
#
# PCOD9554451 Si02
#       7
#     8  16  16  16   8  16   8
#     4  11  27  45  73 110 154 204 265 331 399 487
#     4  12  26  47  77 111 153 204 265 335 403 488
#     4  12  26  47  77 111 153 204 265 335 403 488
#     4  11  25  47  74 107 150 205 260 321 407 480
#     4  11  27  45  73 110 154 204 265 331 399 487
#     4  11  25  47  74 107 150 205 260 321 407 480
#     4  10  20  44  70 100 142 196 246 316 376 474
#
# _framework density 23.360603999999999
#
# number of rings (size 3 to 8) (size 9 to 14) (size 15 to 20)
#    0.000    0.727    3.636    2.727    0.000   14.545 
#    0.000    0.000    0.000    0.000    0.000    0.000 
#    0.000    0.000    0.000    0.000    0.000    0.000 
#
# Total GULP energy -246203.703788 kJ/mol
# GULP energy per Si atom -5595.538722 kJ/mol
# Density = 2.330743 g / cm^3
# Si number density = 23.360604 Si / 1000 Ang^3
#
#
#
# Elastic Constant Matrix: (Units=GPa)
#
#
# Indices 1 2 3 4 5 6 
#
# 1 136.3054 57.1163 69.2150 0.0000 0.0000 0.0000
# 2 57.1163 136.3054 69.2150 0.0000 0.0000 0.0000
# 3 69.2150 69.2150 186.1264 0.0000 0.0000 0.0000
# 4 0.0000 0.0000 0.0000 24.0830 0.0000 0.0000
# 5 0.0000 0.0000 0.0000 0.0000 24.0830 0.0000
# 6 0.0000 0.0000 0.0000 0.0000 0.0000 42.9132
#
#
#
# Elastic Compliance Matrix: (Units=1/GPa)
#
#
# Indices 1 2 3 4 5 6 
#
# 1 0.009837 -0.002791 -0.002620 0.000000 0.000000 0.000000
# 2 -0.002791 0.009837 -0.002620 0.000000 0.000000 0.000000
# 3 -0.002620 -0.002620 0.007321 0.000000 0.000000 0.000000
# 4 0.000000 0.000000 0.000000 0.041523 0.000000 0.000000
# 5 0.000000 0.000000 0.000000 0.000000 0.041523 0.000000
# 6 0.000000 0.000000 0.000000 0.000000 0.000000 0.023303
#
#
# Mechanical properties :
#
#
# Convention : Reuss Voigt Hill
#
# Bulk Modulus (GPa) = 91.47548 94.42552 92.95050
# Shear Modulus (GPa) = 32.66916 35.76190 34.21553
#
# Velocity S-wave (km/s) = 3.74367 3.91687 3.83125
# Velocity P-wave (km/s) = 7.61116 7.80797 7.71019
#
# Compressibility (1/GPa) = 0.01093189
#
# Stress axis : x y z
#
# Youngs Moduli (GPa) = 101.66188 101.66188 136.58985
#
# Poissons Ratio (x) = 0.28379 0.35785
# Poissons Ratio (y) = 0.28379 0.35785
# Poissons Ratio (z) = 0.26634 0.26634
#
# Static dielectric constant tensor:
#      x y z
#    x 1.946280 0.000000 0.000000 
#    y 0.000000 1.946280 0.000000 
#    z 0.000000 0.000000 1.849740 
# 
# From -- ./inp_files/3183.got.cif
#   From: 2010.05.17/outbox.cif.g08.bks.cpg/sg110_2_cif.got.tgz:3183.got - 2010.05.20 10:54:03.
