data_PCOD9555801
_publ_section_title
;
Structure prediction by ZEFSAII (Michael W. Deem and Ramdas Pophale) SiO2 
 PCOD9555801
Probable space group: P -4 21 M 
;
_chemical_formula_sum "Si O2"
_cell_formula_units_Z 48
_cell_length_a 9.991540
_cell_length_b 9.991540
_cell_length_c 18.558153
_cell_angle_alpha 90.000000
_cell_angle_beta 90.000000
_cell_angle_gamma 90.000000
_cell_volume 1852.676589
_symmetry_space_group_name_H-M "P -4 21 M "
_symmetry_group_IT_number 113
_symmetry_cell_setting 'tetragonal'
loop_
_space_group_symop_operation_xyz
x,y,z
y,-x,-z
-x,-y,z
-y,x,-z
1/2+x,1/2-y,-z
1/2-x,1/2+y,-z
1/2-y,1/2-x,z
1/2+y,1/2+x,z
loop_
_atom_site_type_symbol
_atom_site_label
_atom_site_fract_x
_atom_site_fract_y
_atom_site_fract_z
Si Si1 0.494299 0.792063 0.271568
Si Si2 0.431440 0.702798 0.739220
Si Si3 0.513859 0.729884 0.431175
Si Si4 0.503810 0.711203 0.584289
Si Si5 0.919036 0.811130 0.106184
Si Si6 0.493987 0.778459 0.048295
O O1 0.605101 0.894900 0.240159
O O2 0.557348 0.643909 0.263988
O O3 0.495593 0.807483 0.358069
O O4 0.350756 0.850756 0.246602
O O5 0.312160 0.812160 0.737412
O O6 0.518066 0.741518 0.668993
O O7 0.494932 0.705783 0.818432
O O8 0.510623 0.794051 0.510224
O O9 0.647022 0.643090 0.418969
O O10 0.398010 0.617810 0.430568
O O11 0.802768 0.697233 0.107212
O O12 0.840103 0.952387 0.099198
O O13 0.996421 0.781304 0.032663
O O14 0.604357 0.895644 0.051994
O O15 0.351628 0.851628 0.061683
#
# Coordination Sequence:
#
# PCOD9555801 Si02
#       6
#     8   8   8   8   8   8
#     4   9  17  28  42  63  92 123 154 191 236 280
#     4   9  17  29  47  71  97 124 154 191 234 281
#     4   8  14  26  43  60  84 119 157 195 227 269
#     4   8  14  26  43  63  86 116 155 193 232 273
#     4   9  18  33  53  77 101 127 165 201 236 297
#     4   9  18  34  55  76 101 133 165 202 246 291
#
# _framework density 25.908460000000002
#
# number of rings (size 3 to 8) (size 9 to 14) (size 15 to 20)
#    0.000    3.333    0.000    1.000    0.000    1.667 
#    0.000   12.500    0.000    4.000    0.000    2.333 
#    0.000    0.000    0.000    0.000    0.000    0.000 
#
# Total GULP energy -267553.599601 kJ/mol
# GULP energy per Si atom -5574.033325 kJ/mol
# Density = 2.584949 g / cm^3
# Si number density = 25.908460 Si / 1000 Ang^3
#
#
#
# Elastic Constant Matrix: (Units=GPa)
#
#
# Indices 1 2 3 4 5 6 
#
# 1 50.8500 37.3355 7.6360 0.0000 0.0000 0.0000
# 2 37.3355 50.8499 7.6358 0.0000 0.0000 0.0000
# 3 7.6360 7.6358 203.1997 0.0000 0.0000 0.0000
# 4 0.0000 0.0000 0.0000 55.3319 0.0000 0.0000
# 5 0.0000 0.0000 0.0000 0.0000 55.3329 0.0000
# 6 0.0000 0.0000 0.0000 0.0000 0.0000 38.3462
#
#
#
# Elastic Compliance Matrix: (Units=1/GPa)
#
#
# Indices 1 2 3 4 5 6 
#
# 1 0.042705 -0.031291 -0.000429 0.000000 0.000000 0.000000
# 2 -0.031291 0.042705 -0.000429 0.000000 0.000000 0.000000
# 3 -0.000429 -0.000429 0.004954 0.000000 0.000000 0.000000
# 4 0.000000 0.000000 0.000000 0.018073 0.000000 0.000000
# 5 0.000000 0.000000 0.000000 0.000000 0.018072 0.000000
# 6 0.000000 0.000000 0.000000 0.000000 0.000000 0.026078
#
#
# Mechanical properties :
#
#
# Convention : Reuss Voigt Hill
#
# Bulk Modulus (GPa) = 38.36436 45.56825 41.96631
# Shear Modulus (GPa) = 22.16593 46.62169 34.39381
#
# Velocity S-wave (km/s) = 2.92815 4.24663 3.64746
# Velocity P-wave (km/s) = 5.12561 6.45534 5.82852
#
# Compressibility (1/GPa) = 0.02606586
#
# Stress axis : x y z
#
# Youngs Moduli (GPa) = 23.41671 23.41669 201.87738
#
# Poissons Ratio (x) = 0.73272 0.08659
# Poissons Ratio (y) = 0.73272 0.08658
# Poissons Ratio (z) = 0.01004 0.01004
#
# Static dielectric constant tensor:
#      x y z
#    x 2.018970 0.000000 0.000000 
#    y 0.000000 2.018970 0.000000 
#    z 0.000000 0.000000 2.063570 
# 
# From -- ./inp_files/2498.got.cif
#   From: 2010.05.17/outbox.cif.g08.bks.cpg/sg113_cif.got.tgz:2498.got - 2010.05.20 11:03:00.
