data_PCOD9555944
_publ_section_title
;
Structure prediction by ZEFSAII (Michael W. Deem and Ramdas Pophale) SiO2 
 PCOD9555944
Probable space group: P -4 21 C
;
_chemical_formula_sum "Si O2"
_cell_formula_units_Z 32
_cell_length_a 11.749527
_cell_length_b 11.749527
_cell_length_c 8.540155
_cell_angle_alpha 90.000000
_cell_angle_beta 90.000000
_cell_angle_gamma 90.000000
_cell_volume 1178.980224
_symmetry_space_group_name_H-M "P -4 21 C"
_symmetry_group_IT_number 114
_symmetry_cell_setting 'tetragonal'
loop_
_space_group_symop_operation_xyz
x,y,z
y,-x,-z
-x,-y,z
-y,x,-z
1/2+x,1/2-y,1/2-z
1/2-x,1/2+y,1/2-z
1/2-y,1/2-x,1/2+z
1/2+y,1/2+x,1/2+z
loop_
_atom_site_type_symbol
_atom_site_label
_atom_site_fract_x
_atom_site_fract_y
_atom_site_fract_z
Si Si1 0.439034 0.131247 0.655557
Si Si2 0.338365 0.319225 0.846441
Si Si3 0.456461 0.803763 0.957766
Si Si4 0.829961 0.011910 0.938924
O O1 0.339155 0.203370 0.744754
O O2 0.383851 0.021064 0.580552
O O3 0.482516 0.208799 0.512501
O O4 0.534204 0.133093 0.791962
O O5 0.241924 0.339274 0.974788
O O6 0.330130 0.422519 0.724388
O O7 0.460903 0.305433 0.929556
O O8 0.905885 0.897888 0.939703
#
# Coordination Sequence:
#
# PCOD9555944 Si02
#       4
#     8   8   8   8
#     4   9  20  33  53  77 116 147 185 226 272 348
#     4   9  21  31  55  80 118 148 175 240 275 352
#     4  10  20  35  50  83 112 151 186 226 287 327
#     4   9  17  30  50  82 113 141 172 223 295 339
#
# _framework density 27.142101
#
# number of rings (size 3 to 8) (size 9 to 14) (size 15 to 20)
#    1.500    1.250    0.000    1.500    3.500    2.500 
#    0.000    0.000    0.000    0.000    0.000   36.750 
#    0.000    0.000    0.000    0.000    0.000    0.000 
#
# Total GULP energy -179150.220097 kJ/mol
# GULP energy per Si atom -5598.444378 kJ/mol
# Density = 2.708032 g / cm^3
# Si number density = 27.142101 Si / 1000 Ang^3
#
#
#
# Elastic Constant Matrix: (Units=GPa)
#
#
# Indices 1 2 3 4 5 6 
#
# 1 94.9522 47.0730 57.3153 0.0000 0.0000 0.0000
# 2 47.0730 94.9522 57.3153 0.0000 0.0000 0.0000
# 3 57.3153 57.3153 155.2168 0.0000 0.0000 0.0000
# 4 0.0000 0.0000 0.0000 52.6672 0.0000 0.0000
# 5 0.0000 0.0000 0.0000 0.0000 52.6672 0.0000
# 6 0.0000 0.0000 0.0000 0.0000 0.0000 50.6460
#
#
#
# Elastic Compliance Matrix: (Units=1/GPa)
#
#
# Indices 1 2 3 4 5 6 
#
# 1 0.015458 -0.005428 -0.003704 0.000000 0.000000 0.000000
# 2 -0.005428 0.015458 -0.003704 0.000000 0.000000 0.000000
# 3 -0.003704 -0.003704 0.009178 0.000000 0.000000 0.000000
# 4 0.000000 0.000000 0.000000 0.018987 0.000000 0.000000
# 5 0.000000 0.000000 0.000000 0.000000 0.018987 0.000000
# 6 0.000000 0.000000 0.000000 0.000000 0.000000 0.019745
#
#
# Mechanical properties :
#
#
# Convention : Reuss Voigt Hill
#
# Bulk Modulus (GPa) = 69.33142 74.28091 71.80616
# Shear Modulus (GPa) = 38.97358 43.42393 41.19876
#
# Velocity S-wave (km/s) = 3.79345 4.00418 3.90024
# Velocity P-wave (km/s) = 6.69226 6.98604 6.84073
#
# Compressibility (1/GPa) = 0.01442348
#
# Stress axis : x y z
#
# Youngs Moduli (GPa) = 64.69078 64.69078 108.95687
#
# Poissons Ratio (x) = 0.35112 0.40356
# Poissons Ratio (y) = 0.35112 0.40356
# Poissons Ratio (z) = 0.23960 0.23960
#
# Static dielectric constant tensor:
#      x y z
#    x 2.146270 0.000000 0.000000 
#    y 0.000000 2.146270 0.000000 
#    z 0.000000 0.000000 2.050020 
# 
# From -- ./inp_files/621.got.cif
#   From: 2010.05.17/outbox.cif.g08.bks.cpg/sg114_1_cif.got.tgz:621.got - 2010.05.20 11:04:54.
