data_PCOD9555416
_publ_section_title
;
Structure prediction by ZEFSAII (Michael W. Deem and Ramdas Pophale) SiO2 
 PCOD9555416
Probable space group: P -4 2 C
;
_chemical_formula_sum "Si O2"
_cell_formula_units_Z 26
_cell_length_a 7.147401
_cell_length_b 7.147401
_cell_length_c 22.830545
_cell_angle_alpha 90.000000
_cell_angle_beta 90.000000
_cell_angle_gamma 90.000000
_cell_volume 1166.306178
_symmetry_space_group_name_H-M "P -4 2 C"
_symmetry_group_IT_number 112
_symmetry_cell_setting 'tetragonal'
loop_
_space_group_symop_operation_xyz
x,y,z
y,-x,-z
-x,-y,z
-y,x,-z
x,-y,1/2-z
-x,y,1/2-z
-y,-x,1/2+z
y,x,1/2+z
loop_
_atom_site_type_symbol
_atom_site_label
_atom_site_fract_x
_atom_site_fract_y
_atom_site_fract_z
Si Si1 0.728070 0.832038 0.935150
Si Si2 0.500000 0.000000 0.750000
Si Si3 0.428406 0.695939 0.839701
Si Si4 0.729671 0.851692 0.064570
O O1 0.584844 0.778083 0.884575
O O2 0.925821 0.727906 0.928893
O O3 0.784299 0.051908 0.935085
O O4 0.651295 0.797949 0.000743
O O5 0.388937 0.856773 0.792092
O O6 0.500000 0.500000 0.814678
O O7 0.253291 0.646712 0.880376
#
# Coordination Sequence:
#
# PCOD9555416 Si02
#       4
#     8   2   8   8
#     4   9  19  38  64  96 133 167 207 268 336 391
#     4  12  26  52  62  86 140 186 230 266 318 390
#     4  12  25  41  67  94 127 177 223 268 327 393
#     4   9  19  38  64  96 133 167 207 268 336 391
#
# _framework density 22.292598999999999
#
# number of rings (size 3 to 8) (size 9 to 14) (size 15 to 20)
#    0.000    1.846    3.077    2.308    4.308    1.231 
#    0.000    3.077    0.000    3.692    0.000    0.000 
#    0.000    0.000    0.000    0.000    0.000    0.000 
#
# Total GULP energy -145381.282896 kJ/mol
# GULP energy per Si atom -5591.587804 kJ/mol
# Density = 2.224186 g / cm^3
# Si number density = 22.292599 Si / 1000 Ang^3
#
#
#
# Elastic Constant Matrix: (Units=GPa)
#
#
# Indices 1 2 3 4 5 6 
#
# 1 101.7645 15.1988 44.1772 0.0000 0.0000 0.0000
# 2 15.1988 101.7645 44.1772 0.0000 0.0000 0.0000
# 3 44.1772 44.1772 133.3117 0.0000 0.0000 0.0000
# 4 0.0000 0.0000 0.0000 -2.2719 0.0000 0.0000
# 5 0.0000 0.0000 0.0000 0.0000 -2.2719 0.0000
# 6 0.0000 0.0000 0.0000 0.0000 0.0000 30.9723
#
#
#
# Elastic Compliance Matrix: (Units=1/GPa)
#
#
# Indices 1 2 3 4 5 6 
#
# 1 0.011478 -0.000074 -0.003779 0.000000 0.000000 0.000000
# 2 -0.000074 0.011478 -0.003779 0.000000 0.000000 0.000000
# 3 -0.003779 -0.003779 0.010006 0.000000 0.000000 0.000000
# 4 0.000000 0.000000 0.000000 -0.440155 0.000000 0.000000
# 5 0.000000 0.000000 0.000000 0.000000 -0.440155 0.000000
# 6 0.000000 0.000000 0.000000 0.000000 0.000000 0.032287
#
#
# Mechanical properties :
#
#
# Convention : Reuss Voigt Hill
#
# Bulk Modulus (GPa) = 56.50348 60.43855 58.47101
# Shear Modulus (GPa) = -6.29805 20.83819 7.27007
#
# Velocity S-wave (km/s) = -1.68265 3.06070 1.80784
# Velocity P-wave (km/s) = 4.65040 6.29769 5.53566
#
# Compressibility (1/GPa) = 0.01769803
#
# Stress axis : x y z
#
# Youngs Moduli (GPa) = 87.12135 87.12135 99.94016
#
# Poissons Ratio (x) = 0.00642 0.37770
# Poissons Ratio (y) = 0.00642 0.37770
# Poissons Ratio (z) = 0.32926 0.32926
#
# Static dielectric constant tensor:
#      x y z
#    x 1.869190 0.000000 0.000000 
#    y 0.000000 1.869190 0.000000 
#    z 0.000000 0.000000 1.807270 
# 
# From -- ./inp_files/3845.got.cif
#   From: 2010.05.17/outbox.cif.g08.bks.cpg/sg112_2_cif.got.tgz:3845.got - 2010.05.20 10:59:04.
