data_PCOD9555598
_publ_section_title
;
Structure prediction by ZEFSAII (Michael W. Deem and Ramdas Pophale) SiO2 
 PCOD9555598
Probable space group: P -4 21 M 
;
_chemical_formula_sum "Si O2"
_cell_formula_units_Z 48
_cell_length_a 16.913406
_cell_length_b 16.913406
_cell_length_c 7.869344
_cell_angle_alpha 90.000000
_cell_angle_beta 90.000000
_cell_angle_gamma 90.000000
_cell_volume 2251.130533
_symmetry_space_group_name_H-M "P -4 21 M "
_symmetry_group_IT_number 113
_symmetry_cell_setting 'tetragonal'
loop_
_space_group_symop_operation_xyz
x,y,z
y,-x,-z
-x,-y,z
-y,x,-z
1/2+x,1/2-y,-z
1/2-x,1/2+y,-z
1/2-y,1/2-x,z
1/2+y,1/2+x,z
loop_
_atom_site_type_symbol
_atom_site_label
_atom_site_fract_x
_atom_site_fract_y
_atom_site_fract_z
Si Si1 0.585097 0.589373 0.054009
Si Si2 0.089376 0.085096 0.445997
Si Si3 0.745603 0.118800 0.546445
Si Si4 0.505524 0.873958 0.045542
Si Si5 0.005524 0.626043 0.545593
Si Si6 0.254399 0.881201 0.953517
O O1 0.571569 0.613303 0.250002
O O2 0.665109 0.627562 0.983731
O O3 0.601414 0.495068 0.048080
O O4 0.127564 0.165104 0.516290
O O5 0.995071 0.101415 0.451921
O O6 0.684693 0.184693 0.478804
O O7 0.749390 0.127150 0.749982
O O8 0.707992 0.032376 0.512444
O O9 0.439623 0.939623 0.995252
O O10 0.507813 0.871678 0.249974
O O11 0.589403 0.910598 0.987031
O O12 0.467627 0.792008 0.987507
O O13 0.089402 0.589402 0.487083
O O14 0.939622 0.560379 0.495303
O O15 0.315310 0.815310 0.021158
#
# Coordination Sequence:
#
# PCOD9555598 Si02
#       6
#     8   8   8   8   8   8
#     4  10  20  35  55  75  97 127 165 205 243 288
#     4  10  20  35  55  75  97 127 165 205 243 288
#     4   9  18  32  50  73 100 129 161 200 247 294
#     4   8  14  25  42  66  96 129 163 196 233 282
#     4   8  14  25  42  66  96 129 163 196 233 282
#     4   9  18  32  50  73 100 129 161 200 247 294
#
# _framework density 21.322619
#
# number of rings (size 3 to 8) (size 9 to 14) (size 15 to 20)
#    0.000    3.000    0.000    3.000    0.000    3.333 
#    0.000    5.000    0.000    6.000    0.000    0.000 
#    0.000    0.000    0.000    0.000    0.000    0.000 
#
# Total GULP energy -267379.076137 kJ/mol
# GULP energy per Si atom -5570.397420 kJ/mol
# Density = 2.127409 g / cm^3
# Si number density = 21.322619 Si / 1000 Ang^3
#
#
#
# Elastic Constant Matrix: (Units=GPa)
#
#
# Indices 1 2 3 4 5 6 
#
# 1 49.7992 -6.9748 -5.5635 0.0000 0.0000 0.0000
# 2 -6.9748 49.7997 -5.5633 0.0000 0.0000 0.0000
# 3 -5.5635 -5.5633 26.1673 0.0000 0.0000 0.0000
# 4 0.0000 0.0000 0.0000 37.1864 0.0000 0.0000
# 5 0.0000 0.0000 0.0000 0.0000 37.1857 0.0000
# 6 0.0000 0.0000 0.0000 0.0000 0.0000 7.3618
#
#
#
# Elastic Compliance Matrix: (Units=1/GPa)
#
#
# Indices 1 2 3 4 5 6 
#
# 1 0.021165 0.003551 0.005255 0.000000 0.000000 0.000000
# 2 0.003551 0.021165 0.005255 0.000000 0.000000 0.000000
# 3 0.005255 0.005255 0.040450 0.000000 0.000000 0.000000
# 4 0.000000 0.000000 0.000000 0.026892 0.000000 0.000000
# 5 0.000000 0.000000 0.000000 0.000000 0.026892 0.000000
# 6 0.000000 0.000000 0.000000 0.000000 0.000000 0.135837
#
#
# Mechanical properties :
#
#
# Convention : Reuss Voigt Hill
#
# Bulk Modulus (GPa) = 9.01692 9.95144 9.48418
# Shear Modulus (GPa) = 17.77803 25.93794 21.85799
#
# Velocity S-wave (km/s) = 2.89063 3.49155 3.20520
# Velocity P-wave (km/s) = 3.92160 4.57513 4.26091
#
# Compressibility (1/GPa) = 0.11090267
#
# Stress axis : x y z
#
# Youngs Moduli (GPa) = 47.24752 47.24806 24.72177
#
# Poissons Ratio (x) = -0.16780 -0.12991
# Poissons Ratio (y) = -0.16779 -0.12991
# Poissons Ratio (z) = -0.24829 -0.24828
#
# Static dielectric constant tensor:
#      x y z
#    x 1.818050 0.000000 0.000000 
#    y 0.000000 1.818050 0.000000 
#    z 0.000000 0.000000 1.746160 
# 
# From -- ./inp_files/1159.got.cif
#   From: 2010.05.17/outbox.cif.g08.bks.cpg/sg113_cif.got.tgz:1159.got - 2010.05.20 11:03:00.
