data_PCOD9555941
_publ_section_title
;
Structure prediction by ZEFSAII (Michael W. Deem and Ramdas Pophale) SiO2 
 PCOD9555941
Probable space group: P -4 21 C
;
_chemical_formula_sum "Si O2"
_cell_formula_units_Z 36
_cell_length_a 8.199094
_cell_length_b 8.199094
_cell_length_c 25.533144
_cell_angle_alpha 90.000000
_cell_angle_beta 90.000000
_cell_angle_gamma 90.000000
_cell_volume 1716.469242
_symmetry_space_group_name_H-M "P -4 21 C"
_symmetry_group_IT_number 114
_symmetry_cell_setting 'tetragonal'
loop_
_space_group_symop_operation_xyz
x,y,z
y,-x,-z
-x,-y,z
-y,x,-z
1/2+x,1/2-y,1/2-z
1/2-x,1/2+y,1/2-z
1/2-y,1/2-x,1/2+z
1/2+y,1/2+x,1/2+z
loop_
_atom_site_type_symbol
_atom_site_label
_atom_site_fract_x
_atom_site_fract_y
_atom_site_fract_z
Si Si1 0.607888 0.753817 0.790862
Si Si2 0.000000 0.000000 0.629615
Si Si3 0.247066 0.262290 0.079657
Si Si4 0.492869 0.752877 0.503706
Si Si5 0.595843 0.251657 0.309369
O O1 0.615350 0.608692 0.833002
O O2 0.633758 0.677019 0.733922
O O3 0.427550 0.828521 0.797435
O O4 0.731701 0.902086 0.802111
O O5 0.890716 0.881971 0.595159
O O6 0.321898 0.106393 0.049057
O O7 0.151726 0.208594 0.131850
O O8 0.116836 0.342160 0.039012
O O9 0.624169 0.638688 0.472832
#
# Coordination Sequence:
#
# PCOD9555941 Si02
#       5
#     8   4   8   8   8
#     4  10  21  38  56  95 126 170 214 248 320 388
#     4  10  20  34  60  91 132 173 200 266 328 394
#     4   9  16  33  59  94 124 163 211 266 326 372
#     4   7  14  32  54  95 122 151 222 262 305 387
#     4  10  20  36  60  88 134 165 208 268 311 380
#
# _framework density 20.973282999999999
#
# number of rings (size 3 to 8) (size 9 to 14) (size 15 to 20)
#    1.333    1.556    0.000    2.667    0.000    0.000 
#   12.000    0.000    0.000   12.000    0.000   24.889 
#    0.000    0.000    0.444    0.000    0.000    0.000 
#
# Total GULP energy -200476.452157 kJ/mol
# GULP energy per Si atom -5568.790338 kJ/mol
# Density = 2.092555 g / cm^3
# Si number density = 20.973283 Si / 1000 Ang^3
#
#
#
# Elastic Constant Matrix: (Units=GPa)
#
#
# Indices 1 2 3 4 5 6 
#
# 1 73.0076 22.6114 64.5624 0.0000 0.0000 0.0000
# 2 22.6114 73.0076 64.5624 0.0000 0.0000 0.0000
# 3 64.5624 64.5624 160.9836 0.0000 0.0000 0.0000
# 4 0.0000 0.0000 0.0000 68.2508 0.0000 0.0000
# 5 0.0000 0.0000 0.0000 0.0000 68.2508 0.0000
# 6 0.0000 0.0000 0.0000 0.0000 0.0000 16.7007
#
#
#
# Elastic Compliance Matrix: (Units=1/GPa)
#
#
# Indices 1 2 3 4 5 6 
#
# 1 0.021328 0.001485 -0.009149 0.000000 0.000000 0.000000
# 2 0.001485 0.021328 -0.009149 0.000000 0.000000 0.000000
# 3 -0.009149 -0.009149 0.013551 0.000000 0.000000 0.000000
# 4 0.000000 0.000000 0.000000 0.014652 0.000000 0.000000
# 5 0.000000 0.000000 0.000000 0.000000 0.014652 0.000000
# 6 0.000000 0.000000 0.000000 0.000000 0.000000 0.059878
#
#
# Mechanical properties :
#
#
# Convention : Reuss Voigt Hill
#
# Bulk Modulus (GPa) = 44.28669 67.83013 56.05841
# Shear Modulus (GPa) = 26.80367 40.99131 33.89749
#
# Velocity S-wave (km/s) = 3.57878 4.42572 4.02459
# Velocity P-wave (km/s) = 6.18373 7.65032 6.95578
#
# Compressibility (1/GPa) = 0.02258015
#
# Stress axis : x y z
#
# Youngs Moduli (GPa) = 46.88639 46.88639 73.79801
#
# Poissons Ratio (x) = -0.06964 0.67520
# Poissons Ratio (y) = -0.06964 0.67520
# Poissons Ratio (z) = 0.42898 0.42898
#
# Static dielectric constant tensor:
#      x y z
#    x 1.788970 0.000000 0.000000 
#    y 0.000000 1.788970 0.000000 
#    z 0.000000 0.000000 1.727780 
# 
# From -- ./inp_files/3611.got.cif
#   From: 2010.05.17/outbox.cif.g08.bks.cpg/sg114_2_cif.got.tgz:3611.got - 2010.05.20 11:04:54.
