data_PCOD9555691
_publ_section_title
;
Structure prediction by ZEFSAII (Michael W. Deem and Ramdas Pophale) SiO2 
 PCOD9555691
Probable space group: P -4 21 M 
;
_chemical_formula_sum "Si O2"
_cell_formula_units_Z 56
_cell_length_a 16.021528
_cell_length_b 16.021528
_cell_length_c 10.665225
_cell_angle_alpha 90.000000
_cell_angle_beta 90.000000
_cell_angle_gamma 90.000000
_cell_volume 2737.649774
_symmetry_space_group_name_H-M "P -4 21 M "
_symmetry_group_IT_number 113
_symmetry_cell_setting 'tetragonal'
loop_
_space_group_symop_operation_xyz
x,y,z
y,-x,-z
-x,-y,z
-y,x,-z
1/2+x,1/2-y,-z
1/2-x,1/2+y,-z
1/2-y,1/2-x,z
1/2+y,1/2+x,z
loop_
_atom_site_type_symbol
_atom_site_label
_atom_site_fract_x
_atom_site_fract_y
_atom_site_fract_z
Si Si1 0.135277 0.498020 0.235179
Si Si2 0.494187 0.133292 0.064987
Si Si3 0.029703 0.804983 0.376101
Si Si4 0.106094 0.849949 0.625706
Si Si5 0.996605 0.802128 0.981603
Si Si6 0.544458 0.412468 0.233234
Si Si7 0.322022 0.681524 0.893438
O O1 0.092344 0.407657 0.247440
O O2 0.216116 0.508935 0.318086
O O3 0.066582 0.566582 0.272576
O O4 0.148303 0.512688 0.085759
O O5 0.565175 0.065175 0.084701
O O6 0.520441 0.223121 0.110557
O O7 0.407809 0.092192 0.109271
O O8 0.941843 0.853888 0.401651
O O9 0.091563 0.802575 0.495325
O O10 0.076937 0.860835 0.272048
O O11 0.155832 0.814493 0.746404
O O12 0.011128 0.856933 0.675521
O O13 0.971986 0.883894 0.906219
O O14 0.098919 0.801004 0.979127
O O15 0.921397 0.798905 0.084504
O O16 0.500000 0.500000 0.247548
O O17 0.259410 0.759410 0.920314
#
# Coordination Sequence:
#
# PCOD9555691 Si02
#       7
#     8   8   8   8   8   8   8
#     4   9  20  37  58  86 117 155 209 262 308 361
#     4   9  18  36  60  83 113 161 212 255 304 361
#     4  11  19  36  64  91 118 163 203 253 309 374
#     4  10  21  37  62  88 126 160 204 249 310 377
#     4  11  23  37  60  88 130 167 202 256 319 374
#     4   9  21  36  56  88 125 159 192 240 305 375
#     4  11  26  42  61  95 133 171 215 262 321 390
#
# _framework density 20.455501999999999
#
# number of rings (size 3 to 8) (size 9 to 14) (size 15 to 20)
#    0.000    2.000    1.429    2.571    8.000    2.286 
#    0.000    0.714    0.000    6.857    0.000    8.000 
#    0.000    0.000    0.000    0.000    0.000    0.000 
#
# Total GULP energy -311737.386035 kJ/mol
# GULP energy per Si atom -5566.739036 kJ/mol
# Density = 2.040894 g / cm^3
# Si number density = 20.455502 Si / 1000 Ang^3
#
#
#
# Elastic Constant Matrix: (Units=GPa)
#
#
# Indices 1 2 3 4 5 6 
#
# 1 79.3928 26.2932 25.4728 0.0000 0.0000 0.0000
# 2 26.2932 79.3930 25.4727 0.0000 0.0000 0.0000
# 3 25.4728 25.4727 57.1795 0.0000 0.0000 0.0000
# 4 0.0000 0.0000 0.0000 20.0743 0.0000 0.0000
# 5 0.0000 0.0000 0.0000 0.0000 20.0738 0.0000
# 6 0.0000 0.0000 0.0000 0.0000 0.0000 30.5074
#
#
#
# Elastic Compliance Matrix: (Units=1/GPa)
#
#
# Indices 1 2 3 4 5 6 
#
# 1 0.015441 -0.003391 -0.005368 0.000000 0.000000 0.000000
# 2 -0.003391 0.015441 -0.005368 0.000000 0.000000 0.000000
# 3 -0.005368 -0.005368 0.022271 0.000000 0.000000 0.000000
# 4 0.000000 0.000000 0.000000 0.049815 0.000000 0.000000
# 5 0.000000 0.000000 0.000000 0.000000 0.049816 0.000000
# 6 0.000000 0.000000 0.000000 0.000000 0.000000 0.032779
#
#
# Mechanical properties :
#
#
# Convention : Reuss Voigt Hill
#
# Bulk Modulus (GPa) = 40.16244 41.16031 40.66138
# Shear Modulus (GPa) = 22.51056 23.37953 22.94505
#
# Velocity S-wave (km/s) = 3.32092 3.38442 3.35282
# Velocity P-wave (km/s) = 5.86357 5.95298 5.90844
#
# Compressibility (1/GPa) = 0.02489888
#
# Stress axis : x y z
#
# Youngs Moduli (GPa) = 64.76230 64.76269 44.90051
#
# Poissons Ratio (x) = 0.21964 0.24102
# Poissons Ratio (y) = 0.21964 0.24102
# Poissons Ratio (z) = 0.34764 0.34764
#
# Static dielectric constant tensor:
#      x y z
#    x 1.798460 0.000000 0.000000 
#    y 0.000000 1.798460 0.000000 
#    z 0.000000 0.000000 1.794830 
# 
# From -- ./inp_files/1944.got.cif
#   From: 2010.05.17/outbox.cif.g08.bks.cpg/sg113_cif.got.tgz:1944.got - 2010.05.20 11:03:00.
