data_PCOD9555252
_publ_section_title
;
Structure prediction by ZEFSAII (Michael W. Deem and Ramdas Pophale) SiO2 
 PCOD9555252
Probable space group: P -4 2 C
;
_chemical_formula_sum "Si O2"
_cell_formula_units_Z 38
_cell_length_a 14.512071
_cell_length_b 14.512071
_cell_length_c 8.293191
_cell_angle_alpha 90.000000
_cell_angle_beta 90.000000
_cell_angle_gamma 90.000000
_cell_volume 1746.547722
_symmetry_space_group_name_H-M "P -4 2 C"
_symmetry_group_IT_number 112
_symmetry_cell_setting 'tetragonal'
loop_
_space_group_symop_operation_xyz
x,y,z
y,-x,-z
-x,-y,z
-y,x,-z
x,-y,1/2-z
-x,y,1/2-z
-y,-x,1/2+z
y,x,1/2+z
loop_
_atom_site_type_symbol
_atom_site_label
_atom_site_fract_x
_atom_site_fract_y
_atom_site_fract_z
Si Si1 0.060495 0.893193 0.590054
Si Si2 0.339462 0.500000 0.250000
Si Si3 0.719036 0.840159 0.510749
Si Si4 0.394175 0.017090 0.944090
Si Si5 0.500000 0.500000 0.500000
Si Si6 0.330662 0.785038 0.635902
O O1 0.135346 0.818047 0.559350
O O2 0.991408 0.891645 0.436083
O O3 0.000000 0.880420 0.750000
O O4 0.411115 0.525901 0.392153
O O5 0.270722 0.421102 0.312051
O O6 0.708669 0.738358 0.438081
O O7 0.713641 0.825154 0.700748
O O8 0.661091 0.932544 0.474901
O O9 0.357767 0.122457 0.967667
O O10 0.500000 0.000000 0.991182
O O11 0.389867 0.000000 0.750000
#
# Coordination Sequence:
#
# PCOD9555252 Si02
#       6
#     8   4   8   8   2   8
#     4  11  22  36  55  80 114 156 204 258 317 375
#     4  11  22  42  67 100 128 168 213 268 342 407
#     4  11  22  37  59  89 120 159 208 263 321 389
#     4   9  19  37  60  85 115 157 206 256 311 382
#     4  10  24  42  68  98 136 162 208 278 340 410
#     4  11  22  38  64  90 123 164 211 263 325 403
#
# _framework density 21.757207000000001
#
# number of rings (size 3 to 8) (size 9 to 14) (size 15 to 20)
#    0.000    1.474    0.000    7.579    0.000    3.368 
#    0.000    0.000    0.000    9.474    0.000    0.000 
#    0.000    0.000    0.000    0.000    0.000    0.000 
#
# Total GULP energy -211804.459124 kJ/mol
# GULP energy per Si atom -5573.801556 kJ/mol
# Density = 2.170769 g / cm^3
# Si number density = 21.757207 Si / 1000 Ang^3
#
#
#
# Elastic Constant Matrix: (Units=GPa)
#
#
# Indices 1 2 3 4 5 6 
#
# 1 69.2673 98.8333 20.5977 0.0000 0.0000 0.0000
# 2 98.8333 69.2673 20.5977 0.0000 0.0000 0.0000
# 3 20.5977 20.5977 44.0007 0.0000 0.0000 0.0000
# 4 0.0000 0.0000 0.0000 28.0523 0.0000 0.0000
# 5 0.0000 0.0000 0.0000 0.0000 28.0523 0.0000
# 6 0.0000 0.0000 0.0000 0.0000 0.0000 46.1617
#
#
#
# Elastic Compliance Matrix: (Units=1/GPa)
#
#
# Indices 1 2 3 4 5 6 
#
# 1 -0.013551 0.020271 -0.003146 0.000000 0.000000 0.000000
# 2 0.020271 -0.013551 -0.003146 0.000000 0.000000 0.000000
# 3 -0.003146 -0.003146 0.025672 0.000000 0.000000 0.000000
# 4 0.000000 0.000000 0.000000 0.035648 0.000000 0.000000
# 5 0.000000 0.000000 0.000000 0.000000 0.035648 0.000000
# 6 0.000000 0.000000 0.000000 0.000000 0.000000 0.021663
#
#
# Mechanical properties :
#
#
# Convention : Reuss Voigt Hill
#
# Bulk Modulus (GPa) = 37.69482 51.39920 44.54701
# Shear Modulus (GPa) = 69.05047 23.28702 46.16875
#
# Velocity S-wave (km/s) = 5.63966 3.27511 4.61151
# Velocity P-wave (km/s) = 7.73114 6.16256 6.99098
#
# Compressibility (1/GPa) = 0.02652884
#
# Stress axis : x y z
#
# Youngs Moduli (GPa) = -73.79295 -73.79295 38.95289
#
# Poissons Ratio (x) = 1.49587 0.12253
# Poissons Ratio (y) = 1.49587 0.12253
# Poissons Ratio (z) = -0.23213 -0.23213
#
# Static dielectric constant tensor:
#      x y z
#    x 1.857020 0.000000 0.000000 
#    y 0.000000 1.857020 0.000000 
#    z 0.000000 0.000000 1.794080 
# 
# From -- ./inp_files/1171.got.cif
#   From: 2010.05.17/outbox.cif.g08.bks.cpg/sg112_1_cif.got.tgz:1171.got - 2010.05.20 10:59:04.
