data_PCOD9555427
_publ_section_title
;
Structure prediction by ZEFSAII (Michael W. Deem and Ramdas Pophale) SiO2 
 PCOD9555427
Probable space group: P -4 2 C
;
_chemical_formula_sum "Si O2"
_cell_formula_units_Z 40
_cell_length_a 7.535108
_cell_length_b 7.535108
_cell_length_c 31.581115
_cell_angle_alpha 90.000000
_cell_angle_beta 90.000000
_cell_angle_gamma 90.000000
_cell_volume 1793.107892
_symmetry_space_group_name_H-M "P -4 2 C"
_symmetry_group_IT_number 112
_symmetry_cell_setting 'tetragonal'
loop_
_space_group_symop_operation_xyz
x,y,z
y,-x,-z
-x,-y,z
-y,x,-z
x,-y,1/2-z
-x,y,1/2-z
-y,-x,1/2+z
y,x,1/2+z
loop_
_atom_site_type_symbol
_atom_site_label
_atom_site_fract_x
_atom_site_fract_y
_atom_site_fract_z
Si Si1 0.704995 0.286260 0.954908
Si Si2 0.701392 0.788497 0.862207
Si Si3 0.788393 0.298693 0.362190
Si Si4 0.999966 0.782199 0.701386
Si Si5 0.286094 0.704892 0.045074
O O1 0.781235 0.242747 0.909076
O O2 0.703345 0.500079 0.958318
O O3 0.500074 0.223108 0.952409
O O4 0.779581 0.220621 0.999988
O O5 0.500060 0.715795 0.860634
O O6 0.781219 0.757497 0.909107
O O7 0.828672 0.722621 0.825230
O O8 0.689343 0.000045 0.857278
O O9 0.722580 0.171474 0.325196
O O10 0.000000 0.725709 0.750000
O O11 0.000000 0.000000 0.701256
#
# Coordination Sequence:
#
# PCOD9555427 Si02
#       5
#     8   8   8   8   8
#     4   8  14  27  47  68  92 124 158 189 228 284
#     4   9  17  30  48  69  94 121 156 204 248 291
#     4   9  17  30  48  69  94 121 156 204 248 291
#     4   9  18  32  49  69  95 125 161 205 249 296
#     4   8  14  27  47  68  92 124 158 189 228 284
#
# _framework density 22.307635999999999
#
# number of rings (size 3 to 8) (size 9 to 14) (size 15 to 20)
#    0.000    3.400    0.000    1.200    0.000    0.800 
#    3.600    5.000    0.000    2.400    0.000    5.600 
#    0.000    0.000    0.000    0.000    0.000    0.000 
#
# Total GULP energy -222983.409413 kJ/mol
# GULP energy per Si atom -5574.585235 kJ/mol
# Density = 2.225686 g / cm^3
# Si number density = 22.307636 Si / 1000 Ang^3
#
#
#
# Elastic Constant Matrix: (Units=GPa)
#
#
# Indices 1 2 3 4 5 6 
#
# 1 72.8266 12.2987 49.0685 0.0000 0.0000 0.0000
# 2 12.2987 72.8266 49.0685 0.0000 0.0000 0.0000
# 3 49.0685 49.0685 275.1804 0.0000 0.0000 0.0000
# 4 0.0000 0.0000 0.0000 27.8061 0.0000 0.0000
# 5 0.0000 0.0000 0.0000 0.0000 27.8061 0.0000
# 6 0.0000 0.0000 0.0000 0.0000 0.0000 -2.4224
#
#
#
# Elastic Compliance Matrix: (Units=1/GPa)
#
#
# Indices 1 2 3 4 5 6 
#
# 1 0.015654 -0.000867 -0.002637 0.000000 0.000000 0.000000
# 2 -0.000867 0.015654 -0.002637 0.000000 0.000000 0.000000
# 3 -0.002637 -0.002637 0.004574 0.000000 0.000000 0.000000
# 4 0.000000 0.000000 0.000000 0.035963 0.000000 0.000000
# 5 0.000000 0.000000 0.000000 0.000000 0.035963 0.000000
# 6 0.000000 0.000000 0.000000 0.000000 0.000000 -0.412817
#
#
# Mechanical properties :
#
#
# Convention : Reuss Voigt Hill
#
# Bulk Modulus (GPa) = 42.36995 71.30057 56.83526
# Shear Modulus (GPa) = -17.55252 31.33117 6.88933
#
# Velocity S-wave (km/s) = -2.80811 3.75174 1.75927
# Velocity P-wave (km/s) = 2.91903 7.12735 5.44610
#
# Compressibility (1/GPa) = 0.02360163
#
# Stress axis : x y z
#
# Youngs Moduli (GPa) = 63.88046 63.88046 218.61169
#
# Poissons Ratio (x) = 0.05539 0.57643
# Poissons Ratio (y) = 0.05539 0.57643
# Poissons Ratio (z) = 0.16844 0.16844
#
# Static dielectric constant tensor:
#      x y z
#    x 1.885340 0.000000 0.000000 
#    y 0.000000 1.885340 0.000000 
#    z 0.000000 0.000000 1.824450 
# 
# From -- ./inp_files/5823.got.cif
#   From: 2010.05.17/outbox.cif.g08.bks.cpg/sg112_3_cif.got.tgz:5823.got - 2010.05.20 10:59:04.
