data_PCOD9555079
_publ_section_title
;
Structure prediction by ZEFSAII (Michael W. Deem and Ramdas Pophale) SiO2 
 PCOD9555079
Probable space group: P -4 2 C
;
_chemical_formula_sum "Si O2"
_cell_formula_units_Z 40
_cell_length_a 14.550087
_cell_length_b 14.550087
_cell_length_c 9.485746
_cell_angle_alpha 90.000000
_cell_angle_beta 90.000000
_cell_angle_gamma 90.000000
_cell_volume 2008.180158
_symmetry_space_group_name_H-M "P -4 2 C"
_symmetry_group_IT_number 112
_symmetry_cell_setting 'tetragonal'
loop_
_space_group_symop_operation_xyz
x,y,z
y,-x,-z
-x,-y,z
-y,x,-z
x,-y,1/2-z
-x,y,1/2-z
-y,-x,1/2+z
y,x,1/2+z
loop_
_atom_site_type_symbol
_atom_site_label
_atom_site_fract_x
_atom_site_fract_y
_atom_site_fract_z
Si Si1 0.658883 0.127525 0.264436
Si Si2 0.500000 0.350734 0.750000
Si Si3 0.000000 0.500000 0.750000
Si Si4 0.745335 0.907988 0.526378
Si Si5 0.110191 0.772926 0.027751
Si Si6 0.689543 0.754856 0.754893
Si Si7 0.500000 0.500000 0.500000
O O1 0.676177 0.094210 0.105572
O O2 0.742625 0.100614 0.365712
O O3 0.670423 0.237617 0.257740
O O4 0.569367 0.074350 0.321132
O O5 0.410455 0.287007 0.747865
O O6 0.501383 0.413901 0.608626
O O7 0.843978 0.872770 0.468122
O O8 0.711116 0.830641 0.635113
O O9 0.757688 0.009235 0.587792
O O10 0.187382 0.709998 0.102970
#
# Coordination Sequence:
#
# PCOD9555079 Si02
#       7
#     8   4   2   8   8   8   2
#     4  10  22  37  59  93 118 166 209 258 316 382
#     4  11  26  50  67 100 124 176 213 270 336 387
#     4  12  20  36  64  92 118 152 212 258 308 390
#     4  10  20  39  60  91 130 166 213 262 315 385
#     4  10  20  39  60  91 130 166 213 262 315 385
#     4  10  24  41  64  89 133 169 207 268 333 386
#     4  10  28  46  72  94 132 150 232 266 300 422
#
# _framework density 19.918531999999999
#
# number of rings (size 3 to 8) (size 9 to 14) (size 15 to 20)
#    0.000    1.800    2.000    0.600    8.400    3.600 
#    0.000    1.000    0.000    7.200    0.000    0.000 
#    0.000    0.000    0.000    0.000    0.000    0.000 
#
# Total GULP energy -222703.321316 kJ/mol
# GULP energy per Si atom -5567.583033 kJ/mol
# Density = 1.987320 g / cm^3
# Si number density = 19.918532 Si / 1000 Ang^3
#
#
#
# Elastic Constant Matrix: (Units=GPa)
#
#
# Indices 1 2 3 4 5 6 
#
# 1 143.4926 71.6534 14.8370 0.0000 0.0000 0.0000
# 2 71.6534 143.4926 14.8370 0.0000 0.0000 0.0000
# 3 14.8370 14.8370 70.9377 0.0000 0.0000 0.0000
# 4 0.0000 0.0000 0.0000 18.1975 0.0000 0.0000
# 5 0.0000 0.0000 0.0000 0.0000 18.1975 0.0000
# 6 0.0000 0.0000 0.0000 0.0000 0.0000 35.7230
#
#
#
# Elastic Compliance Matrix: (Units=1/GPa)
#
#
# Indices 1 2 3 4 5 6 
#
# 1 0.009353 -0.004567 -0.001001 0.000000 0.000000 0.000000
# 2 -0.004567 0.009353 -0.001001 0.000000 0.000000 0.000000
# 3 -0.001001 -0.001001 0.014516 0.000000 0.000000 0.000000
# 4 0.000000 0.000000 0.000000 0.054953 0.000000 0.000000
# 5 0.000000 0.000000 0.000000 0.000000 0.054953 0.000000
# 6 0.000000 0.000000 0.000000 0.000000 0.000000 0.027993
#
#
# Mechanical properties :
#
#
# Convention : Reuss Voigt Hill
#
# Bulk Modulus (GPa) = 49.79177 62.28642 56.03909
# Shear Modulus (GPa) = 26.18448 31.52996 28.85722
#
# Velocity S-wave (km/s) = 3.62965 3.98294 3.81039
# Velocity P-wave (km/s) = 6.52823 7.24501 6.89594
#
# Compressibility (1/GPa) = 0.02008364
#
# Stress axis : x y z
#
# Youngs Moduli (GPa) = 106.91728 106.91728 68.89127
#
# Poissons Ratio (x) = 0.48829 0.06896
# Poissons Ratio (y) = 0.48829 0.06896
# Poissons Ratio (z) = 0.10703 0.10703
#
# Static dielectric constant tensor:
#      x y z
#    x 1.727410 0.000000 0.000000 
#    y 0.000000 1.727410 0.000000 
#    z 0.000000 0.000000 1.734150 
# 
# From -- ./inp_files/1327.got.cif
#   From: 2010.05.17/outbox.cif.g08.bks.cpg/sg112_1_cif.got.tgz:1327.got - 2010.05.20 10:59:04.
