data_PCOD9555318
_publ_section_title
;
Structure prediction by ZEFSAII (Michael W. Deem and Ramdas Pophale) SiO2 
 PCOD9555318
Probable space group: P -4 2 C
;
_chemical_formula_sum "Si O2"
_cell_formula_units_Z 18
_cell_length_a 7.148495
_cell_length_b 7.148495
_cell_length_c 17.275817
_cell_angle_alpha 90.000000
_cell_angle_beta 90.000000
_cell_angle_gamma 90.000000
_cell_volume 882.811192
_symmetry_space_group_name_H-M "P -4 2 C"
_symmetry_group_IT_number 112
_symmetry_cell_setting 'tetragonal'
loop_
_space_group_symop_operation_xyz
x,y,z
y,-x,-z
-x,-y,z
-y,x,-z
x,-y,1/2-z
-x,y,1/2-z
-y,-x,1/2+z
y,x,1/2+z
loop_
_atom_site_type_symbol
_atom_site_label
_atom_site_fract_x
_atom_site_fract_y
_atom_site_fract_z
Si Si1 0.000000 0.500000 0.750000
Si Si2 0.299629 0.440363 0.630585
Si Si3 0.831167 0.737384 0.995714
O O1 0.143603 0.390267 0.694119
O O2 0.500000 0.500000 0.663204
O O3 0.215785 0.609880 0.578158
O O4 0.340881 0.274843 0.570448
O O5 0.051428 0.753624 0.011209
#
# Coordination Sequence:
#
# PCOD9555318 Si02
#       3
#     2   8   8
#     4  12  26  44  62 102 148 160 214 292 334 370
#     4  12  23  41  67  96 132 172 220 272 329 389
#     4  11  21  38  68  96 123 173 226 264 314 405
#
# _framework density 20.389410000000002
#
# number of rings (size 3 to 8) (size 9 to 14) (size 15 to 20)
#    0.000    0.444    8.889    0.667    0.000    0.000 
#    0.000    4.444    0.000    5.333    0.000    0.000 
#    0.000    0.000    0.000    0.000    0.000    0.000 
#
# Total GULP energy -100542.501626 kJ/mol
# GULP energy per Si atom -5585.694535 kJ/mol
# Density = 2.034300 g / cm^3
# Si number density = 20.389410 Si / 1000 Ang^3
#
#
#
# Elastic Constant Matrix: (Units=GPa)
#
#
# Indices 1 2 3 4 5 6 
#
# 1 100.4968 18.5048 33.7443 0.0000 0.0000 0.0000
# 2 18.5048 100.4968 33.7443 0.0000 0.0000 0.0000
# 3 33.7443 33.7443 103.9429 0.0000 0.0000 0.0000
# 4 0.0000 0.0000 0.0000 1.2636 0.0000 0.0000
# 5 0.0000 0.0000 0.0000 0.0000 1.2636 0.0000
# 6 0.0000 0.0000 0.0000 0.0000 0.0000 29.6163
#
#
#
# Elastic Compliance Matrix: (Units=1/GPa)
#
#
# Indices 1 2 3 4 5 6 
#
# 1 0.011248 -0.000948 -0.003344 0.000000 0.000000 0.000000
# 2 -0.000948 0.011248 -0.003344 0.000000 0.000000 0.000000
# 3 -0.003344 -0.003344 0.011792 0.000000 0.000000 0.000000
# 4 0.000000 0.000000 0.000000 0.791399 0.000000 0.000000
# 5 0.000000 0.000000 0.000000 0.000000 0.791399 0.000000
# 6 0.000000 0.000000 0.000000 0.000000 0.000000 0.033765
#
#
# Mechanical properties :
#
#
# Convention : Reuss Voigt Hill
#
# Bulk Modulus (GPa) = 52.58717 52.99147 52.78932
# Shear Modulus (GPa) = 2.98961 21.02491 12.00726
#
# Velocity S-wave (km/s) = 1.21220 3.21466 2.42935
# Velocity P-wave (km/s) = 5.27320 6.31070 5.81513
#
# Compressibility (1/GPa) = 0.01901605
#
# Stress axis : x y z
#
# Youngs Moduli (GPa) = 88.90538 88.90538 84.80573
#
# Poissons Ratio (x) = 0.08432 0.28356
# Poissons Ratio (y) = 0.08432 0.28356
# Poissons Ratio (z) = 0.29727 0.29727
#
# Static dielectric constant tensor:
#      x y z
#    x 1.734760 0.000000 0.000000 
#    y 0.000000 1.734760 0.000000 
#    z 0.000000 0.000000 1.723890 
# 
# From -- ./inp_files/2786.got.cif
#   From: 2010.05.17/outbox.cif.g08.bks.cpg/sg112_2_cif.got.tgz:2786.got - 2010.05.20 10:59:04.
