data_PCOD9555889
_publ_section_title
;
Structure prediction by ZEFSAII (Michael W. Deem and Ramdas Pophale) SiO2 
 PCOD9555889
Probable space group: P -4 21 C
;
_chemical_formula_sum "Si O2"
_cell_formula_units_Z 48
_cell_length_a 11.279690
_cell_length_b 11.279690
_cell_length_c 19.444124
_cell_angle_alpha 90.000000
_cell_angle_beta 90.000000
_cell_angle_gamma 90.000000
_cell_volume 2473.903245
_symmetry_space_group_name_H-M "P -4 21 C"
_symmetry_group_IT_number 114
_symmetry_cell_setting 'tetragonal'
loop_
_space_group_symop_operation_xyz
x,y,z
y,-x,-z
-x,-y,z
-y,x,-z
1/2+x,1/2-y,1/2-z
1/2-x,1/2+y,1/2-z
1/2-y,1/2-x,1/2+z
1/2+y,1/2+x,1/2+z
loop_
_atom_site_type_symbol
_atom_site_label
_atom_site_fract_x
_atom_site_fract_y
_atom_site_fract_z
Si Si1 0.810632 0.552917 0.847010
Si Si2 0.805834 0.201584 0.974428
Si Si3 0.163729 0.917863 0.513975
Si Si4 0.430499 0.612349 0.264264
Si Si5 0.556039 0.808356 0.649705
Si Si6 0.139388 0.032275 0.906872
O O1 0.862105 0.421374 0.831984
O O2 0.741223 0.551760 0.919455
O O3 0.716724 0.588722 0.789077
O O4 0.922399 0.642207 0.849535
O O5 0.902401 0.266994 0.926371
O O6 0.789004 0.074094 0.940867
O O7 0.683962 0.270067 0.972999
O O8 0.034860 0.862708 0.530314
O O9 0.500000 0.500000 0.232390
O O10 0.306695 0.575197 0.301519
O O11 0.519677 0.653225 0.325691
O O12 0.320240 0.647076 0.551715
O O13 0.000000 0.000000 0.920284
#
# Coordination Sequence:
#
# PCOD9555889 Si02
#       6
#     8   8   8   8   8   8
#     4  11  24  45  67  90 140 172 219 276 326 398
#     4  11  18  38  66  94 128 157 216 269 323 383
#     4  11  25  41  61  91 124 174 214 258 328 394
#     4  10  25  39  67  97 131 177 222 260 336 397
#     4  10  24  43  68  99 126 177 221 271 335 385
#     4  10  19  35  63  99 124 158 208 270 327 379
#
# _framework density 19.402536000000001
#
# number of rings (size 3 to 8) (size 9 to 14) (size 15 to 20)
#    0.000    1.500    3.333    1.000    9.333    0.000 
#    3.000    0.000    0.000    0.000    0.000    0.000 
#    0.000    0.000    0.000    0.000    0.000    0.000 
#
# Total GULP energy -267869.672049 kJ/mol
# GULP energy per Si atom -5580.618168 kJ/mol
# Density = 1.935837 g / cm^3
# Si number density = 19.402536 Si / 1000 Ang^3
#
#
#
# Elastic Constant Matrix: (Units=GPa)
#
#
# Indices 1 2 3 4 5 6 
#
# 1 111.6281 52.5767 27.4210 0.0000 0.0000 0.0000
# 2 52.5767 111.6281 27.4210 0.0000 0.0000 0.0000
# 3 27.4210 27.4210 53.2652 0.0000 0.0000 0.0000
# 4 0.0000 0.0000 0.0000 25.3975 0.0000 0.0000
# 5 0.0000 0.0000 0.0000 0.0000 25.3975 0.0000
# 6 0.0000 0.0000 0.0000 0.0000 0.0000 35.5564
#
#
#
# Elastic Compliance Matrix: (Units=1/GPa)
#
#
# Indices 1 2 3 4 5 6 
#
# 1 0.012144 -0.004790 -0.003786 0.000000 0.000000 0.000000
# 2 -0.004790 0.012144 -0.003786 0.000000 0.000000 0.000000
# 3 -0.003786 -0.003786 0.022672 0.000000 0.000000 0.000000
# 4 0.000000 0.000000 0.000000 0.039374 0.000000 0.000000
# 5 0.000000 0.000000 0.000000 0.000000 0.039374 0.000000
# 6 0.000000 0.000000 0.000000 0.000000 0.000000 0.028124
#
#
# Mechanical properties :
#
#
# Convention : Reuss Voigt Hill
#
# Bulk Modulus (GPa) = 44.97067 54.59544 49.78305
# Shear Modulus (GPa) = 26.88611 28.54380 27.71495
#
# Velocity S-wave (km/s) = 3.72654 3.83970 3.78354
# Velocity P-wave (km/s) = 6.46097 6.91789 6.69333
#
# Compressibility (1/GPa) = 0.02223672
#
# Stress axis : x y z
#
# Youngs Moduli (GPa) = 82.34228 82.34228 44.10700
#
# Poissons Ratio (x) = 0.39442 0.16699
# Poissons Ratio (y) = 0.39442 0.16699
# Poissons Ratio (z) = 0.31175 0.31175
#
# Static dielectric constant tensor:
#      x y z
#    x 1.714030 0.000000 0.000000 
#    y 0.000000 1.714030 0.000000 
#    z 0.000000 0.000000 1.671990 
# 
# From -- ./inp_files/3092.got.cif
#   From: 2010.05.17/outbox.cif.g08.bks.cpg/sg114_2_cif.got.tgz:3092.got - 2010.05.20 11:04:54.
