data_PCOD9555524
_publ_section_title
;
Structure prediction by ZEFSAII (Michael W. Deem and Ramdas Pophale) SiO2 
 PCOD9555524
Probable space group: P -4 21 M 
;
_chemical_formula_sum "Si O2"
_cell_formula_units_Z 28
_cell_length_a 9.306717
_cell_length_b 9.306717
_cell_length_c 17.718184
_cell_angle_alpha 90.000000
_cell_angle_beta 90.000000
_cell_angle_gamma 90.000000
_cell_volume 1534.660176
_symmetry_space_group_name_H-M "P -4 21 M "
_symmetry_group_IT_number 113
_symmetry_cell_setting 'tetragonal'
loop_
_space_group_symop_operation_xyz
x,y,z
y,-x,-z
-x,-y,z
-y,x,-z
1/2+x,1/2-y,-z
1/2-x,1/2+y,-z
1/2-y,1/2-x,z
1/2+y,1/2+x,z
loop_
_atom_site_type_symbol
_atom_site_label
_atom_site_fract_x
_atom_site_fract_y
_atom_site_fract_z
Si Si1 0.000000 0.000000 0.680362
Si Si2 0.794958 0.936642 0.033958
Si Si3 0.809647 0.924323 0.543032
Si Si4 0.761908 0.504300 0.793982
O O1 0.135517 0.024704 0.624817
O O2 0.986132 0.137450 0.733558
O O3 0.646886 0.853115 0.019190
O O4 0.794327 0.988198 0.120448
O O5 0.926301 0.827699 0.018027
O O6 0.661689 0.838312 0.543337
O O7 0.936256 0.819874 0.510802
O O8 0.844914 0.655087 0.785944
O O9 0.880006 0.380006 0.783570
#
# Coordination Sequence:
#
# PCOD9555524 Si02
#       4
#     4   8   8   8
#     4  10  19  34  57  80 106 136 176 220 259 306
#     4  10  20  34  53  76 102 136 178 221 265 314
#     4   9  20  36  55  80 107 137 174 214 258 309
#     4  10  21  36  54  77 106 141 178 216 264 319
#
# _framework density 18.245082
#
# number of rings (size 3 to 8) (size 9 to 14) (size 15 to 20)
#    0.000    2.571    0.000    3.429    0.000    6.857 
#    0.000    1.429    0.000    6.000    0.000    0.000 
#    0.000    0.000    0.000    0.000    0.000    0.000 
#
# Total GULP energy -156203.484141 kJ/mol
# GULP energy per Si atom -5578.695862 kJ/mol
# Density = 1.820356 g / cm^3
# Si number density = 18.245082 Si / 1000 Ang^3
#
#
#
# Elastic Constant Matrix: (Units=GPa)
#
#
# Indices 1 2 3 4 5 6 
#
# 1 69.5703 31.9230 53.4455 0.0000 0.0000 0.0000
# 2 31.9230 69.5633 53.4442 0.0000 0.0000 0.0000
# 3 53.4455 53.4442 109.6166 0.0000 0.0000 0.0000
# 4 0.0000 0.0000 0.0000 1.5134 0.0000 0.0000
# 5 0.0000 0.0000 0.0000 0.0000 1.5137 0.0000
# 6 0.0000 0.0000 0.0000 0.0000 0.0000 43.7181
#
#
#
# Elastic Compliance Matrix: (Units=1/GPa)
#
#
# Indices 1 2 3 4 5 6 
#
# 1 0.023408 -0.003156 -0.009874 0.000000 0.000000 0.000000
# 2 -0.003156 0.023411 -0.009875 0.000000 0.000000 0.000000
# 3 -0.009874 -0.009875 0.018752 0.000000 0.000000 0.000000
# 4 0.000000 0.000000 0.000000 0.660770 0.000000 0.000000
# 5 0.000000 0.000000 0.000000 0.000000 0.660626 0.000000
# 6 0.000000 0.000000 0.000000 0.000000 0.000000 0.022874
#
#
# Mechanical properties :
#
#
# Convention : Reuss Voigt Hill
#
# Bulk Modulus (GPa) = 50.60857 58.48620 54.54738
# Shear Modulus (GPa) = 3.41942 16.67820 10.04881
#
# Velocity S-wave (km/s) = 1.37048 3.02672 2.34939
# Velocity P-wave (km/s) = 5.50479 6.65884 6.10913
#
# Compressibility (1/GPa) = 0.01975950
#
# Stress axis : x y z
#
# Youngs Moduli (GPa) = 42.72123 42.71560 53.32812
#
# Poissons Ratio (x) = 0.13480 0.52657
# Poissons Ratio (y) = 0.13482 0.52664
# Poissons Ratio (z) = 0.42184 0.42183
#
# Static dielectric constant tensor:
#      x y z
#    x 1.631380 0.000000 0.000000 
#    y 0.000000 1.631380 0.000000 
#    z 0.000000 0.000000 1.608380 
# 
# From -- ./inp_files/2384.got.cif
#   From: 2010.05.17/outbox.cif.g08.bks.cpg/sg113_cif.got.tgz:2384.got - 2010.05.20 11:03:00.
