data_PCOD9555090
_publ_section_title
;
Structure prediction by ZEFSAII (Michael W. Deem and Ramdas Pophale) SiO2 
 PCOD9555090
Probable space group: P -4 2 C
;
_chemical_formula_sum "Si O2"
_cell_formula_units_Z 28
_cell_length_a 8.577327
_cell_length_b 8.577327
_cell_length_c 16.414685
_cell_angle_alpha 90.000000
_cell_angle_beta 90.000000
_cell_angle_gamma 90.000000
_cell_volume 1207.637214
_symmetry_space_group_name_H-M "P -4 2 C"
_symmetry_group_IT_number 112
_symmetry_cell_setting 'tetragonal'
loop_
_space_group_symop_operation_xyz
x,y,z
y,-x,-z
-x,-y,z
-y,x,-z
x,-y,1/2-z
-x,y,1/2-z
-y,-x,1/2+z
y,x,1/2+z
loop_
_atom_site_type_symbol
_atom_site_label
_atom_site_fract_x
_atom_site_fract_y
_atom_site_fract_z
Si Si1 0.794617 0.161358 0.514373
Si Si2 0.668075 0.751861 0.138121
Si Si3 0.000000 0.500000 0.750000
Si Si4 0.011723 0.324838 0.345932
Si Si5 0.500000 0.500000 0.250000
O O1 0.658671 0.243701 0.460494
O O2 0.975698 0.212846 0.508876
O O3 0.751230 0.159331 0.610577
O O4 0.597232 0.892327 0.188858
O O5 0.854534 0.769237 0.138035
O O6 0.607853 0.602805 0.189046
O O7 0.000000 0.500000 0.379696
O O8 0.000000 0.335904 0.250000
#
# Coordination Sequence:
#
# PCOD9555090 Si02
#       5
#     8   8   2   8   2
#     4   9  20  39  62  93 126 162 220 279 337 401
#     4  10  22  41  64  93 131 174 218 285 329 420
#     4  10  24  38  66  94 122 182 228 268 340 406
#     4  10  21  38  62  91 126 167 213 278 341 403
#     4  10  20  42  66  96 136 176 236 260 360 432
#
# _framework density 23.185772
#
# number of rings (size 3 to 8) (size 9 to 14) (size 15 to 20)
#    0.000    2.286    0.000    1.714    6.000    0.000 
#    0.000    0.000    0.000    1.714    0.000    0.000 
#    0.000    0.000    0.000    0.000    0.000    0.000 
#
# Total GULP energy -155870.836121 kJ/mol
# GULP energy per Si atom -5566.815576 kJ/mol
# Density = 2.313300 g / cm^3
# Si number density = 23.185772 Si / 1000 Ang^3
#
#
#
# Elastic Constant Matrix: (Units=GPa)
#
#
# Indices 1 2 3 4 5 6 
#
# 1 63.5831 16.7574 32.7432 0.0000 0.0000 0.0000
# 2 16.7574 63.5831 32.7432 0.0000 0.0000 0.0000
# 3 32.7432 32.7432 122.3467 0.0000 0.0000 0.0000
# 4 0.0000 0.0000 0.0000 21.8952 0.0000 0.0000
# 5 0.0000 0.0000 0.0000 0.0000 21.8952 0.0000
# 6 0.0000 0.0000 0.0000 0.0000 0.0000 15.4347
#
#
#
# Elastic Compliance Matrix: (Units=1/GPa)
#
#
# Indices 1 2 3 4 5 6 
#
# 1 0.018638 -0.002718 -0.004261 0.000000 0.000000 0.000000
# 2 -0.002718 0.018638 -0.004261 0.000000 0.000000 0.000000
# 3 -0.004261 -0.004261 0.010454 0.000000 0.000000 0.000000
# 4 0.000000 0.000000 0.000000 0.045672 0.000000 0.000000
# 5 0.000000 0.000000 0.000000 0.000000 0.045672 0.000000
# 6 0.000000 0.000000 0.000000 0.000000 0.000000 0.064789
#
#
# Mechanical properties :
#
#
# Convention : Reuss Voigt Hill
#
# Bulk Modulus (GPa) = 39.60176 46.00007 42.80092
# Shear Modulus (GPa) = 21.29851 22.99630 22.14741
#
# Velocity S-wave (km/s) = 3.03413 3.15275 3.09401
# Velocity P-wave (km/s) = 5.42143 5.75638 5.59142
#
# Compressibility (1/GPa) = 0.02525140
#
# Stress axis : x y z
#
# Youngs Moduli (GPa) = 53.65430 53.65430 95.65730
#
# Poissons Ratio (x) = 0.14583 0.40756
# Poissons Ratio (y) = 0.14583 0.40756
# Poissons Ratio (z) = 0.22860 0.22860
#
# Static dielectric constant tensor:
#      x y z
#    x 4.688250 0.000000 0.000000 
#    y 0.000000 4.688250 0.000000 
#    z 0.000000 0.000000 5.335570 
# 
# From -- ./inp_files/3854.got.cif
#   From: 2010.05.17/outbox.cif.g08.bks.cpg/sg112_2_cif.got.tgz:3854.got - 2010.05.20 10:59:04.
