data_PCOD9555817
_publ_section_title
;
Structure prediction by ZEFSAII (Michael W. Deem and Ramdas Pophale) SiO2 
 PCOD9555817
Probable space group: P -4 21 C
;
_chemical_formula_sum "Si O2"
_cell_formula_units_Z 48
_cell_length_a 17.551177
_cell_length_b 17.551177
_cell_length_c 5.597427
_cell_angle_alpha 90.000000
_cell_angle_beta 90.000000
_cell_angle_gamma 90.000000
_cell_volume 1724.252762
_symmetry_space_group_name_H-M "P -4 21 C"
_symmetry_group_IT_number 114
_symmetry_cell_setting 'tetragonal'
loop_
_space_group_symop_operation_xyz
x,y,z
y,-x,-z
-x,-y,z
-y,x,-z
1/2+x,1/2-y,1/2-z
1/2-x,1/2+y,1/2-z
1/2-y,1/2-x,1/2+z
1/2+y,1/2+x,1/2+z
loop_
_atom_site_type_symbol
_atom_site_label
_atom_site_fract_x
_atom_site_fract_y
_atom_site_fract_z
Si Si1 0.727062 0.935717 0.790220
Si Si2 0.549946 0.353015 0.822408
Si Si3 0.862138 0.062482 0.822092
Si Si4 0.113565 0.773703 0.714835
Si Si5 0.223013 0.318410 0.170268
Si Si6 0.900981 0.556951 0.693548
O O1 0.793680 0.000981 0.814903
O O2 0.744185 0.882220 0.560248
O O3 0.653261 0.986611 0.744686
O O4 0.722065 0.893481 0.046846
O O5 0.559680 0.400100 0.580528
O O6 0.472366 0.307413 0.803074
O O7 0.615376 0.287302 0.823887
O O8 0.552511 0.399417 0.065396
O O9 0.839572 0.151380 0.796804
O O10 0.226726 0.273561 0.420096
O O11 0.137847 0.355526 0.172695
O O12 0.931363 0.545926 0.424447
#
# Coordination Sequence:
#
# PCOD9555817 Si02
#       6
#     8   8   8   8   8   8
#     4  10  19  30  42  59  78  96 130 168 198 235
#     4  10  19  30  42  59  78  96 130 168 198 235
#     4  10  18  29  43  55  73 101 128 161 205 239
#     4  10  18  29  43  55  73 101 128 161 205 239
#     4  10  16  25  41  60  78  96 114 148 206 236
#     4  10  16  25  41  60  78  96 114 148 206 236
#
# _framework density 27.838145999999998
#
# number of rings (size 3 to 8) (size 9 to 14) (size 15 to 20)
#    0.000    2.000    0.000   11.000    0.000    0.000 
#    0.000    0.000    0.000   48.000    0.000    0.000 
#    0.000    0.000    0.000    0.000    0.000    0.000 
#
# Total GULP energy -268156.139548 kJ/mol
# GULP energy per Si atom -5586.586241 kJ/mol
# Density = 2.777478 g / cm^3
# Si number density = 27.838146 Si / 1000 Ang^3
#
#
#
# Elastic Constant Matrix: (Units=GPa)
#
#
# Indices 1 2 3 4 5 6 
#
# 1 37.9563 31.8714 5.6648 0.0000 0.0000 0.0000
# 2 31.8714 37.9563 5.6648 0.0000 0.0000 0.0000
# 3 5.6648 5.6648 313.9988 0.0000 0.0000 0.0000
# 4 0.0000 0.0000 0.0000 20.2066 0.0000 0.0000
# 5 0.0000 0.0000 0.0000 0.0000 20.2066 0.0000
# 6 0.0000 0.0000 0.0000 0.0000 0.0000 44.5158
#
#
#
# Elastic Compliance Matrix: (Units=1/GPa)
#
#
# Indices 1 2 3 4 5 6 
#
# 1 0.089353 -0.074990 -0.000259 0.000000 0.000000 0.000000
# 2 -0.074990 0.089353 -0.000259 0.000000 0.000000 0.000000
# 3 -0.000259 -0.000259 0.003194 0.000000 0.000000 0.000000
# 4 0.000000 0.000000 0.000000 0.049489 0.000000 0.000000
# 5 0.000000 0.000000 0.000000 0.000000 0.049489 0.000000
# 6 0.000000 0.000000 0.000000 0.000000 0.000000 0.022464
#
#
# Mechanical properties :
#
#
# Convention : Reuss Voigt Hill
#
# Bulk Modulus (GPa) = 32.37962 52.92369 42.65165
# Shear Modulus (GPa) = 10.76075 40.09983 25.43029
#
# Velocity S-wave (km/s) = 1.96821 3.79946 3.02570
# Velocity P-wave (km/s) = 4.10144 6.18873 5.24986
#
# Compressibility (1/GPa) = 0.03088363
#
# Stress axis : x y z
#
# Youngs Moduli (GPa) = 11.19159 11.19159 313.07968
#
# Poissons Ratio (x) = 0.83925 0.08113
# Poissons Ratio (y) = 0.83925 0.08113
# Poissons Ratio (z) = 0.00290 0.00290
#
# Static dielectric constant tensor:
#      x y z
#    x 2.073310 0.000000 0.000000 
#    y 0.000000 2.073310 0.000000 
#    z 0.000000 0.000000 2.280810 
# 
# From -- ./inp_files/218.got.cif
#   From: 2010.05.17/outbox.cif.g08.bks.cpg/sg114_1_cif.got.tgz:218.got - 2010.05.20 11:04:54.
