data_PCOD9555432
_publ_section_title
;
Structure prediction by ZEFSAII (Michael W. Deem and Ramdas Pophale) SiO2 
 PCOD9555432
Probable space group: P -4 2 C
;
_chemical_formula_sum "Si O2"
_cell_formula_units_Z 34
_cell_length_a 15.000000
_cell_length_b 15.000000
_cell_length_c 9.000000
_cell_angle_alpha 90.000000
_cell_angle_beta 90.000000
_cell_angle_gamma 90.000000
_cell_volume 2025.000000
_symmetry_space_group_name_H-M "P -4 2 C"
_symmetry_group_IT_number 112
_symmetry_cell_setting 'tetragonal'
loop_
_space_group_symop_operation_xyz
x,y,z
y,-x,-z
-x,-y,z
-y,x,-z
x,-y,1/2-z
-x,y,1/2-z
-y,-x,1/2+z
y,x,1/2+z
loop_
_atom_site_type_symbol
_atom_site_label
_atom_site_fract_x
_atom_site_fract_y
_atom_site_fract_z
Si Si1 0.249233 0.397805 0.758814
Si Si2 0.608826 0.595658 0.013862
Si Si3 0.074794 0.178120 0.356087
Si Si4 0.751935 0.897669 0.187299
Si Si5 0.000000 0.000000 0.000000
O O1 0.216610 0.500000 0.750000
O O2 0.304835 0.387584 0.911583
O O3 0.329868 0.387784 0.640588
O O4 0.167818 0.330397 0.728140
O O5 0.608890 0.490387 0.058841
O O6 0.162250 0.149893 0.263742
O O7 0.096128 0.230783 0.508934
O O8 0.000000 0.222903 0.250000
O O9 0.030442 0.085193 0.407527
O O10 0.744036 0.000000 0.250000
#
# Coordination Sequence:
#
# PCOD9555432 Si02
#       5
#     8   8   8   8   2
#     4  10  21  35  53  79 108 141 179 217 259 319
#     4   9  17  33  57  82 105 130 168 225 283 320
#     4  12  21  34  55  82 109 135 176 226 278 323
#     4  12  22  35  52  76 108 148 179 216 263 319
#     4  12  18  32  54  76 106 128 162 232 274 312
#
# _framework density 16.790123000000001
#
# number of rings (size 3 to 8) (size 9 to 14) (size 15 to 20)
#    0.000    1.176    4.706    2.471    0.000    3.294 
#    0.000    0.000    0.000    0.000    0.000    4.941 
#    0.000    0.000    0.000    0.000    0.000    0.000 
#
# Total GULP energy -189560.194754 kJ/mol
# GULP energy per Si atom -5575.299846 kJ/mol
# Density = 1.675191 g / cm^3
# Si number density = 16.790123 Si / 1000 Ang^3
#
#
#
# Elastic Constant Matrix: (Units=GPa)
#
#
# Indices 1 2 3 4 5 6 
#
# 1 90.2371 47.9594 32.6320 0.0000 0.0000 0.0000
# 2 47.9594 90.2371 32.6320 0.0000 0.0000 0.0000
# 3 32.6320 32.6320 85.1677 0.0000 0.0000 0.0000
# 4 0.0000 0.0000 0.0000 17.4150 0.0000 0.0000
# 5 0.0000 0.0000 0.0000 0.0000 17.4150 0.0000
# 6 0.0000 0.0000 0.0000 0.0000 0.0000 33.5554
#
#
#
# Elastic Compliance Matrix: (Units=1/GPa)
#
#
# Indices 1 2 3 4 5 6 
#
# 1 0.016244 -0.007409 -0.003385 0.000000 0.000000 0.000000
# 2 -0.007409 0.016244 -0.003385 0.000000 0.000000 0.000000
# 3 -0.003385 -0.003385 0.014335 0.000000 0.000000 0.000000
# 4 0.000000 0.000000 0.000000 0.057422 0.000000 0.000000
# 5 0.000000 0.000000 0.000000 0.000000 0.057422 0.000000
# 6 0.000000 0.000000 0.000000 0.000000 0.000000 0.029801
#
#
# Mechanical properties :
#
#
# Convention : Reuss Voigt Hill
#
# Bulk Modulus (GPa) = 54.15714 54.67651 54.41683
# Shear Modulus (GPa) = 22.12566 23.83829 22.98198
#
# Velocity S-wave (km/s) = 3.63406 3.77209 3.70372
# Velocity P-wave (km/s) = 7.06639 7.18379 7.12533
#
# Compressibility (1/GPa) = 0.01846479
#
# Stress axis : x y z
#
# Youngs Moduli (GPa) = 61.56159 61.56159 69.75709
#
# Poissons Ratio (x) = 0.45612 0.23613
# Poissons Ratio (y) = 0.45612 0.23613
# Poissons Ratio (z) = 0.20839 0.20839
#
# Static dielectric constant tensor:
#      x y z
#    x 1.553510 0.000000 0.000000 
#    y 0.000000 1.553510 0.000000 
#    z 0.000000 0.000000 1.630740 
# 
# From -- ./inp_files/1057.got.cif
#   From: 2010.05.17/outbox.ucp.g08.bks.cvg/sg112_1_cif.got.tgz:1057.got - 2010.06.11 11:33:06.
