data_PCOD9555405
_publ_section_title
;
Structure prediction by ZEFSAII (Michael W. Deem and Ramdas Pophale) SiO2 
 PCOD9555405
Probable space group: P -4 2 C
;
_chemical_formula_sum "Si O2"
_cell_formula_units_Z 20
_cell_length_a 5.365909
_cell_length_b 5.365909
_cell_length_c 28.379265
_cell_angle_alpha 90.000000
_cell_angle_beta 90.000000
_cell_angle_gamma 90.000000
_cell_volume 817.123592
_symmetry_space_group_name_H-M "P -4 2 C"
_symmetry_group_IT_number 112
_symmetry_cell_setting 'tetragonal'
loop_
_space_group_symop_operation_xyz
x,y,z
y,-x,-z
-x,-y,z
-y,x,-z
x,-y,1/2-z
-x,y,1/2-z
-y,-x,1/2+z
y,x,1/2+z
loop_
_atom_site_type_symbol
_atom_site_label
_atom_site_fract_x
_atom_site_fract_y
_atom_site_fract_z
Si Si1 0.159195 0.751445 0.825233
Si Si2 0.500000 0.500000 0.250000
Si Si3 0.500000 0.500000 0.500000
Si Si4 0.746775 0.844365 0.567066
O O1 0.348301 0.684007 0.784060
O O2 0.269760 0.783785 0.877408
O O3 0.000000 0.500000 0.828236
O O4 0.000000 0.000000 0.815208
O O5 0.714332 0.602828 0.534629
O O6 0.500000 0.000000 0.556081
O O7 0.000000 0.000000 0.559256
#
# Coordination Sequence:
#
# PCOD9555405 Si02
#       4
#     8   2   2   8
#     4  11  29  53  78 117 164 213 270 339 418 492
#     4  12  28  50  88 122 156 222 276 354 394 512
#     4  12  30  48  88 126 160 220 282 352 396 514
#     4  11  30  53  81 118 168 217 272 341 422 492
#
# _framework density 24.476101
#
# number of rings (size 3 to 8) (size 9 to 14) (size 15 to 20)
#    0.000    0.800    0.000    1.800   28.000    4.800 
#    0.000    0.000    0.000    0.000    0.000    0.000 
#    0.000    0.000    0.000    0.000    0.000    0.000 
#
# Total GULP energy -112158.649669 kJ/mol
# GULP energy per Si atom -5607.932483 kJ/mol
# Density = 2.442039 g / cm^3
# Si number density = 24.476101 Si / 1000 Ang^3
#
#
#
# Elastic Constant Matrix: (Units=GPa)
#
#
# Indices 1 2 3 4 5 6 
#
# 1 147.0989 68.2440 84.8151 0.0000 0.0000 0.0000
# 2 68.2440 147.0989 84.8151 0.0000 0.0000 0.0000
# 3 84.8151 84.8151 230.9155 0.0000 0.0000 0.0000
# 4 0.0000 0.0000 0.0000 -427.4579 0.0000 0.0000
# 5 0.0000 0.0000 0.0000 0.0000 -427.4579 0.0000
# 6 0.0000 0.0000 0.0000 0.0000 0.0000 -22.8138
#
#
#
# Elastic Compliance Matrix: (Units=1/GPa)
#
#
# Indices 1 2 3 4 5 6 
#
# 1 0.009608 -0.003074 -0.002400 0.000000 0.000000 0.000000
# 2 -0.003074 0.009608 -0.002400 0.000000 0.000000 0.000000
# 3 -0.002400 -0.002400 0.006094 0.000000 0.000000 0.000000
# 4 0.000000 0.000000 0.000000 -0.002339 0.000000 0.000000
# 5 0.000000 0.000000 0.000000 0.000000 -0.002339 0.000000
# 6 0.000000 0.000000 0.000000 0.000000 0.000000 -0.043833
#
#
# Mechanical properties :
#
#
# Convention : Reuss Voigt Hill
#
# Bulk Modulus (GPa) = 104.57944 111.20686 107.89315
# Shear Modulus (GPa) = -1171.60477 -156.39665 -664.00071
#
# Velocity S-wave (km/s) = -21.90233 -8.00228 -16.48861
# Velocity P-wave (km/s) = 24.42941 6.31256 17.84159
#
# Compressibility (1/GPa) = 0.00956211
#
# Stress axis : x y z
#
# Youngs Moduli (GPa) = 104.08073 104.08073 164.10477
#
# Poissons Ratio (x) = 0.31990 0.39386
# Poissons Ratio (y) = 0.31990 0.39386
# Poissons Ratio (z) = 0.24980 0.24980
#
# Static dielectric constant tensor:
#      x y z
#    x 2.395110 0.000000 0.000000 
#    y 0.000000 2.395110 0.000000 
#    z 0.000000 0.000000 2.055360 
# 
# From -- ./inp_files/5661.got.cif
#   From: 2010.05.17/outbox.cif.g08.bks.cpg/sg112_3_cif.got.tgz:5661.got - 2010.05.20 10:59:04.
