data_PCOD9555672
_publ_section_title
;
Structure prediction by ZEFSAII (Michael W. Deem and Ramdas Pophale) SiO2 
 PCOD9555672
Probable space group: P -4 21 M 
;
_chemical_formula_sum "Si O2"
_cell_formula_units_Z 48
_cell_length_a 13.683130
_cell_length_b 13.683130
_cell_length_c 15.480351
_cell_angle_alpha 90.000000
_cell_angle_beta 90.000000
_cell_angle_gamma 90.000000
_cell_volume 2898.355878
_symmetry_space_group_name_H-M "P -4 21 M "
_symmetry_group_IT_number 113
_symmetry_cell_setting 'tetragonal'
loop_
_space_group_symop_operation_xyz
x,y,z
y,-x,-z
-x,-y,z
-y,x,-z
1/2+x,1/2-y,-z
1/2-x,1/2+y,-z
1/2-y,1/2-x,z
1/2+y,1/2+x,z
loop_
_atom_site_type_symbol
_atom_site_label
_atom_site_fract_x
_atom_site_fract_y
_atom_site_fract_z
Si Si1 0.115254 0.776938 0.730379
Si Si2 0.723067 0.615251 0.730376
Si Si3 0.274883 0.612645 0.930182
Si Si4 0.612644 0.274882 0.069820
Si Si5 0.615696 0.722086 0.578893
Si Si6 0.777913 0.115694 0.578895
O O1 0.175738 0.675738 0.719228
O O2 0.126603 0.807275 0.830660
O O3 0.164870 0.853503 0.665835
O O4 0.000002 0.765160 0.712434
O O5 0.824270 0.675731 0.719224
O O6 0.692731 0.626602 0.830657
O O7 0.646503 0.664868 0.665832
O O8 0.180995 0.680995 0.943455
O O9 0.249539 0.500000 0.941188
O O10 0.354031 0.645969 0.000002
O O11 0.680994 0.180994 0.056544
O O12 0.676572 0.823429 0.577299
O O13 0.657381 0.657381 0.499999
O O14 0.500001 0.735598 0.572506
O O15 0.676571 0.176571 0.577301
#
# Coordination Sequence:
#
# PCOD9555672 Si02
#       6
#     8   8   8   8   8   8
#     4   9  18  32  50  73  99 127 160 198 241 288
#     4   9  18  32  50  73  99 127 160 198 241 288
#     4   9  18  32  49  70  97 127 160 200 243 287
#     4   9  18  32  49  70  97 127 160 200 243 287
#     4  10  21  36  53  74 100 129 162 199 238 282
#     4  10  21  36  53  74 100 129 162 199 238 282
#
# _framework density 16.561112000000001
#
# number of rings (size 3 to 8) (size 9 to 14) (size 15 to 20)
#    0.000    2.667    0.000    1.000    0.000    5.000 
#    0.000    6.667    0.000    6.000    0.000    9.333 
#    0.000    0.000    0.000    0.000    0.000    0.000 
#
# Total GULP energy -267551.210023 kJ/mol
# GULP energy per Si atom -5573.983542 kJ/mol
# Density = 1.652342 g / cm^3
# Si number density = 16.561112 Si / 1000 Ang^3
#
#
#
# Elastic Constant Matrix: (Units=GPa)
#
#
# Indices 1 2 3 4 5 6 
#
# 1 123.5847 56.0568 63.6947 0.0000 0.0000 0.0000
# 2 56.0568 123.5849 63.6945 0.0000 0.0000 0.0000
# 3 63.6947 63.6945 85.0865 0.0000 0.0000 0.0000
# 4 0.0000 0.0000 0.0000 23.1228 0.0000 0.0000
# 5 0.0000 0.0000 0.0000 0.0000 23.1230 0.0000
# 6 0.0000 0.0000 0.0000 0.0000 0.0000 4.5355
#
#
#
# Elastic Compliance Matrix: (Units=1/GPa)
#
#
# Indices 1 2 3 4 5 6 
#
# 1 0.013337 -0.001472 -0.008882 0.000000 0.000000 0.000000
# 2 -0.001472 0.013337 -0.008882 0.000000 0.000000 0.000000
# 3 -0.008882 -0.008882 0.025051 0.000000 0.000000 0.000000
# 4 0.000000 0.000000 0.000000 0.043247 0.000000 0.000000
# 5 0.000000 0.000000 0.000000 0.000000 0.043247 0.000000
# 6 0.000000 0.000000 0.000000 0.000000 0.000000 0.220482
#
#
# Mechanical properties :
#
#
# Convention : Reuss Voigt Hill
#
# Bulk Modulus (GPa) = 75.45619 77.68310 76.56964
# Shear Modulus (GPa) = 12.45049 20.07695 16.26372
#
# Velocity S-wave (km/s) = 2.74485 3.48558 3.13716
# Velocity P-wave (km/s) = 7.46370 7.95033 7.71086
#
# Compressibility (1/GPa) = 0.01325272
#
# Stress axis : x y z
#
# Youngs Moduli (GPa) = 74.97946 74.97992 39.91886
#
# Poissons Ratio (x) = 0.11035 0.35457
# Poissons Ratio (y) = 0.11035 0.35456
# Poissons Ratio (z) = 0.66598 0.66598
#
# Static dielectric constant tensor:
#      x y z
#    x 1.528770 0.000000 0.000000 
#    y 0.000000 1.528770 0.000000 
#    z 0.000000 0.000000 1.579290 
# 
# From -- ./inp_files/2458.got.cif
#   From: 2010.05.17/outbox.cif.g08.bks.cpg/sg113_cif.got.tgz:2458.got - 2010.05.20 11:03:00.
