data_PCOD9555806
_publ_section_title
;
Structure prediction by ZEFSAII (Michael W. Deem and Ramdas Pophale) SiO2 
 PCOD9555806
Probable space group: P -4 21 M 
;
_chemical_formula_sum "Si O2"
_cell_formula_units_Z 48
_cell_length_a 12.000000
_cell_length_b 12.000000
_cell_length_c 18.000000
_cell_angle_alpha 90.000000
_cell_angle_beta 90.000000
_cell_angle_gamma 90.000000
_cell_volume 2592.000000
_symmetry_space_group_name_H-M "P -4 21 M "
_symmetry_group_IT_number 113
_symmetry_cell_setting 'tetragonal'
loop_
_space_group_symop_operation_xyz
x,y,z
y,-x,-z
-x,-y,z
-y,x,-z
1/2+x,1/2-y,-z
1/2-x,1/2+y,-z
1/2-y,1/2-x,z
1/2+y,1/2+x,z
loop_
_atom_site_type_symbol
_atom_site_label
_atom_site_fract_x
_atom_site_fract_y
_atom_site_fract_z
Si Si1 0.767144 0.084773 0.568498
Si Si2 0.006775 0.680896 0.113943
Si Si3 0.973086 0.175194 0.977185
Si Si4 0.264181 0.582988 0.673922
Si Si5 0.094471 0.095354 0.178369
Si Si6 0.831884 0.147129 0.401179
O O1 0.641061 0.141061 0.576289
O O2 0.846166 0.168449 0.613228
O O3 0.801693 0.097125 0.482432
O O4 0.803654 0.959573 0.595944
O O5 0.119729 0.619729 0.139066
O O6 0.907857 0.592144 0.120757
O O7 0.970746 0.791048 0.158194
O O8 0.020140 0.716189 0.027467
O O9 0.935120 0.171961 0.892499
O O10 0.092055 0.113507 0.981846
O O11 0.138685 0.638685 0.674724
O O12 0.326042 0.606673 0.751448
O O13 0.293055 0.453613 0.653807
O O14 0.000000 0.000000 0.187953
O O15 0.751807 0.251807 0.387453
#
# Coordination Sequence:
#
# PCOD9555806 Si02
#       6
#     8   8   8   8   8   8
#     4  10  21  38  63  94 124 162 214 258 307 380
#     4  10  21  36  58  89 121 155 200 259 315 359
#     4   9  16  34  57  85 115 153 203 241 292 355
#     4  11  24  40  62  92 124 164 210 259 319 379
#     4  11  20  39  62  87 119 164 210 250 305 378
#     4  11  22  39  65  93 125 167 207 257 321 374
#
# _framework density 18.518519000000001
#
# number of rings (size 3 to 8) (size 9 to 14) (size 15 to 20)
#    0.000    1.667    5.000    2.000    0.000    4.000 
#    0.000    5.833    0.000    1.000    0.000    0.000 
#    0.000    0.000    0.000    0.000    0.000    0.000 
#
# Total GULP energy -267356.548635 kJ/mol
# GULP energy per Si atom -5569.928097 kJ/mol
# Density = 1.847637 g / cm^3
# Si number density = 18.518519 Si / 1000 Ang^3
#
#
#
# Elastic Constant Matrix: (Units=GPa)
#
#
# Indices 1 2 3 4 5 6 
#
# 1 104.4207 47.9629 1.7095 0.0000 0.0000 0.0000
# 2 47.9629 104.4216 1.7094 0.0000 0.0000 0.0000
# 3 1.7095 1.7094 62.9419 0.0000 0.0000 0.0000
# 4 0.0000 0.0000 0.0000 12.6032 0.0000 0.0000
# 5 0.0000 0.0000 0.0000 0.0000 12.6027 0.0000
# 6 0.0000 0.0000 0.0000 0.0000 0.0000 19.2753
#
#
#
# Elastic Compliance Matrix: (Units=1/GPa)
#
#
# Indices 1 2 3 4 5 6 
#
# 1 0.012139 -0.005573 -0.000178 0.000000 0.000000 0.000000
# 2 -0.005573 0.012139 -0.000178 0.000000 0.000000 0.000000
# 3 -0.000178 -0.000178 0.015897 0.000000 0.000000 0.000000
# 4 0.000000 0.000000 0.000000 0.079345 0.000000 0.000000
# 5 0.000000 0.000000 0.000000 0.000000 0.079348 0.000000
# 6 0.000000 0.000000 0.000000 0.000000 0.000000 0.051880
#
#
# Mechanical properties :
#
#
# Convention : Reuss Voigt Hill
#
# Bulk Modulus (GPa) = 35.31480 41.61642 38.46561
# Shear Modulus (GPa) = 18.37917 23.58973 20.98445
#
# Velocity S-wave (km/s) = 3.15378 3.57297 3.36990
# Velocity P-wave (km/s) = 5.68974 6.28833 5.99651
#
# Compressibility (1/GPa) = 0.02831674
#
# Stress axis : x y z
#
# Youngs Moduli (GPa) = 82.37683 82.37751 62.90355
#
# Poissons Ratio (x) = 0.45908 0.01122
# Poissons Ratio (y) = 0.45908 0.01122
# Poissons Ratio (z) = 0.01469 0.01469
#
# Static dielectric constant tensor:
#      x y z
#    x 1.656930 0.000000 0.000000 
#    y 0.000000 1.656930 0.000000 
#    z 0.000000 0.000000 1.678150 
# 
# From -- ./inp_files/2474.got.cif
#   From: 2010.05.17/outbox.ucp.g08.bks.cvg/sg113_cif.got.tgz:2474.got - 2010.06.11 11:33:17.
