data_PCOD9555397
_publ_section_title
;
Structure prediction by ZEFSAII (Michael W. Deem and Ramdas Pophale) SiO2 
 PCOD9555397
Probable space group: P -4 2 C
;
_chemical_formula_sum "Si O2"
_cell_formula_units_Z 36
_cell_length_a 8.302911
_cell_length_b 8.302911
_cell_length_c 21.169827
_cell_angle_alpha 90.000000
_cell_angle_beta 90.000000
_cell_angle_gamma 90.000000
_cell_volume 1459.412543
_symmetry_space_group_name_H-M "P -4 2 C"
_symmetry_group_IT_number 112
_symmetry_cell_setting 'tetragonal'
loop_
_space_group_symop_operation_xyz
x,y,z
y,-x,-z
-x,-y,z
-y,x,-z
x,-y,1/2-z
-x,y,1/2-z
-y,-x,1/2+z
y,x,1/2+z
loop_
_atom_site_type_symbol
_atom_site_label
_atom_site_fract_x
_atom_site_fract_y
_atom_site_fract_z
Si Si1 0.439070 0.254072 0.508531
Si Si2 0.684921 0.315738 0.229552
Si Si3 0.920610 0.332730 0.612531
Si Si4 0.500000 0.000000 0.886063
Si Si5 0.156773 0.897847 0.832609
O O1 0.329019 0.405426 0.526228
O O2 0.348541 0.143395 0.458425
O O3 0.497968 0.155087 0.568493
O O4 0.737391 0.500000 0.250000
O O5 0.500000 0.311313 0.250000
O O6 0.694507 0.231062 0.160328
O O7 0.785734 0.201627 0.274702
O O8 0.000000 0.500000 0.633092
O O9 0.070541 0.209206 0.613547
O O10 0.672464 0.018688 0.850529
O O11 0.000000 0.000000 0.816321
#
# Coordination Sequence:
#
# PCOD9555397 Si02
#       5
#     8   8   8   4   8
#     4  11  26  47  81 115 160 211 273 343 413 494
#     4  11  27  48  82 113 151 208 274 336 408 494
#     4  12  24  50  78 114 158 217 275 334 415 503
#     4  12  28  52  77 128 163 218 280 340 426 514
#     4  12  29  52  79 115 167 211 269 346 423 500
#
# _framework density 24.667462
#
# number of rings (size 3 to 8) (size 9 to 14) (size 15 to 20)
#    0.000    0.444    3.333    3.333    6.222    3.556 
#    0.000    0.000    0.000    0.000    0.000    0.000 
#    0.000    0.000    0.000    0.000    0.000    0.000 
#
# Total GULP energy -201229.187406 kJ/mol
# GULP energy per Si atom -5589.699650 kJ/mol
# Density = 2.461132 g / cm^3
# Si number density = 24.667462 Si / 1000 Ang^3
#
#
#
# Elastic Constant Matrix: (Units=GPa)
#
#
# Indices 1 2 3 4 5 6 
#
# 1 143.5369 57.7676 23.7079 0.0000 0.0000 0.0000
# 2 57.7676 143.5369 23.7079 0.0000 0.0000 0.0000
# 3 23.7079 23.7079 72.0056 0.0000 0.0000 0.0000
# 4 0.0000 0.0000 0.0000 30.4945 0.0000 0.0000
# 5 0.0000 0.0000 0.0000 0.0000 30.4945 0.0000
# 6 0.0000 0.0000 0.0000 0.0000 0.0000 61.2550
#
#
#
# Elastic Compliance Matrix: (Units=1/GPa)
#
#
# Indices 1 2 3 4 5 6 
#
# 1 0.008522 -0.003137 -0.001773 0.000000 0.000000 0.000000
# 2 -0.003137 0.008522 -0.001773 0.000000 0.000000 0.000000
# 3 -0.001773 -0.001773 0.015055 0.000000 0.000000 0.000000
# 4 0.000000 0.000000 0.000000 0.032793 0.000000 0.000000
# 5 0.000000 0.000000 0.000000 0.000000 0.032793 0.000000
# 6 0.000000 0.000000 0.000000 0.000000 0.000000 0.016325
#
#
# Mechanical properties :
#
#
# Convention : Reuss Voigt Hill
#
# Bulk Modulus (GPa) = 53.38034 63.27182 58.32608
# Shear Modulus (GPa) = 37.41917 41.37522 39.39720
#
# Velocity S-wave (km/s) = 3.89902 4.09995 4.00075
# Velocity P-wave (km/s) = 6.47741 6.93674 6.71101
#
# Compressibility (1/GPa) = 0.01873349
#
# Stress axis : x y z
#
# Youngs Moduli (GPa) = 117.34046 117.34046 66.42134
#
# Poissons Ratio (x) = 0.36809 0.11777
# Poissons Ratio (y) = 0.36809 0.11777
# Poissons Ratio (z) = 0.20806 0.20806
#
# Static dielectric constant tensor:
#      x y z
#    x 2.042720 0.000000 0.000000 
#    y 0.000000 2.042720 0.000000 
#    z 0.000000 0.000000 1.923960 
# 
# From -- ./inp_files/4659.got.cif
#   From: 2010.05.17/outbox.cif.g08.bks.cpg/sg112_3_cif.got.tgz:4659.got - 2010.05.20 10:59:04.
