data_PCOD9555841
_publ_section_title
;
Structure prediction by ZEFSAII (Michael W. Deem and Ramdas Pophale) SiO2 
 PCOD9555841
Probable space group: P -4 21 C
;
_chemical_formula_sum "Si O2"
_cell_formula_units_Z 60
_cell_length_a 13.881653
_cell_length_b 13.881653
_cell_length_c 14.539783
_cell_angle_alpha 90.000000
_cell_angle_beta 90.000000
_cell_angle_gamma 90.000000
_cell_volume 2801.820401
_symmetry_space_group_name_H-M "P -4 21 C"
_symmetry_group_IT_number 114
_symmetry_cell_setting 'tetragonal'
loop_
_space_group_symop_operation_xyz
x,y,z
y,-x,-z
-x,-y,z
-y,x,-z
1/2+x,1/2-y,1/2-z
1/2-x,1/2+y,1/2-z
1/2-y,1/2-x,1/2+z
1/2+y,1/2+x,1/2+z
loop_
_atom_site_type_symbol
_atom_site_label
_atom_site_fract_x
_atom_site_fract_y
_atom_site_fract_z
Si Si1 0.367227 0.021510 0.171094
Si Si2 0.333236 0.180120 0.032215
Si Si3 0.519921 0.288324 0.085042
Si Si4 0.810488 0.705284 0.665905
Si Si5 0.485598 0.846664 0.246412
Si Si6 0.271310 0.718047 0.136327
Si Si7 0.297383 0.501291 0.205700
Si Si8 0.500000 0.500000 0.140074
O O1 0.365664 0.079363 0.076572
O O2 0.414668 0.093597 0.249085
O O3 0.426584 0.923257 0.181355
O O4 0.258461 0.000266 0.198714
O O5 0.433014 0.241593 0.028137
O O6 0.258121 0.233242 0.101378
O O7 0.283710 0.181965 0.932896
O O8 0.497136 0.249708 0.188663
O O9 0.632038 0.258139 0.076165
O O10 0.514889 0.402913 0.082372
O O11 0.822573 0.588483 0.671546
O O12 0.780125 0.732810 0.771089
O O13 0.916631 0.747281 0.647072
O O14 0.287359 0.609021 0.169222
O O15 0.408869 0.480455 0.203739
#
# Coordination Sequence:
#
# PCOD9555841 Si02
#       8
#     8   8   8   8   8   8   8   4
#     4   9  17  34  59  77 105 155 193 240 289 342
#     4  11  20  33  57  82 114 147 191 242 294 348
#     4   9  19  32  50  80 118 140 183 237 298 343
#     4  10  19  36  55  80 115 152 183 238 292 344
#     4   8  17  33  57  77 106 151 195 231 288 349
#     4  10  22  34  54  87 114 147 194 238 293 357
#     4  10  19  34  57  77 117 146 192 228 296 347
#     4  10  18  30  51  90 111 148 178 236 291 362
#
# _framework density 21.414649000000001
#
# number of rings (size 3 to 8) (size 9 to 14) (size 15 to 20)
#    0.000    2.400    2.667    0.000    1.867    0.000 
#    0.000    0.667    8.800    3.200    0.000    0.000 
#    0.000    0.000    0.000    0.000    0.000    0.000 
#
# Total GULP energy -334237.345660 kJ/mol
# GULP energy per Si atom -5570.622428 kJ/mol
# Density = 2.136591 g / cm^3
# Si number density = 21.414649 Si / 1000 Ang^3
#
#
#
# Elastic Constant Matrix: (Units=GPa)
#
#
# Indices 1 2 3 4 5 6 
#
# 1 64.6798 -14.1296 7.3189 0.0000 0.0000 0.0000
# 2 -14.1296 64.6798 7.3189 0.0000 0.0000 0.0000
# 3 7.3189 7.3189 44.9280 0.0000 0.0000 0.0000
# 4 0.0000 0.0000 0.0000 14.9131 0.0000 0.0000
# 5 0.0000 0.0000 0.0000 0.0000 14.9131 0.0000
# 6 0.0000 0.0000 0.0000 0.0000 0.0000 25.2085
#
#
#
# Elastic Compliance Matrix: (Units=1/GPa)
#
#
# Indices 1 2 3 4 5 6 
#
# 1 0.016725 0.004036 -0.003382 0.000000 0.000000 0.000000
# 2 0.004036 0.016725 -0.003382 0.000000 0.000000 0.000000
# 3 -0.003382 -0.003382 0.023360 0.000000 0.000000 0.000000
# 4 0.000000 0.000000 0.000000 0.067055 0.000000 0.000000
# 5 0.000000 0.000000 0.000000 0.000000 0.067055 0.000000
# 6 0.000000 0.000000 0.000000 0.000000 0.000000 0.039669
#
#
# Mechanical properties :
#
#
# Convention : Reuss Voigt Hill
#
# Bulk Modulus (GPa) = 19.47247 19.47822 19.47535
# Shear Modulus (GPa) = 19.75011 22.59225 21.17118
#
# Velocity S-wave (km/s) = 3.04019 3.25159 3.14766
# Velocity P-wave (km/s) = 4.62995 4.81794 4.72488
#
# Compressibility (1/GPa) = 0.05135456
#
# Stress axis : x y z
#
# Youngs Moduli (GPa) = 59.78989 59.78989 42.80869
#
# Poissons Ratio (x) = -0.24134 0.14478
# Poissons Ratio (y) = -0.24134 0.14478
# Poissons Ratio (z) = 0.20222 0.20222
#
# Static dielectric constant tensor:
#      x y z
#    x 1.835050 0.000000 0.000000 
#    y 0.000000 1.835050 0.000000 
#    z 0.000000 0.000000 1.787270 
# 
# From -- ./inp_files/2292.got.cif
#   From: 2010.05.17/outbox.cif.g08.bks.cpg/sg114_2_cif.got.tgz:2292.got - 2010.05.20 11:04:54.
