data_PCOD9555125
_publ_section_title
;
Structure prediction by ZEFSAII (Michael W. Deem and Ramdas Pophale) SiO2 
 PCOD9555125
Probable space group: P -4 2 C
;
_chemical_formula_sum "Si O2"
_cell_formula_units_Z 60
_cell_length_a 12.345476
_cell_length_b 12.345476
_cell_length_c 19.754283
_cell_angle_alpha 90.000000
_cell_angle_beta 90.000000
_cell_angle_gamma 90.000000
_cell_volume 3010.765634
_symmetry_space_group_name_H-M "P -4 2 C"
_symmetry_group_IT_number 112
_symmetry_cell_setting 'tetragonal'
loop_
_space_group_symop_operation_xyz
x,y,z
y,-x,-z
-x,-y,z
-y,x,-z
x,-y,1/2-z
-x,y,1/2-z
-y,-x,1/2+z
y,x,1/2+z
loop_
_atom_site_type_symbol
_atom_site_label
_atom_site_fract_x
_atom_site_fract_y
_atom_site_fract_z
Si Si1 0.781825 0.873956 0.064102
Si Si2 0.746753 0.383623 0.872882
Si Si3 0.244542 0.375439 0.233086
Si Si4 0.734694 0.633268 0.856458
Si Si5 0.000000 0.701377 0.250000
Si Si6 0.114745 0.767722 0.555078
Si Si7 0.585676 0.649267 0.986604
Si Si8 0.010859 0.117000 0.361058
O O1 0.696193 0.849646 0.123694
O O2 0.901025 0.877047 0.096267
O O3 0.750565 0.990549 0.033468
O O4 0.801915 0.782371 0.006841
O O5 0.659128 0.306976 0.835595
O O6 0.744545 0.504481 0.842478
O O7 0.735642 0.405893 0.953578
O O8 0.268039 0.500000 0.250000
O O9 0.298988 0.299427 0.290707
O O10 0.113599 0.359687 0.234266
O O11 0.842626 0.679082 0.892169
O O12 0.643794 0.655776 0.914515
O O13 0.979510 0.781120 0.312716
O O14 0.115435 0.883962 0.591837
O O15 0.630716 0.541401 0.023024
O O16 0.000000 0.000000 0.325680
#
# Coordination Sequence:
#
# PCOD9555125 Si02
#       8
#     8   8   8   8   4   8   8   8
#     4  11  21  37  64  95 127 160 206 261 319 380
#     4  11  23  40  62  88 124 168 208 254 311 371
#     4  12  26  43  64  91 124 164 209 260 319 381
#     4  11  23  40  62  88 124 168 208 254 311 371
#     4  12  22  42  64  92 126 156 198 264 328 368
#     4  11  21  37  64  95 127 160 206 261 319 380
#     4   9  18  34  58  84 109 148 204 252 289 344
#     4  10  21  37  65  94 119 161 205 250 310 379
#
# _framework density 19.928487000000001
#
# number of rings (size 3 to 8) (size 9 to 14) (size 15 to 20)
#    0.000    1.200    5.333    1.600    0.000    2.667 
#    0.000    0.667    0.000    1.600    0.000    0.000 
#    0.000    0.000    0.000    0.000    0.000    0.000 
#
# Total GULP energy -334121.572087 kJ/mol
# GULP energy per Si atom -5568.692868 kJ/mol
# Density = 1.988313 g / cm^3
# Si number density = 19.928487 Si / 1000 Ang^3
#
#
#
# Elastic Constant Matrix: (Units=GPa)
#
#
# Indices 1 2 3 4 5 6 
#
# 1 79.7812 9.6862 0.3458 0.0000 0.0000 0.0000
# 2 9.6862 79.7812 0.3458 0.0000 0.0000 0.0000
# 3 0.3458 0.3458 43.9273 0.0000 0.0000 0.0000
# 4 0.0000 0.0000 0.0000 35.5408 0.0000 0.0000
# 5 0.0000 0.0000 0.0000 0.0000 35.5408 0.0000
# 6 0.0000 0.0000 0.0000 0.0000 0.0000 -0.9484
#
#
#
# Elastic Compliance Matrix: (Units=1/GPa)
#
#
# Indices 1 2 3 4 5 6 
#
# 1 0.012722 -0.001544 -0.000088 0.000000 0.000000 0.000000
# 2 -0.001544 0.012722 -0.000088 0.000000 0.000000 0.000000
# 3 -0.000088 -0.000088 0.022766 0.000000 0.000000 0.000000
# 4 0.000000 0.000000 0.000000 0.028137 0.000000 0.000000
# 5 0.000000 0.000000 0.000000 0.000000 0.028137 0.000000
# 6 0.000000 0.000000 0.000000 0.000000 0.000000 -1.054402
#
#
# Mechanical properties :
#
#
# Convention : Reuss Voigt Hill
#
# Bulk Modulus (GPa) = 22.33632 24.91615 23.62624
# Shear Modulus (GPa) = -5.36737 26.90074 10.76668
#
# Velocity S-wave (km/s) = -1.64291 3.67803 2.32688
# Velocity P-wave (km/s) = 2.76291 5.52876 4.37040
#
# Compressibility (1/GPa) = 0.04477014
#
# Stress axis : x y z
#
# Youngs Moduli (GPa) = 78.60306 78.60306 43.92464
#
# Poissons Ratio (x) = 0.12138 0.00387
# Poissons Ratio (y) = 0.12138 0.00387
# Poissons Ratio (z) = 0.00692 0.00692
#
# Static dielectric constant tensor:
#      x y z
#    x 1.762150 0.000000 0.000000 
#    y 0.000000 1.762150 0.000000 
#    z 0.000000 0.000000 1.736500 
# 
# From -- ./inp_files/4971.got.cif
#   From: 2010.05.17/outbox.cif.g08.bks.cpg/sg112_3_cif.got.tgz:4971.got - 2010.05.20 10:59:04.
