data_PCOD9555858
_publ_section_title
;
Structure prediction by ZEFSAII (Michael W. Deem and Ramdas Pophale) SiO2 
 PCOD9555858
Probable space group: P -4 21 C
;
_chemical_formula_sum "Si O2"
_cell_formula_units_Z 26
_cell_length_a 8.629020
_cell_length_b 8.629020
_cell_length_c 18.251370
_cell_angle_alpha 90.000000
_cell_angle_beta 90.000000
_cell_angle_gamma 90.000000
_cell_volume 1358.996758
_symmetry_space_group_name_H-M "P -4 21 C"
_symmetry_group_IT_number 114
_symmetry_cell_setting 'tetragonal'
loop_
_space_group_symop_operation_xyz
x,y,z
y,-x,-z
-x,-y,z
-y,x,-z
1/2+x,1/2-y,1/2-z
1/2-x,1/2+y,1/2-z
1/2-y,1/2-x,1/2+z
1/2+y,1/2+x,1/2+z
loop_
_atom_site_type_symbol
_atom_site_label
_atom_site_fract_x
_atom_site_fract_y
_atom_site_fract_z
Si Si1 0.443569 0.830983 0.922035
Si Si2 0.580269 0.346524 0.342208
Si Si3 0.365748 0.104368 0.265231
Si Si4 0.000000 0.000000 0.500000
O O1 0.262469 0.857457 0.906681
O O2 0.516863 0.820496 0.840259
O O3 0.481959 0.667796 0.959709
O O4 0.500000 0.000000 0.953065
O O5 0.500000 0.500000 0.370708
O O6 0.448960 0.259215 0.293827
O O7 0.722865 0.375177 0.287718
O O8 0.500000 0.000000 0.228945
#
# Coordination Sequence:
#
# PCOD9555858 Si02
#       4
#     8   8   8   2
#     4   9  23  43  59  93 123 166 222 255 313 396
#     4  10  18  34  59  93 126 155 200 269 320 384
#     4   9  19  33  56  91 129 155 201 256 327 387
#     4  12  24  48  72  80 140 184 208 274 316 380
#
# _framework density 19.131761000000001
#
# number of rings (size 3 to 8) (size 9 to 14) (size 15 to 20)
#    0.000    3.077    0.000    3.692    6.462    0.000 
#   11.077    0.000    0.000    0.000    0.000    0.000 
#    0.000    0.000    0.000    0.000    0.000    0.000 
#
# Total GULP energy -144754.181537 kJ/mol
# GULP energy per Si atom -5567.468521 kJ/mol
# Density = 1.908822 g / cm^3
# Si number density = 19.131761 Si / 1000 Ang^3
#
#
#
# Elastic Constant Matrix: (Units=GPa)
#
#
# Indices 1 2 3 4 5 6 
#
# 1 137.8602 70.5329 42.2860 0.0000 0.0000 0.0000
# 2 70.5329 137.8602 42.2860 0.0000 0.0000 0.0000
# 3 42.2860 42.2860 29.7314 0.0000 0.0000 0.0000
# 4 0.0000 0.0000 0.0000 25.6927 0.0000 0.0000
# 5 0.0000 0.0000 0.0000 0.0000 25.6927 0.0000
# 6 0.0000 0.0000 0.0000 0.0000 0.0000 17.4959
#
#
#
# Elastic Compliance Matrix: (Units=1/GPa)
#
#
# Indices 1 2 3 4 5 6 
#
# 1 0.013101 -0.001752 -0.016142 0.000000 0.000000 0.000000
# 2 -0.001752 0.013101 -0.016142 0.000000 0.000000 0.000000
# 3 -0.016142 -0.016142 0.079551 0.000000 0.000000 0.000000
# 4 0.000000 0.000000 0.000000 0.038922 0.000000 0.000000
# 5 0.000000 0.000000 0.000000 0.000000 0.038922 0.000000
# 6 0.000000 0.000000 0.000000 0.000000 0.000000 0.057156
#
#
# Mechanical properties :
#
#
# Convention : Reuss Voigt Hill
#
# Bulk Modulus (GPa) = 26.53793 68.40682 47.47238
# Shear Modulus (GPa) = 15.55766 23.79940 19.67853
#
# Velocity S-wave (km/s) = 2.85473 3.53083 3.21063
# Velocity P-wave (km/s) = 4.97667 7.24262 6.21381
#
# Compressibility (1/GPa) = 0.03768191
#
# Stress axis : x y z
#
# Youngs Moduli (GPa) = 76.32903 76.32903 12.57054
#
# Poissons Ratio (x) = 0.13370 0.20291
# Poissons Ratio (y) = 0.13370 0.20291
# Poissons Ratio (z) = 1.23211 1.23211
#
# Static dielectric constant tensor:
#      x y z
#    x 1.709470 0.000000 0.000000 
#    y 0.000000 1.709470 0.000000 
#    z 0.000000 0.000000 1.628450 
# 
# From -- ./inp_files/2361.got.cif
#   From: 2010.05.17/outbox.cif.g08.bks.cpg/sg114_2_cif.got.tgz:2361.got - 2010.05.20 11:04:54.
