data_PCOD9555223
_publ_section_title
;
Structure prediction by ZEFSAII (Michael W. Deem and Ramdas Pophale) SiO2 
 PCOD9555223
Probable space group: P -4 2 C
;
_chemical_formula_sum "Si O2"
_cell_formula_units_Z 40
_cell_length_a 13.461299
_cell_length_b 13.461299
_cell_length_c 9.985520
_cell_angle_alpha 90.000000
_cell_angle_beta 90.000000
_cell_angle_gamma 90.000000
_cell_volume 1809.441837
_symmetry_space_group_name_H-M "P -4 2 C"
_symmetry_group_IT_number 112
_symmetry_cell_setting 'tetragonal'
loop_
_space_group_symop_operation_xyz
x,y,z
y,-x,-z
-x,-y,z
-y,x,-z
x,-y,1/2-z
-x,y,1/2-z
-y,-x,1/2+z
y,x,1/2+z
loop_
_atom_site_type_symbol
_atom_site_label
_atom_site_fract_x
_atom_site_fract_y
_atom_site_fract_z
Si Si1 0.224371 0.030135 0.597701
Si Si2 0.639759 0.342722 0.118748
Si Si3 0.500000 0.177577 0.250000
Si Si4 0.315604 0.916614 0.358497
Si Si5 0.500000 0.500000 0.250000
Si Si6 0.000000 0.000000 0.500000
Si Si7 0.239629 0.295775 0.144202
O O1 0.104802 0.032157 0.570362
O O2 0.288304 0.131345 0.579481
O O3 0.236570 0.000000 0.750000
O O4 0.275025 0.951169 0.500019
O O5 0.573320 0.248557 0.166325
O O6 0.569997 0.434772 0.153842
O O7 0.734897 0.351633 0.218053
O O8 0.671564 0.320655 0.967104
O O9 0.568749 0.111845 0.346453
O O10 0.256823 0.818614 0.318531
O O11 0.293858 0.000000 0.250000
#
# Coordination Sequence:
#
# PCOD9555223 Si02
#       7
#     8   8   4   8   2   2   8
#     4  12  25  41  66 102 146 189 244 300 346 417
#     4  10  23  42  70  98 133 176 220 296 353 434
#     4   9  21  43  67  92 124 178 239 269 361 435
#     4  11  23  40  68  92 132 185 237 287 346 434
#     4  10  24  46  74 106 132 174 242 290 364 444
#     4  12  26  40  68 106 150 196 256 282 350 428
#     4  11  23  41  62  96 138 176 226 287 364 402
#
# _framework density 22.106266000000002
#
# number of rings (size 3 to 8) (size 9 to 14) (size 15 to 20)
#    0.000    1.200    2.000    4.200    2.800    5.600 
#    0.000    0.000    0.000    8.400    0.000    0.000 
#    0.000    0.000    0.000    0.000    0.000    0.000 
#
# Total GULP energy -223395.713096 kJ/mol
# GULP energy per Si atom -5584.892827 kJ/mol
# Density = 2.205595 g / cm^3
# Si number density = 22.106266 Si / 1000 Ang^3
#
#
#
# Elastic Constant Matrix: (Units=GPa)
#
#
# Indices 1 2 3 4 5 6 
#
# 1 80.9496 18.7701 15.5043 0.0000 0.0000 0.0000
# 2 18.7701 80.9496 15.5043 0.0000 0.0000 0.0000
# 3 15.5043 15.5043 93.8043 0.0000 0.0000 0.0000
# 4 0.0000 0.0000 0.0000 26.8440 0.0000 0.0000
# 5 0.0000 0.0000 0.0000 0.0000 26.8440 0.0000
# 6 0.0000 0.0000 0.0000 0.0000 0.0000 48.7040
#
#
#
# Elastic Compliance Matrix: (Units=1/GPa)
#
#
# Indices 1 2 3 4 5 6 
#
# 1 0.013327 -0.002756 -0.001747 0.000000 0.000000 0.000000
# 2 -0.002756 0.013327 -0.001747 0.000000 0.000000 0.000000
# 3 -0.001747 -0.001747 0.011238 0.000000 0.000000 0.000000
# 4 0.000000 0.000000 0.000000 0.037252 0.000000 0.000000
# 5 0.000000 0.000000 0.000000 0.000000 0.037252 0.000000
# 6 0.000000 0.000000 0.000000 0.000000 0.000000 0.020532
#
#
# Mechanical properties :
#
#
# Convention : Reuss Voigt Hill
#
# Bulk Modulus (GPa) = 39.38276 39.47345 39.42810
# Shear Modulus (GPa) = 32.49015 34.20673 33.34844
#
# Velocity S-wave (km/s) = 3.83786 3.93794 3.88822
# Velocity P-wave (km/s) = 6.12313 6.21059 6.16702
#
# Compressibility (1/GPa) = 0.02539182
#
# Stress axis : x y z
#
# Youngs Moduli (GPa) = 75.03590 75.03590 88.98309
#
# Poissons Ratio (x) = 0.20676 0.15548
# Poissons Ratio (y) = 0.20676 0.15548
# Poissons Ratio (z) = 0.13111 0.13111
#
# Static dielectric constant tensor:
#      x y z
#    x 1.867560 0.000000 0.000000 
#    y 0.000000 1.867560 0.000000 
#    z 0.000000 0.000000 1.784130 
# 
# From -- ./inp_files/1319.got.cif
#   From: 2010.05.17/outbox.cif.g08.bks.cpg/sg112_1_cif.got.tgz:1319.got - 2010.05.20 10:59:04.
