data_PCOD9555388
_publ_section_title
;
Structure prediction by ZEFSAII (Michael W. Deem and Ramdas Pophale) SiO2 
 PCOD9555388
Probable space group: P -4 2 C
;
_chemical_formula_sum "Si O2"
_cell_formula_units_Z 26
_cell_length_a 8.644104
_cell_length_b 8.644104
_cell_length_c 13.749293
_cell_angle_alpha 90.000000
_cell_angle_beta 90.000000
_cell_angle_gamma 90.000000
_cell_volume 1027.354515
_symmetry_space_group_name_H-M "P -4 2 C"
_symmetry_group_IT_number 112
_symmetry_cell_setting 'tetragonal'
loop_
_space_group_symop_operation_xyz
x,y,z
y,-x,-z
-x,-y,z
-y,x,-z
x,-y,1/2-z
-x,y,1/2-z
-y,-x,1/2+z
y,x,1/2+z
loop_
_atom_site_type_symbol
_atom_site_label
_atom_site_fract_x
_atom_site_fract_y
_atom_site_fract_z
Si Si1 0.180180 0.477084 0.383229
Si Si2 0.180004 0.723608 0.697739
Si Si3 0.000000 0.000000 0.250000
Si Si4 0.781092 0.605151 0.598333
O O1 0.242760 0.362015 0.302243
O O2 0.171624 0.384866 0.486941
O O3 0.306856 0.614020 0.400081
O O4 0.000000 0.500000 0.361867
O O5 0.184414 0.574689 0.627324
O O6 0.133102 0.682428 0.809301
O O7 0.104140 0.890463 0.681782
#
# Coordination Sequence:
#
# PCOD9555388 Si02
#       4
#     8   8   2   8
#     4  12  25  46  76 117 155 206 278 337 408 495
#     4  11  26  47  74 109 160 207 266 337 414 496
#     4  12  28  50  76 116 164 216 260 346 442 490
#     4  11  25  46  78 111 151 213 272 336 405 496
#
# _framework density 25.307722999999999
#
# number of rings (size 3 to 8) (size 9 to 14) (size 15 to 20)
#    0.000    0.615    3.077    3.692    4.308    4.923 
#    0.000    1.538    0.000    0.000    0.000    0.000 
#    0.000    0.000    0.000    0.000    0.000    0.000 
#
# Total GULP energy -144819.806764 kJ/mol
# GULP energy per Si atom -5569.992568 kJ/mol
# Density = 2.525012 g / cm^3
# Si number density = 25.307723 Si / 1000 Ang^3
#
#
#
# Elastic Constant Matrix: (Units=GPa)
#
#
# Indices 1 2 3 4 5 6 
#
# 1 102.7810 52.7031 13.5378 0.0000 0.0000 0.0000
# 2 52.7031 102.7810 13.5378 0.0000 0.0000 0.0000
# 3 13.5378 13.5378 119.6667 0.0000 0.0000 0.0000
# 4 0.0000 0.0000 0.0000 19.3433 0.0000 0.0000
# 5 0.0000 0.0000 0.0000 0.0000 19.3433 0.0000
# 6 0.0000 0.0000 0.0000 0.0000 0.0000 73.7521
#
#
#
# Elastic Compliance Matrix: (Units=1/GPa)
#
#
# Indices 1 2 3 4 5 6 
#
# 1 0.013265 -0.006704 -0.000742 0.000000 0.000000 0.000000
# 2 -0.006704 0.013265 -0.000742 0.000000 0.000000 0.000000
# 3 -0.000742 -0.000742 0.008524 0.000000 0.000000 0.000000
# 4 0.000000 0.000000 0.000000 0.051697 0.000000 0.000000
# 5 0.000000 0.000000 0.000000 0.000000 0.051697 0.000000
# 6 0.000000 0.000000 0.000000 0.000000 0.000000 0.013559
#
#
# Mechanical properties :
#
#
# Convention : Reuss Voigt Hill
#
# Bulk Modulus (GPa) = 53.54131 53.86511 53.70321
# Shear Modulus (GPa) = 28.63516 38.85110 33.74313
#
# Velocity S-wave (km/s) = 3.36740 3.92235 3.65542
# Velocity P-wave (km/s) = 6.02671 6.46864 6.25158
#
# Compressibility (1/GPa) = 0.01867717
#
# Stress axis : x y z
#
# Youngs Moduli (GPa) = 75.38741 75.38741 117.30930
#
# Poissons Ratio (x) = 0.50540 0.08707
# Poissons Ratio (y) = 0.50540 0.08707
# Poissons Ratio (z) = 0.05595 0.05595
#
# Static dielectric constant tensor:
#      x y z
#    x 2.102710 0.000000 0.000000 
#    y 0.000000 2.102710 0.000000 
#    z 0.000000 0.000000 2.045220 
# 
# From -- ./inp_files/3807.got.cif
#   From: 2010.05.17/outbox.cif.g08.bks.cpg/sg112_2_cif.got.tgz:3807.got - 2010.05.20 10:59:04.
