data_PCOD9555438
_publ_section_title
;
Structure prediction by ZEFSAII (Michael W. Deem and Ramdas Pophale) SiO2 
 PCOD9555438
Probable space group: P -4 21 M 
;
_chemical_formula_sum "Si O2"
_cell_formula_units_Z 48
_cell_length_a 11.213470
_cell_length_b 11.213470
_cell_length_c 19.005969
_cell_angle_alpha 90.000000
_cell_angle_beta 90.000000
_cell_angle_gamma 90.000000
_cell_volume 2389.846833
_symmetry_space_group_name_H-M "P -4 21 M "
_symmetry_group_IT_number 113
_symmetry_cell_setting 'tetragonal'
loop_
_space_group_symop_operation_xyz
x,y,z
y,-x,-z
-x,-y,z
-y,x,-z
1/2+x,1/2-y,-z
1/2-x,1/2+y,-z
1/2-y,1/2-x,z
1/2+y,1/2+x,z
loop_
_atom_site_type_symbol
_atom_site_label
_atom_site_fract_x
_atom_site_fract_y
_atom_site_fract_z
Si Si1 0.059581 0.746534 0.925619
Si Si2 0.738416 0.048046 0.920257
Si Si3 0.219113 0.900829 0.325148
Si Si4 0.879564 0.915632 0.415678
Si Si5 0.399844 0.604278 0.174441
Si Si6 0.435753 0.247245 0.564493
O O1 0.130631 0.630631 0.899335
O O2 0.155814 0.854125 0.929104
O O3 0.955281 0.793681 0.875530
O O4 0.012113 0.723268 0.003847
O O5 0.620282 0.120282 0.899906
O O6 0.786156 0.953920 0.863561
O O7 0.353737 0.853737 0.323537
O O8 0.157535 0.876710 0.250843
O O9 0.151548 0.822758 0.384579
O O10 0.194445 0.035110 0.350071
O O11 0.800114 0.926746 0.485454
O O12 0.932752 0.783423 0.410566
O O13 0.000000 0.000000 0.420928
O O14 0.500000 0.500000 0.180820
O O15 0.386325 0.113676 0.565502
#
# Coordination Sequence:
#
# PCOD9555438 Si02
#       6
#     8   8   8   8   8   8
#     4  10  20  35  58  86 116 157 205 244 291 354
#     4  10  20  35  59  87 115 156 208 249 292 352
#     4  10  20  33  57  87 112 154 202 240 293 353
#     4  10  15  33  55  78 111 145 187 235 281 339
#     4  10  20  35  58  83 120 157 193 247 305 351
#     4  10  17  29  57  87 111 149 192 232 289 351
#
# _framework density 20.084969000000001
#
# number of rings (size 3 to 8) (size 9 to 14) (size 15 to 20)
#    0.000    2.000    5.000    1.500    0.000    1.667 
#    0.000    0.833    0.000   12.000    0.000    7.000 
#    0.000    0.000    0.000    0.000    0.000    0.000 
#
# Total GULP energy -267610.051926 kJ/mol
# GULP energy per Si atom -5575.209415 kJ/mol
# Density = 2.003925 g / cm^3
# Si number density = 20.084969 Si / 1000 Ang^3
#
#
#
# Elastic Constant Matrix: (Units=GPa)
#
#
# Indices 1 2 3 4 5 6 
#
# 1 73.6918 64.0035 41.3543 0.0000 0.0000 0.0000
# 2 64.0035 73.6927 41.3545 0.0000 0.0000 0.0000
# 3 41.3543 41.3545 101.2740 0.0000 0.0000 0.0000
# 4 0.0000 0.0000 0.0000 -10.5457 0.0000 0.0000
# 5 0.0000 0.0000 0.0000 0.0000 -10.5465 0.0000
# 6 0.0000 0.0000 0.0000 0.0000 0.0000 18.9953
#
#
#
# Elastic Compliance Matrix: (Units=1/GPa)
#
#
# Indices 1 2 3 4 5 6 
#
# 1 0.056417 -0.046795 -0.003929 0.000000 0.000000 0.000000
# 2 -0.046795 0.056417 -0.003929 0.000000 0.000000 0.000000
# 3 -0.003929 -0.003929 0.013083 0.000000 0.000000 0.000000
# 4 0.000000 0.000000 0.000000 -0.094825 0.000000 0.000000
# 5 0.000000 0.000000 0.000000 0.000000 -0.094819 0.000000
# 6 0.000000 0.000000 0.000000 0.000000 0.000000 0.052645
#
#
# Mechanical properties :
#
#
# Convention : Reuss Voigt Hill
#
# Bulk Modulus (GPa) = 60.20053 60.23146 60.21599
# Shear Modulus (GPa) = 48.18739 6.37704 27.28221
#
# Velocity S-wave (km/s) = 4.90345 1.78379 3.68956
# Velocity P-wave (km/s) = 7.88013 5.85628 6.94235
#
# Compressibility (1/GPa) = 0.01661115
#
# Stress axis : x y z
#
# Youngs Moduli (GPa) = 17.72501 17.72523 76.43395
#
# Poissons Ratio (x) = 0.82944 0.30033
# Poissons Ratio (y) = 0.82943 0.30033
# Poissons Ratio (z) = 0.06965 0.06965
#
# Static dielectric constant tensor:
#      x y z
#    x 1.761840 0.000000 0.000000 
#    y 0.000000 1.761830 0.000000 
#    z 0.000000 0.000000 1.664160 
# 
# From -- ./inp_files/2486.got.cif
#   From: 2010.05.17/outbox.cif.g08.bks.cpg/sg113_cif.got.tgz:2486.got - 2010.05.20 11:03:00.
