data_PCOD9555825
_publ_section_title
;
Structure prediction by ZEFSAII (Michael W. Deem and Ramdas Pophale) SiO2 
 PCOD9555825
Probable space group: P -4 21 C
;
_chemical_formula_sum "Si O2"
_cell_formula_units_Z 40
_cell_length_a 15.267077
_cell_length_b 15.267077
_cell_length_c 9.945329
_cell_angle_alpha 90.000000
_cell_angle_beta 90.000000
_cell_angle_gamma 90.000000
_cell_volume 2318.093486
_symmetry_space_group_name_H-M "P -4 21 C"
_symmetry_group_IT_number 114
_symmetry_cell_setting 'tetragonal'
loop_
_space_group_symop_operation_xyz
x,y,z
y,-x,-z
-x,-y,z
-y,x,-z
1/2+x,1/2-y,1/2-z
1/2-x,1/2+y,1/2-z
1/2-y,1/2-x,1/2+z
1/2+y,1/2+x,1/2+z
loop_
_atom_site_type_symbol
_atom_site_label
_atom_site_fract_x
_atom_site_fract_y
_atom_site_fract_z
Si Si1 0.443470 0.196782 0.831668
Si Si2 0.803218 0.556530 0.831669
Si Si3 0.386700 0.904667 0.933444
Si Si4 0.500000 0.356099 1.000000
Si Si5 0.613300 0.904667 0.066555
O O1 0.526019 0.130351 0.856180
O O2 0.475538 0.291607 0.877554
O O3 0.410678 0.186267 0.681217
O O4 0.374623 0.162765 0.943657
O O5 0.813733 0.589322 0.681218
O O6 0.869650 0.473982 0.856181
O O7 0.837234 0.625377 0.943658
O O8 0.708393 0.524461 0.877555
O O9 0.397374 1.000000 1.000000
O O10 0.418291 0.418291 0.031474
#
# Coordination Sequence:
#
# PCOD9555825 Si02
#       5
#     8   8   8   8   8
#     4  10  19  28  51  82 106 139 172 206 258 315
#     4  10  19  28  51  82 106 139 172 206 258 315
#     4  10  17  25  46  80 114 137 161 200 259 318
#     4   9  20  40  59  70  94 142 193 226 256 313
#     4  10  17  25  46  80 114 137 161 200 259 318
#
# _framework density 17.255558000000001
#
# number of rings (size 3 to 8) (size 9 to 14) (size 15 to 20)
#    0.000    2.600    4.000    2.400    0.000    0.000 
#    0.000    8.000    0.000    2.400    0.000    2.800 
#    0.000    0.000    0.000    0.000    0.000    0.000 
#
# Total GULP energy -222704.072429 kJ/mol
# GULP energy per Si atom -5567.601811 kJ/mol
# Density = 1.721628 g / cm^3
# Si number density = 17.255558 Si / 1000 Ang^3
#
#
#
# Elastic Constant Matrix: (Units=GPa)
#
#
# Indices 1 2 3 4 5 6 
#
# 1 87.8718 41.0735 45.9851 0.0000 0.0000 0.0000
# 2 41.0735 87.8718 45.9851 0.0000 0.0000 0.0000
# 3 45.9851 45.9851 111.0296 0.0000 0.0000 0.0000
# 4 0.0000 0.0000 0.0000 9.8040 0.0000 0.0000
# 5 0.0000 0.0000 0.0000 0.0000 9.8040 0.0000
# 6 0.0000 0.0000 0.0000 0.0000 0.0000 4.7622
#
#
#
# Elastic Compliance Matrix: (Units=1/GPa)
#
#
# Indices 1 2 3 4 5 6 
#
# 1 0.016187 -0.005181 -0.004559 0.000000 0.000000 0.000000
# 2 -0.005181 0.016187 -0.004559 0.000000 0.000000 0.000000
# 3 -0.004559 -0.004559 0.012783 0.000000 0.000000 0.000000
# 4 0.000000 0.000000 0.000000 0.102000 0.000000 0.000000
# 5 0.000000 0.000000 0.000000 0.000000 0.102000 0.000000
# 6 0.000000 0.000000 0.000000 0.000000 0.000000 0.209986
#
#
# Mechanical properties :
#
#
# Convention : Reuss Voigt Hill
#
# Bulk Modulus (GPa) = 60.38092 61.42894 60.90493
# Shear Modulus (GPa) = 10.13666 15.12266 12.62966
#
# Velocity S-wave (km/s) = 2.42635 2.96361 2.70833
# Velocity P-wave (km/s) = 6.55116 6.88385 6.71957
#
# Compressibility (1/GPa) = 0.01656152
#
# Stress axis : x y z
#
# Youngs Moduli (GPa) = 61.77609 61.77609 78.23078
#
# Poissons Ratio (x) = 0.32005 0.35662
# Poissons Ratio (y) = 0.32005 0.35662
# Poissons Ratio (z) = 0.28161 0.28161
#
# Static dielectric constant tensor:
#      x y z
#    x 1.593160 0.000000 0.000000 
#    y 0.000000 1.593160 0.000000 
#    z 0.000000 0.000000 1.622740 
# 
# From -- ./inp_files/1529.got.cif
#   From: 2010.05.17/outbox.cif.g08.bks.cpg/sg114_1_cif.got.tgz:1529.got - 2010.05.20 11:04:54.
