data_PCOD9555280
_publ_section_title
;
Structure prediction by ZEFSAII (Michael W. Deem and Ramdas Pophale) SiO2 
 PCOD9555280
Probable space group: P -4 2 C
;
_chemical_formula_sum "Si O2"
_cell_formula_units_Z 22
_cell_length_a 5.326035
_cell_length_b 5.326035
_cell_length_c 29.445270
_cell_angle_alpha 90.000000
_cell_angle_beta 90.000000
_cell_angle_gamma 90.000000
_cell_volume 835.263634
_symmetry_space_group_name_H-M "P -4 2 C"
_symmetry_group_IT_number 112
_symmetry_cell_setting 'tetragonal'
loop_
_space_group_symop_operation_xyz
x,y,z
y,-x,-z
-x,-y,z
-y,x,-z
x,-y,1/2-z
-x,y,1/2-z
-y,-x,1/2+z
y,x,1/2+z
loop_
_atom_site_type_symbol
_atom_site_label
_atom_site_fract_x
_atom_site_fract_y
_atom_site_fract_z
Si Si1 0.256933 0.610457 0.698748
Si Si2 0.000000 0.000000 0.000000
Si Si3 0.000000 0.000000 0.650004
Si Si4 0.752134 0.674212 0.073622
O O1 0.500000 0.500000 0.675754
O O2 0.264647 0.500000 0.750000
O O3 0.000000 0.500000 0.681994
O O4 0.213449 0.897224 0.685126
O O5 0.207385 0.146130 0.030060
O O6 0.864111 0.806819 0.615591
O O7 0.500000 0.500000 0.073246
O O8 0.000000 0.500000 0.074628
#
# Coordination Sequence:
#
# PCOD9555280 Si02
#       4
#     8   2   4   8
#     4  10  25  48  78 113 160 216 286 349 423 499
#     4  10  28  52  84 122 172 214 296 346 432 528
#     4  11  28  48  80 123 172 220 288 361 429 527
#     4  11  29  51  85 125 170 227 283 354 438 522
#
# _framework density 26.338986999999999
#
# number of rings (size 3 to 8) (size 9 to 14) (size 15 to 20)
#    0.000    1.455    0.000    0.000   15.273    5.818 
#    0.000   20.000    0.000    0.000    0.000    0.000 
#    0.000    0.000    0.000    0.000    0.000    0.000 
#
# Total GULP energy -122731.898998 kJ/mol
# GULP energy per Si atom -5578.722682 kJ/mol
# Density = 2.627904 g / cm^3
# Si number density = 26.338987 Si / 1000 Ang^3
#
#
#
# Elastic Constant Matrix: (Units=GPa)
#
#
# Indices 1 2 3 4 5 6 
#
# 1 192.5874 85.3917 76.6802 0.0000 0.0000 0.0000
# 2 85.3917 192.5874 76.6802 0.0000 0.0000 0.0000
# 3 76.6802 76.6802 198.4375 0.0000 0.0000 0.0000
# 4 0.0000 0.0000 0.0000 -17.8552 0.0000 0.0000
# 5 0.0000 0.0000 0.0000 0.0000 -17.8552 0.0000
# 6 0.0000 0.0000 0.0000 0.0000 0.0000 82.0044
#
#
#
# Elastic Compliance Matrix: (Units=1/GPa)
#
#
# Indices 1 2 3 4 5 6 
#
# 1 0.006950 -0.002378 -0.001767 0.000000 0.000000 0.000000
# 2 -0.002378 0.006950 -0.001767 0.000000 0.000000 0.000000
# 3 -0.001767 -0.001767 0.006405 0.000000 0.000000 0.000000
# 4 0.000000 0.000000 0.000000 -0.056006 0.000000 0.000000
# 5 0.000000 0.000000 0.000000 0.000000 -0.056006 0.000000
# 6 0.000000 0.000000 0.000000 0.000000 0.000000 0.012194
#
#
# Mechanical properties :
#
#
# Convention : Reuss Voigt Hill
#
# Bulk Modulus (GPa) = 117.89690 117.90184 117.89937
# Shear Modulus (GPa) = -77.08770 32.24949 -22.41911
#
# Velocity S-wave (km/s) = -5.41582 3.50294 -2.92066
# Velocity P-wave (km/s) = 2.39801 7.82440 5.78669
#
# Compressibility (1/GPa) = 0.00848199
#
# Stress axis : x y z
#
# Youngs Moduli (GPa) = 143.87619 143.87619 156.13314
#
# Poissons Ratio (x) = 0.34218 0.27585
# Poissons Ratio (y) = 0.34218 0.27585
# Poissons Ratio (z) = 0.25419 0.25419
#
# Static dielectric constant tensor:
#      x y z
#    x 1.619630 0.000000 0.000000 
#    y 0.000000 1.619630 0.000000 
#    z 0.000000 0.000000 1.472300 
# 
# From -- ./inp_files/6066.got.cif
#   From: 2010.05.17/outbox.cif.g08.bks.cpg/sg112_4_cif.got.tgz:6066.got - 2010.05.20 10:59:04.
