data_PCOD9555730
_publ_section_title
;
Structure prediction by ZEFSAII (Michael W. Deem and Ramdas Pophale) SiO2 
 PCOD9555730
Probable space group: P -4 21 M 
;
_chemical_formula_sum "Si O2"
_cell_formula_units_Z 32
_cell_length_a 11.869020
_cell_length_b 11.869020
_cell_length_c 9.653805
_cell_angle_alpha 90.000000
_cell_angle_beta 90.000000
_cell_angle_gamma 90.000000
_cell_volume 1359.966609
_symmetry_space_group_name_H-M "P -4 21 M "
_symmetry_group_IT_number 113
_symmetry_cell_setting 'tetragonal'
loop_
_space_group_symop_operation_xyz
x,y,z
y,-x,-z
-x,-y,z
-y,x,-z
1/2+x,1/2-y,-z
1/2-x,1/2+y,-z
1/2-y,1/2-x,z
1/2+y,1/2+x,z
loop_
_atom_site_type_symbol
_atom_site_label
_atom_site_fract_x
_atom_site_fract_y
_atom_site_fract_z
Si Si1 0.996182 0.316408 0.731116
Si Si2 0.042283 0.173438 0.474436
Si Si3 0.412804 0.738509 0.824928
Si Si4 0.157366 0.163063 0.881796
O O1 0.084588 0.415413 0.767059
O O2 0.017219 0.279051 0.572299
O O3 0.039130 0.207543 0.817630
O O4 0.873396 0.373396 0.751708
O O5 0.106745 0.199189 0.332474
O O6 0.921469 0.115009 0.446577
O O7 0.366874 0.866874 0.834769
O O8 0.542104 0.706640 0.847979
O O9 0.353276 0.677292 0.953165
O O10 0.249062 0.250938 0.827174
#
# Coordination Sequence:
#
# PCOD9555730 Si02
#       4
#     8   8   8   8
#     4  10  22  43  70 101 143 195 244 299 372 444
#     4  11  24  42  69 104 142 192 248 305 370 443
#     4  11  25  45  73 105 146 198 248 304 378 448
#     4  10  24  45  71 107 147 189 246 313 367 441
#
# _framework density 23.529990999999999
#
# number of rings (size 3 to 8) (size 9 to 14) (size 15 to 20)
#    0.000    1.500    2.500    0.750    3.500    5.000 
#    0.000    2.500    0.000    0.000    0.000    0.000 
#    0.000    0.000    0.000    0.000    0.000    0.000 
#
# Total GULP energy -178603.915855 kJ/mol
# GULP energy per Si atom -5581.372370 kJ/mol
# Density = 2.347644 g / cm^3
# Si number density = 23.529991 Si / 1000 Ang^3
#
#
#
# Elastic Constant Matrix: (Units=GPa)
#
#
# Indices 1 2 3 4 5 6 
#
# 1 419.1894 -225.7609 38.8225 0.0000 0.0000 0.0000
# 2 -225.7609 419.1859 38.8155 0.0000 0.0000 0.0000
# 3 38.8225 38.8155 116.6092 0.0000 0.0000 0.0000
# 4 0.0000 0.0000 0.0000 28.5497 0.0000 0.0000
# 5 0.0000 0.0000 0.0000 0.0000 28.5495 0.0000
# 6 0.0000 0.0000 0.0000 0.0000 0.0000 47.5098
#
#
#
# Elastic Compliance Matrix: (Units=1/GPa)
#
#
# Indices 1 2 3 4 5 6 
#
# 1 0.003759 0.002208 -0.001987 0.000000 0.000000 0.000000
# 2 0.002208 0.003759 -0.001986 0.000000 0.000000 0.000000
# 3 -0.001987 -0.001986 0.009898 0.000000 0.000000 0.000000
# 4 0.000000 0.000000 0.000000 0.035027 0.000000 0.000000
# 5 0.000000 0.000000 0.000000 0.000000 0.035027 0.000000
# 6 0.000000 0.000000 0.000000 0.000000 0.000000 0.021048
#
#
# Mechanical properties :
#
#
# Convention : Reuss Voigt Hill
#
# Bulk Modulus (GPa) = 72.01081 73.19320 72.60200
# Shear Modulus (GPa) = 42.85376 94.46231 68.65804
#
# Velocity S-wave (km/s) = 4.27223 6.34292 5.40761
# Velocity P-wave (km/s) = 7.41662 9.20964 8.36133
#
# Compressibility (1/GPa) = 0.01388680
#
# Stress axis : x y z
#
# Youngs Moduli (GPa) = 266.03611 266.03683 101.02801
#
# Poissons Ratio (x) = -0.58751 0.20070
# Poissons Ratio (y) = -0.58751 0.20069
# Poissons Ratio (z) = 0.52849 0.52847
#
# Static dielectric constant tensor:
#      x y z
#    x 1.928790 0.000000 0.000000 
#    y 0.000000 1.928790 0.000000 
#    z 0.000000 0.000000 1.917950 
# 
# From -- ./inp_files/1550.got.cif
#   From: 2010.05.17/outbox.cif.g08.bks.cpg/sg113_cif.got.tgz:1550.got - 2010.05.20 11:03:00.
