data_PCOD9555693
_publ_section_title
;
Structure prediction by ZEFSAII (Michael W. Deem and Ramdas Pophale) SiO2 
 PCOD9555693
Probable space group: P -4 21 M 
;
_chemical_formula_sum "Si O2"
_cell_formula_units_Z 32
_cell_length_a 9.767384
_cell_length_b 9.767384
_cell_length_c 16.548558
_cell_angle_alpha 90.000000
_cell_angle_beta 90.000000
_cell_angle_gamma 90.000000
_cell_volume 1578.762058
_symmetry_space_group_name_H-M "P -4 21 M "
_symmetry_group_IT_number 113
_symmetry_cell_setting 'tetragonal'
loop_
_space_group_symop_operation_xyz
x,y,z
y,-x,-z
-x,-y,z
-y,x,-z
1/2+x,1/2-y,-z
1/2-x,1/2+y,-z
1/2-y,1/2-x,z
1/2+y,1/2+x,z
loop_
_atom_site_type_symbol
_atom_site_label
_atom_site_fract_x
_atom_site_fract_y
_atom_site_fract_z
Si Si1 0.081058 0.817287 0.874134
Si Si2 0.507604 0.774947 0.951766
Si Si3 0.826095 0.902455 0.460880
Si Si4 0.492553 0.772143 0.294486
O O1 0.199228 0.699228 0.870204
O O2 0.000020 0.803504 0.791196
O O3 0.159299 0.959502 0.889812
O O4 0.002415 0.782777 0.957040
O O5 0.654007 0.845994 0.937847
O O6 0.395018 0.895018 0.946911
O O7 0.699604 0.800396 0.472201
O O8 0.818230 0.964322 0.370835
O O9 0.967911 0.825281 0.479022
O O10 0.606945 0.893056 0.291380
O O11 0.348357 0.848357 0.307057
#
# Coordination Sequence:
#
# PCOD9555693 Si02
#       4
#     8   8   8   8
#     4   9  17  30  49  75 104 138 184 229 271 326
#     4   9  17  30  48  70 101 139 176 222 278 327
#     4  10  21  38  60  87 118 152 192 240 296 357
#     4   9  17  32  57  84 109 144 190 234 277 334
#
# _framework density 20.269044000000001
#
# number of rings (size 3 to 8) (size 9 to 14) (size 15 to 20)
#    0.000    2.750    0.000    1.500    0.000    5.000 
#    0.000    6.250    0.000    7.500    0.000    0.000 
#    0.000    0.000    0.000    0.000    0.000    0.000 
#
# Total GULP energy -178650.740404 kJ/mol
# GULP energy per Si atom -5582.835638 kJ/mol
# Density = 2.022291 g / cm^3
# Si number density = 20.269044 Si / 1000 Ang^3
#
#
#
# Elastic Constant Matrix: (Units=GPa)
#
#
# Indices 1 2 3 4 5 6 
#
# 1 80.6321 38.4873 50.7787 0.0000 0.0000 0.0000
# 2 38.4873 80.6311 50.7817 0.0000 0.0000 0.0000
# 3 50.7787 50.7817 101.7080 0.0000 0.0000 0.0000
# 4 0.0000 0.0000 0.0000 31.2766 0.0000 0.0000
# 5 0.0000 0.0000 0.0000 0.0000 31.2764 0.0000
# 6 0.0000 0.0000 0.0000 0.0000 0.0000 39.2221
#
#
#
# Elastic Compliance Matrix: (Units=1/GPa)
#
#
# Indices 1 2 3 4 5 6 
#
# 1 0.019172 -0.004555 -0.007297 0.000000 0.000000 0.000000
# 2 -0.004555 0.019173 -0.007299 0.000000 0.000000 0.000000
# 3 -0.007297 -0.007299 0.017119 0.000000 0.000000 0.000000
# 4 0.000000 0.000000 0.000000 0.031973 0.000000 0.000000
# 5 0.000000 0.000000 0.000000 0.000000 0.031973 0.000000
# 6 0.000000 0.000000 0.000000 0.000000 0.000000 0.025496
#
#
# Mechanical properties :
#
#
# Convention : Reuss Voigt Hill
#
# Bulk Modulus (GPa) = 58.26858 60.34074 59.30466
# Shear Modulus (GPa) = 26.46486 28.54992 27.50739
#
# Velocity S-wave (km/s) = 3.61734 3.75713 3.68790
# Velocity P-wave (km/s) = 6.80124 6.97538 6.88886
#
# Compressibility (1/GPa) = 0.01716191
#
# Stress axis : x y z
#
# Youngs Moduli (GPa) = 52.15960 52.15585 58.41302
#
# Poissons Ratio (x) = 0.23759 0.42626
# Poissons Ratio (y) = 0.23761 0.42634
# Poissons Ratio (z) = 0.38062 0.38067
#
# Static dielectric constant tensor:
#      x y z
#    x 1.753060 0.000000 0.000000 
#    y 0.000000 1.753060 0.000000 
#    z 0.000000 0.000000 1.678750 
# 
# From -- ./inp_files/1538.got.cif
#   From: 2010.05.17/outbox.cif.g08.bks.cpg/sg113_cif.got.tgz:1538.got - 2010.05.20 11:03:00.
