data_PCOD9555790
_publ_section_title
;
Structure prediction by ZEFSAII (Michael W. Deem and Ramdas Pophale) SiO2 
 PCOD9555790
Probable space group: P -4 21 M 
;
_chemical_formula_sum "Si O2"
_cell_formula_units_Z 34
_cell_length_a 9.402329
_cell_length_b 9.402329
_cell_length_c 17.937809
_cell_angle_alpha 90.000000
_cell_angle_beta 90.000000
_cell_angle_gamma 90.000000
_cell_volume 1585.770311
_symmetry_space_group_name_H-M "P -4 21 M "
_symmetry_group_IT_number 113
_symmetry_cell_setting 'tetragonal'
loop_
_space_group_symop_operation_xyz
x,y,z
y,-x,-z
-x,-y,z
-y,x,-z
1/2+x,1/2-y,-z
1/2-x,1/2+y,-z
1/2-y,1/2-x,z
1/2+y,1/2+x,z
loop_
_atom_site_type_symbol
_atom_site_label
_atom_site_fract_x
_atom_site_fract_y
_atom_site_fract_z
Si Si1 0.774214 0.274214 0.718863
Si Si2 0.658272 0.510695 0.180208
Si Si3 0.820847 0.320847 0.435867
Si Si4 0.000000 0.500000 0.720898
Si Si5 0.723049 0.447116 0.021243
Si Si6 0.841507 0.658494 0.433889
Si Si7 0.231915 0.268086 0.729306
O O1 0.653942 0.338108 0.772298
O O2 0.887582 0.387582 0.687295
O O3 0.702342 0.202342 0.648683
O O4 0.500000 0.500000 0.149824
O O5 0.752376 0.494435 0.106506
O O6 0.690227 0.382304 0.235637
O O7 0.805205 0.491479 0.440362
O O8 0.744674 0.244674 0.504354
O O9 0.755370 0.255370 0.359340
O O10 0.885696 0.614305 0.753188
O O11 0.860462 0.360462 0.991479
O O12 0.590566 0.334318 0.018059
#
# Coordination Sequence:
#
# PCOD9555790 Si02
#       7
#     4   8   4   2   8   4   4
#     4  12  27  46  75 108 142 189 254 294 372 434
#     4  12  24  45  73 103 145 189 239 306 355 428
#     4  11  27  48  75 105 144 190 238 297 361 428
#     4  12  28  40  72 104 142 192 224 302 356 440
#     4  11  25  45  68 100 143 186 235 295 365 431
#     4  11  27  48  73 105 145 191 238 301 359 433
#     4  12  25  48  71 106 144 186 248 286 364 431
#
# _framework density 21.440684999999998
#
# number of rings (size 3 to 8) (size 9 to 14) (size 15 to 20)
#    0.000    0.471    8.235    0.000    4.941    1.412 
#    2.118    0.000    0.000    0.000    0.000    0.000 
#    0.000    0.000    0.000    0.000    0.000    0.000 
#
# Total GULP energy -189702.546811 kJ/mol
# GULP energy per Si atom -5579.486671 kJ/mol
# Density = 2.139189 g / cm^3
# Si number density = 21.440685 Si / 1000 Ang^3
#
#
#
# Elastic Constant Matrix: (Units=GPa)
#
#
# Indices 1 2 3 4 5 6 
#
# 1 -31.3481 167.1115 19.3679 0.0000 0.0000 0.0000
# 2 167.1115 -31.3558 19.3736 0.0000 0.0000 0.0000
# 3 19.3679 19.3736 113.7119 0.0000 0.0000 0.0000
# 4 0.0000 0.0000 0.0000 -95.9189 0.0000 0.0000
# 5 0.0000 0.0000 0.0000 0.0000 -95.8890 0.0000
# 6 0.0000 0.0000 0.0000 0.0000 0.0000 42.8299
#
#
#
# Elastic Compliance Matrix: (Units=1/GPa)
#
#
# Indices 1 2 3 4 5 6 
#
# 1 0.001352 0.006391 -0.001319 0.000000 0.000000 0.000000
# 2 0.006391 0.001352 -0.001319 0.000000 0.000000 0.000000
# 3 -0.001319 -0.001319 0.009244 0.000000 0.000000 0.000000
# 4 0.000000 0.000000 0.000000 -0.010425 0.000000 0.000000
# 5 0.000000 0.000000 0.000000 0.000000 -0.010429 0.000000
# 6 0.000000 0.000000 0.000000 0.000000 0.000000 0.023348
#
#
# Mechanical properties :
#
#
# Convention : Reuss Voigt Hill
#
# Bulk Modulus (GPa) = 51.40711 51.41268 51.40990
# Shear Modulus (GPa) = 372.58201 -40.11860 166.23170
#
# Velocity S-wave (km/s) = 13.19661 -4.33036 8.81472
# Velocity P-wave (km/s) = 16.00716 0.98573 11.29729
#
# Compressibility (1/GPa) = 0.01945256
#
# Stress axis : x y z
#
# Youngs Moduli (GPa) = 739.64352 739.85074 108.18407
#
# Poissons Ratio (x) = -4.72803 0.14270
# Poissons Ratio (y) = -4.72671 0.14267
# Poissons Ratio (z) = 0.97564 0.97568
#
# Static dielectric constant tensor:
#      x y z
#    x 1.787280 0.000000 0.000000 
#    y 0.000000 1.787280 0.000000 
#    z 0.000000 0.000000 1.720950 
# 
# From -- ./inp_files/2632.got.cif
#   From: 2010.05.17/outbox.cif.g08.bks.cpg/sg113_cif.got.tgz:2632.got - 2010.05.20 11:03:00.
