data_PCOD9555233
_publ_section_title
;
Structure prediction by ZEFSAII (Michael W. Deem and Ramdas Pophale) SiO2 
 PCOD9555233
Probable space group: P -4 2 C
;
_chemical_formula_sum "Si O2"
_cell_formula_units_Z 38
_cell_length_a 10.481179
_cell_length_b 10.481179
_cell_length_c 15.056363
_cell_angle_alpha 90.000000
_cell_angle_beta 90.000000
_cell_angle_gamma 90.000000
_cell_volume 1654.018462
_symmetry_space_group_name_H-M "P -4 2 C"
_symmetry_group_IT_number 112
_symmetry_cell_setting 'tetragonal'
loop_
_space_group_symop_operation_xyz
x,y,z
y,-x,-z
-x,-y,z
-y,x,-z
x,-y,1/2-z
-x,y,1/2-z
-y,-x,1/2+z
y,x,1/2+z
loop_
_atom_site_type_symbol
_atom_site_label
_atom_site_fract_x
_atom_site_fract_y
_atom_site_fract_z
Si Si1 0.690870 0.500000 0.250000
Si Si2 0.943243 0.643955 0.977553
Si Si3 0.889800 0.317184 0.321436
Si Si4 0.712734 0.543915 0.869132
Si Si5 0.691801 0.890976 0.179129
Si Si6 0.500000 0.500000 0.000000
O O1 0.785141 0.429842 0.318170
O O2 0.613651 0.390159 0.195944
O O3 0.809191 0.635837 0.923393
O O4 0.000000 0.500000 0.982788
O O5 0.042418 0.716887 0.915026
O O6 0.933991 0.693719 0.077241
O O7 0.812219 0.192015 0.292962
O O8 0.000000 0.342361 0.250000
O O9 0.801190 0.568006 0.669807
O O10 0.622218 0.475688 0.940271
O O11 0.663835 0.000000 0.250000
#
# Coordination Sequence:
#
# PCOD9555233 Si02
#       6
#     4   8   8   8   8   2
#     4  12  25  43  72 110 145 181 222 284 364 439
#     4  10  23  44  69  98 138 186 231 286 355 425
#     4  12  27  46  70 101 140 185 238 295 349 413
#     4  11  24  42  70 105 144 180 224 285 363 441
#     4  11  26  46  70 100 138 185 238 291 346 415
#     4  12  24  38  64 108 144 174 220 280 364 450
#
# _framework density 22.974349
#
# number of rings (size 3 to 8) (size 9 to 14) (size 15 to 20)
#    0.000    0.842    0.000    6.632    0.000   21.474 
#    0.000    0.000    0.000    0.000    0.000    0.000 
#    0.000    0.000    0.000    0.000    0.000    0.000 
#
# Total GULP energy -212705.339452 kJ/mol
# GULP energy per Si atom -5597.508933 kJ/mol
# Density = 2.292206 g / cm^3
# Si number density = 22.974349 Si / 1000 Ang^3
#
#
#
# Elastic Constant Matrix: (Units=GPa)
#
#
# Indices 1 2 3 4 5 6 
#
# 1 124.5280 57.6812 68.0494 0.0000 0.0000 0.0000
# 2 57.6812 124.5280 68.0494 0.0000 0.0000 0.0000
# 3 68.0494 68.0494 155.1149 0.0000 0.0000 0.0000
# 4 0.0000 0.0000 0.0000 39.2716 0.0000 0.0000
# 5 0.0000 0.0000 0.0000 0.0000 39.2716 0.0000
# 6 0.0000 0.0000 0.0000 0.0000 0.0000 21.6705
#
#
#
# Elastic Compliance Matrix: (Units=1/GPa)
#
#
# Indices 1 2 3 4 5 6 
#
# 1 0.011561 -0.003398 -0.003581 0.000000 0.000000 0.000000
# 2 -0.003398 0.011561 -0.003581 0.000000 0.000000 0.000000
# 3 -0.003581 -0.003581 0.009589 0.000000 0.000000 0.000000
# 4 0.000000 0.000000 0.000000 0.025464 0.000000 0.000000
# 5 0.000000 0.000000 0.000000 0.000000 0.025464 0.000000
# 6 0.000000 0.000000 0.000000 0.000000 0.000000 0.046146
#
#
# Mechanical properties :
#
#
# Convention : Reuss Voigt Hill
#
# Bulk Modulus (GPa) = 86.27767 87.97008 87.12387
# Shear Modulus (GPa) = 32.30613 34.06880 33.18747
#
# Velocity S-wave (km/s) = 3.75398 3.85503 3.80484
# Velocity P-wave (km/s) = 7.51167 7.62815 7.57014
#
# Compressibility (1/GPa) = 0.01159048
#
# Stress axis : x y z
#
# Youngs Moduli (GPa) = 86.49509 86.49509 104.28627
#
# Poissons Ratio (x) = 0.29393 0.37347
# Poissons Ratio (y) = 0.29393 0.37347
# Poissons Ratio (z) = 0.30975 0.30975
#
# Static dielectric constant tensor:
#      x y z
#    x 1.847260 0.000000 0.000000 
#    y 0.000000 1.847260 0.000000 
#    z 0.000000 0.000000 1.908130 
# 
# From -- ./inp_files/3354.got.cif
#   From: 2010.05.17/outbox.cif.g08.bks.cpg/sg112_2_cif.got.tgz:3354.got - 2010.05.20 10:59:04.
