data_PCOD9555029
_publ_section_title
;
Structure prediction by ZEFSAII (Michael W. Deem and Ramdas Pophale) SiO2 
 PCOD9555029
Probable space group: P -4 2 C
;
_chemical_formula_sum "Si O2"
_cell_formula_units_Z 28
_cell_length_a 13.004530
_cell_length_b 13.004530
_cell_length_c 8.161249
_cell_angle_alpha 90.000000
_cell_angle_beta 90.000000
_cell_angle_gamma 90.000000
_cell_volume 1380.212480
_symmetry_space_group_name_H-M "P -4 2 C"
_symmetry_group_IT_number 112
_symmetry_cell_setting 'tetragonal'
loop_
_space_group_symop_operation_xyz
x,y,z
y,-x,-z
-x,-y,z
-y,x,-z
x,-y,1/2-z
-x,y,1/2-z
-y,-x,1/2+z
y,x,1/2+z
loop_
_atom_site_type_symbol
_atom_site_label
_atom_site_fract_x
_atom_site_fract_y
_atom_site_fract_z
Si Si1 0.000000 0.831272 0.250000
Si Si2 0.309524 0.362854 0.454396
Si Si3 0.841766 0.340263 0.345290
Si Si4 0.500000 0.000000 0.750000
Si Si5 0.500000 0.652180 0.250000
Si Si6 0.000000 0.000000 0.500000
O O1 0.091238 0.761999 0.320917
O O2 0.959475 0.907377 0.389595
O O3 0.331196 0.246884 0.518500
O O4 0.218637 0.362678 0.324111
O O5 0.411683 0.402171 0.358903
O O6 0.289049 0.432727 0.612986
O O7 0.926304 0.429369 0.361057
#
# Coordination Sequence:
#
# PCOD9555029 Si02
#       6
#     4   8   8   2   4   2
#     4  10  20  34  56  80 108 144 182 230 280 334
#     4  10  21  37  56  81 111 144 184 230 276 331
#     4  10  20  36  58  80 110 148 187 227 281 336
#     4  10  20  34  56  82 108 146 184 224 276 336
#     4  10  22  35  54  79 108 140 176 221 268 319
#     4  10  20  34  52  82 112 138 184 234 280 330
#
# _framework density 20.286729000000001
#
# number of rings (size 3 to 8) (size 9 to 14) (size 15 to 20)
#    0.000    2.000    0.000    3.429    0.000    5.143 
#    0.000    0.000    0.000   65.143    0.000    0.000 
#    0.000    0.000    0.000    0.000    0.000    0.000 
#
# Total GULP energy -156222.879544 kJ/mol
# GULP energy per Si atom -5579.388555 kJ/mol
# Density = 2.024056 g / cm^3
# Si number density = 20.286729 Si / 1000 Ang^3
#
#
#
# Elastic Constant Matrix: (Units=GPa)
#
#
# Indices 1 2 3 4 5 6 
#
# 1 111.1276 41.6474 32.8197 0.0000 0.0000 0.0000
# 2 41.6474 111.1276 32.8197 0.0000 0.0000 0.0000
# 3 32.8197 32.8197 90.1510 0.0000 0.0000 0.0000
# 4 0.0000 0.0000 0.0000 24.6346 0.0000 0.0000
# 5 0.0000 0.0000 0.0000 0.0000 24.6346 0.0000
# 6 0.0000 0.0000 0.0000 0.0000 0.0000 27.5831
#
#
#
# Elastic Compliance Matrix: (Units=1/GPa)
#
#
# Indices 1 2 3 4 5 6 
#
# 1 0.011076 -0.003317 -0.002825 0.000000 0.000000 0.000000
# 2 -0.003317 0.011076 -0.002825 0.000000 0.000000 0.000000
# 3 -0.002825 -0.002825 0.013149 0.000000 0.000000 0.000000
# 4 0.000000 0.000000 0.000000 0.040593 0.000000 0.000000
# 5 0.000000 0.000000 0.000000 0.000000 0.040593 0.000000
# 6 0.000000 0.000000 0.000000 0.000000 0.000000 0.036254
#
#
# Mechanical properties :
#
#
# Convention : Reuss Voigt Hill
#
# Bulk Modulus (GPa) = 57.57514 58.55334 58.06424
# Shear Modulus (GPa) = 28.33441 29.04506 28.68973
#
# Velocity S-wave (km/s) = 3.74129 3.78792 3.76468
# Velocity P-wave (km/s) = 6.86333 6.93229 6.89790
#
# Compressibility (1/GPa) = 0.01736861
#
# Stress axis : x y z
#
# Youngs Moduli (GPa) = 90.28597 90.28597 76.05008
#
# Poissons Ratio (x) = 0.29945 0.21482
# Poissons Ratio (y) = 0.29945 0.21482
# Poissons Ratio (z) = 0.25504 0.25504
#
# Static dielectric constant tensor:
#      x y z
#    x 1.734500 0.000000 0.000000 
#    y 0.000000 1.734500 0.000000 
#    z 0.000000 0.000000 1.714430 
# 
# From -- ./inp_files/1001.got.cif
#   From: 2010.05.17/outbox.cif.g08.bks.cpg/sg112_1_cif.got.tgz:1001.got - 2010.05.20 10:59:04.
