data_PCOD9555595
_publ_section_title
;
Structure prediction by ZEFSAII (Michael W. Deem and Ramdas Pophale) SiO2 
 PCOD9555595
Probable space group: P -4 21 M 
;
_chemical_formula_sum "Si O2"
_cell_formula_units_Z 56
_cell_length_a 24.506986
_cell_length_b 24.506986
_cell_length_c 5.248285
_cell_angle_alpha 90.000000
_cell_angle_beta 90.000000
_cell_angle_gamma 90.000000
_cell_volume 3152.079889
_symmetry_space_group_name_H-M "P -4 21 M "
_symmetry_group_IT_number 113
_symmetry_cell_setting 'tetragonal'
loop_
_space_group_symop_operation_xyz
x,y,z
y,-x,-z
-x,-y,z
-y,x,-z
1/2+x,1/2-y,-z
1/2-x,1/2+y,-z
1/2-y,1/2-x,z
1/2+y,1/2+x,z
loop_
_atom_site_type_symbol
_atom_site_label
_atom_site_fract_x
_atom_site_fract_y
_atom_site_fract_z
Si Si1 0.661550 0.661545 0.500006
Si Si2 0.280914 0.127380 0.489012
Si Si3 0.372626 0.780919 0.489013
Si Si4 0.360845 0.438092 0.120750
Si Si5 0.740427 0.937656 0.011027
Si Si6 0.139154 0.061912 0.879261
Si Si7 0.740426 0.062339 0.011027
O O1 0.656097 0.723781 0.409396
O O2 0.723787 0.656094 0.590604
O O3 0.653168 0.610830 0.311500
O O4 0.610837 0.653164 0.688521
O O5 0.328960 0.171041 0.498309
O O6 0.273051 0.099251 0.764966
O O7 0.288633 0.083558 0.264513
O O8 0.328967 0.828967 0.498306
O O9 0.400753 0.773055 0.764969
O O10 0.416449 0.788635 0.264515
O O11 0.364964 0.500002 0.222712
O O12 0.306568 0.437734 0.944063
O O13 0.417383 0.417385 0.000008
O O14 0.806569 0.937731 0.055945
O O15 0.725916 0.999998 0.952529
#
# Coordination Sequence:
#
# PCOD9555595 Si02
#       7
#     8   8   8   8   8   8   8
#     4  10  21  36  50  79 110 148 182 242 305 334
#     4  11  21  35  58  86 115 145 188 232 282 345
#     4  11  21  35  58  86 115 145 188 232 282 345
#     4  10  20  35  52  71 101 145 198 244 283 330
#     4  10  21  37  57  80 115 154 185 227 282 335
#     4  10  20  35  52  71 101 145 198 244 283 330
#     4  10  21  37  57  80 115 154 185 227 282 335
#
# _framework density 17.766048000000001
#
# number of rings (size 3 to 8) (size 9 to 14) (size 15 to 20)
#    0.000    1.714    2.857    2.143    0.000    2.571 
#    0.000    4.286    0.000    0.000    0.000    0.000 
#    0.000   40.000    0.000    0.000    0.000    0.000 
#
# Total GULP energy -311805.813811 kJ/mol
# GULP energy per Si atom -5567.960961 kJ/mol
# Density = 1.772561 g / cm^3
# Si number density = 17.766048 Si / 1000 Ang^3
#
#
#
# Elastic Constant Matrix: (Units=GPa)
#
#
# Indices 1 2 3 4 5 6 
#
# 1 78.0654 65.7921 16.1361 0.0000 0.0000 0.0000
# 2 65.7921 78.0725 16.1387 0.0000 0.0000 0.0000
# 3 16.1361 16.1387 48.5435 0.0000 0.0000 0.0000
# 4 0.0000 0.0000 0.0000 20.3243 0.0000 0.0000
# 5 0.0000 0.0000 0.0000 0.0000 20.3247 0.0000
# 6 0.0000 0.0000 0.0000 0.0000 0.0000 28.6686
#
#
#
# Elastic Compliance Matrix: (Units=1/GPa)
#
#
# Indices 1 2 3 4 5 6 
#
# 1 0.044484 -0.036971 -0.002495 0.000000 0.000000 0.000000
# 2 -0.036971 0.044481 -0.002499 0.000000 0.000000 0.000000
# 3 -0.002495 -0.002499 0.022260 0.000000 0.000000 0.000000
# 4 0.000000 0.000000 0.000000 0.049202 0.000000 0.000000
# 5 0.000000 0.000000 0.000000 0.000000 0.049201 0.000000
# 6 0.000000 0.000000 0.000000 0.000000 0.000000 0.034881
#
#
# Mechanical properties :
#
#
# Convention : Reuss Voigt Hill
#
# Bulk Modulus (GPa) = 36.63687 44.53502 40.58594
# Shear Modulus (GPa) = 14.81308 20.97114 17.89211
#
# Velocity S-wave (km/s) = 2.89067 3.43943 3.17692
# Velocity P-wave (km/s) = 5.63985 6.39491 6.02921
#
# Compressibility (1/GPa) = 0.02729491
#
# Stress axis : x y z
#
# Youngs Moduli (GPa) = 22.47983 22.48149 44.92314
#
# Poissons Ratio (x) = 0.83117 0.11210
# Poissons Ratio (y) = 0.83111 0.11225
# Poissons Ratio (z) = 0.05609 0.05617
#
# Static dielectric constant tensor:
#      x y z
#    x 1.618090 0.000000 0.000000 
#    y 0.000000 1.618090 0.000000 
#    z 0.000000 0.000000 1.675900 
# 
# From -- ./inp_files/571.got.cif
#   From: 2010.05.17/outbox.cif.g08.bks.cpg/sg113_cif.got.tgz:571.got - 2010.05.20 11:03:00.
