data_PCOD9555213
_publ_section_title
;
Structure prediction by ZEFSAII (Michael W. Deem and Ramdas Pophale) SiO2 
 PCOD9555213
Probable space group: P -4 2 C
;
_chemical_formula_sum "Si O2"
_cell_formula_units_Z 32
_cell_length_a 7.455861
_cell_length_b 7.455861
_cell_length_c 22.390069
_cell_angle_alpha 90.000000
_cell_angle_beta 90.000000
_cell_angle_gamma 90.000000
_cell_volume 1244.660874
_symmetry_space_group_name_H-M "P -4 2 C"
_symmetry_group_IT_number 112
_symmetry_cell_setting 'tetragonal'
loop_
_space_group_symop_operation_xyz
x,y,z
y,-x,-z
-x,-y,z
-y,x,-z
x,-y,1/2-z
-x,y,1/2-z
-y,-x,1/2+z
y,x,1/2+z
loop_
_atom_site_type_symbol
_atom_site_label
_atom_site_fract_x
_atom_site_fract_y
_atom_site_fract_z
Si Si1 0.453402 0.302145 0.647627
Si Si2 0.074214 0.205006 0.688886
Si Si3 0.190245 0.183475 0.906375
Si Si4 0.338286 0.142789 0.533541
O O1 0.500000 0.500000 0.668640
O O2 0.288222 0.222000 0.684859
O O3 0.638588 0.194327 0.638494
O O4 0.382309 0.300921 0.579156
O O5 0.000000 0.286454 0.750000
O O6 0.969578 0.274438 0.630794
O O7 0.000000 0.000000 0.688325
O O8 0.189682 0.978917 0.931809
O O9 0.207780 0.287712 0.968618
O O10 0.500000 0.000000 0.528892
#
# Coordination Sequence:
#
# PCOD9555213 Si02
#       4
#     8   8   8   8
#     4  11  26  44  70 111 152 196 254 328 401 475
#     4  11  25  48  76 104 143 206 270 325 382 463
#     4  11  24  42  71 106 153 196 262 311 398 480
#     4  10  23  40  68 109 152 204 248 317 399 486
#
# _framework density 25.709817000000001
#
# number of rings (size 3 to 8) (size 9 to 14) (size 15 to 20)
#    0.000    1.250    2.500    1.500   10.500    1.000 
#    0.000    6.250    0.000    0.000    0.000    0.000 
#    0.000    0.000    0.000    0.000    0.000    0.000 
#
# Total GULP energy -178825.088954 kJ/mol
# GULP energy per Si atom -5588.284030 kJ/mol
# Density = 2.565130 g / cm^3
# Si number density = 25.709817 Si / 1000 Ang^3
#
#
#
# Elastic Constant Matrix: (Units=GPa)
#
#
# Indices 1 2 3 4 5 6 
#
# 1 135.6903 34.9144 21.1279 0.0000 0.0000 0.0000
# 2 34.9144 135.6903 21.1279 0.0000 0.0000 0.0000
# 3 21.1279 21.1279 91.0872 0.0000 0.0000 0.0000
# 4 0.0000 0.0000 0.0000 -6.2107 0.0000 0.0000
# 5 0.0000 0.0000 0.0000 0.0000 -6.2107 0.0000
# 6 0.0000 0.0000 0.0000 0.0000 0.0000 25.8822
#
#
#
# Elastic Compliance Matrix: (Units=1/GPa)
#
#
# Indices 1 2 3 4 5 6 
#
# 1 0.008071 -0.001852 -0.001442 0.000000 0.000000 0.000000
# 2 -0.001852 0.008071 -0.001442 0.000000 0.000000 0.000000
# 3 -0.001442 -0.001442 0.011648 0.000000 0.000000 0.000000
# 4 0.000000 0.000000 0.000000 -0.161012 0.000000 0.000000
# 5 0.000000 0.000000 0.000000 0.000000 -0.161012 0.000000
# 6 0.000000 0.000000 0.000000 0.000000 0.000000 0.038637
#
#
# Mechanical properties :
#
#
# Convention : Reuss Voigt Hill
#
# Bulk Modulus (GPa) = 54.59895 57.42313 56.01104
# Shear Modulus (GPa) = -20.83166 21.71201 0.44018
#
# Velocity S-wave (km/s) = -2.84960 2.90919 0.41422
# Velocity P-wave (km/s) = 3.23354 5.80242 4.69701
#
# Compressibility (1/GPa) = 0.01831537
#
# Stress axis : x y z
#
# Youngs Moduli (GPa) = 123.90207 123.90207 85.85421
#
# Poissons Ratio (x) = 0.22948 0.12384
# Poissons Ratio (y) = 0.22948 0.12384
# Poissons Ratio (z) = 0.17872 0.17872
#
# Static dielectric constant tensor:
#      x y z
#    x 2.153610 0.000000 0.000000 
#    y 0.000000 2.153610 0.000000 
#    z 0.000000 0.000000 2.042880 
# 
# From -- ./inp_files/4503.got.cif
#   From: 2010.05.17/outbox.cif.g08.bks.cpg/sg112_3_cif.got.tgz:4503.got - 2010.05.20 10:59:04.
