data_PCOD9555890
_publ_section_title
;
Structure prediction by ZEFSAII (Michael W. Deem and Ramdas Pophale) SiO2 
 PCOD9555890
Probable space group: P -4 21 C
;
_chemical_formula_sum "Si O2"
_cell_formula_units_Z 56
_cell_length_a 15.427980
_cell_length_b 15.427980
_cell_length_c 13.123672
_cell_angle_alpha 90.000000
_cell_angle_beta 90.000000
_cell_angle_gamma 90.000000
_cell_volume 3123.730096
_symmetry_space_group_name_H-M "P -4 21 C"
_symmetry_group_IT_number 114
_symmetry_cell_setting 'tetragonal'
loop_
_space_group_symop_operation_xyz
x,y,z
y,-x,-z
-x,-y,z
-y,x,-z
1/2+x,1/2-y,1/2-z
1/2-x,1/2+y,1/2-z
1/2-y,1/2-x,1/2+z
1/2+y,1/2+x,1/2+z
loop_
_atom_site_type_symbol
_atom_site_label
_atom_site_fract_x
_atom_site_fract_y
_atom_site_fract_z
Si Si1 0.378453 0.273812 0.667770
Si Si2 0.310052 0.631511 0.665683
Si Si3 0.724603 0.560561 0.616776
Si Si4 0.277854 0.674360 0.106946
Si Si5 0.310627 0.924244 0.663279
Si Si6 0.064230 0.283567 0.897729
Si Si7 0.243948 0.613195 0.885891
O O1 0.349038 0.365781 0.621891
O O2 0.381547 0.285084 0.790071
O O3 0.465887 0.234770 0.626423
O O4 0.308055 0.201447 0.637674
O O5 0.311848 0.537394 0.613628
O O6 0.227125 0.687189 0.624410
O O7 0.385861 0.698887 0.643804
O O8 0.306389 0.611559 0.786924
O O9 0.780770 0.570127 0.719377
O O10 0.783128 0.577790 0.518734
O O11 0.358444 0.741542 0.110630
O O12 0.278961 0.624798 0.000113
O O13 0.399352 0.871622 0.650490
O O14 0.307498 0.021856 0.620615
#
# Coordination Sequence:
#
# PCOD9555890 Si02
#       7
#     8   8   8   8   8   8   8
#     4  10  21  32  51  81 103 131 175 213 253 317
#     4   9  20  34  52  76 101 136 173 210 259 315
#     4  10  19  36  53  73 105 134 170 215 261 303
#     4   9  18  35  54  74 101 135 176 215 254 302
#     4   9  21  34  52  78 100 136 177 208 255 322
#     4  11  20  33  54  77 104 134 171 214 259 307
#     4  10  19  36  54  71 106 140 168 212 265 305
#
# _framework density 17.927285000000001
#
# number of rings (size 3 to 8) (size 9 to 14) (size 15 to 20)
#    0.000    2.286    0.000    4.286    0.000    3.429 
#    0.000    1.429    0.000    7.286    0.000    0.000 
#    0.000    0.000    0.000    0.000    0.000    0.000 
#
# Total GULP energy -311987.322686 kJ/mol
# GULP energy per Si atom -5571.202191 kJ/mol
# Density = 1.788648 g / cm^3
# Si number density = 17.927285 Si / 1000 Ang^3
#
#
#
# Elastic Constant Matrix: (Units=GPa)
#
#
# Indices 1 2 3 4 5 6 
#
# 1 51.0832 -11.7348 0.5459 0.0000 0.0000 0.0000
# 2 -11.7348 51.0832 0.5459 0.0000 0.0000 0.0000
# 3 0.5459 0.5459 70.8216 0.0000 0.0000 0.0000
# 4 0.0000 0.0000 0.0000 17.6037 0.0000 0.0000
# 5 0.0000 0.0000 0.0000 0.0000 17.6037 0.0000
# 6 0.0000 0.0000 0.0000 0.0000 0.0000 -702.9200
#
#
#
# Elastic Compliance Matrix: (Units=1/GPa)
#
#
# Indices 1 2 3 4 5 6 
#
# 1 0.020669 0.004750 -0.000196 0.000000 0.000000 0.000000
# 2 0.004750 0.020669 -0.000196 0.000000 0.000000 0.000000
# 3 -0.000196 -0.000196 0.014123 0.000000 0.000000 0.000000
# 4 0.000000 0.000000 0.000000 0.056806 0.000000 0.000000
# 5 0.000000 0.000000 0.000000 0.000000 0.056806 0.000000
# 6 0.000000 0.000000 0.000000 0.000000 0.000000 -0.001423
#
#
# Mechanical properties :
#
#
# Convention : Reuss Voigt Hill
#
# Bulk Modulus (GPa) = 15.58162 16.85577 16.21870
# Shear Modulus (GPa) = 27.72738 -121.30045 -46.78654
#
# Velocity S-wave (km/s) = 3.93702 -8.23464 -5.11416
# Velocity P-wave (km/s) = 5.42008 8.99943 5.07998
#
# Compressibility (1/GPa) = 0.06417818
#
# Stress axis : x y z
#
# Youngs Moduli (GPa) = 48.38108 48.38108 70.80649
#
# Poissons Ratio (x) = -0.22982 0.01387
# Poissons Ratio (y) = -0.22982 0.01387
# Poissons Ratio (z) = 0.00948 0.00948
#
# Static dielectric constant tensor:
#      x y z
#    x 1.610100 0.000000 0.000000 
#    y 0.000000 1.610100 0.000000 
#    z 0.000000 0.000000 1.813710 
# 
# From -- ./inp_files/2264.got.cif
#   From: 2010.05.17/outbox.cif.g08.bks.cpg/sg114_2_cif.got.tgz:2264.got - 2010.05.20 11:04:54.
