data_PCOD9555401
_publ_section_title
;
Structure prediction by ZEFSAII (Michael W. Deem and Ramdas Pophale) SiO2 
 PCOD9555401
Probable space group: P -4 2 C
;
_chemical_formula_sum "Si O2"
_cell_formula_units_Z 36
_cell_length_a 13.168205
_cell_length_b 13.168205
_cell_length_c 8.901142
_cell_angle_alpha 90.000000
_cell_angle_beta 90.000000
_cell_angle_gamma 90.000000
_cell_volume 1543.472469
_symmetry_space_group_name_H-M "P -4 2 C"
_symmetry_group_IT_number 112
_symmetry_cell_setting 'tetragonal'
loop_
_space_group_symop_operation_xyz
x,y,z
y,-x,-z
-x,-y,z
-y,x,-z
x,-y,1/2-z
-x,y,1/2-z
-y,-x,1/2+z
y,x,1/2+z
loop_
_atom_site_type_symbol
_atom_site_label
_atom_site_fract_x
_atom_site_fract_y
_atom_site_fract_z
Si Si1 0.821411 0.873179 0.383034
Si Si2 0.850574 0.639079 0.667166
Si Si3 0.695703 0.029207 0.581730
Si Si4 0.000000 0.000000 0.250000
Si Si5 0.552025 0.369305 0.409544
Si Si6 0.500000 0.000000 0.250000
O O1 0.752275 0.861343 0.234547
O O2 0.867534 0.764022 0.418753
O O3 0.923535 0.933830 0.346360
O O4 0.759831 0.936905 0.507563
O O5 0.927847 0.611962 0.531403
O O6 0.737897 0.607280 0.620084
O O7 0.907985 0.578702 0.800220
O O8 0.667195 0.000000 0.750000
O O9 0.458036 0.373275 0.529086
O O10 0.500000 0.392555 0.250000
#
# Coordination Sequence:
#
# PCOD9555401 Si02
#       6
#     8   8   8   2   8   2
#     4  12  23  44  67 101 152 206 255 296 368 435
#     4  12  26  47  75 105 146 204 248 304 380 480
#     4  12  24  41  65 105 147 191 252 308 357 438
#     4  12  18  42  66  94 144 220 256 296 328 444
#     4  11  26  53  82 114 144 185 251 332 399 461
#     4  12  22  52  74  96 148 204 236 280 380 456
#
# _framework density 23.324031000000002
#
# number of rings (size 3 to 8) (size 9 to 14) (size 15 to 20)
#    0.000    0.222    6.667    4.000    3.111    0.000 
#    4.000    0.556    0.000    0.000    0.000    0.000 
#    0.000    0.000    0.000    0.000    0.000    0.000 
#
# Total GULP energy -200408.174893 kJ/mol
# GULP energy per Si atom -5566.893747 kJ/mol
# Density = 2.327094 g / cm^3
# Si number density = 23.324031 Si / 1000 Ang^3
#
#
#
# Elastic Constant Matrix: (Units=GPa)
#
#
# Indices 1 2 3 4 5 6 
#
# 1 119.9312 39.7245 41.4965 0.0000 0.0000 0.0000
# 2 39.7245 119.9312 41.4965 0.0000 0.0000 0.0000
# 3 41.4965 41.4965 152.8522 0.0000 0.0000 0.0000
# 4 0.0000 0.0000 0.0000 23.2114 0.0000 0.0000
# 5 0.0000 0.0000 0.0000 0.0000 23.2114 0.0000
# 6 0.0000 0.0000 0.0000 0.0000 0.0000 -44.6899
#
#
#
# Elastic Compliance Matrix: (Units=1/GPa)
#
#
# Indices 1 2 3 4 5 6 
#
# 1 0.009880 -0.002588 -0.001980 0.000000 0.000000 0.000000
# 2 -0.002588 0.009880 -0.001980 0.000000 0.000000 0.000000
# 3 -0.001980 -0.001980 0.007617 0.000000 0.000000 0.000000
# 4 0.000000 0.000000 0.000000 0.043082 0.000000 0.000000
# 5 0.000000 0.000000 0.000000 0.000000 0.043082 0.000000
# 6 0.000000 0.000000 0.000000 0.000000 0.000000 -0.022376
#
#
# Mechanical properties :
#
#
# Convention : Reuss Voigt Hill
#
# Bulk Modulus (GPa) = 70.01211 70.90553 70.45882
# Shear Modulus (GPa) = 45.86267 18.34640 32.10453
#
# Velocity S-wave (km/s) = 4.43914 2.80766 3.71409
# Velocity P-wave (km/s) = 7.50713 6.40131 6.97616
#
# Compressibility (1/GPa) = 0.01428324
#
# Stress axis : x y z
#
# Youngs Moduli (GPa) = 101.21244 101.21244 131.28125
#
# Poissons Ratio (x) = 0.26190 0.25991
# Poissons Ratio (y) = 0.26190 0.25991
# Poissons Ratio (z) = 0.20038 0.20038
#
# Static dielectric constant tensor:
#      x y z
#    x 2.092170 0.000000 0.000000 
#    y 0.000000 2.092170 0.000000 
#    z 0.000000 0.000000 77.363720 
# 
# From -- ./inp_files/1183.got.cif
#   From: 2010.05.17/outbox.cif.g08.bks.cpg/sg112_1_cif.got.tgz:1183.got - 2010.05.20 10:59:04.
