data_PCOD9555659
_publ_section_title
;
Structure prediction by ZEFSAII (Michael W. Deem and Ramdas Pophale) SiO2 
 PCOD9555659
Probable space group: P -4 21 M 
;
_chemical_formula_sum "Si O2"
_cell_formula_units_Z 56
_cell_length_a 11.452972
_cell_length_b 11.452972
_cell_length_c 22.372506
_cell_angle_alpha 90.000000
_cell_angle_beta 90.000000
_cell_angle_gamma 90.000000
_cell_volume 2934.614311
_symmetry_space_group_name_H-M "P -4 21 M "
_symmetry_group_IT_number 113
_symmetry_cell_setting 'tetragonal'
loop_
_space_group_symop_operation_xyz
x,y,z
y,-x,-z
-x,-y,z
-y,x,-z
1/2+x,1/2-y,-z
1/2-x,1/2+y,-z
1/2-y,1/2-x,z
1/2+y,1/2+x,z
loop_
_atom_site_type_symbol
_atom_site_label
_atom_site_fract_x
_atom_site_fract_y
_atom_site_fract_z
Si Si1 0.236524 0.081087 0.937838
Si Si2 0.525137 0.636310 0.823955
Si Si3 0.231461 0.457449 0.803587
Si Si4 0.275072 0.965772 0.063675
Si Si5 0.302888 0.999757 0.500463
Si Si6 0.350241 0.348383 0.412652
Si Si7 0.849824 0.156219 0.722181
O O1 0.351926 0.148075 0.918328
O O2 0.203840 0.993321 0.884701
O O3 0.130007 0.172258 0.938169
O O4 0.254787 0.041247 0.005323
O O5 0.500000 0.500000 0.835447
O O6 0.662909 0.636529 0.809459
O O7 0.451458 0.670308 0.766482
O O8 0.112417 0.387584 0.793329
O O9 0.226304 0.517300 0.869464
O O10 0.267137 0.548048 0.752941
O O11 0.395626 0.895626 0.057547
O O12 0.390937 0.109063 0.515294
O O13 0.214296 0.045093 0.449067
O O14 0.391377 0.891377 0.484960
O O15 0.216559 0.952331 0.552389
O O16 0.253455 0.246546 0.408439
O O17 0.383134 0.380358 0.344948
O O18 0.735187 0.235187 0.720190
#
# Coordination Sequence:
#
# PCOD9555659 Si02
#       7
#     8   8   8   8   8   8   8
#     4  10  21  34  52  76 102 136 181 231 279 332
#     4   9  19  36  53  75 105 145 186 223 272 334
#     4   9  19  38  56  75 109 149 189 232 282 341
#     4   9  20  34  51  75 102 136 180 231 283 332
#     4   9  18  36  60  84 120 162 195 240 292 338
#     4   9  19  37  58  87 119 150 194 233 276 345
#     4  10  21  36  57  85 117 147 183 233 282 336
#
# _framework density 19.082577000000001
#
# number of rings (size 3 to 8) (size 9 to 14) (size 15 to 20)
#    0.000    2.714    0.000    1.286    6.000    2.571 
#    7.714    4.286    0.000    3.000    0.000    0.000 
#    0.000    0.000    0.000    0.000    0.000    0.000 
#
# Total GULP energy -311909.641901 kJ/mol
# GULP energy per Si atom -5569.815034 kJ/mol
# Density = 1.903914 g / cm^3
# Si number density = 19.082577 Si / 1000 Ang^3
#
#
#
# Elastic Constant Matrix: (Units=GPa)
#
#
# Indices 1 2 3 4 5 6 
#
# 1 50.2342 31.4326 56.5317 0.0000 0.0000 0.0000
# 2 31.4326 50.2324 56.5309 0.0000 0.0000 0.0000
# 3 56.5317 56.5309 173.6951 0.0000 0.0000 0.0000
# 4 0.0000 0.0000 0.0000 36.0622 0.0000 0.0000
# 5 0.0000 0.0000 0.0000 0.0000 36.0709 0.0000
# 6 0.0000 0.0000 0.0000 0.0000 0.0000 15.7667
#
#
#
# Elastic Compliance Matrix: (Units=1/GPa)
#
#
# Indices 1 2 3 4 5 6 
#
# 1 0.037738 -0.015451 -0.007254 0.000000 0.000000 0.000000
# 2 -0.015451 0.037739 -0.007254 0.000000 0.000000 0.000000
# 3 -0.007254 -0.007254 0.010479 0.000000 0.000000 0.000000
# 4 0.000000 0.000000 0.000000 0.027730 0.000000 0.000000
# 5 0.000000 0.000000 0.000000 0.000000 0.027723 0.000000
# 6 0.000000 0.000000 0.000000 0.000000 0.000000 0.063425
#
#
# Mechanical properties :
#
#
# Convention : Reuss Voigt Hill
#
# Bulk Modulus (GPa) = 38.40420 62.57247 50.48833
# Shear Modulus (GPa) = 18.28621 26.22441 22.25531
#
# Velocity S-wave (km/s) = 3.09895 3.71112 3.41876
# Velocity P-wave (km/s) = 5.74226 7.15715 6.48839
#
# Compressibility (1/GPa) = 0.02603882
#
# Stress axis : x y z
#
# Youngs Moduli (GPa) = 26.49867 26.49763 95.43019
#
# Poissons Ratio (x) = 0.40942 0.69221
# Poissons Ratio (y) = 0.40943 0.69224
# Poissons Ratio (z) = 0.19221 0.19221
#
# Static dielectric constant tensor:
#      x y z
#    x 1.681890 0.000000 0.000000 
#    y 0.000000 1.681890 0.000000 
#    z 0.000000 0.000000 1.684160 
# 
# From -- ./inp_files/2702.got.cif
#   From: 2010.05.17/outbox.cif.g08.bks.cpg/sg113_cif.got.tgz:2702.got - 2010.05.20 11:03:00.
