data_PCOD9555181
_publ_section_title
;
Structure prediction by ZEFSAII (Michael W. Deem and Ramdas Pophale) SiO2 
 PCOD9555181
Probable space group: P -4 2 C
;
_chemical_formula_sum "Si O2"
_cell_formula_units_Z 32
_cell_length_a 10.131159
_cell_length_b 10.131159
_cell_length_c 11.745379
_cell_angle_alpha 90.000000
_cell_angle_beta 90.000000
_cell_angle_gamma 90.000000
_cell_volume 1205.550195
_symmetry_space_group_name_H-M "P -4 2 C"
_symmetry_group_IT_number 112
_symmetry_cell_setting 'tetragonal'
loop_
_space_group_symop_operation_xyz
x,y,z
y,-x,-z
-x,-y,z
-y,x,-z
x,-y,1/2-z
-x,y,1/2-z
-y,-x,1/2+z
y,x,1/2+z
loop_
_atom_site_type_symbol
_atom_site_label
_atom_site_fract_x
_atom_site_fract_y
_atom_site_fract_z
Si Si1 0.500000 0.000000 0.750000
Si Si2 0.766391 0.000000 0.250000
Si Si3 0.161105 0.386624 0.930188
Si Si4 0.917372 0.162194 0.432893
Si Si5 0.500000 0.500000 0.500000
Si Si6 0.762874 0.425200 0.089383
O O1 0.427251 0.110087 0.828871
O O2 0.666565 0.942343 0.342158
O O3 0.861334 0.898023 0.182518
O O4 0.294012 0.318131 0.888313
O O5 0.126784 0.311047 0.048622
O O6 0.176536 0.538217 0.964766
O O7 0.071685 0.144300 0.463348
O O8 0.631262 0.478411 0.421685
#
# Coordination Sequence:
#
# PCOD9555181 Si02
#       6
#     2   4   8   8   2   8
#     4  12  28  38  72 116 144 170 240 328 382 388
#     4  10  22  39  67  96 132 196 237 297 380 440
#     4  10  23  44  67  96 142 183 242 294 360 445
#     4   9  20  36  57  90 129 177 234 296 355 445
#     4   8  20  54  76  88 152 210 252 274 364 484
#     4  10  24  44  70 105 140 192 237 307 356 440
#
# _framework density 26.543894999999999
#
# number of rings (size 3 to 8) (size 9 to 14) (size 15 to 20)
#    0.000    2.250    0.000    0.000   10.500    8.500 
#    0.000    2.500    0.000    0.000    0.000    0.000 
#    0.000    0.000    0.000    0.000    0.000    0.000 
#
# Total GULP energy -178387.901483 kJ/mol
# GULP energy per Si atom -5574.621921 kJ/mol
# Density = 2.648348 g / cm^3
# Si number density = 26.543895 Si / 1000 Ang^3
#
#
#
# Elastic Constant Matrix: (Units=GPa)
#
#
# Indices 1 2 3 4 5 6 
#
# 1 97.1814 27.9254 34.4683 0.0000 0.0000 0.0000
# 2 27.9254 97.1814 34.4683 0.0000 0.0000 0.0000
# 3 34.4683 34.4683 108.1857 0.0000 0.0000 0.0000
# 4 0.0000 0.0000 0.0000 8.2756 0.0000 0.0000
# 5 0.0000 0.0000 0.0000 0.0000 8.2756 0.0000
# 6 0.0000 0.0000 0.0000 0.0000 0.0000 44.6381
#
#
#
# Elastic Compliance Matrix: (Units=1/GPa)
#
#
# Indices 1 2 3 4 5 6 
#
# 1 0.012067 -0.002372 -0.003089 0.000000 0.000000 0.000000
# 2 -0.002372 0.012067 -0.003089 0.000000 0.000000 0.000000
# 3 -0.003089 -0.003089 0.011212 0.000000 0.000000 0.000000
# 4 0.000000 0.000000 0.000000 0.120838 0.000000 0.000000
# 5 0.000000 0.000000 0.000000 0.000000 0.120838 0.000000
# 6 0.000000 0.000000 0.000000 0.000000 0.000000 0.022402
#
#
# Mechanical properties :
#
#
# Convention : Reuss Voigt Hill
#
# Bulk Modulus (GPa) = 54.80537 55.14143 54.97340
# Shear Modulus (GPa) = 15.49881 25.95029 20.72455
#
# Velocity S-wave (km/s) = 2.41901 3.13011 2.79725
# Velocity P-wave (km/s) = 5.33798 5.82084 5.58463
#
# Compressibility (1/GPa) = 0.01824639
#
# Stress axis : x y z
#
# Youngs Moduli (GPa) = 82.86919 82.86919 89.19292
#
# Poissons Ratio (x) = 0.19656 0.27551
# Poissons Ratio (y) = 0.19656 0.27551
# Poissons Ratio (z) = 0.25598 0.25598
#
# Static dielectric constant tensor:
#      x y z
#    x 2.224640 0.000000 0.000000 
#    y 0.000000 2.224640 0.000000 
#    z 0.000000 0.000000 2.146390 
# 
# From -- ./inp_files/2291.got.cif
#   From: 2010.05.17/outbox.cif.g08.bks.cpg/sg112_2_cif.got.tgz:2291.got - 2010.05.20 10:59:04.
