data_PCOD9555371
_publ_section_title
;
Structure prediction by ZEFSAII (Michael W. Deem and Ramdas Pophale) SiO2 
 PCOD9555371
Probable space group: P -4 2 C
;
_chemical_formula_sum "Si O2"
_cell_formula_units_Z 38
_cell_length_a 8.745276
_cell_length_b 8.745276
_cell_length_c 22.590383
_cell_angle_alpha 90.000000
_cell_angle_beta 90.000000
_cell_angle_gamma 90.000000
_cell_volume 1727.709156
_symmetry_space_group_name_H-M "P -4 2 C"
_symmetry_group_IT_number 112
_symmetry_cell_setting 'tetragonal'
loop_
_space_group_symop_operation_xyz
x,y,z
y,-x,-z
-x,-y,z
-y,x,-z
x,-y,1/2-z
-x,y,1/2-z
-y,-x,1/2+z
y,x,1/2+z
loop_
_atom_site_type_symbol
_atom_site_label
_atom_site_fract_x
_atom_site_fract_y
_atom_site_fract_z
Si Si1 0.000000 0.500000 0.067231
Si Si2 0.301887 0.771087 0.709468
Si Si3 0.500000 0.500000 0.750000
Si Si4 0.110422 0.296266 0.161127
Si Si5 0.991911 0.316730 0.646974
Si Si6 0.235417 0.012030 0.016135
O O1 0.873534 0.583457 0.108161
O O2 0.069021 0.624140 0.022592
O O3 0.397462 0.611927 0.708054
O O4 0.344526 0.830778 0.774642
O O5 0.127004 0.724635 0.698163
O O6 0.299710 0.924957 0.668567
O O7 0.207968 0.141512 0.152556
O O8 0.942138 0.279464 0.579291
O O9 0.000000 0.500000 0.649444
O O10 0.147753 0.885463 0.977496
#
# Coordination Sequence:
#
# PCOD9555371 Si02
#       6
#     4   8   2   8   8   8
#     4  12  22  43  72 104 143 194 252 326 376 462
#     4  11  25  43  69 103 145 199 251 312 391 471
#     4  12  24  46  66 104 154 194 252 326 404 464
#     4  11  24  44  71 104 144 195 257 311 382 480
#     4  12  24  42  68 105 146 193 253 323 387 467
#     4  11  24  43  69 102 142 191 253 317 384 466
#
# _framework density 21.994441999999999
#
# number of rings (size 3 to 8) (size 9 to 14) (size 15 to 20)
#    0.000    0.632    3.158    5.053    2.947    4.211 
#    0.000    0.000    0.000    3.158    0.000    0.000 
#    0.000    0.000    0.000    0.000    0.000    0.000 
#
# Total GULP energy -211583.231430 kJ/mol
# GULP energy per Si atom -5567.979774 kJ/mol
# Density = 2.194438 g / cm^3
# Si number density = 21.994442 Si / 1000 Ang^3
#
#
#
# Elastic Constant Matrix: (Units=GPa)
#
#
# Indices 1 2 3 4 5 6 
#
# 1 135.0681 60.3612 26.9805 0.0000 0.0000 0.0000
# 2 60.3612 135.0681 26.9805 0.0000 0.0000 0.0000
# 3 26.9805 26.9805 71.4022 0.0000 0.0000 0.0000
# 4 0.0000 0.0000 0.0000 32.7134 0.0000 0.0000
# 5 0.0000 0.0000 0.0000 0.0000 32.7134 0.0000
# 6 0.0000 0.0000 0.0000 0.0000 0.0000 38.2667
#
#
#
# Elastic Compliance Matrix: (Units=1/GPa)
#
#
# Indices 1 2 3 4 5 6 
#
# 1 0.009549 -0.003836 -0.002159 0.000000 0.000000 0.000000
# 2 -0.003836 0.009549 -0.002159 0.000000 0.000000 0.000000
# 3 -0.002159 -0.002159 0.015637 0.000000 0.000000 0.000000
# 4 0.000000 0.000000 0.000000 0.030569 0.000000 0.000000
# 5 0.000000 0.000000 0.000000 0.000000 0.030569 0.000000
# 6 0.000000 0.000000 0.000000 0.000000 0.000000 0.026132
#
#
# Mechanical properties :
#
#
# Convention : Reuss Voigt Hill
#
# Bulk Modulus (GPa) = 54.26638 63.35363 58.81001
# Shear Modulus (GPa) = 34.61289 35.88645 35.24967
#
# Velocity S-wave (km/s) = 3.97131 4.04371 4.00767
# Velocity P-wave (km/s) = 6.76422 7.11822 6.94348
#
# Compressibility (1/GPa) = 0.01842762
#
# Stress axis : x y z
#
# Youngs Moduli (GPa) = 104.71939 104.71939 63.95245
#
# Poissons Ratio (x) = 0.40174 0.13806
# Poissons Ratio (y) = 0.40174 0.13806
# Poissons Ratio (z) = 0.22606 0.22606
#
# Static dielectric constant tensor:
#      x y z
#    x 1.889660 0.000000 0.000000 
#    y 0.000000 1.889660 0.000000 
#    z 0.000000 0.000000 1.852930 
# 
# From -- ./inp_files/5413.got.cif
#   From: 2010.05.17/outbox.cif.g08.bks.cpg/sg112_3_cif.got.tgz:5413.got - 2010.05.20 10:59:04.
