data_PCOD9555991
_publ_section_title
;
Structure prediction by ZEFSAII (Michael W. Deem and Ramdas Pophale) SiO2 
 PCOD9555991
Probable space group: P -4 21 C
;
_chemical_formula_sum "Si O2"
_cell_formula_units_Z 56
_cell_length_a 11.266087
_cell_length_b 11.266087
_cell_length_c 21.719684
_cell_angle_alpha 90.000000
_cell_angle_beta 90.000000
_cell_angle_gamma 90.000000
_cell_volume 2756.764730
_symmetry_space_group_name_H-M "P -4 21 C"
_symmetry_group_IT_number 114
_symmetry_cell_setting 'tetragonal'
loop_
_space_group_symop_operation_xyz
x,y,z
y,-x,-z
-x,-y,z
-y,x,-z
1/2+x,1/2-y,1/2-z
1/2-x,1/2+y,1/2-z
1/2-y,1/2-x,1/2+z
1/2+y,1/2+x,1/2+z
loop_
_atom_site_type_symbol
_atom_site_label
_atom_site_fract_x
_atom_site_fract_y
_atom_site_fract_z
Si Si1 0.241226 0.142679 0.963305
Si Si2 0.336119 0.715124 0.660838
Si Si3 0.922957 0.879706 0.078184
Si Si4 0.419982 0.884411 0.759253
Si Si5 0.070132 0.808562 0.674465
Si Si6 0.567092 0.660978 0.966731
Si Si7 0.151967 0.950788 0.789034
O O1 0.159614 0.213088 0.913244
O O2 0.363769 0.213546 0.969951
O O3 0.232514 0.011601 0.932947
O O4 0.179433 0.130525 0.028782
O O5 0.409414 0.817149 0.694038
O O6 0.196874 0.740810 0.673244
O O7 0.364865 0.588139 0.691755
O O8 0.881719 0.882881 0.148514
O O9 0.000000 0.000000 0.067784
O O10 0.471811 0.787058 0.806247
O O11 0.710379 0.074320 0.777945
O O12 0.500000 0.000000 0.756494
O O13 0.048359 0.859201 0.606306
O O14 0.086740 0.904862 0.728300
O O15 0.648694 0.556920 0.996624
#
# Coordination Sequence:
#
# PCOD9555991 Si02
#       7
#     8   8   8   8   8   8   8
#     4  10  20  40  62  90 127 161 205 265 314 376
#     4   9  21  39  60  89 129 162 203 262 314 383
#     4  11  21  39  64  94 124 163 206 262 323 390
#     4  11  22  40  64  92 126 168 209 266 329 378
#     4  10  22  41  63  92 126 164 211 273 311 378
#     4  10  24  45  63  87 125 175 218 265 317 382
#     4  10  23  39  62  95 123 164 215 258 328 389
#
# _framework density 20.313666000000001
#
# number of rings (size 3 to 8) (size 9 to 14) (size 15 to 20)
#    0.000    1.857    2.857    0.000    6.000    2.286 
#    2.571    5.000    0.000    0.000    0.000    0.000 
#    0.000    0.000    0.000    0.000    0.000    0.000 
#
# Total GULP energy -312530.353734 kJ/mol
# GULP energy per Si atom -5580.899174 kJ/mol
# Density = 2.026743 g / cm^3
# Si number density = 20.313666 Si / 1000 Ang^3
#
#
#
# Elastic Constant Matrix: (Units=GPa)
#
#
# Indices 1 2 3 4 5 6 
#
# 1 70.4482 31.7380 29.5573 0.0000 0.0000 0.0000
# 2 31.7380 70.4482 29.5573 0.0000 0.0000 0.0000
# 3 29.5573 29.5573 155.8588 0.0000 0.0000 0.0000
# 4 0.0000 0.0000 0.0000 29.0598 0.0000 0.0000
# 5 0.0000 0.0000 0.0000 0.0000 29.0598 0.0000
# 6 0.0000 0.0000 0.0000 0.0000 0.0000 26.9370
#
#
#
# Elastic Compliance Matrix: (Units=1/GPa)
#
#
# Indices 1 2 3 4 5 6 
#
# 1 0.018412 -0.007421 -0.002085 0.000000 0.000000 0.000000
# 2 -0.007421 0.018412 -0.002085 0.000000 0.000000 0.000000
# 3 -0.002085 -0.002085 0.007207 0.000000 0.000000 0.000000
# 4 0.000000 0.000000 0.000000 0.034412 0.000000 0.000000
# 5 0.000000 0.000000 0.000000 0.000000 0.034412 0.000000
# 6 0.000000 0.000000 0.000000 0.000000 0.000000 0.037124
#
#
# Mechanical properties :
#
#
# Convention : Reuss Voigt Hill
#
# Bulk Modulus (GPa) = 47.95592 53.16225 50.55909
# Shear Modulus (GPa) = 27.76099 30.73818 29.24958
#
# Velocity S-wave (km/s) = 3.70079 3.89418 3.79871
# Velocity P-wave (km/s) = 6.47457 6.81520 6.64707
#
# Compressibility (1/GPa) = 0.02085248
#
# Stress axis : x y z
#
# Youngs Moduli (GPa) = 54.31094 54.31094 138.75998
#
# Poissons Ratio (x) = 0.40302 0.28925
# Poissons Ratio (y) = 0.40302 0.28925
# Poissons Ratio (z) = 0.11321 0.11321
#
# Static dielectric constant tensor:
#      x y z
#    x 1.741810 0.000000 0.000000 
#    y 0.000000 1.741810 0.000000 
#    z 0.000000 0.000000 1.737070 
# 
# From -- ./inp_files/3141.got.cif
#   From: 2010.05.17/outbox.cif.g08.bks.cpg/sg114_2_cif.got.tgz:3141.got - 2010.05.20 11:04:54.
