data_PCOD9555643
_publ_section_title
;
Structure prediction by ZEFSAII (Michael W. Deem and Ramdas Pophale) SiO2 
 PCOD9555643
Probable space group: P -4 21 M 
;
_chemical_formula_sum "Si O2"
_cell_formula_units_Z 48
_cell_length_a 19.269078
_cell_length_b 19.269078
_cell_length_c 5.373493
_cell_angle_alpha 90.000000
_cell_angle_beta 90.000000
_cell_angle_gamma 90.000000
_cell_volume 1995.163802
_symmetry_space_group_name_H-M "P -4 21 M "
_symmetry_group_IT_number 113
_symmetry_cell_setting 'tetragonal'
loop_
_space_group_symop_operation_xyz
x,y,z
y,-x,-z
-x,-y,z
-y,x,-z
1/2+x,1/2-y,-z
1/2-x,1/2+y,-z
1/2-y,1/2-x,z
1/2+y,1/2+x,z
loop_
_atom_site_type_symbol
_atom_site_label
_atom_site_fract_x
_atom_site_fract_y
_atom_site_fract_z
Si Si1 0.468612 0.855688 0.533841
Si Si2 0.801054 0.871057 0.260865
Si Si3 0.835492 0.063154 0.045429
Si Si4 0.702475 0.970429 0.012903
Si Si5 0.597311 0.469431 0.603690
Si Si6 0.851554 0.750173 0.564000
O O1 0.430608 0.930608 0.534505
O O2 0.499680 0.836863 0.260121
O O3 0.405227 0.800594 0.574171
O O4 0.521689 0.843487 0.763479
O O5 0.801907 0.798957 0.402207
O O6 0.735720 0.897159 0.103856
O O7 0.828363 0.932764 0.443158
O O8 0.871165 0.863212 0.100899
O O9 0.771469 0.016288 0.955198
O O10 0.893559 0.011672 0.143451
O O11 0.801191 0.100833 0.283204
O O12 0.531153 0.419601 0.588821
O O13 0.801851 0.698150 0.718704
#
# Coordination Sequence:
#
# PCOD9555643 Si02
#       6
#     8   8   8   8   8   8
#     4  10  20  38  59  82 110 148 195 240 291 347
#     4  11  22  35  56  78 115 152 197 248 284 346
#     4  10  21  35  51  76 109 153 199 242 287 337
#     4  10  22  34  57  83 112 149 191 238 288 337
#     4  10  21  33  51  72 108 158 202 237 272 335
#     4  10  21  37  57  76 108 152 198 247 298 351
#
# _framework density 24.058174000000001
#
# number of rings (size 3 to 8) (size 9 to 14) (size 15 to 20)
#    0.000    1.833    3.333    0.500    2.333    8.000 
#    0.000    0.000    0.000    0.000    0.000    0.000 
#    0.000    4.000    0.000    0.000    0.000    0.000 
#
# Total GULP energy -267629.762311 kJ/mol
# GULP energy per Si atom -5575.620048 kJ/mol
# Density = 2.400342 g / cm^3
# Si number density = 24.058174 Si / 1000 Ang^3
#
#
#
# Elastic Constant Matrix: (Units=GPa)
#
#
# Indices 1 2 3 4 5 6 
#
# 1 23.2781 17.1378 5.1157 0.0000 0.0000 0.0000
# 2 17.1378 23.2785 5.1161 0.0000 0.0000 0.0000
# 3 5.1157 5.1161 69.3945 0.0000 0.0000 0.0000
# 4 0.0000 0.0000 0.0000 7.6655 0.0000 0.0000
# 5 0.0000 0.0000 0.0000 0.0000 7.6654 0.0000
# 6 0.0000 0.0000 0.0000 0.0000 0.0000 37.6397
#
#
#
# Elastic Compliance Matrix: (Units=1/GPa)
#
#
# Indices 1 2 3 4 5 6 
#
# 1 0.094033 -0.068819 -0.001858 0.000000 0.000000 0.000000
# 2 -0.068819 0.094032 -0.001859 0.000000 0.000000 0.000000
# 3 -0.001858 -0.001859 0.014684 0.000000 0.000000 0.000000
# 4 0.000000 0.000000 0.000000 0.130455 0.000000 0.000000
# 5 0.000000 0.000000 0.000000 0.000000 0.130456 0.000000
# 6 0.000000 0.000000 0.000000 0.000000 0.000000 0.026568
#
#
# Mechanical properties :
#
#
# Convention : Reuss Voigt Hill
#
# Bulk Modulus (GPa) = 17.33831 18.96558 18.15195
# Shear Modulus (GPa) = 7.63912 16.49957 12.06935
#
# Velocity S-wave (km/s) = 1.78386 2.62166 2.24224
# Velocity P-wave (km/s) = 3.38605 4.13091 3.77689
#
# Compressibility (1/GPa) = 0.05767575
#
# Stress axis : x y z
#
# Youngs Moduli (GPa) = 10.63456 10.63471 68.09931
#
# Poissons Ratio (x) = 0.73187 0.12655
# Poissons Ratio (y) = 0.73186 0.12661
# Poissons Ratio (z) = 0.01976 0.01977
#
# Static dielectric constant tensor:
#      x y z
#    x 1.998710 0.000000 0.000000 
#    y 0.000000 1.998710 0.000000 
#    z 0.000000 0.000000 2.055350 
# 
# From -- ./inp_files/468.got.cif
#   From: 2010.05.17/outbox.cif.g08.bks.cpg/sg113_cif.got.tgz:468.got - 2010.05.20 11:03:00.
