data_PCOD9555062
_publ_section_title
;
Structure prediction by ZEFSAII (Michael W. Deem and Ramdas Pophale) SiO2 
 PCOD9555062
Probable space group: P -4 2 C
;
_chemical_formula_sum "Si O2"
_cell_formula_units_Z 34
_cell_length_a 8.474490
_cell_length_b 8.474490
_cell_length_c 20.564623
_cell_angle_alpha 90.000000
_cell_angle_beta 90.000000
_cell_angle_gamma 90.000000
_cell_volume 1476.889134
_symmetry_space_group_name_H-M "P -4 2 C"
_symmetry_group_IT_number 112
_symmetry_cell_setting 'tetragonal'
loop_
_space_group_symop_operation_xyz
x,y,z
y,-x,-z
-x,-y,z
-y,x,-z
x,-y,1/2-z
-x,y,1/2-z
-y,-x,1/2+z
y,x,1/2+z
loop_
_atom_site_type_symbol
_atom_site_label
_atom_site_fract_x
_atom_site_fract_y
_atom_site_fract_z
Si Si1 0.690548 0.177898 0.238713
Si Si2 0.271476 0.341919 0.132848
Si Si3 0.000000 0.000000 0.500000
Si Si4 0.333826 0.089419 0.506893
Si Si5 0.377093 0.699660 0.106393
O O1 0.500000 0.191895 0.250000
O O2 0.763191 0.294486 0.292737
O O3 0.715833 0.210167 0.162976
O O4 0.740780 0.000000 0.250000
O O5 0.130155 0.311742 0.082896
O O6 0.327105 0.521709 0.121875
O O7 0.437673 0.258122 0.115098
O O8 0.816617 0.000931 0.476736
O O9 0.339033 0.251756 0.466438
O O10 0.500000 0.000000 0.499195
#
# Coordination Sequence:
#
# PCOD9555062 Si02
#       5
#     8   8   2   8   8
#     4   9  19  32  59  96 136 179 231 291 356 429
#     4  10  20  38  61 100 135 179 235 290 358 431
#     4  12  28  44  68  98 140 176 232 278 360 416
#     4  12  26  43  68  99 139 186 236 298 364 443
#     4  10  20  36  65  96 138 180 231 295 358 430
#
# _framework density 23.021362
#
# number of rings (size 3 to 8) (size 9 to 14) (size 15 to 20)
#    0.000    1.647    0.000    4.941    9.882    4.706 
#    0.000    0.000    0.000   11.294    0.000    0.000 
#    0.000    0.000    0.000    0.000    0.000    0.000 
#
# Total GULP energy -189452.820930 kJ/mol
# GULP energy per Si atom -5572.141792 kJ/mol
# Density = 2.296896 g / cm^3
# Si number density = 23.021362 Si / 1000 Ang^3
#
#
#
# Elastic Constant Matrix: (Units=GPa)
#
#
# Indices 1 2 3 4 5 6 
#
# 1 77.4351 16.7257 26.4395 0.0000 0.0000 0.0000
# 2 16.7257 77.4351 26.4395 0.0000 0.0000 0.0000
# 3 26.4395 26.4395 101.9669 0.0000 0.0000 0.0000
# 4 0.0000 0.0000 0.0000 20.8877 0.0000 0.0000
# 5 0.0000 0.0000 0.0000 0.0000 20.8877 0.0000
# 6 0.0000 0.0000 0.0000 0.0000 0.0000 13.8771
#
#
#
# Elastic Compliance Matrix: (Units=1/GPa)
#
#
# Indices 1 2 3 4 5 6 
#
# 1 0.014451 -0.002021 -0.003223 0.000000 0.000000 0.000000
# 2 -0.002021 0.014451 -0.003223 0.000000 0.000000 0.000000
# 3 -0.003223 -0.003223 0.011479 0.000000 0.000000 0.000000
# 4 0.000000 0.000000 0.000000 0.047875 0.000000 0.000000
# 5 0.000000 0.000000 0.000000 0.000000 0.047875 0.000000
# 6 0.000000 0.000000 0.000000 0.000000 0.000000 0.072061
#
#
# Mechanical properties :
#
#
# Convention : Reuss Voigt Hill
#
# Bulk Modulus (GPa) = 42.65015 44.00514 43.32764
# Shear Modulus (GPa) = 21.46458 23.61264 22.53861
#
# Velocity S-wave (km/s) = 3.05680 3.20610 3.13234
# Velocity P-wave (km/s) = 5.57003 5.73253 5.65186
#
# Compressibility (1/GPa) = 0.02344658
#
# Stress axis : x y z
#
# Youngs Moduli (GPa) = 69.19919 69.19919 87.11901
#
# Poissons Ratio (x) = 0.13984 0.28079
# Poissons Ratio (y) = 0.13984 0.28079
# Poissons Ratio (z) = 0.22303 0.22303
#
# Static dielectric constant tensor:
#      x y z
#    x 1.923460 0.000000 0.000000 
#    y 0.000000 1.923460 0.000000 
#    z 0.000000 0.000000 1.830230 
# 
# From -- ./inp_files/4675.got.cif
#   From: 2010.05.17/outbox.cif.g08.bks.cpg/sg112_3_cif.got.tgz:4675.got - 2010.05.20 10:59:04.
