data_PCOD9555440
_publ_section_title
;
Structure prediction by ZEFSAII (Michael W. Deem and Ramdas Pophale) SiO2 
 PCOD9555440
Probable space group: P -4 21 M 
;
_chemical_formula_sum "Si O2"
_cell_formula_units_Z 64
_cell_length_a 17.071542
_cell_length_b 17.071542
_cell_length_c 12.844714
_cell_angle_alpha 90.000000
_cell_angle_beta 90.000000
_cell_angle_gamma 90.000000
_cell_volume 3743.431931
_symmetry_space_group_name_H-M "P -4 21 M "
_symmetry_group_IT_number 113
_symmetry_cell_setting 'tetragonal'
loop_
_space_group_symop_operation_xyz
x,y,z
y,-x,-z
-x,-y,z
-y,x,-z
1/2+x,1/2-y,-z
1/2-x,1/2+y,-z
1/2-y,1/2-x,z
1/2+y,1/2+x,z
loop_
_atom_site_type_symbol
_atom_site_label
_atom_site_fract_x
_atom_site_fract_y
_atom_site_fract_z
Si Si1 0.857472 0.774804 0.306466
Si Si2 0.698224 0.667393 0.875501
Si Si3 0.890729 0.743673 0.663714
Si Si4 0.161731 0.794516 0.499471
Si Si5 0.897525 0.735481 0.081521
Si Si6 0.700567 0.926958 0.853403
Si Si7 0.524292 0.784101 0.618277
Si Si8 0.125574 0.506309 0.584529
O O1 0.800009 0.699992 0.319451
O O2 0.819526 0.840600 0.379988
O O3 0.870666 0.784634 0.183553
O O4 0.941427 0.753116 0.353229
O O5 0.766790 0.733211 0.873114
O O6 0.708324 0.617668 0.770139
O O7 0.619434 0.718658 0.875776
O O8 0.714605 0.616298 0.977593
O O9 0.826269 0.673732 0.669471
O O10 0.862461 0.795760 0.566794
O O11 0.973338 0.701956 0.642420
O O12 0.217933 0.717933 0.490217
O O13 0.081108 0.773813 0.444475
O O14 0.839821 0.660180 0.077061
O O15 0.986454 0.706484 0.098097
O O16 0.627910 0.872091 0.888510
O O17 0.694104 0.937045 0.728322
O O18 0.511076 0.854491 0.537689
O O19 0.089153 0.589153 0.618642
O O20 0.058635 0.441366 0.599707
#
# Coordination Sequence:
#
# PCOD9555440 Si02
#       8
#     8   8   8   8   8   8   8   8
#     4   9  18  32  49  72 106 139 163 202 263 313
#     4   9  17  33  54  72  95 134 181 214 240 290
#     4   9  16  29  48  68  94 134 174 207 240 286
#     4  10  17  28  47  71  97 130 171 209 241 287
#     4   9  19  34  52  75 104 136 166 205 261 311
#     4  10  19  31  51  79 104 129 169 215 252 297
#     4  11  18  28  49  77 104 132 173 209 247 302
#     4  10  19  29  43  71 111 142 163 200 261 320
#
# _framework density 17.096610999999999
#
# number of rings (size 3 to 8) (size 9 to 14) (size 15 to 20)
#    0.000    2.375    2.500    1.500    0.000    0.750 
#    0.000    1.875    0.000    4.500    0.000    3.500 
#    0.000    0.000    0.000    0.000    0.000    0.000 
#
# Total GULP energy -356483.705435 kJ/mol
# GULP energy per Si atom -5570.057897 kJ/mol
# Density = 1.705770 g / cm^3
# Si number density = 17.096611 Si / 1000 Ang^3
#
#
#
# Elastic Constant Matrix: (Units=GPa)
#
#
# Indices 1 2 3 4 5 6 
#
# 1 26.4133 12.8866 24.7218 0.0000 0.0000 0.0000
# 2 12.8866 26.4128 24.7218 0.0000 0.0000 0.0000
# 3 24.7218 24.7218 97.4319 0.0000 0.0000 0.0000
# 4 0.0000 0.0000 0.0000 20.9035 0.0000 0.0000
# 5 0.0000 0.0000 0.0000 0.0000 20.9041 0.0000
# 6 0.0000 0.0000 0.0000 0.0000 0.0000 13.3378
#
#
#
# Elastic Compliance Matrix: (Units=1/GPa)
#
#
# Indices 1 2 3 4 5 6 
#
# 1 0.055653 -0.018276 -0.009484 0.000000 0.000000 0.000000
# 2 -0.018276 0.055654 -0.009484 0.000000 0.000000 0.000000
# 3 -0.009484 -0.009484 0.015076 0.000000 0.000000 0.000000
# 4 0.000000 0.000000 0.000000 0.047839 0.000000 0.000000
# 5 0.000000 0.000000 0.000000 0.000000 0.047838 0.000000
# 6 0.000000 0.000000 0.000000 0.000000 0.000000 0.074975
#
#
# Mechanical properties :
#
#
# Convention : Reuss Voigt Hill
#
# Bulk Modulus (GPa) = 19.26947 30.54651 24.90799
# Shear Modulus (GPa) = 12.85939 16.89091 14.87515
#
# Velocity S-wave (km/s) = 2.74553 3.14661 2.95289
# Velocity P-wave (km/s) = 4.62017 5.57739 5.12119
#
# Compressibility (1/GPa) = 0.05189555
#
# Stress axis : x y z
#
# Youngs Moduli (GPa) = 17.96858 17.96812 66.32886
#
# Poissons Ratio (x) = 0.32838 0.62905
# Poissons Ratio (y) = 0.32839 0.62907
# Poissons Ratio (z) = 0.17041 0.17041
#
# Static dielectric constant tensor:
#      x y z
#    x 1.583460 0.000000 0.000000 
#    y 0.000000 1.583460 0.000000 
#    z 0.000000 0.000000 1.591630 
# 
# From -- ./inp_files/2025.got.cif
#   From: 2010.05.17/outbox.cif.g08.bks.cpg/sg113_cif.got.tgz:2025.got - 2010.05.20 11:03:00.
