data_PCOD9555285
_publ_section_title
;
Structure prediction by ZEFSAII (Michael W. Deem and Ramdas Pophale) SiO2 
 PCOD9555285
Probable space group: P -4 2 C
;
_chemical_formula_sum "Si O2"
_cell_formula_units_Z 16
_cell_length_a 5.092014
_cell_length_b 5.092014
_cell_length_c 25.169720
_cell_angle_alpha 90.000000
_cell_angle_beta 90.000000
_cell_angle_gamma 90.000000
_cell_volume 652.615768
_symmetry_space_group_name_H-M "P -4 2 C"
_symmetry_group_IT_number 112
_symmetry_cell_setting 'tetragonal'
loop_
_space_group_symop_operation_xyz
x,y,z
y,-x,-z
-x,-y,z
-y,x,-z
x,-y,1/2-z
-x,y,1/2-z
-y,-x,1/2+z
y,x,1/2+z
loop_
_atom_site_type_symbol
_atom_site_label
_atom_site_fract_x
_atom_site_fract_y
_atom_site_fract_z
Si Si1 0.000000 0.500000 0.250000
Si Si2 0.174934 0.759907 0.837636
Si Si3 0.000000 0.500000 0.432507
Si Si4 0.500000 0.500000 0.500000
O O1 0.784784 0.607413 0.207123
O O2 0.293941 0.852763 0.893830
O O3 0.000000 0.500000 0.841371
O O4 0.000000 0.000000 0.818419
O O5 0.245432 0.399069 0.467238
#
# Coordination Sequence:
#
# PCOD9555285 Si02
#       4
#     2   8   4   2
#     4  10  26  46  72 120 152 202 266 312 400 474
#     4  11  25  47  76 109 156 204 255 326 392 477
#     4  11  28  47  76 116 152 203 268 323 400 482
#     4  12  28  48  80 114 160 212 268 336 404 478
#
# _framework density 24.516725999999998
#
# number of rings (size 3 to 8) (size 9 to 14) (size 15 to 20)
#    0.000    1.000    0.000    3.750   10.500   12.000 
#    0.000    0.000    0.000    0.000    0.000    0.000 
#    0.000    0.000    0.000    0.000    0.000    0.000 
#
# Total GULP energy -89227.768013 kJ/mol
# GULP energy per Si atom -5576.735501 kJ/mol
# Density = 2.446092 g / cm^3
# Si number density = 24.516726 Si / 1000 Ang^3
#
#
#
# Elastic Constant Matrix: (Units=GPa)
#
#
# Indices 1 2 3 4 5 6 
#
# 1 144.2916 55.3178 53.1644 0.0000 0.0000 0.0000
# 2 55.3178 144.2916 53.1644 0.0000 0.0000 0.0000
# 3 53.1644 53.1644 135.0182 0.0000 0.0000 0.0000
# 4 0.0000 0.0000 0.0000 12.0310 0.0000 0.0000
# 5 0.0000 0.0000 0.0000 0.0000 12.0310 0.0000
# 6 0.0000 0.0000 0.0000 0.0000 0.0000 56.1377
#
#
#
# Elastic Compliance Matrix: (Units=1/GPa)
#
#
# Indices 1 2 3 4 5 6 
#
# 1 0.008789 -0.002450 -0.002496 0.000000 0.000000 0.000000
# 2 -0.002450 0.008789 -0.002496 0.000000 0.000000 0.000000
# 3 -0.002496 -0.002496 0.009372 0.000000 0.000000 0.000000
# 4 0.000000 0.000000 0.000000 0.083119 0.000000 0.000000
# 5 0.000000 0.000000 0.000000 0.000000 0.083119 0.000000
# 6 0.000000 0.000000 0.000000 0.000000 0.000000 0.017813
#
#
# Mechanical properties :
#
#
# Convention : Reuss Voigt Hill
#
# Bulk Modulus (GPa) = 82.87539 82.98830 82.93185
# Shear Modulus (GPa) = 21.74778 33.50360 27.62569
#
# Velocity S-wave (km/s) = 2.98158 3.70071 3.36044
# Velocity P-wave (km/s) = 6.76241 7.22382 6.99692
#
# Compressibility (1/GPa) = 0.01206631
#
# Stress axis : x y z
#
# Youngs Moduli (GPa) = 113.77383 113.77383 106.69831
#
# Poissons Ratio (x) = 0.27873 0.26634
# Poissons Ratio (y) = 0.27873 0.26634
# Poissons Ratio (z) = 0.28400 0.28400
#
# Static dielectric constant tensor:
#      x y z
#    x 1.848340 0.000000 0.000000 
#    y 0.000000 1.848340 0.000000 
#    z 0.000000 0.000000 2.028370 
# 
# From -- ./inp_files/4297.got.cif
#   From: 2010.05.17/outbox.cif.g08.bks.cpg/sg112_3_cif.got.tgz:4297.got - 2010.05.20 10:59:04.
