data_PCOD9555048
_publ_section_title
;
Structure prediction by ZEFSAII (Michael W. Deem and Ramdas Pophale) SiO2 
 PCOD9555048
Probable space group: P -4 2 C
;
_chemical_formula_sum "Si O2"
_cell_formula_units_Z 26
_cell_length_a 7.445039
_cell_length_b 7.445039
_cell_length_c 21.596377
_cell_angle_alpha 90.000000
_cell_angle_beta 90.000000
_cell_angle_gamma 90.000000
_cell_volume 1197.057066
_symmetry_space_group_name_H-M "P -4 2 C"
_symmetry_group_IT_number 112
_symmetry_cell_setting 'tetragonal'
loop_
_space_group_symop_operation_xyz
x,y,z
y,-x,-z
-x,-y,z
-y,x,-z
x,-y,1/2-z
-x,y,1/2-z
-y,-x,1/2+z
y,x,1/2+z
loop_
_atom_site_type_symbol
_atom_site_label
_atom_site_fract_x
_atom_site_fract_y
_atom_site_fract_z
Si Si1 0.785180 0.011669 0.653981
Si Si2 0.304717 0.188107 0.444458
Si Si3 0.240420 0.317002 0.578785
Si Si4 0.500000 0.000000 0.750000
O O1 0.761237 0.123051 0.590505
O O2 0.725768 0.810462 0.636534
O O3 0.648197 0.090394 0.704350
O O4 0.000000 0.000000 0.669822
O O5 0.326563 0.244324 0.515582
O O6 0.474655 0.274789 0.410339
O O7 0.306668 0.972977 0.437114
#
# Coordination Sequence:
#
# PCOD9555048 Si02
#       4
#     8   8   8   2
#     4  10  23  43  63  88 127 167 209 262 309 361
#     4  10  20  35  61  94 128 160 200 258 322 375
#     4  10  20  35  61  94 128 160 200 258 322 375
#     4  12  26  44  70  86 124 182 226 242 294 406
#
# _framework density 21.719932
#
# number of rings (size 3 to 8) (size 9 to 14) (size 15 to 20)
#    0.000    1.846    3.077    0.462    4.308    0.615 
#    0.000    3.077    0.000    7.385    0.000    0.000 
#    0.000    0.000    0.000    0.000    0.000    0.000 
#
# Total GULP energy -144899.390379 kJ/mol
# GULP energy per Si atom -5573.053476 kJ/mol
# Density = 2.167050 g / cm^3
# Si number density = 21.719932 Si / 1000 Ang^3
#
#
#
# Elastic Constant Matrix: (Units=GPa)
#
#
# Indices 1 2 3 4 5 6 
#
# 1 85.5622 7.8551 13.0942 0.0000 0.0000 0.0000
# 2 7.8551 85.5622 13.0942 0.0000 0.0000 0.0000
# 3 13.0942 13.0942 53.8936 0.0000 0.0000 0.0000
# 4 0.0000 0.0000 0.0000 7.1710 0.0000 0.0000
# 5 0.0000 0.0000 0.0000 0.0000 7.1710 0.0000
# 6 0.0000 0.0000 0.0000 0.0000 0.0000 0.2678
#
#
#
# Elastic Compliance Matrix: (Units=1/GPa)
#
#
# Indices 1 2 3 4 5 6 
#
# 1 0.012178 -0.000691 -0.002791 0.000000 0.000000 0.000000
# 2 -0.000691 0.012178 -0.002791 0.000000 0.000000 0.000000
# 3 -0.002791 -0.002791 0.019911 0.000000 0.000000 0.000000
# 4 0.000000 0.000000 0.000000 0.139451 0.000000 0.000000
# 5 0.000000 0.000000 0.000000 0.000000 0.139451 0.000000
# 6 0.000000 0.000000 0.000000 0.000000 0.000000 3.733654
#
#
# Mechanical properties :
#
#
# Convention : Reuss Voigt Hill
#
# Bulk Modulus (GPa) = 31.52422 32.56722 32.04572
# Shear Modulus (GPa) = 1.22551 15.65359 8.43955
#
# Velocity S-wave (km/s) = 0.75197 2.68750 1.97334
# Velocity P-wave (km/s) = 3.91145 4.96557 4.46969
#
# Compressibility (1/GPa) = 0.03172164
#
# Stress axis : x y z
#
# Youngs Moduli (GPa) = 82.11562 82.11562 50.22276
#
# Poissons Ratio (x) = 0.05673 0.14017
# Poissons Ratio (y) = 0.05673 0.14017
# Poissons Ratio (z) = 0.22918 0.22918
#
# Static dielectric constant tensor:
#      x y z
#    x 1.835620 0.000000 0.000000 
#    y 0.000000 1.835620 0.000000 
#    z 0.000000 0.000000 1.763630 
# 
# From -- ./inp_files/3815.got.cif
#   From: 2010.05.17/outbox.cif.g08.bks.cpg/sg112_2_cif.got.tgz:3815.got - 2010.05.20 10:59:04.
