data_PCOD9555576
_publ_section_title
;
Structure prediction by ZEFSAII (Michael W. Deem and Ramdas Pophale) SiO2 
 PCOD9555576
Probable space group: P -4 21 M 
;
_chemical_formula_sum "Si O2"
_cell_formula_units_Z 48
_cell_length_a 15.511430
_cell_length_b 15.511430
_cell_length_c 11.856163
_cell_angle_alpha 90.000000
_cell_angle_beta 90.000000
_cell_angle_gamma 90.000000
_cell_volume 2852.645704
_symmetry_space_group_name_H-M "P -4 21 M "
_symmetry_group_IT_number 113
_symmetry_cell_setting 'tetragonal'
loop_
_space_group_symop_operation_xyz
x,y,z
y,-x,-z
-x,-y,z
-y,x,-z
1/2+x,1/2-y,-z
1/2-x,1/2+y,-z
1/2-y,1/2-x,z
1/2+y,1/2+x,z
loop_
_atom_site_type_symbol
_atom_site_label
_atom_site_fract_x
_atom_site_fract_y
_atom_site_fract_z
Si Si1 0.064889 0.081199 0.129077
Si Si2 0.223567 0.016822 0.712027
Si Si3 0.998064 0.356981 0.096367
Si Si4 0.151764 0.207100 0.708726
Si Si5 0.292695 0.465328 0.921161
Si Si6 0.859795 0.030981 0.488952
O O1 0.029930 0.145259 0.222871
O O2 0.160374 0.043949 0.143029
O O3 0.063734 0.134923 0.012491
O O4 0.000000 0.000000 0.130192
O O5 0.307895 0.996178 0.784094
O O6 0.212076 0.985333 0.584415
O O7 0.206939 0.119186 0.718542
O O8 0.075238 0.424763 0.086648
O O9 0.909396 0.409396 0.089323
O O10 0.006535 0.287975 0.995887
O O11 0.213950 0.286051 0.675866
O O12 0.107701 0.225355 0.829506
O O13 0.077593 0.182621 0.618332
O O14 0.938439 0.093395 0.530689
#
# Coordination Sequence:
#
# PCOD9555576 Si02
#       6
#     8   8   8   8   8   8
#     4  11  17  29  52  82 109 136 157 207 271 331
#     4  10  20  33  55  78 103 137 176 218 267 323
#     4  10  22  38  53  71 102 146 187 221 258 307
#     4  11  21  32  51  79 110 137 173 220 265 318
#     4  11  18  31  52  80 107 137 172 209 270 323
#     4   9  19  34  53  78 103 136 171 215 272 330
#
# _framework density 16.826485000000002
#
# number of rings (size 3 to 8) (size 9 to 14) (size 15 to 20)
#    0.000    1.667    3.333    3.000    2.333    0.667 
#    0.000    3.333    0.000    9.000    0.000    2.333 
#    0.000    0.000    0.000    0.000    0.000    0.000 
#
# Total GULP energy -267624.245242 kJ/mol
# GULP energy per Si atom -5575.505109 kJ/mol
# Density = 1.678819 g / cm^3
# Si number density = 16.826485 Si / 1000 Ang^3
#
#
#
# Elastic Constant Matrix: (Units=GPa)
#
#
# Indices 1 2 3 4 5 6 
#
# 1 78.6520 30.8071 27.6138 0.0000 0.0000 0.0000
# 2 30.8071 78.6472 27.6129 0.0000 0.0000 0.0000
# 3 27.6138 27.6129 63.7806 0.0000 0.0000 0.0000
# 4 0.0000 0.0000 0.0000 15.2644 0.0000 0.0000
# 5 0.0000 0.0000 0.0000 0.0000 15.2636 0.0000
# 6 0.0000 0.0000 0.0000 0.0000 0.0000 20.7266
#
#
#
# Elastic Compliance Matrix: (Units=1/GPa)
#
#
# Indices 1 2 3 4 5 6 
#
# 1 0.016295 -0.004606 -0.005061 0.000000 0.000000 0.000000
# 2 -0.004606 0.016296 -0.005061 0.000000 0.000000 0.000000
# 3 -0.005061 -0.005061 0.020061 0.000000 0.000000 0.000000
# 4 0.000000 0.000000 0.000000 0.065512 0.000000 0.000000
# 5 0.000000 0.000000 0.000000 0.000000 0.065515 0.000000
# 6 0.000000 0.000000 0.000000 0.000000 0.000000 0.048247
#
#
# Mechanical properties :
#
#
# Convention : Reuss Voigt Hill
#
# Bulk Modulus (GPa) = 43.11018 43.68304 43.39661
# Shear Modulus (GPa) = 18.57943 19.25399 18.91671
#
# Velocity S-wave (km/s) = 3.32652 3.38637 3.35658
# Velocity P-wave (km/s) = 6.35849 6.42707 6.39287
#
# Compressibility (1/GPa) = 0.02319638
#
# Stress axis : x y z
#
# Youngs Moduli (GPa) = 61.36771 61.36394 49.84823
#
# Poissons Ratio (x) = 0.28265 0.25227
# Poissons Ratio (y) = 0.28267 0.25228
# Poissons Ratio (z) = 0.31057 0.31056
#
# Static dielectric constant tensor:
#      x y z
#    x 1.565740 0.000000 0.000000 
#    y 0.000000 1.565740 0.000000 
#    z 0.000000 0.000000 1.586750 
# 
# From -- ./inp_files/1835.got.cif
#   From: 2010.05.17/outbox.cif.g08.bks.cpg/sg113_cif.got.tgz:1835.got - 2010.05.20 11:03:00.
