data_PCOD9555586
_publ_section_title
;
Structure prediction by ZEFSAII (Michael W. Deem and Ramdas Pophale) SiO2 
 PCOD9555586
Probable space group: P -4 21 M 
;
_chemical_formula_sum "Si O2"
_cell_formula_units_Z 22
_cell_length_a 8.993671
_cell_length_b 8.993671
_cell_length_c 15.371055
_cell_angle_alpha 90.000000
_cell_angle_beta 90.000000
_cell_angle_gamma 90.000000
_cell_volume 1243.304969
_symmetry_space_group_name_H-M "P -4 21 M "
_symmetry_group_IT_number 113
_symmetry_cell_setting 'tetragonal'
loop_
_space_group_symop_operation_xyz
x,y,z
y,-x,-z
-x,-y,z
-y,x,-z
1/2+x,1/2-y,-z
1/2-x,1/2+y,-z
1/2-y,1/2-x,z
1/2+y,1/2+x,z
loop_
_atom_site_type_symbol
_atom_site_label
_atom_site_fract_x
_atom_site_fract_y
_atom_site_fract_z
Si Si1 0.750348 0.499366 0.645943
Si Si2 0.500000 0.500000 0.790936
Si Si3 0.500000 0.500000 0.500000
Si Si4 0.799178 0.062340 0.949637
O O1 0.860102 0.639899 0.641820
O O2 0.643562 0.509801 0.729602
O O3 0.643555 0.494542 0.562188
O O4 0.853471 0.353471 0.650442
O O5 0.483972 0.641464 0.854880
O O6 0.641121 0.141121 0.949172
O O7 0.921256 0.179219 0.987561
#
# Coordination Sequence:
#
# PCOD9555586 Si02
#       4
#     8   4   2   8
#     4  10  20  34  54  77 101 133 169 204 248 301
#     4   9  19  33  51  74 104 132 165 211 253 293
#     4  10  20  36  54  76 106 132 162 208 252 294
#     4   9  19  34  51  73 101 133 170 211 252 295
#
# _framework density 17.694773000000001
#
# number of rings (size 3 to 8) (size 9 to 14) (size 15 to 20)
#    0.000    2.909    0.000    2.182    0.000    6.545 
#    0.000    0.000    0.000   20.727    0.000    0.000 
#    0.000    0.000    0.000    0.000    0.000    0.000 
#
# Total GULP energy -122689.843638 kJ/mol
# GULP energy per Si atom -5576.811074 kJ/mol
# Density = 1.765450 g / cm^3
# Si number density = 17.694773 Si / 1000 Ang^3
#
#
#
# Elastic Constant Matrix: (Units=GPa)
#
#
# Indices 1 2 3 4 5 6 
#
# 1 103.5045 64.4895 58.9074 0.0000 0.0000 0.0000
# 2 64.4895 103.5042 58.9074 0.0000 0.0000 0.0000
# 3 58.9074 58.9074 141.4582 0.0000 0.0000 0.0000
# 4 0.0000 0.0000 0.0000 -0.0693 0.0000 0.0000
# 5 0.0000 0.0000 0.0000 0.0000 -0.0694 0.0000
# 6 0.0000 0.0000 0.0000 0.0000 0.0000 36.4614
#
#
#
# Elastic Compliance Matrix: (Units=1/GPa)
#
#
# Indices 1 2 3 4 5 6 
#
# 1 0.017020 -0.008612 -0.003501 0.000000 0.000000 0.000000
# 2 -0.008612 0.017020 -0.003501 0.000000 0.000000 0.000000
# 3 -0.003501 -0.003501 0.009985 0.000000 0.000000 0.000000
# 4 0.000000 0.000000 0.000000-14.423181 0.000000 0.000000
# 5 0.000000 0.000000 0.000000 0.000000-14.414810 0.000000
# 6 0.000000 0.000000 0.000000 0.000000 0.000000 0.027426
#
#
# Mechanical properties :
#
#
# Convention : Reuss Voigt Hill
#
# Bulk Modulus (GPa) = 78.14889 79.23060 78.68975
# Shear Modulus (GPa) = -0.17403 18.34205 9.08401
#
# Velocity S-wave (km/s) = -0.31395 3.22309 2.26823
# Velocity P-wave (km/s) = 6.64300 7.66319 7.17126
#
# Compressibility (1/GPa) = 0.01279609
#
# Stress axis : x y z
#
# Youngs Moduli (GPa) = 58.75552 58.75528 100.14622
#
# Poissons Ratio (x) = 0.50598 0.35065
# Poissons Ratio (y) = 0.50598 0.35065
# Poissons Ratio (z) = 0.20573 0.20573
#
# Static dielectric constant tensor:
#      x y z
#    x 1.596080 0.000000 0.000000 
#    y 0.000000 1.596090 0.000000 
#    z 0.000000 0.000000 1.581900 
# 
# From -- ./inp_files/2077.got.cif
#   From: 2010.05.17/outbox.cif.g08.bks.cpg/sg113_cif.got.tgz:2077.got - 2010.05.20 11:03:00.
