data_PCOD9555798
_publ_section_title
;
Structure prediction by ZEFSAII (Michael W. Deem and Ramdas Pophale) SiO2 
 PCOD9555798
Probable space group: P -4 21 M 
;
_chemical_formula_sum "Si O2"
_cell_formula_units_Z 40
_cell_length_a 9.592584
_cell_length_b 9.592584
_cell_length_c 16.950213
_cell_angle_alpha 90.000000
_cell_angle_beta 90.000000
_cell_angle_gamma 90.000000
_cell_volume 1559.719069
_symmetry_space_group_name_H-M "P -4 21 M "
_symmetry_group_IT_number 113
_symmetry_cell_setting 'tetragonal'
loop_
_space_group_symop_operation_xyz
x,y,z
y,-x,-z
-x,-y,z
-y,x,-z
1/2+x,1/2-y,-z
1/2-x,1/2+y,-z
1/2-y,1/2-x,z
1/2+y,1/2+x,z
loop_
_atom_site_type_symbol
_atom_site_label
_atom_site_fract_x
_atom_site_fract_y
_atom_site_fract_z
Si Si1 0.931787 0.190799 0.120260
Si Si2 0.006066 0.266081 0.459221
Si Si3 0.727297 0.993526 0.051539
Si Si4 0.767571 0.491022 0.633718
Si Si5 0.313339 0.574014 0.290401
O O1 0.812247 0.312247 0.121762
O O2 0.851112 0.045021 0.106923
O O3 0.999923 0.196222 0.206261
O O4 0.010811 0.222966 0.039180
O O5 0.147602 0.352399 0.462632
O O6 0.878711 0.378711 0.459324
O O7 0.992157 0.198729 0.546007
O O8 0.004033 0.197573 0.373453
O O9 0.604182 0.104182 0.064203
O O10 0.657541 0.842460 0.062917
O O11 0.847924 0.347924 0.648975
O O12 0.664089 0.545921 0.700109
O O13 0.889889 0.610112 0.629574
O O14 0.185051 0.685051 0.291557
#
# Coordination Sequence:
#
# PCOD9555798 Si02
#       5
#     8   8   8   8   8
#     4   9  18  31  49  75 101 130 169 205 249 304
#     4   8  14  25  42  66  97 132 165 197 240 289
#     4   9  18  33  52  74 102 133 164 203 250 300
#     4   8  14  25  42  66  97 132 165 197 240 289
#     4   9  16  26  45  73  98 123 163 208 242 284
#
# _framework density 25.645644000000001
#
# number of rings (size 3 to 8) (size 9 to 14) (size 15 to 20)
#    0.000    3.400    0.000    1.200    0.000    2.000 
#    0.000    8.000    0.000    5.400    0.000    8.400 
#    0.000    0.000    0.000    0.000    0.000    0.000 
#
# Total GULP energy -223600.976209 kJ/mol
# GULP energy per Si atom -5590.024405 kJ/mol
# Density = 2.558727 g / cm^3
# Si number density = 25.645644 Si / 1000 Ang^3
#
#
#
# Elastic Constant Matrix: (Units=GPa)
#
#
# Indices 1 2 3 4 5 6 
#
# 1 48.5462 4.9354 15.5848 0.0000 0.0000 0.0000
# 2 4.9354 48.5460 15.5862 0.0000 0.0000 0.0000
# 3 15.5848 15.5862 122.6761 0.0000 0.0000 0.0000
# 4 0.0000 0.0000 0.0000 28.8644 0.0000 0.0000
# 5 0.0000 0.0000 0.0000 0.0000 28.8646 0.0000
# 6 0.0000 0.0000 0.0000 0.0000 0.0000 31.0248
#
#
#
# Elastic Compliance Matrix: (Units=1/GPa)
#
#
# Indices 1 2 3 4 5 6 
#
# 1 0.021562 -0.001368 -0.002565 0.000000 0.000000 0.000000
# 2 -0.001368 0.021562 -0.002566 0.000000 0.000000 0.000000
# 3 -0.002565 -0.002566 0.008803 0.000000 0.000000 0.000000
# 4 0.000000 0.000000 0.000000 0.034645 0.000000 0.000000
# 5 0.000000 0.000000 0.000000 0.000000 0.034644 0.000000
# 6 0.000000 0.000000 0.000000 0.000000 0.000000 0.032232
#
#
# Mechanical properties :
#
#
# Convention : Reuss Voigt Hill
#
# Bulk Modulus (GPa) = 25.68836 32.44233 29.06534
# Shear Modulus (GPa) = 27.86709 29.99490 28.93099
#
# Velocity S-wave (km/s) = 3.29997 3.42364 3.36237
# Velocity P-wave (km/s) = 4.95562 5.32035 5.14122
#
# Compressibility (1/GPa) = 0.03892814
#
# Stress axis : x y z
#
# Youngs Moduli (GPa) = 46.37879 46.37816 113.59230
#
# Poissons Ratio (x) = 0.06346 0.29140
# Poissons Ratio (y) = 0.06347 0.29144
# Poissons Ratio (z) = 0.11898 0.11899
#
# Static dielectric constant tensor:
#      x y z
#    x 2.069790 0.000000 0.000000 
#    y 0.000000 2.069790 0.000000 
#    z 0.000000 0.000000 1.917530 
# 
# From -- ./inp_files/2167.got.cif
#   From: 2010.05.17/outbox.cif.g08.bks.cpg/sg113_cif.got.tgz:2167.got - 2010.05.20 11:03:00.
