data_PCOD9555211
_publ_section_title
;
Structure prediction by ZEFSAII (Michael W. Deem and Ramdas Pophale) SiO2 
 PCOD9555211
Probable space group: P -4 2 C
;
_chemical_formula_sum "Si O2"
_cell_formula_units_Z 60
_cell_length_a 11.530289
_cell_length_b 11.530289
_cell_length_c 20.779808
_cell_angle_alpha 90.000000
_cell_angle_beta 90.000000
_cell_angle_gamma 90.000000
_cell_volume 2762.624863
_symmetry_space_group_name_H-M "P -4 2 C"
_symmetry_group_IT_number 112
_symmetry_cell_setting 'tetragonal'
loop_
_space_group_symop_operation_xyz
x,y,z
y,-x,-z
-x,-y,z
-y,x,-z
x,-y,1/2-z
-x,y,1/2-z
-y,-x,1/2+z
y,x,1/2+z
loop_
_atom_site_type_symbol
_atom_site_label
_atom_site_fract_x
_atom_site_fract_y
_atom_site_fract_z
Si Si1 0.000000 0.500000 0.914883
Si Si2 0.998115 0.641450 0.093406
Si Si3 0.591424 0.326156 0.383580
Si Si4 0.340751 0.411897 0.369889
Si Si5 0.730241 0.170152 0.699448
Si Si6 0.782234 0.190799 0.842899
Si Si7 0.816167 0.393982 0.003929
Si Si8 0.273140 0.022385 0.326406
O O1 0.111982 0.512935 0.961265
O O2 0.014530 0.388006 0.869757
O O3 0.068064 0.681808 0.155974
O O4 0.000000 0.500000 0.091952
O O5 0.874512 0.703457 0.104159
O O6 0.074150 0.680430 0.031104
O O7 0.452369 0.330265 0.381743
O O8 0.622670 0.455939 0.363677
O O9 0.670650 0.244098 0.339831
O O10 0.635513 0.285881 0.453951
O O11 0.272858 0.362549 0.309229
O O12 0.253827 0.415382 0.430713
O O13 0.750040 0.142152 0.773268
O O14 0.851583 0.215441 0.670419
O O15 0.920446 0.186927 0.850760
O O16 0.296718 0.000000 0.250000
#
# Coordination Sequence:
#
# PCOD9555211 Si02
#       8
#     4   8   8   8   8   8   8   8
#     4  12  21  40  68  98 127 180 226 276 336 402
#     4  11  24  43  64  96 133 177 234 289 343 410
#     4  11  22  39  63  96 136 172 217 275 341 408
#     4  10  23  40  62  98 135 173 218 275 341 412
#     4  10  23  42  66  95 130 178 228 281 339 413
#     4  11  23  41  67  97 131 178 229 280 345 406
#     4  11  22  39  63  91 125 175 220 269 328 406
#     4  10  23  42  66  99 135 175 228 284 344 412
#
# _framework density 21.718477
#
# number of rings (size 3 to 8) (size 9 to 14) (size 15 to 20)
#    0.000    1.333    2.000    3.800    0.000    5.867 
#    0.000    3.333    0.000    0.000    0.000    0.000 
#    0.000    0.000    0.000    0.000    0.000    0.000 
#
# Total GULP energy -334334.163608 kJ/mol
# GULP energy per Si atom -5572.236060 kJ/mol
# Density = 2.166905 g / cm^3
# Si number density = 21.718477 Si / 1000 Ang^3
#
#
#
# Elastic Constant Matrix: (Units=GPa)
#
#
# Indices 1 2 3 4 5 6 
#
# 1 97.6119 19.9274 10.0668 0.0000 0.0000 0.0000
# 2 19.9274 97.6119 10.0668 0.0000 0.0000 0.0000
# 3 10.0668 10.0668 31.7040 0.0000 0.0000 0.0000
# 4 0.0000 0.0000 0.0000 35.3378 0.0000 0.0000
# 5 0.0000 0.0000 0.0000 0.0000 35.3378 0.0000
# 6 0.0000 0.0000 0.0000 0.0000 0.0000 9.3489
#
#
#
# Elastic Compliance Matrix: (Units=1/GPa)
#
#
# Indices 1 2 3 4 5 6 
#
# 1 0.010935 -0.001938 -0.002857 0.000000 0.000000 0.000000
# 2 -0.001938 0.010935 -0.002857 0.000000 0.000000 0.000000
# 3 -0.002857 -0.002857 0.033356 0.000000 0.000000 0.000000
# 4 0.000000 0.000000 0.000000 0.028298 0.000000 0.000000
# 5 0.000000 0.000000 0.000000 0.000000 0.028298 0.000000
# 6 0.000000 0.000000 0.000000 0.000000 0.000000 0.106964
#
#
# Mechanical properties :
#
#
# Convention : Reuss Voigt Hill
#
# Bulk Modulus (GPa) = 25.04819 34.11663 29.58241
# Shear Modulus (GPa) = 20.21045 28.46268 24.33657
#
# Velocity S-wave (km/s) = 3.05383 3.62405 3.35109
# Velocity P-wave (km/s) = 4.89823 5.76666 5.35009
#
# Compressibility (1/GPa) = 0.03992304
#
# Stress axis : x y z
#
# Youngs Moduli (GPa) = 91.45061 91.45061 29.97964
#
# Poissons Ratio (x) = 0.17721 0.08565
# Poissons Ratio (y) = 0.17721 0.08565
# Poissons Ratio (z) = 0.26126 0.26126
#
# Static dielectric constant tensor:
#      x y z
#    x 1.813310 0.000000 0.000000 
#    y 0.000000 1.813310 0.000000 
#    z 0.000000 0.000000 1.784550 
# 
# From -- ./inp_files/4990.got.cif
#   From: 2010.05.17/outbox.cif.g08.bks.cpg/sg112_3_cif.got.tgz:4990.got - 2010.05.20 10:59:04.
