data_PCOD9555331
_publ_section_title
;
Structure prediction by ZEFSAII (Michael W. Deem and Ramdas Pophale) SiO2 
 PCOD9555331
Probable space group: P -4 2 C
;
_chemical_formula_sum "Si O2"
_cell_formula_units_Z 48
_cell_length_a 17.974615
_cell_length_b 17.974615
_cell_length_c 8.792081
_cell_angle_alpha 90.000000
_cell_angle_beta 90.000000
_cell_angle_gamma 90.000000
_cell_volume 2840.605178
_symmetry_space_group_name_H-M "P -4 2 C"
_symmetry_group_IT_number 112
_symmetry_cell_setting 'tetragonal'
loop_
_space_group_symop_operation_xyz
x,y,z
y,-x,-z
-x,-y,z
-y,x,-z
x,-y,1/2-z
-x,y,1/2-z
-y,-x,1/2+z
y,x,1/2+z
loop_
_atom_site_type_symbol
_atom_site_label
_atom_site_fract_x
_atom_site_fract_y
_atom_site_fract_z
Si Si1 0.587427 0.085710 0.427724
Si Si2 0.915922 0.411510 0.563397
Si Si3 0.167167 0.052871 0.622570
Si Si4 0.054987 0.173037 0.625482
Si Si5 0.279823 0.828222 0.547887
Si Si6 0.716807 0.170707 0.912520
O O1 0.499806 0.093439 0.461371
O O2 0.599166 0.090269 0.245569
O O3 0.636940 0.148886 0.503902
O O4 0.608881 0.001519 0.478290
O O5 0.855932 0.362561 0.473872
O O6 0.108022 0.109561 0.693534
O O7 0.227776 0.103827 0.540189
O O8 0.201850 0.000000 0.750000
O O9 0.134591 0.997852 0.498168
O O10 0.107703 0.230720 0.536549
O O11 0.000000 0.207433 0.750000
O O12 0.275497 0.827394 0.730120
O O13 0.245383 0.751444 0.483992
#
# Coordination Sequence:
#
# PCOD9555331 Si02
#       6
#     8   8   8   8   8   8
#     4   9  19  35  56  83 105 139 171 214 270 319
#     4   9  19  35  57  80 109 136 173 215 265 324
#     4  11  22  37  46  67  90 124 175 219 270 313
#     4  11  24  33  50  66  90 129 170 225 272 318
#     4  11  23  36  53  75 100 137 174 216 267 318
#     4  11  23  36  53  74 102 136 173 219 262 320
#
# _framework density 16.897808000000001
#
# number of rings (size 3 to 8) (size 9 to 14) (size 15 to 20)
#    0.000    1.667    1.667    4.000   11.667    2.667 
#    0.000    1.667    0.000    0.000    0.000    0.000 
#    0.000    0.667    0.000    7.000    0.000    3.000 
#
# Total GULP energy -267768.945983 kJ/mol
# GULP energy per Si atom -5578.519708 kJ/mol
# Density = 1.685935 g / cm^3
# Si number density = 16.897808 Si / 1000 Ang^3
#
#
#
# Elastic Constant Matrix: (Units=GPa)
#
#
# Indices 1 2 3 4 5 6 
#
# 1 69.2913 33.3189 30.7973 0.0000 0.0000 0.0000
# 2 33.3189 69.2913 30.7973 0.0000 0.0000 0.0000
# 3 30.7973 30.7973 65.2891 0.0000 0.0000 0.0000
# 4 0.0000 0.0000 0.0000 25.5946 0.0000 0.0000
# 5 0.0000 0.0000 0.0000 0.0000 25.5946 0.0000
# 6 0.0000 0.0000 0.0000 0.0000 0.0000 27.3641
#
#
#
# Elastic Compliance Matrix: (Units=1/GPa)
#
#
# Indices 1 2 3 4 5 6 
#
# 1 0.020697 -0.007102 -0.006413 0.000000 0.000000 0.000000
# 2 -0.007102 0.020697 -0.006413 0.000000 0.000000 0.000000
# 3 -0.006413 -0.006413 0.021367 0.000000 0.000000 0.000000
# 4 0.000000 0.000000 0.000000 0.039071 0.000000 0.000000
# 5 0.000000 0.000000 0.000000 0.000000 0.039071 0.000000
# 6 0.000000 0.000000 0.000000 0.000000 0.000000 0.036544
#
#
# Mechanical properties :
#
#
# Convention : Reuss Voigt Hill
#
# Bulk Modulus (GPa) = 43.65832 43.74430 43.70131
# Shear Modulus (GPa) = 22.22843 22.97454 22.60148
#
# Velocity S-wave (km/s) = 3.63087 3.69130 3.66121
# Velocity P-wave (km/s) = 6.59320 6.64164 6.61746
#
# Compressibility (1/GPa) = 0.02290514
#
# Stress axis : x y z
#
# Youngs Moduli (GPa) = 48.31590 48.31590 46.80219
#
# Poissons Ratio (x) = 0.34314 0.30014
# Poissons Ratio (y) = 0.34314 0.30014
# Poissons Ratio (z) = 0.30985 0.30985
#
# Static dielectric constant tensor:
#      x y z
#    x 1.579130 0.000000 0.000000 
#    y 0.000000 1.579130 0.000000 
#    z 0.000000 0.000000 1.620040 
# 
# From -- ./inp_files/1439.got.cif
#   From: 2010.05.17/outbox.cif.g08.bks.cpg/sg112_1_cif.got.tgz:1439.got - 2010.05.20 10:59:04.
