data_PCOD9555822
_publ_section_title
;
Structure prediction by ZEFSAII (Michael W. Deem and Ramdas Pophale) SiO2 
 PCOD9555822
Probable space group: P -4 21 C
;
_chemical_formula_sum "Si O2"
_cell_formula_units_Z 40
_cell_length_a 14.357271
_cell_length_b 14.357271
_cell_length_c 9.032367
_cell_angle_alpha 90.000000
_cell_angle_beta 90.000000
_cell_angle_gamma 90.000000
_cell_volume 1861.852925
_symmetry_space_group_name_H-M "P -4 21 C"
_symmetry_group_IT_number 114
_symmetry_cell_setting 'tetragonal'
loop_
_space_group_symop_operation_xyz
x,y,z
y,-x,-z
-x,-y,z
-y,x,-z
1/2+x,1/2-y,1/2-z
1/2-x,1/2+y,1/2-z
1/2-y,1/2-x,1/2+z
1/2+y,1/2+x,1/2+z
loop_
_atom_site_type_symbol
_atom_site_label
_atom_site_fract_x
_atom_site_fract_y
_atom_site_fract_z
Si Si1 0.789468 0.132857 0.714785
Si Si2 0.432992 0.389559 0.248946
Si Si3 0.309799 0.251398 0.090992
Si Si4 0.500000 0.000000 0.377102
Si Si5 0.365217 0.009399 0.625249
Si Si6 0.500000 0.500000 0.500000
Si Si7 0.500000 0.500000 0.000000
O O1 0.785794 0.210937 0.845139
O O2 0.803177 0.188244 0.559663
O O3 0.695861 0.073612 0.691294
O O4 0.857035 0.042421 0.741509
O O5 0.356219 0.311846 0.225055
O O6 0.426301 0.447662 0.397178
O O7 0.423646 0.456003 0.106601
O O8 0.395866 0.180832 0.065000
O O9 0.422270 0.965055 0.490104
O O10 0.541803 0.925998 0.264518
#
# Coordination Sequence:
#
# PCOD9555822 Si02
#       7
#     8   8   8   4   8   2   2
#     4  11  23  39  63  94 128 164 217 267 323 388
#     4  10  22  40  62  88 124 170 204 264 327 383
#     4  11  23  39  63  94 128 164 217 267 323 388
#     4  10  20  42  58  84 122 168 214 260 310 384
#     4  10  22  39  63  89 124 169 211 260 324 373
#     4  10  24  38  60  90 124 158 212 262 316 382
#     4  10  16  42  60  82 112 166 212 242 316 398
#
# _framework density 21.483972999999999
#
# number of rings (size 3 to 8) (size 9 to 14) (size 15 to 20)
#    0.000    1.600    2.000    2.400    2.800    0.000 
#    0.000    4.000    0.000    0.000    0.000    0.000 
#    0.000    0.000    0.000    0.000    0.000    0.000 
#
# Total GULP energy -222679.740740 kJ/mol
# GULP energy per Si atom -5566.993518 kJ/mol
# Density = 2.143507 g / cm^3
# Si number density = 21.483973 Si / 1000 Ang^3
#
#
#
# Elastic Constant Matrix: (Units=GPa)
#
#
# Indices 1 2 3 4 5 6 
#
# 1 40.3396 -12.8297 -2.9761 0.0000 0.0000 0.0000
# 2 -12.8297 40.3396 -2.9761 0.0000 0.0000 0.0000
# 3 -2.9761 -2.9761 89.4419 0.0000 0.0000 0.0000
# 4 0.0000 0.0000 0.0000 21.4221 0.0000 0.0000
# 5 0.0000 0.0000 0.0000 0.0000 21.4221 0.0000
# 6 0.0000 0.0000 0.0000 0.0000 0.0000 23.2402
#
#
#
# Elastic Compliance Matrix: (Units=1/GPa)
#
#
# Indices 1 2 3 4 5 6 
#
# 1 0.027711 0.008903 0.001218 0.000000 0.000000 0.000000
# 2 0.008903 0.027711 0.001218 0.000000 0.000000 0.000000
# 3 0.001218 0.001218 0.011262 0.000000 0.000000 0.000000
# 4 0.000000 0.000000 0.000000 0.046681 0.000000 0.000000
# 5 0.000000 0.000000 0.000000 0.000000 0.046681 0.000000
# 6 0.000000 0.000000 0.000000 0.000000 0.000000 0.043029
#
#
# Mechanical properties :
#
#
# Convention : Reuss Voigt Hill
#
# Bulk Modulus (GPa) = 11.19031 14.72858 12.95945
# Shear Modulus (GPa) = 23.78889 25.81041 24.79965
#
# Velocity S-wave (km/s) = 3.33120 3.46985 3.40123
# Velocity P-wave (km/s) = 4.47391 4.78787 4.63355
#
# Compressibility (1/GPa) = 0.08936301
#
# Stress axis : x y z
#
# Youngs Moduli (GPa) = 36.08679 36.08679 88.79794
#
# Poissons Ratio (x) = -0.32129 -0.10818
# Poissons Ratio (y) = -0.32129 -0.10818
# Poissons Ratio (z) = -0.04397 -0.04397
#
# Static dielectric constant tensor:
#      x y z
#    x 1.842790 0.000000 0.000000 
#    y 0.000000 1.842790 0.000000 
#    z 0.000000 0.000000 1.761350 
# 
# From -- ./inp_files/836.got.cif
#   From: 2010.05.17/outbox.cif.g08.bks.cpg/sg114_1_cif.got.tgz:836.got - 2010.05.20 11:04:54.
