data_PCOD9555218
_publ_section_title
;
Structure prediction by ZEFSAII (Michael W. Deem and Ramdas Pophale) SiO2 
 PCOD9555218
Probable space group: P -4 2 C
;
_chemical_formula_sum "Si O2"
_cell_formula_units_Z 30
_cell_length_a 10.724251
_cell_length_b 10.724251
_cell_length_c 11.467106
_cell_angle_alpha 90.000000
_cell_angle_beta 90.000000
_cell_angle_gamma 90.000000
_cell_volume 1318.826810
_symmetry_space_group_name_H-M "P -4 2 C"
_symmetry_group_IT_number 112
_symmetry_cell_setting 'tetragonal'
loop_
_space_group_symop_operation_xyz
x,y,z
y,-x,-z
-x,-y,z
-y,x,-z
x,-y,1/2-z
-x,y,1/2-z
-y,-x,1/2+z
y,x,1/2+z
loop_
_atom_site_type_symbol
_atom_site_label
_atom_site_fract_x
_atom_site_fract_y
_atom_site_fract_z
Si Si1 0.500000 0.500000 0.500000
Si Si2 0.814322 0.605203 0.934518
Si Si3 0.910843 0.840094 0.056433
Si Si4 0.548983 0.276308 0.625528
Si Si5 0.000000 0.000000 0.250000
Si Si6 0.500000 0.000000 0.250000
O O1 0.459062 0.391729 0.587107
O O2 0.685774 0.660398 0.878115
O O3 0.912142 0.583220 0.832430
O O4 0.857154 0.707242 0.029212
O O5 0.807583 0.477769 0.011831
O O6 0.909507 0.906479 0.180416
O O7 0.058262 0.845448 0.026873
O O8 0.500000 0.229036 0.750000
#
# Coordination Sequence:
#
# PCOD9555218 Si02
#       6
#     2   8   8   8   2   2
#     4   8  18  36  64  98 128 182 232 252 362 436
#     4  11  27  46  72 107 147 196 252 303 387 457
#     4   9  21  41  68 104 140 189 245 293 372 453
#     4  10  23  41  70 104 142 184 234 301 363 446
#     4   8  18  42  72 108 138 204 240 318 378 442
#     4  12  32  50  72 102 152 204 262 324 386 464
#
# _framework density 22.747492000000001
#
# number of rings (size 3 to 8) (size 9 to 14) (size 15 to 20)
#    0.000    2.400    0.000    0.400   14.933    8.533 
#    0.000    0.000    0.000    0.000    0.000    0.000 
#    0.000    0.000    0.000    0.000    0.000    0.000 
#
# Total GULP energy -167025.895215 kJ/mol
# GULP energy per Si atom -5567.529840 kJ/mol
# Density = 2.269572 g / cm^3
# Si number density = 22.747492 Si / 1000 Ang^3
#
#
#
# Elastic Constant Matrix: (Units=GPa)
#
#
# Indices 1 2 3 4 5 6 
#
# 1 90.8140 28.2215 41.8077 0.0000 0.0000 0.0000
# 2 28.2215 90.8140 41.8077 0.0000 0.0000 0.0000
# 3 41.8077 41.8077 138.0283 0.0000 0.0000 0.0000
# 4 0.0000 0.0000 0.0000 27.0450 0.0000 0.0000
# 5 0.0000 0.0000 0.0000 0.0000 27.0450 0.0000
# 6 0.0000 0.0000 0.0000 0.0000 0.0000 30.2621
#
#
#
# Elastic Compliance Matrix: (Units=1/GPa)
#
#
# Indices 1 2 3 4 5 6 
#
# 1 0.013324 -0.002653 -0.003232 0.000000 0.000000 0.000000
# 2 -0.002653 0.013324 -0.003232 0.000000 0.000000 0.000000
# 3 -0.003232 -0.003232 0.009203 0.000000 0.000000 0.000000
# 4 0.000000 0.000000 0.000000 0.036975 0.000000 0.000000
# 5 0.000000 0.000000 0.000000 0.000000 0.036975 0.000000
# 6 0.000000 0.000000 0.000000 0.000000 0.000000 0.033045
#
#
# Mechanical properties :
#
#
# Convention : Reuss Voigt Hill
#
# Bulk Modulus (GPa) = 56.76477 60.36999 58.56738
# Shear Modulus (GPa) = 29.94869 30.72507 30.33688
#
# Velocity S-wave (km/s) = 3.63239 3.67918 3.65586
# Velocity P-wave (km/s) = 6.52693 6.68171 6.60478
#
# Compressibility (1/GPa) = 0.01761656
#
# Stress axis : x y z
#
# Youngs Moduli (GPa) = 75.05349 75.05349 108.66097
#
# Poissons Ratio (x) = 0.19908 0.35122
# Poissons Ratio (y) = 0.19908 0.35122
# Poissons Ratio (z) = 0.24259 0.24259
#
# Static dielectric constant tensor:
#      x y z
#    x 1.883810 0.000000 0.000000 
#    y 0.000000 1.883810 0.000000 
#    z 0.000000 0.000000 1.976300 
# 
# From -- ./inp_files/2182.got.cif
#   From: 2010.05.17/outbox.cif.g08.bks.cpg/sg112_2_cif.got.tgz:2182.got - 2010.05.20 10:59:04.
