data_PCOD9555912
_publ_section_title
;
Structure prediction by ZEFSAII (Michael W. Deem and Ramdas Pophale) SiO2 
 PCOD9555912
Probable space group: P -4 21 C
;
_chemical_formula_sum "Si O2"
_cell_formula_units_Z 40
_cell_length_a 14.451309
_cell_length_b 14.451309
_cell_length_c 9.653906
_cell_angle_alpha 90.000000
_cell_angle_beta 90.000000
_cell_angle_gamma 90.000000
_cell_volume 2016.124932
_symmetry_space_group_name_H-M "P -4 21 C"
_symmetry_group_IT_number 114
_symmetry_cell_setting 'tetragonal'
loop_
_space_group_symop_operation_xyz
x,y,z
y,-x,-z
-x,-y,z
-y,x,-z
1/2+x,1/2-y,1/2-z
1/2-x,1/2+y,1/2-z
1/2-y,1/2-x,1/2+z
1/2+y,1/2+x,1/2+z
loop_
_atom_site_type_symbol
_atom_site_label
_atom_site_fract_x
_atom_site_fract_y
_atom_site_fract_z
Si Si1 0.915606 0.731964 0.517029
Si Si2 0.630432 0.574454 0.498510
Si Si3 0.783995 0.628468 0.709892
Si Si4 0.118996 0.752291 0.472724
Si Si5 0.249397 0.671783 0.680613
O O1 0.872794 0.655585 0.618894
O O2 0.911031 0.694680 0.360181
O O3 0.846551 0.820340 0.522778
O O4 0.020345 0.760207 0.545650
O O5 0.612252 0.469498 0.449885
O O6 0.708824 0.575217 0.616899
O O7 0.661776 0.647333 0.381041
O O8 0.738976 0.728030 0.747365
O O9 0.179341 0.674683 0.552176
O O10 0.105566 0.732083 0.309631
#
# Coordination Sequence:
#
# PCOD9555912 Si02
#       5
#     8   8   8   8   8
#     4  10  21  38  62  89 119 158 199 244 299 349
#     4  11  22  36  62  94 119 150 196 252 307 352
#     4  10  19  39  58  87 122 161 192 238 299 356
#     4  10  21  38  62  89 119 158 199 244 299 349
#     4  10  19  39  58  87 122 161 192 238 299 356
#
# _framework density 19.840039000000001
#
# number of rings (size 3 to 8) (size 9 to 14) (size 15 to 20)
#    0.000    1.800    6.000    1.200    0.000    6.800 
#    0.000    0.000    0.000    9.600    0.000    0.000 
#    0.000    0.000    0.000    0.000    0.000    0.000 
#
# Total GULP energy -222869.245910 kJ/mol
# GULP energy per Si atom -5571.731148 kJ/mol
# Density = 1.979488 g / cm^3
# Si number density = 19.840039 Si / 1000 Ang^3
#
#
#
# Elastic Constant Matrix: (Units=GPa)
#
#
# Indices 1 2 3 4 5 6 
#
# 1 42.4222 21.0638 17.0426 0.0000 0.0000 0.0000
# 2 21.0638 42.4222 17.0426 0.0000 0.0000 0.0000
# 3 17.0426 17.0426 114.6438 0.0000 0.0000 0.0000
# 4 0.0000 0.0000 0.0000 14.9933 0.0000 0.0000
# 5 0.0000 0.0000 0.0000 0.0000 14.9933 0.0000
# 6 0.0000 0.0000 0.0000 0.0000 0.0000 18.5725
#
#
#
# Elastic Compliance Matrix: (Units=1/GPa)
#
#
# Indices 1 2 3 4 5 6 
#
# 1 0.031969 -0.014851 -0.002545 0.000000 0.000000 0.000000
# 2 -0.014851 0.031969 -0.002545 0.000000 0.000000 0.000000
# 3 -0.002545 -0.002545 0.009479 0.000000 0.000000 0.000000
# 4 0.000000 0.000000 0.000000 0.066696 0.000000 0.000000
# 5 0.000000 0.000000 0.000000 0.000000 0.066696 0.000000
# 6 0.000000 0.000000 0.000000 0.000000 0.000000 0.053843
#
#
# Mechanical properties :
#
#
# Convention : Reuss Voigt Hill
#
# Bulk Modulus (GPa) = 29.81869 34.42067 32.11968
# Shear Modulus (GPa) = 16.04044 19.33445 17.68745
#
# Velocity S-wave (km/s) = 2.84648 3.12511 2.98904
# Velocity P-wave (km/s) = 5.08581 5.51439 5.30443
#
# Compressibility (1/GPa) = 0.03353602
#
# Stress axis : x y z
#
# Youngs Moduli (GPa) = 31.28050 31.28050 105.49373
#
# Poissons Ratio (x) = 0.46455 0.26845
# Poissons Ratio (y) = 0.46455 0.26845
# Poissons Ratio (z) = 0.07960 0.07960
#
# Static dielectric constant tensor:
#      x y z
#    x 1.711900 0.000000 0.000000 
#    y 0.000000 1.711900 0.000000 
#    z 0.000000 0.000000 1.751640 
# 
# From -- ./inp_files/784.got.cif
#   From: 2010.05.17/outbox.cif.g08.bks.cpg/sg114_1_cif.got.tgz:784.got - 2010.05.20 11:04:54.
