data_PCOD9555110
_publ_section_title
;
Structure prediction by ZEFSAII (Michael W. Deem and Ramdas Pophale) SiO2 
 PCOD9555110
Probable space group: P -4 2 C
;
_chemical_formula_sum "Si O2"
_cell_formula_units_Z 24
_cell_length_a 9.932980
_cell_length_b 9.932980
_cell_length_c 13.204852
_cell_angle_alpha 90.000000
_cell_angle_beta 90.000000
_cell_angle_gamma 90.000000
_cell_volume 1302.844728
_symmetry_space_group_name_H-M "P -4 2 C"
_symmetry_group_IT_number 112
_symmetry_cell_setting 'tetragonal'
loop_
_space_group_symop_operation_xyz
x,y,z
y,-x,-z
-x,-y,z
-y,x,-z
x,-y,1/2-z
-x,y,1/2-z
-y,-x,1/2+z
y,x,1/2+z
loop_
_atom_site_type_symbol
_atom_site_label
_atom_site_fract_x
_atom_site_fract_y
_atom_site_fract_z
Si Si1 0.000000 0.721247 0.250000
Si Si2 0.611794 0.664640 0.544492
Si Si3 0.111795 0.164640 0.044492
Si Si4 0.500000 0.778755 0.750000
O O1 0.052786 0.806969 0.344109
O O2 0.121617 0.621618 0.216988
O O3 0.671050 0.515512 0.531042
O O4 0.723298 0.776702 0.523032
O O5 0.552785 0.693033 0.655891
O O6 0.984488 0.171051 0.968959
#
# Coordination Sequence:
#
# PCOD9555110 Si02
#       4
#     4   8   8   4
#     4   9  18  35  58  82 112 150 184 218 274 340
#     4  10  21  36  57  84 112 144 184 228 273 324
#     4  10  21  36  57  84 112 144 184 228 273 324
#     4   9  18  35  58  82 112 150 184 218 274 340
#
# _framework density 18.421226000000001
#
# number of rings (size 3 to 8) (size 9 to 14) (size 15 to 20)
#    0.000    2.333    0.000    2.000    0.000    9.333 
#    0.000    0.000    0.000    4.000    0.000   28.000 
#    0.000    0.000    0.000    0.000    0.000    0.000 
#
# Total GULP energy -133938.960222 kJ/mol
# GULP energy per Si atom -5580.790009 kJ/mol
# Density = 1.837930 g / cm^3
# Si number density = 18.421226 Si / 1000 Ang^3
#
#
#
# Elastic Constant Matrix: (Units=GPa)
#
#
# Indices 1 2 3 4 5 6 
#
# 1 112.1687 66.6004 25.3708 0.0000 0.0000 0.0000
# 2 66.6004 112.1687 25.3708 0.0000 0.0000 0.0000
# 3 25.3708 25.3708 15.7225 0.0000 0.0000 0.0000
# 4 0.0000 0.0000 0.0000 34.6392 0.0000 0.0000
# 5 0.0000 0.0000 0.0000 0.0000 34.6392 0.0000
# 6 0.0000 0.0000 0.0000 0.0000 0.0000 36.3110
#
#
#
# Elastic Compliance Matrix: (Units=1/GPa)
#
#
# Indices 1 2 3 4 5 6 
#
# 1 0.016133 -0.005812 -0.016655 0.000000 0.000000 0.000000
# 2 -0.005812 0.016133 -0.016655 0.000000 0.000000 0.000000
# 3 -0.016655 -0.016655 0.117353 0.000000 0.000000 0.000000
# 4 0.000000 0.000000 0.000000 0.028869 0.000000 0.000000
# 5 0.000000 0.000000 0.000000 0.000000 0.028869 0.000000
# 6 0.000000 0.000000 0.000000 0.000000 0.000000 0.027540
#
#
# Mechanical properties :
#
#
# Convention : Reuss Voigt Hill
#
# Bulk Modulus (GPa) = 14.01020 52.74933 33.37977
# Shear Modulus (GPa) = 14.83978 29.29908 22.06943
#
# Velocity S-wave (km/s) = 2.84135 3.99244 3.46503
# Velocity P-wave (km/s) = 4.28793 7.06753 5.84536
#
# Compressibility (1/GPa) = 0.07137656
#
# Stress axis : x y z
#
# Youngs Moduli (GPa) = 61.98451 61.98451 8.52129
#
# Poissons Ratio (x) = 0.36026 0.14192
# Poissons Ratio (y) = 0.36026 0.14192
# Poissons Ratio (z) = 1.03233 1.03233
#
# Static dielectric constant tensor:
#      x y z
#    x 1.636500 0.000000 0.000000 
#    y 0.000000 1.636500 0.000000 
#    z 0.000000 0.000000 1.620400 
# 
# From -- ./inp_files/3042.got.cif
#   From: 2010.05.17/outbox.cif.g08.bks.cpg/sg112_2_cif.got.tgz:3042.got - 2010.05.20 10:59:04.
