data_PCOD9555765
_publ_section_title
;
Structure prediction by ZEFSAII (Michael W. Deem and Ramdas Pophale) SiO2 
 PCOD9555765
Probable space group: P -4 21 M 
;
_chemical_formula_sum "Si O2"
_cell_formula_units_Z 56
_cell_length_a 10.721863
_cell_length_b 10.721863
_cell_length_c 22.431490
_cell_angle_alpha 90.000000
_cell_angle_beta 90.000000
_cell_angle_gamma 90.000000
_cell_volume 2578.686993
_symmetry_space_group_name_H-M "P -4 21 M "
_symmetry_group_IT_number 113
_symmetry_cell_setting 'tetragonal'
loop_
_space_group_symop_operation_xyz
x,y,z
y,-x,-z
-x,-y,z
-y,x,-z
1/2+x,1/2-y,-z
1/2-x,1/2+y,-z
1/2-y,1/2-x,z
1/2+y,1/2+x,z
loop_
_atom_site_type_symbol
_atom_site_label
_atom_site_fract_x
_atom_site_fract_y
_atom_site_fract_z
Si Si1 0.493443 0.209539 0.244012
Si Si2 0.764462 0.068672 0.915937
Si Si3 0.366188 0.667585 0.140985
Si Si4 0.488432 0.704001 0.488959
Si Si5 0.196980 0.493522 0.385389
Si Si6 0.463855 0.228384 0.043111
Si Si7 0.896168 0.812738 0.641096
O O1 0.362131 0.137870 0.239192
O O2 0.528683 0.298821 0.189158
O O3 0.512146 0.288917 0.304119
O O4 0.598829 0.098829 0.243782
O O5 0.651952 0.151952 0.890809
O O6 0.865534 0.162414 0.943721
O O7 0.830826 0.974527 0.870959
O O8 0.717141 0.992119 0.973426
O O9 0.241518 0.741518 0.159112
O O10 0.417052 0.728238 0.079959
O O11 0.614165 0.624266 0.490912
O O12 0.497449 0.800828 0.542338
O O13 0.459006 0.731868 0.420646
O O14 0.142037 0.357964 0.367509
O O15 0.332342 0.549876 0.366293
O O16 0.094552 0.594552 0.365002
O O17 0.398383 0.101618 0.064999
O O18 0.780482 0.719519 0.650806
#
# Coordination Sequence:
#
# PCOD9555765 Si02
#       7
#     8   8   8   8   8   8   8
#     4   9  19  36  57  82 113 150 198 253 301 351
#     4  11  23  38  58  87 122 159 197 244 304 366
#     4  11  22  37  59  87 117 155 199 247 303 362
#     4   9  17  29  48  74 107 142 177 228 295 356
#     4   9  17  29  47  73 105 142 183 229 287 360
#     4  11  22  37  59  86 118 156 196 243 300 360
#     4   9  17  31  52  78 107 144 189 240 295 348
#
# _framework density 21.716479
#
# number of rings (size 3 to 8) (size 9 to 14) (size 15 to 20)
#    0.000    2.143    1.429    2.143    0.000    3.714 
#    0.000    2.143   12.571    2.571    0.000    0.000 
#    0.000    0.000    0.000    0.000    0.000    0.000 
#
# Total GULP energy -312433.700867 kJ/mol
# GULP energy per Si atom -5579.173230 kJ/mol
# Density = 2.166705 g / cm^3
# Si number density = 21.716479 Si / 1000 Ang^3
#
#
#
# Elastic Constant Matrix: (Units=GPa)
#
#
# Indices 1 2 3 4 5 6 
#
# 1 112.2221 23.6498 37.8408 0.0000 0.0000 0.0000
# 2 23.6498 112.2230 37.8380 0.0000 0.0000 0.0000
# 3 37.8408 37.8380 92.7638 0.0000 0.0000 0.0000
# 4 0.0000 0.0000 0.0000 20.2429 0.0000 0.0000
# 5 0.0000 0.0000 0.0000 0.0000 20.2432 0.0000
# 6 0.0000 0.0000 0.0000 0.0000 0.0000 71.4889
#
#
#
# Elastic Compliance Matrix: (Units=1/GPa)
#
#
# Indices 1 2 3 4 5 6 
#
# 1 0.010407 -0.000883 -0.003885 0.000000 0.000000 0.000000
# 2 -0.000883 0.010407 -0.003885 0.000000 0.000000 0.000000
# 3 -0.003885 -0.003885 0.013949 0.000000 0.000000 0.000000
# 4 0.000000 0.000000 0.000000 0.049400 0.000000 0.000000
# 5 0.000000 0.000000 0.000000 0.000000 0.049399 0.000000
# 6 0.000000 0.000000 0.000000 0.000000 0.000000 0.013988
#
#
# Mechanical properties :
#
#
# Convention : Reuss Voigt Hill
#
# Bulk Modulus (GPa) = 57.28219 57.31847 57.30033
# Shear Modulus (GPa) = 29.29534 36.92035 33.10784
#
# Velocity S-wave (km/s) = 3.67685 4.12771 3.90878
# Velocity P-wave (km/s) = 6.66784 7.01203 6.84210
#
# Compressibility (1/GPa) = 0.01745743
#
# Stress axis : x y z
#
# Youngs Moduli (GPa) = 96.08864 96.09177 71.68781
#
# Poissons Ratio (x) = 0.08488 0.27851
# Poissons Ratio (y) = 0.08487 0.27848
# Poissons Ratio (z) = 0.37331 0.37327
#
# Static dielectric constant tensor:
#      x y z
#    x 1.836190 0.000000 0.000000 
#    y 0.000000 1.836190 0.000000 
#    z 0.000000 0.000000 1.774710 
# 
# From -- ./inp_files/2711.got.cif
#   From: 2010.05.17/outbox.cif.g08.bks.cpg/sg113_cif.got.tgz:2711.got - 2010.05.20 11:03:00.
