data_PCOD9555667
_publ_section_title
;
Structure prediction by ZEFSAII (Michael W. Deem and Ramdas Pophale) SiO2 
 PCOD9555667
Probable space group: P -4 21 M 
;
_chemical_formula_sum "Si O2"
_cell_formula_units_Z 56
_cell_length_a 11.133751
_cell_length_b 11.133751
_cell_length_c 22.474399
_cell_angle_alpha 90.000000
_cell_angle_beta 90.000000
_cell_angle_gamma 90.000000
_cell_volume 2785.935744
_symmetry_space_group_name_H-M "P -4 21 M "
_symmetry_group_IT_number 113
_symmetry_cell_setting 'tetragonal'
loop_
_space_group_symop_operation_xyz
x,y,z
y,-x,-z
-x,-y,z
-y,x,-z
1/2+x,1/2-y,-z
1/2-x,1/2+y,-z
1/2-y,1/2-x,z
1/2+y,1/2+x,z
loop_
_atom_site_type_symbol
_atom_site_label
_atom_site_fract_x
_atom_site_fract_y
_atom_site_fract_z
Si Si1 0.243333 0.052942 0.934237
Si Si2 0.503438 0.804640 0.806246
Si Si3 0.195361 0.496563 0.806247
Si Si4 0.243334 0.947059 0.065762
Si Si5 0.500001 0.797909 0.500001
Si Si6 0.352433 0.352431 0.409631
Si Si7 0.854984 0.145016 0.726292
O O1 0.346871 0.153130 0.934139
O O2 0.267222 0.978373 0.874737
O O3 0.116753 0.116754 0.925855
O O4 0.246819 0.000001 1.000000
O O5 0.636358 0.863643 0.802051
O O6 0.468234 0.699191 0.761682
O O7 0.411520 0.911520 0.792463
O O8 0.088481 0.588481 0.792462
O O9 0.232777 0.521629 0.874737
O O10 0.300811 0.531767 0.761683
O O11 0.136357 0.363644 0.802052
O O12 0.346872 0.846872 0.065860
O O13 0.387353 0.887353 0.486443
O O14 0.459559 0.710760 0.553639
O O15 0.540440 0.710760 0.446363
O O16 0.612649 0.887352 0.513559
O O17 0.250003 0.249998 0.406345
O O18 0.383358 0.383355 0.342002
O O19 0.750000 0.250000 0.727455
#
# Coordination Sequence:
#
# PCOD9555667 Si02
#       7
#     8   8   8   8   8   8   8
#     4  10  21  35  52  74 101 135 175 224 276 326
#     4   9  18  33  53  76 105 142 182 227 276 327
#     4   9  18  33  53  76 105 142 182 227 276 327
#     4  10  21  35  52  74 101 135 175 224 276 326
#     4   9  18  33  56  84 116 153 188 229 280 328
#     4   9  18  33  55  85 116 145 184 230 272 326
#     4   9  18  32  54  82 108 139 182 227 269 324
#
# _framework density 20.100964999999999
#
# number of rings (size 3 to 8) (size 9 to 14) (size 15 to 20)
#    0.000    2.714    0.000    0.857    2.000    3.143 
#    0.000    5.714    6.286    0.000    0.000    0.000 
#    0.000    0.000    0.000    0.000    0.000    0.000 
#
# Total GULP energy -312016.588113 kJ/mol
# GULP energy per Si atom -5571.724788 kJ/mol
# Density = 2.005521 g / cm^3
# Si number density = 20.100965 Si / 1000 Ang^3
#
#
#
# Elastic Constant Matrix: (Units=GPa)
#
#
# Indices 1 2 3 4 5 6 
#
# 1 51.1979 44.1512 55.5987 0.0000 0.0000 0.0000
# 2 44.1512 51.1987 55.5983 0.0000 0.0000 0.0000
# 3 55.5987 55.5983 153.5464 0.0000 0.0000 0.0000
# 4 0.0000 0.0000 0.0000 58.1728 0.0000 0.0000
# 5 0.0000 0.0000 0.0000 0.0000 58.1729 0.0000
# 6 0.0000 0.0000 0.0000 0.0000 0.0000 15.6693
#
#
#
# Elastic Compliance Matrix: (Units=1/GPa)
#
#
# Indices 1 2 3 4 5 6 
#
# 1 0.080029 -0.061874 -0.006574 0.000000 0.000000 0.000000
# 2 -0.061874 0.080026 -0.006573 0.000000 0.000000 0.000000
# 3 -0.006574 -0.006573 0.011273 0.000000 0.000000 0.000000
# 4 0.000000 0.000000 0.000000 0.017190 0.000000 0.000000
# 5 0.000000 0.000000 0.000000 0.000000 0.017190 0.000000
# 6 0.000000 0.000000 0.000000 0.000000 0.000000 0.063819
#
#
# Mechanical properties :
#
#
# Convention : Reuss Voigt Hill
#
# Bulk Modulus (GPa) = 46.97730 62.95994 54.96862
# Shear Modulus (GPa) = 11.71878 33.10931 22.41404
#
# Velocity S-wave (km/s) = 2.41715 4.06291 3.34289
# Velocity P-wave (km/s) = 5.58673 7.30750 6.50427
#
# Compressibility (1/GPa) = 0.02128688
#
# Stress axis : x y z
#
# Youngs Moduli (GPa) = 12.49544 12.49587 88.70704
#
# Poissons Ratio (x) = 0.77317 0.58316
# Poissons Ratio (y) = 0.77315 0.58304
# Poissons Ratio (z) = 0.08215 0.08213
#
# Static dielectric constant tensor:
#      x y z
#    x 1.727520 0.000000 0.000000 
#    y 0.000000 1.727520 0.000000 
#    z 0.000000 0.000000 1.701410 
# 
# From -- ./inp_files/2701.got.cif
#   From: 2010.05.17/outbox.cif.g08.bks.cpg/sg113_cif.got.tgz:2701.got - 2010.05.20 11:03:00.
