data_PCOD9555192
_publ_section_title
;
Structure prediction by ZEFSAII (Michael W. Deem and Ramdas Pophale) SiO2 
 PCOD9555192
Probable space group: P -4 2 C
;
_chemical_formula_sum "Si O2"
_cell_formula_units_Z 48
_cell_length_a 8.894911
_cell_length_b 8.894911
_cell_length_c 29.782218
_cell_angle_alpha 90.000000
_cell_angle_beta 90.000000
_cell_angle_gamma 90.000000
_cell_volume 2356.352461
_symmetry_space_group_name_H-M "P -4 2 C"
_symmetry_group_IT_number 112
_symmetry_cell_setting 'tetragonal'
loop_
_space_group_symop_operation_xyz
x,y,z
y,-x,-z
-x,-y,z
-y,x,-z
x,-y,1/2-z
-x,y,1/2-z
-y,-x,1/2+z
y,x,1/2+z
loop_
_atom_site_type_symbol
_atom_site_label
_atom_site_fract_x
_atom_site_fract_y
_atom_site_fract_z
Si Si1 0.665213 0.431003 0.887237
Si Si2 0.780224 0.047448 0.519928
Si Si3 0.267708 0.452987 0.515527
Si Si4 0.931102 0.833412 0.203744
Si Si5 0.665204 0.069756 0.887913
Si Si6 0.569220 0.166268 0.295854
O O1 0.500000 0.500000 0.889467
O O2 0.750538 0.486351 0.931928
O O3 0.658335 0.250334 0.889511
O O4 0.742674 0.472083 0.840457
O O5 0.625164 0.123772 0.505418
O O6 0.911900 0.169694 0.512654
O O7 0.764226 0.988372 0.570362
O O8 0.330742 0.596964 0.489445
O O9 0.971422 0.737913 0.159890
O O10 0.750133 0.842275 0.207602
O O11 0.000000 0.770389 0.250000
O O12 0.000000 0.000000 0.198595
O O13 0.500000 0.000000 0.891653
O O14 0.500000 0.232602 0.250000
O O15 0.500000 0.000000 0.299984
#
# Coordination Sequence:
#
# PCOD9555192 Si02
#       6
#     8   8   8   8   8   8
#     4  11  23  43  64  91 128 168 215 260 325 382
#     4  11  25  42  63  92 131 170 213 274 322 386
#     4  11  22  42  64  91 129 173 215 270 322 389
#     4  10  22  41  68  95 130 170 209 268 333 389
#     4  11  25  43  65  95 129 170 221 270 322 390
#     4  10  22  42  64  95 130 161 215 264 318 392
#
# _framework density 20.370467999999999
#
# number of rings (size 3 to 8) (size 9 to 14) (size 15 to 20)
#    0.000    1.333    3.333    3.000    2.333    3.333 
#    3.000    3.333    0.000    0.000    0.000    0.000 
#    0.000    0.000    0.000    0.000    0.000    0.000 
#
# Total GULP energy -268413.629932 kJ/mol
# GULP energy per Si atom -5591.950624 kJ/mol
# Density = 2.032410 g / cm^3
# Si number density = 20.370468 Si / 1000 Ang^3
#
#
#
# Elastic Constant Matrix: (Units=GPa)
#
#
# Indices 1 2 3 4 5 6 
#
# 1 54.1038 37.9091 49.1718 0.0000 0.0000 0.0000
# 2 37.9091 54.1038 49.1718 0.0000 0.0000 0.0000
# 3 49.1718 49.1718 203.0603 0.0000 0.0000 0.0000
# 4 0.0000 0.0000 0.0000 37.3243 0.0000 0.0000
# 5 0.0000 0.0000 0.0000 0.0000 37.3243 0.0000
# 6 0.0000 0.0000 0.0000 0.0000 0.0000 40.7387
#
#
#
# Elastic Compliance Matrix: (Units=1/GPa)
#
#
# Indices 1 2 3 4 5 6 
#
# 1 0.038206 -0.023543 -0.003551 0.000000 0.000000 0.000000
# 2 -0.023543 0.038206 -0.003551 0.000000 0.000000 0.000000
# 3 -0.003551 -0.003551 0.006644 0.000000 0.000000 0.000000
# 4 0.000000 0.000000 0.000000 0.026792 0.000000 0.000000
# 5 0.000000 0.000000 0.000000 0.000000 0.026792 0.000000
# 6 0.000000 0.000000 0.000000 0.000000 0.000000 0.024547
#
#
# Mechanical properties :
#
#
# Convention : Reuss Voigt Hill
#
# Bulk Modulus (GPa) = 45.93999 64.86370 55.40185
# Shear Modulus (GPa) = 21.76460 34.74515 28.25487
#
# Velocity S-wave (km/s) = 3.27224 4.13445 3.72835
# Velocity P-wave (km/s) = 6.07272 7.39613 6.76686
#
# Compressibility (1/GPa) = 0.02176753
#
# Stress axis : x y z
#
# Youngs Moduli (GPa) = 26.17409 26.17409 150.50547
#
# Poissons Ratio (x) = 0.61621 0.53440
# Poissons Ratio (y) = 0.61621 0.53440
# Poissons Ratio (z) = 0.09294 0.09294
#
# Static dielectric constant tensor:
#      x y z
#    x 1.721210 0.000000 0.000000 
#    y 0.000000 1.721210 0.000000 
#    z 0.000000 0.000000 1.719690 
# 
# From -- ./inp_files/6334.got.cif
#   From: 2010.05.17/outbox.cif.g08.bks.cpg/sg112_4_cif.got.tgz:6334.got - 2010.05.20 10:59:04.
