data_PCOD9555414
_publ_section_title
;
Structure prediction by ZEFSAII (Michael W. Deem and Ramdas Pophale) SiO2 
 PCOD9555414
Probable space group: P -4 2 C
;
_chemical_formula_sum "Si O2"
_cell_formula_units_Z 22
_cell_length_a 8.185863
_cell_length_b 8.185863
_cell_length_c 13.938416
_cell_angle_alpha 90.000000
_cell_angle_beta 90.000000
_cell_angle_gamma 90.000000
_cell_volume 933.990300
_symmetry_space_group_name_H-M "P -4 2 C"
_symmetry_group_IT_number 112
_symmetry_cell_setting 'tetragonal'
loop_
_space_group_symop_operation_xyz
x,y,z
y,-x,-z
-x,-y,z
-y,x,-z
x,-y,1/2-z
-x,y,1/2-z
-y,-x,1/2+z
y,x,1/2+z
loop_
_atom_site_type_symbol
_atom_site_label
_atom_site_fract_x
_atom_site_fract_y
_atom_site_fract_z
Si Si1 0.149549 0.299478 0.918751
Si Si2 0.500000 0.500000 0.750000
Si Si3 0.000000 0.000000 0.500000
Si Si4 0.489343 0.187526 0.618506
Si Si5 0.000000 0.500000 0.750000
O O1 0.323052 0.222753 0.900295
O O2 0.107022 0.396995 0.823580
O O3 0.168685 0.399369 0.016819
O O4 0.014160 0.160838 0.936121
O O5 0.428868 0.354311 0.676249
O O6 0.500000 0.000000 0.657006
#
# Coordination Sequence:
#
# PCOD9555414 Si02
#       5
#     8   2   2   8   2
#     4  12  25  49  79 115 161 216 275 339 429 500
#     4  12  28  46  80 122 154 208 282 344 422 504
#     4  12  24  46  76 108 164 210 256 354 408 500
#     4  12  25  50  79 116 167 216 276 353 422 503
#     4  12  26  50  80 124 158 218 282 348 412 528
#
# _framework density 23.554846999999999
#
# number of rings (size 3 to 8) (size 9 to 14) (size 15 to 20)
#    0.000    0.000    5.455    3.818    0.000    3.636 
#    6.545    0.000    0.000    0.000    0.000    0.000 
#    0.000    0.000    0.000    0.000    0.000    0.000 
#
# Total GULP energy -122601.447072 kJ/mol
# GULP energy per Si atom -5572.793049 kJ/mol
# Density = 2.350124 g / cm^3
# Si number density = 23.554847 Si / 1000 Ang^3
#
#
#
# Elastic Constant Matrix: (Units=GPa)
#
#
# Indices 1 2 3 4 5 6 
#
# 1 167.1778 48.9351 88.3521 0.0000 0.0000 0.0000
# 2 48.9351 167.1778 88.3521 0.0000 0.0000 0.0000
# 3 88.3521 88.3521 230.1439 0.0000 0.0000 0.0000
# 4 0.0000 0.0000 0.0000 -28.8527 0.0000 0.0000
# 5 0.0000 0.0000 0.0000 0.0000 -28.8527 0.0000
# 6 0.0000 0.0000 0.0000 0.0000 0.0000 47.0671
#
#
#
# Elastic Compliance Matrix: (Units=1/GPa)
#
#
# Indices 1 2 3 4 5 6 
#
# 1 0.007601 -0.000857 -0.002589 0.000000 0.000000 0.000000
# 2 -0.000857 0.007601 -0.002589 0.000000 0.000000 0.000000
# 3 -0.002589 -0.002589 0.006333 0.000000 0.000000 0.000000
# 4 0.000000 0.000000 0.000000 -0.034659 0.000000 0.000000
# 5 0.000000 0.000000 0.000000 0.000000 -0.034659 0.000000
# 6 0.000000 0.000000 0.000000 0.000000 0.000000 0.021246
#
#
# Mechanical properties :
#
#
# Convention : Reuss Voigt Hill
#
# Bulk Modulus (GPa) = 105.65230 112.86423 109.25826
# Shear Modulus (GPa) = -441.98610 20.46301 -210.76155
#
# Velocity S-wave (km/s) = -13.71308 2.95063 -9.46949
# Velocity P-wave (km/s) = 14.34505 7.72191 8.54847
#
# Compressibility (1/GPa) = 0.00946501
#
# Stress axis : x y z
#
# Youngs Moduli (GPa) = 131.56730 131.56730 157.90312
#
# Poissons Ratio (x) = 0.11269 0.40882
# Poissons Ratio (y) = 0.11269 0.40882
# Poissons Ratio (z) = 0.34064 0.34064
#
# Static dielectric constant tensor:
#      x y z
#    x 1.938570 0.000000 0.000000 
#    y 0.000000 1.938570 0.000000 
#    z 0.000000 0.000000 1.902220 
# 
# From -- ./inp_files/1944.got.cif
#   From: 2010.05.17/outbox.cif.g08.bks.cpg/sg112_1_cif.got.tgz:1944.got - 2010.05.20 10:59:04.
