data_PCOD9555433
_publ_section_title
;
Structure prediction by ZEFSAII (Michael W. Deem and Ramdas Pophale) SiO2 
 PCOD9555433
Probable space group: P -4 2 C
;
_chemical_formula_sum "Si O2"
_cell_formula_units_Z 50
_cell_length_a 9.000000
_cell_length_b 9.000000
_cell_length_c 30.000000
_cell_angle_alpha 90.000000
_cell_angle_beta 90.000000
_cell_angle_gamma 90.000000
_cell_volume 2430.000000
_symmetry_space_group_name_H-M "P -4 2 C"
_symmetry_group_IT_number 112
_symmetry_cell_setting 'tetragonal'
loop_
_space_group_symop_operation_xyz
x,y,z
y,-x,-z
-x,-y,z
-y,x,-z
x,-y,1/2-z
-x,y,1/2-z
-y,-x,1/2+z
y,x,1/2+z
loop_
_atom_site_type_symbol
_atom_site_label
_atom_site_fract_x
_atom_site_fract_y
_atom_site_fract_z
Si Si1 0.718109 0.654298 0.860572
Si Si2 0.473912 0.736170 0.991935
Si Si3 0.081046 0.716805 0.557791
Si Si4 0.817570 0.679208 0.621516
Si Si5 0.000000 0.000000 0.500000
Si Si6 0.321507 0.026494 0.298515
Si Si7 0.528837 0.833489 0.605645
O O1 0.740319 0.478993 0.868674
O O2 0.553532 0.714912 0.863148
O O3 0.802486 0.731656 0.901937
O O4 0.807913 0.698206 0.816668
O O5 0.521002 0.802947 0.945059
O O6 0.608885 0.650746 0.015420
O O7 0.398601 0.855942 0.022635
O O8 0.934336 0.660766 0.582161
O O9 0.053060 0.867377 0.531541
O O10 0.910021 0.730451 0.664572
O O11 0.701459 0.801057 0.607453
O O12 0.500000 0.000000 0.297280
O O13 0.258705 0.000000 0.250000
O O14 0.500000 0.000000 0.619306
#
# Coordination Sequence:
#
# PCOD9555433 Si02
#       7
#     8   8   8   8   2   8   8
#     4  10  21  40  62  90 119 158 199 253 311 365
#     4  11  24  40  60  86 116 163 215 262 302 362
#     4  11  23  39  58  83 117 159 205 257 302 350
#     4  10  22  39  65  88 121 156 201 254 311 374
#     4  12  28  36  52  88 118 168 208 260 292 360
#     4   8  16  36  68  99 119 148 197 256 312 373
#     4  12  26  39  58  86 122 167 204 254 307 368
#
# _framework density 20.576132000000001
#
# number of rings (size 3 to 8) (size 9 to 14) (size 15 to 20)
#    0.000    1.600    1.600    3.840    6.720    3.840 
#    0.000    0.800    0.000    6.720    0.000    0.000 
#    0.000    0.000    0.000    0.000    0.000    0.000 
#
# Total GULP energy -279240.107691 kJ/mol
# GULP energy per Si atom -5584.802154 kJ/mol
# Density = 2.052930 g / cm^3
# Si number density = 20.576132 Si / 1000 Ang^3
#
#
#
# Elastic Constant Matrix: (Units=GPa)
#
#
# Indices 1 2 3 4 5 6 
#
# 1 68.8928 42.8224 23.4094 0.0000 0.0000 0.0000
# 2 42.8224 68.8928 23.4094 0.0000 0.0000 0.0000
# 3 23.4094 23.4094 79.3810 0.0000 0.0000 0.0000
# 4 0.0000 0.0000 0.0000 38.7061 0.0000 0.0000
# 5 0.0000 0.0000 0.0000 0.0000 38.7061 0.0000
# 6 0.0000 0.0000 0.0000 0.0000 0.0000 14.9431
#
#
#
# Elastic Compliance Matrix: (Units=1/GPa)
#
#
# Indices 1 2 3 4 5 6 
#
# 1 0.024286 -0.014072 -0.003012 0.000000 0.000000 0.000000
# 2 -0.014072 0.024286 -0.003012 0.000000 0.000000 0.000000
# 3 -0.003012 -0.003012 0.014374 0.000000 0.000000 0.000000
# 4 0.000000 0.000000 0.000000 0.025836 0.000000 0.000000
# 5 0.000000 0.000000 0.000000 0.000000 0.025836 0.000000
# 6 0.000000 0.000000 0.000000 0.000000 0.000000 0.066921
#
#
# Mechanical properties :
#
#
# Convention : Reuss Voigt Hill
#
# Bulk Modulus (GPa) = 43.94978 44.04988 43.99983
# Shear Modulus (GPa) = 21.80421 26.97277 24.38849
#
# Velocity S-wave (km/s) = 3.25881 3.62453 3.44653
# Velocity P-wave (km/s) = 5.96370 6.24268 6.10478
#
# Compressibility (1/GPa) = 0.02275324
#
# Stress axis : x y z
#
# Youngs Moduli (GPa) = 41.17664 41.17664 69.57036
#
# Poissons Ratio (x) = 0.57944 0.20954
# Poissons Ratio (y) = 0.57944 0.20954
# Poissons Ratio (z) = 0.12402 0.12402
#
# Static dielectric constant tensor:
#      x y z
#    x 1.725690 0.000000 0.000000 
#    y 0.000000 1.725690 0.000000 
#    z 0.000000 0.000000 1.745650 
# 
# From -- ./inp_files/6341.got.cif
#   From: 2010.05.17/outbox.ucp.g08.bks.cvg/sg112_4_cif.got.tgz:6341.got - 2010.06.11 11:33:06.
