data_PCOD9555007
_publ_section_title
;
Structure prediction by ZEFSAII (Michael W. Deem and Ramdas Pophale) SiO2 
 PCOD9555007
Probable space group: P -4 2 C
;
_chemical_formula_sum "Si O2"
_cell_formula_units_Z 38
_cell_length_a 15.482846
_cell_length_b 15.482846
_cell_length_c 8.372642
_cell_angle_alpha 90.000000
_cell_angle_beta 90.000000
_cell_angle_gamma 90.000000
_cell_volume 2007.077351
_symmetry_space_group_name_H-M "P -4 2 C"
_symmetry_group_IT_number 112
_symmetry_cell_setting 'tetragonal'
loop_
_space_group_symop_operation_xyz
x,y,z
y,-x,-z
-x,-y,z
-y,x,-z
x,-y,1/2-z
-x,y,1/2-z
-y,-x,1/2+z
y,x,1/2+z
loop_
_atom_site_type_symbol
_atom_site_label
_atom_site_fract_x
_atom_site_fract_y
_atom_site_fract_z
Si Si1 0.134519 0.000000 0.750000
Si Si2 0.000000 0.000000 0.000000
Si Si3 0.593264 0.754812 0.253846
Si Si4 0.871834 0.275983 0.367422
Si Si5 0.052783 0.410346 0.900474
Si Si6 0.243626 0.699714 0.065344
O O1 0.193870 0.927434 0.823118
O O2 0.073134 0.962263 0.613411
O O3 0.500000 0.712178 0.250000
O O4 0.579328 0.848225 0.339333
O O5 0.662851 0.698459 0.350143
O O6 0.632238 0.768771 0.077358
O O7 0.933790 0.346492 0.451197
O O8 0.826410 0.309634 0.205410
O O9 0.794931 0.245212 0.484970
O O10 0.000000 0.500000 0.934138
O O11 0.000000 0.370883 0.750000
#
# Coordination Sequence:
#
# PCOD9555007 Si02
#       6
#     4   2   8   8   8   8
#     4  11  22  38  55  74 102 150 195 250 298 321
#     4  10  24  42  52  70 104 142 208 262 288 326
#     4  10  19  38  64  81 124 160 191 246 300 356
#     4  10  21  37  61  84 117 154 199 245 288 378
#     4  10  20  37  57  90 124 156 183 233 314 367
#     4   9  21  39  58  90 114 156 203 235 298 366
#
# _framework density 18.933001999999998
#
# number of rings (size 3 to 8) (size 9 to 14) (size 15 to 20)
#    0.000    2.105    2.105    1.263    2.947    0.000 
#    7.579   15.263    0.000    1.895    0.000    0.000 
#    0.000    0.000    0.000    0.000    0.000    0.000 
#
# Total GULP energy -211856.194072 kJ/mol
# GULP energy per Si atom -5575.163002 kJ/mol
# Density = 1.888991 g / cm^3
# Si number density = 18.933002 Si / 1000 Ang^3
#
#
#
# Elastic Constant Matrix: (Units=GPa)
#
#
# Indices 1 2 3 4 5 6 
#
# 1 81.8152 39.9973 53.2451 0.0000 0.0000 0.0000
# 2 39.9973 81.8152 53.2451 0.0000 0.0000 0.0000
# 3 53.2451 53.2451 116.5342 0.0000 0.0000 0.0000
# 4 0.0000 0.0000 0.0000 4.9599 0.0000 0.0000
# 5 0.0000 0.0000 0.0000 0.0000 4.9599 0.0000
# 6 0.0000 0.0000 0.0000 0.0000 0.0000 14.6569
#
#
#
# Elastic Compliance Matrix: (Units=1/GPa)
#
#
# Indices 1 2 3 4 5 6 
#
# 1 0.018791 -0.005122 -0.006246 0.000000 0.000000 0.000000
# 2 -0.005122 0.018791 -0.006246 0.000000 0.000000 0.000000
# 3 -0.006246 -0.006246 0.014288 0.000000 0.000000 0.000000
# 4 0.000000 0.000000 0.000000 0.201617 0.000000 0.000000
# 5 0.000000 0.000000 0.000000 0.000000 0.201617 0.000000
# 6 0.000000 0.000000 0.000000 0.000000 0.000000 0.068227
#
#
# Mechanical properties :
#
#
# Convention : Reuss Voigt Hill
#
# Bulk Modulus (GPa) = 60.07901 63.68218 61.88059
# Shear Modulus (GPa) = 8.86357 13.82715 11.34536
#
# Velocity S-wave (km/s) = 2.16603 2.70537 2.45059
# Velocity P-wave (km/s) = 6.16903 6.59297 6.38452
#
# Compressibility (1/GPa) = 0.01664475
#
# Stress axis : x y z
#
# Youngs Moduli (GPa) = 53.21620 53.21620 69.98655
#
# Poissons Ratio (x) = 0.27257 0.43711
# Poissons Ratio (y) = 0.27257 0.43711
# Poissons Ratio (z) = 0.33237 0.33237
#
# Static dielectric constant tensor:
#      x y z
#    x 1.665330 0.000000 0.000000 
#    y 0.000000 1.665330 0.000000 
#    z 0.000000 0.000000 1.690890 
# 
# From -- ./inp_files/1282.got.cif
#   From: 2010.05.17/outbox.cif.g08.bks.cpg/sg112_1_cif.got.tgz:1282.got - 2010.05.20 10:59:04.
