data_PCOD9555272
_publ_section_title
;
Structure prediction by ZEFSAII (Michael W. Deem and Ramdas Pophale) SiO2 
 PCOD9555272
Probable space group: P -4 2 C
;
_chemical_formula_sum "Si O2"
_cell_formula_units_Z 34
_cell_length_a 12.788895
_cell_length_b 12.788895
_cell_length_c 8.819291
_cell_angle_alpha 90.000000
_cell_angle_beta 90.000000
_cell_angle_gamma 90.000000
_cell_volume 1442.446506
_symmetry_space_group_name_H-M "P -4 2 C"
_symmetry_group_IT_number 112
_symmetry_cell_setting 'tetragonal'
loop_
_space_group_symop_operation_xyz
x,y,z
y,-x,-z
-x,-y,z
-y,x,-z
x,-y,1/2-z
-x,y,1/2-z
-y,-x,1/2+z
y,x,1/2+z
loop_
_atom_site_type_symbol
_atom_site_label
_atom_site_fract_x
_atom_site_fract_y
_atom_site_fract_z
Si Si1 0.500000 0.500000 0.000000
Si Si2 0.772262 0.955145 0.909772
Si Si3 0.500000 0.657242 0.250000
Si Si4 0.000000 0.000000 0.000000
Si Si5 0.500000 0.000000 0.250000
Si Si6 0.300857 0.237667 0.094496
Si Si7 0.134577 0.679140 0.603491
O O1 0.452018 0.583757 0.117472
O O2 0.898606 0.955269 0.911156
O O3 0.735014 0.000000 0.750000
O O4 0.743762 0.042509 0.031538
O O5 0.709857 0.852936 0.968247
O O6 0.589049 0.719499 0.158246
O O7 0.427675 0.078109 0.346958
O O8 0.263243 0.179619 0.247302
O O9 0.226188 0.326305 0.022873
#
# Coordination Sequence:
#
# PCOD9555272 Si02
#       7
#     2   8   4   2   2   8   8
#     4  10  24  50  80 114 140 198 272 354 428 502
#     4  12  26  44  74 117 161 217 268 319 399 498
#     4  11  25  48  80 112 154 204 279 351 429 495
#     4  12  26  44  76 114 174 212 254 320 382 504
#     4  12  26  52  80 110 172 218 274 354 450 488
#     4  12  25  46  78 113 161 213 275 337 421 502
#     4  12  26  47  79 114 157 221 269 338 415 500
#
# _framework density 23.571065000000001
#
# number of rings (size 3 to 8) (size 9 to 14) (size 15 to 20)
#    0.000    0.235    4.706    3.882    0.000    1.882 
#    0.000    0.588    5.176    0.000    0.000    0.000 
#    0.000    0.000    0.000    0.000    0.000    0.000 
#
# Total GULP energy -189710.841948 kJ/mol
# GULP energy per Si atom -5579.730646 kJ/mol
# Density = 2.351742 g / cm^3
# Si number density = 23.571065 Si / 1000 Ang^3
#
#
#
# Elastic Constant Matrix: (Units=GPa)
#
#
# Indices 1 2 3 4 5 6 
#
# 1 142.5955 72.9591 74.6594 0.0000 0.0000 0.0000
# 2 72.9591 142.5955 74.6594 0.0000 0.0000 0.0000
# 3 74.6594 74.6594 163.3531 0.0000 0.0000 0.0000
# 4 0.0000 0.0000 0.0000 30.0913 0.0000 0.0000
# 5 0.0000 0.0000 0.0000 0.0000 30.0913 0.0000
# 6 0.0000 0.0000 0.0000 0.0000 0.0000 44.2976
#
#
#
# Elastic Compliance Matrix: (Units=1/GPa)
#
#
# Indices 1 2 3 4 5 6 
#
# 1 0.010574 -0.003786 -0.003103 0.000000 0.000000 0.000000
# 2 -0.003786 0.010574 -0.003103 0.000000 0.000000 0.000000
# 3 -0.003103 -0.003103 0.008958 0.000000 0.000000 0.000000
# 4 0.000000 0.000000 0.000000 0.033232 0.000000 0.000000
# 5 0.000000 0.000000 0.000000 0.000000 0.033232 0.000000
# 6 0.000000 0.000000 0.000000 0.000000 0.000000 0.022575
#
#
# Mechanical properties :
#
#
# Convention : Reuss Voigt Hill
#
# Bulk Modulus (GPa) = 98.77327 99.23332 99.00330
# Shear Modulus (GPa) = 35.08709 35.98045 35.53377
#
# Velocity S-wave (km/s) = 3.86238 3.91124 3.88689
# Velocity P-wave (km/s) = 7.86677 7.91126 7.88905
#
# Compressibility (1/GPa) = 0.01012420
#
# Stress axis : x y z
#
# Youngs Moduli (GPa) = 94.56832 94.56832 111.63506
#
# Poissons Ratio (x) = 0.35803 0.34636
# Poissons Ratio (y) = 0.35803 0.34636
# Poissons Ratio (z) = 0.29341 0.29341
#
# Static dielectric constant tensor:
#      x y z
#    x 1.982810 0.000000 0.000000 
#    y 0.000000 1.982810 0.000000 
#    z 0.000000 0.000000 1.934420 
# 
# From -- ./inp_files/1105.got.cif
#   From: 2010.05.17/outbox.cif.g08.bks.cpg/sg112_1_cif.got.tgz:1105.got - 2010.05.20 10:59:04.
