data_PCOD9555459
_publ_section_title
;
Structure prediction by ZEFSAII (Michael W. Deem and Ramdas Pophale) SiO2 
 PCOD9555459
Probable space group: P -4 21 M 
;
_chemical_formula_sum "Si O2"
_cell_formula_units_Z 40
_cell_length_a 15.860729
_cell_length_b 15.860729
_cell_length_c 6.978811
_cell_angle_alpha 90.000000
_cell_angle_beta 90.000000
_cell_angle_gamma 90.000000
_cell_volume 1755.608708
_symmetry_space_group_name_H-M "P -4 21 M "
_symmetry_group_IT_number 113
_symmetry_cell_setting 'tetragonal'
loop_
_space_group_symop_operation_xyz
x,y,z
y,-x,-z
-x,-y,z
-y,x,-z
1/2+x,1/2-y,-z
1/2-x,1/2+y,-z
1/2-y,1/2-x,z
1/2+y,1/2+x,z
loop_
_atom_site_type_symbol
_atom_site_label
_atom_site_fract_x
_atom_site_fract_y
_atom_site_fract_z
Si Si1 0.919584 0.915880 0.107688
Si Si2 0.814796 0.447741 0.015372
Si Si3 0.862158 0.503132 0.404814
Si Si4 0.814248 0.180239 0.144798
Si Si5 0.985899 0.795637 0.663737
O O1 0.879429 0.957797 0.295396
O O2 0.870538 0.831998 0.052399
O O3 0.018329 0.902616 0.072204
O O4 0.889186 0.389186 0.932611
O O5 0.852740 0.507702 0.175671
O O6 0.753225 0.384044 0.131946
O O7 0.762728 0.490363 0.847359
O O8 0.916976 0.583025 0.476132
O O9 0.768297 0.499568 0.491337
O O10 0.919498 0.419498 0.443098
O O11 0.724889 0.224889 0.151419
O O12 0.820367 0.111662 0.312344
#
# Coordination Sequence:
#
# PCOD9555459 Si02
#       5
#     8   8   8   8   8
#     4   8  15  29  50  74 100 135 176 215 260 318
#     4   9  19  36  53  72 105 143 173 211 264 316
#     4  10  21  35  52  77 107 141 180 214 254 315
#     4   9  17  30  50  76 105 135 170 215 264 312
#     4  10  18  32  55  79 103 133 175 224 266 305
#
# _framework density 22.784119
#
# number of rings (size 3 to 8) (size 9 to 14) (size 15 to 20)
#    0.000    2.800    0.000    1.200    0.000    2.400 
#    0.000   10.000    0.000    4.800    0.000    8.400 
#    0.000    0.000    0.000    0.000    0.000    0.000 
#
# Total GULP energy -222872.787325 kJ/mol
# GULP energy per Si atom -5571.819683 kJ/mol
# Density = 2.273226 g / cm^3
# Si number density = 22.784119 Si / 1000 Ang^3
#
#
#
# Elastic Constant Matrix: (Units=GPa)
#
#
# Indices 1 2 3 4 5 6 
#
# 1 44.3590 12.6176 6.7193 0.0000 0.0000 0.0000
# 2 12.6176 44.3582 6.7190 0.0000 0.0000 0.0000
# 3 6.7193 6.7190 38.1552 0.0000 0.0000 0.0000
# 4 0.0000 0.0000 0.0000 13.8600 0.0000 0.0000
# 5 0.0000 0.0000 0.0000 0.0000 13.8603 0.0000
# 6 0.0000 0.0000 0.0000 0.0000 0.0000 39.3155
#
#
#
# Elastic Compliance Matrix: (Units=1/GPa)
#
#
# Indices 1 2 3 4 5 6 
#
# 1 0.024908 -0.006597 -0.003225 0.000000 0.000000 0.000000
# 2 -0.006597 0.024909 -0.003225 0.000000 0.000000 0.000000
# 3 -0.003225 -0.003225 0.027345 0.000000 0.000000 0.000000
# 4 0.000000 0.000000 0.000000 0.072150 0.000000 0.000000
# 5 0.000000 0.000000 0.000000 0.000000 0.072149 0.000000
# 6 0.000000 0.000000 0.000000 0.000000 0.000000 0.025435
#
#
# Mechanical properties :
#
#
# Convention : Reuss Voigt Hill
#
# Bulk Modulus (GPa) = 19.58127 19.88712 19.73420
# Shear Modulus (GPa) = 17.24075 20.12824 18.68450
#
# Velocity S-wave (km/s) = 2.75380 2.97548 2.86679
# Velocity P-wave (km/s) = 4.32714 4.53345 4.43149
#
# Compressibility (1/GPa) = 0.05106920
#
# Stress axis : x y z
#
# Youngs Moduli (GPa) = 40.14748 40.14677 36.57042
#
# Poissons Ratio (x) = 0.26483 0.11793
# Poissons Ratio (y) = 0.26484 0.11793
# Poissons Ratio (z) = 0.12947 0.12946
#
# Static dielectric constant tensor:
#      x y z
#    x 1.891720 0.000000 0.000000 
#    y 0.000000 1.891720 0.000000 
#    z 0.000000 0.000000 1.857900 
# 
# From -- ./inp_files/323.got.cif
#   From: 2010.05.17/outbox.cif.g08.bks.cpg/sg113_cif.got.tgz:323.got - 2010.05.20 11:03:00.
