data_PCOD9555802
_publ_section_title
;
Structure prediction by ZEFSAII (Michael W. Deem and Ramdas Pophale) SiO2 
 PCOD9555802
Probable space group: P -4 21 M 
;
_chemical_formula_sum "Si O2"
_cell_formula_units_Z 56
_cell_length_a 19.983220
_cell_length_b 19.983220
_cell_length_c 7.453634
_cell_angle_alpha 90.000000
_cell_angle_beta 90.000000
_cell_angle_gamma 90.000000
_cell_volume 2976.452820
_symmetry_space_group_name_H-M "P -4 21 M "
_symmetry_group_IT_number 113
_symmetry_cell_setting 'tetragonal'
loop_
_space_group_symop_operation_xyz
x,y,z
y,-x,-z
-x,-y,z
-y,x,-z
1/2+x,1/2-y,-z
1/2-x,1/2+y,-z
1/2-y,1/2-x,z
1/2+y,1/2+x,z
loop_
_atom_site_type_symbol
_atom_site_label
_atom_site_fract_x
_atom_site_fract_y
_atom_site_fract_z
Si Si1 0.054445 0.445555 0.968602
Si Si2 0.294045 0.980034 0.030464
Si Si3 0.657126 0.265581 0.034891
Si Si4 0.054446 0.445555 0.531357
Si Si5 0.263777 0.128354 0.463790
Si Si6 0.980033 0.705956 0.530443
Si Si7 0.263775 0.128355 0.036226
Si Si8 0.734418 0.657128 0.534897
O O1 0.035004 0.370559 0.023231
O O2 0.054182 0.445819 0.749980
O O3 0.000000 0.500000 0.027485
O O4 0.248298 0.917846 0.971143
O O5 0.293165 0.980610 0.250010
O O6 0.271149 0.053081 0.967963
O O7 0.707149 0.207149 0.967577
O O8 0.655684 0.259601 0.249997
O O9 0.693019 0.335413 0.993768
O O10 0.129444 0.464995 0.476735
O O11 0.000000 0.500000 0.472475
O O12 0.321265 0.178736 0.535075
O O13 0.271148 0.053079 0.532055
O O14 0.273511 0.124917 0.250008
O O15 0.193021 0.164585 0.493784
O O16 0.917843 0.751704 0.471137
O O17 0.321264 0.178737 0.964940
O O18 0.792849 0.707152 0.467583
#
# Coordination Sequence:
#
# PCOD9555802 Si02
#       8
#     4   8   8   4   8   8   8   8
#     4   9  14  20  36  64  93 115 137 170 217 266
#     4   9  15  25  41  63  89 115 142 176 216 258
#     4   9  16  28  45  63  85 115 149 178 208 255
#     4   9  14  20  36  64  93 115 137 170 217 266
#     4   9  17  28  43  65  91 114 140 178 220 257
#     4   9  15  25  41  63  89 115 142 176 216 258
#     4   9  17  28  43  65  91 114 140 178 220 257
#     4   9  16  28  45  63  85 115 149 178 208 255
#
# _framework density 18.814343000000001
#
# number of rings (size 3 to 8) (size 9 to 14) (size 15 to 20)
#    0.000    3.000    1.429    0.857    0.000    3.429 
#    0.000    1.429    0.000    0.857    0.000    6.000 
#    0.000    6.857    0.000    0.000    0.000    0.000 
#
# Total GULP energy -312337.869251 kJ/mol
# GULP energy per Si atom -5577.461951 kJ/mol
# Density = 1.877152 g / cm^3
# Si number density = 18.814343 Si / 1000 Ang^3
#
#
#
# Elastic Constant Matrix: (Units=GPa)
#
#
# Indices 1 2 3 4 5 6 
#
# 1 167.1346 128.2334 2.9721 0.0000 0.0000 0.0000
# 2 128.2334 167.1344 2.9720 0.0000 0.0000 0.0000
# 3 2.9721 2.9720 54.9915 0.0000 0.0000 0.0000
# 4 0.0000 0.0000 0.0000 9.0096 0.0000 0.0000
# 5 0.0000 0.0000 0.0000 0.0000 9.0094 0.0000
# 6 0.0000 0.0000 0.0000 0.0000 0.0000 28.2451
#
#
#
# Elastic Compliance Matrix: (Units=1/GPa)
#
#
# Indices 1 2 3 4 5 6 
#
# 1 0.014548 -0.011158 -0.000183 0.000000 0.000000 0.000000
# 2 -0.011158 0.014548 -0.000183 0.000000 0.000000 0.000000
# 3 -0.000183 -0.000183 0.018204 0.000000 0.000000 0.000000
# 4 0.000000 0.000000 0.000000 0.110993 0.000000 0.000000
# 5 0.000000 0.000000 0.000000 0.000000 0.110995 0.000000
# 6 0.000000 0.000000 0.000000 0.000000 0.000000 0.035404
#
#
# Mechanical properties :
#
#
# Convention : Reuss Voigt Hill
#
# Bulk Modulus (GPa) = 41.23656 73.06838 57.15247
# Shear Modulus (GPa) = 14.88871 26.25835 20.57353
#
# Velocity S-wave (km/s) = 2.81614 3.73990 3.31040
# Velocity P-wave (km/s) = 5.70433 7.58749 6.71228
#
# Compressibility (1/GPa) = 0.02425032
#
# Stress axis : x y z
#
# Youngs Moduli (GPa) = 68.73908 68.73900 54.93165
#
# Poissons Ratio (x) = 0.76702 0.01006
# Poissons Ratio (y) = 0.76702 0.01006
# Poissons Ratio (z) = 0.01259 0.01259
#
# Static dielectric constant tensor:
#      x y z
#    x 1.638120 0.000000 0.000000 
#    y 0.000000 1.638120 0.000000 
#    z 0.000000 0.000000 1.747330 
# 
# From -- ./inp_files/1364.got.cif
#   From: 2010.05.17/outbox.cif.g08.bks.cpg/sg113_cif.got.tgz:1364.got - 2010.05.20 11:03:00.
