data_PCOD9555951
_publ_section_title
;
Structure prediction by ZEFSAII (Michael W. Deem and Ramdas Pophale) SiO2 
 PCOD9555951
Probable space group: P -4 21 C
;
_chemical_formula_sum "Si O2"
_cell_formula_units_Z 56
_cell_length_a 11.671093
_cell_length_b 11.671093
_cell_length_c 21.005721
_cell_angle_alpha 90.000000
_cell_angle_beta 90.000000
_cell_angle_gamma 90.000000
_cell_volume 2861.281931
_symmetry_space_group_name_H-M "P -4 21 C"
_symmetry_group_IT_number 114
_symmetry_cell_setting 'tetragonal'
loop_
_space_group_symop_operation_xyz
x,y,z
y,-x,-z
-x,-y,z
-y,x,-z
1/2+x,1/2-y,1/2-z
1/2-x,1/2+y,1/2-z
1/2-y,1/2-x,1/2+z
1/2+y,1/2+x,1/2+z
loop_
_atom_site_type_symbol
_atom_site_label
_atom_site_fract_x
_atom_site_fract_y
_atom_site_fract_z
Si Si1 0.659160 0.133378 0.162863
Si Si2 0.685461 0.547446 0.741312
Si Si3 0.121044 0.708596 0.158373
Si Si4 0.845715 0.860500 0.653209
Si Si5 0.216413 0.611819 0.288193
Si Si6 0.271108 0.449957 0.942111
Si Si7 0.748464 0.957863 0.420260
O O1 0.600902 0.207265 0.219432
O O2 0.783261 0.191907 0.153715
O O3 0.587101 0.162974 0.100279
O O4 0.668327 0.001106 0.179293
O O5 0.730890 0.497310 0.674885
O O6 0.637834 0.447991 0.787596
O O7 0.599173 0.650448 0.729087
O O8 0.150189 0.639000 0.222984
O O9 0.141457 0.620080 0.101387
O O10 0.727765 0.796017 0.670298
O O11 0.954025 0.782664 0.635982
O O12 0.823593 0.937405 0.590797
O O13 0.367967 0.352663 0.931735
O O14 0.237780 0.473191 0.014380
#
# Coordination Sequence:
#
# PCOD9555951 Si02
#       7
#     8   8   8   8   8   8   8
#     4   9  20  38  56  86 116 157 203 240 290 362
#     4   9  20  38  55  90 118 159 197 234 307 359
#     4   9  21  34  57  89 121 153 193 247 296 360
#     4  10  21  35  57  88 118 157 194 233 306 361
#     4  10  21  38  57  78 126 159 193 246 289 364
#     4  10  20  35  61  86 116 156 194 250 302 346
#     4  11  20  36  59  92 124 146 195 258 303 349
#
# _framework density 19.571648
#
# number of rings (size 3 to 8) (size 9 to 14) (size 15 to 20)
#    0.000    2.286    1.429    1.286    6.000    5.714 
#    5.143    0.000    6.286    0.000    0.000    0.000 
#    0.000    0.000    0.000    0.000    0.000    0.000 
#
# Total GULP energy -312653.044224 kJ/mol
# GULP energy per Si atom -5583.090075 kJ/mol
# Density = 1.952710 g / cm^3
# Si number density = 19.571648 Si / 1000 Ang^3
#
#
#
# Elastic Constant Matrix: (Units=GPa)
#
#
# Indices 1 2 3 4 5 6 
#
# 1 40.6156 -4.9096 9.5174 0.0000 0.0000 0.0000
# 2 -4.9096 40.6156 9.5174 0.0000 0.0000 0.0000
# 3 9.5174 9.5174 55.6325 0.0000 0.0000 0.0000
# 4 0.0000 0.0000 0.0000 26.5462 0.0000 0.0000
# 5 0.0000 0.0000 0.0000 0.0000 26.5462 0.0000
# 6 0.0000 0.0000 0.0000 0.0000 0.0000 17.1664
#
#
#
# Elastic Compliance Matrix: (Units=1/GPa)
#
#
# Indices 1 2 3 4 5 6 
#
# 1 0.026391 0.004426 -0.005272 0.000000 0.000000 0.000000
# 2 0.004426 0.026391 -0.005272 0.000000 0.000000 0.000000
# 3 -0.005272 -0.005272 0.019779 0.000000 0.000000 0.000000
# 4 0.000000 0.000000 0.000000 0.037670 0.000000 0.000000
# 5 0.000000 0.000000 0.000000 0.000000 0.037670 0.000000
# 6 0.000000 0.000000 0.000000 0.000000 0.000000 0.058253
#
#
# Mechanical properties :
#
#
# Convention : Reuss Voigt Hill
#
# Bulk Modulus (GPa) = 16.57695 18.34602 17.46149
# Shear Modulus (GPa) = 20.96429 22.23433 21.59931
#
# Velocity S-wave (km/s) = 3.27640 3.37419 3.32565
# Velocity P-wave (km/s) = 4.77508 4.95725 4.86701
#
# Compressibility (1/GPa) = 0.06032472
#
# Stress axis : x y z
#
# Youngs Moduli (GPa) = 37.89111 37.89111 50.55879
#
# Poissons Ratio (x) = -0.16769 0.26655
# Poissons Ratio (y) = -0.16769 0.26655
# Poissons Ratio (z) = 0.19976 0.19976
#
# Static dielectric constant tensor:
#      x y z
#    x 1.719790 0.000000 0.000000 
#    y 0.000000 1.719790 0.000000 
#    z 0.000000 0.000000 1.681620 
# 
# From -- ./inp_files/3537.got.cif
#   From: 2010.05.17/outbox.cif.g08.bks.cpg/sg114_2_cif.got.tgz:3537.got - 2010.05.20 11:04:54.
