data_PCOD9555319
_publ_section_title
;
Structure prediction by ZEFSAII (Michael W. Deem and Ramdas Pophale) SiO2 
 PCOD9555319
Probable space group: P -4 2 C
;
_chemical_formula_sum "Si O2"
_cell_formula_units_Z 64
_cell_length_a 11.666771
_cell_length_b 11.666771
_cell_length_c 23.335913
_cell_angle_alpha 90.000000
_cell_angle_beta 90.000000
_cell_angle_gamma 90.000000
_cell_volume 3176.333857
_symmetry_space_group_name_H-M "P -4 2 C"
_symmetry_group_IT_number 112
_symmetry_cell_setting 'tetragonal'
loop_
_space_group_symop_operation_xyz
x,y,z
y,-x,-z
-x,-y,z
-y,x,-z
x,-y,1/2-z
-x,y,1/2-z
-y,-x,1/2+z
y,x,1/2+z
loop_
_atom_site_type_symbol
_atom_site_label
_atom_site_fract_x
_atom_site_fract_y
_atom_site_fract_z
Si Si1 0.178606 0.856907 0.675993
Si Si2 0.802673 0.115854 0.845485
Si Si3 0.899286 0.155056 0.480549
Si Si4 0.877767 0.480405 0.915091
Si Si5 0.766714 0.279611 0.574009
Si Si6 0.676176 0.567075 0.497207
Si Si7 0.964550 0.314511 0.811604
Si Si8 0.135051 0.377209 0.237011
O O1 0.221041 0.832178 0.612213
O O2 0.279658 0.823075 0.719219
O O3 0.072019 0.771207 0.678316
O O4 0.156594 0.992820 0.679887
O O5 0.828847 0.114366 0.912682
O O6 0.866349 0.218660 0.813607
O O7 0.671000 0.137059 0.827522
O O8 0.833647 0.253263 0.515270
O O9 0.030957 0.151499 0.501606
O O10 0.821894 0.604372 0.899740
O O11 0.779874 0.428275 0.956723
O O12 0.919358 0.403801 0.860325
O O13 0.000000 0.500000 0.946466
O O14 0.634022 0.292380 0.560072
O O15 0.636359 0.438028 0.484088
O O16 0.000000 0.366983 0.750000
O O17 0.188633 0.500000 0.250000
O O18 0.000000 0.385310 0.250000
#
# Coordination Sequence:
#
# PCOD9555319 Si02
#       8
#     8   8   8   8   8   8   8   8
#     4  11  21  39  61  94 127 170 217 271 334 404
#     4  11  22  38  67  93 130 181 214 270 346 404
#     4  11  23  37  60  98 143 175 211 271 340 420
#     4  11  24  41  64  91 131 169 214 274 334 395
#     4  11  22  41  63  92 132 170 214 274 331 401
#     4   9  21  44  69  92 124 175 232 274 330 412
#     4  12  24  40  62  93 129 171 224 271 333 413
#     4   9  20  40  62  89 128 166 224 279 327 395
#
# _framework density 20.149017000000001
#
# number of rings (size 3 to 8) (size 9 to 14) (size 15 to 20)
#    0.000    1.375    3.750    1.875    3.500    0.750 
#    6.750    0.000    0.000    0.000    0.000    0.000 
#    0.000    0.000    0.000    0.000    0.000    0.000 
#
# Total GULP energy -356399.161561 kJ/mol
# GULP energy per Si atom -5568.736899 kJ/mol
# Density = 2.010316 g / cm^3
# Si number density = 20.149017 Si / 1000 Ang^3
#
#
#
# Elastic Constant Matrix: (Units=GPa)
#
#
# Indices 1 2 3 4 5 6 
#
# 1 103.8571 45.2924 43.3123 0.0000 0.0000 0.0000
# 2 45.2924 103.8571 43.3123 0.0000 0.0000 0.0000
# 3 43.3123 43.3123 112.2095 0.0000 0.0000 0.0000
# 4 0.0000 0.0000 0.0000 14.8653 0.0000 0.0000
# 5 0.0000 0.0000 0.0000 0.0000 14.8653 0.0000
# 6 0.0000 0.0000 0.0000 0.0000 0.0000 11.6240
#
#
#
# Elastic Compliance Matrix: (Units=1/GPa)
#
#
# Indices 1 2 3 4 5 6 
#
# 1 0.012859 -0.004217 -0.003336 0.000000 0.000000 0.000000
# 2 -0.004217 0.012859 -0.003336 0.000000 0.000000 0.000000
# 3 -0.003336 -0.003336 0.011487 0.000000 0.000000 0.000000
# 4 0.000000 0.000000 0.000000 0.067271 0.000000 0.000000
# 5 0.000000 0.000000 0.000000 0.000000 0.067271 0.000000
# 6 0.000000 0.000000 0.000000 0.000000 0.000000 0.086029
#
#
# Mechanical properties :
#
#
# Convention : Reuss Voigt Hill
#
# Bulk Modulus (GPa) = 64.81694 64.86198 64.83946
# Shear Modulus (GPa) = 17.56275 20.80470 19.18373
#
# Velocity S-wave (km/s) = 2.95556 3.21680 3.08895
# Velocity P-wave (km/s) = 6.62463 6.78661 6.70611
#
# Compressibility (1/GPa) = 0.01542807
#
# Stress axis : x y z
#
# Youngs Moduli (GPa) = 77.76887 77.76887 87.05406
#
# Poissons Ratio (x) = 0.32791 0.29040
# Poissons Ratio (y) = 0.32791 0.29040
# Poissons Ratio (z) = 0.25942 0.25942
#
# Static dielectric constant tensor:
#      x y z
#    x 1.764330 0.000000 0.000000 
#    y 0.000000 1.764330 0.000000 
#    z 0.000000 0.000000 1.766290 
# 
# From -- ./inp_files/5587.got.cif
#   From: 2010.05.17/outbox.cif.g08.bks.cpg/sg112_3_cif.got.tgz:5587.got - 2010.05.20 10:59:04.
