data_PCOD9555441
_publ_section_title
;
Structure prediction by ZEFSAII (Michael W. Deem and Ramdas Pophale) SiO2 
 PCOD9555441
Probable space group: P -4 21 M 
;
_chemical_formula_sum "Si O2"
_cell_formula_units_Z 56
_cell_length_a 14.986611
_cell_length_b 14.986611
_cell_length_c 13.893916
_cell_angle_alpha 90.000000
_cell_angle_beta 90.000000
_cell_angle_gamma 90.000000
_cell_volume 3120.552821
_symmetry_space_group_name_H-M "P -4 21 M "
_symmetry_group_IT_number 113
_symmetry_cell_setting 'tetragonal'
loop_
_space_group_symop_operation_xyz
x,y,z
y,-x,-z
-x,-y,z
-y,x,-z
1/2+x,1/2-y,-z
1/2-x,1/2+y,-z
1/2-y,1/2-x,z
1/2+y,1/2+x,z
loop_
_atom_site_type_symbol
_atom_site_label
_atom_site_fract_x
_atom_site_fract_y
_atom_site_fract_z
Si Si1 0.289169 0.546332 0.924835
Si Si2 0.537647 0.409415 0.794531
Si Si3 0.615327 0.590310 0.522348
Si Si4 0.449076 0.189392 0.264389
Si Si5 0.358710 0.640544 0.094370
Si Si6 0.836012 0.806575 0.337694
Si Si7 0.724606 0.636936 0.699373
O O1 0.377371 0.566383 0.860437
O O2 0.208456 0.553024 0.850293
O O3 0.308167 0.443314 0.952743
O O4 0.288288 0.616375 0.011718
O O5 0.500000 0.500000 0.744098
O O6 0.457352 0.383171 0.864403
O O7 0.576089 0.334696 0.723029
O O8 0.619518 0.484224 0.506021
O O9 0.682713 0.637735 0.448567
O O10 0.642192 0.615122 0.630421
O O11 0.406686 0.093314 0.285857
O O12 0.382516 0.262686 0.311299
O O13 0.548487 0.213860 0.296636
O O14 0.340101 0.694023 0.192159
O O15 0.787136 0.712865 0.316118
O O16 0.781412 0.718589 0.660379
#
# Coordination Sequence:
#
# PCOD9555441 Si02
#       7
#     8   8   8   8   8   8   8
#     4   9  16  26  48  77 103 135 170 210 258 311
#     4   9  17  26  49  76 106 136 173 213 259 320
#     4  11  22  35  57  81 103 134 168 217 274 334
#     4   9  19  35  52  71  98 137 180 215 249 307
#     4  10  17  29  48  77 107 139 169 212 264 309
#     4  10  19  33  51  75 106 137 169 213 264 320
#     4  11  23  37  51  76 110 138 175 220 266 316
#
# _framework density 17.945537999999999
#
# number of rings (size 3 to 8) (size 9 to 14) (size 15 to 20)
#    0.000    2.143    2.857    2.143    2.000    0.857 
#    0.000    0.000    0.000    0.000    0.000    0.000 
#    0.000    5.143    0.000    0.000    0.000    0.000 
#
# Total GULP energy -311929.407607 kJ/mol
# GULP energy per Si atom -5570.167993 kJ/mol
# Density = 1.790469 g / cm^3
# Si number density = 17.945538 Si / 1000 Ang^3
#
#
#
# Elastic Constant Matrix: (Units=GPa)
#
#
# Indices 1 2 3 4 5 6 
#
# 1 41.8717 28.7631 12.9879 0.0000 0.0000 0.0000
# 2 28.7631 41.8706 12.9876 0.0000 0.0000 0.0000
# 3 12.9879 12.9876 69.3583 0.0000 0.0000 0.0000
# 4 0.0000 0.0000 0.0000 16.1187 0.0000 0.0000
# 5 0.0000 0.0000 0.0000 0.0000 16.1187 0.0000
# 6 0.0000 0.0000 0.0000 0.0000 0.0000 30.9477
#
#
#
# Elastic Compliance Matrix: (Units=1/GPa)
#
#
# Indices 1 2 3 4 5 6 
#
# 1 0.045746 -0.030542 -0.002847 0.000000 0.000000 0.000000
# 2 -0.030542 0.045747 -0.002847 0.000000 0.000000 0.000000
# 3 -0.002847 -0.002847 0.015484 0.000000 0.000000 0.000000
# 4 0.000000 0.000000 0.000000 0.062040 0.000000 0.000000
# 5 0.000000 0.000000 0.000000 0.000000 0.062040 0.000000
# 6 0.000000 0.000000 0.000000 0.000000 0.000000 0.032313
#
#
# Mechanical properties :
#
#
# Convention : Reuss Voigt Hill
#
# Bulk Modulus (GPa) = 28.98167 29.17532 29.07850
# Shear Modulus (GPa) = 14.39491 19.19446 16.79469
#
# Velocity S-wave (km/s) = 2.83529 3.27401 3.06252
# Velocity P-wave (km/s) = 5.18684 5.53039 5.36137
#
# Compressibility (1/GPa) = 0.03450457
#
# Stress axis : x y z
#
# Youngs Moduli (GPa) = 21.85967 21.85919 64.58212
#
# Poissons Ratio (x) = 0.66763 0.18388
# Poissons Ratio (y) = 0.66765 0.18387
# Poissons Ratio (z) = 0.06224 0.06223
#
# Static dielectric constant tensor:
#      x y z
#    x 1.624030 0.000000 0.000000 
#    y 0.000000 1.624030 0.000000 
#    z 0.000000 0.000000 1.657260 
# 
# From -- ./inp_files/2326.got.cif
#   From: 2010.05.17/outbox.cif.g08.bks.cpg/sg113_cif.got.tgz:2326.got - 2010.05.20 11:03:00.
