data_PCOD9555226
_publ_section_title
;
Structure prediction by ZEFSAII (Michael W. Deem and Ramdas Pophale) SiO2 
 PCOD9555226
Probable space group: P -4 2 C
;
_chemical_formula_sum "Si O2"
_cell_formula_units_Z 32
_cell_length_a 8.349596
_cell_length_b 8.349596
_cell_length_c 19.036219
_cell_angle_alpha 90.000000
_cell_angle_beta 90.000000
_cell_angle_gamma 90.000000
_cell_volume 1327.124349
_symmetry_space_group_name_H-M "P -4 2 C"
_symmetry_group_IT_number 112
_symmetry_cell_setting 'tetragonal'
loop_
_space_group_symop_operation_xyz
x,y,z
y,-x,-z
-x,-y,z
-y,x,-z
x,-y,1/2-z
-x,y,1/2-z
-y,-x,1/2+z
y,x,1/2+z
loop_
_atom_site_type_symbol
_atom_site_label
_atom_site_fract_x
_atom_site_fract_y
_atom_site_fract_z
Si Si1 0.221253 0.310951 0.079584
Si Si2 0.835607 0.439985 0.562758
Si Si3 0.590153 0.672334 0.829247
Si Si4 0.829093 0.818857 0.722762
O O1 0.401188 0.273534 0.051172
O O2 0.215071 0.469539 0.127797
O O3 0.180741 0.178837 0.138055
O O4 0.125992 0.345240 0.008739
O O5 0.739923 0.339120 0.618503
O O6 0.000000 0.500000 0.594547
O O7 0.500000 0.500000 0.826032
O O8 0.676573 0.725968 0.757124
O O9 0.000000 0.754535 0.750000
O O10 0.815084 0.000000 0.750000
#
# Coordination Sequence:
#
# PCOD9555226 Si02
#       4
#     8   8   8   8
#     4  11  23  41  66  98 137 176 239 289 345 423
#     4  11  23  40  67 101 135 181 226 297 357 416
#     4  10  23  43  66  99 133 180 235 286 350 412
#     4  11  26  46  68 101 144 190 233 288 356 433
#
# _framework density 24.112282
#
# number of rings (size 3 to 8) (size 9 to 14) (size 15 to 20)
#    0.000    1.250    2.500    2.250    3.500    8.000 
#    0.000    6.250    0.000    3.000    0.000    0.000 
#    0.000    0.000    0.000    0.000    0.000    0.000 
#
# Total GULP energy -178793.175235 kJ/mol
# GULP energy per Si atom -5587.286726 kJ/mol
# Density = 2.405740 g / cm^3
# Si number density = 24.112282 Si / 1000 Ang^3
#
#
#
# Elastic Constant Matrix: (Units=GPa)
#
#
# Indices 1 2 3 4 5 6 
#
# 1 75.6913 -8.1696 15.8117 0.0000 0.0000 0.0000
# 2 -8.1696 75.6913 15.8117 0.0000 0.0000 0.0000
# 3 15.8117 15.8117 164.8741 0.0000 0.0000 0.0000
# 4 0.0000 0.0000 0.0000 32.8610 0.0000 0.0000
# 5 0.0000 0.0000 0.0000 0.0000 32.8610 0.0000
# 6 0.0000 0.0000 0.0000 0.0000 0.0000 23.9725
#
#
#
# Elastic Compliance Matrix: (Units=1/GPa)
#
#
# Indices 1 2 3 4 5 6 
#
# 1 0.013716 0.001791 -0.001487 0.000000 0.000000 0.000000
# 2 0.001791 0.013716 -0.001487 0.000000 0.000000 0.000000
# 3 -0.001487 -0.001487 0.006350 0.000000 0.000000 0.000000
# 4 0.000000 0.000000 0.000000 0.030431 0.000000 0.000000
# 5 0.000000 0.000000 0.000000 0.000000 0.030431 0.000000
# 6 0.000000 0.000000 0.000000 0.000000 0.000000 0.041715
#
#
# Mechanical properties :
#
#
# Convention : Reuss Voigt Hill
#
# Bulk Modulus (GPa) = 31.83177 40.35156 36.09167
# Shear Modulus (GPa) = 33.51286 37.45911 35.48599
#
# Velocity S-wave (km/s) = 3.73214 3.94576 3.84043
# Velocity P-wave (km/s) = 5.63932 6.12616 5.88777
#
# Compressibility (1/GPa) = 0.03141515
#
# Stress axis : x y z
#
# Youngs Moduli (GPa) = 72.91007 72.91007 157.46881
#
# Poissons Ratio (x) = -0.13058 0.23417
# Poissons Ratio (y) = -0.13058 0.23417
# Poissons Ratio (z) = 0.10842 0.10842
#
# Static dielectric constant tensor:
#      x y z
#    x 1.956370 0.000000 0.000000 
#    y 0.000000 1.956370 0.000000 
#    z 0.000000 0.000000 1.943500 
# 
# From -- ./inp_files/4534.got.cif
#   From: 2010.05.17/outbox.cif.g08.bks.cpg/sg112_3_cif.got.tgz:4534.got - 2010.05.20 10:59:04.
