data_PCOD9555957
_publ_section_title
;
Structure prediction by ZEFSAII (Michael W. Deem and Ramdas Pophale) SiO2 
 PCOD9555957
Probable space group: P -4 21 C
;
_chemical_formula_sum "Si O2"
_cell_formula_units_Z 32
_cell_length_a 7.566018
_cell_length_b 7.566018
_cell_length_c 24.442501
_cell_angle_alpha 90.000000
_cell_angle_beta 90.000000
_cell_angle_gamma 90.000000
_cell_volume 1399.201886
_symmetry_space_group_name_H-M "P -4 21 C"
_symmetry_group_IT_number 114
_symmetry_cell_setting 'tetragonal'
loop_
_space_group_symop_operation_xyz
x,y,z
y,-x,-z
-x,-y,z
-y,x,-z
1/2+x,1/2-y,1/2-z
1/2-x,1/2+y,1/2-z
1/2-y,1/2-x,1/2+z
1/2+y,1/2+x,1/2+z
loop_
_atom_site_type_symbol
_atom_site_label
_atom_site_fract_x
_atom_site_fract_y
_atom_site_fract_z
Si Si1 0.726767 0.233470 0.933999
Si Si2 0.500000 0.500000 0.500000
Si Si3 0.500000 0.000000 0.613953
Si Si4 0.000000 0.000000 0.500000
Si Si5 0.755270 0.620957 0.800591
Si Si6 0.390386 0.776501 0.815761
O O1 0.667157 0.158781 0.875104
O O2 0.859244 0.397158 0.921943
O O3 0.563611 0.330772 0.964336
O O4 0.838631 0.087146 0.966095
O O5 0.410236 0.859233 0.655300
O O6 0.600350 0.758737 0.811277
O O7 0.681658 0.424898 0.811597
O O8 0.817623 0.631775 0.738387
#
# Coordination Sequence:
#
# PCOD9555957 Si02
#       6
#     8   2   4   2   8   8
#     4  11  24  43  66  93 128 172 221 277 328 382
#     4  12  28  44  64 102 132 164 224 292 328 366
#     4  10  20  40  64  92 128 168 210 266 330 400
#     4  12  24  48  72  90 124 184 236 264 320 398
#     4  10  20  36  60  93 127 162 207 255 322 403
#     4  10  21  37  60  91 127 168 208 258 323 393
#
# _framework density 22.870180000000001
#
# number of rings (size 3 to 8) (size 9 to 14) (size 15 to 20)
#    0.000    1.500    0.000    7.500    0.000    4.000 
#    0.000    5.000    0.000    0.000    0.000    0.000 
#    0.000    0.000    0.000    0.000    0.000    0.000 
#
# Total GULP energy -179000.095958 kJ/mol
# GULP energy per Si atom -5593.752999 kJ/mol
# Density = 2.281813 g / cm^3
# Si number density = 22.870180 Si / 1000 Ang^3
#
#
#
# Elastic Constant Matrix: (Units=GPa)
#
#
# Indices 1 2 3 4 5 6 
#
# 1 72.2003 10.7642 41.7131 0.0000 0.0000 0.0000
# 2 10.7642 72.2003 41.7131 0.0000 0.0000 0.0000
# 3 41.7131 41.7131 134.1771 0.0000 0.0000 0.0000
# 4 0.0000 0.0000 0.0000 14.1627 0.0000 0.0000
# 5 0.0000 0.0000 0.0000 0.0000 14.1627 0.0000
# 6 0.0000 0.0000 0.0000 0.0000 0.0000 33.1250
#
#
#
# Elastic Compliance Matrix: (Units=1/GPa)
#
#
# Indices 1 2 3 4 5 6 
#
# 1 0.016906 0.000629 -0.005451 0.000000 0.000000 0.000000
# 2 0.000629 0.016906 -0.005451 0.000000 0.000000 0.000000
# 3 -0.005451 -0.005451 0.010842 0.000000 0.000000 0.000000
# 4 0.000000 0.000000 0.000000 0.070608 0.000000 0.000000
# 5 0.000000 0.000000 0.000000 0.000000 0.070608 0.000000
# 6 0.000000 0.000000 0.000000 0.000000 0.000000 0.030189
#
#
# Mechanical properties :
#
#
# Convention : Reuss Voigt Hill
#
# Bulk Modulus (GPa) = 41.48165 51.88426 46.68295
# Shear Modulus (GPa) = 20.43804 24.58257 22.51031
#
# Velocity S-wave (km/s) = 2.99265 3.28208 3.14070
# Velocity P-wave (km/s) = 5.48803 6.09085 5.79728
#
# Compressibility (1/GPa) = 0.02410705
#
# Stress axis : x y z
#
# Youngs Moduli (GPa) = 59.15048 59.15048 92.23186
#
# Poissons Ratio (x) = -0.03720 0.50278
# Poissons Ratio (y) = -0.03720 0.50278
# Poissons Ratio (z) = 0.32245 0.32245
#
# Static dielectric constant tensor:
#      x y z
#    x 1.898780 0.000000 0.000000 
#    y 0.000000 1.898780 0.000000 
#    z 0.000000 0.000000 1.823430 
# 
# From -- ./inp_files/2900.got.cif
#   From: 2010.05.17/outbox.cif.g08.bks.cpg/sg114_2_cif.got.tgz:2900.got - 2010.05.20 11:04:54.
