data_PCOD9555907
_publ_section_title
;
Structure prediction by ZEFSAII (Michael W. Deem and Ramdas Pophale) SiO2 
 PCOD9555907
Probable space group: P -4 21 C
;
_chemical_formula_sum "Si O2"
_cell_formula_units_Z 52
_cell_length_a 14.911584
_cell_length_b 14.911584
_cell_length_c 9.993483
_cell_angle_alpha 90.000000
_cell_angle_beta 90.000000
_cell_angle_gamma 90.000000
_cell_volume 2222.104284
_symmetry_space_group_name_H-M "P -4 21 C"
_symmetry_group_IT_number 114
_symmetry_cell_setting 'tetragonal'
loop_
_space_group_symop_operation_xyz
x,y,z
y,-x,-z
-x,-y,z
-y,x,-z
1/2+x,1/2-y,1/2-z
1/2-x,1/2+y,1/2-z
1/2-y,1/2-x,1/2+z
1/2+y,1/2+x,1/2+z
loop_
_atom_site_type_symbol
_atom_site_label
_atom_site_fract_x
_atom_site_fract_y
_atom_site_fract_z
Si Si1 0.827656 0.087266 0.815255
Si Si2 0.600053 0.335979 0.897646
Si Si3 0.428273 0.869405 0.203975
Si Si4 0.500000 0.500000 0.187335
Si Si5 0.345939 0.251109 0.884559
Si Si6 0.642628 0.276262 0.604656
Si Si7 0.512365 0.142225 0.932647
O O1 0.732592 0.056269 0.753040
O O2 0.843085 0.185172 0.746333
O O3 0.912280 0.027914 0.772576
O O4 0.812922 0.094139 0.973676
O O5 0.525435 0.411892 0.896245
O O6 0.620562 0.324717 0.741897
O O7 0.566484 0.237780 0.943200
O O8 0.683499 0.363572 0.988859
O O9 0.329113 0.875399 0.134388
O O10 0.420803 0.932308 0.333190
O O11 0.495221 0.892272 0.083959
O O12 0.248339 0.213203 0.913661
O O13 0.418237 0.173369 0.873195
#
# Coordination Sequence:
#
# PCOD9555907 Si02
#       7
#     8   8   8   4   8   8   8
#     4  11  21  37  59  88 134 178 209 263 324 406
#     4  11  23  37  57  93 138 177 205 266 334 404
#     4  10  19  38  59  86 126 176 226 263 323 393
#     4  12  26  38  58 102 148 166 204 268 356 388
#     4  11  21  38  63  92 121 171 227 272 313 385
#     4  10  21  39  59  81 127 184 227 251 319 401
#     4  11  20  37  62  92 124 171 229 270 321 395
#
# _framework density 23.401240000000001
#
# number of rings (size 3 to 8) (size 9 to 14) (size 15 to 20)
#    0.000    1.231    6.154    2.769    0.000    2.462 
#    0.000    0.000    0.000    0.000    0.000   22.615 
#    0.000    0.000    0.000    0.000    0.000    0.000 
#
# Total GULP energy -291058.688282 kJ/mol
# GULP energy per Si atom -5597.282467 kJ/mol
# Density = 2.334798 g / cm^3
# Si number density = 23.401240 Si / 1000 Ang^3
#
#
#
# Elastic Constant Matrix: (Units=GPa)
#
#
# Indices 1 2 3 4 5 6 
#
# 1 45.8717 23.0933 10.9729 0.0000 0.0000 0.0000
# 2 23.0933 45.8717 10.9729 0.0000 0.0000 0.0000
# 3 10.9729 10.9729 152.2105 0.0000 0.0000 0.0000
# 4 0.0000 0.0000 0.0000 27.4637 0.0000 0.0000
# 5 0.0000 0.0000 0.0000 0.0000 27.4637 0.0000
# 6 0.0000 0.0000 0.0000 0.0000 0.0000 43.4800
#
#
#
# Elastic Compliance Matrix: (Units=1/GPa)
#
#
# Indices 1 2 3 4 5 6 
#
# 1 0.029371 -0.014530 -0.001070 0.000000 0.000000 0.000000
# 2 -0.014530 0.029371 -0.001070 0.000000 0.000000 0.000000
# 3 -0.001070 -0.001070 0.006724 0.000000 0.000000 0.000000
# 4 0.000000 0.000000 0.000000 0.036412 0.000000 0.000000
# 5 0.000000 0.000000 0.000000 0.000000 0.036412 0.000000
# 6 0.000000 0.000000 0.000000 0.000000 0.000000 0.022999
#
#
# Mechanical properties :
#
#
# Convention : Reuss Voigt Hill
#
# Bulk Modulus (GPa) = 31.12763 37.11467 34.12115
# Shear Modulus (GPa) = 24.35021 32.94247 28.64634
#
# Velocity S-wave (km/s) = 3.22926 3.75603 3.50256
# Velocity P-wave (km/s) = 5.21869 5.89109 5.56506
#
# Compressibility (1/GPa) = 0.03212580
#
# Stress axis : x y z
#
# Youngs Moduli (GPa) = 34.04730 34.04730 148.71867
#
# Poissons Ratio (x) = 0.49472 0.15911
# Poissons Ratio (y) = 0.49472 0.15911
# Poissons Ratio (z) = 0.03643 0.03643
#
# Static dielectric constant tensor:
#      x y z
#    x 1.874620 0.000000 0.000000 
#    y 0.000000 1.874620 0.000000 
#    z 0.000000 0.000000 1.909110 
# 
# From -- ./inp_files/958.got.cif
#   From: 2010.05.17/outbox.cif.g08.bks.cpg/sg114_1_cif.got.tgz:958.got - 2010.05.20 11:04:54.
