data_PCOD9555811
_publ_section_title
;
Structure prediction by ZEFSAII (Michael W. Deem and Ramdas Pophale) SiO2 
 PCOD9555811
Probable space group: P -4 21 M 
;
_chemical_formula_sum "Si O2"
_cell_formula_units_Z 64
_cell_length_a 12.000000
_cell_length_b 12.000000
_cell_length_c 24.000000
_cell_angle_alpha 90.000000
_cell_angle_beta 90.000000
_cell_angle_gamma 90.000000
_cell_volume 3456.000000
_symmetry_space_group_name_H-M "P -4 21 M "
_symmetry_group_IT_number 113
_symmetry_cell_setting 'tetragonal'
loop_
_space_group_symop_operation_xyz
x,y,z
y,-x,-z
-x,-y,z
-y,x,-z
1/2+x,1/2-y,-z
1/2-x,1/2+y,-z
1/2-y,1/2-x,z
1/2+y,1/2+x,z
loop_
_atom_site_type_symbol
_atom_site_label
_atom_site_fract_x
_atom_site_fract_y
_atom_site_fract_z
Si Si1 0.440211 0.248540 0.940053
Si Si2 0.934396 0.754326 0.942271
Si Si3 0.327169 0.475999 0.521317
Si Si4 0.348677 0.658922 0.237277
Si Si5 0.244542 0.438049 0.177501
Si Si6 0.820829 0.509282 0.421406
Si Si7 0.653860 0.655214 0.632476
Si Si8 0.251096 0.066627 0.170746
O O1 0.354067 0.145934 0.944560
O O2 0.365130 0.359802 0.933244
O O3 0.515661 0.231643 0.885471
O O4 0.510347 0.257051 0.996810
O O5 0.849738 0.650263 0.938732
O O6 0.024839 0.743772 0.893262
O O7 0.386941 0.593957 0.510927
O O8 0.214794 0.478766 0.485848
O O9 0.322988 0.438580 0.585497
O O10 0.252099 0.752099 0.232712
O O11 0.292905 0.544355 0.212860
O O12 0.378017 0.644444 0.302927
O O13 0.457241 0.709278 0.205344
O O14 0.129432 0.370569 0.193817
O O15 0.341039 0.345010 0.177544
O O16 0.875683 0.624318 0.401415
O O17 0.717169 0.459661 0.387197
O O18 0.915314 0.415314 0.417088
O O19 0.754041 0.745960 0.628245
O O20 0.368011 0.131990 0.184879
#
# Coordination Sequence:
#
# PCOD9555811 Si02
#       8
#     8   8   8   8   8   8   8   8
#     4  11  23  38  59  91 124 158 202 251 309 370
#     4  11  23  38  60  90 122 160 203 250 309 370
#     4   9  17  32  52  82 114 147 190 231 288 344
#     4  11  23  41  64  90 120 163 208 251 311 365
#     4  11  24  42  63  89 122 162 206 256 313 370
#     4   9  17  31  53  81 114 152 192 238 294 353
#     4   9  19  35  57  83 115 151 191 240 289 349
#     4  11  24  43  64  88 119 161 211 256 308 370
#
# _framework density 18.518519000000001
#
# number of rings (size 3 to 8) (size 9 to 14) (size 15 to 20)
#    0.000    1.750    1.250    3.000    0.000    7.500 
#    9.000    1.875    0.000    0.750    0.000    0.000 
#    0.000    0.000    0.000    0.000    0.000    0.000 
#
# Total GULP energy -357084.096772 kJ/mol
# GULP energy per Si atom -5579.439012 kJ/mol
# Density = 1.847637 g / cm^3
# Si number density = 18.518519 Si / 1000 Ang^3
#
#
#
# Elastic Constant Matrix: (Units=GPa)
#
#
# Indices 1 2 3 4 5 6 
#
# 1 78.0029 21.7870 26.3910 0.0000 0.0000 0.0000
# 2 21.7870 78.0015 26.3907 0.0000 0.0000 0.0000
# 3 26.3910 26.3907 125.7809 0.0000 0.0000 0.0000
# 4 0.0000 0.0000 0.0000 28.4319 0.0000 0.0000
# 5 0.0000 0.0000 0.0000 0.0000 28.4316 0.0000
# 6 0.0000 0.0000 0.0000 0.0000 0.0000 21.0828
#
#
#
# Elastic Compliance Matrix: (Units=1/GPa)
#
#
# Indices 1 2 3 4 5 6 
#
# 1 0.014530 -0.003258 -0.002365 0.000000 0.000000 0.000000
# 2 -0.003258 0.014531 -0.002365 0.000000 0.000000 0.000000
# 3 -0.002365 -0.002365 0.008943 0.000000 0.000000 0.000000
# 4 0.000000 0.000000 0.000000 0.035172 0.000000 0.000000
# 5 0.000000 0.000000 0.000000 0.000000 0.035172 0.000000
# 6 0.000000 0.000000 0.000000 0.000000 0.000000 0.047432
#
#
# Mechanical properties :
#
#
# Convention : Reuss Voigt Hill
#
# Bulk Modulus (GPa) = 45.39943 47.88028 46.63986
# Shear Modulus (GPa) = 27.91754 29.40368 28.66061
#
# Velocity S-wave (km/s) = 3.88693 3.98904 3.93832
# Velocity P-wave (km/s) = 6.68679 6.86499 6.77648
#
# Compressibility (1/GPa) = 0.02202671
#
# Stress axis : x y z
#
# Youngs Moduli (GPa) = 68.82167 68.82046 111.82190
#
# Poissons Ratio (x) = 0.22424 0.26447
# Poissons Ratio (y) = 0.22425 0.26447
# Poissons Ratio (z) = 0.16277 0.16276
#
# Static dielectric constant tensor:
#      x y z
#    x 1.655360 0.000000 0.000000 
#    y 0.000000 1.655360 0.000000 
#    z 0.000000 0.000000 1.624990 
# 
# From -- ./inp_files/2916.got.cif
#   From: 2010.05.17/outbox.ucp.g08.bks.cvg/sg113_cif.got.tgz:2916.got - 2010.06.11 11:33:17.
