data_PCOD9555348
_publ_section_title
;
Structure prediction by ZEFSAII (Michael W. Deem and Ramdas Pophale) SiO2 
 PCOD9555348
Probable space group: P -4 2 C
;
_chemical_formula_sum "Si O2"
_cell_formula_units_Z 48
_cell_length_a 9.195956
_cell_length_b 9.195956
_cell_length_c 27.212899
_cell_angle_alpha 90.000000
_cell_angle_beta 90.000000
_cell_angle_gamma 90.000000
_cell_volume 2301.275315
_symmetry_space_group_name_H-M "P -4 2 C"
_symmetry_group_IT_number 112
_symmetry_cell_setting 'tetragonal'
loop_
_space_group_symop_operation_xyz
x,y,z
y,-x,-z
-x,-y,z
-y,x,-z
x,-y,1/2-z
-x,y,1/2-z
-y,-x,1/2+z
y,x,1/2+z
loop_
_atom_site_type_symbol
_atom_site_label
_atom_site_fract_x
_atom_site_fract_y
_atom_site_fract_z
Si Si1 0.197523 0.851166 0.574139
Si Si2 0.338894 0.059472 0.027788
Si Si3 0.553819 0.149657 0.805507
Si Si4 0.386259 0.391070 0.370932
Si Si5 0.596409 0.143874 0.374652
Si Si6 0.865017 0.916276 0.662059
O O1 0.267205 0.907659 0.523926
O O2 0.303478 0.729940 0.597134
O O3 0.053553 0.766431 0.556056
O O4 0.170609 0.979888 0.614261
O O5 0.365075 0.185563 0.068591
O O6 0.500000 0.000000 0.017679
O O7 0.500000 0.159541 0.750000
O O8 0.488849 0.288020 0.834181
O O9 0.724212 0.115416 0.805498
O O10 0.500000 0.000000 0.830453
O O11 0.500000 0.500000 0.396654
O O12 0.496216 0.267045 0.349884
O O13 0.750031 0.101115 0.351742
O O14 0.500000 0.000000 0.376810
O O15 0.000000 0.000000 0.685857
#
# Coordination Sequence:
#
# PCOD9555348 Si02
#       6
#     8   8   8   8   8   8
#     4  12  25  41  67  99 138 192 245 288 348 413
#     4  11  24  40  59  94 144 185 239 296 336 412
#     4  11  26  48  74 108 140 179 238 300 369 448
#     4  12  24  44  72 100 138 187 234 300 366 432
#     4  11  22  44  63 100 143 183 235 286 348 412
#     4  12  23  43  79 102 134 190 238 291 357 432
#
# _framework density 20.858000000000001
#
# number of rings (size 3 to 8) (size 9 to 14) (size 15 to 20)
#    0.000    0.500    8.333    1.000    2.333    1.667 
#    0.000    1.667    0.000    1.000    0.000    0.000 
#    0.000    0.000    0.000    0.000    0.000    0.000 
#
# Total GULP energy -267423.218046 kJ/mol
# GULP energy per Si atom -5571.317043 kJ/mol
# Density = 2.081053 g / cm^3
# Si number density = 20.858000 Si / 1000 Ang^3
#
#
#
# Elastic Constant Matrix: (Units=GPa)
#
#
# Indices 1 2 3 4 5 6 
#
# 1 151.9017 60.6205 50.4202 0.0000 0.0000 0.0000
# 2 60.6205 151.9017 50.4202 0.0000 0.0000 0.0000
# 3 50.4202 50.4202 70.1723 0.0000 0.0000 0.0000
# 4 0.0000 0.0000 0.0000 -198.2013 0.0000 0.0000
# 5 0.0000 0.0000 0.0000 0.0000 -198.2013 0.0000
# 6 0.0000 0.0000 0.0000 0.0000 0.0000 45.8058
#
#
#
# Elastic Compliance Matrix: (Units=1/GPa)
#
#
# Indices 1 2 3 4 5 6 
#
# 1 0.009047 -0.001908 -0.005130 0.000000 0.000000 0.000000
# 2 -0.001908 0.009047 -0.005130 0.000000 0.000000 0.000000
# 3 -0.005130 -0.005130 0.021622 0.000000 0.000000 0.000000
# 4 0.000000 0.000000 0.000000 -0.005045 0.000000 0.000000
# 5 0.000000 0.000000 0.000000 0.000000 -0.005045 0.000000
# 6 0.000000 0.000000 0.000000 0.000000 0.000000 0.021831
#
#
# Mechanical properties :
#
#
# Convention : Reuss Voigt Hill
#
# Bulk Modulus (GPa) = 65.01114 77.43305 71.22210
# Shear Modulus (GPa) = 61.78939 -55.95172 2.91883
#
# Velocity S-wave (km/s) = 5.44868 -5.18491 1.18424
# Velocity P-wave (km/s) = 8.41548 1.16623 6.00751
#
# Compressibility (1/GPa) = 0.01538198
#
# Stress axis : x y z
#
# Youngs Moduli (GPa) = 110.53003 110.53003 46.24824
#
# Poissons Ratio (x) = 0.21087 0.23725
# Poissons Ratio (y) = 0.21087 0.23725
# Poissons Ratio (z) = 0.56700 0.56700
#
# Static dielectric constant tensor:
#      x y z
#    x 1.789230 0.000000 0.000000 
#    y 0.000000 1.789230 0.000000 
#    z 0.000000 0.000000 1.774020 
# 
# From -- ./inp_files/6258.got.cif
#   From: 2010.05.17/outbox.cif.g08.bks.cpg/sg112_4_cif.got.tgz:6258.got - 2010.05.20 10:59:04.
