data_PCOD9555729
_publ_section_title
;
Structure prediction by ZEFSAII (Michael W. Deem and Ramdas Pophale) SiO2 
 PCOD9555729
Probable space group: P -4 21 M 
;
_chemical_formula_sum "Si O2"
_cell_formula_units_Z 40
_cell_length_a 16.461749
_cell_length_b 16.461749
_cell_length_c 6.050485
_cell_angle_alpha 90.000000
_cell_angle_beta 90.000000
_cell_angle_gamma 90.000000
_cell_volume 1639.615970
_symmetry_space_group_name_H-M "P -4 21 M "
_symmetry_group_IT_number 113
_symmetry_cell_setting 'tetragonal'
loop_
_space_group_symop_operation_xyz
x,y,z
y,-x,-z
-x,-y,z
-y,x,-z
1/2+x,1/2-y,-z
1/2-x,1/2+y,-z
1/2-y,1/2-x,z
1/2+y,1/2+x,z
loop_
_atom_site_type_symbol
_atom_site_label
_atom_site_fract_x
_atom_site_fract_y
_atom_site_fract_z
Si Si1 0.515130 0.708938 0.013852
Si Si2 0.599582 0.228241 0.375081
Si Si3 0.866198 0.500533 0.288639
Si Si4 0.158098 0.791330 0.645391
Si Si5 0.110972 0.040563 0.611514
O O1 0.439528 0.720453 0.179659
O O2 0.601413 0.701306 0.140729
O O3 0.513878 0.793287 0.879638
O O4 0.506952 0.631709 0.851293
O O5 0.673183 0.173183 0.287264
O O6 0.530433 0.171232 0.478898
O O7 0.638450 0.276185 0.585818
O O8 0.925988 0.574013 0.214096
O O9 0.921556 0.421556 0.314111
O O10 0.207685 0.707685 0.639317
O O11 0.093436 0.810392 0.452016
O O12 0.031644 0.093874 0.561754
#
# Coordination Sequence:
#
# PCOD9555729 Si02
#       5
#     8   8   8   8   8
#     4  12  24  44  73 102 137 187 238 286 350 426
#     4  10  24  47  72 103 144 184 228 288 355 422
#     4  10  22  42  71 107 144 182 230 290 353 421
#     4  11  25  45  70 104 143 182 231 293 354 418
#     4  11  27  50  72 100 139 186 240 296 350 414
#
# _framework density 24.395956999999999
#
# number of rings (size 3 to 8) (size 9 to 14) (size 15 to 20)
#    0.000    1.200    0.000    4.800    0.000   11.200 
#    0.000   17.000    0.000    0.000    0.000    0.000 
#    0.000    0.000    0.000    0.000    0.000    0.000 
#
# Total GULP energy -223636.823077 kJ/mol
# GULP energy per Si atom -5590.920577 kJ/mol
# Density = 2.434043 g / cm^3
# Si number density = 24.395957 Si / 1000 Ang^3
#
#
#
# Elastic Constant Matrix: (Units=GPa)
#
#
# Indices 1 2 3 4 5 6 
#
# 1 121.3247 58.4773 56.9732 0.0000 0.0000 0.0000
# 2 58.4773 121.3241 56.9731 0.0000 0.0000 0.0000
# 3 56.9732 56.9731 104.5726 0.0000 0.0000 0.0000
# 4 0.0000 0.0000 0.0000 39.4050 0.0000 0.0000
# 5 0.0000 0.0000 0.0000 0.0000 39.4049 0.0000
# 6 0.0000 0.0000 0.0000 0.0000 0.0000 46.0898
#
#
#
# Elastic Compliance Matrix: (Units=1/GPa)
#
#
# Indices 1 2 3 4 5 6 
#
# 1 0.012203 -0.003709 -0.004628 0.000000 0.000000 0.000000
# 2 -0.003709 0.012203 -0.004628 0.000000 0.000000 0.000000
# 3 -0.004628 -0.004628 0.014606 0.000000 0.000000 0.000000
# 4 0.000000 0.000000 0.000000 0.025377 0.000000 0.000000
# 5 0.000000 0.000000 0.000000 0.000000 0.025378 0.000000
# 6 0.000000 0.000000 0.000000 0.000000 0.000000 0.021697
#
#
# Mechanical properties :
#
#
# Convention : Reuss Voigt Hill
#
# Bulk Modulus (GPa) = 76.43663 76.89649 76.66656
# Shear Modulus (GPa) = 35.27245 36.63314 35.95280
#
# Velocity S-wave (km/s) = 3.80653 3.87926 3.84307
# Velocity P-wave (km/s) = 7.12175 7.18704 7.15447
#
# Compressibility (1/GPa) = 0.01308273
#
# Stress axis : x y z
#
# Youngs Moduli (GPa) = 81.94646 81.94598 68.46687
#
# Poissons Ratio (x) = 0.30390 0.31687
# Poissons Ratio (y) = 0.30390 0.31687
# Poissons Ratio (z) = 0.37925 0.37925
#
# Static dielectric constant tensor:
#      x y z
#    x 1.996110 0.000000 0.000000 
#    y 0.000000 1.996110 0.000000 
#    z 0.000000 0.000000 1.949020 
# 
# From -- ./inp_files/333.got.cif
#   From: 2010.05.17/outbox.cif.g08.bks.cpg/sg113_cif.got.tgz:333.got - 2010.05.20 11:03:00.
