data_PCOD9555113
_publ_section_title
;
Structure prediction by ZEFSAII (Michael W. Deem and Ramdas Pophale) SiO2 
 PCOD9555113
Probable space group: P -4 2 C
;
_chemical_formula_sum "Si O2"
_cell_formula_units_Z 40
_cell_length_a 14.838175
_cell_length_b 14.838175
_cell_length_c 9.301699
_cell_angle_alpha 90.000000
_cell_angle_beta 90.000000
_cell_angle_gamma 90.000000
_cell_volume 2047.968438
_symmetry_space_group_name_H-M "P -4 2 C"
_symmetry_group_IT_number 112
_symmetry_cell_setting 'tetragonal'
loop_
_space_group_symop_operation_xyz
x,y,z
y,-x,-z
-x,-y,z
-y,x,-z
x,-y,1/2-z
-x,y,1/2-z
-y,-x,1/2+z
y,x,1/2+z
loop_
_atom_site_type_symbol
_atom_site_label
_atom_site_fract_x
_atom_site_fract_y
_atom_site_fract_z
Si Si1 0.263978 0.531282 0.093723
Si Si2 0.701735 0.855374 0.000620
Si Si3 0.187380 0.718196 0.679430
Si Si4 0.583992 0.662120 0.352163
Si Si5 0.395424 0.977019 0.078863
O O1 0.230898 0.500000 0.250000
O O2 0.364131 0.572364 0.108730
O O3 0.202159 0.609122 0.024759
O O4 0.280946 0.448798 0.988521
O O5 0.736976 0.853476 0.164570
O O6 0.667722 0.957552 0.984667
O O7 0.775587 0.805988 0.902306
O O8 0.275108 0.658911 0.719652
O O9 0.120000 0.654596 0.586171
O O10 0.500000 0.647205 0.250000
O O11 0.500000 0.000000 0.035445
O O12 0.395925 0.000000 0.250000
#
# Coordination Sequence:
#
# PCOD9555113 Si02
#       5
#     8   8   8   8   8
#     4  11  23  33  51  75 109 148 194 240 281 335
#     4  10  21  38  58  84 113 148 189 236 302 352
#     4  10  21  36  61  81 113 149 187 238 296 358
#     4  11  21  35  50  73 104 149 191 232 284 332
#     4   9  18  35  62  90 110 149 200 241 281 351
#
# _framework density 19.531551
#
# number of rings (size 3 to 8) (size 9 to 14) (size 15 to 20)
#    0.000    1.800    2.000    2.400   11.200    2.400 
#    0.000    1.000    0.000    0.600    0.000    4.200 
#    0.000    0.000    0.000    0.000    0.000    0.000 
#
# Total GULP energy -222758.723012 kJ/mol
# GULP energy per Si atom -5568.968075 kJ/mol
# Density = 1.948710 g / cm^3
# Si number density = 19.531551 Si / 1000 Ang^3
#
#
#
# Elastic Constant Matrix: (Units=GPa)
#
#
# Indices 1 2 3 4 5 6 
#
# 1 69.4319 39.9181 22.8402 0.0000 0.0000 0.0000
# 2 39.9181 69.4319 22.8402 0.0000 0.0000 0.0000
# 3 22.8402 22.8402 59.6255 0.0000 0.0000 0.0000
# 4 0.0000 0.0000 0.0000 37.3660 0.0000 0.0000
# 5 0.0000 0.0000 0.0000 0.0000 37.3660 0.0000
# 6 0.0000 0.0000 0.0000 0.0000 0.0000 21.8115
#
#
#
# Elastic Compliance Matrix: (Units=1/GPa)
#
#
# Indices 1 2 3 4 5 6 
#
# 1 0.022385 -0.011498 -0.004170 0.000000 0.000000 0.000000
# 2 -0.011498 0.022385 -0.004170 0.000000 0.000000 0.000000
# 3 -0.004170 -0.004170 0.019966 0.000000 0.000000 0.000000
# 4 0.000000 0.000000 0.000000 0.026762 0.000000 0.000000
# 5 0.000000 0.000000 0.000000 0.000000 0.026762 0.000000
# 6 0.000000 0.000000 0.000000 0.000000 0.000000 0.045847
#
#
# Mechanical properties :
#
#
# Convention : Reuss Voigt Hill
#
# Bulk Modulus (GPa) = 39.90594 41.07626 40.49110
# Shear Modulus (GPa) = 23.56956 26.83476 25.20216
#
# Velocity S-wave (km/s) = 3.47759 3.71066 3.59601
# Velocity P-wave (km/s) = 6.04985 6.27973 6.16586
#
# Compressibility (1/GPa) = 0.02505892
#
# Stress axis : x y z
#
# Youngs Moduli (GPa) = 44.67312 44.67312 50.08413
#
# Poissons Ratio (x) = 0.51364 0.20887
# Poissons Ratio (y) = 0.51364 0.20887
# Poissons Ratio (z) = 0.18631 0.18631
#
# Static dielectric constant tensor:
#      x y z
#    x 1.631220 0.000000 0.000000 
#    y 0.000000 1.631220 0.000000 
#    z 0.000000 0.000000 1.739440 
# 
# From -- ./inp_files/1219.got.cif
#   From: 2010.05.17/outbox.cif.g08.bks.cpg/sg112_1_cif.got.tgz:1219.got - 2010.05.20 10:59:04.
