data_PCOD9555965
_publ_section_title
;
Structure prediction by ZEFSAII (Michael W. Deem and Ramdas Pophale) SiO2 
 PCOD9555965
Probable space group: P -4 21 C
;
_chemical_formula_sum "Si O2"
_cell_formula_units_Z 40
_cell_length_a 7.765711
_cell_length_b 7.765711
_cell_length_c 26.586633
_cell_angle_alpha 90.000000
_cell_angle_beta 90.000000
_cell_angle_gamma 90.000000
_cell_volume 1603.340597
_symmetry_space_group_name_H-M "P -4 21 C"
_symmetry_group_IT_number 114
_symmetry_cell_setting 'tetragonal'
loop_
_space_group_symop_operation_xyz
x,y,z
y,-x,-z
-x,-y,z
-y,x,-z
1/2+x,1/2-y,1/2-z
1/2-x,1/2+y,1/2-z
1/2-y,1/2-x,1/2+z
1/2+y,1/2+x,1/2+z
loop_
_atom_site_type_symbol
_atom_site_label
_atom_site_fract_x
_atom_site_fract_y
_atom_site_fract_z
Si Si1 0.024620 0.802076 0.323529
Si Si2 0.367103 0.255516 0.486012
Si Si3 0.476839 0.801340 0.383039
Si Si4 0.189302 0.085976 0.572222
Si Si5 0.187083 0.410557 0.719921
O O1 0.997539 0.720132 0.378764
O O2 0.216371 0.798066 0.300463
O O3 0.907930 0.757582 0.276273
O O4 0.000000 0.000000 0.335734
O O5 0.276021 0.437966 0.494480
O O6 0.387271 0.237651 0.426360
O O7 0.280436 0.103188 0.518002
O O8 0.285610 0.796454 0.407710
O O9 0.502467 0.718049 0.327961
O O10 0.500000 0.000000 0.371285
O O11 0.000000 0.000000 0.564897
O O12 0.000000 0.500000 0.726758
#
# Coordination Sequence:
#
# PCOD9555965 Si02
#       5
#     8   8   8   8   8
#     4  10  20  37  61  91 125 160 207 259 313 379
#     4   9  18  38  63  93 129 164 211 261 316 384
#     4   9  19  38  59  83 123 169 206 250 317 380
#     4   9  19  38  63  91 128 164 208 264 317 378
#     4  10  20  37  59  87 121 166 205 251 313 372
#
# _framework density 24.947908999999999
#
# number of rings (size 3 to 8) (size 9 to 14) (size 15 to 20)
#    0.000    2.600    0.000    1.200    0.000    1.600 
#   21.600    1.000    0.000    0.000    5.200    0.000 
#    0.000    0.000    0.000    0.000    0.000    0.000 
#
# Total GULP energy -222797.791617 kJ/mol
# GULP energy per Si atom -5569.944790 kJ/mol
# Density = 2.489113 g / cm^3
# Si number density = 24.947909 Si / 1000 Ang^3
#
#
#
# Elastic Constant Matrix: (Units=GPa)
#
#
# Indices 1 2 3 4 5 6 
#
# 1 69.0993 5.9614 52.1286 0.0000 0.0000 0.0000
# 2 5.9614 69.0993 52.1286 0.0000 0.0000 0.0000
# 3 52.1286 52.1286 193.3412 0.0000 0.0000 0.0000
# 4 0.0000 0.0000 0.0000 53.8902 0.0000 0.0000
# 5 0.0000 0.0000 0.0000 0.0000 53.8902 0.0000
# 6 0.0000 0.0000 0.0000 0.0000 0.0000 30.8785
#
#
#
# Elastic Compliance Matrix: (Units=1/GPa)
#
#
# Indices 1 2 3 4 5 6 
#
# 1 0.018569 0.002730 -0.005743 0.000000 0.000000 0.000000
# 2 0.002730 0.018569 -0.005743 0.000000 0.000000 0.000000
# 3 -0.005743 -0.005743 0.008269 0.000000 0.000000 0.000000
# 4 0.000000 0.000000 0.000000 0.018556 0.000000 0.000000
# 5 0.000000 0.000000 0.000000 0.000000 0.018556 0.000000
# 6 0.000000 0.000000 0.000000 0.000000 0.000000 0.032385
#
#
# Mechanical properties :
#
#
# Convention : Reuss Voigt Hill
#
# Bulk Modulus (GPa) = 35.84725 61.33079 48.58902
# Shear Modulus (GPa) = 35.28281 42.48652 38.88466
#
# Velocity S-wave (km/s) = 3.76474 4.13123 3.95224
# Velocity P-wave (km/s) = 5.77042 6.88426 6.35180
#
# Compressibility (1/GPa) = 0.02789614
#
# Stress axis : x y z
#
# Youngs Moduli (GPa) = 53.85440 53.85440 120.93614
#
# Poissons Ratio (x) = -0.14704 0.69449
# Poissons Ratio (y) = -0.14704 0.69449
# Poissons Ratio (z) = 0.30926 0.30926
#
# Static dielectric constant tensor:
#      x y z
#    x 1.992780 0.000000 0.000000 
#    y 0.000000 1.992780 0.000000 
#    z 0.000000 0.000000 2.189610 
# 
# From -- ./inp_files/3397.got.cif
#   From: 2010.05.17/outbox.cif.g08.bks.cpg/sg114_2_cif.got.tgz:3397.got - 2010.05.20 11:04:54.
