data_PCOD9555506
_publ_section_title
;
Structure prediction by ZEFSAII (Michael W. Deem and Ramdas Pophale) SiO2 
 PCOD9555506
Probable space group: P -4 21 M 
;
_chemical_formula_sum "Si O2"
_cell_formula_units_Z 40
_cell_length_a 18.392584
_cell_length_b 18.392584
_cell_length_c 5.135303
_cell_angle_alpha 90.000000
_cell_angle_beta 90.000000
_cell_angle_gamma 90.000000
_cell_volume 1737.206997
_symmetry_space_group_name_H-M "P -4 21 M "
_symmetry_group_IT_number 113
_symmetry_cell_setting 'tetragonal'
loop_
_space_group_symop_operation_xyz
x,y,z
y,-x,-z
-x,-y,z
-y,x,-z
1/2+x,1/2-y,-z
1/2-x,1/2+y,-z
1/2-y,1/2-x,z
1/2+y,1/2+x,z
loop_
_atom_site_type_symbol
_atom_site_label
_atom_site_fract_x
_atom_site_fract_y
_atom_site_fract_z
Si Si1 0.961467 0.689213 0.672197
Si Si2 0.893546 0.057455 0.038594
Si Si3 0.610167 0.773808 0.487839
Si Si4 0.319130 0.380718 0.461958
Si Si5 0.365049 0.018847 0.827247
O O1 0.035520 0.738211 0.667918
O O2 0.982874 0.629907 0.456285
O O3 0.897406 0.737955 0.561104
O O4 0.960991 0.657627 0.958247
O O5 0.836593 0.087326 0.823585
O O6 0.869245 0.078085 0.327751
O O7 0.971449 0.094766 0.987053
O O8 0.657359 0.842642 0.391019
O O9 0.659089 0.703221 0.481467
O O10 0.578044 0.800428 0.767429
O O11 0.435878 0.064123 0.901044
#
# Coordination Sequence:
#
# PCOD9555506 Si02
#       5
#     8   8   8   8   8
#     4  10  19  33  51  77 103 133 179 224 258 309
#     4  11  23  37  49  69 104 149 188 218 255 299
#     4   9  21  36  54  75 105 141 174 218 277 325
#     4  12  23  33  54  77 105 139 184 228 264 308
#     4   9  18  34  53  72  97 134 176 219 270 316
#
# _framework density 23.025466000000002
#
# number of rings (size 3 to 8) (size 9 to 14) (size 15 to 20)
#    1.200    0.600    0.000    6.000    5.600    1.600 
#    0.000    0.000    0.000    0.000    0.000    0.000 
#    0.000    8.800    0.000    0.000    0.000    0.000 
#
# Total GULP energy -223256.398747 kJ/mol
# GULP energy per Si atom -5581.409969 kJ/mol
# Density = 2.297306 g / cm^3
# Si number density = 23.025466 Si / 1000 Ang^3
#
#
#
# Elastic Constant Matrix: (Units=GPa)
#
#
# Indices 1 2 3 4 5 6 
#
# 1 29.7613 66.3944 -9.5051 0.0000 0.0000 0.0000
# 2 66.3944 29.8056 -9.4868 0.0000 0.0000 0.0000
# 3 -9.5051 -9.4868 72.0508 0.0000 0.0000 0.0000
# 4 0.0000 0.0000 0.0000 9005.0731 0.0000 0.0000
# 5 0.0000 0.0000 0.0000 0.0000 8995.1052 0.0000
# 6 0.0000 0.0000 0.0000 0.0000 0.0000 48.7992
#
#
#
# Elastic Compliance Matrix: (Units=1/GPa)
#
#
# Indices 1 2 3 4 5 6 
#
# 1 -0.008327 0.018995 0.001403 0.000000 0.000000 0.000000
# 2 0.018995 -0.008312 0.001411 0.000000 0.000000 0.000000
# 3 0.001403 0.001411 0.014250 0.000000 0.000000 0.000000
# 4 0.000000 0.000000 0.000000 0.000111 0.000000 0.000000
# 5 0.000000 0.000000 0.000000 0.000000 0.000111 0.000000
# 6 0.000000 0.000000 0.000000 0.000000 0.000000 0.020492
#
#
# Mechanical properties :
#
#
# Convention : Reuss Voigt Hill
#
# Bulk Modulus (GPa) = 24.25526 25.15808 24.70667
# Shear Modulus (GPa) = -432.92961 3615.40987 1591.24013
#
# Velocity S-wave (km/s) = -13.72699 39.66847 26.31689
# Velocity P-wave (km/s) = 15.51397 45.92458 30.56455
#
# Compressibility (1/GPa) = 0.04122817
#
# Stress axis : x y z
#
# Youngs Moduli (GPa) = -120.09599 -120.30299 70.17569
#
# Poissons Ratio (x) = 2.28512 -0.09842
# Poissons Ratio (y) = 2.28119 -0.09904
# Poissons Ratio (z) = 0.16844 0.16979
#
# Static dielectric constant tensor:
#      x y z
#    x -4.130110 0.000000 0.000000 
#    y 0.000000 -4.123430 0.000000 
#    z 0.000000 0.000000 1.826200 
# 
# From -- ./inp_files/391.got.cif
#   From: 2010.05.17/outbox.cif.g08.bks.cpg/sg113_cif.got.tgz:391.got - 2010.05.20 11:03:00.
