data_PCOD9555938
_publ_section_title
;
Structure prediction by ZEFSAII (Michael W. Deem and Ramdas Pophale) SiO2 
 PCOD9555938
Probable space group: P -4 21 C
;
_chemical_formula_sum "Si O2"
_cell_formula_units_Z 40
_cell_length_a 8.249506
_cell_length_b 8.249506
_cell_length_c 28.397109
_cell_angle_alpha 90.000000
_cell_angle_beta 90.000000
_cell_angle_gamma 90.000000
_cell_volume 1932.546773
_symmetry_space_group_name_H-M "P -4 21 C"
_symmetry_group_IT_number 114
_symmetry_cell_setting 'tetragonal'
loop_
_space_group_symop_operation_xyz
x,y,z
y,-x,-z
-x,-y,z
-y,x,-z
1/2+x,1/2-y,1/2-z
1/2-x,1/2+y,1/2-z
1/2-y,1/2-x,1/2+z
1/2+y,1/2+x,1/2+z
loop_
_atom_site_type_symbol
_atom_site_label
_atom_site_fract_x
_atom_site_fract_y
_atom_site_fract_z
Si Si1 0.892323 0.244909 0.497176
Si Si2 0.255967 0.082771 0.197149
Si Si3 0.000000 0.500000 0.072056
Si Si4 0.000000 0.000000 0.648140
Si Si5 0.251192 0.400309 0.779866
Si Si6 0.751436 0.755478 0.602154
O O1 0.802516 0.305924 0.450192
O O2 0.079224 0.195607 0.487029
O O3 0.904979 0.374841 0.538325
O O4 0.423228 0.173022 0.212162
O O5 0.122907 0.172496 0.228617
O O6 0.237801 0.115177 0.141745
O O7 0.277354 0.895494 0.210069
O O8 0.901086 0.633608 0.100582
O O9 0.127038 0.099896 0.617504
O O10 0.896209 0.115964 0.682490
#
# Coordination Sequence:
#
# PCOD9555938 Si02
#       6
#     8   8   4   4   8   8
#     4   9  18  35  57  80 108 142 185 234 286 335
#     4  10  21  36  57  83 116 150 189 229 278 337
#     4  10  20  34  58  82 110 144 186 242 286 330
#     4  10  20  36  59  80 108 144 193 230 268 332
#     4  10  21  37  56  84 116 150 183 233 282 324
#     4  10  20  35  56  83 108 146 190 228 277 340
#
# _framework density 20.698076
#
# number of rings (size 3 to 8) (size 9 to 14) (size 15 to 20)
#    0.000    2.200    0.000    4.800    0.000    6.400 
#    0.000    0.000    0.000   19.200    0.000    0.000 
#    0.000    0.000    0.000    0.000    0.000    0.000 
#
# Total GULP energy -223430.603508 kJ/mol
# GULP energy per Si atom -5585.765088 kJ/mol
# Density = 2.065097 g / cm^3
# Si number density = 20.698076 Si / 1000 Ang^3
#
#
#
# Elastic Constant Matrix: (Units=GPa)
#
#
# Indices 1 2 3 4 5 6 
#
# 1 53.0270 5.7185 20.0488 0.0000 0.0000 0.0000
# 2 5.7185 53.0270 20.0488 0.0000 0.0000 0.0000
# 3 20.0488 20.0488 65.1044 0.0000 0.0000 0.0000
# 4 0.0000 0.0000 0.0000 42.2000 0.0000 0.0000
# 5 0.0000 0.0000 0.0000 0.0000 42.2000 0.0000
# 6 0.0000 0.0000 0.0000 0.0000 0.0000 15.0545
#
#
#
# Elastic Compliance Matrix: (Units=1/GPa)
#
#
# Indices 1 2 3 4 5 6 
#
# 1 0.021345 0.000208 -0.006637 0.000000 0.000000 0.000000
# 2 0.000208 0.021345 -0.006637 0.000000 0.000000 0.000000
# 3 -0.006637 -0.006637 0.019448 0.000000 0.000000 0.000000
# 4 0.000000 0.000000 0.000000 0.023697 0.000000 0.000000
# 5 0.000000 0.000000 0.000000 0.000000 0.023697 0.000000
# 6 0.000000 0.000000 0.000000 0.000000 0.000000 0.066425
#
#
# Mechanical properties :
#
#
# Convention : Reuss Voigt Hill
#
# Bulk Modulus (GPa) = 27.77406 29.19895 28.48651
# Shear Modulus (GPa) = 23.35441 28.24707 25.80074
#
# Velocity S-wave (km/s) = 3.36272 3.69822 3.53445
# Velocity P-wave (km/s) = 5.34088 5.68977 5.51808
#
# Compressibility (1/GPa) = 0.03600482
#
# Stress axis : x y z
#
# Youngs Moduli (GPa) = 46.84861 46.84861 51.41978
#
# Poissons Ratio (x) = -0.00972 0.34128
# Poissons Ratio (y) = -0.00972 0.34128
# Poissons Ratio (z) = 0.31094 0.31094
#
# Static dielectric constant tensor:
#      x y z
#    x 1.740200 0.000000 0.000000 
#    y 0.000000 1.740200 0.000000 
#    z 0.000000 0.000000 1.740570 
# 
# From -- ./inp_files/3669.got.cif
#   From: 2010.05.17/outbox.cif.g08.bks.cpg/sg114_2_cif.got.tgz:3669.got - 2010.05.20 11:04:54.
