data_PCOD9555334
_publ_section_title
;
Structure prediction by ZEFSAII (Michael W. Deem and Ramdas Pophale) SiO2 
 PCOD9555334
Probable space group: P -4 2 C
;
_chemical_formula_sum "Si O2"
_cell_formula_units_Z 34
_cell_length_a 11.227810
_cell_length_b 11.227810
_cell_length_c 14.164148
_cell_angle_alpha 90.000000
_cell_angle_beta 90.000000
_cell_angle_gamma 90.000000
_cell_volume 1785.585151
_symmetry_space_group_name_H-M "P -4 2 C"
_symmetry_group_IT_number 112
_symmetry_cell_setting 'tetragonal'
loop_
_space_group_symop_operation_xyz
x,y,z
y,-x,-z
-x,-y,z
-y,x,-z
x,-y,1/2-z
-x,y,1/2-z
-y,-x,1/2+z
y,x,1/2+z
loop_
_atom_site_type_symbol
_atom_site_label
_atom_site_fract_x
_atom_site_fract_y
_atom_site_fract_z
Si Si1 0.859729 0.874570 0.726464
Si Si2 0.500000 0.500000 0.000000
Si Si3 0.731350 0.826312 0.402836
Si Si4 0.109353 0.274280 0.558858
Si Si5 0.519424 0.279309 0.364793
O O1 0.817703 0.770639 0.794106
O O2 0.850570 0.840963 0.618888
O O3 0.000000 0.882120 0.750000
O O4 0.802489 0.000000 0.750000
O O5 0.547197 0.602188 0.073054
O O6 0.833055 0.754079 0.458524
O O7 0.604445 0.765833 0.408827
O O8 0.720577 0.965917 0.433022
O O9 0.176298 0.384600 0.609307
O O10 0.500000 0.295883 0.250000
#
# Coordination Sequence:
#
# PCOD9555334 Si02
#       5
#     8   2   8   8   8
#     4   9  18  33  55  85 122 161 196 237 297 368
#     4  12  26  48  68  86 116 160 210 264 312 358
#     4  11  22  37  61  91 126 164 202 249 304 366
#     4  11  22  37  61  91 126 164 202 249 304 366
#     4  12  24  43  68  90 117 160 214 261 306 358
#
# _framework density 19.041377000000001
#
# number of rings (size 3 to 8) (size 9 to 14) (size 15 to 20)
#    0.000    1.176    4.706    2.471    0.000    3.294 
#    0.000    0.000    0.000    0.000    0.000    9.882 
#    0.000    0.000    0.000    0.000    0.000    0.000 
#
# Total GULP energy -189277.979776 kJ/mol
# GULP energy per Si atom -5566.999405 kJ/mol
# Density = 1.899804 g / cm^3
# Si number density = 19.041377 Si / 1000 Ang^3
#
#
#
# Elastic Constant Matrix: (Units=GPa)
#
#
# Indices 1 2 3 4 5 6 
#
# 1 54.4297 -4.9380 6.6201 0.0000 0.0000 0.0000
# 2 -4.9380 54.4297 6.6201 0.0000 0.0000 0.0000
# 3 6.6201 6.6201 81.2509 0.0000 0.0000 0.0000
# 4 0.0000 0.0000 0.0000 36.2086 0.0000 0.0000
# 5 0.0000 0.0000 0.0000 0.0000 36.2086 0.0000
# 6 0.0000 0.0000 0.0000 0.0000 0.0000 19.2199
#
#
#
# Elastic Compliance Matrix: (Units=1/GPa)
#
#
# Indices 1 2 3 4 5 6 
#
# 1 0.018750 0.001906 -0.001683 0.000000 0.000000 0.000000
# 2 0.001906 0.018750 -0.001683 0.000000 0.000000 0.000000
# 3 -0.001683 -0.001683 0.012582 0.000000 0.000000 0.000000
# 4 0.000000 0.000000 0.000000 0.027618 0.000000 0.000000
# 5 0.000000 0.000000 0.000000 0.000000 0.027618 0.000000
# 6 0.000000 0.000000 0.000000 0.000000 0.000000 0.052029
#
#
# Mechanical properties :
#
#
# Convention : Reuss Voigt Hill
#
# Bulk Modulus (GPa) = 21.20382 22.96826 22.08604
# Shear Modulus (GPa) = 28.41115 30.44798 29.42956
#
# Velocity S-wave (km/s) = 3.86693 4.00314 3.93562
# Velocity P-wave (km/s) = 5.57650 5.78406 5.68123
#
# Compressibility (1/GPa) = 0.04716131
#
# Stress axis : x y z
#
# Youngs Moduli (GPa) = 53.33355 53.33355 79.47989
#
# Poissons Ratio (x) = -0.10164 0.13376
# Poissons Ratio (y) = -0.10164 0.13376
# Poissons Ratio (z) = 0.08976 0.08976
#
# Static dielectric constant tensor:
#      x y z
#    x 1.678740 0.000000 0.000000 
#    y 0.000000 1.678740 0.000000 
#    z 0.000000 0.000000 1.662180 
# 
# From -- ./inp_files/2249.got.cif
#   From: 2010.05.17/outbox.cif.g08.bks.cpg/sg112_2_cif.got.tgz:2249.got - 2010.05.20 10:59:04.
