data_PCOD9555155
_publ_section_title
;
Structure prediction by ZEFSAII (Michael W. Deem and Ramdas Pophale) SiO2 
 PCOD9555155
Probable space group: P -4 2 C
;
_chemical_formula_sum "Si O2"
_cell_formula_units_Z 56
_cell_length_a 14.608472
_cell_length_b 14.608472
_cell_length_c 12.776422
_cell_angle_alpha 90.000000
_cell_angle_beta 90.000000
_cell_angle_gamma 90.000000
_cell_volume 2726.583692
_symmetry_space_group_name_H-M "P -4 2 C"
_symmetry_group_IT_number 112
_symmetry_cell_setting 'tetragonal'
loop_
_space_group_symop_operation_xyz
x,y,z
y,-x,-z
-x,-y,z
-y,x,-z
x,-y,1/2-z
-x,y,1/2-z
-y,-x,1/2+z
y,x,1/2+z
loop_
_atom_site_type_symbol
_atom_site_label
_atom_site_fract_x
_atom_site_fract_y
_atom_site_fract_z
Si Si1 0.775336 0.994235 0.535926
Si Si2 0.857282 0.794986 0.232751
Si Si3 0.101990 0.036229 0.356638
Si Si4 0.399323 0.891372 0.779746
Si Si5 0.705117 0.824513 0.059756
Si Si6 0.493107 0.892322 0.374152
Si Si7 0.339198 0.170853 0.491369
O O1 0.789354 0.940343 0.645847
O O2 0.723408 0.088507 0.515647
O O3 0.864113 0.003722 0.464943
O O4 0.724803 0.915646 0.465906
O O5 0.886384 0.856869 0.330700
O O6 0.844581 0.690397 0.268825
O O7 0.770513 0.827739 0.164091
O O8 0.150063 0.000000 0.250000
O O9 0.000000 0.000000 0.349229
O O10 0.500000 0.859854 0.750000
O O11 0.385823 0.864690 0.900669
O O12 0.394412 0.000000 0.750000
O O13 0.600177 0.841281 0.091562
O O14 0.742606 0.728409 0.009433
O O15 0.500000 0.898809 0.250000
O O16 0.578328 0.830157 0.411227
O O17 0.500000 0.000000 0.413996
#
# Coordination Sequence:
#
# PCOD9555155 Si02
#       7
#     8   8   8   8   8   8   8
#     4  10  21  41  59  81 128 169 220 262 320 390
#     4  10  24  40  54  87 124 165 219 267 325 390
#     4  11  24  35  51  80 120 172 220 258 305 384
#     4   9  20  37  58  84 116 159 212 274 326 386
#     4  10  21  41  63  90 128 173 216 274 335 399
#     4  11  24  41  70 101 137 180 229 284 341 408
#     4  10  24  42  62  97 129 167 225 271 340 406
#
# _framework density 20.538523000000001
#
# number of rings (size 3 to 8) (size 9 to 14) (size 15 to 20)
#    0.000    2.143    2.857    0.000    6.000    5.143 
#   10.286    0.000    0.000    0.429    0.000    1.000 
#    0.000    0.000    0.000    0.000    0.000    0.000 
#
# Total GULP energy -312038.354819 kJ/mol
# GULP energy per Si atom -5572.113479 kJ/mol
# Density = 2.049178 g / cm^3
# Si number density = 20.538523 Si / 1000 Ang^3
#
#
#
# Elastic Constant Matrix: (Units=GPa)
#
#
# Indices 1 2 3 4 5 6 
#
# 1 113.8128 18.5031 17.7540 0.0000 0.0000 0.0000
# 2 18.5031 113.8128 17.7540 0.0000 0.0000 0.0000
# 3 17.7540 17.7540 70.1702 0.0000 0.0000 0.0000
# 4 0.0000 0.0000 0.0000 29.6590 0.0000 0.0000
# 5 0.0000 0.0000 0.0000 0.0000 29.6590 0.0000
# 6 0.0000 0.0000 0.0000 0.0000 0.0000 18.9867
#
#
#
# Elastic Compliance Matrix: (Units=1/GPa)
#
#
# Indices 1 2 3 4 5 6 
#
# 1 0.009300 -0.001192 -0.002051 0.000000 0.000000 0.000000
# 2 -0.001192 0.009300 -0.002051 0.000000 0.000000 0.000000
# 3 -0.002051 -0.002051 0.015289 0.000000 0.000000 0.000000
# 4 0.000000 0.000000 0.000000 0.033717 0.000000 0.000000
# 5 0.000000 0.000000 0.000000 0.000000 0.033717 0.000000
# 6 0.000000 0.000000 0.000000 0.000000 0.000000 0.052668
#
#
# Mechanical properties :
#
#
# Convention : Reuss Voigt Hill
#
# Bulk Modulus (GPa) = 42.91914 45.09090 44.00502
# Shear Modulus (GPa) = 29.01117 31.91326 30.46221
#
# Velocity S-wave (km/s) = 3.76243 3.94613 3.85538
# Velocity P-wave (km/s) = 6.31006 6.53947 6.42578
#
# Compressibility (1/GPa) = 0.02329963
#
# Stress axis : x y z
#
# Youngs Moduli (GPa) = 107.52507 107.52507 65.40578
#
# Poissons Ratio (x) = 0.12816 0.13418
# Poissons Ratio (y) = 0.12816 0.13418
# Poissons Ratio (z) = 0.22059 0.22059
#
# Static dielectric constant tensor:
#      x y z
#    x 1.868880 0.000000 0.000000 
#    y 0.000000 1.868880 0.000000 
#    z 0.000000 0.000000 1.855550 
# 
# From -- ./inp_files/3443.got.cif
#   From: 2010.05.17/outbox.cif.g08.bks.cpg/sg112_2_cif.got.tgz:3443.got - 2010.05.20 10:59:04.
