data_PCOD9555245
_publ_section_title
;
Structure prediction by ZEFSAII (Michael W. Deem and Ramdas Pophale) SiO2 
 PCOD9555245
Probable space group: P -4 2 C
;
_chemical_formula_sum "Si O2"
_cell_formula_units_Z 32
_cell_length_a 8.285689
_cell_length_b 8.285689
_cell_length_c 19.682003
_cell_angle_alpha 90.000000
_cell_angle_beta 90.000000
_cell_angle_gamma 90.000000
_cell_volume 1351.221510
_symmetry_space_group_name_H-M "P -4 2 C"
_symmetry_group_IT_number 112
_symmetry_cell_setting 'tetragonal'
loop_
_space_group_symop_operation_xyz
x,y,z
y,-x,-z
-x,-y,z
-y,x,-z
x,-y,1/2-z
-x,y,1/2-z
-y,-x,1/2+z
y,x,1/2+z
loop_
_atom_site_type_symbol
_atom_site_label
_atom_site_fract_x
_atom_site_fract_y
_atom_site_fract_z
Si Si1 0.705298 0.093195 0.579276
Si Si2 0.759912 0.263975 0.931694
Si Si3 0.426253 0.653817 0.136043
Si Si4 0.047013 0.763039 0.673736
O O1 0.748646 0.149380 0.503514
O O2 0.610058 0.248802 0.608335
O O3 0.853684 0.101164 0.632519
O O4 0.662067 0.905135 0.574521
O O5 0.681788 0.441423 0.923377
O O6 0.891123 0.269944 0.871466
O O7 0.500000 0.500000 0.174495
O O8 0.385711 0.822884 0.173097
O O9 0.000000 0.802473 0.750000
#
# Coordination Sequence:
#
# PCOD9555245 Si02
#       4
#     8   8   8   8
#     4  10  24  40  72 104 144 189 250 306 368 444
#     4  12  22  43  70 106 144 194 241 307 376 442
#     4  10  26  43  67 104 147 194 243 307 372 447
#     4  10  24  46  72 107 144 191 249 305 374 448
#
# _framework density 23.682275000000001
#
# number of rings (size 3 to 8) (size 9 to 14) (size 15 to 20)
#    1.500    0.000    2.500    1.500    3.500    5.000 
#    0.000    2.500    0.000    0.000    6.500    0.000 
#    0.000    0.000    0.000    0.000    0.000    0.000 
#
# Total GULP energy -178140.770768 kJ/mol
# GULP energy per Si atom -5566.899086 kJ/mol
# Density = 2.362837 g / cm^3
# Si number density = 23.682275 Si / 1000 Ang^3
#
#
#
# Elastic Constant Matrix: (Units=GPa)
#
#
# Indices 1 2 3 4 5 6 
#
# 1 118.2905 83.3328 27.1221 0.0000 0.0000 0.0000
# 2 83.3328 118.2905 27.1221 0.0000 0.0000 0.0000
# 3 27.1221 27.1221 164.0211 0.0000 0.0000 0.0000
# 4 0.0000 0.0000 0.0000 167.4862 0.0000 0.0000
# 5 0.0000 0.0000 0.0000 0.0000 167.4862 0.0000
# 6 0.0000 0.0000 0.0000 0.0000 0.0000 49.8069
#
#
#
# Elastic Compliance Matrix: (Units=1/GPa)
#
#
# Indices 1 2 3 4 5 6 
#
# 1 0.016898 -0.011708 -0.000858 0.000000 0.000000 0.000000
# 2 -0.011708 0.016898 -0.000858 0.000000 0.000000 0.000000
# 3 -0.000858 -0.000858 0.006381 0.000000 0.000000 0.000000
# 4 0.000000 0.000000 0.000000 0.005971 0.000000 0.000000
# 5 0.000000 0.000000 0.000000 0.000000 0.005971 0.000000
# 6 0.000000 0.000000 0.000000 0.000000 0.000000 0.020078
#
#
# Mechanical properties :
#
#
# Convention : Reuss Voigt Hill
#
# Bulk Modulus (GPa) = 75.02609 75.08404 75.05506
# Shear Modulus (GPa) = 48.31501 94.49088 71.40294
#
# Velocity S-wave (km/s) = 4.52168 6.32345 5.49689
# Velocity P-wave (km/s) = 7.68179 9.22433 8.48817
#
# Compressibility (1/GPa) = 0.01332870
#
# Stress axis : x y z
#
# Youngs Moduli (GPa) = 59.17752 59.17752 156.72423
#
# Poissons Ratio (x) = 0.69283 0.13452
# Poissons Ratio (y) = 0.69283 0.13452
# Poissons Ratio (z) = 0.05079 0.05079
#
# Static dielectric constant tensor:
#      x y z
#    x 1.890860 0.000000 0.000000 
#    y 0.000000 1.890860 0.000000 
#    z 0.000000 0.000000 1.792670 
# 
# From -- ./inp_files/4541.got.cif
#   From: 2010.05.17/outbox.cif.g08.bks.cpg/sg112_3_cif.got.tgz:4541.got - 2010.05.20 10:59:04.
