data_PCOD9555193
_publ_section_title
;
Structure prediction by ZEFSAII (Michael W. Deem and Ramdas Pophale) SiO2 
 PCOD9555193
Probable space group: P -4 2 C
;
_chemical_formula_sum "Si O2"
_cell_formula_units_Z 60
_cell_length_a 11.179914
_cell_length_b 11.179914
_cell_length_c 21.761823
_cell_angle_alpha 90.000000
_cell_angle_beta 90.000000
_cell_angle_gamma 90.000000
_cell_volume 2720.020638
_symmetry_space_group_name_H-M "P -4 2 C"
_symmetry_group_IT_number 112
_symmetry_cell_setting 'tetragonal'
loop_
_space_group_symop_operation_xyz
x,y,z
y,-x,-z
-x,-y,z
-y,x,-z
x,-y,1/2-z
-x,y,1/2-z
-y,-x,1/2+z
y,x,1/2+z
loop_
_atom_site_type_symbol
_atom_site_label
_atom_site_fract_x
_atom_site_fract_y
_atom_site_fract_z
Si Si1 0.607834 0.180242 0.202999
Si Si2 0.654538 0.378190 0.006621
Si Si3 0.624512 0.024455 0.084487
Si Si4 0.220907 0.500000 0.250000
Si Si5 0.758008 0.141024 0.756992
Si Si6 0.219497 0.235438 0.605921
Si Si7 0.066570 0.815727 0.490776
Si Si8 0.430596 0.378407 0.859302
O O1 0.500000 0.151036 0.250000
O O2 0.749579 0.172602 0.221804
O O3 0.587897 0.316201 0.181459
O O4 0.592697 0.099802 0.143565
O O5 0.691120 0.384353 0.079409
O O6 0.517259 0.337619 0.011137
O O7 0.708636 0.307217 0.947949
O O8 0.694024 0.905846 0.105118
O O9 0.500000 0.000000 0.050649
O O10 0.712070 0.091919 0.038550
O O11 0.145791 0.380826 0.262958
O O12 0.302598 0.488961 0.188368
O O13 0.753382 0.201830 0.824497
O O14 0.798930 0.000000 0.750000
O O15 0.215559 0.103440 0.577017
O O16 0.930014 0.853942 0.492910
O O17 0.500000 0.500000 0.877443
#
# Coordination Sequence:
#
# PCOD9555193 Si02
#       8
#     8   8   8   4   8   8   8   8
#     4  11  25  42  69  99 142 185 235 297 363 432
#     4  11  23  37  64 100 142 181 226 291 359 429
#     4  11  25  43  69  99 137 173 235 291 359 424
#     4  10  22  42  64  98 139 186 229 290 353 436
#     4  11  25  44  68 101 140 187 237 294 358 438
#     4  11  25  43  68  97 138 181 231 294 357 431
#     4   9  21  44  70  93 127 178 227 283 345 421
#     4  11  20  38  67 102 139 187 233 283 359 443
#
# _framework density 22.058654000000001
#
# number of rings (size 3 to 8) (size 9 to 14) (size 15 to 20)
#    0.000    1.333    1.333    4.400    7.467    1.867 
#    2.400    0.667    0.000    0.000    0.000    0.000 
#    0.000    0.000    0.000    0.000    0.000    0.000 
#
# Total GULP energy -334370.709586 kJ/mol
# GULP energy per Si atom -5572.845160 kJ/mol
# Density = 2.200845 g / cm^3
# Si number density = 22.058654 Si / 1000 Ang^3
#
#
#
# Elastic Constant Matrix: (Units=GPa)
#
#
# Indices 1 2 3 4 5 6 
#
# 1 -6.0566 44.7778 -11.7496 0.0000 0.0000 0.0000
# 2 44.7778 -6.0566 -11.7496 0.0000 0.0000 0.0000
# 3 -11.7496 -11.7496 55.0179 0.0000 0.0000 0.0000
# 4 0.0000 0.0000 0.0000 14.0861 0.0000 0.0000
# 5 0.0000 0.0000 0.0000 0.0000 14.0861 0.0000
# 6 0.0000 0.0000 0.0000 0.0000 0.0000 65.0468
#
#
#
# Elastic Compliance Matrix: (Units=1/GPa)
#
#
# Indices 1 2 3 4 5 6 
#
# 1 0.005000 0.024671 0.006337 0.000000 0.000000 0.000000
# 2 0.024671 0.005000 0.006337 0.000000 0.000000 0.000000
# 3 0.006337 0.006337 0.020882 0.000000 0.000000 0.000000
# 4 0.000000 0.000000 0.000000 0.070992 0.000000 0.000000
# 5 0.000000 0.000000 0.000000 0.000000 0.070992 0.000000
# 6 0.000000 0.000000 0.000000 0.000000 0.000000 0.015374
#
#
# Mechanical properties :
#
#
# Convention : Reuss Voigt Hill
#
# Bulk Modulus (GPa) = 9.47230 9.49577 9.48404
# Shear Modulus (GPa) = 33.61558 20.08554 26.85056
#
# Velocity S-wave (km/s) = 3.90797 3.02081 3.49267
# Velocity P-wave (km/s) = 4.96654 4.05970 4.53584
#
# Compressibility (1/GPa) = 0.10557098
#
# Stress axis : x y z
#
# Youngs Moduli (GPa) = 200.01037 200.01037 47.88732
#
# Poissons Ratio (x) = -4.93455 -0.30344
# Poissons Ratio (y) = -4.93455 -0.30344
# Poissons Ratio (z) = -1.26738 -1.26738
#
# Static dielectric constant tensor:
#      x y z
#    x 1.930900 0.000000 0.000000 
#    y 0.000000 1.930900 0.000000 
#    z 0.000000 0.000000 1.850870 
# 
# From -- ./inp_files/4979.got.cif
#   From: 2010.05.17/outbox.cif.g08.bks.cpg/sg112_3_cif.got.tgz:4979.got - 2010.05.20 10:59:04.
