data_PCOD9555132
_publ_section_title
;
Structure prediction by ZEFSAII (Michael W. Deem and Ramdas Pophale) SiO2 
 PCOD9555132
Probable space group: P -4 2 C
;
_chemical_formula_sum "Si O2"
_cell_formula_units_Z 60
_cell_length_a 17.679191
_cell_length_b 17.679191
_cell_length_c 7.690321
_cell_angle_alpha 90.000000
_cell_angle_beta 90.000000
_cell_angle_gamma 90.000000
_cell_volume 2403.639009
_symmetry_space_group_name_H-M "P -4 2 C"
_symmetry_group_IT_number 112
_symmetry_cell_setting 'tetragonal'
loop_
_space_group_symop_operation_xyz
x,y,z
y,-x,-z
-x,-y,z
-y,x,-z
x,-y,1/2-z
-x,y,1/2-z
-y,-x,1/2+z
y,x,1/2+z
loop_
_atom_site_type_symbol
_atom_site_label
_atom_site_fract_x
_atom_site_fract_y
_atom_site_fract_z
Si Si1 0.715773 0.334413 0.068917
Si Si2 0.967956 0.579005 0.555698
Si Si3 0.739730 0.500000 0.750000
Si Si4 0.977146 0.122318 0.548185
Si Si5 0.411617 0.151270 0.795890
Si Si6 0.806683 0.346290 0.712958
Si Si7 0.449428 0.394088 0.996286
Si Si8 0.071035 0.293342 0.026427
O O1 0.763746 0.383162 0.203428
O O2 0.704994 0.246822 0.094919
O O3 0.634156 0.373040 0.092879
O O4 0.764419 0.335876 0.894353
O O5 0.882100 0.583337 0.493802
O O6 0.000000 0.500000 0.474873
O O7 0.000000 0.575154 0.750000
O O8 0.994879 0.658849 0.481328
O O9 0.793431 0.434745 0.671507
O O10 0.680873 0.531399 0.606558
O O11 0.946174 0.202790 0.467537
O O12 0.054253 0.085782 0.463575
O O13 0.000000 0.136082 0.750000
O O14 0.500000 0.146406 0.750000
O O15 0.345909 0.113085 0.674604
O O16 0.887363 0.314534 0.656763
O O17 0.420159 0.471226 0.085670
#
# Coordination Sequence:
#
# PCOD9555132 Si02
#       8
#     8   8   4   8   8   8   8   8
#     4  11  25  45  67  96 146 192 264 332 409 479
#     4  11  24  45  72 108 153 205 259 314 377 465
#     4  10  22  39  60  88 141 190 256 324 404 475
#     4  11  27  54  88 129 168 216 267 340 430 515
#     4  12  27  45  73 113 155 210 262 327 399 481
#     4  11  25  45  67 104 143 205 258 337 402 493
#     4  10  21  38  60  90 125 184 259 332 405 476
#     4  12  27  46  81 113 163 204 266 318 404 489
#
# _framework density 24.962152
#
# number of rings (size 3 to 8) (size 9 to 14) (size 15 to 20)
#    0.000    0.933    2.667    3.200    3.733    9.600 
#    0.000    0.000    0.000    0.000    0.000    0.000 
#    0.000    0.000    0.000    0.000    0.000    0.000 
#
# Total GULP energy -334011.793890 kJ/mol
# GULP energy per Si atom -5566.863231 kJ/mol
# Density = 2.490534 g / cm^3
# Si number density = 24.962152 Si / 1000 Ang^3
#
#
#
# Elastic Constant Matrix: (Units=GPa)
#
#
# Indices 1 2 3 4 5 6 
#
# 1 149.9675 55.2908 26.2686 0.0000 0.0000 0.0000
# 2 55.2908 149.9675 26.2686 0.0000 0.0000 0.0000
# 3 26.2686 26.2686 70.5711 0.0000 0.0000 0.0000
# 4 0.0000 0.0000 0.0000 30.8347 0.0000 0.0000
# 5 0.0000 0.0000 0.0000 0.0000 30.8347 0.0000
# 6 0.0000 0.0000 0.0000 0.0000 0.0000 -47.4339
#
#
#
# Elastic Compliance Matrix: (Units=1/GPa)
#
#
# Indices 1 2 3 4 5 6 
#
# 1 0.007974 -0.002589 -0.002004 0.000000 0.000000 0.000000
# 2 -0.002589 0.007974 -0.002004 0.000000 0.000000 0.000000
# 3 -0.002004 -0.002004 0.015662 0.000000 0.000000 0.000000
# 4 0.000000 0.000000 0.000000 0.032431 0.000000 0.000000
# 5 0.000000 0.000000 0.000000 0.000000 0.032431 0.000000
# 6 0.000000 0.000000 0.000000 0.000000 0.000000 -0.021082
#
#
# Mechanical properties :
#
#
# Convention : Reuss Voigt Hill
#
# Bulk Modulus (GPa) = 54.30505 65.12914 59.71710
# Shear Modulus (GPa) = 52.78554 20.35895 36.57224
#
# Velocity S-wave (km/s) = 4.60349 2.85896 3.83183
# Velocity P-wave (km/s) = 7.07519 6.08654 6.59941
#
# Compressibility (1/GPa) = 0.01841449
#
# Stress axis : x y z
#
# Youngs Moduli (GPa) = 125.41369 125.41369 63.84743
#
# Poissons Ratio (x) = 0.32465 0.12798
# Poissons Ratio (y) = 0.32465 0.12798
# Poissons Ratio (z) = 0.25138 0.25138
#
# Static dielectric constant tensor:
#      x y z
#    x 2.149030 0.000000 0.000000 
#    y 0.000000 2.149030 0.000000 
#    z 0.000000 0.000000 2.258110 
# 
# From -- ./inp_files/1538.got.cif
#   From: 2010.05.17/outbox.cif.g08.bks.cpg/sg112_1_cif.got.tgz:1538.got - 2010.05.20 10:59:04.
