data_PCOD9555308
_publ_section_title
;
Structure prediction by ZEFSAII (Michael W. Deem and Ramdas Pophale) SiO2 
 PCOD9555308
Probable space group: P -4 2 C
;
_chemical_formula_sum "Si O2"
_cell_formula_units_Z 40
_cell_length_a 14.656120
_cell_length_b 14.656120
_cell_length_c 8.367107
_cell_angle_alpha 90.000000
_cell_angle_beta 90.000000
_cell_angle_gamma 90.000000
_cell_volume 1797.270092
_symmetry_space_group_name_H-M "P -4 2 C"
_symmetry_group_IT_number 112
_symmetry_cell_setting 'tetragonal'
loop_
_space_group_symop_operation_xyz
x,y,z
y,-x,-z
-x,-y,z
-y,x,-z
x,-y,1/2-z
-x,y,1/2-z
-y,-x,1/2+z
y,x,1/2+z
loop_
_atom_site_type_symbol
_atom_site_label
_atom_site_fract_x
_atom_site_fract_y
_atom_site_fract_z
Si Si1 0.345882 0.793462 0.085863
Si Si2 0.005464 0.606774 0.555166
Si Si3 0.061654 0.106343 0.594015
Si Si4 0.168882 0.289228 0.563851
Si Si5 0.363634 0.473073 0.934348
O O1 0.350439 0.895880 0.016752
O O2 0.344542 0.800804 0.278626
O O3 0.432280 0.735035 0.029154
O O4 0.255550 0.737595 0.040159
O O5 0.000000 0.500000 0.516474
O O6 0.000000 0.615381 0.750000
O O7 0.916441 0.657305 0.487639
O O8 0.125812 0.192240 0.614541
O O9 0.985593 0.115268 0.453133
O O10 0.000000 0.099791 0.750000
O O11 0.367394 0.500000 0.750000
O O12 0.395522 0.560241 0.034588
#
# Coordination Sequence:
#
# PCOD9555308 Si02
#       5
#     8   8   8   8   8
#     4  11  24  39  68  96 126 171 215 266 322 389
#     4   9  20  37  63  88 122 166 212 257 308 378
#     4  11  21  35  58  88 125 170 219 270 320 373
#     4  11  22  40  60  94 125 168 214 269 312 386
#     4  11  24  42  68  98 130 162 211 274 332 394
#
# _framework density 22.255977999999999
#
# number of rings (size 3 to 8) (size 9 to 14) (size 15 to 20)
#    0.000    1.400    0.000    7.800    8.400    0.000 
#    0.000    3.000    0.000    1.200    0.000    0.000 
#    0.000    0.000    0.000    0.000    0.000    0.000 
#
# Total GULP energy -223573.818386 kJ/mol
# GULP energy per Si atom -5589.345460 kJ/mol
# Density = 2.220532 g / cm^3
# Si number density = 22.255978 Si / 1000 Ang^3
#
#
#
# Elastic Constant Matrix: (Units=GPa)
#
#
# Indices 1 2 3 4 5 6 
#
# 1 96.8338 51.2687 10.8243 0.0000 0.0000 0.0000
# 2 51.2687 96.8338 10.8243 0.0000 0.0000 0.0000
# 3 10.8243 10.8243 32.3960 0.0000 0.0000 0.0000
# 4 0.0000 0.0000 0.0000 13.5047 0.0000 0.0000
# 5 0.0000 0.0000 0.0000 0.0000 13.5047 0.0000
# 6 0.0000 0.0000 0.0000 0.0000 0.0000 54.5914
#
#
#
# Elastic Compliance Matrix: (Units=1/GPa)
#
#
# Indices 1 2 3 4 5 6 
#
# 1 0.014523 -0.007424 -0.002372 0.000000 0.000000 0.000000
# 2 -0.007424 0.014523 -0.002372 0.000000 0.000000 0.000000
# 3 -0.002372 -0.002372 0.032453 0.000000 0.000000 0.000000
# 4 0.000000 0.000000 0.000000 0.074048 0.000000 0.000000
# 5 0.000000 0.000000 0.000000 0.000000 0.074048 0.000000
# 6 0.000000 0.000000 0.000000 0.000000 0.000000 0.018318
#
#
# Mechanical properties :
#
#
# Convention : Reuss Voigt Hill
#
# Bulk Modulus (GPa) = 26.90846 41.32204 34.11525
# Shear Modulus (GPa) = 18.89391 26.52993 22.71192
#
# Velocity S-wave (km/s) = 2.91681 3.45633 3.19797
# Velocity P-wave (km/s) = 4.84360 5.87668 5.38497
#
# Compressibility (1/GPa) = 0.03716303
#
# Stress axis : x y z
#
# Youngs Moduli (GPa) = 68.85779 68.85779 30.81382
#
# Poissons Ratio (x) = 0.51119 0.07309
# Poissons Ratio (y) = 0.51119 0.07309
# Poissons Ratio (z) = 0.16332 0.16332
#
# Static dielectric constant tensor:
#      x y z
#    x 1.831890 0.000000 0.000000 
#    y 0.000000 1.831890 0.000000 
#    z 0.000000 0.000000 1.852740 
# 
# From -- ./inp_files/1238.got.cif
#   From: 2010.05.17/outbox.cif.g08.bks.cpg/sg112_1_cif.got.tgz:1238.got - 2010.05.20 10:59:04.
