data_PCOD9555681
_publ_section_title
;
Structure prediction by ZEFSAII (Michael W. Deem and Ramdas Pophale) SiO2 
 PCOD9555681
Probable space group: P -4 21 M 
;
_chemical_formula_sum "Si O2"
_cell_formula_units_Z 32
_cell_length_a 11.642974
_cell_length_b 11.642974
_cell_length_c 10.640830
_cell_angle_alpha 90.000000
_cell_angle_beta 90.000000
_cell_angle_gamma 90.000000
_cell_volume 1442.458609
_symmetry_space_group_name_H-M "P -4 21 M "
_symmetry_group_IT_number 113
_symmetry_cell_setting 'tetragonal'
loop_
_space_group_symop_operation_xyz
x,y,z
y,-x,-z
-x,-y,z
-y,x,-z
1/2+x,1/2-y,-z
1/2-x,1/2+y,-z
1/2-y,1/2-x,z
1/2+y,1/2+x,z
loop_
_atom_site_type_symbol
_atom_site_label
_atom_site_fract_x
_atom_site_fract_y
_atom_site_fract_z
Si Si1 0.020630 0.190320 0.988394
Si Si2 0.045642 0.133127 0.725014
Si Si3 0.528063 0.786454 0.753528
Si Si4 0.994564 0.688078 0.522951
O O1 0.015547 0.218830 0.841117
O O2 0.032427 0.266901 0.112287
O O3 0.122520 0.098156 0.992440
O O4 0.000217 0.194688 0.600861
O O5 0.181937 0.116439 0.728572
O O6 0.000000 0.000000 0.742607
O O7 0.596213 0.903788 0.763721
O O8 0.462179 0.787021 0.622035
O O9 0.112190 0.612190 0.523797
O O10 0.894968 0.605033 0.576035
#
# Coordination Sequence:
#
# PCOD9555681 Si02
#       4
#     8   8   8   8
#     4   9  16  35  56  81 118 156 195 255 313 359
#     4  11  21  37  64  92 123 160 207 264 312 368
#     4  10  21  36  59  89 120 161 209 259 312 371
#     4  10  24  44  61  88 132 171 207 256 313 375
#
# _framework density 22.184346999999999
#
# number of rings (size 3 to 8) (size 9 to 14) (size 15 to 20)
#    0.000    2.000    5.000    0.750    3.500    1.000 
#    0.000    6.250    0.000    3.000    0.000    0.000 
#    0.000    0.000    0.000    0.000    0.000    0.000 
#
# Total GULP energy -178191.989719 kJ/mol
# GULP energy per Si atom -5568.499679 kJ/mol
# Density = 2.213385 g / cm^3
# Si number density = 22.184347 Si / 1000 Ang^3
#
#
#
# Elastic Constant Matrix: (Units=GPa)
#
#
# Indices 1 2 3 4 5 6 
#
# 1 43.5410 23.4325 42.4658 0.0000 0.0000 0.0000
# 2 23.4325 43.5383 42.4658 0.0000 0.0000 0.0000
# 3 42.4658 42.4658 180.2890 0.0000 0.0000 0.0000
# 4 0.0000 0.0000 0.0000 10.6452 0.0000 0.0000
# 5 0.0000 0.0000 0.0000 0.0000 10.6438 0.0000
# 6 0.0000 0.0000 0.0000 0.0000 0.0000 37.4797
#
#
#
# Elastic Compliance Matrix: (Units=1/GPa)
#
#
# Indices 1 2 3 4 5 6 
#
# 1 0.035511 -0.014221 -0.005015 0.000000 0.000000 0.000000
# 2 -0.014221 0.035514 -0.005015 0.000000 0.000000 0.000000
# 3 -0.005015 -0.005015 0.007909 0.000000 0.000000 0.000000
# 4 0.000000 0.000000 0.000000 0.093939 0.000000 0.000000
# 5 0.000000 0.000000 0.000000 0.000000 0.093952 0.000000
# 6 0.000000 0.000000 0.000000 0.000000 0.000000 0.026681
#
#
# Mechanical properties :
#
#
# Convention : Reuss Voigt Hill
#
# Bulk Modulus (GPa) = 32.86025 53.78850 43.32437
# Shear Modulus (GPa) = 14.19840 22.35403 18.27622
#
# Velocity S-wave (km/s) = 2.53260 3.17779 2.87336
# Velocity P-wave (km/s) = 4.83701 6.14518 5.52991
#
# Compressibility (1/GPa) = 0.03043191
#
# Stress axis : x y z
#
# Youngs Moduli (GPa) = 28.16018 28.15798 126.43549
#
# Poissons Ratio (x) = 0.40044 0.63404
# Poissons Ratio (y) = 0.40047 0.63412
# Poissons Ratio (z) = 0.14122 0.14122
#
# Static dielectric constant tensor:
#      x y z
#    x 1.819820 0.000000 0.000000 
#    y 0.000000 1.819820 0.000000 
#    z 0.000000 0.000000 1.931470 
# 
# From -- ./inp_files/1549.got.cif
#   From: 2010.05.17/outbox.cif.g08.bks.cpg/sg113_cif.got.tgz:1549.got - 2010.05.20 11:03:00.
