data_PCOD9555538
_publ_section_title
;
Structure prediction by ZEFSAII (Michael W. Deem and Ramdas Pophale) SiO2 
 PCOD9555538
Probable space group: P -4 21 M 
;
_chemical_formula_sum "Si O2"
_cell_formula_units_Z 38
_cell_length_a 20.469445
_cell_length_b 20.469445
_cell_length_c 5.108266
_cell_angle_alpha 90.000000
_cell_angle_beta 90.000000
_cell_angle_gamma 90.000000
_cell_volume 2140.354150
_symmetry_space_group_name_H-M "P -4 21 M "
_symmetry_group_IT_number 113
_symmetry_cell_setting 'tetragonal'
loop_
_space_group_symop_operation_xyz
x,y,z
y,-x,-z
-x,-y,z
-y,x,-z
1/2+x,1/2-y,-z
1/2-x,1/2+y,-z
1/2-y,1/2-x,z
1/2+y,1/2+x,z
loop_
_atom_site_type_symbol
_atom_site_label
_atom_site_fract_x
_atom_site_fract_y
_atom_site_fract_z
Si Si1 0.302121 0.520160 0.069021
Si Si2 0.929675 0.429675 0.524340
Si Si3 0.225478 0.561585 0.562079
Si Si4 0.000000 0.500000 0.024571
Si Si5 0.196158 0.801995 0.564667
Si Si6 0.345605 0.376991 0.928492
O O1 0.264159 0.520391 0.343420
O O2 0.354773 0.578833 0.074365
O O3 0.249737 0.538027 0.844982
O O4 0.335219 0.451849 0.000916
O O5 0.851699 0.441789 0.528432
O O6 0.960036 0.460036 0.260027
O O7 0.960138 0.460138 0.788898
O O8 0.251342 0.635959 0.529063
O O9 0.262876 0.762876 0.530818
O O10 0.185189 0.857735 0.349287
O O11 0.189070 0.832920 0.850566
#
# Coordination Sequence:
#
# PCOD9555538 Si02
#       6
#     8   4   8   2   8   8
#     4  10  21  36  56  88 111 157 181 235 273 342
#     4  11  20  40  60  86 108 148 186 258 258 343
#     4  10  20  35  63  82 109 141 194 235 286 308
#     4  10  24  34  60  82 112 142 184 222 308 322
#     4  10  19  35  58  87 104 140 186 241 282 322
#     4  10  21  35  57  80 119 144 191 223 280 333
#
# _framework density 17.754069999999999
#
# number of rings (size 3 to 8) (size 9 to 14) (size 15 to 20)
#    0.000    1.895    1.053    3.158    0.000    0.421 
#    0.000    0.000   46.316    7.579    0.000    0.000 
#    0.000    0.000    0.000    0.000    0.000    0.000 
#
# Total GULP energy -211588.346962 kJ/mol
# GULP energy per Si atom -5568.114394 kJ/mol
# Density = 1.771366 g / cm^3
# Si number density = 17.754070 Si / 1000 Ang^3
#
#
#
# Elastic Constant Matrix: (Units=GPa)
#
#
# Indices 1 2 3 4 5 6 
#
# 1 41.4573 53.9705 -9.9004 0.0000 0.0000 0.0000
# 2 53.9705 41.4573 -9.9004 0.0000 0.0000 0.0000
# 3 -9.9004 -9.9004 73.8643 0.0000 0.0000 0.0000
# 4 0.0000 0.0000 0.0000 12.8480 0.0000 0.0000
# 5 0.0000 0.0000 0.0000 0.0000 12.8480 0.0000
# 6 0.0000 0.0000 0.0000 0.0000 0.0000 22.0317
#
#
#
# Elastic Compliance Matrix: (Units=1/GPa)
#
#
# Indices 1 2 3 4 5 6 
#
# 1 -0.034568 0.045347 0.001445 0.000000 0.000000 0.000000
# 2 0.045347 -0.034568 0.001445 0.000000 0.000000 0.000000
# 3 0.001445 0.001445 0.013926 0.000000 0.000000 0.000000
# 4 0.000000 0.000000 0.000000 0.077833 0.000000 0.000000
# 5 0.000000 0.000000 0.000000 0.000000 0.077833 0.000000
# 6 0.000000 0.000000 0.000000 0.000000 0.000000 0.045389
#
#
# Mechanical properties :
#
#
# Convention : Reuss Voigt Hill
#
# Bulk Modulus (GPa) = 24.23510 25.01314 24.62412
# Shear Modulus (GPa) = 79.20791 17.71948 48.46370
#
# Velocity S-wave (km/s) = 6.68661 3.16262 5.23034
# Velocity P-wave (km/s) = 8.56122 5.23980 7.09753
#
# Compressibility (1/GPa) = 0.04126246
#
# Stress axis : x y z
#
# Youngs Moduli (GPa) = -28.92815 -28.92815 71.81001
#
# Poissons Ratio (x) = 1.31181 -0.10375
# Poissons Ratio (y) = 1.31181 -0.10375
# Poissons Ratio (z) = 0.04179 0.04179
#
# Static dielectric constant tensor:
#      x y z
#    x 1.585310 0.000000 0.000000 
#    y 0.000000 1.585310 0.000000 
#    z 0.000000 0.000000 1.598790 
# 
# From -- ./inp_files/415.got.cif
#   From: 2010.05.17/outbox.cif.g08.bks.cpg/sg113_cif.got.tgz:415.got - 2010.05.20 11:03:00.
