data_PCOD9555206
_publ_section_title
;
Structure prediction by ZEFSAII (Michael W. Deem and Ramdas Pophale) SiO2 
 PCOD9555206
Probable space group: P -4 2 C
;
_chemical_formula_sum "Si O2"
_cell_formula_units_Z 42
_cell_length_a 9.044043
_cell_length_b 9.044043
_cell_length_c 24.437408
_cell_angle_alpha 90.000000
_cell_angle_beta 90.000000
_cell_angle_gamma 90.000000
_cell_volume 1998.850793
_symmetry_space_group_name_H-M "P -4 2 C"
_symmetry_group_IT_number 112
_symmetry_cell_setting 'tetragonal'
loop_
_space_group_symop_operation_xyz
x,y,z
y,-x,-z
-x,-y,z
-y,x,-z
x,-y,1/2-z
-x,y,1/2-z
-y,-x,1/2+z
y,x,1/2+z
loop_
_atom_site_type_symbol
_atom_site_label
_atom_site_fract_x
_atom_site_fract_y
_atom_site_fract_z
Si Si1 0.177005 0.034183 0.068470
Si Si2 0.833839 0.522486 0.125862
Si Si3 0.000000 0.500000 0.750000
Si Si4 0.805533 0.660686 0.008067
Si Si5 0.331964 0.181262 0.159747
Si Si6 0.342947 0.420281 0.903340
O O1 0.220614 0.186350 0.038957
O O2 0.226581 0.061956 0.130190
O O3 0.000000 0.000000 0.063342
O O4 0.283554 0.922433 0.037184
O O5 0.841403 0.558660 0.060075
O O6 0.757264 0.661502 0.157052
O O7 0.736052 0.373260 0.126426
O O8 0.000000 0.500000 0.145389
O O9 0.108429 0.604089 0.785839
O O10 0.684971 0.596462 0.967584
O O11 0.477798 0.218755 0.123523
O O12 0.500000 0.500000 0.896033
#
# Coordination Sequence:
#
# PCOD9555206 Si02
#       6
#     8   8   2   8   8   8
#     4  11  21  38  56  96 136 179 219 268 330 403
#     4  10  23  37  63 101 142 181 219 269 330 410
#     4  12  24  56  76  96 108 172 242 310 352 402
#     4  11  20  31  57  87 141 192 209 242 314 400
#     4  10  25  43  71  92 126 170 236 285 343 385
#     4  10  23  38  57  96 139 179 227 269 312 406
#
# _framework density 21.012076
#
# number of rings (size 3 to 8) (size 9 to 14) (size 15 to 20)
#    0.000    1.524    1.905    2.286   13.333    0.000 
#    0.000    4.762    0.000    1.143    0.000    0.000 
#    0.000    0.000    0.000    0.000    0.000    0.000 
#
# Total GULP energy -234121.386529 kJ/mol
# GULP energy per Si atom -5574.318727 kJ/mol
# Density = 2.096425 g / cm^3
# Si number density = 21.012076 Si / 1000 Ang^3
#
#
#
# Elastic Constant Matrix: (Units=GPa)
#
#
# Indices 1 2 3 4 5 6 
#
# 1 79.3672 40.7832 37.7218 0.0000 0.0000 0.0000
# 2 40.7832 79.3672 37.7218 0.0000 0.0000 0.0000
# 3 37.7218 37.7218 86.8693 0.0000 0.0000 0.0000
# 4 0.0000 0.0000 0.0000 151.2956 0.0000 0.0000
# 5 0.0000 0.0000 0.0000 0.0000 151.2956 0.0000
# 6 0.0000 0.0000 0.0000 0.0000 0.0000 19.1525
#
#
#
# Elastic Compliance Matrix: (Units=1/GPa)
#
#
# Indices 1 2 3 4 5 6 
#
# 1 0.018680 -0.007237 -0.004969 0.000000 0.000000 0.000000
# 2 -0.007237 0.018680 -0.004969 0.000000 0.000000 0.000000
# 3 -0.004969 -0.004969 0.015827 0.000000 0.000000 0.000000
# 4 0.000000 0.000000 0.000000 0.006610 0.000000 0.000000
# 5 0.000000 0.000000 0.000000 0.000000 0.006610 0.000000
# 6 0.000000 0.000000 0.000000 0.000000 0.000000 0.052213
#
#
# Mechanical properties :
#
#
# Convention : Reuss Voigt Hill
#
# Bulk Modulus (GPa) = 53.08685 53.11750 53.10218
# Shear Modulus (GPa) = 31.39749 72.97388 52.18569
#
# Velocity S-wave (km/s) = 3.86976 5.89957 4.98898
# Velocity P-wave (km/s) = 6.72952 8.47000 7.64942
#
# Compressibility (1/GPa) = 0.01883706
#
# Stress axis : x y z
#
# Youngs Moduli (GPa) = 53.53265 53.53265 63.18335
#
# Poissons Ratio (x) = 0.38743 0.31396
# Poissons Ratio (y) = 0.38743 0.31396
# Poissons Ratio (z) = 0.26600 0.26600
#
# Static dielectric constant tensor:
#      x y z
#    x 1.255200 0.000000 0.000000 
#    y 0.000000 1.255200 0.000000 
#    z 0.000000 0.000000 1.764080 
# 
# From -- ./inp_files/5858.got.cif
#   From: 2010.05.17/outbox.cif.g08.bks.cpg/sg112_3_cif.got.tgz:5858.got - 2010.05.20 10:59:04.
