data_PCOD9555220
_publ_section_title
;
Structure prediction by ZEFSAII (Michael W. Deem and Ramdas Pophale) SiO2 
 PCOD9555220
Probable space group: P -4 2 C
;
_chemical_formula_sum "Si O2"
_cell_formula_units_Z 48
_cell_length_a 8.579460
_cell_length_b 8.579460
_cell_length_c 29.836492
_cell_angle_alpha 90.000000
_cell_angle_beta 90.000000
_cell_angle_gamma 90.000000
_cell_volume 2196.178661
_symmetry_space_group_name_H-M "P -4 2 C"
_symmetry_group_IT_number 112
_symmetry_cell_setting 'tetragonal'
loop_
_space_group_symop_operation_xyz
x,y,z
y,-x,-z
-x,-y,z
-y,x,-z
x,-y,1/2-z
-x,y,1/2-z
-y,-x,1/2+z
y,x,1/2+z
loop_
_atom_site_type_symbol
_atom_site_label
_atom_site_fract_x
_atom_site_fract_y
_atom_site_fract_z
Si Si1 0.264675 0.577237 0.569572
Si Si2 0.236844 0.822883 0.335364
Si Si3 0.735874 0.064433 0.431789
Si Si4 0.527146 0.338885 0.657476
Si Si5 0.000000 0.000000 0.000000
Si Si6 0.500000 0.500000 0.000000
Si Si7 0.083446 0.728474 0.206450
Si Si8 0.716850 0.000000 0.250000
O O1 0.192403 0.402684 0.563999
O O2 0.359340 0.614627 0.615670
O O3 0.392135 0.602269 0.531646
O O4 0.112669 0.679851 0.561730
O O5 0.232464 0.930376 0.378663
O O6 0.289158 0.650712 0.351202
O O7 0.059091 0.797542 0.321092
O O8 0.339840 0.893963 0.293448
O O9 0.877711 0.085675 0.466431
O O10 0.500000 0.500000 0.684478
O O11 0.609220 0.196782 0.682290
O O12 0.000000 0.660613 0.250000
O O13 0.185611 0.872433 0.223387
#
# Coordination Sequence:
#
# PCOD9555220 Si02
#       8
#     8   8   8   8   2   2   8   4
#     4  11  24  44  72  98 142 193 237 299 371 440
#     4  11  22  43  70  99 141 188 243 300 358 435
#     4  11  25  45  69 104 147 183 239 305 371 434
#     4  12  24  44  69 104 141 193 248 293 364 444
#     4  12  28  44  72 118 140 180 252 308 380 438
#     4  12  20  44  72  96 136 186 248 292 360 436
#     4  10  23  44  70 101 139 187 243 297 358 427
#     4  10  23  42  69  98 133 190 241 288 365 408
#
# _framework density 21.856145999999999
#
# number of rings (size 3 to 8) (size 9 to 14) (size 15 to 20)
#    0.000    1.000    2.500    4.750    4.667    4.667 
#    0.000    7.500    0.000    0.000    0.000    0.000 
#    0.000    0.000    0.000    0.000    0.000    0.000 
#
# Total GULP energy -267513.708006 kJ/mol
# GULP energy per Si atom -5573.202250 kJ/mol
# Density = 2.180640 g / cm^3
# Si number density = 21.856146 Si / 1000 Ang^3
#
#
#
# Elastic Constant Matrix: (Units=GPa)
#
#
# Indices 1 2 3 4 5 6 
#
# 1 81.6117 -0.8973 28.1571 0.0000 0.0000 0.0000
# 2 -0.8973 81.6117 28.1571 0.0000 0.0000 0.0000
# 3 28.1571 28.1571 112.0571 0.0000 0.0000 0.0000
# 4 0.0000 0.0000 0.0000 175.6533 0.0000 0.0000
# 5 0.0000 0.0000 0.0000 0.0000 175.6533 0.0000
# 6 0.0000 0.0000 0.0000 0.0000 0.0000 23.3699
#
#
#
# Elastic Compliance Matrix: (Units=1/GPa)
#
#
# Indices 1 2 3 4 5 6 
#
# 1 0.013572 0.001452 -0.003775 0.000000 0.000000 0.000000
# 2 0.001452 0.013572 -0.003775 0.000000 0.000000 0.000000
# 3 -0.003775 -0.003775 0.010821 0.000000 0.000000 0.000000
# 4 0.000000 0.000000 0.000000 0.005693 0.000000 0.000000
# 5 0.000000 0.000000 0.000000 0.000000 0.005693 0.000000
# 6 0.000000 0.000000 0.000000 0.000000 0.000000 0.042790
#
#
# Mechanical properties :
#
#
# Convention : Reuss Voigt Hill
#
# Bulk Modulus (GPa) = 38.80838 42.90160 40.85499
# Shear Modulus (GPa) = 44.27676 89.59287 66.93481
#
# Velocity S-wave (km/s) = 4.50580 6.40945 5.54000
# Velocity P-wave (km/s) = 6.69810 8.62823 7.72369
#
# Compressibility (1/GPa) = 0.02576763
#
# Stress axis : x y z
#
# Youngs Moduli (GPa) = 73.68376 73.68376 92.41188
#
# Poissons Ratio (x) = -0.10696 0.34885
# Poissons Ratio (y) = -0.10696 0.34885
# Poissons Ratio (z) = 0.27815 0.27815
#
# Static dielectric constant tensor:
#      x y z
#    x 1.801900 0.000000 0.000000 
#    y 0.000000 1.801900 0.000000 
#    z 0.000000 0.000000 1.708620 
# 
# From -- ./inp_files/6397.got.cif
#   From: 2010.05.17/outbox.cif.g08.bks.cpg/sg112_4_cif.got.tgz:6397.got - 2010.05.20 10:59:04.
