data_PCOD9555015
_publ_section_title
;
Structure prediction by ZEFSAII (Michael W. Deem and Ramdas Pophale) SiO2 
 PCOD9555015
Probable space group: P -4 2 C
;
_chemical_formula_sum "Si O2"
_cell_formula_units_Z 36
_cell_length_a 9.533220
_cell_length_b 9.533220
_cell_length_c 18.778109
_cell_angle_alpha 90.000000
_cell_angle_beta 90.000000
_cell_angle_gamma 90.000000
_cell_volume 1706.597427
_symmetry_space_group_name_H-M "P -4 2 C"
_symmetry_group_IT_number 112
_symmetry_cell_setting 'tetragonal'
loop_
_space_group_symop_operation_xyz
x,y,z
y,-x,-z
-x,-y,z
-y,x,-z
x,-y,1/2-z
-x,y,1/2-z
-y,-x,1/2+z
y,x,1/2+z
loop_
_atom_site_type_symbol
_atom_site_label
_atom_site_fract_x
_atom_site_fract_y
_atom_site_fract_z
Si Si1 0.687510 0.151987 0.853775
Si Si2 0.195044 0.900691 0.476546
Si Si3 0.000000 0.000000 0.250000
Si Si4 0.500000 0.000000 0.250000
Si Si5 0.387930 0.159824 0.901820
Si Si6 0.751482 0.189393 0.205072
O O1 0.546412 0.207354 0.890957
O O2 0.718245 0.214861 0.776198
O O3 0.650499 0.985454 0.858725
O O4 0.823280 0.184021 0.901600
O O5 0.338365 0.870454 0.518344
O O6 0.066126 0.835609 0.522946
O O7 0.890914 0.090633 0.203570
O O8 0.389087 0.901222 0.209987
O O9 0.287190 0.266233 0.862479
#
# Coordination Sequence:
#
# PCOD9555015 Si02
#       6
#     8   8   2   2   8   8
#     4  10  20  37  62  93 119 154 199 248 295 349
#     4   9  20  34  56  87 124 156 198 245 294 345
#     4  10  20  30  66  92 116 146 198 244 300 346
#     4  10  28  38  54  98 124 150 198 244 328 330
#     4  10  20  37  62  93 119 154 199 248 295 349
#     4  11  21  39  60  91 119 156 195 253 294 359
#
# _framework density 21.094605999999999
#
# number of rings (size 3 to 8) (size 9 to 14) (size 15 to 20)
#    0.000    2.000    2.222    0.667    6.222    1.778 
#    4.000    2.222    0.000    0.000    0.000    0.000 
#    0.000    0.000    0.000    0.000    0.000    0.000 
#
# Total GULP energy -200739.446117 kJ/mol
# GULP energy per Si atom -5576.095725 kJ/mol
# Density = 2.104659 g / cm^3
# Si number density = 21.094606 Si / 1000 Ang^3
#
#
#
# Elastic Constant Matrix: (Units=GPa)
#
#
# Indices 1 2 3 4 5 6 
#
# 1 80.0968 6.4892 3.6900 0.0000 0.0000 0.0000
# 2 6.4892 80.0968 3.6900 0.0000 0.0000 0.0000
# 3 3.6900 3.6900 42.8751 0.0000 0.0000 0.0000
# 4 0.0000 0.0000 0.0000 14.7813 0.0000 0.0000
# 5 0.0000 0.0000 0.0000 0.0000 14.7813 0.0000
# 6 0.0000 0.0000 0.0000 0.0000 0.0000 20.1503
#
#
#
# Elastic Compliance Matrix: (Units=1/GPa)
#
#
# Indices 1 2 3 4 5 6 
#
# 1 0.012610 -0.000975 -0.001001 0.000000 0.000000 0.000000
# 2 -0.000975 0.012610 -0.001001 0.000000 0.000000 0.000000
# 3 -0.001001 -0.001001 0.023496 0.000000 0.000000 0.000000
# 4 0.000000 0.000000 0.000000 0.067653 0.000000 0.000000
# 5 0.000000 0.000000 0.000000 0.000000 0.067653 0.000000
# 6 0.000000 0.000000 0.000000 0.000000 0.000000 0.049627
#
#
# Mechanical properties :
#
#
# Convention : Reuss Voigt Hill
#
# Bulk Modulus (GPa) = 23.38649 25.64524 24.51587
# Shear Modulus (GPa) = 19.69599 22.55587 21.12593
#
# Velocity S-wave (km/s) = 3.05896 3.27352 3.16806
# Velocity P-wave (km/s) = 4.85663 5.14505 5.00292
#
# Compressibility (1/GPa) = 0.04275973
#
# Stress axis : x y z
#
# Youngs Moduli (GPa) = 79.30179 79.30179 42.56060
#
# Poissons Ratio (x) = 0.07736 0.04262
# Poissons Ratio (y) = 0.07736 0.04262
# Poissons Ratio (z) = 0.07941 0.07941
#
# Static dielectric constant tensor:
#      x y z
#    x 1.823030 0.000000 0.000000 
#    y 0.000000 1.823030 0.000000 
#    z 0.000000 0.000000 1.775360 
# 
# From -- ./inp_files/4702.got.cif
#   From: 2010.05.17/outbox.cif.g08.bks.cpg/sg112_3_cif.got.tgz:4702.got - 2010.05.20 10:59:04.
