data_PCOD9555411
_publ_section_title
;
Structure prediction by ZEFSAII (Michael W. Deem and Ramdas Pophale) SiO2 
 PCOD9555411
Probable space group: P -4 2 C
;
_chemical_formula_sum "Si O2"
_cell_formula_units_Z 40
_cell_length_a 13.995474
_cell_length_b 13.995474
_cell_length_c 8.995202
_cell_angle_alpha 90.000000
_cell_angle_beta 90.000000
_cell_angle_gamma 90.000000
_cell_volume 1761.919832
_symmetry_space_group_name_H-M "P -4 2 C"
_symmetry_group_IT_number 112
_symmetry_cell_setting 'tetragonal'
loop_
_space_group_symop_operation_xyz
x,y,z
y,-x,-z
-x,-y,z
-y,x,-z
x,-y,1/2-z
-x,y,1/2-z
-y,-x,1/2+z
y,x,1/2+z
loop_
_atom_site_type_symbol
_atom_site_label
_atom_site_fract_x
_atom_site_fract_y
_atom_site_fract_z
Si Si1 0.619436 0.000000 0.750000
Si Si2 0.500000 0.500000 0.000000
Si Si3 0.000000 0.500000 0.750000
Si Si4 0.298734 0.555388 0.100295
Si Si5 0.837821 0.727542 0.436176
Si Si6 0.111311 0.261816 0.777308
Si Si7 0.546619 0.871897 0.475724
O O1 0.680722 0.070451 0.644532
O O2 0.566484 0.926717 0.632056
O O3 0.551497 0.588201 0.919555
O O4 0.074021 0.465598 0.623048
O O5 0.278045 0.500000 0.250000
O O6 0.252741 0.659762 0.102331
O O7 0.234773 0.492493 0.987882
O O8 0.843842 0.731986 0.613484
O O9 0.817740 0.831193 0.368293
O O10 0.119235 0.357735 0.878035
O O11 0.000000 0.242825 0.750000
#
# Coordination Sequence:
#
# PCOD9555411 Si02
#       7
#     4   2   2   8   8   8   8
#     4  12  22  45  77 112 152 188 261 328 399 456
#     4  12  30  52  68 106 160 214 256 302 364 478
#     4  12  24  38  68 110 152 188 244 328 396 444
#     4  12  27  48  75 108 152 203 260 311 380 456
#     4  12  27  46  80 112 149 203 251 323 390 466
#     4  12  26  49  75 112 155 199 255 316 389 466
#     4  12  23  44  72 113 149 197 258 324 392 452
#
# _framework density 22.70251
#
# number of rings (size 3 to 8) (size 9 to 14) (size 15 to 20)
#    0.000    0.000    5.000    5.100    2.800    0.800 
#    7.200    0.500    0.000    0.000    0.000    0.000 
#    0.000    0.000    0.000    0.000    0.000    0.000 
#
# Total GULP energy -223270.170459 kJ/mol
# GULP energy per Si atom -5581.754261 kJ/mol
# Density = 2.265084 g / cm^3
# Si number density = 22.702510 Si / 1000 Ang^3
#
#
#
# Elastic Constant Matrix: (Units=GPa)
#
#
# Indices 1 2 3 4 5 6 
#
# 1 98.3732 24.9156 10.6420 0.0000 0.0000 0.0000
# 2 24.9156 98.3732 10.6420 0.0000 0.0000 0.0000
# 3 10.6420 10.6420 120.8955 0.0000 0.0000 0.0000
# 4 0.0000 0.0000 0.0000 25.5477 0.0000 0.0000
# 5 0.0000 0.0000 0.0000 0.0000 25.5477 0.0000
# 6 0.0000 0.0000 0.0000 0.0000 0.0000 40.3656
#
#
#
# Elastic Compliance Matrix: (Units=1/GPa)
#
#
# Indices 1 2 3 4 5 6 
#
# 1 0.010925 -0.002689 -0.000725 0.000000 0.000000 0.000000
# 2 -0.002689 0.010925 -0.000725 0.000000 0.000000 0.000000
# 3 -0.000725 -0.000725 0.008399 0.000000 0.000000 0.000000
# 4 0.000000 0.000000 0.000000 0.039143 0.000000 0.000000
# 5 0.000000 0.000000 0.000000 0.000000 0.039143 0.000000
# 6 0.000000 0.000000 0.000000 0.000000 0.000000 0.024774
#
#
# Mechanical properties :
#
#
# Convention : Reuss Voigt Hill
#
# Bulk Modulus (GPa) = 45.51322 45.56010 45.53666
# Shear Modulus (GPa) = 33.57770 36.38834 34.98302
#
# Velocity S-wave (km/s) = 3.84999 4.00788 3.92973
# Velocity P-wave (km/s) = 6.31303 6.44433 6.37902
#
# Compressibility (1/GPa) = 0.02197164
#
# Stress axis : x y z
#
# Youngs Moduli (GPa) = 91.53535 91.53535 119.05833
#
# Poissons Ratio (x) = 0.24610 0.08632
# Poissons Ratio (y) = 0.24610 0.08632
# Poissons Ratio (z) = 0.06636 0.06636
#
# Static dielectric constant tensor:
#      x y z
#    x 1.943520 0.000000 0.000000 
#    y 0.000000 1.943520 0.000000 
#    z 0.000000 0.000000 1.822990 
# 
# From -- ./inp_files/1317.got.cif
#   From: 2010.05.17/outbox.cif.g08.bks.cpg/sg112_1_cif.got.tgz:1317.got - 2010.05.20 10:59:04.
