data_PCOD9555261
_publ_section_title
;
Structure prediction by ZEFSAII (Michael W. Deem and Ramdas Pophale) SiO2 
 PCOD9555261
Probable space group: P -4 2 C
;
_chemical_formula_sum "Si O2"
_cell_formula_units_Z 20
_cell_length_a 5.257774
_cell_length_b 5.257774
_cell_length_c 29.085570
_cell_angle_alpha 90.000000
_cell_angle_beta 90.000000
_cell_angle_gamma 90.000000
_cell_volume 804.046949
_symmetry_space_group_name_H-M "P -4 2 C"
_symmetry_group_IT_number 112
_symmetry_cell_setting 'tetragonal'
loop_
_space_group_symop_operation_xyz
x,y,z
y,-x,-z
-x,-y,z
-y,x,-z
x,-y,1/2-z
-x,y,1/2-z
-y,-x,1/2+z
y,x,1/2+z
loop_
_atom_site_type_symbol
_atom_site_label
_atom_site_fract_x
_atom_site_fract_y
_atom_site_fract_z
Si Si1 0.251761 0.329387 0.326035
Si Si2 0.000000 0.000000 0.750000
Si Si3 0.325584 0.254086 0.928387
Si Si4 0.000000 0.000000 0.500000
O O1 0.500000 0.500000 0.318243
O O2 0.275104 0.209817 0.376923
O O3 0.000000 0.500000 0.328593
O O4 0.188047 0.148732 0.284030
O O5 0.500000 0.500000 0.935873
O O6 0.114708 0.213518 0.966804
O O7 0.500000 0.000000 0.929945
#
# Coordination Sequence:
#
# PCOD9555261 Si02
#       4
#     8   2   8   2
#     4  10  24  46  68 105 149 193 247 313 382 458
#     4  12  24  42  80 106 140 202 256 310 380 458
#     4  10  25  46  71 104 153 197 248 318 392 461
#     4  12  26  40  76 110 140 192 266 304 384 466
#
# _framework density 24.874172000000002
#
# number of rings (size 3 to 8) (size 9 to 14) (size 15 to 20)
#    0.000    1.600    0.000    1.800    5.600    6.400 
#    0.000   12.000    0.000    7.200    0.000    0.000 
#    0.000    0.000    0.000    0.000    0.000    0.000 
#
# Total GULP energy -112187.658341 kJ/mol
# GULP energy per Si atom -5609.382917 kJ/mol
# Density = 2.481756 g / cm^3
# Si number density = 24.874172 Si / 1000 Ang^3
#
#
#
# Elastic Constant Matrix: (Units=GPa)
#
#
# Indices 1 2 3 4 5 6 
#
# 1 145.3015 60.9077 97.7610 0.0000 0.0000 0.0000
# 2 60.9077 145.3015 97.7610 0.0000 0.0000 0.0000
# 3 97.7610 97.7610 280.8047 0.0000 0.0000 0.0000
# 4 0.0000 0.0000 0.0000 -79.8463 0.0000 0.0000
# 5 0.0000 0.0000 0.0000 0.0000 -79.8463 0.0000
# 6 0.0000 0.0000 0.0000 0.0000 0.0000 36.2835
#
#
#
# Elastic Compliance Matrix: (Units=1/GPa)
#
#
# Indices 1 2 3 4 5 6 
#
# 1 0.009544 -0.002305 -0.002520 0.000000 0.000000 0.000000
# 2 -0.002305 0.009544 -0.002520 0.000000 0.000000 0.000000
# 3 -0.002520 -0.002520 0.005316 0.000000 0.000000 0.000000
# 4 0.000000 0.000000 0.000000 -0.012524 0.000000 0.000000
# 5 0.000000 0.000000 0.000000 0.000000 -0.012524 0.000000
# 6 0.000000 0.000000 0.000000 0.000000 0.000000 0.027561
#
#
# Mechanical properties :
#
#
# Convention : Reuss Voigt Hill
#
# Bulk Modulus (GPa) = 102.95307 120.47413 111.71360
# Shear Modulus (GPa) = 111.49316 -3.68327 53.90494
#
# Velocity S-wave (km/s) = 6.70225 -1.21819 4.66027
# Velocity P-wave (km/s) = 10.06841 6.82348 8.60037
#
# Compressibility (1/GPa) = 0.00971316
#
# Stress axis : x y z
#
# Youngs Moduli (GPa) = 104.77627 104.77627 188.11037
#
# Poissons Ratio (x) = 0.24152 0.47409
# Poissons Ratio (y) = 0.24152 0.47409
# Poissons Ratio (z) = 0.26406 0.26406
#
# Static dielectric constant tensor:
#      x y z
#    x 1.965260 0.000000 0.000000 
#    y 0.000000 1.965260 0.000000 
#    z 0.000000 0.000000 1.979050 
# 
# From -- ./inp_files/5660.got.cif
#   From: 2010.05.17/outbox.cif.g08.bks.cpg/sg112_3_cif.got.tgz:5660.got - 2010.05.20 10:59:04.
