data_PCOD9555267
_publ_section_title
;
Structure prediction by ZEFSAII (Michael W. Deem and Ramdas Pophale) SiO2 
 PCOD9555267
Probable space group: P -4 2 C
;
_chemical_formula_sum "Si O2"
_cell_formula_units_Z 36
_cell_length_a 10.945914
_cell_length_b 10.945914
_cell_length_c 13.357288
_cell_angle_alpha 90.000000
_cell_angle_beta 90.000000
_cell_angle_gamma 90.000000
_cell_volume 1600.377192
_symmetry_space_group_name_H-M "P -4 2 C"
_symmetry_group_IT_number 112
_symmetry_cell_setting 'tetragonal'
loop_
_space_group_symop_operation_xyz
x,y,z
y,-x,-z
-x,-y,z
-y,x,-z
x,-y,1/2-z
-x,y,1/2-z
-y,-x,1/2+z
y,x,1/2+z
loop_
_atom_site_type_symbol
_atom_site_label
_atom_site_fract_x
_atom_site_fract_y
_atom_site_fract_z
Si Si1 0.800398 0.092977 0.890824
Si Si2 0.000000 0.500000 0.750000
Si Si3 0.228236 0.334676 0.720158
Si Si4 0.324867 0.428463 0.539303
Si Si5 0.000000 0.000000 0.250000
Si Si6 0.819708 0.752476 0.418966
O O1 0.739385 0.210683 0.841302
O O2 0.744233 0.958377 0.879509
O O3 0.817401 0.130441 0.006428
O O4 0.922492 0.083069 0.824489
O O5 0.902643 0.597554 0.703443
O O6 0.314480 0.428105 0.659013
O O7 0.235414 0.283158 0.832898
O O8 0.347883 0.560620 0.495042
O O9 0.209682 0.365146 0.486456
#
# Coordination Sequence:
#
# PCOD9555267 Si02
#       6
#     8   2   8   8   2   8
#     4  11  23  37  63  99 148 186 238 295 375 462
#     4  12  26  40  66  98 148 188 252 310 370 456
#     4  11  24  43  66 103 140 192 241 311 367 446
#     4  10  24  47  71 100 138 189 252 306 373 456
#     4  12  18  38  60  94 148 206 236 298 370 470
#     4  11  23  41  67 104 140 194 238 302 384 451
#
# _framework density 22.494696999999999
#
# number of rings (size 3 to 8) (size 9 to 14) (size 15 to 20)
#    0.000    1.111    2.222    3.333    6.222    0.889 
#    0.000    2.222    0.000    5.333    0.000    0.000 
#    0.000    0.000    0.000    0.000    0.000    0.000 
#
# Total GULP energy -200498.667498 kJ/mol
# GULP energy per Si atom -5569.407431 kJ/mol
# Density = 2.244350 g / cm^3
# Si number density = 22.494697 Si / 1000 Ang^3
#
#
#
# Elastic Constant Matrix: (Units=GPa)
#
#
# Indices 1 2 3 4 5 6 
#
# 1 76.5373 33.2140 46.4443 0.0000 0.0000 0.0000
# 2 33.2140 76.5373 46.4443 0.0000 0.0000 0.0000
# 3 46.4443 46.4443 178.7059 0.0000 0.0000 0.0000
# 4 0.0000 0.0000 0.0000 36.4934 0.0000 0.0000
# 5 0.0000 0.0000 0.0000 0.0000 36.4934 0.0000
# 6 0.0000 0.0000 0.0000 0.0000 0.0000 -6.6029
#
#
#
# Elastic Compliance Matrix: (Units=1/GPa)
#
#
# Indices 1 2 3 4 5 6 
#
# 1 0.017382 -0.005701 -0.003036 0.000000 0.000000 0.000000
# 2 -0.005701 0.017382 -0.003036 0.000000 0.000000 0.000000
# 3 -0.003036 -0.003036 0.007174 0.000000 0.000000 0.000000
# 4 0.000000 0.000000 0.000000 0.027402 0.000000 0.000000
# 5 0.000000 0.000000 0.000000 0.000000 0.027402 0.000000
# 6 0.000000 0.000000 0.000000 0.000000 0.000000 -0.151447
#
#
# Mechanical properties :
#
#
# Convention : Reuss Voigt Hill
#
# Bulk Modulus (GPa) = 54.37042 64.88733 59.62888
# Shear Modulus (GPa) = -199.75289 26.98862 -86.38213
#
# Velocity S-wave (km/s) = -9.43360 3.46754 -6.20359
# Velocity P-wave (km/s) = 9.71773 6.70373 4.97465
#
# Compressibility (1/GPa) = 0.01839235
#
# Stress axis : x y z
#
# Youngs Moduli (GPa) = 57.53225 57.53225 139.39750
#
# Poissons Ratio (x) = 0.32798 0.42318
# Poissons Ratio (y) = 0.32798 0.42318
# Poissons Ratio (z) = 0.17465 0.17465
#
# Static dielectric constant tensor:
#      x y z
#    x 1.974750 0.000000 0.000000 
#    y 0.000000 1.974750 0.000000 
#    z 0.000000 0.000000 1.971810 
# 
# From -- ./inp_files/3260.got.cif
#   From: 2010.05.17/outbox.cif.g08.bks.cpg/sg112_2_cif.got.tgz:3260.got - 2010.05.20 10:59:04.
