data_PCOD9555599
_publ_section_title
;
Structure prediction by ZEFSAII (Michael W. Deem and Ramdas Pophale) SiO2 
 PCOD9555599
Probable space group: P -4 21 M 
;
_chemical_formula_sum "Si O2"
_cell_formula_units_Z 48
_cell_length_a 10.923387
_cell_length_b 10.923387
_cell_length_c 18.983357
_cell_angle_alpha 90.000000
_cell_angle_beta 90.000000
_cell_angle_gamma 90.000000
_cell_volume 2265.101438
_symmetry_space_group_name_H-M "P -4 21 M "
_symmetry_group_IT_number 113
_symmetry_cell_setting 'tetragonal'
loop_
_space_group_symop_operation_xyz
x,y,z
y,-x,-z
-x,-y,z
-y,x,-z
1/2+x,1/2-y,-z
1/2-x,1/2+y,-z
1/2-y,1/2-x,z
1/2+y,1/2+x,z
loop_
_atom_site_type_symbol
_atom_site_label
_atom_site_fract_x
_atom_site_fract_y
_atom_site_fract_z
Si Si1 0.550793 0.248076 0.076065
Si Si2 0.490087 0.199406 0.224964
Si Si3 0.748077 0.949207 0.923932
Si Si4 0.146692 0.853312 0.481176
Si Si5 0.902082 0.902079 0.673799
Si Si6 0.490087 0.800595 0.775032
O O1 0.618133 0.118133 0.066324
O O2 0.466408 0.241089 0.144461
O O3 0.653396 0.346603 0.095679
O O4 0.500001 0.282073 0.999998
O O5 0.603201 0.103201 0.220460
O O6 0.530834 0.305114 0.276443
O O7 0.373618 0.126383 0.252118
O O8 0.618135 0.881866 0.933673
O O9 0.741091 0.033590 0.855535
O O10 0.250002 0.750002 0.507263
O O11 0.153505 0.846504 0.396427
O O12 0.000002 0.828514 0.499999
O O13 0.805111 0.969163 0.723553
O O14 0.000000 0.000000 0.648089
O O15 0.603197 0.896804 0.779536
O O16 0.373614 0.873614 0.747879
#
# Coordination Sequence:
#
# PCOD9555599 Si02
#       6
#     8   8   8   8   8   8
#     4  10  20  35  55  79 116 164 218 280 338 397
#     4  10  21  39  64  93 126 170 225 279 336 404
#     4  10  20  35  55  79 116 164 218 280 338 397
#     4  11  25  50  79 113 152 192 237 289 351 426
#     4  12  24  43  69  98 141 180 216 278 339 399
#     4  10  21  39  64  93 126 170 225 279 336 404
#
# _framework density 21.191102999999998
#
# number of rings (size 3 to 8) (size 9 to 14) (size 15 to 20)
#    0.000    1.500    3.333    2.500    0.000    5.667 
#    0.000    0.000    0.000    0.000    0.000    0.000 
#    0.000    0.000    0.000    0.000    0.000    0.000 
#
# Total GULP energy -267773.521982 kJ/mol
# GULP energy per Si atom -5578.615041 kJ/mol
# Density = 2.114287 g / cm^3
# Si number density = 21.191103 Si / 1000 Ang^3
#
#
#
# Elastic Constant Matrix: (Units=GPa)
#
#
# Indices 1 2 3 4 5 6 
#
# 1 83.6470 60.8446 29.0277 0.0000 0.0000 0.0000
# 2 60.8446 83.6461 29.0284 0.0000 0.0000 0.0000
# 3 29.0277 29.0284 105.3925 0.0000 0.0000 0.0000
# 4 0.0000 0.0000 0.0000 37.6369 0.0000 0.0000
# 5 0.0000 0.0000 0.0000 0.0000 37.6369 0.0000
# 6 0.0000 0.0000 0.0000 0.0000 0.0000 41.3255
#
#
#
# Elastic Compliance Matrix: (Units=1/GPa)
#
#
# Indices 1 2 3 4 5 6 
#
# 1 0.025819 -0.018037 -0.002143 0.000000 0.000000 0.000000
# 2 -0.018037 0.025819 -0.002144 0.000000 0.000000 0.000000
# 3 -0.002143 -0.002144 0.010669 0.000000 0.000000 0.000000
# 4 0.000000 0.000000 0.000000 0.026570 0.000000 0.000000
# 5 0.000000 0.000000 0.000000 0.000000 0.026570 0.000000
# 6 0.000000 0.000000 0.000000 0.000000 0.000000 0.024198
#
#
# Mechanical properties :
#
#
# Convention : Reuss Voigt Hill
#
# Bulk Modulus (GPa) = 56.62653 56.72076 56.67365
# Shear Modulus (GPa) = 26.29111 33.57217 29.93164
#
# Velocity S-wave (km/s) = 3.52613 3.98459 3.76235
# Velocity P-wave (km/s) = 6.58468 6.92775 6.75839
#
# Compressibility (1/GPa) = 0.01765957
#
# Stress axis : x y z
#
# Youngs Moduli (GPa) = 38.73157 38.73093 93.72911
#
# Poissons Ratio (x) = 0.69859 0.20088
# Poissons Ratio (y) = 0.69860 0.20092
# Poissons Ratio (z) = 0.08301 0.08302
#
# Static dielectric constant tensor:
#      x y z
#    x 1.798570 0.000000 0.000000 
#    y 0.000000 1.798570 0.000000 
#    z 0.000000 0.000000 1.736780 
# 
# From -- ./inp_files/2507.got.cif
#   From: 2010.05.17/outbox.cif.g08.bks.cpg/sg113_cif.got.tgz:2507.got - 2010.05.20 11:03:00.
