data_PCOD9555157
_publ_section_title
;
Structure prediction by ZEFSAII (Michael W. Deem and Ramdas Pophale) SiO2 
 PCOD9555157
Probable space group: P -4 2 C
;
_chemical_formula_sum "Si O2"
_cell_formula_units_Z 34
_cell_length_a 13.012021
_cell_length_b 13.012021
_cell_length_c 8.417268
_cell_angle_alpha 90.000000
_cell_angle_beta 90.000000
_cell_angle_gamma 90.000000
_cell_volume 1425.150292
_symmetry_space_group_name_H-M "P -4 2 C"
_symmetry_group_IT_number 112
_symmetry_cell_setting 'tetragonal'
loop_
_space_group_symop_operation_xyz
x,y,z
y,-x,-z
-x,-y,z
-y,x,-z
x,-y,1/2-z
-x,y,1/2-z
-y,-x,1/2+z
y,x,1/2+z
loop_
_atom_site_type_symbol
_atom_site_label
_atom_site_fract_x
_atom_site_fract_y
_atom_site_fract_z
Si Si1 0.500000 0.000000 0.750000
Si Si2 0.551190 0.358173 0.423020
Si Si3 0.074427 0.341892 0.001484
Si Si4 0.942356 0.127531 0.410835
Si Si5 0.612479 0.139171 0.326468
O O1 0.567158 0.928017 0.631438
O O2 0.453112 0.373007 0.539858
O O3 0.500000 0.369209 0.250000
O O4 0.603624 0.246156 0.420319
O O5 0.143509 0.330012 0.842597
O O6 0.957559 0.352224 0.930823
O O7 0.102650 0.239524 0.096150
O O8 0.871553 0.033112 0.457296
O O9 0.000000 0.108280 0.250000
O O10 0.500000 0.116441 0.250000
#
# Coordination Sequence:
#
# PCOD9555157 Si02
#       5
#     2   8   8   8   8
#     4  12  20  42  68  98 132 176 216 276 344 408
#     4  10  21  43  68  95 135 186 230 285 341 401
#     4  11  22  43  67  97 140 176 226 284 355 411
#     4  11  25  44  68  97 133 181 228 289 345 407
#     4  10  21  41  66  95 133 185 220 277 351 413
#
# _framework density 23.857135
#
# number of rings (size 3 to 8) (size 9 to 14) (size 15 to 20)
#    0.000    1.412    3.529    3.529    6.588    0.000 
#   12.706    0.000    0.000    0.000    0.000    0.000 
#    0.000    0.000    0.000    0.000    0.000    0.000 
#
# Total GULP energy -189678.911350 kJ/mol
# GULP energy per Si atom -5578.791510 kJ/mol
# Density = 2.380283 g / cm^3
# Si number density = 23.857135 Si / 1000 Ang^3
#
#
#
# Elastic Constant Matrix: (Units=GPa)
#
#
# Indices 1 2 3 4 5 6 
#
# 1 100.9372 -3.8133 6.6134 0.0000 0.0000 0.0000
# 2 -3.8133 100.9372 6.6134 0.0000 0.0000 0.0000
# 3 6.6134 6.6134 100.1764 0.0000 0.0000 0.0000
# 4 0.0000 0.0000 0.0000 15.7470 0.0000 0.0000
# 5 0.0000 0.0000 0.0000 0.0000 15.7470 0.0000
# 6 0.0000 0.0000 0.0000 0.0000 0.0000 11.5301
#
#
#
# Elastic Compliance Matrix: (Units=1/GPa)
#
#
# Indices 1 2 3 4 5 6 
#
# 1 0.009968 0.000422 -0.000686 0.000000 0.000000 0.000000
# 2 0.000422 0.009968 -0.000686 0.000000 0.000000 0.000000
# 3 -0.000686 -0.000686 0.010073 0.000000 0.000000 0.000000
# 4 0.000000 0.000000 0.000000 0.063504 0.000000 0.000000
# 5 0.000000 0.000000 0.000000 0.000000 0.063504 0.000000
# 6 0.000000 0.000000 0.000000 0.000000 0.000000 0.086729
#
#
# Mechanical properties :
#
#
# Convention : Reuss Voigt Hill
#
# Bulk Modulus (GPa) = 35.57646 35.65306 35.61476
# Shear Modulus (GPa) = 19.60659 28.11399 23.86029
#
# Velocity S-wave (km/s) = 2.86987 3.43655 3.16592
# Velocity P-wave (km/s) = 5.09178 5.54287 5.32210
#
# Compressibility (1/GPa) = 0.02810848
#
# Stress axis : x y z
#
# Youngs Moduli (GPa) = 100.32085 100.32085 99.27574
#
# Poissons Ratio (x) = -0.04229 0.06809
# Poissons Ratio (y) = -0.04229 0.06809
# Poissons Ratio (z) = 0.06881 0.06881
#
# Static dielectric constant tensor:
#      x y z
#    x 2.180330 0.000000 0.000000 
#    y 0.000000 2.180330 0.000000 
#    z 0.000000 0.000000 1.868870 
# 
# From -- ./inp_files/1062.got.cif
#   From: 2010.05.17/outbox.cif.g08.bks.cpg/sg112_1_cif.got.tgz:1062.got - 2010.05.20 10:59:04.
