data_PCOD9555133
_publ_section_title
;
Structure prediction by ZEFSAII (Michael W. Deem and Ramdas Pophale) SiO2 
 PCOD9555133
Probable space group: P -4 2 C
;
_chemical_formula_sum "Si O2"
_cell_formula_units_Z 40
_cell_length_a 8.969864
_cell_length_b 8.969864
_cell_length_c 23.352577
_cell_angle_alpha 90.000000
_cell_angle_beta 90.000000
_cell_angle_gamma 90.000000
_cell_volume 1878.912387
_symmetry_space_group_name_H-M "P -4 2 C"
_symmetry_group_IT_number 112
_symmetry_cell_setting 'tetragonal'
loop_
_space_group_symop_operation_xyz
x,y,z
y,-x,-z
-x,-y,z
-y,x,-z
x,-y,1/2-z
-x,y,1/2-z
-y,-x,1/2+z
y,x,1/2+z
loop_
_atom_site_type_symbol
_atom_site_label
_atom_site_fract_x
_atom_site_fract_y
_atom_site_fract_z
Si Si1 0.665943 0.431343 0.693065
Si Si2 0.925101 0.339018 0.189835
Si Si3 0.548147 0.324619 0.427956
Si Si4 0.166869 0.067550 0.925580
Si Si5 0.834434 0.662766 0.008723
O O1 0.500000 0.500000 0.691487
O O2 0.739884 0.500000 0.750000
O O3 0.648845 0.253660 0.696712
O O4 0.732167 0.487124 0.632812
O O5 0.945795 0.220236 0.139403
O O6 0.000000 0.500000 0.175082
O O7 0.000000 0.294675 0.250000
O O8 0.500000 0.500000 0.433272
O O9 0.723459 0.311784 0.437558
O O10 0.486432 0.226933 0.480456
O O11 0.296170 0.989098 0.962964
O O12 0.168308 0.229980 0.953274
O O13 0.000000 0.000000 0.933188
#
# Coordination Sequence:
#
# PCOD9555133 Si02
#       5
#     8   8   8   8   8
#     4  10  21  38  61  96 139 160 205 285 336 372
#     4  11  25  42  71 102 124 177 234 264 330 402
#     4  11  23  38  63  99 130 163 216 277 340 384
#     4  12  27  46  63  94 138 177 218 267 325 401
#     4  12  22  43  61  95 134 168 212 274 328 396
#
# _framework density 21.288912
#
# number of rings (size 3 to 8) (size 9 to 14) (size 15 to 20)
#    0.000    0.800    6.000    2.400   11.200    0.400 
#    0.000    0.000    0.000    0.000    0.000    0.000 
#    0.000    0.000    0.000    0.000    0.000    0.000 
#
# Total GULP energy -223086.767765 kJ/mol
# GULP energy per Si atom -5577.169194 kJ/mol
# Density = 2.124046 g / cm^3
# Si number density = 21.288912 Si / 1000 Ang^3
#
#
#
# Elastic Constant Matrix: (Units=GPa)
#
#
# Indices 1 2 3 4 5 6 
#
# 1 63.4807 19.5802 28.9774 0.0000 0.0000 0.0000
# 2 19.5802 63.4807 28.9774 0.0000 0.0000 0.0000
# 3 28.9774 28.9774 154.3026 0.0000 0.0000 0.0000
# 4 0.0000 0.0000 0.0000 14.2470 0.0000 0.0000
# 5 0.0000 0.0000 0.0000 0.0000 14.2470 0.0000
# 6 0.0000 0.0000 0.0000 0.0000 0.0000 18.0856
#
#
#
# Elastic Compliance Matrix: (Units=1/GPa)
#
#
# Indices 1 2 3 4 5 6 
#
# 1 0.018317 -0.004462 -0.002602 0.000000 0.000000 0.000000
# 2 -0.004462 0.018317 -0.002602 0.000000 0.000000 0.000000
# 3 -0.002602 -0.002602 0.007458 0.000000 0.000000 0.000000
# 4 0.000000 0.000000 0.000000 0.070190 0.000000 0.000000
# 5 0.000000 0.000000 0.000000 0.000000 0.070190 0.000000
# 6 0.000000 0.000000 0.000000 0.000000 0.000000 0.055293
#
#
# Mechanical properties :
#
#
# Convention : Reuss Voigt Hill
#
# Bulk Modulus (GPa) = 40.38760 48.48159 44.43459
# Shear Modulus (GPa) = 18.70215 22.89787 20.80001
#
# Velocity S-wave (km/s) = 2.96715 3.28316 3.12915
# Velocity P-wave (km/s) = 5.54536 6.09875 5.82863
#
# Compressibility (1/GPa) = 0.02476008
#
# Stress axis : x y z
#
# Youngs Moduli (GPa) = 54.59474 54.59474 134.08393
#
# Poissons Ratio (x) = 0.24360 0.34887
# Poissons Ratio (y) = 0.24360 0.34887
# Poissons Ratio (z) = 0.14205 0.14205
#
# Static dielectric constant tensor:
#      x y z
#    x 1.817940 0.000000 0.000000 
#    y 0.000000 1.817940 0.000000 
#    z 0.000000 0.000000 1.827660 
# 
# From -- ./inp_files/5355.got.cif
#   From: 2010.05.17/outbox.cif.g08.bks.cpg/sg112_3_cif.got.tgz:5355.got - 2010.05.20 10:59:04.
