data_PCOD9555512
_publ_section_title
;
Structure prediction by ZEFSAII (Michael W. Deem and Ramdas Pophale) SiO2 
 PCOD9555512
Probable space group: P -4 21 M 
;
_chemical_formula_sum "Si O2"
_cell_formula_units_Z 56
_cell_length_a 12.344836
_cell_length_b 12.344836
_cell_length_c 20.896525
_cell_angle_alpha 90.000000
_cell_angle_beta 90.000000
_cell_angle_gamma 90.000000
_cell_volume 3184.525423
_symmetry_space_group_name_H-M "P -4 21 M "
_symmetry_group_IT_number 113
_symmetry_cell_setting 'tetragonal'
loop_
_space_group_symop_operation_xyz
x,y,z
y,-x,-z
-x,-y,z
-y,x,-z
1/2+x,1/2-y,-z
1/2-x,1/2+y,-z
1/2-y,1/2-x,z
1/2+y,1/2+x,z
loop_
_atom_site_type_symbol
_atom_site_label
_atom_site_fract_x
_atom_site_fract_y
_atom_site_fract_z
Si Si1 0.118231 0.202822 0.439692
Si Si2 0.364337 0.312439 0.580973
Si Si3 0.869369 0.994013 0.080210
Si Si4 0.722164 0.398182 0.050558
Si Si5 0.090864 0.094124 0.209883
Si Si6 0.502534 0.819195 0.826055
Si Si7 0.369124 0.516404 0.656993
O O1 0.189485 0.310516 0.429904
O O2 0.131686 0.166607 0.513309
O O3 0.162073 0.105288 0.395580
O O4 0.992107 0.212989 0.421387
O O5 0.295946 0.204055 0.587106
O O6 0.331081 0.397741 0.636051
O O7 0.841737 0.120531 0.086110
O O8 0.846731 0.921915 0.142700
O O9 0.000000 0.000000 0.073242
O O10 0.818544 0.950106 0.015209
O O11 0.810719 0.310719 0.034071
O O12 0.774806 0.480106 0.101659
O O13 0.032700 0.211456 0.212894
O O14 0.156916 0.064209 0.273377
O O15 0.000000 0.000000 0.206833
O O16 0.405762 0.905762 0.822939
O O17 0.612944 0.887057 0.809143
O O18 0.500000 0.500000 0.654344
#
# Coordination Sequence:
#
# PCOD9555512 Si02
#       7
#     8   8   8   8   8   8   8
#     4  10  19  33  56  83 112 146 186 228 279 332
#     4  10  19  34  57  84 115 145 183 235 279 324
#     4  11  18  34  51  74 105 141 188 230 268 335
#     4  11  20  32  54  79 108 142 179 236 291 331
#     4  10  19  35  55  77 108 148 191 226 267 338
#     4  10  21  36  56  84 116 145 179 234 297 339
#     4   9  19  34  55  79 107 148 184 225 271 328
#
# _framework density 17.585038000000001
#
# number of rings (size 3 to 8) (size 9 to 14) (size 15 to 20)
#    0.000    1.857    5.714    0.000    0.000    3.143 
#    0.000    7.143    0.000    0.429    0.000    0.000 
#    0.000    5.143    0.000    0.000    0.000    0.000 
#
# Total GULP energy -311821.165245 kJ/mol
# GULP energy per Si atom -5568.235094 kJ/mol
# Density = 1.754501 g / cm^3
# Si number density = 17.585038 Si / 1000 Ang^3
#
#
#
# Elastic Constant Matrix: (Units=GPa)
#
#
# Indices 1 2 3 4 5 6 
#
# 1 84.3759 38.1619 21.4232 0.0000 0.0000 0.0000
# 2 38.1619 84.3791 21.4262 0.0000 0.0000 0.0000
# 3 21.4232 21.4262 59.9797 0.0000 0.0000 0.0000
# 4 0.0000 0.0000 0.0000 9.3365 0.0000 0.0000
# 5 0.0000 0.0000 0.0000 0.0000 9.3362 0.0000
# 6 0.0000 0.0000 0.0000 0.0000 0.0000 16.0474
#
#
#
# Elastic Compliance Matrix: (Units=1/GPa)
#
#
# Indices 1 2 3 4 5 6 
#
# 1 0.015482 -0.006156 -0.003331 0.000000 0.000000 0.000000
# 2 -0.006156 0.015481 -0.003332 0.000000 0.000000 0.000000
# 3 -0.003331 -0.003332 0.019052 0.000000 0.000000 0.000000
# 4 0.000000 0.000000 0.000000 0.107106 0.000000 0.000000
# 5 0.000000 0.000000 0.000000 0.000000 0.107110 0.000000
# 6 0.000000 0.000000 0.000000 0.000000 0.000000 0.062315
#
#
# Mechanical properties :
#
#
# Convention : Reuss Voigt Hill
#
# Bulk Modulus (GPa) = 41.01939 43.41747 42.21843
# Shear Modulus (GPa) = 13.87697 16.79225 15.33461
#
# Velocity S-wave (km/s) = 2.81220 3.09353 2.95621
# Velocity P-wave (km/s) = 5.82422 6.12401 5.97600
#
# Compressibility (1/GPa) = 0.02437872
#
# Stress axis : x y z
#
# Youngs Moduli (GPa) = 64.59244 64.59333 52.48790
#
# Poissons Ratio (x) = 0.39765 0.17481
# Poissons Ratio (y) = 0.39764 0.17487
# Poissons Ratio (z) = 0.21513 0.21520
#
# Static dielectric constant tensor:
#      x y z
#    x 1.633960 0.000000 0.000000 
#    y 0.000000 1.633960 0.000000 
#    z 0.000000 0.000000 1.654630 
# 
# From -- ./inp_files/2844.got.cif
#   From: 2010.05.17/outbox.cif.g08.bks.cpg/sg113_cif.got.tgz:2844.got - 2010.05.20 11:03:00.
