data_PCOD9555698
_publ_section_title
;
Structure prediction by ZEFSAII (Michael W. Deem and Ramdas Pophale) SiO2 
 PCOD9555698
Probable space group: P -4 21 M 
;
_chemical_formula_sum "Si O2"
_cell_formula_units_Z 40
_cell_length_a 13.901303
_cell_length_b 13.901303
_cell_length_c 9.830877
_cell_angle_alpha 90.000000
_cell_angle_beta 90.000000
_cell_angle_gamma 90.000000
_cell_volume 1899.779870
_symmetry_space_group_name_H-M "P -4 21 M "
_symmetry_group_IT_number 113
_symmetry_cell_setting 'tetragonal'
loop_
_space_group_symop_operation_xyz
x,y,z
y,-x,-z
-x,-y,z
-y,x,-z
1/2+x,1/2-y,-z
1/2-x,1/2+y,-z
1/2-y,1/2-x,z
1/2+y,1/2+x,z
loop_
_atom_site_type_symbol
_atom_site_label
_atom_site_fract_x
_atom_site_fract_y
_atom_site_fract_z
Si Si1 0.677610 0.974845 0.525784
Si Si2 0.838067 0.011069 0.005720
Si Si3 0.109982 0.237847 0.251404
Si Si4 0.001178 0.341003 0.795945
Si Si5 0.078475 0.872337 0.538527
O O1 0.582034 0.917966 0.560727
O O2 0.770557 0.904888 0.531377
O O3 0.702092 0.058117 0.629927
O O4 0.671737 0.005276 0.367832
O O5 0.760464 0.001393 0.126514
O O6 0.775798 0.039676 0.874117
O O7 0.915476 0.098220 0.020687
O O8 0.208142 0.291859 0.213972
O O9 0.125937 0.134214 0.320366
O O10 0.092031 0.407970 0.836429
O O11 0.905003 0.405003 0.823013
O O12 0.963717 0.886262 0.548250
#
# Coordination Sequence:
#
# PCOD9555698 Si02
#       5
#     8   8   8   8   8
#     4  10  21  38  63  93 124 160 205 258 314 374
#     4  11  26  44  64  92 128 169 214 264 323 390
#     4  11  23  40  64  92 123 161 208 264 316 370
#     4  10  22  42  67  94 128 172 218 266 326 395
#     4   9  19  34  56  87 123 158 199 250 312 374
#
# _framework density 21.055071000000002
#
# number of rings (size 3 to 8) (size 9 to 14) (size 15 to 20)
#    0.000    1.800    0.000    3.000    0.000   19.600 
#    0.000    4.000    0.000    0.000    0.000    0.000 
#    0.000    0.000    0.000    0.000    0.000    0.000 
#
# Total GULP energy -223371.678221 kJ/mol
# GULP energy per Si atom -5584.291956 kJ/mol
# Density = 2.100715 g / cm^3
# Si number density = 21.055071 Si / 1000 Ang^3
#
#
#
# Elastic Constant Matrix: (Units=GPa)
#
#
# Indices 1 2 3 4 5 6 
#
# 1 101.4222 81.8547 52.7265 0.0000 0.0000 0.0000
# 2 81.8547 101.4256 52.7281 0.0000 0.0000 0.0000
# 3 52.7265 52.7281 92.4011 0.0000 0.0000 0.0000
# 4 0.0000 0.0000 0.0000 21.4055 0.0000 0.0000
# 5 0.0000 0.0000 0.0000 0.0000 21.4058 0.0000
# 6 0.0000 0.0000 0.0000 0.0000 0.0000 29.5965
#
#
#
# Elastic Compliance Matrix: (Units=1/GPa)
#
#
# Indices 1 2 3 4 5 6 
#
# 1 0.029612 -0.021489 -0.004635 0.000000 0.000000 0.000000
# 2 -0.021489 0.029612 -0.004636 0.000000 0.000000 0.000000
# 3 -0.004635 -0.004636 0.016113 0.000000 0.000000 0.000000
# 4 0.000000 0.000000 0.000000 0.046717 0.000000 0.000000
# 5 0.000000 0.000000 0.000000 0.000000 0.046716 0.000000
# 6 0.000000 0.000000 0.000000 0.000000 0.000000 0.033788
#
#
# Mechanical properties :
#
#
# Convention : Reuss Voigt Hill
#
# Bulk Modulus (GPa) = 72.37192 74.42972 73.40082
# Shear Modulus (GPa) = 18.60931 21.67753 20.14342
#
# Velocity S-wave (km/s) = 2.97617 3.21216 3.09642
# Velocity P-wave (km/s) = 6.80128 7.01314 6.90802
#
# Compressibility (1/GPa) = 0.01381751
#
# Stress axis : x y z
#
# Youngs Moduli (GPa) = 33.76973 33.77051 62.06295
#
# Poissons Ratio (x) = 0.72568 0.28768
# Poissons Ratio (y) = 0.72567 0.28770
# Poissons Ratio (z) = 0.15653 0.15655
#
# Static dielectric constant tensor:
#      x y z
#    x 1.789450 0.000000 0.000000 
#    y 0.000000 1.789450 0.000000 
#    z 0.000000 0.000000 1.739100 
# 
# From -- ./inp_files/991.got.cif
#   From: 2010.05.17/outbox.cif.g08.bks.cpg/sg113_cif.got.tgz:991.got - 2010.05.20 11:03:00.
