data_PCOD9555522
_publ_section_title
;
Structure prediction by ZEFSAII (Michael W. Deem and Ramdas Pophale) SiO2 
 PCOD9555522
Probable space group: P -4 21 M 
;
_chemical_formula_sum "Si O2"
_cell_formula_units_Z 64
_cell_length_a 12.041088
_cell_length_b 12.041088
_cell_length_c 22.769689
_cell_angle_alpha 90.000000
_cell_angle_beta 90.000000
_cell_angle_gamma 90.000000
_cell_volume 3301.327120
_symmetry_space_group_name_H-M "P -4 21 M "
_symmetry_group_IT_number 113
_symmetry_cell_setting 'tetragonal'
loop_
_space_group_symop_operation_xyz
x,y,z
y,-x,-z
-x,-y,z
-y,x,-z
1/2+x,1/2-y,-z
1/2-x,1/2+y,-z
1/2-y,1/2-x,z
1/2+y,1/2+x,z
loop_
_atom_site_type_symbol
_atom_site_label
_atom_site_fract_x
_atom_site_fract_y
_atom_site_fract_z
Si Si1 0.144745 0.822992 0.933478
Si Si2 0.155320 0.829977 0.189123
Si Si3 0.827933 0.148766 0.555072
Si Si4 0.236872 0.553341 0.758683
Si Si5 0.775546 0.902042 0.573018
Si Si6 0.874585 0.017729 0.350110
Si Si7 0.729156 0.593231 0.186304
Si Si8 0.286198 0.388122 0.936215
O O1 0.206521 0.706521 0.926990
O O2 0.198011 0.898843 0.882959
O O3 0.016348 0.803318 0.924252
O O4 0.165759 0.864313 0.999386
O O5 0.229420 0.729420 0.211731
O O6 0.154292 0.828147 0.118048
O O7 0.028942 0.806413 0.208075
O O8 0.224682 0.941727 0.205973
O O9 0.752051 0.252051 0.574063
O O10 0.858500 0.167222 0.487145
O O11 0.938564 0.136208 0.593347
O O12 0.764795 0.033498 0.565614
O O13 0.114342 0.614342 0.761778
O O14 0.277361 0.518695 0.693702
O O15 0.320540 0.647339 0.781988
O O16 0.660146 0.839855 0.579378
O O17 0.856796 0.871431 0.626684
O O18 0.000000 0.000000 0.324888
O O19 0.853313 0.646688 0.193529
O O20 0.161306 0.338695 0.936225
#
# Coordination Sequence:
#
# PCOD9555522 Si02
#       8
#     8   8   8   8   8   8   8   8
#     4  10  20  35  55  82 111 149 196 244 301 362
#     4  11  23  38  58  84 118 159 197 244 305 360
#     4  10  19  34  56  83 117 152 191 239 287 345
#     4  11  23  40  62  89 118 157 204 248 293 351
#     4  10  20  34  55  83 116 153 194 238 290 346
#     4  10  20  35  61  86 115 154 197 243 292 343
#     4  10  21  38  61  86 115 151 198 251 299 355
#     4  10  21  34  53  82 113 149 194 242 301 364
#
# _framework density 19.386144000000002
#
# number of rings (size 3 to 8) (size 9 to 14) (size 15 to 20)
#    0.000    1.750    2.500    2.250    0.000    2.750 
#    0.000    1.250    0.000    5.625    0.000    3.500 
#    0.000    0.000    0.000    0.000    0.000    0.000 
#
# Total GULP energy -356550.997457 kJ/mol
# GULP energy per Si atom -5571.109335 kJ/mol
# Density = 1.934202 g / cm^3
# Si number density = 19.386144 Si / 1000 Ang^3
#
#
#
# Elastic Constant Matrix: (Units=GPa)
#
#
# Indices 1 2 3 4 5 6 
#
# 1 66.8923 23.7255 -7.4177 0.0000 0.0000 0.0000
# 2 23.7255 66.8912 -7.4185 0.0000 0.0000 0.0000
# 3 -7.4177 -7.4185 46.4210 0.0000 0.0000 0.0000
# 4 0.0000 0.0000 0.0000 14.7123 0.0000 0.0000
# 5 0.0000 0.0000 0.0000 0.0000 14.7063 0.0000
# 6 0.0000 0.0000 0.0000 0.0000 0.0000 22.7172
#
#
#
# Elastic Compliance Matrix: (Units=1/GPa)
#
#
# Indices 1 2 3 4 5 6 
#
# 1 0.017249 -0.005917 0.001811 0.000000 0.000000 0.000000
# 2 -0.005917 0.017249 0.001811 0.000000 0.000000 0.000000
# 3 0.001811 0.001811 0.022121 0.000000 0.000000 0.000000
# 4 0.000000 0.000000 0.000000 0.067970 0.000000 0.000000
# 5 0.000000 0.000000 0.000000 0.000000 0.067998 0.000000
# 6 0.000000 0.000000 0.000000 0.000000 0.000000 0.044020
#
#
# Mechanical properties :
#
#
# Convention : Reuss Voigt Hill
#
# Bulk Modulus (GPa) = 19.22046 21.99812 20.60929
# Shear Modulus (GPa) = 19.33933 21.84817 20.59375
#
# Velocity S-wave (km/s) = 3.16188 3.36072 3.26282
# Velocity P-wave (km/s) = 4.82349 5.14113 4.98484
#
# Compressibility (1/GPa) = 0.05202790
#
# Stress axis : x y z
#
# Youngs Moduli (GPa) = 57.97465 57.97347 45.20652
#
# Poissons Ratio (x) = 0.34304 -0.08185
# Poissons Ratio (y) = 0.34305 -0.08187
# Poissons Ratio (z) = -0.10497 -0.10499
#
# Static dielectric constant tensor:
#      x y z
#    x 1.666590 0.000000 0.000000 
#    y 0.000000 1.666610 0.000000 
#    z 0.000000 0.000000 1.723540 
# 
# From -- ./inp_files/2873.got.cif
#   From: 2010.05.17/outbox.cif.g08.bks.cpg/sg113_cif.got.tgz:2873.got - 2010.05.20 11:03:00.
