data_PCOD9555316
_publ_section_title
;
Structure prediction by ZEFSAII (Michael W. Deem and Ramdas Pophale) SiO2 
 PCOD9555316
Probable space group: P -4 2 C
;
_chemical_formula_sum "Si O2"
_cell_formula_units_Z 40
_cell_length_a 11.623241
_cell_length_b 11.623241
_cell_length_c 15.723114
_cell_angle_alpha 90.000000
_cell_angle_beta 90.000000
_cell_angle_gamma 90.000000
_cell_volume 2124.188477
_symmetry_space_group_name_H-M "P -4 2 C"
_symmetry_group_IT_number 112
_symmetry_cell_setting 'tetragonal'
loop_
_space_group_symop_operation_xyz
x,y,z
y,-x,-z
-x,-y,z
-y,x,-z
x,-y,1/2-z
-x,y,1/2-z
-y,-x,1/2+z
y,x,1/2+z
loop_
_atom_site_type_symbol
_atom_site_label
_atom_site_fract_x
_atom_site_fract_y
_atom_site_fract_z
Si Si1 0.137417 0.134374 0.750000
Si Si2 0.500000 0.136690 0.847379
Si Si3 0.269306 0.748564 0.595942
Si Si4 0.251436 0.269307 0.095942
Si Si5 0.500000 0.362884 0.353009
O O1 0.185120 0.200834 0.832498
O O2 0.185121 0.200834 0.667502
O O3 0.000000 0.134364 0.750000
O O4 0.177648 0.000000 0.750000
O O5 0.500000 0.180707 0.750000
O O6 0.387873 0.183995 0.891597
O O7 0.612125 0.183996 0.891597
O O8 0.500000 0.000000 0.845837
O O9 0.230152 0.769848 0.500000
O O10 0.300901 0.614567 0.612103
O O11 0.385433 0.300900 0.112103
O O12 0.500000 0.500000 0.375274
O O13 0.500000 0.356017 0.250000
#
# Coordination Sequence:
#
# PCOD9555316 Si02
#       5
#     8   8   8   8   8
#     4  11  26  48  69  90 126 176 226 275 324 377
#     4  11  21  39  69  98 126 166 221 275 316 371
#     4  12  24  41  66 102 133 169 213 266 329 393
#     4  12  24  41  66 102 133 169 213 266 329 393
#     4  11  21  38  64  99 139 170 203 253 327 402
#
# _framework density 18.830719999999999
#
# number of rings (size 3 to 8) (size 9 to 14) (size 15 to 20)
#    0.000    0.600    6.000    2.400    0.000    3.200 
#    0.000    4.000    0.000    0.000    0.000    0.000 
#    0.000    0.000    0.000    0.000    0.000    0.000 
#
# Total GULP energy -223691.011560 kJ/mol
# GULP energy per Si atom -5592.275289 kJ/mol
# Density = 1.878786 g / cm^3
# Si number density = 18.830720 Si / 1000 Ang^3
#
#
#
# Elastic Constant Matrix: (Units=GPa)
#
#
# Indices 1 2 3 4 5 6 
#
# 1 104.7170 44.6102 52.8824 0.0000 0.0000 0.0000
# 2 44.6102 104.7170 52.8824 0.0000 0.0000 0.0000
# 3 52.8824 52.8824 179.3386 0.0000 0.0000 0.0000
# 4 0.0000 0.0000 0.0000 -126.5896 0.0000 0.0000
# 5 0.0000 0.0000 0.0000 0.0000 -126.5896 0.0000
# 6 0.0000 0.0000 0.0000 0.0000 0.0000 36.1107
#
#
#
# Elastic Compliance Matrix: (Units=1/GPa)
#
#
# Indices 1 2 3 4 5 6 
#
# 1 0.012551 -0.004086 -0.002496 0.000000 0.000000 0.000000
# 2 -0.004086 0.012551 -0.002496 0.000000 0.000000 0.000000
# 3 -0.002496 -0.002496 0.007048 0.000000 0.000000 0.000000
# 4 0.000000 0.000000 0.000000 -0.007900 0.000000 0.000000
# 5 0.000000 0.000000 0.000000 0.000000 -0.007900 0.000000
# 6 0.000000 0.000000 0.000000 0.000000 0.000000 0.027693
#
#
# Mechanical properties :
#
#
# Convention : Reuss Voigt Hill
#
# Bulk Modulus (GPa) = 71.46319 76.61363 74.03841
# Shear Modulus (GPa) = 74.77869 -27.52052 23.62908
#
# Velocity S-wave (km/s) = 6.30850 -3.82706 3.54618
# Velocity P-wave (km/s) = 9.54440 4.60925 7.49469
#
# Compressibility (1/GPa) = 0.01399322
#
# Stress axis : x y z
#
# Youngs Moduli (GPa) = 79.67626 79.67626 141.88332
#
# Poissons Ratio (x) = 0.32558 0.35414
# Poissons Ratio (y) = 0.32558 0.35414
# Poissons Ratio (z) = 0.19887 0.19887
#
# Static dielectric constant tensor:
#      x y z
#    x 1.636760 0.000000 0.000000 
#    y 0.000000 1.636760 0.000000 
#    z 0.000000 0.000000 1.600920 
# 
# From -- ./inp_files/3292.got.cif
#   From: 2010.05.17/outbox.cif.g08.bks.cpg/sg112_2_cif.got.tgz:3292.got - 2010.05.20 10:59:04.
