data_PCOD9555478
_publ_section_title
;
Structure prediction by ZEFSAII (Michael W. Deem and Ramdas Pophale) SiO2 
 PCOD9555478
Probable space group: P -4 21 M 
;
_chemical_formula_sum "Si O2"
_cell_formula_units_Z 64
_cell_length_a 12.004554
_cell_length_b 12.004554
_cell_length_c 25.383289
_cell_angle_alpha 90.000000
_cell_angle_beta 90.000000
_cell_angle_gamma 90.000000
_cell_volume 3657.968434
_symmetry_space_group_name_H-M "P -4 21 M "
_symmetry_group_IT_number 113
_symmetry_cell_setting 'tetragonal'
loop_
_space_group_symop_operation_xyz
x,y,z
y,-x,-z
-x,-y,z
-y,x,-z
1/2+x,1/2-y,-z
1/2-x,1/2+y,-z
1/2-y,1/2-x,z
1/2+y,1/2+x,z
loop_
_atom_site_type_symbol
_atom_site_label
_atom_site_fract_x
_atom_site_fract_y
_atom_site_fract_z
Si Si1 0.163899 0.829490 0.612745
Si Si2 0.398651 0.281477 0.935183
Si Si3 0.945274 0.735701 0.887531
Si Si4 0.403328 0.342995 0.503252
Si Si5 0.182188 0.503318 0.767342
Si Si6 0.426805 0.247773 0.618480
Si Si7 0.620686 0.538577 0.686537
Si Si8 0.842242 0.839921 0.054254
O O1 0.226569 0.726569 0.638914
O O2 0.145975 0.802841 0.551579
O O3 0.046432 0.855597 0.638746
O O4 0.239502 0.939935 0.618341
O O5 0.343987 0.156014 0.934344
O O6 0.332199 0.352383 0.891630
O O7 0.530560 0.306745 0.931255
O O8 0.360926 0.333358 0.991464
O O9 0.877804 0.622197 0.905825
O O10 0.985919 0.713056 0.828500
O O11 0.050749 0.784370 0.919788
O O12 0.354548 0.466192 0.508402
O O13 0.391106 0.282882 0.559014
O O14 0.089450 0.410551 0.754528
O O15 0.286683 0.480686 0.730275
O O16 0.122597 0.622597 0.760420
O O17 0.370742 0.129259 0.629662
O O18 0.384239 0.338980 0.660859
O O19 0.500000 0.500000 0.707347
O O20 0.763972 0.736029 0.067715
#
# Coordination Sequence:
#
# PCOD9555478 Si02
#       8
#     8   8   8   8   8   8   8   8
#     4  10  19  31  49  72  99 133 171 214 260 311
#     4  10  21  35  53  80 113 150 193 234 278 333
#     4  10  21  37  57  83 113 147 188 232 277 336
#     4   9  15  28  48  70  96 128 170 212 255 311
#     4  10  21  38  59  82 110 142 178 229 286 326
#     4  10  19  31  49  72  99 133 171 213 260 312
#     4  10  20  35  53  79 103 134 179 223 263 319
#     4  11  21  34  55  81 113 152 190 234 285 333
#
# _framework density 17.496051000000001
#
# number of rings (size 3 to 8) (size 9 to 14) (size 15 to 20)
#    0.000    2.000    2.500    1.875    0.000    2.250 
#    0.000    1.250    0.000    0.000    0.000    0.000 
#    0.000    6.000    0.000    0.000    0.000    0.000 
#
# Total GULP energy -356297.780151 kJ/mol
# GULP energy per Si atom -5567.152815 kJ/mol
# Density = 1.745623 g / cm^3
# Si number density = 17.496051 Si / 1000 Ang^3
#
#
#
# Elastic Constant Matrix: (Units=GPa)
#
#
# Indices 1 2 3 4 5 6 
#
# 1 55.0085 45.8151 20.1051 0.0000 0.0000 0.0000
# 2 45.8151 55.0119 20.1041 0.0000 0.0000 0.0000
# 3 20.1051 20.1041 50.2135 0.0000 0.0000 0.0000
# 4 0.0000 0.0000 0.0000 -22.9784 0.0000 0.0000
# 5 0.0000 0.0000 0.0000 0.0000 -22.9895 0.0000
# 6 0.0000 0.0000 0.0000 0.0000 0.0000 30.0083
#
#
#
# Elastic Compliance Matrix: (Units=1/GPa)
#
#
# Indices 1 2 3 4 5 6 
#
# 1 0.060281 -0.048476 -0.004728 0.000000 0.000000 0.000000
# 2 -0.048476 0.060276 -0.004723 0.000000 0.000000 0.000000
# 3 -0.004728 -0.004723 0.023699 0.000000 0.000000 0.000000
# 4 0.000000 0.000000 0.000000 -0.043519 0.000000 0.000000
# 5 0.000000 0.000000 0.000000 0.000000 -0.043498 0.000000
# 6 0.000000 0.000000 0.000000 0.000000 0.000000 0.033324
#
#
# Mechanical properties :
#
#
# Convention : Reuss Voigt Hill
#
# Bulk Modulus (GPa) = 35.20867 36.92028 36.06448
# Shear Modulus (GPa) = 23.16061 1.75537 12.45799
#
# Velocity S-wave (km/s) = 3.64230 1.00273 2.67131
# Velocity P-wave (km/s) = 6.15272 4.74221 5.49293
#
# Compressibility (1/GPa) = 0.02840209
#
# Stress axis : x y z
#
# Youngs Moduli (GPa) = 16.58897 16.59044 42.19574
#
# Poissons Ratio (x) = 0.80423 0.19949
# Poissons Ratio (y) = 0.80416 0.19931
# Poissons Ratio (z) = 0.07843 0.07836
#
# Static dielectric constant tensor:
#      x y z
#    x 1.615370 0.000000 0.000000 
#    y 0.000000 1.615370 0.000000 
#    z 0.000000 0.000000 1.579730 
# 
# From -- ./inp_files/2951.got.cif
#   From: 2010.05.17/outbox.cif.g08.bks.cpg/sg113_cif.got.tgz:2951.got - 2010.05.20 11:03:00.
