data_PCOD9555773
_publ_section_title
;
Structure prediction by ZEFSAII (Michael W. Deem and Ramdas Pophale) SiO2 
 PCOD9555773
Probable space group: P -4 21 M 
;
_chemical_formula_sum "Si O2"
_cell_formula_units_Z 24
_cell_length_a 13.065633
_cell_length_b 13.065633
_cell_length_c 6.781476
_cell_angle_alpha 90.000000
_cell_angle_beta 90.000000
_cell_angle_gamma 90.000000
_cell_volume 1157.670960
_symmetry_space_group_name_H-M "P -4 21 M "
_symmetry_group_IT_number 113
_symmetry_cell_setting 'tetragonal'
loop_
_space_group_symop_operation_xyz
x,y,z
y,-x,-z
-x,-y,z
-y,x,-z
1/2+x,1/2-y,-z
1/2-x,1/2+y,-z
1/2-y,1/2-x,z
1/2+y,1/2+x,z
loop_
_atom_site_type_symbol
_atom_site_label
_atom_site_fract_x
_atom_site_fract_y
_atom_site_fract_z
Si Si1 0.857555 0.642445 0.856312
Si Si2 0.500000 0.500000 0.000000
Si Si3 0.500000 0.000000 0.405828
Si Si4 0.352865 0.147136 0.639990
Si Si5 0.471539 0.721861 0.821767
Si Si6 0.215000 0.285001 0.450804
O O1 0.798833 0.701168 0.684072
O O2 0.931470 0.568531 0.735549
O O3 0.781050 0.577067 0.991557
O O4 0.602325 0.517071 0.129628
O O5 0.432711 0.067290 0.551246
O O6 0.420234 0.227762 0.763698
O O7 0.301266 0.198735 0.448097
O O8 0.389225 0.746269 0.649392
#
# Coordination Sequence:
#
# PCOD9555773 Si02
#       6
#     4   2   2   4   8   4
#     4  11  22  46  73 103 137 188 236 307 359 421
#     4  12  28  44  70 100 148 206 224 300 382 416
#     4  12  22  40  78 102 128 182 238 294 366 412
#     4  12  24  45  73 105 140 188 244 299 353 437
#     4  11  26  47  69 106 145 189 248 295 362 442
#     4  11  25  44  71 101 144 185 243 298 365 426
#
# _framework density 20.731280000000002
#
# number of rings (size 3 to 8) (size 9 to 14) (size 15 to 20)
#    0.000    0.667    3.333    4.000    4.667    4.000 
#    0.000    1.667    0.000    0.000    0.000    0.000 
#    0.000    0.000    0.000    0.000    0.000    0.000 
#
# Total GULP energy -134227.644847 kJ/mol
# GULP energy per Si atom -5592.818535 kJ/mol
# Density = 2.068409 g / cm^3
# Si number density = 20.731280 Si / 1000 Ang^3
#
#
#
# Elastic Constant Matrix: (Units=GPa)
#
#
# Indices 1 2 3 4 5 6 
#
# 1 143.7329 66.8328 35.5502 0.0000 0.0000 0.0000
# 2 66.8328 143.7358 35.5516 0.0000 0.0000 0.0000
# 3 35.5502 35.5516 85.2611 0.0000 0.0000 0.0000
# 4 0.0000 0.0000 0.0000 25.0725 0.0000 0.0000
# 5 0.0000 0.0000 0.0000 0.0000 25.0718 0.0000
# 6 0.0000 0.0000 0.0000 0.0000 0.0000 43.9111
#
#
#
# Elastic Compliance Matrix: (Units=1/GPa)
#
#
# Indices 1 2 3 4 5 6 
#
# 1 0.009266 -0.003738 -0.002305 0.000000 0.000000 0.000000
# 2 -0.003738 0.009265 -0.002305 0.000000 0.000000 0.000000
# 3 -0.002305 -0.002305 0.013651 0.000000 0.000000 0.000000
# 4 0.000000 0.000000 0.000000 0.039884 0.000000 0.000000
# 5 0.000000 0.000000 0.000000 0.000000 0.039885 0.000000
# 6 0.000000 0.000000 0.000000 0.000000 0.000000 0.022773
#
#
# Mechanical properties :
#
#
# Convention : Reuss Voigt Hill
#
# Bulk Modulus (GPa) = 64.57252 72.06655 68.31954
# Shear Modulus (GPa) = 31.93216 34.46409 33.19813
#
# Velocity S-wave (km/s) = 3.92891 4.08170 4.00603
# Velocity P-wave (km/s) = 7.19700 7.55324 7.37727
#
# Compressibility (1/GPa) = 0.01548646
#
# Stress axis : x y z
#
# Youngs Moduli (GPa) = 107.92688 107.92829 73.25671
#
# Poissons Ratio (x) = 0.40345 0.16883
# Poissons Ratio (y) = 0.40345 0.16884
# Poissons Ratio (z) = 0.24873 0.24875
#
# Static dielectric constant tensor:
#      x y z
#    x 1.850020 0.000000 0.000000 
#    y 0.000000 1.849990 0.000000 
#    z 0.000000 0.000000 1.721080 
# 
# From -- ./inp_files/164.got.cif
#   From: 2010.05.17/outbox.cif.g08.bks.cpg/sg113_cif.got.tgz:164.got - 2010.05.20 11:03:00.
