data_PCOD9555208
_publ_section_title
;
Structure prediction by ZEFSAII (Michael W. Deem and Ramdas Pophale) SiO2 
 PCOD9555208
Probable space group: P -4 2 C
;
_chemical_formula_sum "Si O2"
_cell_formula_units_Z 40
_cell_length_a 15.407228
_cell_length_b 15.407228
_cell_length_c 8.326053
_cell_angle_alpha 90.000000
_cell_angle_beta 90.000000
_cell_angle_gamma 90.000000
_cell_volume 1976.460730
_symmetry_space_group_name_H-M "P -4 2 C"
_symmetry_group_IT_number 112
_symmetry_cell_setting 'tetragonal'
loop_
_space_group_symop_operation_xyz
x,y,z
y,-x,-z
-x,-y,z
-y,x,-z
x,-y,1/2-z
-x,y,1/2-z
-y,-x,1/2+z
y,x,1/2+z
loop_
_atom_site_type_symbol
_atom_site_label
_atom_site_fract_x
_atom_site_fract_y
_atom_site_fract_z
Si Si1 0.474826 0.371450 0.931131
Si Si2 0.079107 0.750409 0.635612
Si Si3 0.238504 0.795150 0.866360
Si Si4 0.602444 0.987407 0.941027
Si Si5 0.362391 0.791134 0.582119
O O1 0.500000 0.387701 0.750000
O O2 0.442631 0.272922 0.941290
O O3 0.398670 0.440092 0.970447
O O4 0.161096 0.763279 0.751765
O O5 0.118765 0.788881 0.467157
O O6 0.000000 0.783029 0.750000
O O7 0.046409 0.657918 0.563734
O O8 0.326270 0.803690 0.762940
O O9 0.252343 0.717038 0.988906
O O10 0.622080 0.887413 0.981207
O O11 0.500000 0.000000 0.956320
O O12 0.624812 0.000000 0.750000
#
# Coordination Sequence:
#
# PCOD9555208 Si02
#       5
#     8   8   8   8   8
#     4  11  24  41  63  88 132 186 241 290 337 388
#     4  11  22  44  67 100 135 179 221 279 348 422
#     4  10  23  39  67  99 130 174 227 278 347 415
#     4  11  24  41  67  99 141 180 223 279 355 418
#     4  11  22  41  63  97 129 177 229 285 342 413
#
# _framework density 20.238197
#
# number of rings (size 3 to 8) (size 9 to 14) (size 15 to 20)
#    0.000    1.200    4.000    2.400    2.800    3.600 
#    0.000    2.000    0.000    1.800    0.000    0.000 
#    0.000    0.000    0.000    0.000    0.000    0.000 
#
# Total GULP energy -222702.387947 kJ/mol
# GULP energy per Si atom -5567.559699 kJ/mol
# Density = 2.019213 g / cm^3
# Si number density = 20.238197 Si / 1000 Ang^3
#
#
#
# Elastic Constant Matrix: (Units=GPa)
#
#
# Indices 1 2 3 4 5 6 
#
# 1 70.0210 33.7401 26.2297 0.0000 0.0000 0.0000
# 2 33.7401 70.0210 26.2297 0.0000 0.0000 0.0000
# 3 26.2297 26.2297 78.3971 0.0000 0.0000 0.0000
# 4 0.0000 0.0000 0.0000 24.1668 0.0000 0.0000
# 5 0.0000 0.0000 0.0000 0.0000 24.1668 0.0000
# 6 0.0000 0.0000 0.0000 0.0000 0.0000 24.7123
#
#
#
# Elastic Compliance Matrix: (Units=1/GPa)
#
#
# Indices 1 2 3 4 5 6 
#
# 1 0.019581 -0.007982 -0.003881 0.000000 0.000000 0.000000
# 2 -0.007982 0.019581 -0.003881 0.000000 0.000000 0.000000
# 3 -0.003881 -0.003881 0.015353 0.000000 0.000000 0.000000
# 4 0.000000 0.000000 0.000000 0.041379 0.000000 0.000000
# 5 0.000000 0.000000 0.000000 0.000000 0.041379 0.000000
# 6 0.000000 0.000000 0.000000 0.000000 0.000000 0.040466
#
#
# Mechanical properties :
#
#
# Convention : Reuss Voigt Hill
#
# Bulk Modulus (GPa) = 43.42539 43.42646 43.42593
# Shear Modulus (GPa) = 23.05193 23.42515 23.23854
#
# Velocity S-wave (km/s) = 3.37861 3.40585 3.39226
# Velocity P-wave (km/s) = 6.06001 6.08036 6.07019
#
# Compressibility (1/GPa) = 0.02302800
#
# Stress axis : x y z
#
# Youngs Moduli (GPa) = 51.06946 51.06946 65.13587
#
# Poissons Ratio (x) = 0.40761 0.25279
# Poissons Ratio (y) = 0.40761 0.25279
# Poissons Ratio (z) = 0.19820 0.19820
#
# Static dielectric constant tensor:
#      x y z
#    x 1.757470 0.000000 0.000000 
#    y 0.000000 1.757470 0.000000 
#    z 0.000000 0.000000 1.772860 
# 
# From -- ./inp_files/1250.got.cif
#   From: 2010.05.17/outbox.cif.g08.bks.cpg/sg112_1_cif.got.tgz:1250.got - 2010.05.20 10:59:04.
