data_PCOD9555547
_publ_section_title
;
Structure prediction by ZEFSAII (Michael W. Deem and Ramdas Pophale) SiO2 
 PCOD9555547
Probable space group: P -4 21 M 
;
_chemical_formula_sum "Si O2"
_cell_formula_units_Z 64
_cell_length_a 20.313424
_cell_length_b 20.313424
_cell_length_c 8.430572
_cell_angle_alpha 90.000000
_cell_angle_beta 90.000000
_cell_angle_gamma 90.000000
_cell_volume 3478.750718
_symmetry_space_group_name_H-M "P -4 21 M "
_symmetry_group_IT_number 113
_symmetry_cell_setting 'tetragonal'
loop_
_space_group_symop_operation_xyz
x,y,z
y,-x,-z
-x,-y,z
-y,x,-z
1/2+x,1/2-y,-z
1/2-x,1/2+y,-z
1/2-y,1/2-x,z
1/2+y,1/2+x,z
loop_
_atom_site_type_symbol
_atom_site_label
_atom_site_fract_x
_atom_site_fract_y
_atom_site_fract_z
Si Si1 0.683089 0.986518 0.613145
Si Si2 0.001800 0.607776 0.070679
Si Si3 0.476296 0.398323 0.544569
Si Si4 0.035610 0.188351 0.194104
Si Si5 0.254941 0.993810 0.118220
Si Si6 0.170673 0.225956 0.325191
Si Si7 0.294425 0.899457 0.382155
Si Si8 0.732142 0.407741 0.605494
O O1 0.628163 0.982947 0.747149
O O2 0.747968 0.009450 0.709543
O O3 0.669813 0.042587 0.481909
O O4 0.708305 0.923942 0.514723
O O5 0.935225 0.564776 0.065766
O O6 0.060799 0.560799 0.012962
O O7 0.995326 0.674200 0.969048
O O8 0.425594 0.459463 0.549696
O O9 0.505426 0.373600 0.712983
O O10 0.441403 0.335241 0.463253
O O11 0.114318 0.195856 0.212836
O O12 0.013610 0.199158 0.014561
O O13 0.255285 0.933095 0.240623
O O14 0.246400 0.057326 0.227614
O O15 0.210326 0.289675 0.262388
O O16 0.135585 0.248455 0.488246
O O17 0.220060 0.168294 0.368685
O O18 0.347252 0.847252 0.322616
#
# Coordination Sequence:
#
# PCOD9555547 Si02
#       8
#     8   8   8   8   8   8   8   8
#     4   8  17  32  55  76 103 145 182 232 275 322
#     4  10  20  35  55  80 112 149 192 236 283 345
#     4  10  19  35  62  84 106 150 190 235 282 332
#     4   9  18  36  53  81 111 142 188 228 277 336
#     4  10  21  35  55  82 115 153 175 232 294 340
#     4  10  20  35  57  81 109 148 192 236 272 330
#     4   9  17  32  56  82 105 140 194 237 271 318
#     4  10  20  36  55  83 115 145 189 233 283 345
#
# _framework density 18.397410000000001
#
# number of rings (size 3 to 8) (size 9 to 14) (size 15 to 20)
#    0.000    2.500    1.250    1.500    0.000    4.500 
#    2.250    3.125    0.000    8.250    0.000    0.000 
#    0.000    0.000    0.000    0.000    0.000    0.000 
#
# Total GULP energy -356637.905674 kJ/mol
# GULP energy per Si atom -5572.467276 kJ/mol
# Density = 1.835554 g / cm^3
# Si number density = 18.397410 Si / 1000 Ang^3
#
#
#
# Elastic Constant Matrix: (Units=GPa)
#
#
# Indices 1 2 3 4 5 6 
#
# 1 48.3359 8.8224 2.9622 0.0000 0.0000 0.0000
# 2 8.8224 48.3328 2.9629 0.0000 0.0000 0.0000
# 3 2.9622 2.9629 44.0999 0.0000 0.0000 0.0000
# 4 0.0000 0.0000 0.0000 12.6384 0.0000 0.0000
# 5 0.0000 0.0000 0.0000 0.0000 12.6368 0.0000
# 6 0.0000 0.0000 0.0000 0.0000 0.0000 19.6107
#
#
#
# Elastic Compliance Matrix: (Units=1/GPa)
#
#
# Indices 1 2 3 4 5 6 
#
# 1 0.021463 -0.003845 -0.001183 0.000000 0.000000 0.000000
# 2 -0.003845 0.021464 -0.001184 0.000000 0.000000 0.000000
# 3 -0.001183 -0.001184 0.022835 0.000000 0.000000 0.000000
# 4 0.000000 0.000000 0.000000 0.079124 0.000000 0.000000
# 5 0.000000 0.000000 0.000000 0.000000 0.079134 0.000000
# 6 0.000000 0.000000 0.000000 0.000000 0.000000 0.050992
#
#
# Mechanical properties :
#
#
# Convention : Reuss Voigt Hill
#
# Bulk Modulus (GPa) = 18.74857 18.91817 18.83337
# Shear Modulus (GPa) = 16.38184 17.37860 16.88022
#
# Velocity S-wave (km/s) = 2.98727 3.07681 3.03237
# Velocity P-wave (km/s) = 4.70227 4.78829 4.74547
#
# Compressibility (1/GPa) = 0.05333740
#
# Stress axis : x y z
#
# Youngs Moduli (GPa) = 46.59201 46.58897 43.79281
#
# Poissons Ratio (x) = 0.17914 0.05182
# Poissons Ratio (y) = 0.17915 0.05184
# Poissons Ratio (z) = 0.05513 0.05515
#
# Static dielectric constant tensor:
#      x y z
#    x 1.646690 0.000000 0.000000 
#    y 0.000000 1.646690 0.000000 
#    z 0.000000 0.000000 1.624260 
# 
# From -- ./inp_files/1378.got.cif
#   From: 2010.05.17/outbox.cif.g08.bks.cpg/sg113_cif.got.tgz:1378.got - 2010.05.20 11:03:00.
