data_PCOD9555128
_publ_section_title
;
Structure prediction by ZEFSAII (Michael W. Deem and Ramdas Pophale) SiO2 
 PCOD9555128
Probable space group: P -4 2 C
;
_chemical_formula_sum "Si O2"
_cell_formula_units_Z 48
_cell_length_a 15.740597
_cell_length_b 15.740597
_cell_length_c 10.857527
_cell_angle_alpha 90.000000
_cell_angle_beta 90.000000
_cell_angle_gamma 90.000000
_cell_volume 2690.130312
_symmetry_space_group_name_H-M "P -4 2 C"
_symmetry_group_IT_number 112
_symmetry_cell_setting 'tetragonal'
loop_
_space_group_symop_operation_xyz
x,y,z
y,-x,-z
-x,-y,z
-y,x,-z
x,-y,1/2-z
-x,y,1/2-z
-y,-x,1/2+z
y,x,1/2+z
loop_
_atom_site_type_symbol
_atom_site_label
_atom_site_fract_x
_atom_site_fract_y
_atom_site_fract_z
Si Si1 0.000000 0.334778 0.750000
Si Si2 0.108348 0.066720 0.521151
Si Si3 0.404075 0.113594 0.581001
Si Si4 0.832776 0.686985 0.311749
Si Si5 0.157157 0.258513 0.890110
Si Si6 0.926427 0.407335 0.000134
Si Si7 0.000000 0.791408 0.250000
O O1 0.922195 0.279161 0.698486
O O2 0.960507 0.389731 0.862788
O O3 0.171464 0.134907 0.462796
O O4 0.016106 0.097155 0.565152
O O5 0.152793 0.020670 0.633491
O O6 0.389230 0.161559 0.710943
O O7 0.335786 0.154311 0.487644
O O8 0.498710 0.109896 0.524682
O O9 0.388922 0.010799 0.584173
O O10 0.755772 0.753816 0.320066
O O11 0.853750 0.653834 0.448419
O O12 0.914374 0.740262 0.270352
#
# Coordination Sequence:
#
# PCOD9555128 Si02
#       7
#     4   8   8   8   8   8   4
#     4  10  24  39  56  85 112 160 192 247 294 362
#     4  11  24  35  46  67 101 153 206 240 276 321
#     4  10  21  38  57  82 106 147 195 240 292 355
#     4  12  21  35  57  80 111 145 192 246 289 346
#     4  11  24  34  55  78 114 150 194 242 297 337
#     4  10  21  38  61  80 110 149 197 239 301 352
#     4  12  20  35  51  66 100 142 196 240 279 325
#
# _framework density 17.843001000000001
#
# number of rings (size 3 to 8) (size 9 to 14) (size 15 to 20)
#    0.000    1.167    5.000    1.500    4.667    8.000 
#    0.000    0.000    0.000    0.000    0.000    0.000 
#    0.000    0.667    1.000    0.000    0.000    0.000 
#
# Total GULP energy -267463.866279 kJ/mol
# GULP energy per Si atom -5572.163881 kJ/mol
# Density = 1.780239 g / cm^3
# Si number density = 17.843001 Si / 1000 Ang^3
#
#
#
# Elastic Constant Matrix: (Units=GPa)
#
#
# Indices 1 2 3 4 5 6 
#
# 1 71.6006 31.5475 25.3630 0.0000 0.0000 0.0000
# 2 31.5475 71.6006 25.3630 0.0000 0.0000 0.0000
# 3 25.3630 25.3630 74.3200 0.0000 0.0000 0.0000
# 4 0.0000 0.0000 0.0000 16.2025 0.0000 0.0000
# 5 0.0000 0.0000 0.0000 0.0000 16.2025 0.0000
# 6 0.0000 0.0000 0.0000 0.0000 0.0000 22.4181
#
#
#
# Elastic Compliance Matrix: (Units=1/GPa)
#
#
# Indices 1 2 3 4 5 6 
#
# 1 0.018308 -0.006658 -0.003976 0.000000 0.000000 0.000000
# 2 -0.006658 0.018308 -0.003976 0.000000 0.000000 0.000000
# 3 -0.003976 -0.003976 0.016169 0.000000 0.000000 0.000000
# 4 0.000000 0.000000 0.000000 0.061719 0.000000 0.000000
# 5 0.000000 0.000000 0.000000 0.000000 0.061719 0.000000
# 6 0.000000 0.000000 0.000000 0.000000 0.000000 0.044607
#
#
# Mechanical properties :
#
#
# Convention : Reuss Voigt Hill
#
# Bulk Modulus (GPa) = 42.43429 42.45204 42.44316
# Shear Modulus (GPa) = 19.38698 19.98116 19.68407
#
# Velocity S-wave (km/s) = 3.29983 3.35002 3.32502
# Velocity P-wave (km/s) = 6.19291 6.22954 6.21125
#
# Compressibility (1/GPa) = 0.02356585
#
# Stress axis : x y z
#
# Youngs Moduli (GPa) = 54.61972 54.61972 61.84705
#
# Poissons Ratio (x) = 0.36368 0.24589
# Poissons Ratio (y) = 0.36368 0.24589
# Poissons Ratio (z) = 0.21715 0.21715
#
# Static dielectric constant tensor:
#      x y z
#    x 1.663900 0.000000 0.000000 
#    y 0.000000 1.663900 0.000000 
#    z 0.000000 0.000000 1.699410 
# 
# From -- ./inp_files/2605.got.cif
#   From: 2010.05.17/outbox.cif.g08.bks.cpg/sg112_2_cif.got.tgz:2605.got - 2010.05.20 10:59:04.
