data_PCOD9555179
_publ_section_title
;
Structure prediction by ZEFSAII (Michael W. Deem and Ramdas Pophale) SiO2 
 PCOD9555179
Probable space group: P -4 2 C
;
_chemical_formula_sum "Si O2"
_cell_formula_units_Z 56
_cell_length_a 16.288741
_cell_length_b 16.288741
_cell_length_c 10.957910
_cell_angle_alpha 90.000000
_cell_angle_beta 90.000000
_cell_angle_gamma 90.000000
_cell_volume 2907.386468
_symmetry_space_group_name_H-M "P -4 2 C"
_symmetry_group_IT_number 112
_symmetry_cell_setting 'tetragonal'
loop_
_space_group_symop_operation_xyz
x,y,z
y,-x,-z
-x,-y,z
-y,x,-z
x,-y,1/2-z
-x,y,1/2-z
-y,-x,1/2+z
y,x,1/2+z
loop_
_atom_site_type_symbol
_atom_site_label
_atom_site_fract_x
_atom_site_fract_y
_atom_site_fract_z
Si Si1 0.386489 0.687321 0.515273
Si Si2 0.833221 0.591915 0.303258
Si Si3 0.853211 0.641238 0.949763
Si Si4 0.978646 0.592942 0.481066
Si Si5 0.913322 0.293274 0.800554
Si Si6 0.459791 0.296197 0.381712
Si Si7 0.263192 0.764751 0.870170
O O1 0.398617 0.772632 0.582573
O O2 0.347490 0.623592 0.609836
O O3 0.473327 0.659113 0.464606
O O4 0.326739 0.704410 0.400488
O O5 0.820606 0.500000 0.250000
O O6 0.923981 0.594659 0.360443
O O7 0.807314 0.669406 0.217975
O O8 0.884022 0.651884 0.812840
O O9 0.789535 0.566572 0.944990
O O10 0.930621 0.628291 0.035839
O O11 0.808269 0.722585 0.998668
O O12 0.935517 0.648608 0.584956
O O13 0.000000 0.500000 0.522154
O O14 0.832129 0.238999 0.831019
O O15 0.000000 0.254767 0.750000
O O16 0.500000 0.283311 0.250000
#
# Coordination Sequence:
#
# PCOD9555179 Si02
#       7
#     8   8   8   8   8   8   8
#     4  11  22  40  57  86 115 165 215 269 319 372
#     4  12  24  39  63  90 134 172 214 268 334 412
#     4  10  23  37  61  91 122 164 213 260 333 397
#     4  11  23  39  59  95 133 164 206 270 341 407
#     4  10  22  39  62  93 126 162 220 271 329 402
#     4  11  23  38  62  82 115 159 218 265 315 374
#     4  11  21  40  62  89 128 173 217 266 331 401
#
# _framework density 19.261285999999998
#
# number of rings (size 3 to 8) (size 9 to 14) (size 15 to 20)
#    0.000    1.143    1.429    6.857    2.000    4.286 
#    0.000    0.714    0.000    0.000    0.000    2.000 
#    0.000    0.000    0.000    0.000    0.000    0.000 
#
# Total GULP energy -312252.064910 kJ/mol
# GULP energy per Si atom -5575.929731 kJ/mol
# Density = 1.921745 g / cm^3
# Si number density = 19.261286 Si / 1000 Ang^3
#
#
#
# Elastic Constant Matrix: (Units=GPa)
#
#
# Indices 1 2 3 4 5 6 
#
# 1 120.8433 49.5103 42.8477 0.0000 0.0000 0.0000
# 2 49.5103 120.8433 42.8477 0.0000 0.0000 0.0000
# 3 42.8477 42.8477 74.6904 0.0000 0.0000 0.0000
# 4 0.0000 0.0000 0.0000 25.9596 0.0000 0.0000
# 5 0.0000 0.0000 0.0000 0.0000 25.9596 0.0000
# 6 0.0000 0.0000 0.0000 0.0000 0.0000 16.2974
#
#
#
# Elastic Compliance Matrix: (Units=1/GPa)
#
#
# Indices 1 2 3 4 5 6 
#
# 1 0.011135 -0.002884 -0.004734 0.000000 0.000000 0.000000
# 2 -0.002884 0.011135 -0.004734 0.000000 0.000000 0.000000
# 3 -0.004734 -0.004734 0.018820 0.000000 0.000000 0.000000
# 4 0.000000 0.000000 0.000000 0.038521 0.000000 0.000000
# 5 0.000000 0.000000 0.000000 0.000000 0.038521 0.000000
# 6 0.000000 0.000000 0.000000 0.000000 0.000000 0.061359
#
#
# Mechanical properties :
#
#
# Convention : Reuss Voigt Hill
#
# Bulk Modulus (GPa) = 61.02002 65.19872 63.10937
# Shear Modulus (GPa) = 23.84857 25.72141 24.78499
#
# Velocity S-wave (km/s) = 3.52257 3.65827 3.59106
# Velocity P-wave (km/s) = 6.94936 7.19493 7.07321
#
# Compressibility (1/GPa) = 0.01638806
#
# Stress axis : x y z
#
# Youngs Moduli (GPa) = 89.80661 89.80661 53.13607
#
# Poissons Ratio (x) = 0.25898 0.25152
# Poissons Ratio (y) = 0.25898 0.25152
# Poissons Ratio (z) = 0.42510 0.42510
#
# Static dielectric constant tensor:
#      x y z
#    x 1.705380 0.000000 0.000000 
#    y 0.000000 1.705380 0.000000 
#    z 0.000000 0.000000 1.708890 
# 
# From -- ./inp_files/2656.got.cif
#   From: 2010.05.17/outbox.cif.g08.bks.cpg/sg112_2_cif.got.tgz:2656.got - 2010.05.20 10:59:04.
