data_PCOD9555878
_publ_section_title
;
Structure prediction by ZEFSAII (Michael W. Deem and Ramdas Pophale) SiO2 
 PCOD9555878
Probable space group: P -4 21 C
;
_chemical_formula_sum "Si O2"
_cell_formula_units_Z 32
_cell_length_a 8.167393
_cell_length_b 8.167393
_cell_length_c 20.206546
_cell_angle_alpha 90.000000
_cell_angle_beta 90.000000
_cell_angle_gamma 90.000000
_cell_volume 1347.904090
_symmetry_space_group_name_H-M "P -4 21 C"
_symmetry_group_IT_number 114
_symmetry_cell_setting 'tetragonal'
loop_
_space_group_symop_operation_xyz
x,y,z
y,-x,-z
-x,-y,z
-y,x,-z
1/2+x,1/2-y,1/2-z
1/2-x,1/2+y,1/2-z
1/2-y,1/2-x,1/2+z
1/2+y,1/2+x,1/2+z
loop_
_atom_site_type_symbol
_atom_site_label
_atom_site_fract_x
_atom_site_fract_y
_atom_site_fract_z
Si Si1 0.734667 0.802600 0.854647
Si Si2 0.081680 0.667086 0.863836
Si Si3 0.820899 0.081803 0.764857
Si Si4 0.376463 0.252318 0.496521
O O1 0.700099 0.644305 0.810023
O O2 0.666503 0.818796 0.928576
O O3 0.929326 0.792991 0.870644
O O4 0.707964 0.956527 0.806246
O O5 0.192064 0.753511 0.809561
O O6 0.000000 0.500000 0.840966
O O7 0.152503 0.647783 0.937076
O O8 0.000000 0.000000 0.764691
O O9 0.290458 0.428683 0.510145
#
# Coordination Sequence:
#
# PCOD9555878 Si02
#       4
#     8   8   8   8
#     4  10  19  34  58  83 115 157 192 253 305 365
#     4  10  19  33  55  84 114 149 202 250 301 363
#     4  10  20  35  55  88 120 155 197 251 313 369
#     4   9  16  32  57  83 109 145 198 247 299 363
#
# _framework density 23.740559999999999
#
# number of rings (size 3 to 8) (size 9 to 14) (size 15 to 20)
#    0.000    2.250    2.500    1.500    0.000    0.000 
#    0.000    6.250    5.500    0.000    0.000    0.000 
#    0.000    0.000    0.000    0.000    0.000    0.000 
#
# Total GULP energy -178345.988843 kJ/mol
# GULP energy per Si atom -5573.312151 kJ/mol
# Density = 2.368653 g / cm^3
# Si number density = 23.740560 Si / 1000 Ang^3
#
#
#
# Elastic Constant Matrix: (Units=GPa)
#
#
# Indices 1 2 3 4 5 6 
#
# 1 43.2305 2.1485 30.9286 0.0000 0.0000 0.0000
# 2 2.1485 43.2305 30.9286 0.0000 0.0000 0.0000
# 3 30.9286 30.9286 181.3034 0.0000 0.0000 0.0000
# 4 0.0000 0.0000 0.0000 30.7474 0.0000 0.0000
# 5 0.0000 0.0000 0.0000 0.0000 30.7474 0.0000
# 6 0.0000 0.0000 0.0000 0.0000 0.0000 18.0328
#
#
#
# Elastic Compliance Matrix: (Units=1/GPa)
#
#
# Indices 1 2 3 4 5 6 
#
# 1 0.026528 0.002186 -0.004898 0.000000 0.000000 0.000000
# 2 0.002186 0.026528 -0.004898 0.000000 0.000000 0.000000
# 3 -0.004898 -0.004898 0.007187 0.000000 0.000000 0.000000
# 4 0.000000 0.000000 0.000000 0.032523 0.000000 0.000000
# 5 0.000000 0.000000 0.000000 0.000000 0.032523 0.000000
# 6 0.000000 0.000000 0.000000 0.000000 0.000000 0.055455
#
#
# Mechanical properties :
#
#
# Convention : Reuss Voigt Hill
#
# Bulk Modulus (GPa) = 22.21188 43.97509 33.09349
# Shear Modulus (GPa) = 23.69998 29.48942 26.59470
#
# Velocity S-wave (km/s) = 3.16300 3.52824 3.35060
# Velocity P-wave (km/s) = 4.76611 5.92971 5.37946
#
# Compressibility (1/GPa) = 0.04502095
#
# Stress axis : x y z
#
# Youngs Moduli (GPa) = 37.69663 37.69663 139.14374
#
# Poissons Ratio (x) = -0.08241 0.68156
# Poissons Ratio (y) = -0.08241 0.68156
# Poissons Ratio (z) = 0.18465 0.18465
#
# Static dielectric constant tensor:
#      x y z
#    x 1.965460 0.000000 0.000000 
#    y 0.000000 1.965460 0.000000 
#    z 0.000000 0.000000 1.991720 
# 
# From -- ./inp_files/2816.got.cif
#   From: 2010.05.17/outbox.cif.g08.bks.cpg/sg114_2_cif.got.tgz:2816.got - 2010.05.20 11:04:54.
