data_PCOD9555095
_publ_section_title
;
Structure prediction by ZEFSAII (Michael W. Deem and Ramdas Pophale) SiO2 
 PCOD9555095
Probable space group: P -4 2 C
;
_chemical_formula_sum "Si O2"
_cell_formula_units_Z 40
_cell_length_a 12.646495
_cell_length_b 12.646495
_cell_length_c 10.508952
_cell_angle_alpha 90.000000
_cell_angle_beta 90.000000
_cell_angle_gamma 90.000000
_cell_volume 1680.737003
_symmetry_space_group_name_H-M "P -4 2 C"
_symmetry_group_IT_number 112
_symmetry_cell_setting 'tetragonal'
loop_
_space_group_symop_operation_xyz
x,y,z
y,-x,-z
-x,-y,z
-y,x,-z
x,-y,1/2-z
-x,y,1/2-z
-y,-x,1/2+z
y,x,1/2+z
loop_
_atom_site_type_symbol
_atom_site_label
_atom_site_fract_x
_atom_site_fract_y
_atom_site_fract_z
Si Si1 0.500000 0.500000 0.000000
Si Si2 0.000000 0.000000 0.250000
Si Si3 0.951197 0.404776 0.504990
Si Si4 0.106470 0.806111 0.615385
Si Si5 0.327176 0.000000 0.750000
Si Si6 0.556662 0.276704 0.881603
Si Si7 0.221034 0.215790 0.642582
O O1 0.386515 0.494426 0.072315
O O2 0.919174 0.940057 0.344485
O O3 0.827850 0.432711 0.472286
O O4 0.963279 0.288035 0.559624
O O5 0.000000 0.500000 0.582972
O O6 0.019769 0.395565 0.374747
O O7 0.262137 0.897037 0.795241
O O8 0.190601 0.818128 0.499639
O O9 0.142511 0.753963 0.747416
O O10 0.500000 0.245244 0.750000
O O11 0.681387 0.295497 0.858518
#
# Coordination Sequence:
#
# PCOD9555095 Si02
#       7
#     2   2   8   8   4   8   8
#     4  12  26  44  64 122 140 200 238 300 394 440
#     4  12  26  50  70 108 150 198 252 322 386 446
#     4  10  20  43  73 110 144 195 252 308 376 450
#     4  10  25  42  72 107 141 195 244 310 371 446
#     4   8  16  34  68 104 134 181 248 307 354 442
#     4  10  23  41  73 101 147 192 247 308 370 453
#     4  10  22  43  70 106 141 190 250 304 370 439
#
# _framework density 23.799084000000001
#
# number of rings (size 3 to 8) (size 9 to 14) (size 15 to 20)
#    0.000    2.400    0.000    3.600    5.600    5.600 
#    3.600    0.500    4.400    5.400    0.000    0.000 
#    0.000    0.000    0.000    0.000    0.000    0.000 
#
# Total GULP energy -222841.776017 kJ/mol
# GULP energy per Si atom -5571.044400 kJ/mol
# Density = 2.374492 g / cm^3
# Si number density = 23.799084 Si / 1000 Ang^3
#
#
#
# Elastic Constant Matrix: (Units=GPa)
#
#
# Indices 1 2 3 4 5 6 
#
# 1 104.2957 22.4205 34.5095 0.0000 0.0000 0.0000
# 2 22.4205 104.2957 34.5095 0.0000 0.0000 0.0000
# 3 34.5095 34.5095 136.7376 0.0000 0.0000 0.0000
# 4 0.0000 0.0000 0.0000 9.0248 0.0000 0.0000
# 5 0.0000 0.0000 0.0000 0.0000 9.0248 0.0000
# 6 0.0000 0.0000 0.0000 0.0000 0.0000 36.2339
#
#
#
# Elastic Compliance Matrix: (Units=1/GPa)
#
#
# Indices 1 2 3 4 5 6 
#
# 1 0.010682 -0.001532 -0.002309 0.000000 0.000000 0.000000
# 2 -0.001532 0.010682 -0.002309 0.000000 0.000000 0.000000
# 3 -0.002309 -0.002309 0.008479 0.000000 0.000000 0.000000
# 4 0.000000 0.000000 0.000000 0.110806 0.000000 0.000000
# 5 0.000000 0.000000 0.000000 0.000000 0.110806 0.000000
# 6 0.000000 0.000000 0.000000 0.000000 0.000000 0.027598
#
#
# Mechanical properties :
#
#
# Convention : Reuss Voigt Hill
#
# Bulk Modulus (GPa) = 57.00885 58.68980 57.84933
# Shear Modulus (GPa) = 16.82366 27.78264 22.30315
#
# Velocity S-wave (km/s) = 2.66165 3.42041 3.06460
# Velocity P-wave (km/s) = 5.78378 6.34925 6.07310
#
# Compressibility (1/GPa) = 0.01754114
#
# Stress axis : x y z
#
# Youngs Moduli (GPa) = 93.61952 93.61952 117.94118
#
# Poissons Ratio (x) = 0.14344 0.27234
# Poissons Ratio (y) = 0.14344 0.27234
# Poissons Ratio (z) = 0.21618 0.21618
#
# Static dielectric constant tensor:
#      x y z
#    x 2.058780 0.000000 0.000000 
#    y 0.000000 2.058780 0.000000 
#    z 0.000000 0.000000 1.987420 
# 
# From -- ./inp_files/1334.got.cif
#   From: 2010.05.17/outbox.cif.g08.bks.cpg/sg112_1_cif.got.tgz:1334.got - 2010.05.20 10:59:04.
