data_PCOD9555833
_publ_section_title
;
Structure prediction by ZEFSAII (Michael W. Deem and Ramdas Pophale) SiO2 
 PCOD9555833
Probable space group: P -4 21 C
;
_chemical_formula_sum "Si O2"
_cell_formula_units_Z 48
_cell_length_a 8.472715
_cell_length_b 8.472715
_cell_length_c 32.849842
_cell_angle_alpha 90.000000
_cell_angle_beta 90.000000
_cell_angle_gamma 90.000000
_cell_volume 2358.188305
_symmetry_space_group_name_H-M "P -4 21 C"
_symmetry_group_IT_number 114
_symmetry_cell_setting 'tetragonal'
loop_
_space_group_symop_operation_xyz
x,y,z
y,-x,-z
-x,-y,z
-y,x,-z
1/2+x,1/2-y,1/2-z
1/2-x,1/2+y,1/2-z
1/2-y,1/2-x,1/2+z
1/2+y,1/2+x,1/2+z
loop_
_atom_site_type_symbol
_atom_site_label
_atom_site_fract_x
_atom_site_fract_y
_atom_site_fract_z
Si Si1 0.000000 0.000000 0.398834
Si Si2 0.662621 0.718263 0.834111
Si Si3 0.316318 0.832218 0.809683
Si Si4 0.011912 0.686227 0.270828
Si Si5 0.565436 0.302231 0.974517
Si Si6 0.000000 0.500000 0.065474
Si Si7 0.318035 0.519027 0.619823
O O1 0.096343 0.115504 0.369895
O O2 0.884149 0.086212 0.430625
O O3 0.498305 0.805788 0.822869
O O4 0.720561 0.621033 0.795595
O O5 0.800561 0.829379 0.850953
O O6 0.295534 0.972241 0.776852
O O7 0.255184 0.676510 0.786732
O O8 0.221360 0.871508 0.850690
O O9 0.000000 0.500000 0.279649
O O10 0.578706 0.123517 0.965038
O O11 0.387949 0.332969 0.991279
O O12 0.956916 0.343724 0.092398
O O13 0.500000 0.500000 0.603902
#
# Coordination Sequence:
#
# PCOD9555833 Si02
#       7
#     4   8   8   8   8   4   8
#     4  10  17  40  70  90 120 176 224 258 340 424
#     4  12  22  42  66  90 129 186 232 290 356 421
#     4  12  23  42  60  86 130 183 228 291 366 409
#     4  12  25  37  59  91 127 172 244 302 346 420
#     4   9  21  42  73 101 131 175 215 258 335 427
#     4  12  22  46  74 104 148 182 214 294 344 414
#     4  12  25  42  69  99 136 183 229 285 349 407
#
# _framework density 20.354610000000001
#
# number of rings (size 3 to 8) (size 9 to 14) (size 15 to 20)
#    0.000    0.833    5.000    4.000    0.000    1.333 
#    3.000    0.000    1.833    0.000    0.000    0.000 
#    0.000    0.000    0.000    0.000    0.000    0.000 
#
# Total GULP energy -267562.456371 kJ/mol
# GULP energy per Si atom -5574.217841 kJ/mol
# Density = 2.030828 g / cm^3
# Si number density = 20.354610 Si / 1000 Ang^3
#
#
#
# Elastic Constant Matrix: (Units=GPa)
#
#
# Indices 1 2 3 4 5 6 
#
# 1 70.5302 -5.5462 6.3820 0.0000 0.0000 0.0000
# 2 -5.5462 70.5302 6.3820 0.0000 0.0000 0.0000
# 3 6.3820 6.3820 76.8327 0.0000 0.0000 0.0000
# 4 0.0000 0.0000 0.0000 13.7872 0.0000 0.0000
# 5 0.0000 0.0000 0.0000 0.0000 13.7872 0.0000
# 6 0.0000 0.0000 0.0000 0.0000 0.0000 31.2892
#
#
#
# Elastic Compliance Matrix: (Units=1/GPa)
#
#
# Indices 1 2 3 4 5 6 
#
# 1 0.014394 0.001249 -0.001299 0.000000 0.000000 0.000000
# 2 0.001249 0.014394 -0.001299 0.000000 0.000000 0.000000
# 3 -0.001299 -0.001299 0.013231 0.000000 0.000000 0.000000
# 4 0.000000 0.000000 0.000000 0.072531 0.000000 0.000000
# 5 0.000000 0.000000 0.000000 0.000000 0.072531 0.000000
# 6 0.000000 0.000000 0.000000 0.000000 0.000000 0.031960
#
#
# Mechanical properties :
#
#
# Convention : Reuss Voigt Hill
#
# Bulk Modulus (GPa) = 25.43187 25.81431 25.62309
# Shear Modulus (GPa) = 21.29044 25.81773 23.55409
#
# Velocity S-wave (km/s) = 3.23766 3.56532 3.40544
# Velocity P-wave (km/s) = 5.14764 5.44596 5.29890
#
# Compressibility (1/GPa) = 0.03932074
#
# Stress axis : x y z
#
# Youngs Moduli (GPa) = 69.47259 69.47259 75.57919
#
# Poissons Ratio (x) = -0.08680 0.09821
# Poissons Ratio (y) = -0.08680 0.09821
# Poissons Ratio (z) = 0.09027 0.09027
#
# Static dielectric constant tensor:
#      x y z
#    x 1.771390 0.000000 0.000000 
#    y 0.000000 1.771390 0.000000 
#    z 0.000000 0.000000 1.743160 
# 
# From -- ./inp_files/4026.got.cif
#   From: 2010.05.17/outbox.cif.g08.bks.cpg/sg114_3_cif.got.tgz:4026.got - 2010.05.20 11:04:54.
