data_PCOD9555661
_publ_section_title
;
Structure prediction by ZEFSAII (Michael W. Deem and Ramdas Pophale) SiO2 
 PCOD9555661
Probable space group: P -4 21 M 
;
_chemical_formula_sum "Si O2"
_cell_formula_units_Z 56
_cell_length_a 12.473685
_cell_length_b 12.473685
_cell_length_c 20.745555
_cell_angle_alpha 90.000000
_cell_angle_beta 90.000000
_cell_angle_gamma 90.000000
_cell_volume 3227.859353
_symmetry_space_group_name_H-M "P -4 21 M "
_symmetry_group_IT_number 113
_symmetry_cell_setting 'tetragonal'
loop_
_space_group_symop_operation_xyz
x,y,z
y,-x,-z
-x,-y,z
-y,x,-z
1/2+x,1/2-y,-z
1/2-x,1/2+y,-z
1/2-y,1/2-x,z
1/2+y,1/2+x,z
loop_
_atom_site_type_symbol
_atom_site_label
_atom_site_fract_x
_atom_site_fract_y
_atom_site_fract_z
Si Si1 0.219882 0.894181 0.043369
Si Si2 0.400898 0.581821 0.784260
Si Si3 0.001806 0.320637 0.837343
Si Si4 0.825256 0.507386 0.591160
Si Si5 0.333460 0.465079 0.480258
Si Si6 0.996447 0.870859 0.086186
Si Si7 0.835629 0.845519 0.351166
O O1 0.304021 0.804021 0.026845
O O2 0.121958 0.843439 0.084296
O O3 0.278408 0.979674 0.089713
O O4 0.175971 0.943228 0.977503
O O5 0.500000 0.500000 0.776658
O O6 0.287569 0.521895 0.797620
O O7 0.432045 0.649916 0.848133
O O8 0.387416 0.646601 0.718730
O O9 0.901163 0.401163 0.832138
O O10 0.107472 0.392529 0.820540
O O11 0.913987 0.413987 0.585653
O O12 0.774607 0.532270 0.521436
O O13 0.729093 0.456076 0.632936
O O14 0.888109 0.611892 0.616602
O O15 0.386634 0.582392 0.483403
O O16 0.326555 0.419979 0.408412
O O17 0.000000 0.000000 0.080442
O O18 0.748371 0.751630 0.352994
#
# Coordination Sequence:
#
# PCOD9555661 Si02
#       7
#     8   8   8   8   8   8   8
#     4  11  20  33  58  82 107 142 183 237 285 327
#     4  11  22  35  56  76 111 154 189 225 265 338
#     4  10  21  37  57  85 117 146 183 237 293 332
#     4   9  18  33  54  80 109 139 173 219 276 328
#     4   9  18  32  54  79 106 139 176 226 270 317
#     4  11  19  37  52  78 110 140 184 226 273 332
#     4  10  21  34  53  80 109 141 181 222 267 322
#
# _framework density 17.348959000000001
#
# number of rings (size 3 to 8) (size 9 to 14) (size 15 to 20)
#    0.000    1.857    4.286    0.857    4.000    4.000 
#    0.000    1.429    0.000    0.857    0.000    0.000 
#    0.000    1.714    0.000    0.000    0.000    0.000 
#
# Total GULP energy -312120.643787 kJ/mol
# GULP energy per Si atom -5573.582925 kJ/mol
# Density = 1.730947 g / cm^3
# Si number density = 17.348959 Si / 1000 Ang^3
#
#
#
# Elastic Constant Matrix: (Units=GPa)
#
#
# Indices 1 2 3 4 5 6 
#
# 1 57.9451 7.9283 24.7072 0.0000 0.0000 0.0000
# 2 7.9283 57.9435 24.7070 0.0000 0.0000 0.0000
# 3 24.7072 24.7070 87.9895 0.0000 0.0000 0.0000
# 4 0.0000 0.0000 0.0000 15.5753 0.0000 0.0000
# 5 0.0000 0.0000 0.0000 0.0000 15.5757 0.0000
# 6 0.0000 0.0000 0.0000 0.0000 0.0000 13.9708
#
#
#
# Elastic Compliance Matrix: (Units=1/GPa)
#
#
# Indices 1 2 3 4 5 6 
#
# 1 0.019612 -0.000381 -0.005400 0.000000 0.000000 0.000000
# 2 -0.000381 0.019613 -0.005400 0.000000 0.000000 0.000000
# 3 -0.005400 -0.005400 0.014398 0.000000 0.000000 0.000000
# 4 0.000000 0.000000 0.000000 0.064204 0.000000 0.000000
# 5 0.000000 0.000000 0.000000 0.000000 0.064203 0.000000
# 6 0.000000 0.000000 0.000000 0.000000 0.000000 0.071578
#
#
# Mechanical properties :
#
#
# Convention : Reuss Voigt Hill
#
# Bulk Modulus (GPa) = 31.98931 35.39590 33.69261
# Shear Modulus (GPa) = 17.45867 18.79339 18.12603
#
# Velocity S-wave (km/s) = 3.17570 3.29486 3.23583
# Velocity P-wave (km/s) = 5.65027 5.90943 5.78130
#
# Compressibility (1/GPa) = 0.03126044
#
# Stress axis : x y z
#
# Youngs Moduli (GPa) = 50.98810 50.98663 69.45553
#
# Poissons Ratio (x) = 0.01942 0.37507
# Poissons Ratio (y) = 0.01942 0.37508
# Poissons Ratio (z) = 0.27534 0.27534
#
# Static dielectric constant tensor:
#      x y z
#    x 1.615450 0.000000 0.000000 
#    y 0.000000 1.615450 0.000000 
#    z 0.000000 0.000000 1.593220 
# 
# From -- ./inp_files/2723.got.cif
#   From: 2010.05.17/outbox.cif.g08.bks.cpg/sg113_cif.got.tgz:2723.got - 2010.05.20 11:03:00.
