data_PCOD9555468
_publ_section_title
;
Structure prediction by ZEFSAII (Michael W. Deem and Ramdas Pophale) SiO2 
 PCOD9555468
Probable space group: P -4 21 M 
;
_chemical_formula_sum "Si O2"
_cell_formula_units_Z 48
_cell_length_a 15.942092
_cell_length_b 15.942092
_cell_length_c 11.833631
_cell_angle_alpha 90.000000
_cell_angle_beta 90.000000
_cell_angle_gamma 90.000000
_cell_volume 3007.520837
_symmetry_space_group_name_H-M "P -4 21 M "
_symmetry_group_IT_number 113
_symmetry_cell_setting 'tetragonal'
loop_
_space_group_symop_operation_xyz
x,y,z
y,-x,-z
-x,-y,z
-y,x,-z
1/2+x,1/2-y,-z
1/2-x,1/2+y,-z
1/2-y,1/2-x,z
1/2+y,1/2+x,z
loop_
_atom_site_type_symbol
_atom_site_label
_atom_site_fract_x
_atom_site_fract_y
_atom_site_fract_z
Si Si1 0.541996 0.632160 0.511674
Si Si2 0.146653 0.788995 0.687891
Si Si3 0.263918 0.096109 0.075560
Si Si4 0.200565 0.977012 0.744398
Si Si5 0.608645 0.443658 0.047302
Si Si6 0.001777 0.359986 0.102447
O O1 0.597481 0.548120 0.532284
O O2 0.590505 0.688711 0.420630
O O3 0.522516 0.681843 0.626381
O O4 0.218939 0.718939 0.667937
O O5 0.089722 0.758477 0.793088
O O6 0.186980 0.877768 0.726567
O O7 0.326144 0.173857 0.066498
O O8 0.181661 0.113866 0.000979
O O9 0.309840 0.018999 0.013174
O O10 0.291317 0.993493 0.798730
O O11 0.134679 0.014117 0.835713
O O12 0.519389 0.399436 0.043854
O O13 0.086022 0.413979 0.095061
O O14 0.925746 0.425746 0.120717
#
# Coordination Sequence:
#
# PCOD9555468 Si02
#       6
#     8   8   8   8   8   8
#     4   9  20  33  50  72 100 137 173 212 255 302
#     4  10  19  33  52  73 100 136 173 209 252 305
#     4   9  18  32  48  71 100 130 165 202 245 302
#     4  10  19  32  50  75 101 134 166 213 254 304
#     4  10  19  28  47  75 102 128 159 204 253 303
#     4   9  18  33  53  75 100 132 168 208 255 305
#
# _framework density 15.959989999999999
#
# number of rings (size 3 to 8) (size 9 to 14) (size 15 to 20)
#    0.000    2.500    1.667    0.500    2.333    2.000 
#    0.000    0.000    0.000    5.000    0.000    2.333 
#    0.000    0.000    0.000    0.000    0.000    0.000 
#
# Total GULP energy -267328.629166 kJ/mol
# GULP energy per Si atom -5569.346441 kJ/mol
# Density = 1.592366 g / cm^3
# Si number density = 15.959990 Si / 1000 Ang^3
#
#
#
# Elastic Constant Matrix: (Units=GPa)
#
#
# Indices 1 2 3 4 5 6 
#
# 1 72.1839 31.1021 67.1441 0.0000 0.0000 0.0000
# 2 31.1021 72.1884 67.1441 0.0000 0.0000 0.0000
# 3 67.1441 67.1441 119.6648 0.0000 0.0000 0.0000
# 4 0.0000 0.0000 0.0000 23.3267 0.0000 0.0000
# 5 0.0000 0.0000 0.0000 0.0000 23.3260 0.0000
# 6 0.0000 0.0000 0.0000 0.0000 0.0000 10.6786
#
#
#
# Elastic Compliance Matrix: (Units=1/GPa)
#
#
# Indices 1 2 3 4 5 6 
#
# 1 0.030068 0.005726 -0.020084 0.000000 0.000000 0.000000
# 2 0.005726 0.030064 -0.020082 0.000000 0.000000 0.000000
# 3 -0.020084 -0.020082 0.030894 0.000000 0.000000 0.000000
# 4 0.000000 0.000000 0.000000 0.042869 0.000000 0.000000
# 5 0.000000 0.000000 0.000000 0.000000 0.042871 0.000000
# 6 0.000000 0.000000 0.000000 0.000000 0.000000 0.093646
#
#
# Mechanical properties :
#
#
# Convention : Reuss Voigt Hill
#
# Bulk Modulus (GPa) = 45.15459 66.09087 55.62273
# Shear Modulus (GPa) = 14.42274 18.04269 16.23271
#
# Velocity S-wave (km/s) = 3.00939 3.36593 3.19264
# Velocity P-wave (km/s) = 6.35838 7.52371 6.96546
#
# Compressibility (1/GPa) = 0.02214614
#
# Stress axis : x y z
#
# Youngs Moduli (GPa) = 33.25771 33.26193 32.36880
#
# Poissons Ratio (x) = -0.19046 0.65010
# Poissons Ratio (y) = -0.19043 0.65003
# Poissons Ratio (z) = 0.66795 0.66797
#
# Static dielectric constant tensor:
#      x y z
#    x 1.542040 0.000000 0.000000 
#    y 0.000000 1.542040 0.000000 
#    z 0.000000 0.000000 1.521870 
# 
# From -- ./inp_files/1192.got.cif
#   From: 2010.05.17/outbox.cif.g08.bks.cpg/sg113_cif.got.tgz:1192.got - 2010.05.20 11:03:00.
