data_PCOD9555184
_publ_section_title
;
Structure prediction by ZEFSAII (Michael W. Deem and Ramdas Pophale) SiO2 
 PCOD9555184
Probable space group: P -4 2 C
;
_chemical_formula_sum "Si O2"
_cell_formula_units_Z 34
_cell_length_a 11.597566
_cell_length_b 11.597566
_cell_length_c 10.681469
_cell_angle_alpha 90.000000
_cell_angle_beta 90.000000
_cell_angle_gamma 90.000000
_cell_volume 1436.695362
_symmetry_space_group_name_H-M "P -4 2 C"
_symmetry_group_IT_number 112
_symmetry_cell_setting 'tetragonal'
loop_
_space_group_symop_operation_xyz
x,y,z
y,-x,-z
-x,-y,z
-y,x,-z
x,-y,1/2-z
-x,y,1/2-z
-y,-x,1/2+z
y,x,1/2+z
loop_
_atom_site_type_symbol
_atom_site_label
_atom_site_fract_x
_atom_site_fract_y
_atom_site_fract_z
Si Si1 0.367741 0.117663 0.826605
Si Si2 0.500000 0.000000 0.250000
Si Si3 0.712444 0.698811 0.122569
Si Si4 0.520927 0.189593 0.061768
Si Si5 0.844403 0.896438 0.000090
O O1 0.367644 0.229892 0.737881
O O2 0.241803 0.109374 0.885075
O O3 0.384803 0.000000 0.750000
O O4 0.454096 0.132531 0.943314
O O5 0.562900 0.088437 0.155037
O O6 0.579007 0.734019 0.127188
O O7 0.736750 0.623239 0.997917
O O8 0.787741 0.814611 0.103974
O O9 0.970658 0.854066 0.962734
#
# Coordination Sequence:
#
# PCOD9555184 Si02
#       5
#     8   2   8   8   8
#     4  11  22  44  73 103 143 190 244 299 362 448
#     4  12  28  48  74 106 150 188 240 318 362 450
#     4  11  25  46  70 106 141 193 245 303 358 443
#     4  11  28  45  75 105 144 193 245 300 376 430
#     4  10  22  40  63 103 145 183 231 294 376 433
#
# _framework density 23.665422
#
# number of rings (size 3 to 8) (size 9 to 14) (size 15 to 20)
#    0.000    1.176    2.353    2.118    9.882    2.353 
#    0.000    0.000    0.000    0.000    0.000    0.000 
#    0.000    0.000    0.000    0.000    0.000    0.000 
#
# Total GULP energy -190259.629871 kJ/mol
# GULP energy per Si atom -5595.871467 kJ/mol
# Density = 2.361156 g / cm^3
# Si number density = 23.665422 Si / 1000 Ang^3
#
#
#
# Elastic Constant Matrix: (Units=GPa)
#
#
# Indices 1 2 3 4 5 6 
#
# 1 120.0266 39.9357 38.3913 0.0000 0.0000 0.0000
# 2 39.9357 120.0266 38.3913 0.0000 0.0000 0.0000
# 3 38.3913 38.3913 109.5770 0.0000 0.0000 0.0000
# 4 0.0000 0.0000 0.0000 35.3326 0.0000 0.0000
# 5 0.0000 0.0000 0.0000 0.0000 35.3326 0.0000
# 6 0.0000 0.0000 0.0000 0.0000 0.0000 15.6408
#
#
#
# Elastic Compliance Matrix: (Units=1/GPa)
#
#
# Indices 1 2 3 4 5 6 
#
# 1 0.010001 -0.002485 -0.002633 0.000000 0.000000 0.000000
# 2 -0.002485 0.010001 -0.002633 0.000000 0.000000 0.000000
# 3 -0.002633 -0.002633 0.010971 0.000000 0.000000 0.000000
# 4 0.000000 0.000000 0.000000 0.028302 0.000000 0.000000
# 5 0.000000 0.000000 0.000000 0.000000 0.028302 0.000000
# 6 0.000000 0.000000 0.000000 0.000000 0.000000 0.063935
#
#
# Mechanical properties :
#
#
# Convention : Reuss Voigt Hill
#
# Bulk Modulus (GPa) = 64.64346 64.78519 64.71432
# Shear Modulus (GPa) = 29.04081 32.78869 30.91475
#
# Velocity S-wave (km/s) = 3.50686 3.72628 3.61823
# Velocity P-wave (km/s) = 6.61606 6.77853 6.69779
#
# Compressibility (1/GPa) = 0.01546947
#
# Stress axis : x y z
#
# Youngs Moduli (GPa) = 99.99414 99.99414 91.14903
#
# Poissons Ratio (x) = 0.24851 0.24000
# Poissons Ratio (y) = 0.24851 0.24000
# Poissons Ratio (z) = 0.26329 0.26329
#
# Static dielectric constant tensor:
#      x y z
#    x 1.884650 0.000000 0.000000 
#    y 0.000000 1.884650 0.000000 
#    z 0.000000 0.000000 1.932090 
# 
# From -- ./inp_files/2329.got.cif
#   From: 2010.05.17/outbox.cif.g08.bks.cpg/sg112_2_cif.got.tgz:2329.got - 2010.05.20 10:59:04.
