data_PCOD9555895
_publ_section_title
;
Structure prediction by ZEFSAII (Michael W. Deem and Ramdas Pophale) SiO2 
 PCOD9555895
Probable space group: P -4 21 C
;
_chemical_formula_sum "Si O2"
_cell_formula_units_Z 54
_cell_length_a 11.839468
_cell_length_b 11.839468
_cell_length_c 21.213202
_cell_angle_alpha 90.000000
_cell_angle_beta 90.000000
_cell_angle_gamma 90.000000
_cell_volume 2973.518217
_symmetry_space_group_name_H-M "P -4 21 C"
_symmetry_group_IT_number 114
_symmetry_cell_setting 'tetragonal'
loop_
_space_group_symop_operation_xyz
x,y,z
y,-x,-z
-x,-y,z
-y,x,-z
1/2+x,1/2-y,1/2-z
1/2-x,1/2+y,1/2-z
1/2-y,1/2-x,1/2+z
1/2+y,1/2+x,1/2+z
loop_
_atom_site_type_symbol
_atom_site_label
_atom_site_fract_x
_atom_site_fract_y
_atom_site_fract_z
Si Si1 0.717146 0.886947 0.312748
Si Si2 0.060092 0.879883 0.797296
Si Si3 0.796730 0.691496 0.996082
Si Si4 0.500000 0.500000 0.000000
Si Si5 0.807804 0.153969 0.129789
Si Si6 0.500000 0.000000 0.328243
Si Si7 0.244845 0.450383 0.611378
Si Si8 0.738366 0.446849 0.042621
O O1 0.818918 0.921869 0.268732
O O2 0.710929 0.751116 0.317515
O O3 0.605007 0.950890 0.288995
O O4 0.724154 0.925908 0.385887
O O5 0.178820 0.895114 0.833660
O O6 0.969498 0.814922 0.840836
O O7 0.000000 0.000000 0.787546
O O8 0.875346 0.746308 0.048902
O O9 0.791955 0.557607 0.011308
O O10 0.838764 0.716890 0.925718
O O11 0.669893 0.744500 0.996364
O O12 0.605490 0.472403 0.043352
O O13 0.928527 0.194750 0.100914
O O14 0.465889 0.886600 0.367739
#
# Coordination Sequence:
#
# PCOD9555895 Si02
#       8
#     8   8   8   2   8   4   8   8
#     4  10  20  36  60  80 120 155 190 242 297 353
#     4  10  23  41  59  88 114 153 211 245 294 358
#     4  10  19  36  58  85 122 153 197 246 300 352
#     4   8  16  28  52  80 112 124 192 238 272 340
#     4   9  22  38  56  89 116 152 202 255 290 356
#     4  10  20  38  58  86 110 158 194 222 298 362
#     4  10  21  38  61  82 115 158 195 242 300 351
#     4   9  18  33  54  87 113 152 188 236 292 355
#
# _framework density 18.160307
#
# number of rings (size 3 to 8) (size 9 to 14) (size 15 to 20)
#    0.000    2.370    1.481    0.000    5.185    0.000 
#    0.000    1.481    0.000    0.000    0.000    0.000 
#    0.000    0.000    0.000    0.000    0.000    0.000 
#
# Total GULP energy -300772.951541 kJ/mol
# GULP energy per Si atom -5569.869473 kJ/mol
# Density = 1.811897 g / cm^3
# Si number density = 18.160307 Si / 1000 Ang^3
#
#
#
# Elastic Constant Matrix: (Units=GPa)
#
#
# Indices 1 2 3 4 5 6 
#
# 1 75.3003 31.5339 38.5733 0.0000 0.0000 0.0000
# 2 31.5339 75.3003 38.5733 0.0000 0.0000 0.0000
# 3 38.5733 38.5733 55.6096 0.0000 0.0000 0.0000
# 4 0.0000 0.0000 0.0000 21.2587 0.0000 0.0000
# 5 0.0000 0.0000 0.0000 0.0000 21.2587 0.0000
# 6 0.0000 0.0000 0.0000 0.0000 0.0000 19.4703
#
#
#
# Elastic Compliance Matrix: (Units=1/GPa)
#
#
# Indices 1 2 3 4 5 6 
#
# 1 0.020801 -0.002047 -0.013009 0.000000 0.000000 0.000000
# 2 -0.002047 0.020801 -0.013009 0.000000 0.000000 0.000000
# 3 -0.013009 -0.013009 0.036029 0.000000 0.000000 0.000000
# 4 0.000000 0.000000 0.000000 0.047040 0.000000 0.000000
# 5 0.000000 0.000000 0.000000 0.000000 0.047040 0.000000
# 6 0.000000 0.000000 0.000000 0.000000 0.000000 0.051360
#
#
# Mechanical properties :
#
#
# Convention : Reuss Voigt Hill
#
# Bulk Modulus (GPa) = 46.50561 47.06344 46.78453
# Shear Modulus (GPa) = 17.46008 18.89952 18.17980
#
# Velocity S-wave (km/s) = 3.10408 3.22950 3.16741
# Velocity P-wave (km/s) = 6.20573 6.31490 6.26055
#
# Compressibility (1/GPa) = 0.02150278
#
# Stress axis : x y z
#
# Youngs Moduli (GPa) = 48.07395 48.07395 27.75534
#
# Poissons Ratio (x) = 0.09842 0.36106
# Poissons Ratio (y) = 0.09842 0.36106
# Poissons Ratio (z) = 0.62537 0.62537
#
# Static dielectric constant tensor:
#      x y z
#    x 1.655910 0.000000 0.000000 
#    y 0.000000 1.655910 0.000000 
#    z 0.000000 0.000000 1.593620 
# 
# From -- ./inp_files/3184.got.cif
#   From: 2010.05.17/outbox.cif.g08.bks.cpg/sg114_2_cif.got.tgz:3184.got - 2010.05.20 11:04:54.
