data_PCOD9555557
_publ_section_title
;
Structure prediction by ZEFSAII (Michael W. Deem and Ramdas Pophale) SiO2 
 PCOD9555557
Probable space group: P -4 21 M 
;
_chemical_formula_sum "Si O2"
_cell_formula_units_Z 56
_cell_length_a 12.339874
_cell_length_b 12.339874
_cell_length_c 21.067146
_cell_angle_alpha 90.000000
_cell_angle_beta 90.000000
_cell_angle_gamma 90.000000
_cell_volume 3207.946786
_symmetry_space_group_name_H-M "P -4 21 M "
_symmetry_group_IT_number 113
_symmetry_cell_setting 'tetragonal'
loop_
_space_group_symop_operation_xyz
x,y,z
y,-x,-z
-x,-y,z
-y,x,-z
1/2+x,1/2-y,-z
1/2-x,1/2+y,-z
1/2-y,1/2-x,z
1/2+y,1/2+x,z
loop_
_atom_site_type_symbol
_atom_site_label
_atom_site_fract_x
_atom_site_fract_y
_atom_site_fract_z
Si Si1 0.449319 0.766923 0.524958
Si Si2 0.322692 0.007537 0.661597
Si Si3 0.994680 0.321729 0.093421
Si Si4 0.097831 0.915057 0.710346
Si Si5 0.288297 0.605676 0.584310
Si Si6 0.586252 0.400758 0.852593
Si Si7 0.170711 0.034921 0.019175
O O1 0.359632 0.859632 0.519432
O O2 0.520886 0.797567 0.586478
O O3 0.388776 0.657354 0.545617
O O4 0.510778 0.755657 0.459383
O O5 0.387431 0.112570 0.685334
O O6 0.405678 0.905678 0.666885
O O7 0.211597 0.975360 0.695513
O O8 0.096461 0.403540 0.093817
O O9 0.026329 0.212933 0.131672
O O10 0.891260 0.391260 0.116640
O O11 0.970014 0.278394 0.022316
O O12 0.078782 0.829455 0.654367
O O13 0.103089 0.869001 0.781474
O O14 0.000000 0.000000 0.708122
O O15 0.198794 0.698794 0.589751
O O16 0.500000 0.500000 0.856153
O O17 0.671936 0.424526 0.908588
O O18 0.083774 0.115167 0.985296
#
# Coordination Sequence:
#
# PCOD9555557 Si02
#       7
#     8   8   8   8   8   8   8
#     4   9  19  33  54  80 103 136 177 223 278 325
#     4   9  18  35  57  79 106 139 178 227 283 333
#     4  10  21  34  54  89 117 133 170 230 283 315
#     4  10  22  35  53  78 108 146 182 222 263 315
#     4  10  21  35  52  78 109 136 176 227 267 322
#     4  10  19  38  56  75 108 149 190 213 252 325
#     4   9  15  32  57  78 104 141 177 211 251 317
#
# _framework density 17.456648000000001
#
# number of rings (size 3 to 8) (size 9 to 14) (size 15 to 20)
#    0.000    2.429    2.857    1.714    4.000    4.857 
#    0.000    1.429    0.000    1.714    0.000    0.000 
#    0.000    0.000    0.000    0.000    0.000    0.000 
#
# Total GULP energy -312084.417287 kJ/mol
# GULP energy per Si atom -5572.936023 kJ/mol
# Density = 1.741692 g / cm^3
# Si number density = 17.456648 Si / 1000 Ang^3
#
#
#
# Elastic Constant Matrix: (Units=GPa)
#
#
# Indices 1 2 3 4 5 6 
#
# 1 62.5472 9.8599 22.2378 0.0000 0.0000 0.0000
# 2 9.8599 62.5458 22.2373 0.0000 0.0000 0.0000
# 3 22.2378 22.2373 124.5833 0.0000 0.0000 0.0000
# 4 0.0000 0.0000 0.0000 -9.5540 0.0000 0.0000
# 5 0.0000 0.0000 0.0000 0.0000 -9.5548 0.0000
# 6 0.0000 0.0000 0.0000 0.0000 0.0000 7.1095
#
#
#
# Elastic Compliance Matrix: (Units=1/GPa)
#
#
# Indices 1 2 3 4 5 6 
#
# 1 0.017246 -0.001734 -0.002769 0.000000 0.000000 0.000000
# 2 -0.001734 0.017246 -0.002769 0.000000 0.000000 0.000000
# 3 -0.002769 -0.002769 0.009015 0.000000 0.000000 0.000000
# 4 0.000000 0.000000 0.000000 -0.104669 0.000000 0.000000
# 5 0.000000 0.000000 0.000000 0.000000 -0.104659 0.000000
# 6 0.000000 0.000000 0.000000 0.000000 0.000000 0.140656
#
#
# Mechanical properties :
#
#
# Convention : Reuss Voigt Hill
#
# Bulk Modulus (GPa) = 34.52630 39.81624 37.17127
# Shear Modulus (GPa) = -5171.83060 10.62291 -2580.60385
#
# Velocity S-wave (km/s) = -54.48947 2.46952 -38.49029
# Velocity P-wave (km/s) = 62.76131 5.56682 44.20403
#
# Compressibility (1/GPa) = 0.02896343
#
# Stress axis : x y z
#
# Youngs Moduli (GPa) = 57.98540 57.98422 110.92408
#
# Poissons Ratio (x) = 0.10056 0.30712
# Poissons Ratio (y) = 0.10056 0.30712
# Poissons Ratio (z) = 0.16055 0.16054
#
# Static dielectric constant tensor:
#      x y z
#    x 1.599970 0.000000 0.000000 
#    y 0.000000 1.599970 0.000000 
#    z 0.000000 0.000000 1.613980 
# 
# From -- ./inp_files/2677.got.cif
#   From: 2010.05.17/outbox.cif.g08.bks.cpg/sg113_cif.got.tgz:2677.got - 2010.05.20 11:03:00.
