data_PCOD9555304
_publ_section_title
;
Structure prediction by ZEFSAII (Michael W. Deem and Ramdas Pophale) SiO2 
 PCOD9555304
Probable space group: P -4 2 C
;
_chemical_formula_sum "Si O2"
_cell_formula_units_Z 26
_cell_length_a 8.466054
_cell_length_b 8.466054
_cell_length_c 15.400054
_cell_angle_alpha 90.000000
_cell_angle_beta 90.000000
_cell_angle_gamma 90.000000
_cell_volume 1103.784553
_symmetry_space_group_name_H-M "P -4 2 C"
_symmetry_group_IT_number 112
_symmetry_cell_setting 'tetragonal'
loop_
_space_group_symop_operation_xyz
x,y,z
y,-x,-z
-x,-y,z
-y,x,-z
x,-y,1/2-z
-x,y,1/2-z
-y,-x,1/2+z
y,x,1/2+z
loop_
_atom_site_type_symbol
_atom_site_label
_atom_site_fract_x
_atom_site_fract_y
_atom_site_fract_z
Si Si1 0.500000 0.500000 0.000000
Si Si2 0.315568 0.813738 0.770495
Si Si3 0.761899 0.295416 0.595820
Si Si4 0.050158 0.331220 0.062567
O O1 0.604003 0.616975 0.939281
O O2 0.500000 0.780372 0.750000
O O3 0.226379 0.707585 0.699645
O O4 0.276668 0.808762 0.872941
O O5 0.283274 0.000000 0.750000
O O6 0.896242 0.361155 0.534482
O O7 0.765695 0.109831 0.568706
O O8 0.000000 0.500000 0.101466
#
# Coordination Sequence:
#
# PCOD9555304 Si02
#       4
#     2   8   8   8
#     4  12  20  36  62 100 128 170 220 272 330 388
#     4   9  15  34  61  88 114 168 213 252 312 396
#     4  11  22  36  65  96 127 170 224 270 324 397
#     4  11  20  39  64  91 131 168 216 272 333 386
#
# _framework density 23.555322
#
# number of rings (size 3 to 8) (size 9 to 14) (size 15 to 20)
#    0.000    1.538    9.231    0.000    0.000    0.615 
#    0.000    8.462    0.000    7.385    0.000    0.000 
#    0.000    0.000    0.000    0.000    0.000    0.000 
#
# Total GULP energy -144895.251432 kJ/mol
# GULP energy per Si atom -5572.894286 kJ/mol
# Density = 2.350171 g / cm^3
# Si number density = 23.555322 Si / 1000 Ang^3
#
#
#
# Elastic Constant Matrix: (Units=GPa)
#
#
# Indices 1 2 3 4 5 6 
#
# 1 37.4745 16.0085 42.5227 0.0000 0.0000 0.0000
# 2 16.0085 37.4745 42.5227 0.0000 0.0000 0.0000
# 3 42.5227 42.5227 150.0570 0.0000 0.0000 0.0000
# 4 0.0000 0.0000 0.0000 33.1930 0.0000 0.0000
# 5 0.0000 0.0000 0.0000 0.0000 33.1930 0.0000
# 6 0.0000 0.0000 0.0000 0.0000 0.0000 20.6396
#
#
#
# Elastic Compliance Matrix: (Units=1/GPa)
#
#
# Indices 1 2 3 4 5 6 
#
# 1 0.040309 -0.006276 -0.009644 0.000000 0.000000 0.000000
# 2 -0.006276 0.040309 -0.009644 0.000000 0.000000 0.000000
# 3 -0.009644 -0.009644 0.012130 0.000000 0.000000 0.000000
# 4 0.000000 0.000000 0.000000 0.030127 0.000000 0.000000
# 5 0.000000 0.000000 0.000000 0.000000 0.030127 0.000000
# 6 0.000000 0.000000 0.000000 0.000000 0.000000 0.048450
#
#
# Mechanical properties :
#
#
# Convention : Reuss Voigt Hill
#
# Bulk Modulus (GPa) = 24.02723 47.45710 35.74217
# Shear Modulus (GPa) = 18.76492 25.66861 22.21677
#
# Velocity S-wave (km/s) = 2.82553 3.30467 3.07445
# Velocity P-wave (km/s) = 4.56807 5.89507 5.27348
#
# Compressibility (1/GPa) = 0.04161944
#
# Stress axis : x y z
#
# Youngs Moduli (GPa) = 24.80824 24.80824 82.44005
#
# Poissons Ratio (x) = 0.15570 0.79507
# Poissons Ratio (y) = 0.15570 0.79507
# Poissons Ratio (z) = 0.23926 0.23926
#
# Static dielectric constant tensor:
#      x y z
#    x 2.008800 0.000000 0.000000 
#    y 0.000000 2.008800 0.000000 
#    z 0.000000 0.000000 1.989130 
# 
# From -- ./inp_files/3822.got.cif
#   From: 2010.05.17/outbox.cif.g08.bks.cpg/sg112_2_cif.got.tgz:3822.got - 2010.05.20 10:59:04.
