data_PCOD9555708
_publ_section_title
;
Structure prediction by ZEFSAII (Michael W. Deem and Ramdas Pophale) SiO2 
 PCOD9555708
Probable space group: P -4 21 M 
;
_chemical_formula_sum "Si O2"
_cell_formula_units_Z 34
_cell_length_a 9.701462
_cell_length_b 9.701462
_cell_length_c 17.878287
_cell_angle_alpha 90.000000
_cell_angle_beta 90.000000
_cell_angle_gamma 90.000000
_cell_volume 1682.675140
_symmetry_space_group_name_H-M "P -4 21 M "
_symmetry_group_IT_number 113
_symmetry_cell_setting 'tetragonal'
loop_
_space_group_symop_operation_xyz
x,y,z
y,-x,-z
-x,-y,z
-y,x,-z
1/2+x,1/2-y,-z
1/2-x,1/2+y,-z
1/2-y,1/2-x,z
1/2+y,1/2+x,z
loop_
_atom_site_type_symbol
_atom_site_label
_atom_site_fract_x
_atom_site_fract_y
_atom_site_fract_z
Si Si1 0.218359 0.718359 0.097440
Si Si2 0.633538 0.363309 0.541053
Si Si3 0.992987 0.720668 0.668361
Si Si4 0.772431 0.727570 0.070744
Si Si5 0.490610 0.344412 0.170567
Si Si6 0.500000 0.000000 0.908515
O O1 0.372570 0.685008 0.123082
O O2 0.107682 0.607682 0.129209
O O3 0.215520 0.715520 0.007590
O O4 0.476803 0.325278 0.521759
O O5 0.731208 0.231208 0.539878
O O6 0.656733 0.447846 0.617838
O O7 0.098940 0.598940 0.649399
O O8 0.007335 0.750497 0.756096
O O9 0.840643 0.659358 0.652301
O O10 0.644694 0.670757 0.119390
O O11 0.889774 0.610227 0.055678
O O12 0.500000 0.500000 0.198191
#
# Coordination Sequence:
#
# PCOD9555708 Si02
#       6
#     4   8   8   4   8   2
#     4  12  26  44  70  96 131 177 223 279 335 401
#     4  10  22  40  65  95 129 166 213 263 324 389
#     4  10  21  41  66  95 129 167 217 277 319 383
#     4  12  26  44  70  94 137 171 229 277 331 403
#     4  12  25  41  67  98 129 178 228 268 340 399
#     4  12  24  48  60  96 136 168 204 278 340 376
#
# _framework density 20.205919999999999
#
# number of rings (size 3 to 8) (size 9 to 14) (size 15 to 20)
#    0.000    0.941    4.706    2.118    3.294    1.882 
#    0.000    0.000    2.588    0.000    0.000    0.000 
#    0.000    0.000    0.000    0.000    0.000    0.000 
#
# Total GULP energy -189586.364076 kJ/mol
# GULP energy per Si atom -5576.069532 kJ/mol
# Density = 2.015993 g / cm^3
# Si number density = 20.205920 Si / 1000 Ang^3
#
#
#
# Elastic Constant Matrix: (Units=GPa)
#
#
# Indices 1 2 3 4 5 6 
#
# 1 78.9615 9.2840 -9.2517 0.0000 0.0000 0.0000
# 2 9.2840 78.9596 -9.2519 0.0000 0.0000 0.0000
# 3 -9.2517 -9.2519 69.4526 0.0000 0.0000 0.0000
# 4 0.0000 0.0000 0.0000 44.3890 0.0000 0.0000
# 5 0.0000 0.0000 0.0000 0.0000 44.3839 0.0000
# 6 0.0000 0.0000 0.0000 0.0000 0.0000 41.3661
#
#
#
# Elastic Compliance Matrix: (Units=1/GPa)
#
#
# Indices 1 2 3 4 5 6 
#
# 1 0.013005 -0.001347 0.001553 0.000000 0.000000 0.000000
# 2 -0.001347 0.013005 0.001553 0.000000 0.000000 0.000000
# 3 0.001553 0.001553 0.014812 0.000000 0.000000 0.000000
# 4 0.000000 0.000000 0.000000 0.022528 0.000000 0.000000
# 5 0.000000 0.000000 0.000000 0.000000 0.022531 0.000000
# 6 0.000000 0.000000 0.000000 0.000000 0.000000 0.024174
#
#
# Mechanical properties :
#
#
# Convention : Reuss Voigt Hill
#
# Bulk Modulus (GPa) = 22.55334 23.21494 22.88414
# Shear Modulus (GPa) = 41.21422 41.80068 41.50745
#
# Velocity S-wave (km/s) = 4.52121 4.55327 4.53727
# Velocity P-wave (km/s) = 6.20009 6.25757 6.22890
#
# Compressibility (1/GPa) = 0.04433934
#
# Stress axis : x y z
#
# Youngs Moduli (GPa) = 76.89507 76.89314 67.51259
#
# Poissons Ratio (x) = 0.10358 -0.10484
# Poissons Ratio (y) = 0.10359 -0.10485
# Poissons Ratio (z) = -0.11941 -0.11941
#
# Static dielectric constant tensor:
#      x y z
#    x 1.736710 0.000000 0.000000 
#    y 0.000000 1.736710 0.000000 
#    z 0.000000 0.000000 1.696390 
# 
# From -- ./inp_files/2627.got.cif
#   From: 2010.05.17/outbox.cif.g08.bks.cpg/sg113_cif.got.tgz:2627.got - 2010.05.20 11:03:00.
