data_PCOD9555463
_publ_section_title
;
Structure prediction by ZEFSAII (Michael W. Deem and Ramdas Pophale) SiO2 
 PCOD9555463
Probable space group: P -4 21 M 
;
_chemical_formula_sum "Si O2"
_cell_formula_units_Z 64
_cell_length_a 17.802561
_cell_length_b 17.802561
_cell_length_c 12.055012
_cell_angle_alpha 90.000000
_cell_angle_beta 90.000000
_cell_angle_gamma 90.000000
_cell_volume 3820.609156
_symmetry_space_group_name_H-M "P -4 21 M "
_symmetry_group_IT_number 113
_symmetry_cell_setting 'tetragonal'
loop_
_space_group_symop_operation_xyz
x,y,z
y,-x,-z
-x,-y,z
-y,x,-z
1/2+x,1/2-y,-z
1/2-x,1/2+y,-z
1/2-y,1/2-x,z
1/2+y,1/2+x,z
loop_
_atom_site_type_symbol
_atom_site_label
_atom_site_fract_x
_atom_site_fract_y
_atom_site_fract_z
Si Si1 0.057584 0.132141 0.156422
Si Si2 0.867857 0.942415 0.656422
Si Si3 0.203946 0.419833 0.702046
Si Si4 0.307965 0.682464 0.186336
Si Si5 0.679192 0.566685 0.509732
Si Si6 0.679190 0.433315 0.990267
Si Si7 0.692037 0.682463 0.313661
Si Si8 0.796055 0.419831 0.797955
O O1 0.117704 0.185266 0.219560
O O2 0.999999 0.102093 0.250001
O O3 0.005924 0.174426 0.067555
O O4 0.106633 0.071387 0.090069
O O5 0.814734 0.882295 0.719562
O O6 0.928611 0.893365 0.590067
O O7 0.825572 0.994076 0.567556
O O8 0.133354 0.366647 0.685047
O O9 0.260784 0.375899 0.785083
O O10 0.249210 0.431038 0.588430
O O11 0.183297 0.500001 0.749998
O O12 0.232099 0.732099 0.189556
O O13 0.319235 0.639531 0.070405
O O14 0.680767 0.639531 0.429592
O O15 0.750789 0.431038 0.911569
O O16 0.767905 0.732096 0.310439
O O17 0.624106 0.739218 0.285080
O O18 0.866647 0.366647 0.814959
#
# Coordination Sequence:
#
# PCOD9555463 Si02
#       8
#     8   8   8   8   8   8   8   8
#     4   9  19  32  48  72 102 129 162 201 238 285
#     4   9  19  32  48  72 102 129 162 201 238 285
#     4  10  20  33  50  71  96 126 160 200 240 282
#     4   9  18  33  53  75  97 123 160 205 247 287
#     4  10  18  33  51  72  98 130 161 194 240 294
#     4  10  18  33  51  72  98 130 161 194 240 294
#     4   9  18  33  53  75  97 123 160 205 247 287
#     4  10  20  33  50  71  96 126 160 200 240 282
#
# _framework density 16.751256000000001
#
# number of rings (size 3 to 8) (size 9 to 14) (size 15 to 20)
#    0.000    2.500    0.000    2.250    0.000    1.750 
#    0.000   10.000    0.000    0.000    0.000    0.000 
#    0.000   24.500    0.000    0.500    0.000    0.000 
#
# Total GULP energy -356897.594801 kJ/mol
# GULP energy per Si atom -5576.524919 kJ/mol
# Density = 1.671313 g / cm^3
# Si number density = 16.751256 Si / 1000 Ang^3
#
#
#
# Elastic Constant Matrix: (Units=GPa)
#
#
# Indices 1 2 3 4 5 6 
#
# 1 98.8515 43.6510 40.0774 0.0000 0.0000 0.0000
# 2 43.6510 98.8550 40.0792 0.0000 0.0000 0.0000
# 3 40.0774 40.0792 89.0075 0.0000 0.0000 0.0000
# 4 0.0000 0.0000 0.0000 16.0006 0.0000 0.0000
# 5 0.0000 0.0000 0.0000 0.0000 15.9992 0.0000
# 6 0.0000 0.0000 0.0000 0.0000 0.0000 1.6311
#
#
#
# Elastic Compliance Matrix: (Units=1/GPa)
#
#
# Indices 1 2 3 4 5 6 
#
# 1 0.013757 -0.004359 -0.004231 0.000000 0.000000 0.000000
# 2 -0.004359 0.013756 -0.004232 0.000000 0.000000 0.000000
# 3 -0.004231 -0.004232 0.015046 0.000000 0.000000 0.000000
# 4 0.000000 0.000000 0.000000 0.062498 0.000000 0.000000
# 5 0.000000 0.000000 0.000000 0.000000 0.062503 0.000000
# 6 0.000000 0.000000 0.000000 0.000000 0.000000 0.613093
#
#
# Mechanical properties :
#
#
# Convention : Reuss Voigt Hill
#
# Bulk Modulus (GPa) = 59.12017 59.36993 59.24505
# Shear Modulus (GPa) = 6.15814 17.58660 11.87237
#
# Velocity S-wave (km/s) = 1.91943 3.24368 2.66511
# Velocity P-wave (km/s) = 6.34680 7.03901 6.70185
#
# Compressibility (1/GPa) = 0.01691470
#
# Stress axis : x y z
#
# Youngs Moduli (GPa) = 72.69282 72.69458 66.46400
#
# Poissons Ratio (x) = 0.31687 0.28124
# Poissons Ratio (y) = 0.31686 0.28125
# Poissons Ratio (z) = 0.30759 0.30761
#
# Static dielectric constant tensor:
#      x y z
#    x 1.549050 0.000000 0.000000 
#    y 0.000000 1.549050 0.000000 
#    z 0.000000 0.000000 1.579640 
# 
# From -- ./inp_files/2022.got.cif
#   From: 2010.05.17/outbox.cif.g08.bks.cpg/sg113_cif.got.tgz:2022.got - 2010.05.20 11:03:00.
