data_PCOD9555253
_publ_section_title
;
Structure prediction by ZEFSAII (Michael W. Deem and Ramdas Pophale) SiO2 
 PCOD9555253
Probable space group: P -4 2 C
;
_chemical_formula_sum "Si O2"
_cell_formula_units_Z 36
_cell_length_a 9.169606
_cell_length_b 9.169606
_cell_length_c 20.277237
_cell_angle_alpha 90.000000
_cell_angle_beta 90.000000
_cell_angle_gamma 90.000000
_cell_volume 1704.944035
_symmetry_space_group_name_H-M "P -4 2 C"
_symmetry_group_IT_number 112
_symmetry_cell_setting 'tetragonal'
loop_
_space_group_symop_operation_xyz
x,y,z
y,-x,-z
-x,-y,z
-y,x,-z
x,-y,1/2-z
-x,y,1/2-z
-y,-x,1/2+z
y,x,1/2+z
loop_
_atom_site_type_symbol
_atom_site_label
_atom_site_fract_x
_atom_site_fract_y
_atom_site_fract_z
Si Si1 0.674591 0.476165 0.674163
Si Si2 0.250805 0.856138 0.666719
Si Si3 0.428057 0.285057 0.030567
Si Si4 0.000000 0.000000 0.750000
Si Si5 0.941341 0.775769 0.477615
Si Si6 0.000000 0.500000 0.250000
O O1 0.500000 0.500000 0.676701
O O2 0.727229 0.500000 0.750000
O O3 0.728022 0.314763 0.654403
O O4 0.716839 0.571949 0.610236
O O5 0.243548 0.949227 0.600311
O O6 0.393587 0.901775 0.706897
O O7 0.106757 0.898092 0.707271
O O8 0.326533 0.414917 0.000711
O O9 0.367749 0.131228 0.006832
O O10 0.091959 0.828471 0.508287
#
# Coordination Sequence:
#
# PCOD9555253 Si02
#       6
#     8   8   8   2   8   2
#     4  11  22  38  66  98 133 168 221 290 347 407
#     4  11  23  46  66 101 136 184 237 284 361 420
#     4  11  21  42  65  93 132 172 224 283 343 412
#     4  10  24  42  72  90 144 182 224 298 336 442
#     4  11  25  42  65  94 135 179 229 281 342 421
#     4  10  24  42  74  98 132 186 238 292 344 426
#
# _framework density 21.115064
#
# number of rings (size 3 to 8) (size 9 to 14) (size 15 to 20)
#    0.000    1.111    4.444    2.667    0.000    9.778 
#    0.000    2.778    0.000    0.000    0.000    0.000 
#    0.000    0.000    0.000    0.000    0.000    0.000 
#
# Total GULP energy -201079.101491 kJ/mol
# GULP energy per Si atom -5585.530597 kJ/mol
# Density = 2.106700 g / cm^3
# Si number density = 21.115064 Si / 1000 Ang^3
#
#
#
# Elastic Constant Matrix: (Units=GPa)
#
#
# Indices 1 2 3 4 5 6 
#
# 1 59.4238 34.8517 16.2541 0.0000 0.0000 0.0000
# 2 34.8517 59.4238 16.2541 0.0000 0.0000 0.0000
# 3 16.2541 16.2541 151.6935 0.0000 0.0000 0.0000
# 4 0.0000 0.0000 0.0000 56.3718 0.0000 0.0000
# 5 0.0000 0.0000 0.0000 0.0000 56.3718 0.0000
# 6 0.0000 0.0000 0.0000 0.0000 0.0000 -2.1982
#
#
#
# Elastic Compliance Matrix: (Units=1/GPa)
#
#
# Indices 1 2 3 4 5 6 
#
# 1 0.025855 -0.014841 -0.001180 0.000000 0.000000 0.000000
# 2 -0.014841 0.025855 -0.001180 0.000000 0.000000 0.000000
# 3 -0.001180 -0.001180 0.006845 0.000000 0.000000 0.000000
# 4 0.000000 0.000000 0.000000 0.017739 0.000000 0.000000
# 5 0.000000 0.000000 0.000000 0.000000 0.017739 0.000000
# 6 0.000000 0.000000 0.000000 0.000000 0.000000 -0.454908
#
#
# Mechanical properties :
#
#
# Convention : Reuss Voigt Hill
#
# Bulk Modulus (GPa) = 41.40308 45.02895 43.21602
# Shear Modulus (GPa) = -15.70254 35.65447 9.97596
#
# Velocity S-wave (km/s) = -2.72998 4.11369 2.17597
# Velocity P-wave (km/s) = 3.11670 6.62835 5.17923
#
# Compressibility (1/GPa) = 0.02415279
#
# Stress axis : x y z
#
# Youngs Moduli (GPa) = 38.67670 38.67670 146.08872
#
# Poissons Ratio (x) = 0.57401 0.17241
# Poissons Ratio (y) = 0.57401 0.17241
# Poissons Ratio (z) = 0.04565 0.04565
#
# Static dielectric constant tensor:
#      x y z
#    x 1.713010 0.000000 0.000000 
#    y 0.000000 1.713010 0.000000 
#    z 0.000000 0.000000 1.781970 
# 
# From -- ./inp_files/4704.got.cif
#   From: 2010.05.17/outbox.cif.g08.bks.cpg/sg112_3_cif.got.tgz:4704.got - 2010.05.20 10:59:04.
