data_PCOD9555108
_publ_section_title
;
Structure prediction by ZEFSAII (Michael W. Deem and Ramdas Pophale) SiO2 
 PCOD9555108
Probable space group: P -4 2 C
;
_chemical_formula_sum "Si O2"
_cell_formula_units_Z 56
_cell_length_a 12.037416
_cell_length_b 12.037416
_cell_length_c 18.058462
_cell_angle_alpha 90.000000
_cell_angle_beta 90.000000
_cell_angle_gamma 90.000000
_cell_volume 2616.660019
_symmetry_space_group_name_H-M "P -4 2 C"
_symmetry_group_IT_number 112
_symmetry_cell_setting 'tetragonal'
loop_
_space_group_symop_operation_xyz
x,y,z
y,-x,-z
-x,-y,z
-y,x,-z
x,-y,1/2-z
-x,y,1/2-z
-y,-x,1/2+z
y,x,1/2+z
loop_
_atom_site_type_symbol
_atom_site_label
_atom_site_fract_x
_atom_site_fract_y
_atom_site_fract_z
Si Si1 0.625395 0.834304 0.518080
Si Si2 0.824902 0.032364 0.021984
Si Si3 0.525696 0.162824 0.379854
Si Si4 0.612232 0.376377 0.536531
Si Si5 0.698392 0.734305 0.659601
Si Si6 0.052043 0.261114 0.670337
Si Si7 0.337110 0.395826 0.798864
O O1 0.709944 0.935757 0.516158
O O2 0.525671 0.859852 0.460550
O O3 0.688166 0.725866 0.481227
O O4 0.616769 0.797831 0.604028
O O5 0.797542 0.020327 0.108262
O O6 0.916996 0.124581 0.005841
O O7 0.613649 0.267326 0.376135
O O8 0.428587 0.210620 0.326034
O O9 0.392379 0.932398 0.350316
O O10 0.495380 0.354093 0.499151
O O11 0.598624 0.381453 0.624562
O O12 0.821874 0.786533 0.665386
O O13 0.659384 0.706330 0.742349
O O14 0.000000 0.249470 0.750000
O O15 0.375518 0.500000 0.750000
#
# Coordination Sequence:
#
# PCOD9555108 Si02
#       7
#     8   8   8   8   8   8   8
#     4  11  19  37  60  83 131 170 207 258 321 395
#     4  11  24  43  62  89 126 165 215 261 328 422
#     4   8  19  33  56  95 126 162 201 264 325 379
#     4  10  21  35  57  89 125 175 218 255 315 394
#     4   9  19  36  55  92 125 166 202 257 334 381
#     4  10  22  39  64  98 128 158 215 277 348 383
#     4   9  16  32  53  81 128 158 202 257 303 366
#
# _framework density 21.401329
#
# number of rings (size 3 to 8) (size 9 to 14) (size 15 to 20)
#    0.857    1.429    1.429    2.571    4.000    0.571 
#    2.571    6.429    0.000    0.000    0.000    0.000 
#    0.000    0.000    0.000    0.000    0.000    0.000 
#
# Total GULP energy -311909.447079 kJ/mol
# GULP energy per Si atom -5569.811555 kJ/mol
# Density = 2.135262 g / cm^3
# Si number density = 21.401329 Si / 1000 Ang^3
#
#
#
# Elastic Constant Matrix: (Units=GPa)
#
#
# Indices 1 2 3 4 5 6 
#
# 1 39.3196 20.5997 39.2921 0.0000 0.0000 0.0000
# 2 20.5997 39.3196 39.2921 0.0000 0.0000 0.0000
# 3 39.2921 39.2921 200.0568 0.0000 0.0000 0.0000
# 4 0.0000 0.0000 0.0000 24.7819 0.0000 0.0000
# 5 0.0000 0.0000 0.0000 0.0000 24.7819 0.0000
# 6 0.0000 0.0000 0.0000 0.0000 0.0000 26.1559
#
#
#
# Elastic Compliance Matrix: (Units=1/GPa)
#
#
# Indices 1 2 3 4 5 6 
#
# 1 0.037949 -0.015470 -0.004415 0.000000 0.000000 0.000000
# 2 -0.015470 0.037949 -0.004415 0.000000 0.000000 0.000000
# 3 -0.004415 -0.004415 0.006733 0.000000 0.000000 0.000000
# 4 0.000000 0.000000 0.000000 0.040352 0.000000 0.000000
# 5 0.000000 0.000000 0.000000 0.000000 0.040352 0.000000
# 6 0.000000 0.000000 0.000000 0.000000 0.000000 0.038232
#
#
# Mechanical properties :
#
#
# Convention : Reuss Voigt Hill
#
# Bulk Modulus (GPa) = 29.38456 53.00709 41.19582
# Shear Modulus (GPa) = 19.11961 27.11141 23.11551
#
# Velocity S-wave (km/s) = 2.99220 3.56309 3.29005
# Velocity P-wave (km/s) = 5.06929 6.46138 5.80720
#
# Compressibility (1/GPa) = 0.03403148
#
# Stress axis : x y z
#
# Youngs Moduli (GPa) = 26.35096 26.35096 148.52532
#
# Poissons Ratio (x) = 0.40765 0.65575
# Poissons Ratio (y) = 0.40765 0.65575
# Poissons Ratio (z) = 0.11634 0.11634
#
# Static dielectric constant tensor:
#      x y z
#    x 1.867600 0.000000 0.000000 
#    y 0.000000 1.867600 0.000000 
#    z 0.000000 0.000000 1.809610 
# 
# From -- ./inp_files/3429.got.cif
#   From: 2010.05.17/outbox.cif.g08.bks.cpg/sg112_2_cif.got.tgz:3429.got - 2010.05.20 10:59:04.
