data_PCOD9555781
_publ_section_title
;
Structure prediction by ZEFSAII (Michael W. Deem and Ramdas Pophale) SiO2 
 PCOD9555781
Probable space group: P -4 21 M 
;
_chemical_formula_sum "Si O2"
_cell_formula_units_Z 52
_cell_length_a 16.918264
_cell_length_b 16.918264
_cell_length_c 8.895759
_cell_angle_alpha 90.000000
_cell_angle_beta 90.000000
_cell_angle_gamma 90.000000
_cell_volume 2546.212254
_symmetry_space_group_name_H-M "P -4 21 M "
_symmetry_group_IT_number 113
_symmetry_cell_setting 'tetragonal'
loop_
_space_group_symop_operation_xyz
x,y,z
y,-x,-z
-x,-y,z
-y,x,-z
1/2+x,1/2-y,-z
1/2-x,1/2+y,-z
1/2-y,1/2-x,z
1/2+y,1/2+x,z
loop_
_atom_site_type_symbol
_atom_site_label
_atom_site_fract_x
_atom_site_fract_y
_atom_site_fract_z
Si Si1 0.181617 0.442734 0.667589
Si Si2 0.529808 0.338271 0.139748
Si Si3 0.883271 0.383271 0.643747
Si Si4 0.346856 0.358609 0.116437
Si Si5 0.844104 0.905433 0.656844
Si Si6 0.201869 0.916377 0.588074
Si Si7 0.180048 0.680048 0.314014
Si Si8 0.817794 0.317794 0.972658
O O1 0.124189 0.375812 0.730616
O O2 0.256937 0.461377 0.769996
O O3 0.135652 0.524131 0.644235
O O4 0.220548 0.413258 0.512879
O O5 0.440189 0.365123 0.148188
O O6 0.591280 0.399963 0.212069
O O7 0.564203 0.322911 0.975923
O O8 0.850962 0.350962 0.480049
O O9 0.850487 0.350487 0.808571
O O10 0.298198 0.359957 0.269501
O O11 0.333560 0.276024 0.032978
O O12 0.889287 0.873146 0.510636
O O13 0.772068 0.844357 0.682926
O O14 0.811019 0.992654 0.634344
O O15 0.153324 0.653324 0.141170
#
# Coordination Sequence:
#
# PCOD9555781 Si02
#       8
#     8   8   4   8   8   8   4   4
#     4  11  25  44  69 102 136 177 239 292 354 416
#     4  11  25  42  66  99 135 185 221 289 348 419
#     4  12  23  48  78  96 142 186 231 294 361 414
#     4  12  25  42  66 100 139 177 236 284 357 414
#     4  11  23  41  62  93 134 174 226 282 342 404
#     4  11  24  39  65  97 131 179 228 282 339 424
#     4  12  24  45  71 101 134 181 235 293 334 419
#     4  12  26  45  73 105 132 187 236 288 343 429
#
# _framework density 20.422491000000001
#
# number of rings (size 3 to 8) (size 9 to 14) (size 15 to 20)
#    0.000    0.615    4.615    3.923    6.462    3.692 
#    0.000    0.000    0.000    0.923    0.000    0.000 
#    0.000    0.000    0.000    0.000    0.000    0.000 
#
# Total GULP energy -290293.578099 kJ/mol
# GULP energy per Si atom -5582.568810 kJ/mol
# Density = 2.037601 g / cm^3
# Si number density = 20.422491 Si / 1000 Ang^3
#
#
#
# Elastic Constant Matrix: (Units=GPa)
#
#
# Indices 1 2 3 4 5 6 
#
# 1 6.4697 55.0561 6.4183 0.0000 0.0000 0.0000
# 2 55.0561 6.4948 6.4269 0.0000 0.0000 0.0000
# 3 6.4183 6.4269 107.5786 0.0000 0.0000 0.0000
# 4 0.0000 0.0000 0.0000 13.4785 0.0000 0.0000
# 5 0.0000 0.0000 0.0000 0.0000 13.4781 0.0000
# 6 0.0000 0.0000 0.0000 0.0000 0.0000 27.7743
#
#
#
# Elastic Compliance Matrix: (Units=1/GPa)
#
#
# Indices 1 2 3 4 5 6 
#
# 1 -0.002070 0.018521 -0.000983 0.000000 0.000000 0.000000
# 2 0.018521 -0.002062 -0.000982 0.000000 0.000000 0.000000
# 3 -0.000983 -0.000982 0.009413 0.000000 0.000000 0.000000
# 4 0.000000 0.000000 0.000000 0.074192 0.000000 0.000000
# 5 0.000000 0.000000 0.000000 0.000000 0.074195 0.000000
# 6 0.000000 0.000000 0.000000 0.000000 0.000000 0.036005
#
#
# Mechanical properties :
#
#
# Convention : Reuss Voigt Hill
#
# Bulk Modulus (GPa) = 26.04612 28.48286 27.26449
# Shear Modulus (GPa) = 29.52343 14.45562 21.98953
#
# Velocity S-wave (km/s) = 3.80627 2.66339 3.28492
# Velocity P-wave (km/s) = 5.66553 4.84100 5.26942
#
# Compressibility (1/GPa) = 0.03839343
#
# Stress axis : x y z
#
# Youngs Moduli (GPa) = -483.06255 -484.96954 106.23792
#
# Poissons Ratio (x) = 8.98219 0.10443
# Poissons Ratio (y) = 8.94687 0.10431
# Poissons Ratio (z) = -0.47484 -0.47615
#
# Static dielectric constant tensor:
#      x y z
#    x 1.688710 0.000000 0.000000 
#    y 0.000000 1.688710 0.000000 
#    z 0.000000 0.000000 1.830610 
# 
# From -- ./inp_files/1293.got.cif
#   From: 2010.05.17/outbox.cif.g08.bks.cpg/sg113_cif.got.tgz:1293.got - 2010.05.20 11:03:00.
