data_PCOD9555662
_publ_section_title
;
Structure prediction by ZEFSAII (Michael W. Deem and Ramdas Pophale) SiO2 
 PCOD9555662
Probable space group: P -4 21 M 
;
_chemical_formula_sum "Si O2"
_cell_formula_units_Z 48
_cell_length_a 12.402715
_cell_length_b 12.402715
_cell_length_c 18.364088
_cell_angle_alpha 90.000000
_cell_angle_beta 90.000000
_cell_angle_gamma 90.000000
_cell_volume 2824.898797
_symmetry_space_group_name_H-M "P -4 21 M "
_symmetry_group_IT_number 113
_symmetry_cell_setting 'tetragonal'
loop_
_space_group_symop_operation_xyz
x,y,z
y,-x,-z
-x,-y,z
-y,x,-z
1/2+x,1/2-y,-z
1/2-x,1/2+y,-z
1/2-y,1/2-x,z
1/2+y,1/2+x,z
loop_
_atom_site_type_symbol
_atom_site_label
_atom_site_fract_x
_atom_site_fract_y
_atom_site_fract_z
Si Si1 0.967025 0.832624 0.474410
Si Si2 0.008569 0.673648 0.093196
Si Si3 0.664704 0.466446 0.972503
Si Si4 0.576850 0.604811 0.328556
Si Si5 0.996036 0.677769 0.598396
Si Si6 0.647742 0.331027 0.830339
O O1 0.924776 0.836990 0.392079
O O2 0.084668 0.888303 0.481917
O O3 0.973046 0.720872 0.516709
O O4 0.113672 0.613672 0.123018
O O5 0.915219 0.584782 0.086412
O O6 0.958649 0.767500 0.142406
O O7 0.033379 0.723037 0.014346
O O8 0.667698 0.423762 0.890474
O O9 0.584176 0.387391 0.017281
O O10 0.500000 0.500000 0.324909
O O11 0.516997 0.713471 0.355850
O O12 0.626041 0.629027 0.250213
O O13 0.101435 0.601435 0.600327
O O14 0.895743 0.604258 0.623030
O O15 0.746966 0.246966 0.832343
#
# Coordination Sequence:
#
# PCOD9555662 Si02
#       6
#     8   8   8   8   8   8
#     4   9  16  35  55  81 103 142 184 221 265 320
#     4   9  18  34  54  76 106 142 181 230 280 324
#     4   9  18  32  54  78 102 138 181 227 274 320
#     4  11  21  37  58  79 115 151 186 221 273 335
#     4  10  21  37  59  86 113 143 184 236 285 326
#     4  10  21  34  54  81 108 145 181 225 276 328
#
# _framework density 16.991759999999999
#
# number of rings (size 3 to 8) (size 9 to 14) (size 15 to 20)
#    0.000    2.333    3.333    1.000    4.667    4.000 
#    0.000    2.500    0.000    5.000    0.000    0.000 
#    0.000    0.000    0.000    0.000    0.000    0.000 
#
# Total GULP energy -267408.023676 kJ/mol
# GULP energy per Si atom -5571.000493 kJ/mol
# Density = 1.695309 g / cm^3
# Si number density = 16.991760 Si / 1000 Ang^3
#
#
#
# Elastic Constant Matrix: (Units=GPa)
#
#
# Indices 1 2 3 4 5 6 
#
# 1 61.0673 20.3657 31.2522 0.0000 0.0000 0.0000
# 2 20.3657 61.0650 31.2517 0.0000 0.0000 0.0000
# 3 31.2522 31.2517 142.8572 0.0000 0.0000 0.0000
# 4 0.0000 0.0000 0.0000 14.1284 0.0000 0.0000
# 5 0.0000 0.0000 0.0000 0.0000 14.1276 0.0000
# 6 0.0000 0.0000 0.0000 0.0000 0.0000 7.8109
#
#
#
# Elastic Compliance Matrix: (Units=1/GPa)
#
#
# Indices 1 2 3 4 5 6 
#
# 1 0.019664 -0.004906 -0.003229 0.000000 0.000000 0.000000
# 2 -0.004906 0.019664 -0.003229 0.000000 0.000000 0.000000
# 3 -0.003229 -0.003229 0.008413 0.000000 0.000000 0.000000
# 4 0.000000 0.000000 0.000000 0.070780 0.000000 0.000000
# 5 0.000000 0.000000 0.000000 0.000000 0.070784 0.000000
# 6 0.000000 0.000000 0.000000 0.000000 0.000000 0.128026
#
#
# Mechanical properties :
#
#
# Convention : Reuss Voigt Hill
#
# Bulk Modulus (GPa) = 39.97611 47.85874 43.91743
# Shear Modulus (GPa) = 14.35157 19.35469 16.85313
#
# Velocity S-wave (km/s) = 2.90939 3.37866 3.15277
# Velocity P-wave (km/s) = 5.90456 6.59147 6.25745
#
# Compressibility (1/GPa) = 0.02501494
#
# Stress axis : x y z
#
# Youngs Moduli (GPa) = 50.85526 50.85323 118.86941
#
# Poissons Ratio (x) = 0.24947 0.38378
# Poissons Ratio (y) = 0.24948 0.38379
# Poissons Ratio (z) = 0.16419 0.16419
#
# Static dielectric constant tensor:
#      x y z
#    x 1.590080 0.000000 0.000000 
#    y 0.000000 1.590080 0.000000 
#    z 0.000000 0.000000 1.565060 
# 
# From -- ./inp_files/2444.got.cif
#   From: 2010.05.17/outbox.cif.g08.bks.cpg/sg113_cif.got.tgz:2444.got - 2010.05.20 11:03:00.
