data_PCOD9555336
_publ_section_title
;
Structure prediction by ZEFSAII (Michael W. Deem and Ramdas Pophale) SiO2 
 PCOD9555336
Probable space group: P -4 2 C
;
_chemical_formula_sum "Si O2"
_cell_formula_units_Z 46
_cell_length_a 11.758603
_cell_length_b 11.758603
_cell_length_c 17.261454
_cell_angle_alpha 90.000000
_cell_angle_beta 90.000000
_cell_angle_gamma 90.000000
_cell_volume 2386.650527
_symmetry_space_group_name_H-M "P -4 2 C"
_symmetry_group_IT_number 112
_symmetry_cell_setting 'tetragonal'
loop_
_space_group_symop_operation_xyz
x,y,z
y,-x,-z
-x,-y,z
-y,x,-z
x,-y,1/2-z
-x,y,1/2-z
-y,-x,1/2+z
y,x,1/2+z
loop_
_atom_site_type_symbol
_atom_site_label
_atom_site_fract_x
_atom_site_fract_y
_atom_site_fract_z
Si Si1 0.673125 0.173125 0.783482
Si Si2 0.500000 0.500000 0.500000
Si Si3 0.491869 0.723016 0.911209
Si Si4 0.753507 0.253507 0.635566
Si Si5 0.776984 0.991869 0.588791
Si Si6 0.000000 0.000000 0.500000
Si Si7 0.500000 0.000000 0.750000
Si Si8 0.909252 0.590748 0.967682
O O1 0.588067 0.242654 0.838934
O O2 0.749668 0.249668 0.728714
O O3 0.742654 0.088068 0.838934
O O4 0.594317 0.094317 0.725823
O O5 0.456181 0.397349 0.553042
O O6 0.624933 0.716938 0.890691
O O7 0.472084 0.819532 0.975854
O O8 0.840441 0.340441 0.596873
O O9 0.783062 0.124933 0.609309
O O10 0.897349 0.956181 0.553042
O O11 0.680468 0.972084 0.524147
O O12 0.000000 0.500000 0.937716
#
# Coordination Sequence:
#
# PCOD9555336 Si02
#       8
#     8   2   8   8   8   2   2   8
#     4  11  22  37  63 103 130 169 214 272 330 377
#     4  12  24  40  62  96 128 172 226 260 316 388
#     4  11  22  38  64  97 130 168 217 274 318 377
#     4  12  20  39  64  94 133 169 211 267 330 376
#     4  11  22  38  64  97 130 168 217 274 318 377
#     4  12  24  40  62  96 128 172 226 260 316 388
#     4  12  16  32  68  96 136 148 216 274 312 372
#     4  11  23  37  65 101 134 168 216 268 326 397
#
# _framework density 19.273873999999999
#
# number of rings (size 3 to 8) (size 9 to 14) (size 15 to 20)
#    0.000    0.696    8.696    0.000    2.435    0.000 
#    0.000    3.478    0.000    0.000    9.043    0.000 
#    0.000    0.000    0.000    0.000    0.000    0.000 
#
# Total GULP energy -256500.866596 kJ/mol
# GULP energy per Si atom -5576.105796 kJ/mol
# Density = 1.923001 g / cm^3
# Si number density = 19.273874 Si / 1000 Ang^3
#
#
#
# Elastic Constant Matrix: (Units=GPa)
#
#
# Indices 1 2 3 4 5 6 
#
# 1 97.5166 51.3617 61.0985 0.0000 0.0000 0.0000
# 2 51.3617 97.5166 61.0985 0.0000 0.0000 0.0000
# 3 61.0985 61.0985 111.9885 0.0000 0.0000 0.0000
# 4 0.0000 0.0000 0.0000 17.4403 0.0000 0.0000
# 5 0.0000 0.0000 0.0000 0.0000 17.4403 0.0000
# 6 0.0000 0.0000 0.0000 0.0000 0.0000 40.5510
#
#
#
# Elastic Compliance Matrix: (Units=1/GPa)
#
#
# Indices 1 2 3 4 5 6 
#
# 1 0.016915 -0.004751 -0.006636 0.000000 0.000000 0.000000
# 2 -0.004751 0.016915 -0.006636 0.000000 0.000000 0.000000
# 3 -0.006636 -0.006636 0.016171 0.000000 0.000000 0.000000
# 4 0.000000 0.000000 0.000000 0.057338 0.000000 0.000000
# 5 0.000000 0.000000 0.000000 0.000000 0.057338 0.000000
# 6 0.000000 0.000000 0.000000 0.000000 0.000000 0.024660
#
#
# Mechanical properties :
#
#
# Convention : Reuss Voigt Hill
#
# Bulk Modulus (GPa) = 71.66833 72.68214 72.17523
# Shear Modulus (GPa) = 21.73564 23.98385 22.85975
#
# Velocity S-wave (km/s) = 3.36181 3.53139 3.44764
# Velocity P-wave (km/s) = 7.23422 7.37697 7.30594
#
# Compressibility (1/GPa) = 0.01395317
#
# Stress axis : x y z
#
# Youngs Moduli (GPa) = 59.11886 59.11886 61.83972
#
# Poissons Ratio (x) = 0.28088 0.41039
# Poissons Ratio (y) = 0.28088 0.41039
# Poissons Ratio (z) = 0.39234 0.39234
#
# Static dielectric constant tensor:
#      x y z
#    x 1.675280 0.000000 0.000000 
#    y 0.000000 1.675280 0.000000 
#    z 0.000000 0.000000 1.685840 
# 
# From -- ./inp_files/4193.got.cif
#   From: 2010.05.17/outbox.cif.g08.bks.cpg/sg112_3_cif.got.tgz:4193.got - 2010.05.20 10:59:04.
