data_PCOD9555495
_publ_section_title
;
Structure prediction by ZEFSAII (Michael W. Deem and Ramdas Pophale) SiO2 
 PCOD9555495
Probable space group: P -4 21 M 
;
_chemical_formula_sum "Si O2"
_cell_formula_units_Z 56
_cell_length_a 11.388627
_cell_length_b 11.388627
_cell_length_c 22.342719
_cell_angle_alpha 90.000000
_cell_angle_beta 90.000000
_cell_angle_gamma 90.000000
_cell_volume 2897.869086
_symmetry_space_group_name_H-M "P -4 21 M "
_symmetry_group_IT_number 113
_symmetry_cell_setting 'tetragonal'
loop_
_space_group_symop_operation_xyz
x,y,z
y,-x,-z
-x,-y,z
-y,x,-z
1/2+x,1/2-y,-z
1/2-x,1/2+y,-z
1/2-y,1/2-x,z
1/2+y,1/2+x,z
loop_
_atom_site_type_symbol
_atom_site_label
_atom_site_fract_x
_atom_site_fract_y
_atom_site_fract_z
Si Si1 0.186120 0.037736 0.009894
Si Si2 0.067701 0.249370 0.425282
Si Si3 0.809764 0.491168 0.110988
Si Si4 0.874452 0.956796 0.344788
Si Si5 0.369721 0.323059 0.141642
Si Si6 0.675776 0.644556 0.556114
Si Si7 0.495600 0.803458 0.239376
O O1 0.211561 0.088837 0.074936
O O2 0.088058 0.124317 0.982245
O O3 0.284597 0.023804 0.959882
O O4 0.121563 0.378438 0.423305
O O5 0.111756 0.175949 0.367876
O O6 0.116793 0.189031 0.486141
O O7 0.929309 0.234813 0.431470
O O8 0.908167 0.591834 0.118367
O O9 0.689036 0.546701 0.138107
O O10 0.870071 0.370071 0.133302
O O11 0.769483 0.983692 0.299951
O O12 0.854355 0.031926 0.404987
O O13 0.000000 0.000000 0.319353
O O14 0.262807 0.237194 0.158672
O O15 0.473692 0.289764 0.186843
O O16 0.797119 0.702882 0.576174
O O17 0.592892 0.907109 0.236190
O O18 0.370400 0.870400 0.235647
#
# Coordination Sequence:
#
# PCOD9555495 Si02
#       7
#     8   8   8   8   8   8   8
#     4   9  17  30  48  75 105 139 171 217 275 331
#     4  10  19  32  52  77 106 140 176 216 267 319
#     4   9  17  30  50  75 103 136 178 225 275 333
#     4  10  20  35  57  78 106 143 180 222 267 327
#     4   9  18  33  53  75 106 141 179 223 270 323
#     4  10  19  32  52  77 108 139 172 217 264 318
#     4  10  21  38  58  81 111 147 187 231 277 328
#
# _framework density 19.324543999999999
#
# number of rings (size 3 to 8) (size 9 to 14) (size 15 to 20)
#    0.000    2.429    1.429    1.286    0.000    1.429 
#    5.143    1.429    0.000    3.429    0.000    4.000 
#    0.000    0.000    0.000    0.000    0.000    0.000 
#
# Total GULP energy -311844.023475 kJ/mol
# GULP energy per Si atom -5568.643276 kJ/mol
# Density = 1.928056 g / cm^3
# Si number density = 19.324544 Si / 1000 Ang^3
#
#
#
# Elastic Constant Matrix: (Units=GPa)
#
#
# Indices 1 2 3 4 5 6 
#
# 1 56.2283 3.4207 24.3380 0.0000 0.0000 0.0000
# 2 3.4207 56.2301 24.3419 0.0000 0.0000 0.0000
# 3 24.3380 24.3419 52.8867 0.0000 0.0000 0.0000
# 4 0.0000 0.0000 0.0000 20.3747 0.0000 0.0000
# 5 0.0000 0.0000 0.0000 0.0000 20.3751 0.0000
# 6 0.0000 0.0000 0.0000 0.0000 0.0000 23.4663
#
#
#
# Elastic Compliance Matrix: (Units=1/GPa)
#
#
# Indices 1 2 3 4 5 6 
#
# 1 0.022892 0.003956 -0.012356 0.000000 0.000000 0.000000
# 2 0.003956 0.022893 -0.012357 0.000000 0.000000 0.000000
# 3 -0.012356 -0.012357 0.030282 0.000000 0.000000 0.000000
# 4 0.000000 0.000000 0.000000 0.049080 0.000000 0.000000
# 5 0.000000 0.000000 0.000000 0.000000 0.049080 0.000000
# 6 0.000000 0.000000 0.000000 0.000000 0.000000 0.042614
#
#
# Mechanical properties :
#
#
# Convention : Reuss Voigt Hill
#
# Bulk Modulus (GPa) = 28.94093 29.94959 29.44526
# Shear Modulus (GPa) = 18.52729 20.39286 19.46008
#
# Velocity S-wave (km/s) = 3.09972 3.25204 3.17679
# Velocity P-wave (km/s) = 5.27444 5.44361 5.35969
#
# Compressibility (1/GPa) = 0.03455315
#
# Stress axis : x y z
#
# Youngs Moduli (GPa) = 43.68349 43.68173 33.02302
#
# Poissons Ratio (x) = -0.17281 0.40802
# Poissons Ratio (y) = -0.17281 0.40808
# Poissons Ratio (z) = 0.53973 0.53979
#
# Static dielectric constant tensor:
#      x y z
#    x 1.696130 0.000000 0.000000 
#    y 0.000000 1.696130 0.000000 
#    z 0.000000 0.000000 1.654870 
# 
# From -- ./inp_files/2689.got.cif
#   From: 2010.05.17/outbox.cif.g08.bks.cpg/sg113_cif.got.tgz:2689.got - 2010.05.20 11:03:00.
