data_PCOD9555477
_publ_section_title
;
Structure prediction by ZEFSAII (Michael W. Deem and Ramdas Pophale) SiO2 
 PCOD9555477
Probable space group: P -4 21 M 
;
_chemical_formula_sum "Si O2"
_cell_formula_units_Z 48
_cell_length_a 10.809618
_cell_length_b 10.809618
_cell_length_c 19.665633
_cell_angle_alpha 90.000000
_cell_angle_beta 90.000000
_cell_angle_gamma 90.000000
_cell_volume 2297.886764
_symmetry_space_group_name_H-M "P -4 21 M "
_symmetry_group_IT_number 113
_symmetry_cell_setting 'tetragonal'
loop_
_space_group_symop_operation_xyz
x,y,z
y,-x,-z
-x,-y,z
-y,x,-z
1/2+x,1/2-y,-z
1/2-x,1/2+y,-z
1/2-y,1/2-x,z
1/2+y,1/2+x,z
loop_
_atom_site_type_symbol
_atom_site_label
_atom_site_fract_x
_atom_site_fract_y
_atom_site_fract_z
Si Si1 0.549389 0.247802 0.073726
Si Si2 0.488377 0.201836 0.217469
Si Si3 0.747803 0.950612 0.926259
Si Si4 0.859272 0.859250 0.526943
Si Si5 0.855964 0.855946 0.687566
Si Si6 0.488376 0.798164 0.782511
O O1 0.615631 0.115631 0.064346
O O2 0.464504 0.243261 0.139893
O O3 0.654301 0.345695 0.093045
O O4 0.500010 0.282879 0.999991
O O5 0.372486 0.127515 0.244185
O O6 0.529272 0.305058 0.269713
O O7 0.603159 0.103159 0.211961
O O8 0.615633 0.884368 0.935640
O O9 0.743265 0.035484 0.860087
O O10 0.750013 0.749988 0.515330
O O11 0.874865 0.874825 0.608220
O O12 0.000010 0.827046 0.499995
O O13 0.750011 0.749990 0.691872
O O14 0.805057 0.970725 0.730267
O O15 0.603154 0.896847 0.788016
O O16 0.372478 0.872478 0.755798
#
# Coordination Sequence:
#
# PCOD9555477 Si02
#       6
#     8   8   8   8   8   8
#     4  10  19  31  48  71 104 146 196 252 305 361
#     4   9  16  28  50  80 113 151 198 254 312 365
#     4  10  19  31  48  71 104 146 196 252 305 361
#     4  10  23  43  70 103 141 181 223 272 333 406
#     4   9  17  33  57  88 121 156 200 254 314 379
#     4   9  16  28  50  80 113 151 198 254 312 365
#
# _framework density 20.888756999999998
#
# number of rings (size 3 to 8) (size 9 to 14) (size 15 to 20)
#    0.000    2.500    1.667    1.000    0.000    3.667 
#    0.000    3.333    7.333    0.000    0.000    0.000 
#    0.000    0.000    0.000    0.000    0.000    0.000 
#
# Total GULP energy -267446.548548 kJ/mol
# GULP energy per Si atom -5571.803095 kJ/mol
# Density = 2.084121 g / cm^3
# Si number density = 20.888757 Si / 1000 Ang^3
#
#
#
# Elastic Constant Matrix: (Units=GPa)
#
#
# Indices 1 2 3 4 5 6 
#
# 1 77.9339 60.6347 54.3559 0.0000 0.0000 0.0000
# 2 60.6347 77.9335 54.3559 0.0000 0.0000 0.0000
# 3 54.3559 54.3559 154.1250 0.0000 0.0000 0.0000
# 4 0.0000 0.0000 0.0000 16.6527 0.0000 0.0000
# 5 0.0000 0.0000 0.0000 0.0000 16.6527 0.0000
# 6 0.0000 0.0000 0.0000 0.0000 0.0000 40.3816
#
#
#
# Elastic Compliance Matrix: (Units=1/GPa)
#
#
# Indices 1 2 3 4 5 6 
#
# 1 0.033892 -0.023915 -0.003519 0.000000 0.000000 0.000000
# 2 -0.023915 0.033892 -0.003519 0.000000 0.000000 0.000000
# 3 -0.003519 -0.003519 0.008970 0.000000 0.000000 0.000000
# 4 0.000000 0.000000 0.000000 0.060050 0.000000 0.000000
# 5 0.000000 0.000000 0.000000 0.000000 0.060050 0.000000
# 6 0.000000 0.000000 0.000000 0.000000 0.000000 0.024764
#
#
# Mechanical properties :
#
#
# Convention : Reuss Voigt Hill
#
# Bulk Modulus (GPa) = 67.34124 72.07617 69.70871
# Shear Modulus (GPa) = 17.33262 24.11378 20.72320
#
# Velocity S-wave (km/s) = 2.88368 3.40132 3.15314
# Velocity P-wave (km/s) = 6.58752 7.07142 6.83376
#
# Compressibility (1/GPa) = 0.01484974
#
# Stress axis : x y z
#
# Youngs Moduli (GPa) = 29.50549 29.50527 111.48088
#
# Poissons Ratio (x) = 0.70562 0.39226
# Poissons Ratio (y) = 0.70562 0.39227
# Poissons Ratio (z) = 0.10382 0.10382
#
# Static dielectric constant tensor:
#      x y z
#    x 1.777250 0.000000 0.000000 
#    y 0.000000 1.777250 0.000000 
#    z 0.000000 0.000000 1.711290 
# 
# From -- ./inp_files/2506.got.cif
#   From: 2010.05.17/outbox.cif.g08.bks.cpg/sg113_cif.got.tgz:2506.got - 2010.05.20 11:03:00.
