data_PCOD9555173
_publ_section_title
;
Structure prediction by ZEFSAII (Michael W. Deem and Ramdas Pophale) SiO2 
 PCOD9555173
Probable space group: P -4 2 C
;
_chemical_formula_sum "Si O2"
_cell_formula_units_Z 32
_cell_length_a 11.314732
_cell_length_b 11.314732
_cell_length_c 9.669650
_cell_angle_alpha 90.000000
_cell_angle_beta 90.000000
_cell_angle_gamma 90.000000
_cell_volume 1237.939151
_symmetry_space_group_name_H-M "P -4 2 C"
_symmetry_group_IT_number 112
_symmetry_cell_setting 'tetragonal'
loop_
_space_group_symop_operation_xyz
x,y,z
y,-x,-z
-x,-y,z
-y,x,-z
x,-y,1/2-z
-x,y,1/2-z
-y,-x,1/2+z
y,x,1/2+z
loop_
_atom_site_type_symbol
_atom_site_label
_atom_site_fract_x
_atom_site_fract_y
_atom_site_fract_z
Si Si1 0.119417 0.846146 0.500610
Si Si2 0.870300 0.447240 0.111444
Si Si3 0.524406 0.329199 0.068601
Si Si4 0.763720 0.743625 0.772830
O O1 0.204661 0.795750 0.377379
O O2 0.122654 0.752942 0.627891
O O3 0.981861 0.853292 0.457997
O O4 0.812191 0.500000 0.250000
O O5 0.844027 0.313150 0.147095
O O6 0.000000 0.500000 0.104778
O O7 0.799556 0.487834 0.979842
O O8 0.618766 0.304020 0.192477
O O9 0.401674 0.402447 0.050299
#
# Coordination Sequence:
#
# PCOD9555173 Si02
#       4
#     8   8   8   8
#     4  11  25  43  67 102 143 187 244 305 381 456
#     4  10  22  38  66 102 137 189 245 295 370 453
#     4   9  20  42  67 102 149 193 244 305 381 458
#     4  11  23  41  71 102 139 190 237 302 373 457
#
# _framework density 25.849412000000001
#
# number of rings (size 3 to 8) (size 9 to 14) (size 15 to 20)
#    0.000    1.750    0.000    3.000   10.500    2.000 
#    0.000   27.500    0.000    1.500    0.000    0.000 
#    0.000    0.000    0.000    0.000    0.000    0.000 
#
# Total GULP energy -178216.864820 kJ/mol
# GULP energy per Si atom -5569.277026 kJ/mol
# Density = 2.579058 g / cm^3
# Si number density = 25.849412 Si / 1000 Ang^3
#
#
#
# Elastic Constant Matrix: (Units=GPa)
#
#
# Indices 1 2 3 4 5 6 
#
# 1 96.9510 21.1330 7.3112 0.0000 0.0000 0.0000
# 2 21.1330 96.9510 7.3112 0.0000 0.0000 0.0000
# 3 7.3112 7.3112 133.8450 0.0000 0.0000 0.0000
# 4 0.0000 0.0000 0.0000 -351.9448 0.0000 0.0000
# 5 0.0000 0.0000 0.0000 0.0000 -351.9448 0.0000
# 6 0.0000 0.0000 0.0000 0.0000 0.0000 -141.8417
#
#
#
# Elastic Compliance Matrix: (Units=1/GPa)
#
#
# Indices 1 2 3 4 5 6 
#
# 1 0.010858 -0.002332 -0.000466 0.000000 0.000000 0.000000
# 2 -0.002332 0.010858 -0.000466 0.000000 0.000000 0.000000
# 3 -0.000466 -0.000466 0.007522 0.000000 0.000000 0.000000
# 4 0.000000 0.000000 0.000000 -0.002841 0.000000 0.000000
# 5 0.000000 0.000000 0.000000 0.000000 -0.002841 0.000000
# 6 0.000000 0.000000 0.000000 0.000000 0.000000 -0.007050
#
#
# Mechanical properties :
#
#
# Convention : Reuss Voigt Hill
#
# Bulk Modulus (GPa) = 44.03018 44.36198 44.19608
# Shear Modulus (GPa) = 163.38862 -149.68017 6.85422
#
# Velocity S-wave (km/s) = 7.95896 -7.61777 1.63014
# Velocity P-wave (km/s) = 10.07623 7.75725 4.54728
#
# Compressibility (1/GPa) = 0.02271169
#
# Stress axis : x y z
#
# Youngs Moduli (GPa) = 92.09923 92.09923 132.93963
#
# Poissons Ratio (x) = 0.21474 0.06192
# Poissons Ratio (y) = 0.21474 0.06192
# Poissons Ratio (z) = 0.04289 0.04289
#
# Static dielectric constant tensor:
#      x y z
#    x 15.945910 0.000000 0.000000 
#    y 0.000000 15.945910 0.000000 
#    z 0.000000 0.000000 3.058230 
# 
# From -- ./inp_files/2231.got.cif
#   From: 2010.05.17/outbox.cif.g08.bks.cpg/sg112_2_cif.got.tgz:2231.got - 2010.05.20 10:59:04.
