data_PCOD9555351
_publ_section_title
;
Structure prediction by ZEFSAII (Michael W. Deem and Ramdas Pophale) SiO2 
 PCOD9555351
Probable space group: P -4 2 C
;
_chemical_formula_sum "Si O2"
_cell_formula_units_Z 32
_cell_length_a 8.088217
_cell_length_b 8.088217
_cell_length_c 23.252350
_cell_angle_alpha 90.000000
_cell_angle_beta 90.000000
_cell_angle_gamma 90.000000
_cell_volume 1521.151396
_symmetry_space_group_name_H-M "P -4 2 C"
_symmetry_group_IT_number 112
_symmetry_cell_setting 'tetragonal'
loop_
_space_group_symop_operation_xyz
x,y,z
y,-x,-z
-x,-y,z
-y,x,-z
x,-y,1/2-z
-x,y,1/2-z
-y,-x,1/2+z
y,x,1/2+z
loop_
_atom_site_type_symbol
_atom_site_label
_atom_site_fract_x
_atom_site_fract_y
_atom_site_fract_z
Si Si1 0.368329 0.260058 0.416924
Si Si2 0.817084 0.568940 0.045123
Si Si3 0.813912 0.570631 0.691127
Si Si4 0.082998 0.177214 0.611322
O O1 0.263570 0.428481 0.414623
O O2 0.437378 0.257784 0.481234
O O3 0.496627 0.270603 0.365214
O O4 0.285233 0.076856 0.409271
O O5 0.819055 0.758248 0.068577
O O6 0.000000 0.500000 0.038398
O O7 0.737558 0.500000 0.750000
O O8 0.845561 0.760075 0.673002
O O9 0.000000 0.500000 0.691953
O O10 0.000000 0.000000 0.615735
#
# Coordination Sequence:
#
# PCOD9555351 Si02
#       4
#     8   8   8   8
#     4  11  23  41  62  97 135 173 223 273 336 412
#     4  12  23  39  65  99 139 177 220 278 347 414
#     4   9  20  42  67  93 127 175 228 278 334 405
#     4  11  23  40  66  96 132 175 222 282 343 407
#
# _framework density 21.036697
#
# number of rings (size 3 to 8) (size 9 to 14) (size 15 to 20)
#    0.000    1.250    2.500    5.250    0.000    3.500 
#    0.000   12.500    0.000    1.500    0.000    0.000 
#    0.000    0.000    0.000    0.000    0.000    0.000 
#
# Total GULP energy -178260.639681 kJ/mol
# GULP energy per Si atom -5570.644990 kJ/mol
# Density = 2.098882 g / cm^3
# Si number density = 21.036697 Si / 1000 Ang^3
#
#
#
# Elastic Constant Matrix: (Units=GPa)
#
#
# Indices 1 2 3 4 5 6 
#
# 1 116.3641 44.6184 48.8252 0.0000 0.0000 0.0000
# 2 44.6184 116.3641 48.8252 0.0000 0.0000 0.0000
# 3 48.8252 48.8252 127.8655 0.0000 0.0000 0.0000
# 4 0.0000 0.0000 0.0000 13.7089 0.0000 0.0000
# 5 0.0000 0.0000 0.0000 0.0000 13.7089 0.0000
# 6 0.0000 0.0000 0.0000 0.0000 0.0000 15.0109
#
#
#
# Elastic Compliance Matrix: (Units=1/GPa)
#
#
# Indices 1 2 3 4 5 6 
#
# 1 0.011011 -0.002927 -0.003087 0.000000 0.000000 0.000000
# 2 -0.002927 0.011011 -0.003087 0.000000 0.000000 0.000000
# 3 -0.003087 -0.003087 0.010178 0.000000 0.000000 0.000000
# 4 0.000000 0.000000 0.000000 0.072946 0.000000 0.000000
# 5 0.000000 0.000000 0.000000 0.000000 0.072946 0.000000
# 6 0.000000 0.000000 0.000000 0.000000 0.000000 0.066618
#
#
# Mechanical properties :
#
#
# Convention : Reuss Voigt Hill
#
# Bulk Modulus (GPa) = 71.43362 71.68127 71.55745
# Shear Modulus (GPa) = 18.68613 23.04072 20.86342
#
# Velocity S-wave (km/s) = 2.98361 3.31307 3.15264
# Velocity P-wave (km/s) = 6.77493 6.98452 6.88052
#
# Compressibility (1/GPa) = 0.01399901
#
# Stress axis : x y z
#
# Youngs Moduli (GPa) = 90.81614 90.81614 98.24866
#
# Poissons Ratio (x) = 0.26581 0.30329
# Poissons Ratio (y) = 0.26581 0.30329
# Poissons Ratio (z) = 0.28035 0.28035
#
# Static dielectric constant tensor:
#      x y z
#    x 1.817850 0.000000 0.000000 
#    y 0.000000 1.817850 0.000000 
#    z 0.000000 0.000000 1.781440 
# 
# From -- ./inp_files/4506.got.cif
#   From: 2010.05.17/outbox.cif.g08.bks.cpg/sg112_3_cif.got.tgz:4506.got - 2010.05.20 10:59:04.
