data_PCOD9555312
_publ_section_title
;
Structure prediction by ZEFSAII (Michael W. Deem and Ramdas Pophale) SiO2 
 PCOD9555312
Probable space group: P -4 2 C
;
_chemical_formula_sum "Si O2"
_cell_formula_units_Z 34
_cell_length_a 9.372600
_cell_length_b 9.372600
_cell_length_c 20.872189
_cell_angle_alpha 90.000000
_cell_angle_beta 90.000000
_cell_angle_gamma 90.000000
_cell_volume 1833.530608
_symmetry_space_group_name_H-M "P -4 2 C"
_symmetry_group_IT_number 112
_symmetry_cell_setting 'tetragonal'
loop_
_space_group_symop_operation_xyz
x,y,z
y,-x,-z
-x,-y,z
-y,x,-z
x,-y,1/2-z
-x,y,1/2-z
-y,-x,1/2+z
y,x,1/2+z
loop_
_atom_site_type_symbol
_atom_site_label
_atom_site_fract_x
_atom_site_fract_y
_atom_site_fract_z
Si Si1 0.340914 0.225310 0.925421
Si Si2 0.503071 0.841745 0.447278
Si Si3 0.327015 0.010918 0.676508
Si Si4 0.629517 0.676253 0.639609
Si Si5 0.500000 0.500000 0.250000
O O1 0.224112 0.337780 0.950682
O O2 0.472457 0.307812 0.891547
O O3 0.282123 0.112694 0.873149
O O4 0.419928 0.150736 0.985069
O O5 0.417159 0.730591 0.404201
O O6 0.500000 0.000000 0.419202
O O7 0.302127 0.168416 0.649373
O O8 0.500000 0.000000 0.678997
O O9 0.275069 0.000000 0.750000
O O10 0.598952 0.600248 0.706761
#
# Coordination Sequence:
#
# PCOD9555312 Si02
#       5
#     8   8   8   8   2
#     4  11  21  40  63  90 122 162 204 267 318 380
#     4  12  24  38  61  93 126 158 204 264 326 378
#     4   9  19  36  62  90 120 159 211 256 303 374
#     4  11  21  36  62  91 120 160 207 259 312 371
#     4  12  20  32  66  96 120 160 220 266 316 368
#
# _framework density 18.543458999999999
#
# number of rings (size 3 to 8) (size 9 to 14) (size 15 to 20)
#    0.000    1.176    4.706    4.941    0.000    0.000 
#    0.000    1.765    0.000    1.412    0.000    0.000 
#    0.000    0.000    0.000    0.000    0.000    0.000 
#
# Total GULP energy -189754.352411 kJ/mol
# GULP energy per Si atom -5581.010365 kJ/mol
# Density = 1.850125 g / cm^3
# Si number density = 18.543459 Si / 1000 Ang^3
#
#
#
# Elastic Constant Matrix: (Units=GPa)
#
#
# Indices 1 2 3 4 5 6 
#
# 1 71.3954 33.0930 20.6245 0.0000 0.0000 0.0000
# 2 33.0930 71.3954 20.6245 0.0000 0.0000 0.0000
# 3 20.6245 20.6245 91.5918 0.0000 0.0000 0.0000
# 4 0.0000 0.0000 0.0000 37.4060 0.0000 0.0000
# 5 0.0000 0.0000 0.0000 0.0000 37.4060 0.0000
# 6 0.0000 0.0000 0.0000 0.0000 0.0000 5.8175
#
#
#
# Elastic Compliance Matrix: (Units=1/GPa)
#
#
# Indices 1 2 3 4 5 6 
#
# 1 0.018306 -0.007802 -0.002365 0.000000 0.000000 0.000000
# 2 -0.007802 0.018306 -0.002365 0.000000 0.000000 0.000000
# 3 -0.002365 -0.002365 0.011983 0.000000 0.000000 0.000000
# 4 0.000000 0.000000 0.000000 0.026734 0.000000 0.000000
# 5 0.000000 0.000000 0.000000 0.000000 0.026734 0.000000
# 6 0.000000 0.000000 0.000000 0.000000 0.000000 0.171896
#
#
# Mechanical properties :
#
#
# Convention : Reuss Voigt Hill
#
# Bulk Modulus (GPa) = 42.49824 42.56293 42.53058
# Shear Modulus (GPa) = 16.29369 26.79528 21.54448
#
# Velocity S-wave (km/s) = 2.96746 3.80544 3.41227
# Velocity P-wave (km/s) = 5.89144 6.50472 6.20566
#
# Compressibility (1/GPa) = 0.02353038
#
# Stress axis : x y z
#
# Youngs Moduli (GPa) = 54.62657 54.62657 83.44985
#
# Poissons Ratio (x) = 0.42619 0.19739
# Poissons Ratio (y) = 0.42619 0.19739
# Poissons Ratio (z) = 0.12921 0.12921
#
# Static dielectric constant tensor:
#      x y z
#    x 1.631180 0.000000 0.000000 
#    y 0.000000 1.631180 0.000000 
#    z 0.000000 0.000000 1.683820 
# 
# From -- ./inp_files/4654.got.cif
#   From: 2010.05.17/outbox.cif.g08.bks.cpg/sg112_3_cif.got.tgz:4654.got - 2010.05.20 10:59:04.
