data_PCOD9555073
_publ_section_title
;
Structure prediction by ZEFSAII (Michael W. Deem and Ramdas Pophale) SiO2 
 PCOD9555073
Probable space group: P -4 2 C
;
_chemical_formula_sum "Si O2"
_cell_formula_units_Z 38
_cell_length_a 13.259809
_cell_length_b 13.259809
_cell_length_c 9.062369
_cell_angle_alpha 90.000000
_cell_angle_beta 90.000000
_cell_angle_gamma 90.000000
_cell_volume 1593.368688
_symmetry_space_group_name_H-M "P -4 2 C"
_symmetry_group_IT_number 112
_symmetry_cell_setting 'tetragonal'
loop_
_space_group_symop_operation_xyz
x,y,z
y,-x,-z
-x,-y,z
-y,x,-z
x,-y,1/2-z
-x,y,1/2-z
-y,-x,1/2+z
y,x,1/2+z
loop_
_atom_site_type_symbol
_atom_site_label
_atom_site_fract_x
_atom_site_fract_y
_atom_site_fract_z
Si Si1 0.884692 0.693949 0.423580
Si Si2 0.624243 0.812753 0.396933
Si Si3 0.209754 0.214211 0.156863
Si Si4 0.461557 0.713854 0.590837
Si Si5 0.500000 0.500000 0.500000
Si Si6 0.500000 0.000000 0.474606
O O1 0.875857 0.763462 0.279311
O O2 0.888301 0.768357 0.564705
O O3 0.773742 0.640521 0.436506
O O4 0.952135 0.592992 0.430521
O O5 0.685289 0.780295 0.251784
O O6 0.703322 0.819227 0.532832
O O7 0.537350 0.741529 0.460087
O O8 0.562500 0.916923 0.383606
O O9 0.500000 0.750702 0.750000
O O10 0.460261 0.594217 0.593191
#
# Coordination Sequence:
#
# PCOD9555073 Si02
#       6
#     8   8   8   8   2   4
#     4  10  22  39  61  82 126 160 220 264 344 367
#     4  10  22  39  61  82 126 160 220 264 344 367
#     4  10  20  38  56  83 118 169 186 258 330 418
#     4  11  22  35  48  78 105 158 210 270 290 358
#     4  12  22  32  52  70 112 158 224 230 288 362
#     4  10  24  40  66 100 124 172 226 298 318 418
#
# _framework density 23.848839999999999
#
# number of rings (size 3 to 8) (size 9 to 14) (size 15 to 20)
#    0.000    1.684    2.105    2.842    0.000    6.737 
#    3.789    0.000    0.000    0.000    0.000    0.000 
#    0.000   58.947    0.000    0.000    0.000    0.000 
#
# Total GULP energy -211668.654065 kJ/mol
# GULP energy per Si atom -5570.227739 kJ/mol
# Density = 2.379456 g / cm^3
# Si number density = 23.848840 Si / 1000 Ang^3
#
#
#
# Elastic Constant Matrix: (Units=GPa)
#
#
# Indices 1 2 3 4 5 6 
#
# 1 87.4611 24.6549 27.9822 0.0000 0.0000 0.0000
# 2 24.6549 87.4611 27.9822 0.0000 0.0000 0.0000
# 3 27.9822 27.9822 142.1703 0.0000 0.0000 0.0000
# 4 0.0000 0.0000 0.0000 12.1584 0.0000 0.0000
# 5 0.0000 0.0000 0.0000 0.0000 12.1584 0.0000
# 6 0.0000 0.0000 0.0000 0.0000 0.0000 55.2532
#
#
#
# Elastic Compliance Matrix: (Units=1/GPa)
#
#
# Indices 1 2 3 4 5 6 
#
# 1 0.012907 -0.003015 -0.001947 0.000000 0.000000 0.000000
# 2 -0.003015 0.012907 -0.001947 0.000000 0.000000 0.000000
# 3 -0.001947 -0.001947 0.007800 0.000000 0.000000 0.000000
# 4 0.000000 0.000000 0.000000 0.082248 0.000000 0.000000
# 5 0.000000 0.000000 0.000000 0.000000 0.082248 0.000000
# 6 0.000000 0.000000 0.000000 0.000000 0.000000 0.018098
#
#
# Mechanical properties :
#
#
# Convention : Reuss Voigt Hill
#
# Bulk Modulus (GPa) = 50.51725 53.14791 51.83258
# Shear Modulus (GPa) = 21.13056 31.67887 26.40472
#
# Velocity S-wave (km/s) = 2.97984 3.64857 3.33103
# Velocity P-wave (km/s) = 5.75044 6.33112 6.04775
#
# Compressibility (1/GPa) = 0.01979522
#
# Stress axis : x y z
#
# Youngs Moduli (GPa) = 77.48009 77.48009 128.20256
#
# Poissons Ratio (x) = 0.23364 0.24958
# Poissons Ratio (y) = 0.23364 0.24958
# Poissons Ratio (z) = 0.15084 0.15084
#
# Static dielectric constant tensor:
#      x y z
#    x 2.010530 0.000000 0.000000 
#    y 0.000000 2.010530 0.000000 
#    z 0.000000 0.000000 2.016500 
# 
# From -- ./inp_files/1187.got.cif
#   From: 2010.05.17/outbox.cif.g08.bks.cpg/sg112_1_cif.got.tgz:1187.got - 2010.05.20 10:59:04.
