data_PCOD9555074
_publ_section_title
;
Structure prediction by ZEFSAII (Michael W. Deem and Ramdas Pophale) SiO2 
 PCOD9555074
Probable space group: P -4 2 C
;
_chemical_formula_sum "Si O2"
_cell_formula_units_Z 28
_cell_length_a 9.480245
_cell_length_b 9.480245
_cell_length_c 14.638406
_cell_angle_alpha 90.000000
_cell_angle_beta 90.000000
_cell_angle_gamma 90.000000
_cell_volume 1315.627402
_symmetry_space_group_name_H-M "P -4 2 C"
_symmetry_group_IT_number 112
_symmetry_cell_setting 'tetragonal'
loop_
_space_group_symop_operation_xyz
x,y,z
y,-x,-z
-x,-y,z
-y,x,-z
x,-y,1/2-z
-x,y,1/2-z
-y,-x,1/2+z
y,x,1/2+z
loop_
_atom_site_type_symbol
_atom_site_label
_atom_site_fract_x
_atom_site_fract_y
_atom_site_fract_z
Si Si1 0.828991 0.755009 0.824534
Si Si2 0.000000 0.000000 0.000000
Si Si3 0.500000 0.000000 0.250000
Si Si4 0.365879 0.305165 0.991973
Si Si5 0.855711 0.826068 0.626112
O O1 0.789954 0.825889 0.727175
O O2 0.892625 0.599748 0.804317
O O3 0.976086 0.823516 0.856658
O O4 0.705483 0.745787 0.897593
O O5 0.143547 0.955310 0.944585
O O6 0.307022 0.206543 0.072700
O O7 0.311857 0.465101 0.010618
#
# Coordination Sequence:
#
# PCOD9555074 Si02
#       5
#     8   2   2   8   8
#     4  10  20  38  59  89 120 168 209 259 310 378
#     4  12  20  42  64  96 122 172 212 282 320 384
#     4   8  16  32  60  80 116 158 216 246 298 376
#     4  11  23  39  62  96 133 168 212 264 317 380
#     4  10  22  39  63  90 124 162 214 261 317 383
#
# _framework density 21.282622
#
# number of rings (size 3 to 8) (size 9 to 14) (size 15 to 20)
#    0.000    2.000    2.857    3.429    0.000    3.429 
#    0.000    2.857    0.000    0.000    0.000    0.000 
#    0.000    0.000    0.000    0.000    0.000    0.000 
#
# Total GULP energy -155949.289463 kJ/mol
# GULP energy per Si atom -5569.617481 kJ/mol
# Density = 2.123418 g / cm^3
# Si number density = 21.282622 Si / 1000 Ang^3
#
#
#
# Elastic Constant Matrix: (Units=GPa)
#
#
# Indices 1 2 3 4 5 6 
#
# 1 42.0463 -1.6450 22.8703 0.0000 0.0000 0.0000
# 2 -1.6450 42.0463 22.8703 0.0000 0.0000 0.0000
# 3 22.8703 22.8703 164.1482 0.0000 0.0000 0.0000
# 4 0.0000 0.0000 0.0000 30.0900 0.0000 0.0000
# 5 0.0000 0.0000 0.0000 0.0000 30.0900 0.0000
# 6 0.0000 0.0000 0.0000 0.0000 0.0000 28.5669
#
#
#
# Elastic Compliance Matrix: (Units=1/GPa)
#
#
# Indices 1 2 3 4 5 6 
#
# 1 0.026138 0.003250 -0.004094 0.000000 0.000000 0.000000
# 2 0.003250 0.026138 -0.004094 0.000000 0.000000 0.000000
# 3 -0.004094 -0.004094 0.007233 0.000000 0.000000 0.000000
# 4 0.000000 0.000000 0.000000 0.033234 0.000000 0.000000
# 5 0.000000 0.000000 0.000000 0.000000 0.033234 0.000000
# 6 0.000000 0.000000 0.000000 0.000000 0.000000 0.035006
#
#
# Mechanical properties :
#
#
# Convention : Reuss Voigt Hill
#
# Bulk Modulus (GPa) = 20.14922 37.38133 28.76528
# Shear Modulus (GPa) = 26.68054 31.35907 29.01980
#
# Velocity S-wave (km/s) = 3.54451 3.84273 3.69663
# Velocity P-wave (km/s) = 5.12244 6.10665 5.63607
#
# Compressibility (1/GPa) = 0.04962970
#
# Stress axis : x y z
#
# Youngs Moduli (GPa) = 38.25911 38.25911 138.25539
#
# Poissons Ratio (x) = -0.12433 0.56608
# Poissons Ratio (y) = -0.12433 0.56608
# Poissons Ratio (z) = 0.15665 0.15665
#
# Static dielectric constant tensor:
#      x y z
#    x 1.824240 0.000000 0.000000 
#    y 0.000000 1.824240 0.000000 
#    z 0.000000 0.000000 2.627800 
# 
# From -- ./inp_files/2130.got.cif
#   From: 2010.05.17/outbox.cif.g08.bks.cpg/sg112_2_cif.got.tgz:2130.got - 2010.05.20 10:59:04.
