data_PCOD9555800
_publ_section_title
;
Structure prediction by ZEFSAII (Michael W. Deem and Ramdas Pophale) SiO2 
 PCOD9555800
Probable space group: P -4 21 M 
;
_chemical_formula_sum "Si O2"
_cell_formula_units_Z 56
_cell_length_a 10.033088
_cell_length_b 10.033088
_cell_length_c 21.399245
_cell_angle_alpha 90.000000
_cell_angle_beta 90.000000
_cell_angle_gamma 90.000000
_cell_volume 2154.109093
_symmetry_space_group_name_H-M "P -4 21 M "
_symmetry_group_IT_number 113
_symmetry_cell_setting 'tetragonal'
loop_
_space_group_symop_operation_xyz
x,y,z
y,-x,-z
-x,-y,z
-y,x,-z
1/2+x,1/2-y,-z
1/2-x,1/2+y,-z
1/2-y,1/2-x,z
1/2+y,1/2+x,z
loop_
_atom_site_type_symbol
_atom_site_label
_atom_site_fract_x
_atom_site_fract_y
_atom_site_fract_z
Si Si1 0.816353 0.913398 0.159256
Si Si2 0.508875 0.777942 0.892202
Si Si3 0.507352 0.222493 0.031164
Si Si4 0.486182 0.729368 0.559657
Si Si5 0.994357 0.292640 0.302170
Si Si6 0.503735 0.289674 0.426865
Si Si7 0.429753 0.298005 0.292906
O O1 0.698465 0.801535 0.157981
O O2 0.953886 0.830282 0.155848
O O3 0.795677 0.991100 0.223762
O O4 0.803239 0.991266 0.094603
O O5 0.395242 0.895242 0.894937
O O6 0.645804 0.854197 0.878545
O O7 0.510165 0.716722 0.962348
O O8 0.648538 0.148538 0.032255
O O9 0.393225 0.106776 0.032541
O O10 0.504195 0.807777 0.622736
O O11 0.353547 0.642702 0.570113
O O12 0.489220 0.793070 0.491024
O O13 0.601579 0.617545 0.560504
O O14 0.851260 0.351260 0.280836
O O15 0.104901 0.395100 0.275009
O O16 0.056992 0.144722 0.296088
O O17 0.516889 0.258888 0.353395
O O18 0.310709 0.189292 0.294210
#
# Coordination Sequence:
#
# PCOD9555800 Si02
#       7
#     8   8   8   8   8   8   8
#     4   9  16  26  44  69  95 126 159 190 232 285
#     4   8  14  25  43  68  94 120 155 198 238 277
#     4   8  14  26  45  67  89 117 157 200 235 270
#     4   8  14  26  45  62  78 110 152 190 229 264
#     4   9  17  28  42  63  91 118 145 183 231 280
#     4   8  14  26  43  63  84 109 150 194 222 261
#     4   9  17  27  41  66  97 126 154 184 225 276
#
# _framework density 25.996827
#
# number of rings (size 3 to 8) (size 9 to 14) (size 15 to 20)
#    0.000    3.571    0.000    1.714    0.000    1.143 
#    0.000    5.000    0.000    9.000    0.000    4.000 
#    0.000    0.000    0.000    0.000    0.000    0.000 
#
# Total GULP energy -312329.699694 kJ/mol
# GULP energy per Si atom -5577.316066 kJ/mol
# Density = 2.593766 g / cm^3
# Si number density = 25.996827 Si / 1000 Ang^3
#
#
#
# Elastic Constant Matrix: (Units=GPa)
#
#
# Indices 1 2 3 4 5 6 
#
# 1 42.9446 37.5077 19.5692 0.0000 0.0000 0.0000
# 2 37.5077 42.9449 19.5693 0.0000 0.0000 0.0000
# 3 19.5692 19.5693 209.7890 0.0000 0.0000 0.0000
# 4 0.0000 0.0000 0.0000 47.8882 0.0000 0.0000
# 5 0.0000 0.0000 0.0000 0.0000 47.8890 0.0000
# 6 0.0000 0.0000 0.0000 0.0000 0.0000 40.3357
#
#
#
# Elastic Compliance Matrix: (Units=1/GPa)
#
#
# Indices 1 2 3 4 5 6 
#
# 1 0.098472 -0.085451 -0.001215 0.000000 0.000000 0.000000
# 2 -0.085451 0.098472 -0.001215 0.000000 0.000000 0.000000
# 3 -0.001215 -0.001215 0.004993 0.000000 0.000000 0.000000
# 4 0.000000 0.000000 0.000000 0.020882 0.000000 0.000000
# 5 0.000000 0.000000 0.000000 0.000000 0.020882 0.000000
# 6 0.000000 0.000000 0.000000 0.000000 0.000000 0.024792
#
#
# Mechanical properties :
#
#
# Convention : Reuss Voigt Hill
#
# Bulk Modulus (GPa) = 38.20272 49.88566 44.04419
# Shear Modulus (GPa) = 11.03803 41.82474 26.43138
#
# Velocity S-wave (km/s) = 2.06280 4.01539 3.19206
# Velocity P-wave (km/s) = 4.51670 6.38189 5.52852
#
# Compressibility (1/GPa) = 0.02617615
#
# Stress axis : x y z
#
# Youngs Moduli (GPa) = 10.15514 10.15519 200.26893
#
# Poissons Ratio (x) = 0.86778 0.24323
# Poissons Ratio (y) = 0.86777 0.24325
# Poissons Ratio (z) = 0.01233 0.01233
#
# Static dielectric constant tensor:
#      x y z
#    x 2.026440 0.000000 0.000000 
#    y 0.000000 2.026440 0.000000 
#    z 0.000000 0.000000 2.057230 
# 
# From -- ./inp_files/2703.got.cif
#   From: 2010.05.17/outbox.cif.g08.bks.cpg/sg113_cif.got.tgz:2703.got - 2010.05.20 11:03:00.
