data_PCOD9555782
_publ_section_title
;
Structure prediction by ZEFSAII (Michael W. Deem and Ramdas Pophale) SiO2 
 PCOD9555782
Probable space group: P -4 21 M 
;
_chemical_formula_sum "Si O2"
_cell_formula_units_Z 48
_cell_length_a 11.239341
_cell_length_b 11.239341
_cell_length_c 18.567782
_cell_angle_alpha 90.000000
_cell_angle_beta 90.000000
_cell_angle_gamma 90.000000
_cell_volume 2345.533954
_symmetry_space_group_name_H-M "P -4 21 M "
_symmetry_group_IT_number 113
_symmetry_cell_setting 'tetragonal'
loop_
_space_group_symop_operation_xyz
x,y,z
y,-x,-z
-x,-y,z
-y,x,-z
1/2+x,1/2-y,-z
1/2-x,1/2+y,-z
1/2-y,1/2-x,z
1/2+y,1/2+x,z
loop_
_atom_site_type_symbol
_atom_site_label
_atom_site_fract_x
_atom_site_fract_y
_atom_site_fract_z
Si Si1 0.066913 0.240517 0.042050
Si Si2 0.330748 0.626972 0.753305
Si Si3 0.388167 0.586051 0.593506
Si Si4 0.499675 0.192985 0.521432
Si Si5 0.487270 0.192365 0.813340
Si Si6 0.058296 0.761474 0.902192
O O1 0.173947 0.326054 0.064563
O O2 0.969540 0.272302 0.102334
O O3 0.121226 0.113243 0.059394
O O4 0.041259 0.267175 0.959737
O O5 0.227824 0.727824 0.750809
O O6 0.344700 0.572610 0.675101
O O7 0.452591 0.695391 0.774844
O O8 0.295485 0.540208 0.819166
O O9 0.500000 0.500000 0.581310
O O10 0.281524 0.551951 0.539411
O O11 0.436824 0.719414 0.578553
O O12 0.391520 0.108481 0.548224
O O13 0.601880 0.101880 0.494497
O O14 0.587614 0.087614 0.808203
O O15 0.366662 0.133339 0.784674
O O16 0.152113 0.652113 0.903063
#
# Coordination Sequence:
#
# PCOD9555782 Si02
#       6
#     8   8   8   8   8   8
#     4   9  17  30  49  73 101 137 187 238 281 330
#     4   9  19  35  53  76 115 153 187 233 282 347
#     4  12  23  41  64  92 128 164 195 246 298 354
#     4  11  23  41  69  98 123 157 201 246 296 357
#     4   8  14  27  49  76 104 139 185 238 290 332
#     4   9  18  33  50  73 104 141 184 231 284 331
#
# _framework density 20.464424999999999
#
# number of rings (size 3 to 8) (size 9 to 14) (size 15 to 20)
#    0.000    2.333    1.667    4.000    0.000    2.000 
#    6.000    2.500    0.000    1.000    0.000    0.000 
#    0.000    0.000    0.000    0.000    0.000    0.000 
#
# Total GULP energy -267329.173212 kJ/mol
# GULP energy per Si atom -5569.357775 kJ/mol
# Density = 2.041785 g / cm^3
# Si number density = 20.464425 Si / 1000 Ang^3
#
#
#
# Elastic Constant Matrix: (Units=GPa)
#
#
# Indices 1 2 3 4 5 6 
#
# 1 39.0108 9.5162 -2.5261 0.0000 0.0000 0.0000
# 2 9.5162 39.0107 -2.5257 0.0000 0.0000 0.0000
# 3 -2.5261 -2.5257 91.1965 0.0000 0.0000 0.0000
# 4 0.0000 0.0000 0.0000 20.3423 0.0000 0.0000
# 5 0.0000 0.0000 0.0000 0.0000 20.3420 0.0000
# 6 0.0000 0.0000 0.0000 0.0000 0.0000 25.4868
#
#
#
# Elastic Compliance Matrix: (Units=1/GPa)
#
#
# Indices 1 2 3 4 5 6 
#
# 1 0.027286 -0.006619 0.000572 0.000000 0.000000 0.000000
# 2 -0.006619 0.027286 0.000572 0.000000 0.000000 0.000000
# 3 0.000572 0.000572 0.010997 0.000000 0.000000 0.000000
# 4 0.000000 0.000000 0.000000 0.049159 0.000000 0.000000
# 5 0.000000 0.000000 0.000000 0.000000 0.049159 0.000000
# 6 0.000000 0.000000 0.000000 0.000000 0.000000 0.039236
#
#
# Mechanical properties :
#
#
# Convention : Reuss Voigt Hill
#
# Bulk Modulus (GPa) = 18.30827 19.79409 19.05118
# Shear Modulus (GPa) = 21.52600 24.21778 22.87189
#
# Velocity S-wave (km/s) = 3.24678 3.44380 3.34674
# Velocity P-wave (km/s) = 4.79805 5.05039 4.92584
#
# Compressibility (1/GPa) = 0.05462011
#
# Stress axis : x y z
#
# Youngs Moduli (GPa) = 36.64939 36.64928 90.93353
#
# Poissons Ratio (x) = 0.24258 -0.05206
# Poissons Ratio (y) = 0.24258 -0.05205
# Poissons Ratio (z) = -0.02098 -0.02098
#
# Static dielectric constant tensor:
#      x y z
#    x 1.787200 0.000000 0.000000 
#    y 0.000000 1.787190 0.000000 
#    z 0.000000 0.000000 1.734790 
# 
# From -- ./inp_files/2494.got.cif
#   From: 2010.05.17/outbox.cif.g08.bks.cpg/sg113_cif.got.tgz:2494.got - 2010.05.20 11:03:00.
