data_PCOD9555352
_publ_section_title
;
Structure prediction by ZEFSAII (Michael W. Deem and Ramdas Pophale) SiO2 
 PCOD9555352
Probable space group: P -4 2 C
;
_chemical_formula_sum "Si O2"
_cell_formula_units_Z 38
_cell_length_a 8.426344
_cell_length_b 8.426344
_cell_length_c 24.883714
_cell_angle_alpha 90.000000
_cell_angle_beta 90.000000
_cell_angle_gamma 90.000000
_cell_volume 1766.825144
_symmetry_space_group_name_H-M "P -4 2 C"
_symmetry_group_IT_number 112
_symmetry_cell_setting 'tetragonal'
loop_
_space_group_symop_operation_xyz
x,y,z
y,-x,-z
-x,-y,z
-y,x,-z
x,-y,1/2-z
-x,y,1/2-z
-y,-x,1/2+z
y,x,1/2+z
loop_
_atom_site_type_symbol
_atom_site_label
_atom_site_fract_x
_atom_site_fract_y
_atom_site_fract_z
Si Si1 0.500000 0.500000 0.250000
Si Si2 0.500000 0.000000 0.090108
Si Si3 0.000000 0.747076 0.750000
Si Si4 0.250536 0.065352 0.500730
Si Si5 0.578323 0.256586 0.323642
Si Si6 0.890549 0.654934 0.117547
Si Si7 0.000000 0.000000 0.838762
O O1 0.450864 0.369633 0.294961
O O2 0.354837 0.966916 0.051071
O O3 0.516378 0.849003 0.128144
O O4 0.134997 0.648016 0.779578
O O5 0.944261 0.859796 0.798683
O O6 0.341941 0.131989 0.552822
O O7 0.105731 0.178018 0.484916
O O8 0.729106 0.352524 0.347720
O O9 0.951737 0.837565 0.130263
O O10 0.000000 0.500000 0.129997
#
# Coordination Sequence:
#
# PCOD9555352 Si02
#       7
#     2   4   4   8   8   8   4
#     4  12  28  46  62  94 140 186 248 286 360 436
#     4  12  24  45  70  98 140 183 234 288 370 442
#     4   9  20  41  64  92 130 172 236 276 348 416
#     4  11  23  42  69 101 136 181 231 291 355 436
#     4  11  25  44  66  99 133 195 230 301 356 431
#     4  11  23  40  69 104 137 176 234 295 364 424
#     4   9  20  38  65 102 134 175 216 299 356 410
#
# _framework density 21.507505999999999
#
# number of rings (size 3 to 8) (size 9 to 14) (size 15 to 20)
#    0.000    1.263    3.158    2.526    5.895    1.684 
#    0.000    0.000    0.000    0.000    0.000    0.000 
#    0.000    0.000    0.000    0.000    0.000    0.000 
#
# Total GULP energy -211647.700380 kJ/mol
# GULP energy per Si atom -5569.676326 kJ/mol
# Density = 2.145855 g / cm^3
# Si number density = 21.507506 Si / 1000 Ang^3
#
#
#
# Elastic Constant Matrix: (Units=GPa)
#
#
# Indices 1 2 3 4 5 6 
#
# 1 71.0904 32.3256 43.0913 0.0000 0.0000 0.0000
# 2 32.3256 71.0904 43.0913 0.0000 0.0000 0.0000
# 3 43.0913 43.0913 131.8379 0.0000 0.0000 0.0000
# 4 0.0000 0.0000 0.0000 14.8961 0.0000 0.0000
# 5 0.0000 0.0000 0.0000 0.0000 14.8961 0.0000
# 6 0.0000 0.0000 0.0000 0.0000 0.0000 25.7096
#
#
#
# Elastic Compliance Matrix: (Units=1/GPa)
#
#
# Indices 1 2 3 4 5 6 
#
# 1 0.019543 -0.006254 -0.004344 0.000000 0.000000 0.000000
# 2 -0.006254 0.019543 -0.004344 0.000000 0.000000 0.000000
# 3 -0.004344 -0.004344 0.010425 0.000000 0.000000 0.000000
# 4 0.000000 0.000000 0.000000 0.067132 0.000000 0.000000
# 5 0.000000 0.000000 0.000000 0.000000 0.067132 0.000000
# 6 0.000000 0.000000 0.000000 0.000000 0.000000 0.038896
#
#
# Mechanical properties :
#
#
# Convention : Reuss Voigt Hill
#
# Bulk Modulus (GPa) = 50.94543 56.78170 53.86356
# Shear Modulus (GPa) = 19.29793 21.46771 20.38282
#
# Velocity S-wave (km/s) = 2.99869 3.16278 3.08183
# Velocity P-wave (km/s) = 5.97731 6.30839 6.14508
#
# Compressibility (1/GPa) = 0.01962885
#
# Stress axis : x y z
#
# Youngs Moduli (GPa) = 51.16898 51.16898 95.92741
#
# Poissons Ratio (x) = 0.31999 0.41668
# Poissons Ratio (y) = 0.31999 0.41668
# Poissons Ratio (z) = 0.22226 0.22226
#
# Static dielectric constant tensor:
#      x y z
#    x 1.516490 0.000000 0.000000 
#    y 0.000000 1.516490 0.000000 
#    z 0.000000 0.000000 1.773800 
# 
# From -- ./inp_files/5446.got.cif
#   From: 2010.05.17/outbox.cif.g08.bks.cpg/sg112_3_cif.got.tgz:5446.got - 2010.05.20 10:59:04.
