data_PCOD9555449
_publ_section_title
;
Structure prediction by ZEFSAII (Michael W. Deem and Ramdas Pophale) SiO2 
 PCOD9555449
Probable space group: P -4 21 M 
;
_chemical_formula_sum "Si O2"
_cell_formula_units_Z 64
_cell_length_a 18.198694
_cell_length_b 18.198694
_cell_length_c 10.604886
_cell_angle_alpha 90.000000
_cell_angle_beta 90.000000
_cell_angle_gamma 90.000000
_cell_volume 3512.258317
_symmetry_space_group_name_H-M "P -4 21 M "
_symmetry_group_IT_number 113
_symmetry_cell_setting 'tetragonal'
loop_
_space_group_symop_operation_xyz
x,y,z
y,-x,-z
-x,-y,z
-y,x,-z
1/2+x,1/2-y,-z
1/2-x,1/2+y,-z
1/2-y,1/2-x,z
1/2+y,1/2+x,z
loop_
_atom_site_type_symbol
_atom_site_label
_atom_site_fract_x
_atom_site_fract_y
_atom_site_fract_z
Si Si1 0.419259 0.796478 0.975414
Si Si2 0.415587 0.206435 0.896124
Si Si3 0.082734 0.703464 0.406607
Si Si4 0.653033 0.410311 0.586602
Si Si5 0.069677 0.162306 0.634209
Si Si6 0.800798 0.179746 0.157017
Si Si7 0.815123 0.568579 0.506913
Si Si8 0.648431 0.264747 0.728125
O O1 0.374807 0.874807 0.969334
O O2 0.507801 0.799923 0.971522
O O3 0.399399 0.751386 0.849541
O O4 0.379503 0.749199 0.084156
O O5 0.366617 0.133384 0.914339
O O6 0.428660 0.213963 0.743770
O O7 0.361470 0.275611 0.924444
O O8 0.156516 0.656516 0.422933
O O9 0.085009 0.776853 0.491924
O O10 0.011586 0.661724 0.460807
O O11 0.590118 0.382085 0.492194
O O12 0.639317 0.486364 0.657908
O O13 0.661505 0.347334 0.689069
O O14 0.133929 0.156321 0.736284
O O15 0.066288 0.249657 0.606965
O O16 0.743995 0.243995 0.204800
O O17 0.882139 0.617862 0.551187
O O18 0.776681 0.608503 0.387615
O O19 0.725650 0.225650 0.750215
#
# Coordination Sequence:
#
# PCOD9555449 Si02
#       8
#     8   8   8   8   8   8   8   8
#     4  10  21  37  57  83 114 147 189 234 280 333
#     4  10  20  35  57  83 112 141 181 233 281 332
#     4  10  18  29  49  78 108 136 169 219 275 331
#     4  10  20  32  51  76 105 139 179 227 280 333
#     4  10  20  34  52  75 104 139 182 227 273 325
#     4  10  21  37  59  81 107 150 194 230 267 329
#     4   9  17  29  48  74 103 136 167 210 271 328
#     4   9  17  31  50  73 104 139 175 222 271 322
#
# _framework density 18.221895
#
# number of rings (size 3 to 8) (size 9 to 14) (size 15 to 20)
#    0.000    2.250    2.500    0.750    0.000    2.750 
#    0.000    1.250    0.000    4.875    0.000    3.500 
#    0.000    0.000    0.000    0.000    0.000    0.000 
#
# Total GULP energy -356351.125246 kJ/mol
# GULP energy per Si atom -5567.986332 kJ/mol
# Density = 1.818042 g / cm^3
# Si number density = 18.221895 Si / 1000 Ang^3
#
#
#
# Elastic Constant Matrix: (Units=GPa)
#
#
# Indices 1 2 3 4 5 6 
#
# 1 96.1344 34.8540 13.8124 0.0000 0.0000 0.0000
# 2 34.8540 96.1339 13.8129 0.0000 0.0000 0.0000
# 3 13.8124 13.8129 16.2062 0.0000 0.0000 0.0000
# 4 0.0000 0.0000 0.0000 17.0336 0.0000 0.0000
# 5 0.0000 0.0000 0.0000 0.0000 17.0338 0.0000
# 6 0.0000 0.0000 0.0000 0.0000 0.0000 2.5284
#
#
#
# Elastic Compliance Matrix: (Units=1/GPa)
#
#
# Indices 1 2 3 4 5 6 
#
# 1 0.012813 -0.003506 -0.007932 0.000000 0.000000 0.000000
# 2 -0.003506 0.012813 -0.007933 0.000000 0.000000 0.000000
# 3 -0.007932 -0.007933 0.075227 0.000000 0.000000 0.000000
# 4 0.000000 0.000000 0.000000 0.058707 0.000000 0.000000
# 5 0.000000 0.000000 0.000000 0.000000 0.058707 0.000000
# 6 0.000000 0.000000 0.000000 0.000000 0.000000 0.395512
#
#
# Mechanical properties :
#
#
# Convention : Reuss Voigt Hill
#
# Bulk Modulus (GPa) = 16.10025 37.04813 26.57419
# Shear Modulus (GPa) = 7.42694 17.05216 12.23955
#
# Velocity S-wave (km/s) = 2.02106 3.06241 2.59452
# Velocity P-wave (km/s) = 3.78168 5.73413 4.85703
#
# Compressibility (1/GPa) = 0.06211084
#
# Stress axis : x y z
#
# Youngs Moduli (GPa) = 78.04695 78.04581 13.29311
#
# Poissons Ratio (x) = 0.27360 0.10545
# Poissons Ratio (y) = 0.27360 0.10545
# Poissons Ratio (z) = 0.61910 0.61913
#
# Static dielectric constant tensor:
#      x y z
#    x 1.650040 0.000000 0.000000 
#    y 0.000000 1.650040 0.000000 
#    z 0.000000 0.000000 1.662490 
# 
# From -- ./inp_files/2027.got.cif
#   From: 2010.05.17/outbox.cif.g08.bks.cpg/sg113_cif.got.tgz:2027.got - 2010.05.20 11:03:00.
