data_PCOD9555687
_publ_section_title
;
Structure prediction by ZEFSAII (Michael W. Deem and Ramdas Pophale) SiO2 
 PCOD9555687
Probable space group: P -4 21 M 
;
_chemical_formula_sum "Si O2"
_cell_formula_units_Z 48
_cell_length_a 11.370590
_cell_length_b 11.370590
_cell_length_c 19.343020
_cell_angle_alpha 90.000000
_cell_angle_beta 90.000000
_cell_angle_gamma 90.000000
_cell_volume 2500.865187
_symmetry_space_group_name_H-M "P -4 21 M "
_symmetry_group_IT_number 113
_symmetry_cell_setting 'tetragonal'
loop_
_space_group_symop_operation_xyz
x,y,z
y,-x,-z
-x,-y,z
-y,x,-z
1/2+x,1/2-y,-z
1/2-x,1/2+y,-z
1/2-y,1/2-x,z
1/2+y,1/2+x,z
loop_
_atom_site_type_symbol
_atom_site_label
_atom_site_fract_x
_atom_site_fract_y
_atom_site_fract_z
Si Si1 0.864294 0.032060 0.877118
Si Si2 0.846114 0.854166 0.601988
Si Si3 0.350849 0.344281 0.757342
Si Si4 0.698258 0.999381 0.494592
Si Si5 0.808723 0.498864 0.999136
Si Si6 0.041782 0.729370 0.844279
O O1 0.863242 0.167637 0.855349
O O2 0.825087 0.953605 0.812538
O O3 0.795043 0.006347 0.946762
O O4 0.000000 0.000000 0.888698
O O5 0.748333 0.751668 0.607320
O O6 0.873340 0.893016 0.680010
O O7 0.782577 0.954811 0.556583
O O8 0.954615 0.788707 0.564017
O O9 0.270788 0.229213 0.755713
O O10 0.270988 0.450551 0.786854
O O11 0.610701 0.889300 0.476458
O O12 0.608807 0.108807 0.510934
O O13 0.871939 0.371939 0.001057
O O14 0.904859 0.595142 0.019869
O O15 0.777386 0.520499 0.919246
O O16 0.107398 0.607398 0.830148
#
# Coordination Sequence:
#
# PCOD9555687 Si02
#       6
#     8   8   8   8   8   8
#     4  10  22  36  54  80 112 147 186 228 289 343
#     4   9  19  37  60  90 115 150 198 232 285 350
#     4  10  21  38  60  83 116 150 188 237 285 346
#     4   9  18  36  60  88 123 156 194 244 291 346
#     4  10  21  37  58  81 104 140 196 245 283 335
#     4  10  22  37  54  80 114 151 190 236 289 341
#
# _framework density 19.193356999999999
#
# number of rings (size 3 to 8) (size 9 to 14) (size 15 to 20)
#    0.000    2.333    0.000    1.500    4.667    2.000 
#    9.000    3.333    0.000    4.000    0.000    0.000 
#    0.000    0.000    0.000    0.000    0.000    0.000 
#
# Total GULP energy -267753.724995 kJ/mol
# GULP energy per Si atom -5578.202604 kJ/mol
# Density = 1.914967 g / cm^3
# Si number density = 19.193357 Si / 1000 Ang^3
#
#
#
# Elastic Constant Matrix: (Units=GPa)
#
#
# Indices 1 2 3 4 5 6 
#
# 1 55.6904 31.3110 38.3616 0.0000 0.0000 0.0000
# 2 31.3110 55.6901 38.3610 0.0000 0.0000 0.0000
# 3 38.3616 38.3610 111.5864 0.0000 0.0000 0.0000
# 4 0.0000 0.0000 0.0000 20.2613 0.0000 0.0000
# 5 0.0000 0.0000 0.0000 0.0000 20.2575 0.0000
# 6 0.0000 0.0000 0.0000 0.0000 0.0000 23.8332
#
#
#
# Elastic Compliance Matrix: (Units=1/GPa)
#
#
# Indices 1 2 3 4 5 6 
#
# 1 0.028757 -0.012262 -0.005671 0.000000 0.000000 0.000000
# 2 -0.012262 0.028757 -0.005670 0.000000 0.000000 0.000000
# 3 -0.005671 -0.005670 0.012861 0.000000 0.000000 0.000000
# 4 0.000000 0.000000 0.000000 0.049355 0.000000 0.000000
# 5 0.000000 0.000000 0.000000 0.000000 0.049364 0.000000
# 6 0.000000 0.000000 0.000000 0.000000 0.000000 0.041958
#
#
# Mechanical properties :
#
#
# Convention : Reuss Voigt Hill
#
# Bulk Modulus (GPa) = 43.16358 48.78158 45.97258
# Shear Modulus (GPa) = 18.79838 20.53261 19.66550
#
# Velocity S-wave (km/s) = 3.13297 3.27429 3.20441
# Velocity P-wave (km/s) = 5.96866 6.30600 6.13965
#
# Compressibility (1/GPa) = 0.02316768
#
# Stress axis : x y z
#
# Youngs Moduli (GPa) = 34.77455 34.77465 77.75728
#
# Poissons Ratio (x) = 0.42640 0.44094
# Poissons Ratio (y) = 0.42640 0.44092
# Poissons Ratio (z) = 0.19720 0.19719
#
# Static dielectric constant tensor:
#      x y z
#    x 1.723960 0.000000 0.000000 
#    y 0.000000 1.723960 0.000000 
#    z 0.000000 0.000000 1.662800 
# 
# From -- ./inp_files/2472.got.cif
#   From: 2010.05.17/outbox.cif.g08.bks.cpg/sg113_cif.got.tgz:2472.got - 2010.05.20 11:03:00.
