data_PCOD9555497
_publ_section_title
;
Structure prediction by ZEFSAII (Michael W. Deem and Ramdas Pophale) SiO2 
 PCOD9555497
Probable space group: P -4 21 M 
;
_chemical_formula_sum "Si O2"
_cell_formula_units_Z 64
_cell_length_a 12.193467
_cell_length_b 12.193467
_cell_length_c 23.642699
_cell_angle_alpha 90.000000
_cell_angle_beta 90.000000
_cell_angle_gamma 90.000000
_cell_volume 3515.211559
_symmetry_space_group_name_H-M "P -4 21 M "
_symmetry_group_IT_number 113
_symmetry_cell_setting 'tetragonal'
loop_
_space_group_symop_operation_xyz
x,y,z
y,-x,-z
-x,-y,z
-y,x,-z
1/2+x,1/2-y,-z
1/2-x,1/2+y,-z
1/2-y,1/2-x,z
1/2+y,1/2+x,z
loop_
_atom_site_type_symbol
_atom_site_label
_atom_site_fract_x
_atom_site_fract_y
_atom_site_fract_z
Si Si1 0.250508 0.928599 0.126989
Si Si2 0.958096 0.873987 0.420795
Si Si3 0.821583 0.510078 0.633028
Si Si4 0.680898 0.998351 0.005324
Si Si5 0.756644 0.434990 0.519021
Si Si6 0.916256 0.101244 0.807468
Si Si7 0.871143 0.982057 0.916672
Si Si8 0.659932 0.343946 0.686605
O O1 0.345695 0.845695 0.145093
O O2 0.291238 0.994093 0.071674
O O3 0.142745 0.863059 0.105399
O O4 0.206097 0.011484 0.174148
O O5 0.837051 0.867624 0.448044
O O6 0.942535 0.839479 0.356120
O O7 0.028270 0.796477 0.460735
O O8 0.000000 0.000000 0.425349
O O9 0.915237 0.415237 0.632187
O O10 0.784864 0.524422 0.567541
O O11 0.723811 0.456949 0.669235
O O12 0.879932 0.620069 0.654251
O O13 0.601898 0.101898 0.992913
O O14 0.610621 0.889380 0.993509
O O15 0.789843 0.002579 0.967950
O O16 0.862952 0.362952 0.508937
O O17 0.850640 0.062398 0.863305
O O18 0.849307 0.125553 0.751517
O O19 0.000000 0.000000 0.796508
O O20 0.000000 0.000000 0.930987
O O21 0.744182 0.244182 0.676873
#
# Coordination Sequence:
#
# PCOD9555497 Si02
#       8
#     8   8   8   8   8   8   8   8
#     4   9  19  33  53  81 110 142 180 229 281 331
#     4  11  19  36  54  78 110 144 173 220 268 316
#     4   8  16  30  47  73 106 135 167 213 267 319
#     4  10  21  35  53  83 118 147 177 223 287 345
#     4  10  19  32  53  80 108 142 179 215 269 329
#     4   9  20  37  54  75 104 141 183 230 268 324
#     4   9  20  34  55  78 109 145 189 226 268 330
#     4  10  21  35  54  77 102 139 186 227 267 321
#
# _framework density 18.206585
#
# number of rings (size 3 to 8) (size 9 to 14) (size 15 to 20)
#    0.000    2.750    1.250    1.875    3.500    3.000 
#    0.000    0.000    0.000    6.750    0.000    0.000 
#    0.000    0.000    0.000    0.000    0.000    0.000 
#
# Total GULP energy -356712.594386 kJ/mol
# GULP energy per Si atom -5573.634287 kJ/mol
# Density = 1.816515 g / cm^3
# Si number density = 18.206585 Si / 1000 Ang^3
#
#
#
# Elastic Constant Matrix: (Units=GPa)
#
#
# Indices 1 2 3 4 5 6 
#
# 1 35.8914 6.2208 22.4279 0.0000 0.0000 0.0000
# 2 6.2208 35.8911 22.4279 0.0000 0.0000 0.0000
# 3 22.4279 22.4279 88.5646 0.0000 0.0000 0.0000
# 4 0.0000 0.0000 0.0000 18.1465 0.0000 0.0000
# 5 0.0000 0.0000 0.0000 0.0000 18.1467 0.0000
# 6 0.0000 0.0000 0.0000 0.0000 0.0000 13.9730
#
#
#
# Elastic Compliance Matrix: (Units=1/GPa)
#
#
# Indices 1 2 3 4 5 6 
#
# 1 0.033110 -0.000593 -0.008235 0.000000 0.000000 0.000000
# 2 -0.000593 0.033111 -0.008235 0.000000 0.000000 0.000000
# 3 -0.008235 -0.008235 0.015462 0.000000 0.000000 0.000000
# 4 0.000000 0.000000 0.000000 0.055107 0.000000 0.000000
# 5 0.000000 0.000000 0.000000 0.000000 0.055106 0.000000
# 6 0.000000 0.000000 0.000000 0.000000 0.000000 0.071567
#
#
# Mechanical properties :
#
#
# Convention : Reuss Voigt Hill
#
# Bulk Modulus (GPa) = 21.02697 29.16670 25.09684
# Shear Modulus (GPa) = 15.95202 17.33795 16.64499
#
# Velocity S-wave (km/s) = 2.96322 3.08927 3.02690
# Velocity P-wave (km/s) = 4.82512 5.36464 5.10202
#
# Compressibility (1/GPa) = 0.04755797
#
# Stress axis : x y z
#
# Youngs Moduli (GPa) = 30.20215 30.20181 64.67550
#
# Poissons Ratio (x) = 0.01791 0.53257
# Poissons Ratio (y) = 0.01791 0.53258
# Poissons Ratio (z) = 0.24870 0.24870
#
# Static dielectric constant tensor:
#      x y z
#    x 1.646090 0.000000 0.000000 
#    y 0.000000 1.646090 0.000000 
#    z 0.000000 0.000000 1.643000 
# 
# From -- ./inp_files/2907.got.cif
#   From: 2010.05.17/outbox.cif.g08.bks.cpg/sg113_cif.got.tgz:2907.got - 2010.05.20 11:03:00.
