data_PCOD9555982
_publ_section_title
;
Structure prediction by ZEFSAII (Michael W. Deem and Ramdas Pophale) SiO2 
 PCOD9555982
Probable space group: P -4 21 C
;
_chemical_formula_sum "Si O2"
_cell_formula_units_Z 24
_cell_length_a 8.663469
_cell_length_b 8.663469
_cell_length_c 14.717632
_cell_angle_alpha 90.000000
_cell_angle_beta 90.000000
_cell_angle_gamma 90.000000
_cell_volume 1104.642100
_symmetry_space_group_name_H-M "P -4 21 C"
_symmetry_group_IT_number 114
_symmetry_cell_setting 'tetragonal'
loop_
_space_group_symop_operation_xyz
x,y,z
y,-x,-z
-x,-y,z
-y,x,-z
1/2+x,1/2-y,1/2-z
1/2-x,1/2+y,1/2-z
1/2-y,1/2-x,1/2+z
1/2+y,1/2+x,1/2+z
loop_
_atom_site_type_symbol
_atom_site_label
_atom_site_fract_x
_atom_site_fract_y
_atom_site_fract_z
Si Si1 0.105730 0.346973 0.941479
Si Si2 0.684949 0.311911 0.379323
Si Si3 0.008796 0.685128 0.269882
O O1 0.208846 0.391612 0.854863
O O2 0.000000 0.500000 0.958084
O O3 0.985015 0.214030 0.913379
O O4 0.189261 0.295940 0.032359
O O5 0.535325 0.277687 0.319441
O O6 0.825701 0.276268 0.311188
O O7 0.000000 0.500000 0.250485
#
# Coordination Sequence:
#
# PCOD9555982 Si02
#       3
#     8   8   8
#     4   9  21  39  62  90 123 170 201 266 321 372
#     4  10  20  39  65  87 128 163 214 256 319 380
#     4   9  21  40  61  90 123 170 206 259 322 374
#
# _framework density 21.726492
#
# number of rings (size 3 to 8) (size 9 to 14) (size 15 to 20)
#    0.000    3.333    0.000    1.000    4.667    0.667 
#   12.000    0.000   29.333    0.000    0.000    0.000 
#    0.000    0.000    0.000    0.000    0.000    0.000 
#
# Total GULP energy -134005.506763 kJ/mol
# GULP energy per Si atom -5583.562782 kJ/mol
# Density = 2.167704 g / cm^3
# Si number density = 21.726492 Si / 1000 Ang^3
#
#
#
# Elastic Constant Matrix: (Units=GPa)
#
#
# Indices 1 2 3 4 5 6 
#
# 1 43.0864 32.6961 33.9097 0.0000 0.0000 0.0000
# 2 32.6961 43.0864 33.9097 0.0000 0.0000 0.0000
# 3 33.9097 33.9097 82.8926 0.0000 0.0000 0.0000
# 4 0.0000 0.0000 0.0000 18.5960 0.0000 0.0000
# 5 0.0000 0.0000 0.0000 0.0000 18.5960 0.0000
# 6 0.0000 0.0000 0.0000 0.0000 0.0000 30.9317
#
#
#
# Elastic Compliance Matrix: (Units=1/GPa)
#
#
# Indices 1 2 3 4 5 6 
#
# 1 0.058530 -0.037714 -0.008516 0.000000 0.000000 0.000000
# 2 -0.037714 0.058530 -0.008516 0.000000 0.000000 0.000000
# 3 -0.008516 -0.008516 0.019031 0.000000 0.000000 0.000000
# 4 0.000000 0.000000 0.000000 0.053775 0.000000 0.000000
# 5 0.000000 0.000000 0.000000 0.000000 0.053775 0.000000
# 6 0.000000 0.000000 0.000000 0.000000 0.000000 0.032329
#
#
# Mechanical properties :
#
#
# Convention : Reuss Voigt Hill
#
# Bulk Modulus (GPa) = 37.59194 41.12180 39.35687
# Shear Modulus (GPa) = 12.67978 18.19472 15.43725
#
# Velocity S-wave (km/s) = 2.41842 2.89700 2.66846
# Velocity P-wave (km/s) = 5.01381 5.49166 5.25816
#
# Compressibility (1/GPa) = 0.02660145
#
# Stress axis : x y z
#
# Youngs Moduli (GPa) = 17.08513 17.08513 52.54612
#
# Poissons Ratio (x) = 0.64435 0.44746
# Poissons Ratio (y) = 0.64435 0.44746
# Poissons Ratio (z) = 0.14549 0.14549
#
# Static dielectric constant tensor:
#      x y z
#    x 1.824160 0.000000 0.000000 
#    y 0.000000 1.824160 0.000000 
#    z 0.000000 0.000000 1.763590 
# 
# From -- ./inp_files/1922.got.cif
#   From: 2010.05.17/outbox.cif.g08.bks.cpg/sg114_1_cif.got.tgz:1922.got - 2010.05.20 11:04:54.
