data_PCOD9555466
_publ_section_title
;
Structure prediction by ZEFSAII (Michael W. Deem and Ramdas Pophale) SiO2 
 PCOD9555466
Probable space group: P -4 21 M 
;
_chemical_formula_sum "Si O2"
_cell_formula_units_Z 58
_cell_length_a 17.674019
_cell_length_b 17.674019
_cell_length_c 8.999099
_cell_angle_alpha 90.000000
_cell_angle_beta 90.000000
_cell_angle_gamma 90.000000
_cell_volume 2811.057082
_symmetry_space_group_name_H-M "P -4 21 M "
_symmetry_group_IT_number 113
_symmetry_cell_setting 'tetragonal'
loop_
_space_group_symop_operation_xyz
x,y,z
y,-x,-z
-x,-y,z
-y,x,-z
1/2+x,1/2-y,-z
1/2-x,1/2+y,-z
1/2-y,1/2-x,z
1/2+y,1/2+x,z
loop_
_atom_site_type_symbol
_atom_site_label
_atom_site_fract_x
_atom_site_fract_y
_atom_site_fract_z
Si Si1 0.729511 0.651229 0.540058
Si Si2 0.092808 0.280595 0.071640
Si Si3 0.996760 0.324256 0.516558
Si Si4 0.694931 0.316843 0.122349
Si Si5 0.219744 0.034680 0.732608
Si Si6 0.500000 0.000000 0.563756
Si Si7 0.623164 0.996782 0.162351
Si Si8 0.911132 0.928857 0.532302
O O1 0.775708 0.724293 0.483416
O O2 0.783900 0.578636 0.528766
O O3 0.710314 0.666701 0.714062
O O4 0.647583 0.628442 0.475700
O O5 0.158097 0.341904 0.109246
O O6 0.043576 0.251881 0.207863
O O7 0.131025 0.209027 0.991597
O O8 0.036701 0.323193 0.956384
O O9 0.971463 0.335528 0.687182
O O10 0.945902 0.271514 0.410652
O O11 0.000211 0.406729 0.444671
O O12 0.767644 0.267644 0.084004
O O13 0.719831 0.402858 0.139297
O O14 0.135037 0.038020 0.671242
O O15 0.562001 0.062001 0.210330
O O16 0.571898 0.928103 0.101487
O O17 0.997950 0.911027 0.573738
#
# Coordination Sequence:
#
# PCOD9555466 Si02
#       8
#     8   8   8   8   8   2   8   8
#     4  10  18  35  65  93 123 170 218 266 328 401
#     4  10  22  41  65  91 128 181 224 265 329 402
#     4  12  20  36  60 100 138 174 219 264 335 402
#     4   9  20  40  64  85 124 175 221 255 321 402
#     4  11  25  39  64 102 128 169 224 288 341 392
#     4  12  24  32  60 102 160 172 200 278 336 408
#     4  10  18  35  59  92 130 183 222 252 312 404
#     4  10  21  42  65  92 128 171 223 281 335 400
#
# _framework density 20.632808000000001
#
# number of rings (size 3 to 8) (size 9 to 14) (size 15 to 20)
#    0.000    1.655    4.828    0.000    1.931    0.552 
#    0.000    6.897    0.000    0.000    0.000    0.000 
#    0.000    0.000    0.000    0.000    0.000    0.000 
#
# Total GULP energy -322943.508398 kJ/mol
# GULP energy per Si atom -5567.991524 kJ/mol
# Density = 2.058585 g / cm^3
# Si number density = 20.632808 Si / 1000 Ang^3
#
#
#
# Elastic Constant Matrix: (Units=GPa)
#
#
# Indices 1 2 3 4 5 6 
#
# 1 119.7630 37.3919 14.5013 0.0000 0.0000 0.0000
# 2 37.3919 119.7632 14.5019 0.0000 0.0000 0.0000
# 3 14.5013 14.5019 28.6927 0.0000 0.0000 0.0000
# 4 0.0000 0.0000 0.0000 15.2981 0.0000 0.0000
# 5 0.0000 0.0000 0.0000 0.0000 15.2979 0.0000
# 6 0.0000 0.0000 0.0000 0.0000 0.0000 31.4674
#
#
#
# Elastic Compliance Matrix: (Units=1/GPa)
#
#
# Indices 1 2 3 4 5 6 
#
# 1 0.009579 -0.002561 -0.003547 0.000000 0.000000 0.000000
# 2 -0.002561 0.009579 -0.003547 0.000000 0.000000 0.000000
# 3 -0.003547 -0.003547 0.038437 0.000000 0.000000 0.000000
# 4 0.000000 0.000000 0.000000 0.065367 0.000000 0.000000
# 5 0.000000 0.000000 0.000000 0.000000 0.065368 0.000000
# 6 0.000000 0.000000 0.000000 0.000000 0.000000 0.031779
#
#
# Mechanical properties :
#
#
# Convention : Reuss Voigt Hill
#
# Bulk Modulus (GPa) = 26.11965 44.55658 35.33811
# Shear Modulus (GPa) = 19.82699 25.86761 22.84730
#
# Velocity S-wave (km/s) = 3.10327 3.54462 3.33126
# Velocity P-wave (km/s) = 5.05244 6.19632 5.65339
#
# Compressibility (1/GPa) = 0.03828536
#
# Stress axis : x y z
#
# Youngs Moduli (GPa) = 104.39579 104.39548 26.01641
#
# Poissons Ratio (x) = 0.26738 0.09227
# Poissons Ratio (y) = 0.26738 0.09228
# Poissons Ratio (z) = 0.37026 0.37029
#
# Static dielectric constant tensor:
#      x y z
#    x 1.775350 0.000000 0.000000 
#    y 0.000000 1.775350 0.000000 
#    z 0.000000 0.000000 1.767250 
# 
# From -- ./inp_files/1303.got.cif
#   From: 2010.05.17/outbox.cif.g08.bks.cpg/sg113_cif.got.tgz:1303.got - 2010.05.20 11:03:00.
