data_PCOD9555105
_publ_section_title
;
Structure prediction by ZEFSAII (Michael W. Deem and Ramdas Pophale) SiO2 
 PCOD9555105
Probable space group: P -4 2 C
;
_chemical_formula_sum "Si O2"
_cell_formula_units_Z 64
_cell_length_a 19.326817
_cell_length_b 19.326817
_cell_length_c 9.008602
_cell_angle_alpha 90.000000
_cell_angle_beta 90.000000
_cell_angle_gamma 90.000000
_cell_volume 3364.945768
_symmetry_space_group_name_H-M "P -4 2 C"
_symmetry_group_IT_number 112
_symmetry_cell_setting 'tetragonal'
loop_
_space_group_symop_operation_xyz
x,y,z
y,-x,-z
-x,-y,z
-y,x,-z
x,-y,1/2-z
-x,y,1/2-z
-y,-x,1/2+z
y,x,1/2+z
loop_
_atom_site_type_symbol
_atom_site_label
_atom_site_fract_x
_atom_site_fract_y
_atom_site_fract_z
Si Si1 0.258737 0.867843 0.125837
Si Si2 0.621416 0.025652 0.088710
Si Si3 0.786464 0.163561 0.441242
Si Si4 0.937660 0.295472 0.138815
Si Si5 0.847607 0.470976 0.489839
Si Si6 0.333836 0.281259 0.025216
Si Si7 0.178234 0.398289 0.316233
Si Si8 0.378492 0.249180 0.346129
O O1 0.305949 0.934476 0.113548
O O2 0.214368 0.863563 0.275073
O O3 0.206358 0.853076 0.992334
O O4 0.316664 0.807622 0.140310
O O5 0.597986 0.000000 0.250000
O O6 0.564081 0.078546 0.025581
O O7 0.646043 0.968034 0.972981
O O8 0.765216 0.099800 0.547290
O O9 0.725711 0.222066 0.453391
O O10 0.873275 0.334560 0.215661
O O11 0.000000 0.277226 0.250000
O O12 0.850925 0.550955 0.445674
O O13 0.818839 0.436675 0.339064
O O14 0.793327 0.447317 0.614601
O O15 0.374185 0.250647 0.883285
O O16 0.303203 0.354301 0.972417
O O17 0.374659 0.280051 0.180520
#
# Coordination Sequence:
#
# PCOD9555105 Si02
#       8
#     8   8   8   8   8   8   8   8
#     4   9  18  30  48  68  93 117 155 203 256 296
#     4  11  21  36  50  69 100 134 169 208 247 290
#     4   9  18  30  47  70  91 119 155 205 254 298
#     4  11  21  34  50  69  98 135 172 205 241 293
#     4  10  21  35  49  68 100 138 174 212 247 289
#     4   9  17  30  50  71  93 122 163 210 257 302
#     4  10  21  35  48  69 100 136 177 210 245 292
#     4   9  17  30  50  71  92 123 162 209 260 298
#
# _framework density 19.019624
#
# number of rings (size 3 to 8) (size 9 to 14) (size 15 to 20)
#    0.000    2.250    2.500    0.750    3.500    4.000 
#    0.000    0.625    0.000    0.000    0.000    0.000 
#    0.000    3.500    0.000    5.250    0.000    2.500 
#
# Total GULP energy -356803.554159 kJ/mol
# GULP energy per Si atom -5575.055534 kJ/mol
# Density = 1.897633 g / cm^3
# Si number density = 19.019624 Si / 1000 Ang^3
#
#
#
# Elastic Constant Matrix: (Units=GPa)
#
#
# Indices 1 2 3 4 5 6 
#
# 1 29.3144 28.1097 11.1772 0.0000 0.0000 0.0000
# 2 28.1097 29.3144 11.1772 0.0000 0.0000 0.0000
# 3 11.1772 11.1772 62.9326 0.0000 0.0000 0.0000
# 4 0.0000 0.0000 0.0000 24.9465 0.0000 0.0000
# 5 0.0000 0.0000 0.0000 0.0000 24.9465 0.0000
# 6 0.0000 0.0000 0.0000 0.0000 0.0000 7.8176
#
#
#
# Elastic Compliance Matrix: (Units=1/GPa)
#
#
# Indices 1 2 3 4 5 6 
#
# 1 0.424401 -0.405693 -0.003323 0.000000 0.000000 0.000000
# 2 -0.405693 0.424401 -0.003323 0.000000 0.000000 0.000000
# 3 -0.003323 -0.003323 0.017070 0.000000 0.000000 0.000000
# 4 0.000000 0.000000 0.000000 0.040086 0.000000 0.000000
# 5 0.000000 0.000000 0.000000 0.000000 0.040086 0.000000
# 6 0.000000 0.000000 0.000000 0.000000 0.000000 0.127916
#
#
# Mechanical properties :
#
#
# Convention : Reuss Voigt Hill
#
# Bulk Modulus (GPa) = 24.27462 24.72107 24.49784
# Shear Modulus (GPa) = 2.61456 16.28195 9.44826
#
# Velocity S-wave (km/s) = 1.17373 2.92903 2.23124
# Velocity P-wave (km/s) = 3.82459 4.94619 4.42110
#
# Compressibility (1/GPa) = 0.04119529
#
# Stress axis : x y z
#
# Youngs Moduli (GPa) = 2.35626 2.35626 58.58147
#
# Poissons Ratio (x) = 0.95592 0.19464
# Poissons Ratio (y) = 0.95592 0.19464
# Poissons Ratio (z) = 0.00783 0.00783
#
# Static dielectric constant tensor:
#      x y z
#    x 1.675930 0.000000 0.000000 
#    y 0.000000 1.675930 0.000000 
#    z 0.000000 0.000000 1.711850 
# 
# From -- ./inp_files/1654.got.cif
#   From: 2010.05.17/outbox.cif.g08.bks.cpg/sg112_1_cif.got.tgz:1654.got - 2010.05.20 10:59:04.
