data_PCOD9555530
_publ_section_title
;
Structure prediction by ZEFSAII (Michael W. Deem and Ramdas Pophale) SiO2 
 PCOD9555530
Probable space group: P -4 21 M 
;
_chemical_formula_sum "Si O2"
_cell_formula_units_Z 64
_cell_length_a 12.229850
_cell_length_b 12.229850
_cell_length_c 22.136092
_cell_angle_alpha 90.000000
_cell_angle_beta 90.000000
_cell_angle_gamma 90.000000
_cell_volume 3310.878258
_symmetry_space_group_name_H-M "P -4 21 M "
_symmetry_group_IT_number 113
_symmetry_cell_setting 'tetragonal'
loop_
_space_group_symop_operation_xyz
x,y,z
y,-x,-z
-x,-y,z
-y,x,-z
1/2+x,1/2-y,-z
1/2-x,1/2+y,-z
1/2-y,1/2-x,z
1/2+y,1/2+x,z
loop_
_atom_site_type_symbol
_atom_site_label
_atom_site_fract_x
_atom_site_fract_y
_atom_site_fract_z
Si Si1 0.137069 0.820163 0.244916
Si Si2 0.948509 0.722816 0.066884
Si Si3 0.130886 0.982609 0.353108
Si Si4 0.765972 0.903066 0.038451
Si Si5 0.096041 0.223797 0.203482
Si Si6 0.810462 0.134715 0.580332
Si Si7 0.300315 0.620332 0.446645
Si Si8 0.628672 0.505836 0.855211
O O1 0.217137 0.717137 0.250112
O O2 0.161975 0.911912 0.295202
O O3 0.008118 0.787698 0.247460
O O4 0.149934 0.885414 0.182239
O O5 0.893880 0.606121 0.052272
O O6 0.862299 0.814860 0.045130
O O7 0.952776 0.733608 0.139064
O O8 0.055616 0.747044 0.028942
O O9 0.161623 0.905289 0.409306
O O10 0.168835 0.105303 0.366801
O O11 0.000000 0.000000 0.351254
O O12 0.657327 0.842674 0.060318
O O13 0.799827 0.996875 0.084981
O O14 0.191007 0.308994 0.221270
O O15 0.142986 0.103267 0.186625
O O16 0.698489 0.198489 0.587280
O O17 0.866294 0.172346 0.517236
O O18 0.789738 0.005397 0.573698
O O19 0.194991 0.694991 0.432929
O O20 0.500000 0.500000 0.871877
#
# Coordination Sequence:
#
# PCOD9555530 Si02
#       8
#     8   8   8   8   8   8   8   8
#     4  11  23  38  58  88 118 151 192 239 291 349
#     4   9  20  34  52  80 111 143 183 235 293 350
#     4  10  20  37  62  85 116 155 199 239 284 343
#     4  10  21  34  52  79 109 143 186 235 285 342
#     4   9  19  39  62  83 110 147 192 244 298 350
#     4  10  20  35  59  89 120 160 200 240 292 340
#     4  10  19  34  58  89 125 158 195 245 290 337
#     4   9  19  36  56  80 108 150 196 236 279 337
#
# _framework density 19.330219
#
# number of rings (size 3 to 8) (size 9 to 14) (size 15 to 20)
#    0.000    2.250    1.250    2.625    5.250    1.750 
#    0.000    7.500    0.000    7.125    0.000    0.000 
#    0.000    0.000    0.000    0.000    0.000    0.000 
#
# Total GULP energy -356895.065655 kJ/mol
# GULP energy per Si atom -5576.485401 kJ/mol
# Density = 1.928622 g / cm^3
# Si number density = 19.330219 Si / 1000 Ang^3
#
#
#
# Elastic Constant Matrix: (Units=GPa)
#
#
# Indices 1 2 3 4 5 6 
#
# 1 65.2491 44.2272 8.5959 0.0000 0.0000 0.0000
# 2 44.2272 65.2483 8.5971 0.0000 0.0000 0.0000
# 3 8.5959 8.5971 26.4019 0.0000 0.0000 0.0000
# 4 0.0000 0.0000 0.0000 18.5648 0.0000 0.0000
# 5 0.0000 0.0000 0.0000 0.0000 18.5637 0.0000
# 6 0.0000 0.0000 0.0000 0.0000 0.0000 27.5296
#
#
#
# Elastic Compliance Matrix: (Units=1/GPa)
#
#
# Indices 1 2 3 4 5 6 
#
# 1 0.028598 -0.018972 -0.003133 0.000000 0.000000 0.000000
# 2 -0.018972 0.028599 -0.003136 0.000000 0.000000 0.000000
# 3 -0.003133 -0.003136 0.039917 0.000000 0.000000 0.000000
# 4 0.000000 0.000000 0.000000 0.053865 0.000000 0.000000
# 5 0.000000 0.000000 0.000000 0.000000 0.053869 0.000000
# 6 0.000000 0.000000 0.000000 0.000000 0.000000 0.036325
#
#
# Mechanical properties :
#
#
# Convention : Reuss Voigt Hill
#
# Bulk Modulus (GPa) = 21.44413 31.08218 26.26315
# Shear Modulus (GPa) = 16.27614 19.29691 17.78652
#
# Velocity S-wave (km/s) = 2.90488 3.16298 3.03667
# Velocity P-wave (km/s) = 4.72956 5.42713 5.09031
#
# Compressibility (1/GPa) = 0.04663281
#
# Stress axis : x y z
#
# Youngs Moduli (GPa) = 34.96738 34.96647 25.05181
#
# Poissons Ratio (x) = 0.66338 0.07849
# Poissons Ratio (y) = 0.66339 0.07855
# Poissons Ratio (z) = 0.10956 0.10964
#
# Static dielectric constant tensor:
#      x y z
#    x 1.681260 0.000000 0.000000 
#    y 0.000000 1.681260 0.000000 
#    z 0.000000 0.000000 1.727600 
# 
# From -- ./inp_files/2869.got.cif
#   From: 2010.05.17/outbox.cif.g08.bks.cpg/sg113_cif.got.tgz:2869.got - 2010.05.20 11:03:00.
