data_PCOD9555171
_publ_section_title
;
Structure prediction by ZEFSAII (Michael W. Deem and Ramdas Pophale) SiO2 
 PCOD9555171
Probable space group: P -4 2 C
;
_chemical_formula_sum "Si O2"
_cell_formula_units_Z 24
_cell_length_a 8.547263
_cell_length_b 8.547263
_cell_length_c 13.653739
_cell_angle_alpha 90.000000
_cell_angle_beta 90.000000
_cell_angle_gamma 90.000000
_cell_volume 997.483526
_symmetry_space_group_name_H-M "P -4 2 C"
_symmetry_group_IT_number 112
_symmetry_cell_setting 'tetragonal'
loop_
_space_group_symop_operation_xyz
x,y,z
y,-x,-z
-x,-y,z
-y,x,-z
x,-y,1/2-z
-x,y,1/2-z
-y,-x,1/2+z
y,x,1/2+z
loop_
_atom_site_type_symbol
_atom_site_label
_atom_site_fract_x
_atom_site_fract_y
_atom_site_fract_z
Si Si1 0.500000 0.500000 0.500000
Si Si2 0.000000 0.000000 0.250000
Si Si3 0.786332 0.313771 0.905112
Si Si4 0.000000 0.500000 0.250000
Si Si5 0.000000 0.500000 0.750000
Si Si6 0.258433 0.946663 0.611956
O O1 0.637277 0.581754 0.563818
O O2 0.902294 0.895868 0.327058
O O3 0.739660 0.135308 0.880762
O O4 0.887751 0.398770 0.821897
O O5 0.889746 0.284664 0.003435
O O6 0.892288 0.601105 0.320711
#
# Coordination Sequence:
#
# PCOD9555171 Si02
#       6
#     2   2   8   2   2   8
#     4  12  28  46  72 104 148 198 248 330 404 464
#     4  10  22  40  80 114 134 182 252 322 390 444
#     4  12  26  47  71 104 148 195 251 316 390 475
#     4  10  22  38  64  94 128 170 222 284 360 436
#     4  12  28  46  72 108 150 202 258 318 398 504
#     4  11  23  44  71 103 139 185 243 312 377 456
#
# _framework density 24.060547
#
# number of rings (size 3 to 8) (size 9 to 14) (size 15 to 20)
#    0.000    0.667    0.000    8.000    0.000   11.333 
#    0.000    0.000    0.000    0.000    0.000    0.000 
#    0.000    0.000    0.000    0.000    0.000    0.000 
#
# Total GULP energy -134253.507931 kJ/mol
# GULP energy per Si atom -5593.896164 kJ/mol
# Density = 2.400578 g / cm^3
# Si number density = 24.060547 Si / 1000 Ang^3
#
#
#
# Elastic Constant Matrix: (Units=GPa)
#
#
# Indices 1 2 3 4 5 6 
#
# 1 166.6775 59.3810 83.9961 0.0000 0.0000 0.0000
# 2 59.3810 166.6775 83.9961 0.0000 0.0000 0.0000
# 3 83.9961 83.9961 226.7499 0.0000 0.0000 0.0000
# 4 0.0000 0.0000 0.0000 43.3643 0.0000 0.0000
# 5 0.0000 0.0000 0.0000 0.0000 43.3643 0.0000
# 6 0.0000 0.0000 0.0000 0.0000 0.0000 34.0252
#
#
#
# Elastic Compliance Matrix: (Units=1/GPa)
#
#
# Indices 1 2 3 4 5 6 
#
# 1 0.007712 -0.001608 -0.002261 0.000000 0.000000 0.000000
# 2 -0.001608 0.007712 -0.002261 0.000000 0.000000 0.000000
# 3 -0.002261 -0.002261 0.006085 0.000000 0.000000 0.000000
# 4 0.000000 0.000000 0.000000 0.023060 0.000000 0.000000
# 5 0.000000 0.000000 0.000000 0.000000 0.023060 0.000000
# 6 0.000000 0.000000 0.000000 0.000000 0.000000 0.029390
#
#
# Mechanical properties :
#
#
# Convention : Reuss Voigt Hill
#
# Bulk Modulus (GPa) = 108.12247 112.76128 110.44188
# Shear Modulus (GPa) = 44.49842 46.33287 45.41565
#
# Velocity S-wave (km/s) = 4.30517 4.39302 4.34932
# Velocity P-wave (km/s) = 8.35152 8.52636 8.43939
#
# Compressibility (1/GPa) = 0.00924877
#
# Stress axis : x y z
#
# Youngs Moduli (GPa) = 129.66874 129.66874 164.32928
#
# Poissons Ratio (x) = 0.20851 0.37157
# Poissons Ratio (y) = 0.20851 0.37157
# Poissons Ratio (z) = 0.29320 0.29320
#
# Static dielectric constant tensor:
#      x y z
#    x 1.987330 0.000000 0.000000 
#    y 0.000000 1.987330 0.000000 
#    z 0.000000 0.000000 2.080570 
# 
# From -- ./inp_files/2965.got.cif
#   From: 2010.05.17/outbox.cif.g08.bks.cpg/sg112_2_cif.got.tgz:2965.got - 2010.05.20 10:59:04.
