data_PCOD9555789
_publ_section_title
;
Structure prediction by ZEFSAII (Michael W. Deem and Ramdas Pophale) SiO2 
 PCOD9555789
Probable space group: P -4 21 M 
;
_chemical_formula_sum "Si O2"
_cell_formula_units_Z 18
_cell_length_a 10.202560
_cell_length_b 10.202560
_cell_length_c 7.239283
_cell_angle_alpha 90.000000
_cell_angle_beta 90.000000
_cell_angle_gamma 90.000000
_cell_volume 753.553115
_symmetry_space_group_name_H-M "P -4 21 M "
_symmetry_group_IT_number 113
_symmetry_cell_setting 'tetragonal'
loop_
_space_group_symop_operation_xyz
x,y,z
y,-x,-z
-x,-y,z
-y,x,-z
1/2+x,1/2-y,-z
1/2-x,1/2+y,-z
1/2-y,1/2-x,z
1/2+y,1/2+x,z
loop_
_atom_site_type_symbol
_atom_site_label
_atom_site_fract_x
_atom_site_fract_y
_atom_site_fract_z
Si Si1 0.500000 0.000000 0.415260
Si Si2 0.519781 0.292411 0.540765
Si Si3 0.184858 0.895798 0.956044
O O1 0.500364 0.160006 0.433212
O O2 0.386274 0.374478 0.554050
O O3 0.567913 0.270997 0.749053
O O4 0.292134 0.792134 0.031047
O O5 0.038689 0.832641 0.949286
#
# Coordination Sequence:
#
# PCOD9555789 Si02
#       3
#     2   8   8
#     4  12  24  40  72 106 132 184 228 286 336 428
#     4  11  24  47  68 103 144 180 227 289 350 404
#     4  11  25  47  70 102 142 187 232 289 348 414
#
# _framework density 23.886835000000001
#
# number of rings (size 3 to 8) (size 9 to 14) (size 15 to 20)
#    0.000    0.889    2.222    6.667    3.111    0.889 
#   12.000    0.000    0.000    2.667    0.000    0.000 
#    0.000    0.000    0.000    0.000    0.000    0.000 
#
# Total GULP energy -100280.612560 kJ/mol
# GULP energy per Si atom -5571.145142 kJ/mol
# Density = 2.383247 g / cm^3
# Si number density = 23.886835 Si / 1000 Ang^3
#
#
#
# Elastic Constant Matrix: (Units=GPa)
#
#
# Indices 1 2 3 4 5 6 
#
# 1 177.3283 78.4620 -5.7781 0.0000 0.0000 0.0000
# 2 78.4620 177.3283 -5.7781 0.0000 0.0000 0.0000
# 3 -5.7781 -5.7781 36.6084 0.0000 0.0000 0.0000
# 4 0.0000 0.0000 0.0000 12.6848 0.0000 0.0000
# 5 0.0000 0.0000 0.0000 0.0000 12.6848 0.0000
# 6 0.0000 0.0000 0.0000 0.0000 0.0000 44.2846
#
#
#
# Elastic Compliance Matrix: (Units=1/GPa)
#
#
# Indices 1 2 3 4 5 6 
#
# 1 0.007026 -0.003089 0.000621 0.000000 0.000000 0.000000
# 2 -0.003089 0.007026 0.000621 0.000000 0.000000 0.000000
# 3 0.000621 0.000621 0.027512 0.000000 0.000000 0.000000
# 4 0.000000 0.000000 0.000000 0.078834 0.000000 0.000000
# 5 0.000000 0.000000 0.000000 0.000000 0.078834 0.000000
# 6 0.000000 0.000000 0.000000 0.000000 0.000000 0.022581
#
#
# Mechanical properties :
#
#
# Convention : Reuss Voigt Hill
#
# Bulk Modulus (GPa) = 26.40380 58.34184 42.37282
# Shear Modulus (GPa) = 20.99695 35.55480 28.27588
#
# Velocity S-wave (km/s) = 2.96804 3.86225 3.44429
# Velocity P-wave (km/s) = 4.77738 6.66083 5.79612
#
# Compressibility (1/GPa) = 0.03787333
#
# Stress axis : x y z
#
# Youngs Moduli (GPa) = 142.32649 142.32649 36.34731
#
# Poissons Ratio (x) = 0.43959 -0.02259
# Poissons Ratio (y) = 0.43959 -0.02259
# Poissons Ratio (z) = -0.08845 -0.08845
#
# Static dielectric constant tensor:
#      x y z
#    x 1.855590 0.000000 0.000000 
#    y 0.000000 1.855590 0.000000 
#    z 0.000000 0.000000 1.979520 
# 
# From -- ./inp_files/664.got.cif
#   From: 2010.05.17/outbox.cif.g08.bks.cpg/sg113_cif.got.tgz:664.got - 2010.05.20 11:03:00.
