data_PCOD9555740
_publ_section_title
;
Structure prediction by ZEFSAII (Michael W. Deem and Ramdas Pophale) SiO2 
 PCOD9555740
Probable space group: P -4 21 M 
;
_chemical_formula_sum "Si O2"
_cell_formula_units_Z 32
_cell_length_a 9.245484
_cell_length_b 9.245484
_cell_length_c 14.167267
_cell_angle_alpha 90.000000
_cell_angle_beta 90.000000
_cell_angle_gamma 90.000000
_cell_volume 1211.003453
_symmetry_space_group_name_H-M "P -4 21 M "
_symmetry_group_IT_number 113
_symmetry_cell_setting 'tetragonal'
loop_
_space_group_symop_operation_xyz
x,y,z
y,-x,-z
-x,-y,z
-y,x,-z
1/2+x,1/2-y,-z
1/2-x,1/2+y,-z
1/2-y,1/2-x,z
1/2+y,1/2+x,z
loop_
_atom_site_type_symbol
_atom_site_label
_atom_site_fract_x
_atom_site_fract_y
_atom_site_fract_z
Si Si1 0.784651 0.049344 0.536571
Si Si2 0.811033 0.063007 0.745013
Si Si3 0.759626 0.503579 0.048961
Si Si4 0.240742 0.491930 0.839235
O O1 0.635280 0.135280 0.517987
O O2 0.790033 0.991403 0.644212
O O3 0.914383 0.167525 0.527075
O O4 0.679657 0.179657 0.746350
O O5 0.800784 0.984006 0.845749
O O6 0.958970 0.153555 0.756480
O O7 0.840932 0.659068 0.048105
O O8 0.884583 0.384583 0.043268
O O9 0.688895 0.496702 0.944561
O O10 0.158127 0.341874 0.827489
O O11 0.114017 0.614017 0.839183
#
# Coordination Sequence:
#
# PCOD9555740 Si02
#       4
#     8   8   8   8
#     4  10  23  43  64  88 120 156 200 257 311 358
#     4   9  17  31  53  79 108 145 187 231 284 345
#     4   8  14  26  46  75 111 145 177 219 272 335
#     4   8  14  26  46  75 111 145 177 219 272 335
#
# _framework density 26.424368999999999
#
# number of rings (size 3 to 8) (size 9 to 14) (size 15 to 20)
#    0.000    3.250    0.000    1.500    0.000    2.500 
#    0.000   10.000    0.000    3.000    0.000    0.000 
#    0.000    0.000    0.000    0.000    0.000    0.000 
#
# Total GULP energy -178906.696669 kJ/mol
# GULP energy per Si atom -5590.834271 kJ/mol
# Density = 2.636423 g / cm^3
# Si number density = 26.424369 Si / 1000 Ang^3
#
#
#
# Elastic Constant Matrix: (Units=GPa)
#
#
# Indices 1 2 3 4 5 6 
#
# 1 65.5901 9.5021 9.0595 0.0000 0.0000 0.0000
# 2 9.5021 65.5895 9.0592 0.0000 0.0000 0.0000
# 3 9.0595 9.0592 116.3142 0.0000 0.0000 0.0000
# 4 0.0000 0.0000 0.0000 22.3596 0.0000 0.0000
# 5 0.0000 0.0000 0.0000 0.0000 22.3593 0.0000
# 6 0.0000 0.0000 0.0000 0.0000 0.0000 49.1620
#
#
#
# Elastic Compliance Matrix: (Units=1/GPa)
#
#
# Indices 1 2 3 4 5 6 
#
# 1 0.015701 -0.002129 -0.001057 0.000000 0.000000 0.000000
# 2 -0.002129 0.015701 -0.001057 0.000000 0.000000 0.000000
# 3 -0.001057 -0.001057 0.008762 0.000000 0.000000 0.000000
# 4 0.000000 0.000000 0.000000 0.044723 0.000000 0.000000
# 5 0.000000 0.000000 0.000000 0.000000 0.044724 0.000000
# 6 0.000000 0.000000 0.000000 0.000000 0.000000 0.020341
#
#
# Mechanical properties :
#
#
# Convention : Reuss Voigt Hill
#
# Bulk Modulus (GPa) = 31.56775 33.63725 32.60250
# Shear Modulus (GPa) = 29.58639 33.43440 31.51040
#
# Velocity S-wave (km/s) = 3.34977 3.56095 3.45697
# Velocity P-wave (km/s) = 5.18976 5.44650 5.31968
#
# Compressibility (1/GPa) = 0.03167790
#
# Stress axis : x y z
#
# Youngs Moduli (GPa) = 63.69189 63.69133 114.12833
#
# Poissons Ratio (x) = 0.13557 0.12065
# Poissons Ratio (y) = 0.13557 0.12064
# Poissons Ratio (z) = 0.06733 0.06733
#
# Static dielectric constant tensor:
#      x y z
#    x 2.131570 0.000000 0.000000 
#    y 0.000000 2.131570 0.000000 
#    z 0.000000 0.000000 1.955540 
# 
# From -- ./inp_files/1532.got.cif
#   From: 2010.05.17/outbox.cif.g08.bks.cpg/sg113_cif.got.tgz:1532.got - 2010.05.20 11:03:00.
