data_PCOD9555086
_publ_section_title
;
Structure prediction by ZEFSAII (Michael W. Deem and Ramdas Pophale) SiO2 
 PCOD9555086
Probable space group: P -4 2 C
;
_chemical_formula_sum "Si O2"
_cell_formula_units_Z 40
_cell_length_a 13.718013
_cell_length_b 13.718013
_cell_length_c 8.558711
_cell_angle_alpha 90.000000
_cell_angle_beta 90.000000
_cell_angle_gamma 90.000000
_cell_volume 1610.611449
_symmetry_space_group_name_H-M "P -4 2 C"
_symmetry_group_IT_number 112
_symmetry_cell_setting 'tetragonal'
loop_
_space_group_symop_operation_xyz
x,y,z
y,-x,-z
-x,-y,z
-y,x,-z
x,-y,1/2-z
-x,y,1/2-z
-y,-x,1/2+z
y,x,1/2+z
loop_
_atom_site_type_symbol
_atom_site_label
_atom_site_fract_x
_atom_site_fract_y
_atom_site_fract_z
Si Si1 0.000000 0.739709 0.250000
Si Si2 0.136452 0.631804 0.497323
Si Si3 0.500000 0.652143 0.250000
Si Si4 0.940017 0.848986 0.504436
Si Si5 0.365674 0.322311 0.955930
Si Si6 0.500000 0.804088 0.750000
Si Si7 0.304116 0.000000 0.250000
O O1 0.061179 0.685202 0.380852
O O2 0.082996 0.799152 0.158162
O O3 0.247631 0.672478 0.519064
O O4 0.142782 0.530582 0.407131
O O5 0.079399 0.633571 0.658707
O O6 0.426778 0.605470 0.122876
O O7 0.422502 0.697553 0.379234
O O8 0.940066 0.770128 0.638983
O O9 0.052401 0.881861 0.479507
O O10 0.406261 0.253316 0.817432
#
# Coordination Sequence:
#
# PCOD9555086 Si02
#       7
#     4   8   4   8   8   4   4
#     4  10  24  44  70 102 146 214 262 321 392 467
#     4  11  26  51  73 107 157 208 269 326 389 473
#     4  12  24  47  76 123 164 208 264 333 414 493
#     4  10  20  39  68 108 147 182 249 341 419 467
#     4  12  25  49  78 123 166 212 262 336 408 493
#     4  12  26  50  80 122 164 216 258 332 412 486
#     4  10  24  45  74 113 146 214 268 321 394 481
#
# _framework density 24.835287000000001
#
# number of rings (size 3 to 8) (size 9 to 14) (size 15 to 20)
#    0.000    1.000    4.000    1.200    0.000   11.600 
#    7.200    2.000    0.000    0.000    0.000    0.000 
#    0.000    0.000    0.000    0.000    0.000    0.000 
#
# Total GULP energy -222856.621833 kJ/mol
# GULP energy per Si atom -5571.415546 kJ/mol
# Density = 2.477876 g / cm^3
# Si number density = 24.835287 Si / 1000 Ang^3
#
#
#
# Elastic Constant Matrix: (Units=GPa)
#
#
# Indices 1 2 3 4 5 6 
#
# 1 100.5509 26.9592 49.5784 0.0000 0.0000 0.0000
# 2 26.9592 100.5509 49.5784 0.0000 0.0000 0.0000
# 3 49.5784 49.5784 163.4560 0.0000 0.0000 0.0000
# 4 0.0000 0.0000 0.0000 57.0256 0.0000 0.0000
# 5 0.0000 0.0000 0.0000 0.0000 57.0256 0.0000
# 6 0.0000 0.0000 0.0000 0.0000 0.0000 20.8638
#
#
#
# Elastic Compliance Matrix: (Units=1/GPa)
#
#
# Indices 1 2 3 4 5 6 
#
# 1 0.011926 -0.001663 -0.003113 0.000000 0.000000 0.000000
# 2 -0.001663 0.011926 -0.003113 0.000000 0.000000 0.000000
# 3 -0.003113 -0.003113 0.008006 0.000000 0.000000 0.000000
# 4 0.000000 0.000000 0.000000 0.017536 0.000000 0.000000
# 5 0.000000 0.000000 0.000000 0.000000 0.017536 0.000000
# 6 0.000000 0.000000 0.000000 0.000000 0.000000 0.047930
#
#
# Mechanical properties :
#
#
# Convention : Reuss Voigt Hill
#
# Bulk Modulus (GPa) = 62.18558 68.53220 65.35889
# Shear Modulus (GPa) = 36.76537 42.87910 39.82224
#
# Velocity S-wave (km/s) = 3.85173 4.15967 4.00866
# Velocity P-wave (km/s) = 6.69885 7.12216 6.91375
#
# Compressibility (1/GPa) = 0.01608090
#
# Stress axis : x y z
#
# Youngs Moduli (GPa) = 83.85110 83.85110 124.90198
#
# Poissons Ratio (x) = 0.13941 0.38882
# Poissons Ratio (y) = 0.13941 0.38882
# Poissons Ratio (z) = 0.26103 0.26103
#
# Static dielectric constant tensor:
#      x y z
#    x 2.018520 0.000000 0.000000 
#    y 0.000000 2.018520 0.000000 
#    z 0.000000 0.000000 2.025900 
# 
# From -- ./inp_files/1310.got.cif
#   From: 2010.05.17/outbox.cif.g08.bks.cpg/sg112_1_cif.got.tgz:1310.got - 2010.05.20 10:59:04.
