data_PCOD9555063
_publ_section_title
;
Structure prediction by ZEFSAII (Michael W. Deem and Ramdas Pophale) SiO2 
 PCOD9555063
Probable space group: P -4 2 C
;
_chemical_formula_sum "Si O2"
_cell_formula_units_Z 46
_cell_length_a 11.638080
_cell_length_b 11.638080
_cell_length_c 16.386642
_cell_angle_alpha 90.000000
_cell_angle_beta 90.000000
_cell_angle_gamma 90.000000
_cell_volume 2219.487187
_symmetry_space_group_name_H-M "P -4 2 C"
_symmetry_group_IT_number 112
_symmetry_cell_setting 'tetragonal'
loop_
_space_group_symop_operation_xyz
x,y,z
y,-x,-z
-x,-y,z
-y,x,-z
x,-y,1/2-z
-x,y,1/2-z
-y,-x,1/2+z
y,x,1/2+z
loop_
_atom_site_type_symbol
_atom_site_label
_atom_site_fract_x
_atom_site_fract_y
_atom_site_fract_z
Si Si1 0.415125 0.092629 0.582173
Si Si2 0.027004 0.821697 0.126459
Si Si3 0.570866 0.347019 0.962047
Si Si4 0.000000 0.000000 0.500000
Si Si5 0.500000 0.792535 0.750000
Si Si6 0.684759 0.624428 0.712017
Si Si7 0.808325 0.127618 0.270371
O O1 0.299170 0.023561 0.598892
O O2 0.402074 0.211492 0.532859
O O3 0.465054 0.133262 0.671039
O O4 0.500000 0.000000 0.543387
O O5 0.914815 0.881270 0.167218
O O6 0.128444 0.814902 0.192225
O O7 0.061987 0.902679 0.052737
O O8 0.616242 0.385197 0.873151
O O9 0.434931 0.368162 0.975403
O O10 0.604592 0.705792 0.767912
O O11 0.705446 0.500000 0.750000
O O12 0.796714 0.702930 0.698613
O O13 0.769528 0.000000 0.250000
#
# Coordination Sequence:
#
# PCOD9555063 Si02
#       7
#     8   8   8   2   4   8   8
#     4  11  23  39  65  99 132 169 226 293 340 399
#     4  11  22  42  67  99 134 173 228 278 337 413
#     4  10  24  44  64  91 141 183 223 278 351 422
#     4  12  24  42  68  96 132 190 220 264 352 438
#     4  10  20  36  66  96 130 160 228 288 338 388
#     4  11  24  41  71 102 128 176 238 285 343 411
#     4  11  21  44  71  99 132 178 224 290 339 404
#
# _framework density 20.725508000000001
#
# number of rings (size 3 to 8) (size 9 to 14) (size 15 to 20)
#    0.000    1.217    5.217    2.087   12.174    1.739 
#    3.130    0.000    0.000    0.000    0.000    0.000 
#    0.000    0.000    0.000    0.000    0.000    0.000 
#
# Total GULP energy -256838.734756 kJ/mol
# GULP energy per Si atom -5583.450756 kJ/mol
# Density = 2.067834 g / cm^3
# Si number density = 20.725508 Si / 1000 Ang^3
#
#
#
# Elastic Constant Matrix: (Units=GPa)
#
#
# Indices 1 2 3 4 5 6 
#
# 1 115.8574 30.2631 28.6325 0.0000 0.0000 0.0000
# 2 30.2631 115.8574 28.6325 0.0000 0.0000 0.0000
# 3 28.6325 28.6325 60.8709 0.0000 0.0000 0.0000
# 4 0.0000 0.0000 0.0000 12.2245 0.0000 0.0000
# 5 0.0000 0.0000 0.0000 0.0000 12.2245 0.0000
# 6 0.0000 0.0000 0.0000 0.0000 0.0000 32.5269
#
#
#
# Elastic Compliance Matrix: (Units=1/GPa)
#
#
# Indices 1 2 3 4 5 6 
#
# 1 0.010037 -0.001646 -0.003947 0.000000 0.000000 0.000000
# 2 -0.001646 0.010037 -0.003947 0.000000 0.000000 0.000000
# 3 -0.003947 -0.003947 0.020141 0.000000 0.000000 0.000000
# 4 0.000000 0.000000 0.000000 0.081803 0.000000 0.000000
# 5 0.000000 0.000000 0.000000 0.000000 0.081803 0.000000
# 6 0.000000 0.000000 0.000000 0.000000 0.000000 0.030744
#
#
# Mechanical properties :
#
#
# Convention : Reuss Voigt Hill
#
# Bulk Modulus (GPa) = 47.31452 51.96020 49.63736
# Shear Modulus (GPa) = 19.17995 25.06568 22.12281
#
# Velocity S-wave (km/s) = 3.04538 3.48143 3.27068
# Velocity P-wave (km/s) = 5.93671 6.42539 6.18587
#
# Compressibility (1/GPa) = 0.02113516
#
# Stress axis : x y z
#
# Youngs Moduli (GPa) = 99.63440 99.63440 49.64979
#
# Poissons Ratio (x) = 0.16403 0.19595
# Poissons Ratio (y) = 0.16403 0.19595
# Poissons Ratio (z) = 0.39322 0.39322
#
# Static dielectric constant tensor:
#      x y z
#    x 1.763350 0.000000 0.000000 
#    y 0.000000 1.763350 0.000000 
#    z 0.000000 0.000000 1.799160 
# 
# From -- ./inp_files/4177.got.cif
#   From: 2010.05.17/outbox.cif.g08.bks.cpg/sg112_3_cif.got.tgz:4177.got - 2010.05.20 10:59:04.
