data_PCOD9555926
_publ_section_title
;
Structure prediction by ZEFSAII (Michael W. Deem and Ramdas Pophale) SiO2 
 PCOD9555926
Probable space group: P -4 21 C
;
_chemical_formula_sum "Si O2"
_cell_formula_units_Z 48
_cell_length_a 12.874331
_cell_length_b 12.874331
_cell_length_c 15.227268
_cell_angle_alpha 90.000000
_cell_angle_beta 90.000000
_cell_angle_gamma 90.000000
_cell_volume 2523.895288
_symmetry_space_group_name_H-M "P -4 21 C"
_symmetry_group_IT_number 114
_symmetry_cell_setting 'tetragonal'
loop_
_space_group_symop_operation_xyz
x,y,z
y,-x,-z
-x,-y,z
-y,x,-z
1/2+x,1/2-y,1/2-z
1/2-x,1/2+y,1/2-z
1/2-y,1/2-x,1/2+z
1/2+y,1/2+x,1/2+z
loop_
_atom_site_type_symbol
_atom_site_label
_atom_site_fract_x
_atom_site_fract_y
_atom_site_fract_z
Si Si1 0.125326 0.613676 0.979983
Si Si2 0.170952 0.380501 0.679901
Si Si3 0.119499 0.670952 0.179901
Si Si4 0.880835 0.776082 0.833773
Si Si5 0.380835 0.276082 0.666227
Si Si6 0.874675 0.613676 0.979983
O O1 0.156836 0.707069 0.916743
O O2 0.165523 0.500000 0.952528
O O3 0.000000 0.611325 0.971990
O O4 0.146843 0.632215 0.082254
O O5 0.143189 0.500000 0.698444
O O6 0.125049 0.302294 0.751302
O O7 0.295620 0.364712 0.680409
O O8 0.132214 0.353158 0.582254
O O9 0.135288 0.795620 0.180409
O O10 0.197707 0.625049 0.251301
O O11 0.843164 0.707069 0.916744
O O12 0.000000 0.810254 0.846737
#
# Coordination Sequence:
#
# PCOD9555926 Si02
#       6
#     8   8   8   8   8   8
#     4   9  17  30  49  71  95 125 161 201 244 289
#     4  10  20  33  50  73 100 131 168 208 251 299
#     4  10  20  33  50  73 100 131 168 208 251 299
#     4  10  20  33  50  73 100 131 168 208 251 299
#     4  10  20  33  50  73 100 131 168 208 251 299
#     4   9  17  30  49  71  95 125 161 201 244 289
#
# _framework density 19.018221
#
# number of rings (size 3 to 8) (size 9 to 14) (size 15 to 20)
#    0.000    2.333    0.000    3.000    0.000    4.000 
#    0.000    0.000    0.000    6.000    0.000    0.000 
#    0.000   24.000    0.000    0.000    0.000    0.000 
#
# Total GULP energy -267757.041126 kJ/mol
# GULP energy per Si atom -5578.271690 kJ/mol
# Density = 1.897493 g / cm^3
# Si number density = 19.018221 Si / 1000 Ang^3
#
#
#
# Elastic Constant Matrix: (Units=GPa)
#
#
# Indices 1 2 3 4 5 6 
#
# 1 47.1977 -1.1201 -10.8058 0.0000 0.0000 0.0000
# 2 -1.1201 47.1977 -10.8058 0.0000 0.0000 0.0000
# 3 -10.8058 -10.8058 59.4753 0.0000 0.0000 0.0000
# 4 0.0000 0.0000 0.0000 21.9811 0.0000 0.0000
# 5 0.0000 0.0000 0.0000 0.0000 21.9811 0.0000
# 6 0.0000 0.0000 0.0000 0.0000 0.0000 -3.1294
#
#
#
# Elastic Compliance Matrix: (Units=1/GPa)
#
#
# Indices 1 2 3 4 5 6 
#
# 1 0.022210 0.001514 0.004310 0.000000 0.000000 0.000000
# 2 0.001514 0.022210 0.004310 0.000000 0.000000 0.000000
# 3 0.004310 0.004310 0.018380 0.000000 0.000000 0.000000
# 4 0.000000 0.000000 0.000000 0.045494 0.000000 0.000000
# 5 0.000000 0.000000 0.000000 0.000000 0.045494 0.000000
# 6 0.000000 0.000000 0.000000 0.000000 0.000000 -0.319550
#
#
# Mechanical properties :
#
#
# Convention : Reuss Voigt Hill
#
# Bulk Modulus (GPa) = 12.03808 12.04525 12.04167
# Shear Modulus (GPa) = -31.57737 19.94004 -5.81866
#
# Velocity S-wave (km/s) = -4.07919 3.24152 -1.75105
# Velocity P-wave (km/s) = 3.98031 4.51190 1.50239
#
# Compressibility (1/GPa) = 0.08306971
#
# Stress axis : x y z
#
# Youngs Moduli (GPa) = 45.02430 45.02430 54.40705
#
# Poissons Ratio (x) = -0.06816 -0.23451
# Poissons Ratio (y) = -0.06816 -0.23451
# Poissons Ratio (z) = -0.19407 -0.19407
#
# Static dielectric constant tensor:
#      x y z
#    x 1.658340 0.000000 0.000000 
#    y 0.000000 1.658340 0.000000 
#    z 0.000000 0.000000 1.666190 
# 
# From -- ./inp_files/1664.got.cif
#   From: 2010.05.17/outbox.cif.g08.bks.cpg/sg114_1_cif.got.tgz:1664.got - 2010.05.20 11:04:54.
