data_PCOD9555939
_publ_section_title
;
Structure prediction by ZEFSAII (Michael W. Deem and Ramdas Pophale) SiO2 
 PCOD9555939
Probable space group: P -4 21 C
;
_chemical_formula_sum "Si O2"
_cell_formula_units_Z 60
_cell_length_a 14.246720
_cell_length_b 14.246720
_cell_length_c 16.850608
_cell_angle_alpha 90.000000
_cell_angle_beta 90.000000
_cell_angle_gamma 90.000000
_cell_volume 3420.151573
_symmetry_space_group_name_H-M "P -4 21 C"
_symmetry_group_IT_number 114
_symmetry_cell_setting 'tetragonal'
loop_
_space_group_symop_operation_xyz
x,y,z
y,-x,-z
-x,-y,z
-y,x,-z
1/2+x,1/2-y,1/2-z
1/2-x,1/2+y,1/2-z
1/2-y,1/2-x,1/2+z
1/2+y,1/2+x,1/2+z
loop_
_atom_site_type_symbol
_atom_site_label
_atom_site_fract_x
_atom_site_fract_y
_atom_site_fract_z
Si Si1 0.610239 0.862032 0.909014
Si Si2 0.609779 0.909079 0.581878
Si Si3 0.686491 0.524570 0.060361
Si Si4 0.438398 0.636407 0.124278
Si Si5 0.143328 0.802254 0.338584
Si Si6 0.500000 0.000000 0.294949
Si Si7 0.259564 0.755958 0.178779
Si Si8 0.579469 0.107664 0.654058
O O1 0.540289 0.776210 0.927766
O O2 0.705383 0.816604 0.876678
O O3 0.560846 0.929071 0.846416
O O4 0.619449 0.912689 0.992776
O O5 0.708352 0.871128 0.610862
O O6 0.527655 0.868302 0.636077
O O7 0.607763 0.022142 0.595292
O O8 0.601307 0.467092 0.102438
O O9 0.695229 0.621253 0.107284
O O10 0.672400 0.542971 0.966613
O O11 0.536132 0.656515 0.170834
O O12 0.353035 0.688926 0.171006
O O13 0.205152 0.776175 0.261463
O O14 0.442130 0.927433 0.239683
O O15 0.304311 0.853538 0.150372
#
# Coordination Sequence:
#
# PCOD9555939 Si02
#       8
#     8   8   8   8   8   4   8   8
#     4  11  21  36  57  89 120 151 201 243 301 364
#     4  10  20  36  60  79 112 156 196 246 289 350
#     4  11  21  36  60  92 119 155 197 258 311 370
#     4  11  21  37  61  88 124 154 198 255 312 364
#     4  12  21  35  58  86 123 155 196 246 312 360
#     4  10  20  34  58  84 118 154 194 244 296 364
#     4  11  23  36  56  86 123 157 194 243 301 371
#     4  10  20  38  56  80 118 157 192 243 303 346
#
# _framework density 17.543082999999999
#
# number of rings (size 3 to 8) (size 9 to 14) (size 15 to 20)
#    0.000    1.333    4.000    4.400    0.000    1.067 
#    0.000    1.333    0.000    0.000    0.000    0.000 
#    0.000    0.000    0.000    0.000    0.000    0.000 
#
# Total GULP energy -334382.754245 kJ/mol
# GULP energy per Si atom -5573.045904 kJ/mol
# Density = 1.750315 g / cm^3
# Si number density = 17.543083 Si / 1000 Ang^3
#
#
#
# Elastic Constant Matrix: (Units=GPa)
#
#
# Indices 1 2 3 4 5 6 
#
# 1 72.3182 21.1842 40.9918 0.0000 0.0000 0.0000
# 2 21.1842 72.3182 40.9918 0.0000 0.0000 0.0000
# 3 40.9918 40.9918 93.6473 0.0000 0.0000 0.0000
# 4 0.0000 0.0000 0.0000 12.4959 0.0000 0.0000
# 5 0.0000 0.0000 0.0000 0.0000 12.4959 0.0000
# 6 0.0000 0.0000 0.0000 0.0000 0.0000 35.6654
#
#
#
# Elastic Compliance Matrix: (Units=1/GPa)
#
#
# Indices 1 2 3 4 5 6 
#
# 1 0.018456 -0.001100 -0.007597 0.000000 0.000000 0.000000
# 2 -0.001100 0.018456 -0.007597 0.000000 0.000000 0.000000
# 3 -0.007597 -0.007597 0.017329 0.000000 0.000000 0.000000
# 4 0.000000 0.000000 0.000000 0.080026 0.000000 0.000000
# 5 0.000000 0.000000 0.000000 0.000000 0.080026 0.000000
# 6 0.000000 0.000000 0.000000 0.000000 0.000000 0.028038
#
#
# Mechanical properties :
#
#
# Convention : Reuss Voigt Hill
#
# Bulk Modulus (GPa) = 46.18336 49.40216 47.79276
# Shear Modulus (GPa) = 17.72173 21.13918 19.43045
#
# Velocity S-wave (km/s) = 3.18179 3.47506 3.33165
# Velocity P-wave (km/s) = 6.31516 6.65755 6.48861
#
# Compressibility (1/GPa) = 0.02165282
#
# Stress axis : x y z
#
# Youngs Moduli (GPa) = 54.18185 54.18185 57.70542
#
# Poissons Ratio (x) = 0.05961 0.43840
# Poissons Ratio (y) = 0.05961 0.43840
# Poissons Ratio (z) = 0.41163 0.41163
#
# Static dielectric constant tensor:
#      x y z
#    x 1.627170 0.000000 0.000000 
#    y 0.000000 1.627170 0.000000 
#    z 0.000000 0.000000 1.601750 
# 
# From -- ./inp_files/2294.got.cif
#   From: 2010.05.17/outbox.cif.g08.bks.cpg/sg114_2_cif.got.tgz:2294.got - 2010.05.20 11:04:54.
