data_PCOD9555177
_publ_section_title
;
Structure prediction by ZEFSAII (Michael W. Deem and Ramdas Pophale) SiO2 
 PCOD9555177
Probable space group: P -4 2 C
;
_chemical_formula_sum "Si O2"
_cell_formula_units_Z 54
_cell_length_a 11.475065
_cell_length_b 11.475065
_cell_length_c 21.566578
_cell_angle_alpha 90.000000
_cell_angle_beta 90.000000
_cell_angle_gamma 90.000000
_cell_volume 2839.824809
_symmetry_space_group_name_H-M "P -4 2 C"
_symmetry_group_IT_number 112
_symmetry_cell_setting 'tetragonal'
loop_
_space_group_symop_operation_xyz
x,y,z
y,-x,-z
-x,-y,z
-y,x,-z
x,-y,1/2-z
-x,y,1/2-z
-y,-x,1/2+z
y,x,1/2+z
loop_
_atom_site_type_symbol
_atom_site_label
_atom_site_fract_x
_atom_site_fract_y
_atom_site_fract_z
Si Si1 0.238045 0.864921 0.872585
Si Si2 0.192651 0.000000 0.750000
Si Si3 0.619294 0.054363 0.989990
Si Si4 0.622219 0.287088 0.314063
Si Si5 0.043146 0.158197 0.534361
Si Si6 0.500000 0.500000 0.250000
Si Si7 0.119492 0.743086 0.716759
Si Si8 0.563297 0.126128 0.116215
O O1 0.279418 0.735002 0.857431
O O2 0.105094 0.866665 0.899945
O O3 0.252417 0.944883 0.811597
O O4 0.311756 0.904497 0.930844
O O5 0.131087 0.117472 0.776256
O O6 0.586273 0.146334 0.043555
O O7 0.500000 0.000000 0.968532
O O8 0.704507 0.960629 0.023067
O O9 0.577645 0.412976 0.292068
O O10 0.672721 0.219028 0.253957
O O11 0.518606 0.217284 0.348138
O O12 0.112038 0.087778 0.479601
O O13 0.119757 0.689205 0.648821
O O14 0.000000 0.708970 0.750000
O O15 0.500000 0.000000 0.121236
#
# Coordination Sequence:
#
# PCOD9555177 Si02
#       8
#     8   4   8   8   8   2   8   8
#     4  10  22  45  60  90 132 174 213 269 320 395
#     4  10  25  38  59  96 140 169 206 247 326 400
#     4  10  22  39  61  90 126 172 213 259 324 397
#     4  11  23  42  64  92 124 160 224 272 331 394
#     4   9  19  37  64  91 128 170 206 260 325 390
#     4  12  24  44  66  92 120 172 224 286 348 384
#     4  11  21  38  62  99 132 163 197 267 322 395
#     4  11  20  36  68  96 122 160 213 273 334 378
#
# _framework density 19.015256999999998
#
# number of rings (size 3 to 8) (size 9 to 14) (size 15 to 20)
#    0.000    1.630    2.963    2.000    2.074    5.926 
#   10.667    4.444    0.000    0.000    0.000    0.000 
#    0.000    0.000    0.000    0.000    0.000    0.000 
#
# Total GULP energy -300869.979369 kJ/mol
# GULP energy per Si atom -5571.666285 kJ/mol
# Density = 1.897198 g / cm^3
# Si number density = 19.015257 Si / 1000 Ang^3
#
#
#
# Elastic Constant Matrix: (Units=GPa)
#
#
# Indices 1 2 3 4 5 6 
#
# 1 104.7119 36.4818 43.2449 0.0000 0.0000 0.0000
# 2 36.4818 104.7119 43.2449 0.0000 0.0000 0.0000
# 3 43.2449 43.2449 112.1060 0.0000 0.0000 0.0000
# 4 0.0000 0.0000 0.0000 27.0197 0.0000 0.0000
# 5 0.0000 0.0000 0.0000 0.0000 27.0197 0.0000
# 6 0.0000 0.0000 0.0000 0.0000 0.0000 -30.9992
#
#
#
# Elastic Compliance Matrix: (Units=1/GPa)
#
#
# Indices 1 2 3 4 5 6 
#
# 1 0.011965 -0.002691 -0.003577 0.000000 0.000000 0.000000
# 2 -0.002691 0.011965 -0.003577 0.000000 0.000000 0.000000
# 3 -0.003577 -0.003577 0.011680 0.000000 0.000000 0.000000
# 4 0.000000 0.000000 0.000000 0.037010 0.000000 0.000000
# 5 0.000000 0.000000 0.000000 0.000000 0.037010 0.000000
# 6 0.000000 0.000000 0.000000 0.000000 0.000000 -0.032259
#
#
# Mechanical properties :
#
#
# Convention : Reuss Voigt Hill
#
# Bulk Modulus (GPa) = 62.82110 63.05256 62.93683
# Shear Modulus (GPa) = 48.84268 17.84524 33.34396
#
# Velocity S-wave (km/s) = 5.07364 3.06677 4.19207
# Velocity P-wave (km/s) = 8.21166 6.76543 7.52338
#
# Compressibility (1/GPa) = 0.01591822
#
# Stress axis : x y z
#
# Youngs Moduli (GPa) = 83.57665 83.57665 85.61582
#
# Poissons Ratio (x) = 0.22492 0.30628
# Poissons Ratio (y) = 0.22492 0.30628
# Poissons Ratio (z) = 0.29899 0.29899
#
# Static dielectric constant tensor:
#      x y z
#    x 1.681420 0.000000 0.000000 
#    y 0.000000 1.681420 0.000000 
#    z 0.000000 0.000000 1.775080 
# 
# From -- ./inp_files/4962.got.cif
#   From: 2010.05.17/outbox.cif.g08.bks.cpg/sg112_3_cif.got.tgz:4962.got - 2010.05.20 10:59:04.
