data_PCOD9555896
_publ_section_title
;
Structure prediction by ZEFSAII (Michael W. Deem and Ramdas Pophale) SiO2 
 PCOD9555896
Probable space group: P -4 21 C
;
_chemical_formula_sum "Si O2"
_cell_formula_units_Z 48
_cell_length_a 11.605204
_cell_length_b 11.605204
_cell_length_c 15.767466
_cell_angle_alpha 90.000000
_cell_angle_beta 90.000000
_cell_angle_gamma 90.000000
_cell_volume 2123.574302
_symmetry_space_group_name_H-M "P -4 21 C"
_symmetry_group_IT_number 114
_symmetry_cell_setting 'tetragonal'
loop_
_space_group_symop_operation_xyz
x,y,z
y,-x,-z
-x,-y,z
-y,x,-z
1/2+x,1/2-y,1/2-z
1/2-x,1/2+y,1/2-z
1/2-y,1/2-x,1/2+z
1/2+y,1/2+x,1/2+z
loop_
_atom_site_type_symbol
_atom_site_label
_atom_site_fract_x
_atom_site_fract_y
_atom_site_fract_z
Si Si1 0.757418 0.723482 0.597707
Si Si2 0.725384 0.526345 0.808963
Si Si3 0.351455 0.749395 0.711272
Si Si4 0.611879 0.931495 0.154439
Si Si5 0.340891 0.435916 0.983636
Si Si6 0.371489 0.505661 0.637739
O O1 0.817990 0.756233 0.688717
O O2 0.642258 0.803023 0.594632
O O3 0.848255 0.751447 0.524251
O O4 0.714041 0.590148 0.599054
O O5 0.763826 0.656151 0.822504
O O6 0.837903 0.451062 0.784016
O O7 0.695679 0.489051 0.902695
O O8 0.629668 0.527200 0.738029
O O9 0.477642 0.805810 0.701083
O O10 0.339863 0.639086 0.650508
O O11 0.500000 0.000000 0.116896
O O12 0.373814 0.541140 0.045590
O O13 0.500000 0.500000 0.602079
#
# Coordination Sequence:
#
# PCOD9555896 Si02
#       6
#     8   8   8   8   8   8
#     4  11  22  38  60  97 129 160 216 264 321 383
#     4  10  22  38  60  88 127 169 205 256 320 381
#     4  10  21  37  62  88 124 166 209 260 315 375
#     4  10  19  36  58  85 123 169 205 250 321 382
#     4  11  23  38  63  93 126 160 206 261 319 382
#     4  11  21  35  64  95 122 160 212 265 314 373
#
# _framework density 22.603401999999999
#
# number of rings (size 3 to 8) (size 9 to 14) (size 15 to 20)
#    0.000    1.500    5.000    0.000    4.667    0.000 
#    0.000    3.333    0.000    0.000    0.000    0.000 
#    0.000    0.000    0.000    0.000    0.000    0.000 
#
# Total GULP energy -267289.617193 kJ/mol
# GULP energy per Si atom -5568.533692 kJ/mol
# Density = 2.255196 g / cm^3
# Si number density = 22.603402 Si / 1000 Ang^3
#
#
#
# Elastic Constant Matrix: (Units=GPa)
#
#
# Indices 1 2 3 4 5 6 
#
# 1 126.8803 48.2931 9.3067 0.0000 0.0000 0.0000
# 2 48.2931 126.8803 9.3067 0.0000 0.0000 0.0000
# 3 9.3067 9.3067 27.5331 0.0000 0.0000 0.0000
# 4 0.0000 0.0000 0.0000 12.0733 0.0000 0.0000
# 5 0.0000 0.0000 0.0000 0.0000 12.0733 0.0000
# 6 0.0000 0.0000 0.0000 0.0000 0.0000 42.7467
#
#
#
# Elastic Compliance Matrix: (Units=1/GPa)
#
#
# Indices 1 2 3 4 5 6 
#
# 1 0.009323 -0.003402 -0.002002 0.000000 0.000000 0.000000
# 2 -0.003402 0.009323 -0.002002 0.000000 0.000000 0.000000
# 3 -0.002002 -0.002002 0.037673 0.000000 0.000000 0.000000
# 4 0.000000 0.000000 0.000000 0.082828 0.000000 0.000000
# 5 0.000000 0.000000 0.000000 0.000000 0.082828 0.000000
# 6 0.000000 0.000000 0.000000 0.000000 0.000000 0.023394
#
#
# Mechanical properties :
#
#
# Convention : Reuss Voigt Hill
#
# Bulk Modulus (GPa) = 24.09085 46.12298 35.10691
# Shear Modulus (GPa) = 18.24726 27.67113 22.95920
#
# Velocity S-wave (km/s) = 2.84435 3.50266 3.19053
# Velocity P-wave (km/s) = 4.63339 6.06694 5.39797
#
# Compressibility (1/GPa) = 0.04150954
#
# Stress axis : x y z
#
# Youngs Moduli (GPa) = 107.26147 107.26147 26.54421
#
# Poissons Ratio (x) = 0.36487 0.05313
# Poissons Ratio (y) = 0.36487 0.05313
# Poissons Ratio (z) = 0.21469 0.21469
#
# Static dielectric constant tensor:
#      x y z
#    x 1.912920 0.000000 0.000000 
#    y 0.000000 1.912920 0.000000 
#    z 0.000000 0.000000 1.924460 
# 
# From -- ./inp_files/2634.got.cif
#   From: 2010.05.17/outbox.cif.g08.bks.cpg/sg114_2_cif.got.tgz:2634.got - 2010.05.20 11:04:54.
