data_PCOD9555238
_publ_section_title
;
Structure prediction by ZEFSAII (Michael W. Deem and Ramdas Pophale) SiO2 
 PCOD9555238
Probable space group: P -4 2 C
;
_chemical_formula_sum "Si O2"
_cell_formula_units_Z 34
_cell_length_a 8.242532
_cell_length_b 8.242532
_cell_length_c 22.636943
_cell_angle_alpha 90.000000
_cell_angle_beta 90.000000
_cell_angle_gamma 90.000000
_cell_volume 1537.938826
_symmetry_space_group_name_H-M "P -4 2 C"
_symmetry_group_IT_number 112
_symmetry_cell_setting 'tetragonal'
loop_
_space_group_symop_operation_xyz
x,y,z
y,-x,-z
-x,-y,z
-y,x,-z
x,-y,1/2-z
-x,y,1/2-z
-y,-x,1/2+z
y,x,1/2+z
loop_
_atom_site_type_symbol
_atom_site_label
_atom_site_fract_x
_atom_site_fract_y
_atom_site_fract_z
Si Si1 0.901990 0.294813 0.808100
Si Si2 0.579387 0.324101 0.394377
Si Si3 0.314001 0.948636 0.945555
Si Si4 0.124874 0.267215 0.922730
Si Si5 0.000000 0.000000 0.250000
O O1 0.746198 0.392992 0.828325
O O2 0.000000 0.346131 0.750000
O O3 0.012834 0.296592 0.866238
O O4 0.882299 0.107111 0.790790
O O5 0.500000 0.500000 0.392670
O O6 0.435186 0.226133 0.426605
O O7 0.759775 0.307658 0.423578
O O8 0.215301 0.094779 0.914065
O O9 0.500000 0.000000 0.941005
O O10 0.259201 0.958996 0.013773
#
# Coordination Sequence:
#
# PCOD9555238 Si02
#       5
#     8   8   8   8   2
#     4  10  23  46  75 103 145 196 255 320 375 456
#     4  12  26  45  75 109 151 199 251 320 396 467
#     4  12  25  45  72 112 159 198 254 320 394 466
#     4  12  25  45  73 111 148 203 253 312 387 468
#     4   8  20  44  78 104 140 190 258 316 364 448
#
# _framework density 22.107513000000001
#
# number of rings (size 3 to 8) (size 9 to 14) (size 15 to 20)
#    0.706    0.000    2.353    6.353    0.000    4.235 
#    0.000    2.353    0.000    2.824    0.000    0.000 
#    0.000    0.000    0.000    0.000    0.000    0.000 
#
# Total GULP energy -189570.324339 kJ/mol
# GULP energy per Si atom -5575.597775 kJ/mol
# Density = 2.205720 g / cm^3
# Si number density = 22.107513 Si / 1000 Ang^3
#
#
#
# Elastic Constant Matrix: (Units=GPa)
#
#
# Indices 1 2 3 4 5 6 
#
# 1 143.8970 55.3417 43.1903 0.0000 0.0000 0.0000
# 2 55.3417 143.8970 43.1903 0.0000 0.0000 0.0000
# 3 43.1903 43.1903 115.6807 0.0000 0.0000 0.0000
# 4 0.0000 0.0000 0.0000 48.1939 0.0000 0.0000
# 5 0.0000 0.0000 0.0000 0.0000 48.1939 0.0000
# 6 0.0000 0.0000 0.0000 0.0000 0.0000 21.2007
#
#
#
# Elastic Compliance Matrix: (Units=1/GPa)
#
#
# Indices 1 2 3 4 5 6 
#
# 1 0.008640 -0.002652 -0.002236 0.000000 0.000000 0.000000
# 2 -0.002652 0.008640 -0.002236 0.000000 0.000000 0.000000
# 3 -0.002236 -0.002236 0.010314 0.000000 0.000000 0.000000
# 4 0.000000 0.000000 0.000000 0.020750 0.000000 0.000000
# 5 0.000000 0.000000 0.000000 0.000000 0.020750 0.000000
# 6 0.000000 0.000000 0.000000 0.000000 0.000000 0.047168
#
#
# Mechanical properties :
#
#
# Convention : Reuss Voigt Hill
#
# Bulk Modulus (GPa) = 74.91992 76.32436 75.62214
# Shear Modulus (GPa) = 37.04841 40.96785 39.00813
#
# Velocity S-wave (km/s) = 4.09813 4.30946 4.20512
# Velocity P-wave (km/s) = 7.50702 7.70461 7.60646
#
# Compressibility (1/GPa) = 0.01334759
#
# Stress axis : x y z
#
# Youngs Moduli (GPa) = 115.73509 115.73509 96.95544
#
# Poissons Ratio (x) = 0.30692 0.21678
# Poissons Ratio (y) = 0.30692 0.21678
# Poissons Ratio (z) = 0.25877 0.25877
#
# Static dielectric constant tensor:
#      x y z
#    x 1.748290 0.000000 0.000000 
#    y 0.000000 1.748290 0.000000 
#    z 0.000000 0.000000 1.816590 
# 
# From -- ./inp_files/4678.got.cif
#   From: 2010.05.17/outbox.cif.g08.bks.cpg/sg112_3_cif.got.tgz:4678.got - 2010.05.20 10:59:04.
