data_PCOD9555541
_publ_section_title
;
Structure prediction by ZEFSAII (Michael W. Deem and Ramdas Pophale) SiO2 
 PCOD9555541
Probable space group: P -4 21 M 
;
_chemical_formula_sum "Si O2"
_cell_formula_units_Z 56
_cell_length_a 11.424456
_cell_length_b 11.424456
_cell_length_c 21.500486
_cell_angle_alpha 90.000000
_cell_angle_beta 90.000000
_cell_angle_gamma 90.000000
_cell_volume 2806.204622
_symmetry_space_group_name_H-M "P -4 21 M "
_symmetry_group_IT_number 113
_symmetry_cell_setting 'tetragonal'
loop_
_space_group_symop_operation_xyz
x,y,z
y,-x,-z
-x,-y,z
-y,x,-z
1/2+x,1/2-y,-z
1/2-x,1/2+y,-z
1/2-y,1/2-x,z
1/2+y,1/2+x,z
loop_
_atom_site_type_symbol
_atom_site_label
_atom_site_fract_x
_atom_site_fract_y
_atom_site_fract_z
Si Si1 0.686345 0.367310 0.065779
Si Si2 0.812642 0.491420 0.382507
Si Si3 0.258126 0.055869 0.070869
Si Si4 0.333676 0.363993 0.297056
Si Si5 0.805714 0.506928 0.646683
Si Si6 0.877970 0.063420 0.836964
Si Si7 0.004758 0.194569 0.510260
O O1 0.804802 0.304802 0.084466
O O2 0.580897 0.274156 0.072831
O O3 0.671441 0.478655 0.109665
O O4 0.697867 0.401590 0.993468
O O5 0.912532 0.587469 0.369055
O O6 0.697356 0.535263 0.346752
O O7 0.788442 0.493673 0.455695
O O8 0.866234 0.366234 0.364082
O O9 0.388420 0.111581 0.070757
O O10 0.188015 0.106369 0.129641
O O11 0.238832 0.261169 0.305315
O O12 0.457440 0.299037 0.309702
O O13 0.317671 0.416568 0.228640
O O14 0.905978 0.405978 0.644720
O O15 0.751748 0.518649 0.577697
O O16 0.874110 0.625891 0.665002
O O17 0.000000 0.000000 0.821576
O O18 0.113867 0.110751 0.493767
#
# Coordination Sequence:
#
# PCOD9555541 Si02
#       7
#     8   8   8   8   8   8   8
#     4  10  20  35  58  88 121 156 199 247 296 356
#     4  10  21  37  58  82 113 156 200 244 303 370
#     4  10  19  35  59  86 119 157 198 244 298 354
#     4  10  21  39  58  84 122 158 203 253 309 374
#     4  10  21  38  61  86 116 158 207 259 313 369
#     4  10  21  36  60  85 115 155 199 245 298 364
#     4  11  22  35  55  86 119 153 201 257 310 365
#
# _framework density 19.955777999999999
#
# number of rings (size 3 to 8) (size 9 to 14) (size 15 to 20)
#    0.000    1.857    2.857    1.286    0.000    4.857 
#    0.000    2.857    0.000    4.714    0.000    0.000 
#    0.000    0.000    0.000    0.000    0.000    0.000 
#
# Total GULP energy -312218.563101 kJ/mol
# GULP energy per Si atom -5575.331484 kJ/mol
# Density = 1.991036 g / cm^3
# Si number density = 19.955778 Si / 1000 Ang^3
#
#
#
# Elastic Constant Matrix: (Units=GPa)
#
#
# Indices 1 2 3 4 5 6 
#
# 1 29.5046 47.0829 6.0351 0.0000 0.0000 0.0000
# 2 47.0829 29.5038 6.0332 0.0000 0.0000 0.0000
# 3 6.0351 6.0332 68.6563 0.0000 0.0000 0.0000
# 4 0.0000 0.0000 0.0000 4.4403 0.0000 0.0000
# 5 0.0000 0.0000 0.0000 0.0000 4.4315 0.0000
# 6 0.0000 0.0000 0.0000 0.0000 0.0000 18.3228
#
#
#
# Elastic Compliance Matrix: (Units=1/GPa)
#
#
# Indices 1 2 3 4 5 6 
#
# 1 -0.021823 0.035064 -0.001163 0.000000 0.000000 0.000000
# 2 0.035064 -0.021823 -0.001164 0.000000 0.000000 0.000000
# 3 -0.001163 -0.001164 0.014770 0.000000 0.000000 0.000000
# 4 0.000000 0.000000 0.000000 0.225209 0.000000 0.000000
# 5 0.000000 0.000000 0.000000 0.000000 0.225659 0.000000
# 6 0.000000 0.000000 0.000000 0.000000 0.000000 0.054577
#
#
# Mechanical properties :
#
#
# Convention : Reuss Voigt Hill
#
# Bulk Modulus (GPa) = 27.32546 27.32967 27.32757
# Shear Modulus (GPa) = 11.81210 10.00649 10.90930
#
# Velocity S-wave (km/s) = 2.43557 2.24170 2.34064
# Velocity P-wave (km/s) = 4.65103 4.51942 4.58569
#
# Compressibility (1/GPa) = 0.03659591
#
# Stress axis : x y z
#
# Youngs Moduli (GPa) = -45.82309 -45.82223 67.70549
#
# Poissons Ratio (x) = 1.60669 0.07874
# Poissons Ratio (y) = 1.60673 0.07884
# Poissons Ratio (z) = -0.05329 -0.05336
#
# Static dielectric constant tensor:
#      x y z
#    x 1.738900 0.000000 0.000000 
#    y 0.000000 1.738900 0.000000 
#    z 0.000000 0.000000 1.667150 
# 
# From -- ./inp_files/2682.got.cif
#   From: 2010.05.17/outbox.cif.g08.bks.cpg/sg113_cif.got.tgz:2682.got - 2010.05.20 11:03:00.
