data_PCOD9555489
_publ_section_title
;
Structure prediction by ZEFSAII (Michael W. Deem and Ramdas Pophale) SiO2 
 PCOD9555489
Probable space group: P -4 21 M 
;
_chemical_formula_sum "Si O2"
_cell_formula_units_Z 64
_cell_length_a 12.841144
_cell_length_b 12.841144
_cell_length_c 23.406922
_cell_angle_alpha 90.000000
_cell_angle_beta 90.000000
_cell_angle_gamma 90.000000
_cell_volume 3859.683917
_symmetry_space_group_name_H-M "P -4 21 M "
_symmetry_group_IT_number 113
_symmetry_cell_setting 'tetragonal'
loop_
_space_group_symop_operation_xyz
x,y,z
y,-x,-z
-x,-y,z
-y,x,-z
1/2+x,1/2-y,-z
1/2-x,1/2+y,-z
1/2-y,1/2-x,z
1/2+y,1/2+x,z
loop_
_atom_site_type_symbol
_atom_site_label
_atom_site_fract_x
_atom_site_fract_y
_atom_site_fract_z
Si Si1 0.705186 0.380253 0.941142
Si Si2 0.247039 0.922702 0.553728
Si Si3 0.262039 0.594623 0.363116
Si Si4 0.194393 0.868406 0.066166
Si Si5 0.919919 0.754751 0.576308
Si Si6 0.119699 0.964162 0.731392
Si Si7 0.204724 0.121170 0.360509
Si Si8 0.991166 0.874484 0.138441
O O1 0.808892 0.308892 0.931443
O O2 0.718320 0.506402 0.934146
O O3 0.609964 0.347586 0.899410
O O4 0.663917 0.353779 0.004749
O O5 0.328947 0.828947 0.550349
O O6 0.225365 0.955036 0.488874
O O7 0.149191 0.879939 0.590104
O O8 0.290891 0.013879 0.593368
O O9 0.181665 0.681665 0.344092
O O10 0.350970 0.649990 0.400775
O O11 0.312323 0.537263 0.309580
O O12 0.296746 0.796746 0.075648
O O13 0.102045 0.841853 0.111317
O O14 0.846361 0.653640 0.576830
O O15 0.014644 0.744050 0.619638
O O16 0.119642 0.852679 0.700148
O O17 0.158090 0.971255 0.796294
O O18 0.000000 0.000000 0.730360
O O19 0.288627 0.211374 0.360271
O O20 0.000000 0.000000 0.137890
#
# Coordination Sequence:
#
# PCOD9555489 Si02
#       8
#     8   8   8   8   8   8   8   8
#     4  10  19  33  55  82 116 152 185 226 272 319
#     4   9  19  32  49  73  98 130 170 213 265 321
#     4  10  20  33  51  74 102 132 169 215 264 314
#     4  10  19  33  55  84 116 149 185 229 274 320
#     4  10  19  32  50  73 102 133 166 212 270 326
#     4  10  19  36  55  76  98 136 177 217 259 303
#     4  10  20  34  51  73 102 133 173 216 257 316
#     4   9  19  33  56  80 105 139 187 226 262 319
#
# _framework density 16.581669000000002
#
# number of rings (size 3 to 8) (size 9 to 14) (size 15 to 20)
#    0.000    2.250    2.500    0.750    0.000    3.250 
#    0.000    2.500    0.000    0.375    0.000    3.500 
#    0.000    0.000    0.000    0.000    0.000    0.000 
#
# Total GULP energy -356436.876313 kJ/mol
# GULP energy per Si atom -5569.326192 kJ/mol
# Density = 1.654393 g / cm^3
# Si number density = 16.581669 Si / 1000 Ang^3
#
#
#
# Elastic Constant Matrix: (Units=GPa)
#
#
# Indices 1 2 3 4 5 6 
#
# 1 65.4603 31.5880 39.8400 0.0000 0.0000 0.0000
# 2 31.5880 65.4590 39.8430 0.0000 0.0000 0.0000
# 3 39.8400 39.8430 127.6367 0.0000 0.0000 0.0000
# 4 0.0000 0.0000 0.0000 16.1308 0.0000 0.0000
# 5 0.0000 0.0000 0.0000 0.0000 16.1309 0.0000
# 6 0.0000 0.0000 0.0000 0.0000 0.0000 9.1347
#
#
#
# Elastic Compliance Matrix: (Units=1/GPa)
#
#
# Indices 1 2 3 4 5 6 
#
# 1 0.021689 -0.007834 -0.004324 0.000000 0.000000 0.000000
# 2 -0.007834 0.021690 -0.004325 0.000000 0.000000 0.000000
# 3 -0.004324 -0.004325 0.010535 0.000000 0.000000 0.000000
# 4 0.000000 0.000000 0.000000 0.061993 0.000000 0.000000
# 5 0.000000 0.000000 0.000000 0.000000 0.061993 0.000000
# 6 0.000000 0.000000 0.000000 0.000000 0.000000 0.109473
#
#
# Mechanical properties :
#
#
# Convention : Reuss Voigt Hill
#
# Bulk Modulus (GPa) = 47.74246 53.45532 50.59889
# Shear Modulus (GPa) = 15.27549 18.09827 16.68688
#
# Velocity S-wave (km/s) = 3.03847 3.30731 3.17574
# Velocity P-wave (km/s) = 6.41596 6.84777 6.63538
#
# Compressibility (1/GPa) = 0.02094571
#
# Stress axis : x y z
#
# Youngs Moduli (GPa) = 46.10722 46.10449 94.92407
#
# Poissons Ratio (x) = 0.36118 0.41048
# Poissons Ratio (y) = 0.36120 0.41059
# Poissons Ratio (z) = 0.19938 0.19942
#
# Static dielectric constant tensor:
#      x y z
#    x 1.565440 0.000000 0.000000 
#    y 0.000000 1.565440 0.000000 
#    z 0.000000 0.000000 1.558640 
# 
# From -- ./inp_files/2885.got.cif
#   From: 2010.05.17/outbox.cif.g08.bks.cpg/sg113_cif.got.tgz:2885.got - 2010.05.20 11:03:00.
