data_PCOD9555542
_publ_section_title
;
Structure prediction by ZEFSAII (Michael W. Deem and Ramdas Pophale) SiO2 
 PCOD9555542
Probable space group: P -4 21 M 
;
_chemical_formula_sum "Si O2"
_cell_formula_units_Z 48
_cell_length_a 11.660312
_cell_length_b 11.660312
_cell_length_c 18.538964
_cell_angle_alpha 90.000000
_cell_angle_beta 90.000000
_cell_angle_gamma 90.000000
_cell_volume 2520.610862
_symmetry_space_group_name_H-M "P -4 21 M "
_symmetry_group_IT_number 113
_symmetry_cell_setting 'tetragonal'
loop_
_space_group_symop_operation_xyz
x,y,z
y,-x,-z
-x,-y,z
-y,x,-z
1/2+x,1/2-y,-z
1/2-x,1/2+y,-z
1/2-y,1/2-x,z
1/2+y,1/2+x,z
loop_
_atom_site_type_symbol
_atom_site_label
_atom_site_fract_x
_atom_site_fract_y
_atom_site_fract_z
Si Si1 0.712436 0.601511 0.435857
Si Si2 0.748045 0.435607 0.086321
Si Si3 0.055628 0.259392 0.934371
Si Si4 0.866294 0.963315 0.319405
Si Si5 0.837775 0.849077 0.592122
Si Si6 0.657990 0.350910 0.836295
O O1 0.831971 0.668030 0.437852
O O2 0.626112 0.666102 0.381904
O O3 0.713677 0.475516 0.402812
O O4 0.662367 0.594314 0.516581
O O5 0.857920 0.357920 0.110513
O O6 0.648564 0.343891 0.066416
O O7 0.692763 0.531448 0.139255
O O8 0.779610 0.506147 0.014303
O O9 0.126817 0.373184 0.910494
O O10 0.948261 0.214317 0.887536
O O11 0.847294 0.908506 0.242313
O O12 0.809999 0.083342 0.341450
O O13 0.000000 0.000000 0.326760
O O14 0.733936 0.766065 0.583773
O O15 0.741880 0.241880 0.836642
#
# Coordination Sequence:
#
# PCOD9555542 Si02
#       6
#     8   8   8   8   8   8
#     4  10  19  35  59  88 120 156 200 252 302 364
#     4  11  23  41  66  95 126 167 221 270 317 379
#     4  11  23  40  64  93 126 169 218 264 314 378
#     4  10  21  38  62  86 117 159 206 250 308 370
#     4  10  20  35  60  89 119 157 204 250 303 370
#     4  12  25  41  62  94 129 169 210 261 328 385
#
# _framework density 19.043004
#
# number of rings (size 3 to 8) (size 9 to 14) (size 15 to 20)
#    0.000    1.333    3.333    3.000    0.000    3.333 
#    0.000    5.000    0.000    5.500    0.000    0.000 
#    0.000    0.000    0.000    0.000    0.000    0.000 
#
# Total GULP energy -267535.066821 kJ/mol
# GULP energy per Si atom -5573.647225 kJ/mol
# Density = 1.899966 g / cm^3
# Si number density = 19.043004 Si / 1000 Ang^3
#
#
#
# Elastic Constant Matrix: (Units=GPa)
#
#
# Indices 1 2 3 4 5 6 
#
# 1 84.4149 50.6893 25.1220 0.0000 0.0000 0.0000
# 2 50.6893 84.4137 25.1213 0.0000 0.0000 0.0000
# 3 25.1220 25.1213 67.1109 0.0000 0.0000 0.0000
# 4 0.0000 0.0000 0.0000 20.9687 0.0000 0.0000
# 5 0.0000 0.0000 0.0000 0.0000 20.9692 0.0000
# 6 0.0000 0.0000 0.0000 0.0000 0.0000 22.5216
#
#
#
# Elastic Compliance Matrix: (Units=1/GPa)
#
#
# Indices 1 2 3 4 5 6 
#
# 1 0.019125 -0.010526 -0.003219 0.000000 0.000000 0.000000
# 2 -0.010526 0.019125 -0.003219 0.000000 0.000000 0.000000
# 3 -0.003219 -0.003219 0.017310 0.000000 0.000000 0.000000
# 4 0.000000 0.000000 0.000000 0.047690 0.000000 0.000000
# 5 0.000000 0.000000 0.000000 0.000000 0.047689 0.000000
# 6 0.000000 0.000000 0.000000 0.000000 0.000000 0.044402
#
#
# Mechanical properties :
#
#
# Convention : Reuss Voigt Hill
#
# Bulk Modulus (GPa) = 46.22589 48.64494 47.43542
# Shear Modulus (GPa) = 21.14338 21.89236 21.51787
#
# Velocity S-wave (km/s) = 3.33573 3.39429 3.36514
# Velocity P-wave (km/s) = 6.25806 6.40015 6.32950
#
# Compressibility (1/GPa) = 0.02163290
#
# Stress axis : x y z
#
# Youngs Moduli (GPa) = 52.28734 52.28687 57.76848
#
# Poissons Ratio (x) = 0.55039 0.18595
# Poissons Ratio (y) = 0.55040 0.18594
# Poissons Ratio (z) = 0.16831 0.16829
#
# Static dielectric constant tensor:
#      x y z
#    x 1.667500 0.000000 0.000000 
#    y 0.000000 1.667500 0.000000 
#    z 0.000000 0.000000 1.685020 
# 
# From -- ./inp_files/2470.got.cif
#   From: 2010.05.17/outbox.cif.g08.bks.cpg/sg113_cif.got.tgz:2470.got - 2010.05.20 11:03:00.
