data_PCOD9555443
_publ_section_title
;
Structure prediction by ZEFSAII (Michael W. Deem and Ramdas Pophale) SiO2 
 PCOD9555443
Probable space group: P -4 21 M 
;
_chemical_formula_sum "Si O2"
_cell_formula_units_Z 56
_cell_length_a 18.382927
_cell_length_b 18.382927
_cell_length_c 10.909689
_cell_angle_alpha 90.000000
_cell_angle_beta 90.000000
_cell_angle_gamma 90.000000
_cell_volume 3686.733079
_symmetry_space_group_name_H-M "P -4 21 M "
_symmetry_group_IT_number 113
_symmetry_cell_setting 'tetragonal'
loop_
_space_group_symop_operation_xyz
x,y,z
y,-x,-z
-x,-y,z
-y,x,-z
1/2+x,1/2-y,-z
1/2-x,1/2+y,-z
1/2-y,1/2-x,z
1/2+y,1/2+x,z
loop_
_atom_site_type_symbol
_atom_site_label
_atom_site_fract_x
_atom_site_fract_y
_atom_site_fract_z
Si Si1 0.719222 0.463285 0.457309
Si Si2 0.008035 0.080918 0.319267
Si Si3 0.121930 0.907247 0.121950
Si Si4 0.125540 0.254988 0.472886
Si Si5 0.651076 0.728826 0.324764
Si Si6 0.426638 0.355777 0.143966
Si Si7 0.323771 0.298058 0.695401
O O1 0.638337 0.492018 0.425191
O O2 0.763045 0.539097 0.456677
O O3 0.726951 0.417442 0.581898
O O4 0.731421 0.401735 0.352896
O O5 0.085123 0.086395 0.251610
O O6 0.948828 0.090102 0.210278
O O7 0.000000 0.000000 0.365288
O O8 0.168810 0.842609 0.179902
O O9 0.157144 0.987040 0.132383
O O10 0.099656 0.889303 0.983876
O O11 0.169379 0.330622 0.482382
O O12 0.165887 0.208036 0.367042
O O13 0.145280 0.207226 0.593652
O O14 0.696751 0.803250 0.335740
O O15 0.619568 0.712559 0.190617
O O16 0.267401 0.232600 0.701180
#
# Coordination Sequence:
#
# PCOD9555443 Si02
#       7
#     8   8   8   8   8   8   8
#     4  10  17  32  49  68  93 129 160 200 246 290
#     4   9  18  29  43  70  99 127 156 192 231 287
#     4  10  19  29  49  68  97 131 161 197 235 279
#     4   9  17  31  48  69  95 121 159 203 244 295
#     4  10  21  33  47  68  99 131 162 201 246 293
#     4  11  18  31  47  69 101 129 160 196 240 280
#     4   9  19  33  47  66  94 129 165 197 235 288
#
# _framework density 15.1896
#
# number of rings (size 3 to 8) (size 9 to 14) (size 15 to 20)
#    0.000    2.286    2.857    2.143    0.000    1.714 
#    0.000    0.000    0.000    1.714    0.000    0.000 
#    0.000    0.000    0.000    5.714    0.000    0.000 
#
# Total GULP energy -311937.097943 kJ/mol
# GULP energy per Si atom -5570.305320 kJ/mol
# Density = 1.515503 g / cm^3
# Si number density = 15.189600 Si / 1000 Ang^3
#
#
#
# Elastic Constant Matrix: (Units=GPa)
#
#
# Indices 1 2 3 4 5 6 
#
# 1 81.5675 40.0877 31.2126 0.0000 0.0000 0.0000
# 2 40.0877 81.5660 31.2129 0.0000 0.0000 0.0000
# 3 31.2126 31.2129 55.1486 0.0000 0.0000 0.0000
# 4 0.0000 0.0000 0.0000 16.8835 0.0000 0.0000
# 5 0.0000 0.0000 0.0000 0.0000 16.8835 0.0000
# 6 0.0000 0.0000 0.0000 0.0000 0.0000 19.0887
#
#
#
# Elastic Compliance Matrix: (Units=1/GPa)
#
#
# Indices 1 2 3 4 5 6 
#
# 1 0.017846 -0.006262 -0.006556 0.000000 0.000000 0.000000
# 2 -0.006262 0.017847 -0.006557 0.000000 0.000000 0.000000
# 3 -0.006556 -0.006557 0.025554 0.000000 0.000000 0.000000
# 4 0.000000 0.000000 0.000000 0.059229 0.000000 0.000000
# 5 0.000000 0.000000 0.000000 0.000000 0.059230 0.000000
# 6 0.000000 0.000000 0.000000 0.000000 0.000000 0.052387
#
#
# Mechanical properties :
#
#
# Convention : Reuss Voigt Hill
#
# Bulk Modulus (GPa) = 44.44978 47.03428 45.74203
# Shear Modulus (GPa) = 17.96348 18.28906 18.12627
#
# Velocity S-wave (km/s) = 3.44265 3.47371 3.45822
# Velocity P-wave (km/s) = 6.71783 6.86447 6.79155
#
# Compressibility (1/GPa) = 0.02249730
#
# Stress axis : x y z
#
# Youngs Moduli (GPa) = 56.03430 56.03269 39.13218
#
# Poissons Ratio (x) = 0.35088 0.25656
# Poissons Ratio (y) = 0.35089 0.25658
# Poissons Ratio (z) = 0.36738 0.36739
#
# Static dielectric constant tensor:
#      x y z
#    x 1.518780 0.000000 0.000000 
#    y 0.000000 1.518780 0.000000 
#    z 0.000000 0.000000 1.516440 
# 
# From -- ./inp_files/1968.got.cif
#   From: 2010.05.17/outbox.cif.g08.bks.cpg/sg113_cif.got.tgz:1968.got - 2010.05.20 11:03:00.
