data_PCOD9555460
_publ_section_title
;
Structure prediction by ZEFSAII (Michael W. Deem and Ramdas Pophale) SiO2 
 PCOD9555460
Probable space group: P -4 21 M 
;
_chemical_formula_sum "Si O2"
_cell_formula_units_Z 64
_cell_length_a 16.621436
_cell_length_b 16.621436
_cell_length_c 11.514856
_cell_angle_alpha 90.000000
_cell_angle_beta 90.000000
_cell_angle_gamma 90.000000
_cell_volume 3181.233848
_symmetry_space_group_name_H-M "P -4 21 M "
_symmetry_group_IT_number 113
_symmetry_cell_setting 'tetragonal'
loop_
_space_group_symop_operation_xyz
x,y,z
y,-x,-z
-x,-y,z
-y,x,-z
1/2+x,1/2-y,-z
1/2-x,1/2+y,-z
1/2-y,1/2-x,z
1/2+y,1/2+x,z
loop_
_atom_site_type_symbol
_atom_site_label
_atom_site_fract_x
_atom_site_fract_y
_atom_site_fract_z
Si Si1 0.901364 0.267680 0.164840
Si Si2 0.420446 0.274679 0.303348
Si Si3 0.039492 0.327260 0.803674
Si Si4 0.129889 0.984449 0.496610
Si Si5 0.793471 0.164080 0.290516
Si Si6 0.667108 0.699498 0.076242
Si Si7 0.697692 0.066266 0.931876
Si Si8 0.774875 0.153012 0.567083
O O1 0.848490 0.348490 0.183184
O O2 0.879640 0.198789 0.257714
O O3 0.994200 0.288682 0.155757
O O4 0.873841 0.228339 0.042251
O O5 0.458735 0.188174 0.269812
O O6 0.482670 0.322200 0.385527
O O7 0.397438 0.312233 0.178350
O O8 0.338551 0.286050 0.375712
O O9 0.096454 0.403547 0.772194
O O10 0.089337 0.245716 0.775047
O O11 0.029437 0.326643 0.942205
O O12 0.189823 0.937044 0.584179
O O13 0.061388 0.920062 0.459276
O O14 0.735583 0.235583 0.245997
O O15 0.780479 0.157512 0.427354
O O16 0.728387 0.771614 0.112195
O O17 0.722807 0.621547 0.057616
O O18 0.626490 0.126490 0.897710
O O19 0.686675 0.186675 0.600921
#
# Coordination Sequence:
#
# PCOD9555460 Si02
#       8
#     8   8   8   8   8   8   8   8
#     4  10  19  34  57  82 109 142 182 229 275 324
#     4  11  20  34  56  81 118 147 178 230 282 332
#     4  10  18  32  57  83 109 142 183 232 276 327
#     4   9  19  35  51  75 112 145 181 220 277 316
#     4   9  17  33  55  78 103 141 191 226 257 323
#     4  10  20  35  55  82 116 149 180 222 283 337
#     4  10  20  36  55  81 114 144 183 228 277 334
#     4  10  20  35  57  80 105 145 191 225 265 330
#
# _framework density 20.117982000000001
#
# number of rings (size 3 to 8) (size 9 to 14) (size 15 to 20)
#    0.000    2.125    3.750    0.375    0.000    0.250 
#   11.250    0.000    0.000    4.125    0.000    1.750 
#    0.000    0.000    0.000    0.000    0.000    0.000 
#
# Total GULP energy -356327.138421 kJ/mol
# GULP energy per Si atom -5567.611538 kJ/mol
# Density = 2.007219 g / cm^3
# Si number density = 20.117982 Si / 1000 Ang^3
#
#
#
# Elastic Constant Matrix: (Units=GPa)
#
#
# Indices 1 2 3 4 5 6 
#
# 1 42.0009 16.3248 -2.1887 0.0000 0.0000 0.0000
# 2 16.3248 42.0004 -2.1886 0.0000 0.0000 0.0000
# 3 -2.1887 -2.1886 31.1190 0.0000 0.0000 0.0000
# 4 0.0000 0.0000 0.0000 21.8679 0.0000 0.0000
# 5 0.0000 0.0000 0.0000 0.0000 21.8680 0.0000
# 6 0.0000 0.0000 0.0000 0.0000 0.0000 30.5793
#
#
#
# Elastic Compliance Matrix: (Units=1/GPa)
#
#
# Indices 1 2 3 4 5 6 
#
# 1 0.028091 -0.010855 0.001212 0.000000 0.000000 0.000000
# 2 -0.010855 0.028092 0.001212 0.000000 0.000000 0.000000
# 3 0.001212 0.001212 0.032305 0.000000 0.000000 0.000000
# 4 0.000000 0.000000 0.000000 0.045729 0.000000 0.000000
# 5 0.000000 0.000000 0.000000 0.000000 0.045729 0.000000
# 6 0.000000 0.000000 0.000000 0.000000 0.000000 0.032702
#
#
# Mechanical properties :
#
#
# Convention : Reuss Voigt Hill
#
# Bulk Modulus (GPa) = 13.96129 15.44613 14.70371
# Shear Modulus (GPa) = 19.73277 21.74123 20.73700
#
# Velocity S-wave (km/s) = 3.13525 3.29095 3.21404
# Velocity P-wave (km/s) = 4.47897 4.70477 4.59326
#
# Compressibility (1/GPa) = 0.07162660
#
# Stress axis : x y z
#
# Youngs Moduli (GPa) = 35.59809 35.59764 30.95473
#
# Poissons Ratio (x) = 0.38643 -0.03753
# Poissons Ratio (y) = 0.38643 -0.03752
# Poissons Ratio (z) = -0.04316 -0.04315
#
# Static dielectric constant tensor:
#      x y z
#    x 1.781670 0.000000 0.000000 
#    y 0.000000 1.781680 0.000000 
#    z 0.000000 0.000000 1.719670 
# 
# From -- ./inp_files/2055.got.cif
#   From: 2010.05.17/outbox.cif.g08.bks.cpg/sg113_cif.got.tgz:2055.got - 2010.05.20 11:03:00.
