data_PCOD9555555
_publ_section_title
;
Structure prediction by ZEFSAII (Michael W. Deem and Ramdas Pophale) SiO2 
 PCOD9555555
Probable space group: P -4 21 M 
;
_chemical_formula_sum "Si O2"
_cell_formula_units_Z 40
_cell_length_a 10.064892
_cell_length_b 10.064892
_cell_length_c 18.081556
_cell_angle_alpha 90.000000
_cell_angle_beta 90.000000
_cell_angle_gamma 90.000000
_cell_volume 1831.698708
_symmetry_space_group_name_H-M "P -4 21 M "
_symmetry_group_IT_number 113
_symmetry_cell_setting 'tetragonal'
loop_
_space_group_symop_operation_xyz
x,y,z
y,-x,-z
-x,-y,z
-y,x,-z
1/2+x,1/2-y,-z
1/2-x,1/2+y,-z
1/2-y,1/2-x,z
1/2+y,1/2+x,z
loop_
_atom_site_type_symbol
_atom_site_label
_atom_site_fract_x
_atom_site_fract_y
_atom_site_fract_z
Si Si1 0.406812 0.690666 0.972636
Si Si2 0.990314 0.284252 0.825722
Si Si3 0.080350 0.794783 0.158153
Si Si4 0.678961 0.614414 0.525022
Si Si5 0.632133 0.579838 0.692863
O O1 0.320045 0.820045 0.993557
O O2 0.557553 0.673597 0.004558
O O3 0.429633 0.661655 0.137107
O O4 0.442523 0.701652 0.884828
O O5 0.099483 0.400518 0.830085
O O6 0.990649 0.234774 0.740540
O O7 0.852975 0.352975 0.849468
O O8 0.166279 0.666279 0.137168
O O9 0.086655 0.808649 0.247117
O O10 0.676311 0.461645 0.500013
O O11 0.800225 0.699776 0.493766
O O12 0.684780 0.619943 0.613929
O O13 0.500000 0.500000 0.676992
#
# Coordination Sequence:
#
# PCOD9555555 Si02
#       5
#     8   8   8   8   8
#     4  11  26  48  74 105 141 184 230 278 341 414
#     4   8  16  33  62  98 129 164 214 273 337 399
#     4   9  20  40  67  98 134 177 225 284 343 397
#     4  11  23  43  65  97 139 184 234 285 345 414
#     4  10  19  37  63  94 134 179 224 284 342 400
#
# _framework density 21.837651000000001
#
# number of rings (size 3 to 8) (size 9 to 14) (size 15 to 20)
#    1.200    1.000    2.000    1.800    2.800    2.800 
#    0.000   11.000    0.000    9.600    0.000    0.000 
#    0.000    0.000    0.000    0.000    0.000    0.000 
#
# Total GULP energy -222820.419526 kJ/mol
# GULP energy per Si atom -5570.510488 kJ/mol
# Density = 2.178795 g / cm^3
# Si number density = 21.837651 Si / 1000 Ang^3
#
#
#
# Elastic Constant Matrix: (Units=GPa)
#
#
# Indices 1 2 3 4 5 6 
#
# 1 83.0728 44.4605 1.3211 0.0000 0.0000 0.0000
# 2 44.4605 83.0784 1.3202 0.0000 0.0000 0.0000
# 3 1.3211 1.3202 49.5606 0.0000 0.0000 0.0000
# 4 0.0000 0.0000 0.0000 1472.7073 0.0000 0.0000
# 5 0.0000 0.0000 0.0000 0.0000 1512.3836 0.0000
# 6 0.0000 0.0000 0.0000 0.0000 0.0000 53.0173
#
#
#
# Elastic Compliance Matrix: (Units=1/GPa)
#
#
# Indices 1 2 3 4 5 6 
#
# 1 0.016872 -0.009026 -0.000209 0.000000 0.000000 0.000000
# 2 -0.009026 0.016870 -0.000209 0.000000 0.000000 0.000000
# 3 -0.000209 -0.000209 0.020188 0.000000 0.000000 0.000000
# 4 0.000000 0.000000 0.000000 0.000679 0.000000 0.000000
# 5 0.000000 0.000000 0.000000 0.000000 0.000661 0.000000
# 6 0.000000 0.000000 0.000000 0.000000 0.000000 0.018862
#
#
# Mechanical properties :
#
#
# Convention : Reuss Voigt Hill
#
# Bulk Modulus (GPa) = 28.53658 34.43506 31.48582
# Shear Modulus (GPa) = 47.75512 618.86230 333.30871
#
# Velocity S-wave (km/s) = 4.68142 16.85252 12.36777
# Velocity P-wave (km/s) = 6.50515 19.86151 14.77830
#
# Compressibility (1/GPa) = 0.03504274
#
# Stress axis : x y z
#
# Youngs Moduli (GPa) = 59.27153 59.27560 49.53321
#
# Poissons Ratio (x) = 0.53500 0.01037
# Poissons Ratio (y) = 0.53497 0.01034
# Poissons Ratio (z) = 0.01241 0.01238
#
# Static dielectric constant tensor:
#      x y z
#    x 0.654010 0.000000 0.000000 
#    y 0.000000 0.623490 0.000000 
#    z 0.000000 0.000000 1.905510 
# 
# From -- ./inp_files/2188.got.cif
#   From: 2010.05.17/outbox.cif.g08.bks.cpg/sg113_cif.got.tgz:2188.got - 2010.05.20 11:03:00.
