data_PCOD9555482
_publ_section_title
;
Structure prediction by ZEFSAII (Michael W. Deem and Ramdas Pophale) SiO2 
 PCOD9555482
Probable space group: P -4 21 M 
;
_chemical_formula_sum "Si O2"
_cell_formula_units_Z 40
_cell_length_a 15.187175
_cell_length_b 15.187175
_cell_length_c 8.243699
_cell_angle_alpha 90.000000
_cell_angle_beta 90.000000
_cell_angle_gamma 90.000000
_cell_volume 1901.411520
_symmetry_space_group_name_H-M "P -4 21 M "
_symmetry_group_IT_number 113
_symmetry_cell_setting 'tetragonal'
loop_
_space_group_symop_operation_xyz
x,y,z
y,-x,-z
-x,-y,z
-y,x,-z
1/2+x,1/2-y,-z
1/2-x,1/2+y,-z
1/2-y,1/2-x,z
1/2+y,1/2+x,z
loop_
_atom_site_type_symbol
_atom_site_label
_atom_site_fract_x
_atom_site_fract_y
_atom_site_fract_z
Si Si1 0.685678 0.330417 0.345620
Si Si2 0.006680 0.644073 0.817474
Si Si3 0.619040 0.271905 0.020861
Si Si4 0.772483 0.132113 0.669682
Si Si5 0.528717 0.831926 0.564014
O O1 0.735266 0.235266 0.342421
O O2 0.640037 0.334823 0.171853
O O3 0.625702 0.329144 0.506258
O O4 0.759205 0.403000 0.373898
O O5 0.096745 0.596745 0.870782
O O6 0.017735 0.674296 0.631045
O O7 0.931263 0.568738 0.813517
O O8 0.969870 0.719917 0.931995
O O9 0.696553 0.196553 0.010395
O O10 0.615830 0.314949 0.844000
O O11 0.729557 0.229557 0.672617
O O12 0.693968 0.061875 0.647772
O O13 0.573572 0.926429 0.596645
#
# Coordination Sequence:
#
# PCOD9555482 Si02
#       5
#     8   8   8   8   8
#     4   9  18  34  49  69 103 135 168 205 244 296
#     4   9  16  28  48  74 103 131 160 203 257 303
#     4   9  17  31  50  70  99 136 165 195 243 301
#     4  10  19  33  54  75  99 137 171 200 251 306
#     4  10  19  31  51  79 105 131 165 209 253 295
#
# _framework density 21.037005000000001
#
# number of rings (size 3 to 8) (size 9 to 14) (size 15 to 20)
#    0.000    2.600    2.000    0.600    0.000    2.000 
#    3.600    2.000    0.000    0.600    0.000    0.000 
#    0.000    0.000    0.000    0.000    0.000    0.000 
#
# Total GULP energy -222995.388706 kJ/mol
# GULP energy per Si atom -5574.884718 kJ/mol
# Density = 2.098912 g / cm^3
# Si number density = 21.037005 Si / 1000 Ang^3
#
#
#
# Elastic Constant Matrix: (Units=GPa)
#
#
# Indices 1 2 3 4 5 6 
#
# 1 9.8468 22.6048 15.0834 0.0000 0.0000 0.0000
# 2 22.6048 9.8467 15.0835 0.0000 0.0000 0.0000
# 3 15.0834 15.0835 130.9217 0.0000 0.0000 0.0000
# 4 0.0000 0.0000 0.0000 -6.2154 0.0000 0.0000
# 5 0.0000 0.0000 0.0000 0.0000 -6.2155 0.0000
# 6 0.0000 0.0000 0.0000 0.0000 0.0000 20.7370
#
#
#
# Elastic Compliance Matrix: (Units=1/GPa)
#
#
# Indices 1 2 3 4 5 6 
#
# 1 -0.021935 0.056447 -0.003976 0.000000 0.000000 0.000000
# 2 0.056447 -0.021936 -0.003976 0.000000 0.000000 0.000000
# 3 -0.003976 -0.003976 0.008554 0.000000 0.000000 0.000000
# 4 0.000000 0.000000 0.000000 -0.160891 0.000000 0.000000
# 5 0.000000 0.000000 0.000000 0.000000 -0.160888 0.000000
# 6 0.000000 0.000000 0.000000 0.000000 0.000000 0.048223
#
#
# Mechanical properties :
#
#
# Convention : Reuss Voigt Hill
#
# Bulk Modulus (GPa) = 16.21464 28.46208 22.33836
# Shear Modulus (GPa) = -12.97678 8.18413 -2.39633
#
# Velocity S-wave (km/s) = -2.48635 1.97454 -1.06844
# Velocity P-wave (km/s) = 0.71985 4.33097 3.01986
#
# Compressibility (1/GPa) = 0.06167266
#
# Stress axis : x y z
#
# Youngs Moduli (GPa) = -45.58910 -45.58813 116.90020
#
# Poissons Ratio (x) = 2.57329 0.46481
# Poissons Ratio (y) = 2.57335 0.46479
# Poissons Ratio (z) = -0.18127 -0.18126
#
# Static dielectric constant tensor:
#      x y z
#    x 1.758670 0.000000 0.000000 
#    y 0.000000 1.758670 0.000000 
#    z 0.000000 0.000000 1.796150 
# 
# From -- ./inp_files/1030.got.cif
#   From: 2010.05.17/outbox.cif.g08.bks.cpg/sg113_cif.got.tgz:1030.got - 2010.05.20 11:03:00.
