data_PCOD9555052
_publ_section_title
;
Structure prediction by ZEFSAII (Michael W. Deem and Ramdas Pophale) SiO2 
 PCOD9555052
Probable space group: P -4 2 C
;
_chemical_formula_sum "Si O2"
_cell_formula_units_Z 56
_cell_length_a 11.976276
_cell_length_b 11.976276
_cell_length_c 21.386478
_cell_angle_alpha 90.000000
_cell_angle_beta 90.000000
_cell_angle_gamma 90.000000
_cell_volume 3067.487922
_symmetry_space_group_name_H-M "P -4 2 C"
_symmetry_group_IT_number 112
_symmetry_cell_setting 'tetragonal'
loop_
_space_group_symop_operation_xyz
x,y,z
y,-x,-z
-x,-y,z
-y,x,-z
x,-y,1/2-z
-x,y,1/2-z
-y,-x,1/2+z
y,x,1/2+z
loop_
_atom_site_type_symbol
_atom_site_label
_atom_site_fract_x
_atom_site_fract_y
_atom_site_fract_z
Si Si1 0.663188 0.255949 0.740568
Si Si2 0.042061 0.371447 0.342858
Si Si3 0.597164 0.201364 0.406656
Si Si4 0.419521 0.607632 0.127196
Si Si5 0.346816 0.804846 0.871957
Si Si6 0.621070 0.114892 0.279376
Si Si7 0.433000 0.199290 0.948690
O O1 0.658204 0.133512 0.709328
O O2 0.624000 0.348968 0.690989
O O3 0.601707 0.247635 0.807737
O O4 0.786370 0.294791 0.761673
O O5 0.112301 0.363889 0.406871
O O6 0.000000 0.500000 0.332730
O O7 0.926784 0.304671 0.351017
O O8 0.500779 0.287975 0.385257
O O9 0.716816 0.261305 0.399481
O O10 0.602482 0.106897 0.353775
O O11 0.577818 0.175331 0.478641
O O12 0.500000 0.500000 0.129044
O O13 0.326157 0.597018 0.072266
O O14 0.441958 0.818658 0.923479
O O15 0.500000 0.141307 0.250000
O O16 0.660145 0.000000 0.250000
#
# Coordination Sequence:
#
# PCOD9555052 Si02
#       7
#     8   8   8   8   8   8   8
#     4  10  21  37  58  83 113 157 189 245 290 349
#     4   9  20  37  54  84 115 148 195 232 288 351
#     4  11  21  37  56  81 116 153 192 240 292 352
#     4  11  21  33  51  84 124 154 189 228 286 368
#     4  10  20  36  54  78 114 148 194 237 282 351
#     4  10  21  41  57  83 114 148 201 246 294 346
#     4  10  21  35  51  80 114 160 191 227 286 353
#
# _framework density 18.255980000000001
#
# number of rings (size 3 to 8) (size 9 to 14) (size 15 to 20)
#    0.000    1.857    2.857    1.286    0.000    6.857 
#   12.857    0.000    0.000    6.857    0.000    0.000 
#    0.000    0.000    0.000    0.000    0.000    0.000 
#
# Total GULP energy -312359.686058 kJ/mol
# GULP energy per Si atom -5577.851537 kJ/mol
# Density = 1.821443 g / cm^3
# Si number density = 18.255980 Si / 1000 Ang^3
#
#
#
# Elastic Constant Matrix: (Units=GPa)
#
#
# Indices 1 2 3 4 5 6 
#
# 1 76.9828 21.2242 33.7620 0.0000 0.0000 0.0000
# 2 21.2242 76.9828 33.7620 0.0000 0.0000 0.0000
# 3 33.7620 33.7620 181.3057 0.0000 0.0000 0.0000
# 4 0.0000 0.0000 0.0000 17.7977 0.0000 0.0000
# 5 0.0000 0.0000 0.0000 0.0000 17.7977 0.0000
# 6 0.0000 0.0000 0.0000 0.0000 0.0000 15.1975
#
#
#
# Elastic Compliance Matrix: (Units=1/GPa)
#
#
# Indices 1 2 3 4 5 6 
#
# 1 0.014806 -0.003128 -0.002175 0.000000 0.000000 0.000000
# 2 -0.003128 0.014806 -0.002175 0.000000 0.000000 0.000000
# 3 -0.002175 -0.002175 0.006325 0.000000 0.000000 0.000000
# 4 0.000000 0.000000 0.000000 0.056187 0.000000 0.000000
# 5 0.000000 0.000000 0.000000 0.000000 0.056187 0.000000
# 6 0.000000 0.000000 0.000000 0.000000 0.000000 0.065800
#
#
# Mechanical properties :
#
#
# Convention : Reuss Voigt Hill
#
# Bulk Modulus (GPa) = 47.65854 56.97420 52.31637
# Shear Modulus (GPa) = 21.18098 26.59347 23.88723
#
# Velocity S-wave (km/s) = 3.40990 3.82081 3.62119
# Velocity P-wave (km/s) = 6.45489 7.12328 6.79730
#
# Compressibility (1/GPa) = 0.02098260
#
# Stress axis : x y z
#
# Youngs Moduli (GPa) = 67.53971 67.53971 158.09201
#
# Poissons Ratio (x) = 0.21129 0.34378
# Poissons Ratio (y) = 0.21129 0.34378
# Poissons Ratio (z) = 0.14687 0.14687
#
# Static dielectric constant tensor:
#      x y z
#    x 1.649920 0.000000 0.000000 
#    y 0.000000 1.649920 0.000000 
#    z 0.000000 0.000000 1.657280 
# 
# From -- ./inp_files/4916.got.cif
#   From: 2010.05.17/outbox.cif.g08.bks.cpg/sg112_3_cif.got.tgz:4916.got - 2010.05.20 10:59:04.
