data_PCOD9555499
_publ_section_title
;
Structure prediction by ZEFSAII (Michael W. Deem and Ramdas Pophale) SiO2 
 PCOD9555499
Probable space group: P -4 21 M 
;
_chemical_formula_sum "Si O2"
_cell_formula_units_Z 56
_cell_length_a 11.908561
_cell_length_b 11.908561
_cell_length_c 20.998392
_cell_angle_alpha 90.000000
_cell_angle_beta 90.000000
_cell_angle_gamma 90.000000
_cell_volume 2977.862290
_symmetry_space_group_name_H-M "P -4 21 M "
_symmetry_group_IT_number 113
_symmetry_cell_setting 'tetragonal'
loop_
_space_group_symop_operation_xyz
x,y,z
y,-x,-z
-x,-y,z
-y,x,-z
1/2+x,1/2-y,-z
1/2-x,1/2+y,-z
1/2-y,1/2-x,z
1/2+y,1/2+x,z
loop_
_atom_site_type_symbol
_atom_site_label
_atom_site_fract_x
_atom_site_fract_y
_atom_site_fract_z
Si Si1 0.178211 0.842819 0.362069
Si Si2 0.332528 0.350887 0.926959
Si Si3 0.587364 0.266467 0.928997
Si Si4 0.382119 0.548762 0.725010
Si Si5 0.334892 0.413804 0.497856
Si Si6 0.245525 0.073444 0.149064
Si Si7 0.439104 0.762284 0.640699
O O1 0.283447 0.783447 0.329652
O O2 0.206573 0.866972 0.435347
O O3 0.072692 0.757690 0.358645
O O4 0.144372 0.957882 0.329207
O O5 0.248189 0.251812 0.909944
O O6 0.457900 0.301100 0.917741
O O7 0.289520 0.460572 0.888743
O O8 0.315799 0.380426 0.001565
O O9 0.638115 0.138115 0.928375
O O10 0.658914 0.333825 0.877223
O O11 0.500000 0.500000 0.753637
O O12 0.285966 0.553592 0.777662
O O13 0.396113 0.668763 0.690880
O O14 0.356421 0.544633 0.510568
O O15 0.270167 0.403976 0.431638
O O16 0.369009 0.130991 0.140113
O O17 0.381760 0.881760 0.655194
#
# Coordination Sequence:
#
# PCOD9555499 Si02
#       7
#     8   8   8   8   8   8   8
#     4  10  20  33  52  79 110 146 187 233 289 346
#     4  11  22  37  60  89 122 161 201 244 298 357
#     4  10  21  37  60  90 121 158 201 246 298 353
#     4  10  20  37  57  82 110 150 199 241 283 347
#     4   9  15  29  52  79 105 137 186 236 282 335
#     4  11  23  39  62  90 119 155 200 247 296 353
#     4  10  19  32  54  80 108 144 186 235 287 340
#
# _framework density 18.805436
#
# number of rings (size 3 to 8) (size 9 to 14) (size 15 to 20)
#    0.000    1.857    2.857    2.143    0.000    1.429 
#    0.000    1.429    0.000    1.286    0.000    4.000 
#    0.000    0.000    0.000    0.000    0.000    0.000 
#
# Total GULP energy -311786.325956 kJ/mol
# GULP energy per Si atom -5567.612964 kJ/mol
# Density = 1.876263 g / cm^3
# Si number density = 18.805436 Si / 1000 Ang^3
#
#
#
# Elastic Constant Matrix: (Units=GPa)
#
#
# Indices 1 2 3 4 5 6 
#
# 1 62.8676 64.4281 14.8484 0.0000 0.0000 0.0000
# 2 64.4281 62.8611 14.8442 0.0000 0.0000 0.0000
# 3 14.8484 14.8442 52.9948 0.0000 0.0000 0.0000
# 4 0.0000 0.0000 0.0000 -30.5717 0.0000 0.0000
# 5 0.0000 0.0000 0.0000 0.0000 -30.5662 0.0000
# 6 0.0000 0.0000 0.0000 0.0000 0.0000 29.1723
#
#
#
# Elastic Compliance Matrix: (Units=1/GPa)
#
#
# Indices 1 2 3 4 5 6 
#
# 1 -0.315532 0.323949 -0.002333 0.000000 0.000000 0.000000
# 2 0.323949 -0.315554 -0.002376 0.000000 0.000000 0.000000
# 3 -0.002333 -0.002376 0.020189 0.000000 0.000000 0.000000
# 4 0.000000 0.000000 0.000000 -0.032710 0.000000 0.000000
# 5 0.000000 0.000000 0.000000 0.000000 -0.032716 0.000000
# 6 0.000000 0.000000 0.000000 0.000000 0.000000 0.034279
#
#
# Mechanical properties :
#
#
# Convention : Reuss Voigt Hill
#
# Bulk Modulus (GPa) = 36.25720 40.77387 38.51554
# Shear Modulus (GPa) = -3.93289 -0.75292 -2.34290
#
# Velocity S-wave (km/s) = -1.44772 -0.63344 -1.11739
# Velocity P-wave (km/s) = 4.06540 4.60370 4.34290
#
# Compressibility (1/GPa) = 0.02758073
#
# Stress axis : x y z
#
# Youngs Moduli (GPa) = -3.16925 -3.16902 49.53171
#
# Poissons Ratio (x) = 1.02660 0.11555
# Poissons Ratio (y) = 1.02667 0.11771
# Poissons Ratio (z) = -0.00739 -0.00753
#
# Static dielectric constant tensor:
#      x y z
#    x 1.671470 0.000000 0.000000 
#    y 0.000000 1.671470 0.000000 
#    z 0.000000 0.000000 1.643200 
# 
# From -- ./inp_files/2719.got.cif
#   From: 2010.05.17/outbox.cif.g08.bks.cpg/sg113_cif.got.tgz:2719.got - 2010.05.20 11:03:00.
