data_PCOD9555295
_publ_section_title
;
Structure prediction by ZEFSAII (Michael W. Deem and Ramdas Pophale) SiO2 
 PCOD9555295
Probable space group: P -4 2 C
;
_chemical_formula_sum "Si O2"
_cell_formula_units_Z 16
_cell_length_a 8.101903
_cell_length_b 8.101903
_cell_length_c 8.124027
_cell_angle_alpha 90.000000
_cell_angle_beta 90.000000
_cell_angle_gamma 90.000000
_cell_volume 533.267893
_symmetry_space_group_name_H-M "P -4 2 C"
_symmetry_group_IT_number 112
_symmetry_cell_setting 'tetragonal'
loop_
_space_group_symop_operation_xyz
x,y,z
y,-x,-z
-x,-y,z
-y,x,-z
x,-y,1/2-z
-x,y,1/2-z
-y,-x,1/2+z
y,x,1/2+z
loop_
_atom_site_type_symbol
_atom_site_label
_atom_site_fract_x
_atom_site_fract_y
_atom_site_fract_z
Si Si1 0.500000 0.000000 0.250000
Si Si2 0.016295 0.743418 0.014450
Si Si3 0.500000 0.500000 0.500000
Si Si4 0.228372 0.500000 0.250000
O O1 0.626644 0.925892 0.381212
O O2 0.120338 0.630116 0.141836
O O3 0.870198 0.860944 0.077685
O O4 0.357680 0.572518 0.382932
#
# Coordination Sequence:
#
# PCOD9555295 Si02
#       4
#     2   8   2   4
#     4  12  32  52  88 130 184 240 300 374 492 544
#     4  11  31  59  94 136 184 245 315 392 469 559
#     4  10  28  54  92 142 188 258 312 374 484 578
#     4  11  28  57  92 135 195 246 314 392 470 558
#
# _framework density 30.003679999999999
#
# number of rings (size 3 to 8) (size 9 to 14) (size 15 to 20)
#    0.000    1.000    0.000    0.000   14.000    9.000 
#    0.000    5.000    0.000    0.000    0.000    0.000 
#    0.000    0.000    0.000    0.000    0.000    0.000 
#
# Total GULP energy -89371.859561 kJ/mol
# GULP energy per Si atom -5585.741223 kJ/mol
# Density = 2.993539 g / cm^3
# Si number density = 30.003680 Si / 1000 Ang^3
#
#
#
# Elastic Constant Matrix: (Units=GPa)
#
#
# Indices 1 2 3 4 5 6 
#
# 1 164.6707 90.6203 96.0144 0.0000 0.0000 0.0000
# 2 90.6203 164.6707 96.0144 0.0000 0.0000 0.0000
# 3 96.0144 96.0144 172.4615 0.0000 0.0000 0.0000
# 4 0.0000 0.0000 0.0000 74.0883 0.0000 0.0000
# 5 0.0000 0.0000 0.0000 0.0000 74.0883 0.0000
# 6 0.0000 0.0000 0.0000 0.0000 0.0000 82.8391
#
#
#
# Elastic Compliance Matrix: (Units=1/GPa)
#
#
# Indices 1 2 3 4 5 6 
#
# 1 0.010122 -0.003382 -0.003752 0.000000 0.000000 0.000000
# 2 -0.003382 0.010122 -0.003752 0.000000 0.000000 0.000000
# 3 -0.003752 -0.003752 0.009976 0.000000 0.000000 0.000000
# 4 0.000000 0.000000 0.000000 0.013497 0.000000 0.000000
# 5 0.000000 0.000000 0.000000 0.000000 0.013497 0.000000
# 6 0.000000 0.000000 0.000000 0.000000 0.000000 0.012072
#
#
# Mechanical properties :
#
#
# Convention : Reuss Voigt Hill
#
# Bulk Modulus (GPa) = 118.38808 118.56680 118.47744
# Shear Modulus (GPa) = 53.26253 60.81338 57.03796
#
# Velocity S-wave (km/s) = 4.21788 4.50695 4.36481
# Velocity P-wave (km/s) = 7.95388 8.16619 8.06074
#
# Compressibility (1/GPa) = 0.00844680
#
# Stress axis : x y z
#
# Youngs Moduli (GPa) = 98.79650 98.79650 100.23993
#
# Poissons Ratio (x) = 0.33418 0.37610
# Poissons Ratio (y) = 0.33418 0.37610
# Poissons Ratio (z) = 0.37068 0.37068
#
# Static dielectric constant tensor:
#      x y z
#    x 2.294360 0.000000 0.000000 
#    y 0.000000 2.294360 0.000000 
#    z 0.000000 0.000000 2.360100 
# 
# From -- ./inp_files/562.got.cif
#   From: 2010.05.17/outbox.cif.g08.bks.cpg/sg112_1_cif.got.tgz:562.got - 2010.05.20 10:59:04.
