data_PCOD9555737
_publ_section_title
;
Structure prediction by ZEFSAII (Michael W. Deem and Ramdas Pophale) SiO2 
 PCOD9555737
Probable space group: P -4 21 M 
;
_chemical_formula_sum "Si O2"
_cell_formula_units_Z 32
_cell_length_a 11.926561
_cell_length_b 11.926561
_cell_length_c 11.561655
_cell_angle_alpha 90.000000
_cell_angle_beta 90.000000
_cell_angle_gamma 90.000000
_cell_volume 1644.562842
_symmetry_space_group_name_H-M "P -4 21 M "
_symmetry_group_IT_number 113
_symmetry_cell_setting 'tetragonal'
loop_
_space_group_symop_operation_xyz
x,y,z
y,-x,-z
-x,-y,z
-y,x,-z
1/2+x,1/2-y,-z
1/2-x,1/2+y,-z
1/2-y,1/2-x,z
1/2+y,1/2+x,z
loop_
_atom_site_type_symbol
_atom_site_label
_atom_site_fract_x
_atom_site_fract_y
_atom_site_fract_z
Si Si1 0.094199 0.405802 0.077580
Si Si2 0.109951 0.216474 0.248235
Si Si3 0.906233 0.593768 0.802901
Si Si4 0.234703 0.077942 0.576527
Si Si5 0.509000 0.315198 0.324023
O O1 0.105638 0.394363 0.940828
O O2 0.000000 0.500000 0.102804
O O3 0.064222 0.286347 0.138046
O O4 0.236122 0.263879 0.259490
O O5 0.116759 0.082862 0.249731
O O6 0.037225 0.258948 0.356499
O O7 0.790860 0.553453 0.746181
O O8 0.000000 0.500000 0.780115
O O9 0.329100 0.170901 0.597570
O O10 0.221449 0.055158 0.440989
O O11 0.116485 0.117433 0.630157
#
# Coordination Sequence:
#
# PCOD9555737 Si02
#       5
#     4   8   4   8   8
#     4   9  22  47  69  98 129 177 238 290 326 399
#     4  10  23  42  67  97 132 177 220 285 345 395
#     4  11  24  45  71  99 136 184 237 282 336 407
#     4  12  24  40  65  98 138 176 223 279 345 425
#     4  12  24  43  63 101 137 179 223 279 351 412
#
# _framework density 19.45806
#
# number of rings (size 3 to 8) (size 9 to 14) (size 15 to 20)
#    0.750    0.250    3.750    3.750    1.750    0.000 
#    4.500    0.000    0.000    0.000    0.000    0.000 
#    0.000    0.000    0.000    0.000    0.000    0.000 
#
# Total GULP energy -178551.354997 kJ/mol
# GULP energy per Si atom -5579.729844 kJ/mol
# Density = 1.941377 g / cm^3
# Si number density = 19.458060 Si / 1000 Ang^3
#
#
#
# Elastic Constant Matrix: (Units=GPa)
#
#
# Indices 1 2 3 4 5 6 
#
# 1 92.2469 26.8086 39.8807 0.0000 0.0000 0.0000
# 2 26.8086 92.2513 39.8812 0.0000 0.0000 0.0000
# 3 39.8807 39.8812 100.4684 0.0000 0.0000 0.0000
# 4 0.0000 0.0000 0.0000 18.8446 0.0000 0.0000
# 5 0.0000 0.0000 0.0000 0.0000 18.8397 0.0000
# 6 0.0000 0.0000 0.0000 0.0000 0.0000 39.6701
#
#
#
# Elastic Compliance Matrix: (Units=1/GPa)
#
#
# Indices 1 2 3 4 5 6 
#
# 1 0.013362 -0.001919 -0.004542 0.000000 0.000000 0.000000
# 2 -0.001919 0.013361 -0.004542 0.000000 0.000000 0.000000
# 3 -0.004542 -0.004542 0.013559 0.000000 0.000000 0.000000
# 4 0.000000 0.000000 0.000000 0.053066 0.000000 0.000000
# 5 0.000000 0.000000 0.000000 0.000000 0.053079 0.000000
# 6 0.000000 0.000000 0.000000 0.000000 0.000000 0.025208
#
#
# Mechanical properties :
#
#
# Convention : Reuss Voigt Hill
#
# Bulk Modulus (GPa) = 54.71751 55.34529 55.03140
# Shear Modulus (GPa) = 25.03330 27.36395 26.19862
#
# Velocity S-wave (km/s) = 3.59071 3.75414 3.67333
# Velocity P-wave (km/s) = 6.73593 6.87725 6.80695
#
# Compressibility (1/GPa) = 0.01827569
#
# Stress axis : x y z
#
# Youngs Moduli (GPa) = 74.83938 74.84326 73.75044
#
# Poissons Ratio (x) = 0.14366 0.33498
# Poissons Ratio (y) = 0.14365 0.33496
# Poissons Ratio (z) = 0.33993 0.33993
#
# Static dielectric constant tensor:
#      x y z
#    x 1.695570 0.000000 0.000000 
#    y 0.000000 1.695570 0.000000 
#    z 0.000000 0.000000 1.647040 
# 
# From -- ./inp_files/1592.got.cif
#   From: 2010.05.17/outbox.cif.g08.bks.cpg/sg113_cif.got.tgz:1592.got - 2010.05.20 11:03:00.
