data_PCOD9555769
_publ_section_title
;
Structure prediction by ZEFSAII (Michael W. Deem and Ramdas Pophale) SiO2 
 PCOD9555769
Probable space group: P -4 21 M 
;
_chemical_formula_sum "Si O2"
_cell_formula_units_Z 36
_cell_length_a 13.827086
_cell_length_b 13.827086
_cell_length_c 9.327584
_cell_angle_alpha 90.000000
_cell_angle_beta 90.000000
_cell_angle_gamma 90.000000
_cell_volume 1783.324996
_symmetry_space_group_name_H-M "P -4 21 M "
_symmetry_group_IT_number 113
_symmetry_cell_setting 'tetragonal'
loop_
_space_group_symop_operation_xyz
x,y,z
y,-x,-z
-x,-y,z
-y,x,-z
1/2+x,1/2-y,-z
1/2-x,1/2+y,-z
1/2-y,1/2-x,z
1/2+y,1/2+x,z
loop_
_atom_site_type_symbol
_atom_site_label
_atom_site_fract_x
_atom_site_fract_y
_atom_site_fract_z
Si Si1 0.608805 0.591519 0.578721
Si Si2 0.113260 0.071229 0.914617
Si Si3 0.473138 0.185237 0.945289
Si Si4 0.416859 0.916859 0.708960
Si Si5 0.083178 0.416823 0.820827
Si Si6 0.684607 0.184607 0.444299
O O1 0.513536 0.628406 0.493513
O O2 0.585901 0.582903 0.749806
O O3 0.701600 0.659886 0.560030
O O4 0.224181 0.097103 0.934660
O O5 0.041058 0.115590 0.031916
O O6 0.410416 0.089585 0.949225
O O7 0.536275 0.168927 0.803850
O O8 0.537522 0.170936 0.086154
O O9 0.366983 0.866983 0.576684
O O10 0.500000 0.000000 0.679255
O O11 0.131555 0.368446 0.686199
O O12 0.000000 0.500000 0.792321
#
# Coordination Sequence:
#
# PCOD9555769 Si02
#       6
#     8   8   8   4   4   4
#     4  11  25  45  65  92 134 170 211 270 317 375
#     4  11  22  38  63  86 123 162 208 256 311 365
#     4   9  19  38  62  87 123 162 202 250 315 371
#     4   9  19  37  61  91 126 162 205 262 307 367
#     4   9  19  37  59  93 130 156 197 272 313 359
#     4  12  23  40  68  93 124 170 218 248 326 385
#
# _framework density 20.187011999999999
#
# number of rings (size 3 to 8) (size 9 to 14) (size 15 to 20)
#    0.000    1.778    0.000    7.000    1.556    0.000 
#    8.000    0.000    7.333    0.000    0.000    0.000 
#    0.000    0.000    0.000    0.000    0.000    0.000 
#
# Total GULP energy -200614.769941 kJ/mol
# GULP energy per Si atom -5572.632498 kJ/mol
# Density = 2.014107 g / cm^3
# Si number density = 20.187012 Si / 1000 Ang^3
#
#
#
# Elastic Constant Matrix: (Units=GPa)
#
#
# Indices 1 2 3 4 5 6 
#
# 1 87.3709 24.5558 41.2117 0.0000 0.0000 0.0000
# 2 24.5558 87.3708 41.2143 0.0000 0.0000 0.0000
# 3 41.2117 41.2143 142.2536 0.0000 0.0000 0.0000
# 4 0.0000 0.0000 0.0000 -73.6919 0.0000 0.0000
# 5 0.0000 0.0000 0.0000 0.0000 -73.7090 0.0000
# 6 0.0000 0.0000 0.0000 0.0000 0.0000 27.6808
#
#
#
# Elastic Compliance Matrix: (Units=1/GPa)
#
#
# Indices 1 2 3 4 5 6 
#
# 1 0.013639 -0.002281 -0.003290 0.000000 0.000000 0.000000
# 2 -0.002281 0.013639 -0.003291 0.000000 0.000000 0.000000
# 3 -0.003290 -0.003291 0.008936 0.000000 0.000000 0.000000
# 4 0.000000 0.000000 0.000000 -0.013570 0.000000 0.000000
# 5 0.000000 0.000000 0.000000 0.000000 -0.013567 0.000000
# 6 0.000000 0.000000 0.000000 0.000000 0.000000 0.036126
#
#
# Mechanical properties :
#
#
# Convention : Reuss Voigt Hill
#
# Bulk Modulus (GPa) = 54.08432 58.99544 56.53988
# Shear Modulus (GPa) = 72.36917 -9.94314 31.21302
#
# Velocity S-wave (km/s) = 5.99393 -2.22176 3.93643
# Velocity P-wave (km/s) = 8.64597 4.76511 6.98065
#
# Compressibility (1/GPa) = 0.01848965
#
# Stress axis : x y z
#
# Youngs Moduli (GPa) = 73.32168 73.32005 111.90311
#
# Poissons Ratio (x) = 0.16725 0.36819
# Poissons Ratio (y) = 0.16725 0.36824
# Poissons Ratio (z) = 0.24125 0.24127
#
# Static dielectric constant tensor:
#      x y z
#    x 1.765800 0.000000 0.000000 
#    y 0.000000 1.765790 0.000000 
#    z 0.000000 0.000000 1.780120 
# 
# From -- ./inp_files/957.got.cif
#   From: 2010.05.17/outbox.cif.g08.bks.cpg/sg113_cif.got.tgz:957.got - 2010.05.20 11:03:00.
