data_PCOD9555066
_publ_section_title
;
Structure prediction by ZEFSAII (Michael W. Deem and Ramdas Pophale) SiO2 
 PCOD9555066
Probable space group: P -4 2 C
;
_chemical_formula_sum "Si O2"
_cell_formula_units_Z 56
_cell_length_a 13.962422
_cell_length_b 13.962422
_cell_length_c 13.514074
_cell_angle_alpha 90.000000
_cell_angle_beta 90.000000
_cell_angle_gamma 90.000000
_cell_volume 2634.558295
_symmetry_space_group_name_H-M "P -4 2 C"
_symmetry_group_IT_number 112
_symmetry_cell_setting 'tetragonal'
loop_
_space_group_symop_operation_xyz
x,y,z
y,-x,-z
-x,-y,z
-y,x,-z
x,-y,1/2-z
-x,y,1/2-z
-y,-x,1/2+z
y,x,1/2+z
loop_
_atom_site_type_symbol
_atom_site_label
_atom_site_fract_x
_atom_site_fract_y
_atom_site_fract_z
Si Si1 0.224644 0.632201 0.069725
Si Si2 0.621648 0.239524 0.176058
Si Si3 0.012583 0.614228 0.140699
Si Si4 0.850501 0.715724 0.627435
Si Si5 0.935111 0.682021 0.938645
Si Si6 0.122162 0.903848 0.985261
Si Si7 0.497130 0.344701 0.472528
O O1 0.296239 0.689204 0.138502
O O2 0.120758 0.634322 0.113402
O O3 0.214502 0.683063 0.964105
O O4 0.259579 0.524967 0.046559
O O5 0.663164 0.197653 0.279109
O O6 0.614893 0.142415 0.111695
O O7 0.529589 0.301916 0.135795
O O8 0.000000 0.500000 0.141244
O O9 0.000000 0.653707 0.250000
O O10 0.948395 0.657344 0.053805
O O11 0.861579 0.831121 0.607120
O O12 0.960254 0.678902 0.612061
O O13 0.893828 0.790287 0.937860
O O14 0.018629 0.879473 0.033301
O O15 0.412746 0.409406 0.519123
#
# Coordination Sequence:
#
# PCOD9555066 Si02
#       7
#     8   8   8   8   8   8   8
#     4  10  21  38  60  88 120 162 211 268 336 399
#     4  11  21  36  63  89 122 166 213 269 330 403
#     4  10  22  38  59  86 119 159 211 269 332 400
#     4  10  21  36  58  93 126 168 222 259 326 394
#     4  10  20  37  59  87 129 171 212 273 323 396
#     4   9  18  35  57  85 130 177 217 269 316 382
#     4   9  20  40  65  89 121 164 211 273 350 415
#
# _framework density 21.255934
#
# number of rings (size 3 to 8) (size 9 to 14) (size 15 to 20)
#    0.000    2.143    1.429    1.286    2.000    0.571 
#    0.000    0.714    0.000   39.429    0.000    0.000 
#    0.000    0.000    0.000    0.000    0.000    0.000 
#
# Total GULP energy -311848.474374 kJ/mol
# GULP energy per Si atom -5568.722757 kJ/mol
# Density = 2.120755 g / cm^3
# Si number density = 21.255934 Si / 1000 Ang^3
#
#
#
# Elastic Constant Matrix: (Units=GPa)
#
#
# Indices 1 2 3 4 5 6 
#
# 1 69.4861 30.6072 43.3359 0.0000 0.0000 0.0000
# 2 30.6072 69.4861 43.3359 0.0000 0.0000 0.0000
# 3 43.3359 43.3359 141.5358 0.0000 0.0000 0.0000
# 4 0.0000 0.0000 0.0000 18.1059 0.0000 0.0000
# 5 0.0000 0.0000 0.0000 0.0000 18.1059 0.0000
# 6 0.0000 0.0000 0.0000 0.0000 0.0000 16.4728
#
#
#
# Elastic Compliance Matrix: (Units=1/GPa)
#
#
# Indices 1 2 3 4 5 6 
#
# 1 0.019658 -0.006063 -0.004163 0.000000 0.000000 0.000000
# 2 -0.006063 0.019658 -0.004163 0.000000 0.000000 0.000000
# 3 -0.004163 -0.004163 0.009614 0.000000 0.000000 0.000000
# 4 0.000000 0.000000 0.000000 0.055231 0.000000 0.000000
# 5 0.000000 0.000000 0.000000 0.000000 0.055231 0.000000
# 6 0.000000 0.000000 0.000000 0.000000 0.000000 0.060706
#
#
# Mechanical properties :
#
#
# Convention : Reuss Voigt Hill
#
# Bulk Modulus (GPa) = 49.61740 57.22957 53.42349
# Shear Modulus (GPa) = 19.56240 21.41882 20.49061
#
# Velocity S-wave (km/s) = 3.03698 3.17781 3.10819
# Velocity P-wave (km/s) = 5.97421 6.35981 6.17002
#
# Compressibility (1/GPa) = 0.02015422
#
# Stress axis : x y z
#
# Youngs Moduli (GPa) = 50.86983 50.86983 104.01071
#
# Poissons Ratio (x) = 0.30842 0.43296
# Poissons Ratio (y) = 0.30842 0.43296
# Poissons Ratio (z) = 0.21175 0.21175
#
# Static dielectric constant tensor:
#      x y z
#    x 1.806330 0.000000 0.000000 
#    y 0.000000 1.806330 0.000000 
#    z 0.000000 0.000000 1.815430 
# 
# From -- ./inp_files/2678.got.cif
#   From: 2010.05.17/outbox.cif.g08.bks.cpg/sg112_2_cif.got.tgz:2678.got - 2010.05.20 10:59:04.
