data_PCOD9555083
_publ_section_title
;
Structure prediction by ZEFSAII (Michael W. Deem and Ramdas Pophale) SiO2 
 PCOD9555083
Probable space group: P -4 2 C
;
_chemical_formula_sum "Si O2"
_cell_formula_units_Z 40
_cell_length_a 8.306376
_cell_length_b 8.306376
_cell_length_c 25.090495
_cell_angle_alpha 90.000000
_cell_angle_beta 90.000000
_cell_angle_gamma 90.000000
_cell_volume 1731.140839
_symmetry_space_group_name_H-M "P -4 2 C"
_symmetry_group_IT_number 112
_symmetry_cell_setting 'tetragonal'
loop_
_space_group_symop_operation_xyz
x,y,z
y,-x,-z
-x,-y,z
-y,x,-z
x,-y,1/2-z
-x,y,1/2-z
-y,-x,1/2+z
y,x,1/2+z
loop_
_atom_site_type_symbol
_atom_site_label
_atom_site_fract_x
_atom_site_fract_y
_atom_site_fract_z
Si Si1 0.333185 0.786682 0.896062
Si Si2 0.843746 0.710548 0.380182
Si Si3 0.670543 0.586880 0.697899
Si Si4 0.788758 0.165986 0.007515
Si Si5 0.177381 0.186033 0.763604
O O1 0.520105 0.811157 0.881388
O O2 0.267042 0.637961 0.860507
O O3 0.254721 0.963022 0.884552
O O4 0.316114 0.763218 0.959411
O O5 0.758014 0.780967 0.432319
O O6 0.782732 0.782323 0.324992
O O7 0.500000 0.500000 0.691626
O O8 0.751807 0.500000 0.750000
O O9 0.676149 0.760183 0.725646
O O10 0.972833 0.217884 0.995501
O O11 0.000000 0.253007 0.750000
O O12 0.165508 0.000000 0.750000
#
# Coordination Sequence:
#
# PCOD9555083 Si02
#       5
#     8   8   8   8   8
#     4  10  21  40  64  94 131 177 232 275 346 432
#     4  10  20  39  65  97 131 171 227 293 342 412
#     4  11  23  42  62  93 139 184 222 272 358 428
#     4   9  20  37  67  95 127 169 219 291 358 405
#     4  11  24  41  72 106 134 177 238 301 351 417
#
# _framework density 23.106147
#
# number of rings (size 3 to 8) (size 9 to 14) (size 15 to 20)
#    0.000    1.800    2.000    2.400    2.800    2.000 
#    7.200    0.000    0.000    0.000    0.000    0.000 
#    0.000    0.000    0.000    0.000    0.000    0.000 
#
# Total GULP energy -222936.561117 kJ/mol
# GULP energy per Si atom -5573.414028 kJ/mol
# Density = 2.305356 g / cm^3
# Si number density = 23.106147 Si / 1000 Ang^3
#
#
#
# Elastic Constant Matrix: (Units=GPa)
#
#
# Indices 1 2 3 4 5 6 
#
# 1 48.2514 30.3237 40.7534 0.0000 0.0000 0.0000
# 2 30.3237 48.2514 40.7534 0.0000 0.0000 0.0000
# 3 40.7534 40.7534 226.6002 0.0000 0.0000 0.0000
# 4 0.0000 0.0000 0.0000 32.8340 0.0000 0.0000
# 5 0.0000 0.0000 0.0000 0.0000 32.8340 0.0000
# 6 0.0000 0.0000 0.0000 0.0000 0.0000 29.2212
#
#
#
# Elastic Compliance Matrix: (Units=1/GPa)
#
#
# Indices 1 2 3 4 5 6 
#
# 1 0.035713 -0.020067 -0.002814 0.000000 0.000000 0.000000
# 2 -0.020067 0.035713 -0.002814 0.000000 0.000000 0.000000
# 3 -0.002814 -0.002814 0.005425 0.000000 0.000000 0.000000
# 4 0.000000 0.000000 0.000000 0.030456 0.000000 0.000000
# 5 0.000000 0.000000 0.000000 0.000000 0.030456 0.000000
# 6 0.000000 0.000000 0.000000 0.000000 0.000000 0.034222
#
#
# Mechanical properties :
#
#
# Convention : Reuss Voigt Hill
#
# Bulk Modulus (GPa) = 39.27593 60.75157 50.01375
# Shear Modulus (GPa) = 21.56467 33.06268 27.31367
#
# Velocity S-wave (km/s) = 3.05829 3.78683 3.44189
# Velocity P-wave (km/s) = 5.43192 6.74312 6.12272
#
# Compressibility (1/GPa) = 0.02546088
#
# Stress axis : x y z
#
# Youngs Moduli (GPa) = 28.00137 28.00137 184.32631
#
# Poissons Ratio (x) = 0.56191 0.51865
# Poissons Ratio (y) = 0.56191 0.51865
# Poissons Ratio (z) = 0.07879 0.07879
#
# Static dielectric constant tensor:
#      x y z
#    x 2.041370 0.000000 0.000000 
#    y 0.000000 2.041370 0.000000 
#    z 0.000000 0.000000 1.897730 
# 
# From -- ./inp_files/5319.got.cif
#   From: 2010.05.17/outbox.cif.g08.bks.cpg/sg112_3_cif.got.tgz:5319.got - 2010.05.20 10:59:04.
