data_PCOD9555330
_publ_section_title
;
Structure prediction by ZEFSAII (Michael W. Deem and Ramdas Pophale) SiO2 
 PCOD9555330
Probable space group: P -4 2 C
;
_chemical_formula_sum "Si O2"
_cell_formula_units_Z 56
_cell_length_a 21.105194
_cell_length_b 21.105194
_cell_length_c 8.594428
_cell_angle_alpha 90.000000
_cell_angle_beta 90.000000
_cell_angle_gamma 90.000000
_cell_volume 3828.209307
_symmetry_space_group_name_H-M "P -4 2 C"
_symmetry_group_IT_number 112
_symmetry_cell_setting 'tetragonal'
loop_
_space_group_symop_operation_xyz
x,y,z
y,-x,-z
-x,-y,z
-y,x,-z
x,-y,1/2-z
-x,y,1/2-z
-y,-x,1/2+z
y,x,1/2+z
loop_
_atom_site_type_symbol
_atom_site_label
_atom_site_fract_x
_atom_site_fract_y
_atom_site_fract_z
Si Si1 0.576589 0.000273 0.427802
Si Si2 0.354237 0.739532 0.954037
Si Si3 0.741849 0.355453 0.080266
Si Si4 0.357441 0.545113 0.122366
Si Si5 0.353464 0.452423 0.873374
Si Si6 0.139485 0.424827 0.934588
Si Si7 0.573011 0.140151 0.443946
O O1 0.592749 0.931268 0.493494
O O2 0.500000 0.000000 0.419458
O O3 0.600752 0.000000 0.250000
O O4 0.591487 0.068854 0.498069
O O5 0.354431 0.737995 0.767401
O O6 0.288066 0.709176 0.012975
O O7 0.407822 0.695694 0.036682
O O8 0.375080 0.809280 0.005806
O O9 0.692987 0.411369 0.034867
O O10 0.808605 0.379405 0.015345
O O11 0.326009 0.500000 0.250000
O O12 0.407306 0.593008 0.197961
O O13 0.386677 0.497608 0.998645
O O14 0.322840 0.500000 0.750000
O O15 0.140224 0.424276 0.745242
O O16 0.152899 0.498420 0.982875
#
# Coordination Sequence:
#
# PCOD9555330 Si02
#       7
#     8   8   8   8   8   8   8
#     4   7  12  26  45  72  95 111 138 168 208 266
#     4  11  23  35  47  63  84 112 146 182 220 267
#     4  11  23  35  47  62  85 112 146 182 221 264
#     4  11  22  37  45  60  75 100 133 183 225 276
#     4  11  24  33  49  59  77  99 136 178 233 279
#     4   9  17  29  50  72  90 115 142 175 219 268
#     4   9  17  29  51  70  91 116 141 177 218 264
#
# _framework density 14.62825
#
# number of rings (size 3 to 8) (size 9 to 14) (size 15 to 20)
#    0.000    2.143    1.429    4.286   10.000    1.714 
#    0.000    0.714    0.000    2.571    0.000    0.000 
#    0.000    0.000    0.000    0.000    0.000    0.714 
#
# Total GULP energy -311839.770738 kJ/mol
# GULP energy per Si atom -5568.567335 kJ/mol
# Density = 1.459495 g / cm^3
# Si number density = 14.628250 Si / 1000 Ang^3
#
#
#
# Elastic Constant Matrix: (Units=GPa)
#
#
# Indices 1 2 3 4 5 6 
#
# 1 96.9920 45.7818 21.3810 0.0000 0.0000 0.0000
# 2 45.7818 96.9920 21.3810 0.0000 0.0000 0.0000
# 3 21.3810 21.3810 40.8496 0.0000 0.0000 0.0000
# 4 0.0000 0.0000 0.0000 13.3871 0.0000 0.0000
# 5 0.0000 0.0000 0.0000 0.0000 13.3871 0.0000
# 6 0.0000 0.0000 0.0000 0.0000 0.0000 14.5753
#
#
#
# Elastic Compliance Matrix: (Units=1/GPa)
#
#
# Indices 1 2 3 4 5 6 
#
# 1 0.013917 -0.005611 -0.004348 0.000000 0.000000 0.000000
# 2 -0.005611 0.013917 -0.004348 0.000000 0.000000 0.000000
# 3 -0.004348 -0.004348 0.029031 0.000000 0.000000 0.000000
# 4 0.000000 0.000000 0.000000 0.074699 0.000000 0.000000
# 5 0.000000 0.000000 0.000000 0.000000 0.074699 0.000000
# 6 0.000000 0.000000 0.000000 0.000000 0.000000 0.068609
#
#
# Mechanical properties :
#
#
# Convention : Reuss Voigt Hill
#
# Bulk Modulus (GPa) = 35.39399 45.76904 40.58151
# Shear Modulus (GPa) = 15.97951 18.02255 17.00103
#
# Velocity S-wave (km/s) = 3.30869 3.51385 3.41281
# Velocity P-wave (km/s) = 6.23256 6.91512 6.58269
#
# Compressibility (1/GPa) = 0.02825338
#
# Stress axis : x y z
#
# Youngs Moduli (GPa) = 71.85569 71.85569 34.44579
#
# Poissons Ratio (x) = 0.40315 0.14975
# Poissons Ratio (y) = 0.40315 0.14975
# Poissons Ratio (z) = 0.31240 0.31240
#
# Static dielectric constant tensor:
#      x y z
#    x 1.498930 0.000000 0.000000 
#    y 0.000000 1.498930 0.000000 
#    z 0.000000 0.000000 1.552180 
# 
# From -- ./inp_files/1618.got.cif
#   From: 2010.05.17/outbox.cif.g08.bks.cpg/sg112_1_cif.got.tgz:1618.got - 2010.05.20 10:59:04.
