data_PCOD9555161
_publ_section_title
;
Structure prediction by ZEFSAII (Michael W. Deem and Ramdas Pophale) SiO2 
 PCOD9555161
Probable space group: P -4 2 C
;
_chemical_formula_sum "Si O2"
_cell_formula_units_Z 56
_cell_length_a 14.792838
_cell_length_b 14.792838
_cell_length_c 11.622206
_cell_angle_alpha 90.000000
_cell_angle_beta 90.000000
_cell_angle_gamma 90.000000
_cell_volume 2543.264747
_symmetry_space_group_name_H-M "P -4 2 C"
_symmetry_group_IT_number 112
_symmetry_cell_setting 'tetragonal'
loop_
_space_group_symop_operation_xyz
x,y,z
y,-x,-z
-x,-y,z
-y,x,-z
x,-y,1/2-z
-x,y,1/2-z
-y,-x,1/2+z
y,x,1/2+z
loop_
_atom_site_type_symbol
_atom_site_label
_atom_site_fract_x
_atom_site_fract_y
_atom_site_fract_z
Si Si1 0.846236 0.622641 0.937734
Si Si2 0.865601 0.934844 0.974608
Si Si3 0.401209 0.766978 0.807506
Si Si4 0.417477 0.878223 0.436220
Si Si5 0.915086 0.304371 0.169459
Si Si6 0.602635 0.284364 0.277676
Si Si7 0.730365 0.985220 0.132086
O O1 0.892428 0.523864 0.929461
O O2 0.777817 0.633938 0.830877
O O3 0.922458 0.701066 0.932333
O O4 0.795767 0.611639 0.059799
O O5 0.802349 0.924020 0.862979
O O6 0.960088 0.885926 0.992611
O O7 0.790990 0.910824 0.068718
O O8 0.500000 0.784293 0.750000
O O9 0.327716 0.826166 0.739325
O O10 0.370966 0.664539 0.792054
O O11 0.370172 0.908184 0.556555
O O12 0.398512 0.775761 0.394802
O O13 0.363994 0.936682 0.343160
O O14 0.000000 0.329114 0.250000
O O15 0.500000 0.308219 0.250000
O O16 0.780873 0.000000 0.250000
#
# Coordination Sequence:
#
# PCOD9555161 Si02
#       7
#     8   8   8   8   8   8   8
#     4  11  23  42  68 101 140 184 228 291 357 419
#     4  10  25  46  65  91 137 184 232 286 344 412
#     4  12  26  44  71 104 145 188 234 301 368 427
#     4  10  21  42  64  97 142 176 229 287 351 420
#     4  11  25  43  69 104 140 184 234 293 358 437
#     4  10  25  43  70 102 141 191 245 295 351 431
#     4  11  22  37  66 101 130 178 231 284 344 418
#
# _framework density 22.018941000000002
#
# number of rings (size 3 to 8) (size 9 to 14) (size 15 to 20)
#    0.000    1.286    2.857    2.143    4.000    5.714 
#    0.000    1.429    0.000    1.714    0.000    0.000 
#    0.000    0.000    0.000    0.000    0.000    0.000 
#
# Total GULP energy -312205.731353 kJ/mol
# GULP energy per Si atom -5575.102346 kJ/mol
# Density = 2.196882 g / cm^3
# Si number density = 22.018941 Si / 1000 Ang^3
#
#
#
# Elastic Constant Matrix: (Units=GPa)
#
#
# Indices 1 2 3 4 5 6 
#
# 1 83.9413 32.0160 13.6789 0.0000 0.0000 0.0000
# 2 32.0160 83.9413 13.6789 0.0000 0.0000 0.0000
# 3 13.6789 13.6789 86.4129 0.0000 0.0000 0.0000
# 4 0.0000 0.0000 0.0000 12.3662 0.0000 0.0000
# 5 0.0000 0.0000 0.0000 0.0000 12.3662 0.0000
# 6 0.0000 0.0000 0.0000 0.0000 0.0000 35.5763
#
#
#
# Elastic Compliance Matrix: (Units=1/GPa)
#
#
# Indices 1 2 3 4 5 6 
#
# 1 0.014108 -0.005150 -0.001418 0.000000 0.000000 0.000000
# 2 -0.005150 0.014108 -0.001418 0.000000 0.000000 0.000000
# 3 -0.001418 -0.001418 0.012021 0.000000 0.000000 0.000000
# 4 0.000000 0.000000 0.000000 0.080866 0.000000 0.000000
# 5 0.000000 0.000000 0.000000 0.000000 0.080866 0.000000
# 6 0.000000 0.000000 0.000000 0.000000 0.000000 0.028109
#
#
# Mechanical properties :
#
#
# Convention : Reuss Voigt Hill
#
# Bulk Modulus (GPa) = 41.21027 41.44924 41.32975
# Shear Modulus (GPa) = 19.67427 25.05651 22.36539
#
# Velocity S-wave (km/s) = 2.99242 3.37701 3.19052
# Velocity P-wave (km/s) = 5.54038 5.83703 5.69064
#
# Compressibility (1/GPa) = 0.02426580
#
# Stress axis : x y z
#
# Youngs Moduli (GPa) = 70.87959 70.87959 83.18559
#
# Poissons Ratio (x) = 0.36503 0.11797
# Poissons Ratio (y) = 0.36503 0.11797
# Poissons Ratio (z) = 0.10051 0.10051
#
# Static dielectric constant tensor:
#      x y z
#    x 1.835340 0.000000 0.000000 
#    y 0.000000 1.835340 0.000000 
#    z 0.000000 0.000000 1.991440 
# 
# From -- ./inp_files/2660.got.cif
#   From: 2010.05.17/outbox.cif.g08.bks.cpg/sg112_2_cif.got.tgz:2660.got - 2010.05.20 10:59:04.
