data_PCOD9555632
_publ_section_title
;
Structure prediction by ZEFSAII (Michael W. Deem and Ramdas Pophale) SiO2 
 PCOD9555632
Probable space group: P -4 21 M 
;
_chemical_formula_sum "Si O2"
_cell_formula_units_Z 64
_cell_length_a 18.105361
_cell_length_b 18.105361
_cell_length_c 10.331899
_cell_angle_alpha 90.000000
_cell_angle_beta 90.000000
_cell_angle_gamma 90.000000
_cell_volume 3386.838821
_symmetry_space_group_name_H-M "P -4 21 M "
_symmetry_group_IT_number 113
_symmetry_cell_setting 'tetragonal'
loop_
_space_group_symop_operation_xyz
x,y,z
y,-x,-z
-x,-y,z
-y,x,-z
1/2+x,1/2-y,-z
1/2-x,1/2+y,-z
1/2-y,1/2-x,z
1/2+y,1/2+x,z
loop_
_atom_site_type_symbol
_atom_site_label
_atom_site_fract_x
_atom_site_fract_y
_atom_site_fract_z
Si Si1 0.904769 0.090515 0.685678
Si Si2 0.491312 0.310429 0.511830
Si Si3 0.627987 0.245561 0.354148
Si Si4 0.871586 0.249372 0.305577
Si Si5 0.243093 0.433252 0.921715
Si Si6 0.594940 0.783203 0.989503
Si Si7 0.176230 0.206978 0.140577
Si Si8 0.408553 0.483889 0.914892
O O1 0.938640 0.154205 0.596114
O O2 0.833063 0.121683 0.760420
O O3 0.968055 0.073084 0.789755
O O4 0.877372 0.022809 0.599298
O O5 0.560792 0.269891 0.445639
O O6 0.441129 0.258791 0.601086
O O7 0.682775 0.182775 0.408762
O O8 0.678850 0.317533 0.324603
O O9 0.596894 0.217064 0.216161
O O10 0.820604 0.320604 0.332819
O O11 0.898338 0.255377 0.157869
O O12 0.249485 0.371224 0.032394
O O13 0.207789 0.510279 0.967761
O O14 0.327925 0.454916 0.898003
O O15 0.641209 0.858792 0.999845
O O16 0.640580 0.723500 0.074892
O O17 0.235306 0.264695 0.197933
O O18 0.417810 0.538437 0.038967
#
# Coordination Sequence:
#
# PCOD9555632 Si02
#       8
#     8   8   8   8   8   8   8   8
#     4  12  25  39  55  90 125 167 201 254 307 371
#     4  12  25  41  61  88 127 168 213 255 307 365
#     4  11  23  41  66  91 123 168 215 256 305 368
#     4  10  22  41  64  88 123 173 214 253 304 368
#     4  12  19  37  62  90 124 156 202 250 315 365
#     4  10  20  36  62  92 122 155 199 252 311 374
#     4  11  22  38  62  91 117 157 209 256 303 361
#     4  11  23  34  55  85 124 166 191 232 300 384
#
# _framework density 18.896678000000001
#
# number of rings (size 3 to 8) (size 9 to 14) (size 15 to 20)
#    0.000    0.875    6.250    1.125    0.000    4.250 
#    0.000    0.625    0.000    2.625    0.000    3.500 
#    0.000    0.000    0.000    0.000    0.000    0.000 
#
# Total GULP energy -357535.872429 kJ/mol
# GULP energy per Si atom -5586.498007 kJ/mol
# Density = 1.885367 g / cm^3
# Si number density = 18.896678 Si / 1000 Ang^3
#
#
#
# Elastic Constant Matrix: (Units=GPa)
#
#
# Indices 1 2 3 4 5 6 
#
# 1 71.3026 25.2050 16.1665 0.0000 0.0000 0.0000
# 2 25.2050 71.3042 16.1653 0.0000 0.0000 0.0000
# 3 16.1665 16.1653 46.0740 0.0000 0.0000 0.0000
# 4 0.0000 0.0000 0.0000 8.7651 0.0000 0.0000
# 5 0.0000 0.0000 0.0000 0.0000 8.7661 0.0000
# 6 0.0000 0.0000 0.0000 0.0000 0.0000 30.9217
#
#
#
# Elastic Compliance Matrix: (Units=1/GPa)
#
#
# Indices 1 2 3 4 5 6 
#
# 1 0.016718 -0.004975 -0.004120 0.000000 0.000000 0.000000
# 2 -0.004975 0.016717 -0.004120 0.000000 0.000000 0.000000
# 3 -0.004120 -0.004120 0.024595 0.000000 0.000000 0.000000
# 4 0.000000 0.000000 0.000000 0.114089 0.000000 0.000000
# 5 0.000000 0.000000 0.000000 0.000000 0.114075 0.000000
# 6 0.000000 0.000000 0.000000 0.000000 0.000000 0.032340
#
#
# Mechanical properties :
#
#
# Convention : Reuss Voigt Hill
#
# Bulk Modulus (GPa) = 31.64585 33.75049 32.69817
# Shear Modulus (GPa) = 14.06481 18.43353 16.24917
#
# Velocity S-wave (km/s) = 2.73115 3.12667 2.93558
# Velocity P-wave (km/s) = 5.16998 5.56184 5.36949
#
# Compressibility (1/GPa) = 0.03159972
#
# Stress axis : x y z
#
# Youngs Moduli (GPa) = 59.81695 59.81908 40.65821
#
# Poissons Ratio (x) = 0.29762 0.16752
# Poissons Ratio (y) = 0.29761 0.16749
# Poissons Ratio (z) = 0.24646 0.24643
#
# Static dielectric constant tensor:
#      x y z
#    x 1.663610 0.000000 0.000000 
#    y 0.000000 1.663610 0.000000 
#    z 0.000000 0.000000 1.683390 
# 
# From -- ./inp_files/1406.got.cif
#   From: 2010.05.17/outbox.cif.g08.bks.cpg/sg113_cif.got.tgz:1406.got - 2010.05.20 11:03:00.
