data_PCOD9555784
_publ_section_title
;
Structure prediction by ZEFSAII (Michael W. Deem and Ramdas Pophale) SiO2 
 PCOD9555784
Probable space group: P -4 21 M 
;
_chemical_formula_sum "Si O2"
_cell_formula_units_Z 24
_cell_length_a 11.645207
_cell_length_b 11.645207
_cell_length_c 8.011388
_cell_angle_alpha 90.000000
_cell_angle_beta 90.000000
_cell_angle_gamma 90.000000
_cell_volume 1086.431105
_symmetry_space_group_name_H-M "P -4 21 M "
_symmetry_group_IT_number 113
_symmetry_cell_setting 'tetragonal'
loop_
_space_group_symop_operation_xyz
x,y,z
y,-x,-z
-x,-y,z
-y,x,-z
1/2+x,1/2-y,-z
1/2-x,1/2+y,-z
1/2-y,1/2-x,z
1/2+y,1/2+x,z
loop_
_atom_site_type_symbol
_atom_site_label
_atom_site_fract_x
_atom_site_fract_y
_atom_site_fract_z
Si Si1 0.406099 0.093902 0.842133
Si Si2 0.847503 0.993579 0.398222
Si Si3 0.443591 0.356874 0.907238
Si Si4 0.407033 0.092968 0.438501
O O1 0.432053 0.222174 0.901357
O O2 0.404989 0.095012 0.640496
O O3 0.500000 0.000000 0.896526
O O4 0.881815 0.079346 0.247651
O O5 0.881616 0.073900 0.558995
O O6 0.718465 0.949825 0.384293
O O7 0.386303 0.422044 0.065542
O O8 0.500000 0.000000 0.382181
#
# Coordination Sequence:
#
# PCOD9555784 Si02
#       4
#     4   8   8   4
#     4  11  26  49  75 115 148 192 249 314 371 437
#     4  11  23  45  74 104 145 196 249 304 367 436
#     4  11  25  46  73 109 149 200 244 298 375 451
#     4  11  26  43  77 113 146 186 249 320 367 419
#
# _framework density 22.090679999999999
#
# number of rings (size 3 to 8) (size 9 to 14) (size 15 to 20)
#    0.000    1.000    3.333    4.000    7.000    1.333 
#    0.000    1.667    0.000    0.000    0.000    0.000 
#    0.000    0.000    0.000    0.000    0.000    0.000 
#
# Total GULP energy -133856.105705 kJ/mol
# GULP energy per Si atom -5577.337738 kJ/mol
# Density = 2.204040 g / cm^3
# Si number density = 22.090680 Si / 1000 Ang^3
#
#
#
# Elastic Constant Matrix: (Units=GPa)
#
#
# Indices 1 2 3 4 5 6 
#
# 1 212.0199 147.9768 46.3466 0.0000 0.0000 0.0000
# 2 147.9768 212.0229 46.3468 0.0000 0.0000 0.0000
# 3 46.3466 46.3468 76.1326 0.0000 0.0000 0.0000
# 4 0.0000 0.0000 0.0000 25.1410 0.0000 0.0000
# 5 0.0000 0.0000 0.0000 0.0000 25.1409 0.0000
# 6 0.0000 0.0000 0.0000 0.0000 0.0000 13.2912
#
#
#
# Elastic Compliance Matrix: (Units=1/GPa)
#
#
# Indices 1 2 3 4 5 6 
#
# 1 0.009454 -0.006160 -0.002005 0.000000 0.000000 0.000000
# 2 -0.006160 0.009454 -0.002005 0.000000 0.000000 0.000000
# 3 -0.002005 -0.002005 0.015577 0.000000 0.000000 0.000000
# 4 0.000000 0.000000 0.000000 0.039776 0.000000 0.000000
# 5 0.000000 0.000000 0.000000 0.000000 0.039776 0.000000
# 6 0.000000 0.000000 0.000000 0.000000 0.000000 0.075238
#
#
# Mechanical properties :
#
#
# Convention : Reuss Voigt Hill
#
# Bulk Modulus (GPa) = 70.70427 109.05732 89.88079
# Shear Modulus (GPa) = 23.32854 30.01496 26.67175
#
# Velocity S-wave (km/s) = 3.25320 3.69008 3.47850
# Velocity P-wave (km/s) = 6.79609 8.22379 7.54379
#
# Compressibility (1/GPa) = 0.01414342
#
# Stress axis : x y z
#
# Youngs Moduli (GPa) = 105.77303 105.77462 64.19913
#
# Poissons Ratio (x) = 0.65157 0.12874
# Poissons Ratio (y) = 0.65156 0.12874
# Poissons Ratio (z) = 0.21211 0.21211
#
# Static dielectric constant tensor:
#      x y z
#    x 1.800840 0.000000 0.000000 
#    y 0.000000 1.800830 0.000000 
#    z 0.000000 0.000000 1.970640 
# 
# From -- ./inp_files/718.got.cif
#   From: 2010.05.17/outbox.cif.g08.bks.cpg/sg113_cif.got.tgz:718.got - 2010.05.20 11:03:00.
