data_PCOD9555347
_publ_section_title
;
Structure prediction by ZEFSAII (Michael W. Deem and Ramdas Pophale) SiO2 
 PCOD9555347
Probable space group: P -4 2 C
;
_chemical_formula_sum "Si O2"
_cell_formula_units_Z 46
_cell_length_a 11.211440
_cell_length_b 11.211440
_cell_length_c 16.762952
_cell_angle_alpha 90.000000
_cell_angle_beta 90.000000
_cell_angle_gamma 90.000000
_cell_volume 2107.042500
_symmetry_space_group_name_H-M "P -4 2 C"
_symmetry_group_IT_number 112
_symmetry_cell_setting 'tetragonal'
loop_
_space_group_symop_operation_xyz
x,y,z
y,-x,-z
-x,-y,z
-y,x,-z
x,-y,1/2-z
-x,y,1/2-z
-y,-x,1/2+z
y,x,1/2+z
loop_
_atom_site_type_symbol
_atom_site_label
_atom_site_fract_x
_atom_site_fract_y
_atom_site_fract_z
Si Si1 0.271463 0.075411 0.675363
Si Si2 0.445770 0.624833 0.633594
Si Si3 0.134239 0.681166 0.871085
Si Si4 0.000000 0.500000 0.750000
Si Si5 0.975600 0.355943 0.486382
Si Si6 0.698353 0.345041 0.479623
Si Si7 0.500000 0.810712 0.750000
O O1 0.192132 0.195574 0.662192
O O2 0.291881 0.991593 0.597391
O O3 0.407271 0.114789 0.698097
O O4 0.224717 0.000000 0.750000
O O5 0.500000 0.500000 0.661966
O O6 0.349379 0.614205 0.564807
O O7 0.551838 0.682877 0.583814
O O8 0.416011 0.718805 0.701193
O O9 0.084744 0.586222 0.805573
O O10 0.233927 0.635590 0.935322
O O11 0.028603 0.700459 0.933809
O O12 0.836790 0.326228 0.488966
O O13 0.000000 0.500000 0.484950
#
# Coordination Sequence:
#
# PCOD9555347 Si02
#       7
#     8   8   8   2   8   8   4
#     4  11  26  47  72 108 147 188 246 302 364 434
#     4  12  23  39  63 106 153 189 220 292 369 444
#     4  11  26  46  72 108 133 190 247 296 367 423
#     4  12  28  48  78  98 146 184 240 310 362 456
#     4  11  22  43  74 102 139 191 245 288 347 436
#     4  11  23  43  67 101 143 183 240 285 356 436
#     4  12  24  40  68 110 148 189 235 288 368 440
#
# _framework density 21.831548999999999
#
# number of rings (size 3 to 8) (size 9 to 14) (size 15 to 20)
#    0.000    0.696    6.087    2.609    2.435    2.783 
#    3.130    0.435    7.652    0.000    0.000    0.000 
#    0.000    0.000    0.000    0.000    0.000    0.000 
#
# Total GULP energy -256480.054523 kJ/mol
# GULP energy per Si atom -5575.653359 kJ/mol
# Density = 2.178186 g / cm^3
# Si number density = 21.831549 Si / 1000 Ang^3
#
#
#
# Elastic Constant Matrix: (Units=GPa)
#
#
# Indices 1 2 3 4 5 6 
#
# 1 80.8618 28.9329 47.7715 0.0000 0.0000 0.0000
# 2 28.9329 80.8618 47.7715 0.0000 0.0000 0.0000
# 3 47.7715 47.7715 126.3632 0.0000 0.0000 0.0000
# 4 0.0000 0.0000 0.0000 1507.2204 0.0000 0.0000
# 5 0.0000 0.0000 0.0000 0.0000 1507.2204 0.0000
# 6 0.0000 0.0000 0.0000 0.0000 0.0000 19.3670
#
#
#
# Elastic Compliance Matrix: (Units=1/GPa)
#
#
# Indices 1 2 3 4 5 6 
#
# 1 0.016415 -0.002842 -0.005131 0.000000 0.000000 0.000000
# 2 -0.002842 0.016415 -0.005131 0.000000 0.000000 0.000000
# 3 -0.005131 -0.005131 0.011793 0.000000 0.000000 0.000000
# 4 0.000000 0.000000 0.000000 0.000663 0.000000 0.000000
# 5 0.000000 0.000000 0.000000 0.000000 0.000663 0.000000
# 6 0.000000 0.000000 0.000000 0.000000 0.000000 0.051634
#
#
# Mechanical properties :
#
#
# Convention : Reuss Voigt Hill
#
# Bulk Modulus (GPa) = 54.30497 59.67095 56.98796
# Shear Modulus (GPa) = 38.48161 617.66894 328.07527
#
# Velocity S-wave (km/s) = 4.20296 16.83862 12.27200
# Velocity P-wave (km/s) = 6.96288 20.13564 15.06529
#
# Compressibility (1/GPa) = 0.01841452
#
# Stress axis : x y z
#
# Youngs Moduli (GPa) = 60.91939 60.91939 84.79270
#
# Poissons Ratio (x) = 0.17313 0.43510
# Poissons Ratio (y) = 0.17313 0.43510
# Poissons Ratio (z) = 0.31260 0.31260
#
# Static dielectric constant tensor:
#      x y z
#    x -0.189460 0.000000 0.000000 
#    y 0.000000 -0.189460 0.000000 
#    z 0.000000 0.000000 1.883730 
# 
# From -- ./inp_files/4170.got.cif
#   From: 2010.05.17/outbox.cif.g08.bks.cpg/sg112_3_cif.got.tgz:4170.got - 2010.05.20 10:59:04.
