data_PCOD9555200
_publ_section_title
;
Structure prediction by ZEFSAII (Michael W. Deem and Ramdas Pophale) SiO2 
 PCOD9555200
Probable space group: P -4 2 C
;
_chemical_formula_sum "Si O2"
_cell_formula_units_Z 22
_cell_length_a 8.265474
_cell_length_b 8.265474
_cell_length_c 13.368236
_cell_angle_alpha 90.000000
_cell_angle_beta 90.000000
_cell_angle_gamma 90.000000
_cell_volume 913.291955
_symmetry_space_group_name_H-M "P -4 2 C"
_symmetry_group_IT_number 112
_symmetry_cell_setting 'tetragonal'
loop_
_space_group_symop_operation_xyz
x,y,z
y,-x,-z
-x,-y,z
-y,x,-z
x,-y,1/2-z
-x,y,1/2-z
-y,-x,1/2+z
y,x,1/2+z
loop_
_atom_site_type_symbol
_atom_site_label
_atom_site_fract_x
_atom_site_fract_y
_atom_site_fract_z
Si Si1 0.500000 0.713681 0.750000
Si Si2 0.500000 0.000000 0.250000
Si Si3 0.922051 0.325996 0.402203
Si Si4 0.726547 0.223214 0.114385
O O1 0.639180 0.815544 0.694722
O O2 0.606693 0.651486 0.843315
O O3 0.379021 0.903532 0.176671
O O4 0.810920 0.286654 0.496171
O O5 0.000000 0.500000 0.426826
O O6 0.077151 0.216818 0.377078
#
# Coordination Sequence:
#
# PCOD9555200 Si02
#       4
#     4   2   8   8
#     4  10  25  49  76 101 148 200 257 334 403 468
#     4  12  28  46  66 110 160 202 270 316 408 492
#     4  10  22  46  70 106 145 193 257 325 392 467
#     4  11  24  45  73 106 150 197 259 327 395 484
#
# _framework density 24.088684000000001
#
# number of rings (size 3 to 8) (size 9 to 14) (size 15 to 20)
#    0.000    1.455    1.818    4.909    5.091    1.455 
#    6.545    7.273    0.000    0.000    0.000    0.000 
#    0.000    0.000    0.000    0.000    0.000    0.000 
#
# Total GULP energy -122569.612702 kJ/mol
# GULP energy per Si atom -5571.346032 kJ/mol
# Density = 2.403386 g / cm^3
# Si number density = 24.088684 Si / 1000 Ang^3
#
#
#
# Elastic Constant Matrix: (Units=GPa)
#
#
# Indices 1 2 3 4 5 6 
#
# 1 89.0317 42.8821 50.4344 0.0000 0.0000 0.0000
# 2 42.8821 89.0317 50.4344 0.0000 0.0000 0.0000
# 3 50.4344 50.4344 177.7919 0.0000 0.0000 0.0000
# 4 0.0000 0.0000 0.0000 -68.3178 0.0000 0.0000
# 5 0.0000 0.0000 0.0000 0.0000 -68.3178 0.0000
# 6 0.0000 0.0000 0.0000 0.0000 0.0000 53.6270
#
#
#
# Elastic Compliance Matrix: (Units=1/GPa)
#
#
# Indices 1 2 3 4 5 6 
#
# 1 0.015675 -0.005994 -0.002746 0.000000 0.000000 0.000000
# 2 -0.005994 0.015675 -0.002746 0.000000 0.000000 0.000000
# 3 -0.002746 -0.002746 0.007183 0.000000 0.000000 0.000000
# 4 0.000000 0.000000 0.000000 -0.014637 0.000000 0.000000
# 5 0.000000 0.000000 0.000000 0.000000 -0.014637 0.000000
# 6 0.000000 0.000000 0.000000 0.000000 0.000000 0.018647
#
#
# Mechanical properties :
#
#
# Convention : Reuss Voigt Hill
#
# Bulk Modulus (GPa) = 64.27054 71.48413 67.87734
# Shear Modulus (GPa) = 89.18550 -2.46144 43.36203
#
# Velocity S-wave (km/s) = 6.09132 -1.01195 4.24736
# Velocity P-wave (km/s) = 8.72989 5.32677 7.23137
#
# Compressibility (1/GPa) = 0.01555923
#
# Stress axis : x y z
#
# Youngs Moduli (GPa) = 63.79757 63.79757 139.22689
#
# Poissons Ratio (x) = 0.38241 0.38233
# Poissons Ratio (y) = 0.38241 0.38233
# Poissons Ratio (z) = 0.17519 0.17519
#
# Static dielectric constant tensor:
#      x y z
#    x 2.178090 0.000000 0.000000 
#    y 0.000000 2.178090 0.000000 
#    z 0.000000 0.000000 1.780890 
# 
# From -- ./inp_files/3014.got.cif
#   From: 2010.05.17/outbox.cif.g08.bks.cpg/sg112_2_cif.got.tgz:3014.got - 2010.05.20 10:59:04.
