data_PCOD9555706
_publ_section_title
;
Structure prediction by ZEFSAII (Michael W. Deem and Ramdas Pophale) SiO2 
 PCOD9555706
Probable space group: P -4 21 M 
;
_chemical_formula_sum "Si O2"
_cell_formula_units_Z 34
_cell_length_a 10.814058
_cell_length_b 10.814058
_cell_length_c 14.834594
_cell_angle_alpha 90.000000
_cell_angle_beta 90.000000
_cell_angle_gamma 90.000000
_cell_volume 1734.814542
_symmetry_space_group_name_H-M "P -4 21 M "
_symmetry_group_IT_number 113
_symmetry_cell_setting 'tetragonal'
loop_
_space_group_symop_operation_xyz
x,y,z
y,-x,-z
-x,-y,z
-y,x,-z
1/2+x,1/2-y,-z
1/2-x,1/2+y,-z
1/2-y,1/2-x,z
1/2+y,1/2+x,z
loop_
_atom_site_type_symbol
_atom_site_label
_atom_site_fract_x
_atom_site_fract_y
_atom_site_fract_z
Si Si1 0.189440 0.310561 0.038954
Si Si2 0.000000 0.500000 0.044510
Si Si3 0.000612 0.293728 0.507557
Si Si4 0.186380 0.686380 0.131569
Si Si5 0.365617 0.478528 0.164176
Si Si6 0.850010 0.140632 0.643417
O O1 0.282385 0.390331 0.100885
O O2 0.261639 0.238362 0.962327
O O3 0.092401 0.407600 0.994198
O O4 0.915982 0.415982 0.108032
O O5 0.884312 0.384312 0.487980
O O6 0.961081 0.206322 0.589830
O O7 0.116688 0.383313 0.528306
O O8 0.038838 0.210834 0.422489
O O9 0.295322 0.609208 0.177768
O O10 0.500000 0.500000 0.122197
O O11 0.383144 0.414352 0.260530
O O12 0.744843 0.244843 0.657347
#
# Coordination Sequence:
#
# PCOD9555706 Si02
#       6
#     4   2   8   4   8   8
#     4  10  22  44  66  93 124 160 210 259 326 382
#     4   8  20  40  68  88 112 158 200 254 304 382
#     4   9  20  37  60  86 120 164 203 255 314 376
#     4  10  24  42  68  91 124 163 209 262 326 381
#     4  11  25  41  64  95 127 164 209 268 312 383
#     4  10  21  40  61  89 124 163 213 259 314 372
#
# _framework density 19.598635999999999
#
# number of rings (size 3 to 8) (size 9 to 14) (size 15 to 20)
#    0.000    2.118    1.176    0.000   11.529    0.000 
#    2.118    0.000    0.000    0.000    0.000    0.000 
#    0.000    0.000    0.000    0.000    0.000    0.000 
#
# Total GULP energy -189798.251057 kJ/mol
# GULP energy per Si atom -5582.301502 kJ/mol
# Density = 1.955403 g / cm^3
# Si number density = 19.598636 Si / 1000 Ang^3
#
#
#
# Elastic Constant Matrix: (Units=GPa)
#
#
# Indices 1 2 3 4 5 6 
#
# 1 89.2583 42.1661 24.0043 0.0000 0.0000 0.0000
# 2 42.1661 89.2581 24.0037 0.0000 0.0000 0.0000
# 3 24.0043 24.0037 66.8863 0.0000 0.0000 0.0000
# 4 0.0000 0.0000 0.0000 53.5498 0.0000 0.0000
# 5 0.0000 0.0000 0.0000 0.0000 53.5515 0.0000
# 6 0.0000 0.0000 0.0000 0.0000 0.0000 30.1525
#
#
#
# Elastic Compliance Matrix: (Units=1/GPa)
#
#
# Indices 1 2 3 4 5 6 
#
# 1 0.014996 -0.006239 -0.003143 0.000000 0.000000 0.000000
# 2 -0.006239 0.014996 -0.003143 0.000000 0.000000 0.000000
# 3 -0.003143 -0.003143 0.017206 0.000000 0.000000 0.000000
# 4 0.000000 0.000000 0.000000 0.018674 0.000000 0.000000
# 5 0.000000 0.000000 0.000000 0.000000 0.018674 0.000000
# 6 0.000000 0.000000 0.000000 0.000000 0.000000 0.033165
#
#
# Mechanical properties :
#
#
# Convention : Reuss Voigt Hill
#
# Bulk Modulus (GPa) = 45.14754 47.30566 46.22660
# Shear Modulus (GPa) = 33.30163 37.79933 35.55048
#
# Velocity S-wave (km/s) = 4.12658 4.39643 4.26364
# Velocity P-wave (km/s) = 6.76690 7.06831 6.91925
#
# Compressibility (1/GPa) = 0.02214960
#
# Stress axis : x y z
#
# Youngs Moduli (GPa) = 66.68457 66.68478 58.11785
#
# Poissons Ratio (x) = 0.41605 0.18265
# Poissons Ratio (y) = 0.41605 0.18264
# Poissons Ratio (z) = 0.20958 0.20956
#
# Static dielectric constant tensor:
#      x y z
#    x 1.710820 0.000000 0.000000 
#    y 0.000000 1.710820 0.000000 
#    z 0.000000 0.000000 1.628820 
# 
# From -- ./inp_files/1675.got.cif
#   From: 2010.05.17/outbox.cif.g08.bks.cpg/sg113_cif.got.tgz:1675.got - 2010.05.20 11:03:00.
