data_PCOD9555182
_publ_section_title
;
Structure prediction by ZEFSAII (Michael W. Deem and Ramdas Pophale) SiO2 
 PCOD9555182
Probable space group: P -4 2 C
;
_chemical_formula_sum "Si O2"
_cell_formula_units_Z 48
_cell_length_a 9.041782
_cell_length_b 9.041782
_cell_length_c 25.726590
_cell_angle_alpha 90.000000
_cell_angle_beta 90.000000
_cell_angle_gamma 90.000000
_cell_volume 2103.247053
_symmetry_space_group_name_H-M "P -4 2 C"
_symmetry_group_IT_number 112
_symmetry_cell_setting 'tetragonal'
loop_
_space_group_symop_operation_xyz
x,y,z
y,-x,-z
-x,-y,z
-y,x,-z
x,-y,1/2-z
-x,y,1/2-z
-y,-x,1/2+z
y,x,1/2+z
loop_
_atom_site_type_symbol
_atom_site_label
_atom_site_fract_x
_atom_site_fract_y
_atom_site_fract_z
Si Si1 0.067270 0.161278 0.305037
Si Si2 0.578343 0.143466 0.615537
Si Si3 0.213891 0.609675 0.574855
Si Si4 0.895239 0.785569 0.014645
Si Si5 0.283844 0.279354 0.116885
Si Si6 0.005445 0.337298 0.826874
O O1 0.078771 0.297398 0.345005
O O2 0.000000 0.202701 0.250000
O O3 0.234779 0.111661 0.294538
O O4 0.000000 0.000000 0.323759
O O5 0.658957 0.267846 0.581767
O O6 0.438788 0.235431 0.637887
O O7 0.500000 0.000000 0.590228
O O8 0.147219 0.640189 0.518276
O O9 0.271447 0.447076 0.590286
O O10 0.085358 0.650359 0.616282
O O11 0.828954 0.771868 0.071864
O O12 0.069284 0.820081 0.011833
O O13 0.280708 0.158498 0.162148
O O14 0.000000 0.500000 0.806096
#
# Coordination Sequence:
#
# PCOD9555182 Si02
#       6
#     8   8   8   8   8   8
#     4  10  22  42  70 102 131 164 217 287 358 437
#     4  11  23  40  64  95 131 176 224 282 357 419
#     4  10  22  40  59  90 132 185 243 280 337 408
#     4  11  23  37  57  91 137 186 239 302 337 384
#     4  11  22  39  63  91 132 186 240 283 350 404
#     4   9  19  40  67  92 132 181 224 274 346 427
#
# _framework density 22.821854999999999
#
# number of rings (size 3 to 8) (size 9 to 14) (size 15 to 20)
#    0.000    1.667    1.667    2.500    2.333    1.667 
#    0.000    2.500    0.000    0.000    0.000   14.000 
#    0.000    0.000    0.000    0.000    0.000    0.000 
#
# Total GULP energy -268135.169708 kJ/mol
# GULP energy per Si atom -5586.149369 kJ/mol
# Density = 2.276991 g / cm^3
# Si number density = 22.821855 Si / 1000 Ang^3
#
#
#
# Elastic Constant Matrix: (Units=GPa)
#
#
# Indices 1 2 3 4 5 6 
#
# 1 132.4323 44.6296 30.0989 0.0000 0.0000 0.0000
# 2 44.6296 132.4323 30.0989 0.0000 0.0000 0.0000
# 3 30.0989 30.0989 82.3585 0.0000 0.0000 0.0000
# 4 0.0000 0.0000 0.0000 22.4741 0.0000 0.0000
# 5 0.0000 0.0000 0.0000 0.0000 22.4741 0.0000
# 6 0.0000 0.0000 0.0000 0.0000 0.0000 42.3098
#
#
#
# Elastic Compliance Matrix: (Units=1/GPa)
#
#
# Indices 1 2 3 4 5 6 
#
# 1 0.008919 -0.002470 -0.002357 0.000000 0.000000 0.000000
# 2 -0.002470 0.008919 -0.002357 0.000000 0.000000 0.000000
# 3 -0.002357 -0.002357 0.013865 0.000000 0.000000 0.000000
# 4 0.000000 0.000000 0.000000 0.044496 0.000000 0.000000
# 5 0.000000 0.000000 0.000000 0.000000 0.044496 0.000000
# 6 0.000000 0.000000 0.000000 0.000000 0.000000 0.023635
#
#
# Mechanical properties :
#
#
# Convention : Reuss Voigt Hill
#
# Bulk Modulus (GPa) = 57.68573 61.87528 59.78051
# Shear Modulus (GPa) = 30.39965 33.61131 32.00548
#
# Velocity S-wave (km/s) = 3.65367 3.84183 3.74893
# Velocity P-wave (km/s) = 6.56738 6.84476 6.70750
#
# Compressibility (1/GPa) = 0.01733531
#
# Stress axis : x y z
#
# Youngs Moduli (GPa) = 112.11888 112.11888 72.12545
#
# Poissons Ratio (x) = 0.27694 0.16999
# Poissons Ratio (y) = 0.27694 0.16999
# Poissons Ratio (z) = 0.26425 0.26425
#
# Static dielectric constant tensor:
#      x y z
#    x 1.906540 0.000000 0.000000 
#    y 0.000000 1.906540 0.000000 
#    z 0.000000 0.000000 1.892410 
# 
# From -- ./inp_files/6326.got.cif
#   From: 2010.05.17/outbox.cif.g08.bks.cpg/sg112_4_cif.got.tgz:6326.got - 2010.05.20 10:59:04.
