data_PCOD9555109
_publ_section_title
;
Structure prediction by ZEFSAII (Michael W. Deem and Ramdas Pophale) SiO2 
 PCOD9555109
Probable space group: P -4 2 C
;
_chemical_formula_sum "Si O2"
_cell_formula_units_Z 40
_cell_length_a 14.679663
_cell_length_b 14.679663
_cell_length_c 9.298138
_cell_angle_alpha 90.000000
_cell_angle_beta 90.000000
_cell_angle_gamma 90.000000
_cell_volume 2003.679057
_symmetry_space_group_name_H-M "P -4 2 C"
_symmetry_group_IT_number 112
_symmetry_cell_setting 'tetragonal'
loop_
_space_group_symop_operation_xyz
x,y,z
y,-x,-z
-x,-y,z
-y,x,-z
x,-y,1/2-z
-x,y,1/2-z
-y,-x,1/2+z
y,x,1/2+z
loop_
_atom_site_type_symbol
_atom_site_label
_atom_site_fract_x
_atom_site_fract_y
_atom_site_fract_z
Si Si1 0.170451 0.374341 0.001476
Si Si2 0.796332 0.170355 0.545692
Si Si3 0.899257 0.895620 0.704418
Si Si4 0.620118 0.048589 0.499679
Si Si5 0.500000 0.135918 0.250000
Si Si6 0.863471 0.500000 0.250000
O O1 0.214201 0.275332 0.994348
O O2 0.190814 0.431408 0.145583
O O3 0.059375 0.361859 0.001205
O O4 0.189918 0.434541 0.859713
O O5 0.880685 0.124027 0.461000
O O6 0.823843 0.162394 0.711440
O O7 0.711304 0.107453 0.507880
O O8 0.000000 0.864568 0.750000
O O9 0.889858 0.000000 0.750000
O O10 0.564214 0.078238 0.358197
O O11 0.560908 0.078660 0.638049
#
# Coordination Sequence:
#
# PCOD9555109 Si02
#       6
#     8   8   8   8   4   4
#     4  11  20  35  55  78 108 141 180 222 271 323
#     4  12  24  35  54  82 110 141 186 234 272 314
#     4  11  22  36  50  70 108 156 194 219 252 300
#     4  11  20  35  55  78 108 141 180 222 271 323
#     4  10  21  36  56  76 102 143 180 221 276 330
#     4  10  21  36  56  76 102 143 180 221 276 330
#
# _framework density 19.963277000000001
#
# number of rings (size 3 to 8) (size 9 to 14) (size 15 to 20)
#    0.000    1.000    0.000   10.800    0.000    1.600 
#    0.000    0.000    0.000    0.000    0.000    0.000 
#    0.000   56.000    0.000    0.000    0.000    0.000 
#
# Total GULP energy -223691.190001 kJ/mol
# GULP energy per Si atom -5592.279750 kJ/mol
# Density = 1.991784 g / cm^3
# Si number density = 19.963277 Si / 1000 Ang^3
#
#
#
# Elastic Constant Matrix: (Units=GPa)
#
#
# Indices 1 2 3 4 5 6 
#
# 1 77.6989 21.7754 16.6589 0.0000 0.0000 0.0000
# 2 21.7754 77.6989 16.6589 0.0000 0.0000 0.0000
# 3 16.6589 16.6589 117.9859 0.0000 0.0000 0.0000
# 4 0.0000 0.0000 0.0000 16.0053 0.0000 0.0000
# 5 0.0000 0.0000 0.0000 0.0000 16.0053 0.0000
# 6 0.0000 0.0000 0.0000 0.0000 0.0000 20.8358
#
#
#
# Elastic Compliance Matrix: (Units=1/GPa)
#
#
# Indices 1 2 3 4 5 6 
#
# 1 0.014217 -0.003665 -0.001490 0.000000 0.000000 0.000000
# 2 -0.003665 0.014217 -0.001490 0.000000 0.000000 0.000000
# 3 -0.001490 -0.001490 0.008896 0.000000 0.000000 0.000000
# 4 0.000000 0.000000 0.000000 0.062479 0.000000 0.000000
# 5 0.000000 0.000000 0.000000 0.000000 0.062479 0.000000
# 6 0.000000 0.000000 0.000000 0.000000 0.000000 0.047994
#
#
# Mechanical properties :
#
#
# Convention : Reuss Voigt Hill
#
# Bulk Modulus (GPa) = 41.59632 42.61891 42.10761
# Shear Modulus (GPa) = 21.59030 25.12197 23.35614
#
# Velocity S-wave (km/s) = 3.29219 3.55125 3.42417
# Velocity P-wave (km/s) = 5.94415 6.18144 6.06396
#
# Compressibility (1/GPa) = 0.02404059
#
# Stress axis : x y z
#
# Youngs Moduli (GPa) = 70.33968 70.33968 112.40620
#
# Poissons Ratio (x) = 0.25779 0.16747
# Poissons Ratio (y) = 0.25779 0.16747
# Poissons Ratio (z) = 0.10480 0.10480
#
# Static dielectric constant tensor:
#      x y z
#    x 1.710320 0.000000 0.000000 
#    y 0.000000 1.710320 0.000000 
#    z 0.000000 0.000000 1.719180 
# 
# From -- ./inp_files/1274.got.cif
#   From: 2010.05.17/outbox.cif.g08.bks.cpg/sg112_1_cif.got.tgz:1274.got - 2010.05.20 10:59:04.
