data_PCOD9555360
_publ_section_title
;
Structure prediction by ZEFSAII (Michael W. Deem and Ramdas Pophale) SiO2 
 PCOD9555360
Probable space group: P -4 2 C
;
_chemical_formula_sum "Si O2"
_cell_formula_units_Z 24
_cell_length_a 8.228553
_cell_length_b 8.228553
_cell_length_c 14.361012
_cell_angle_alpha 90.000000
_cell_angle_beta 90.000000
_cell_angle_gamma 90.000000
_cell_volume 972.370975
_symmetry_space_group_name_H-M "P -4 2 C"
_symmetry_group_IT_number 112
_symmetry_cell_setting 'tetragonal'
loop_
_space_group_symop_operation_xyz
x,y,z
y,-x,-z
-x,-y,z
-y,x,-z
x,-y,1/2-z
-x,y,1/2-z
-y,-x,1/2+z
y,x,1/2+z
loop_
_atom_site_type_symbol
_atom_site_label
_atom_site_fract_x
_atom_site_fract_y
_atom_site_fract_z
Si Si1 0.252595 0.182024 0.217459
Si Si2 0.682761 0.058611 0.623367
Si Si3 0.389631 0.731006 0.464560
O O1 0.211337 0.284425 0.309231
O O2 0.387209 0.244611 0.145772
O O3 0.086114 0.199840 0.155971
O O4 0.281950 0.000000 0.250000
O O5 0.690987 0.117151 0.517517
O O6 0.500000 0.000000 0.640842
O O7 0.568297 0.707004 0.507385
#
# Coordination Sequence:
#
# PCOD9555360 Si02
#       3
#     8   8   8
#     4  11  25  45  71 109 144 192 246 304 375 444
#     4  11  23  46  70 102 148 193 238 311 369 441
#     4  11  26  46  73 108 146 197 252 306 371 441
#
# _framework density 24.681937999999999
#
# number of rings (size 3 to 8) (size 9 to 14) (size 15 to 20)
#    0.000    1.000    3.333    4.000    4.667    1.333 
#    0.000    6.667    0.000    0.000    0.000    0.000 
#    0.000    0.000    0.000    0.000    0.000    0.000 
#
# Total GULP energy -134427.940797 kJ/mol
# GULP energy per Si atom -5601.164200 kJ/mol
# Density = 2.462576 g / cm^3
# Si number density = 24.681938 Si / 1000 Ang^3
#
#
#
# Elastic Constant Matrix: (Units=GPa)
#
#
# Indices 1 2 3 4 5 6 
#
# 1 98.3886 11.1702 25.0751 0.0000 0.0000 0.0000
# 2 11.1702 98.3886 25.0751 0.0000 0.0000 0.0000
# 3 25.0751 25.0751 100.2308 0.0000 0.0000 0.0000
# 4 0.0000 0.0000 0.0000 46.2497 0.0000 0.0000
# 5 0.0000 0.0000 0.0000 0.0000 46.2497 0.0000
# 6 0.0000 0.0000 0.0000 0.0000 0.0000 10.6446
#
#
#
# Elastic Compliance Matrix: (Units=1/GPa)
#
#
# Indices 1 2 3 4 5 6 
#
# 1 0.010887 -0.000579 -0.002579 0.000000 0.000000 0.000000
# 2 -0.000579 0.010887 -0.002579 0.000000 0.000000 0.000000
# 3 -0.002579 -0.002579 0.011267 0.000000 0.000000 0.000000
# 4 0.000000 0.000000 0.000000 0.021622 0.000000 0.000000
# 5 0.000000 0.000000 0.000000 0.000000 0.021622 0.000000
# 6 0.000000 0.000000 0.000000 0.000000 0.000000 0.093944
#
#
# Mechanical properties :
#
#
# Convention : Reuss Voigt Hill
#
# Bulk Modulus (GPa) = 46.36491 46.62766 46.49628
# Shear Modulus (GPa) = 26.47041 36.34131 31.40586
#
# Velocity S-wave (km/s) = 3.27840 3.84133 3.57097
# Velocity P-wave (km/s) = 5.75815 6.21344 5.99012
#
# Compressibility (1/GPa) = 0.02156804
#
# Stress axis : x y z
#
# Youngs Moduli (GPa) = 91.85510 91.85510 88.75275
#
# Poissons Ratio (x) = 0.05316 0.22887
# Poissons Ratio (y) = 0.05316 0.22887
# Poissons Ratio (z) = 0.23687 0.23687
#
# Static dielectric constant tensor:
#      x y z
#    x 1.981040 0.000000 0.000000 
#    y 0.000000 1.981040 0.000000 
#    z 0.000000 0.000000 1.933830 
# 
# From -- ./inp_files/3002.got.cif
#   From: 2010.05.17/outbox.cif.g08.bks.cpg/sg112_2_cif.got.tgz:3002.got - 2010.05.20 10:59:04.
