data_PCOD9555749
_publ_section_title
;
Structure prediction by ZEFSAII (Michael W. Deem and Ramdas Pophale) SiO2 
 PCOD9555749
Probable space group: P -4 21 M 
;
_chemical_formula_sum "Si O2"
_cell_formula_units_Z 24
_cell_length_a 12.108175
_cell_length_b 12.108175
_cell_length_c 7.290655
_cell_angle_alpha 90.000000
_cell_angle_beta 90.000000
_cell_angle_gamma 90.000000
_cell_volume 1068.867633
_symmetry_space_group_name_H-M "P -4 21 M "
_symmetry_group_IT_number 113
_symmetry_cell_setting 'tetragonal'
loop_
_space_group_symop_operation_xyz
x,y,z
y,-x,-z
-x,-y,z
-y,x,-z
1/2+x,1/2-y,-z
1/2-x,1/2+y,-z
1/2-y,1/2-x,z
1/2+y,1/2+x,z
loop_
_atom_site_type_symbol
_atom_site_label
_atom_site_fract_x
_atom_site_fract_y
_atom_site_fract_z
Si Si1 0.503131 0.183112 0.930185
Si Si2 0.369589 0.476092 0.773299
Si Si3 0.737401 0.415653 0.420869
O O1 0.606835 0.106835 0.982140
O O2 0.509319 0.214925 0.715068
O O3 0.393936 0.106065 0.951178
O O4 0.498182 0.291900 0.054759
O O5 0.500000 0.500000 0.795882
O O6 0.355344 0.349511 0.712056
O O7 0.326535 0.544093 0.598457
O O8 0.836258 0.336258 0.476228
#
# Coordination Sequence:
#
# PCOD9555749 Si02
#       3
#     8   8   8
#     4  10  25  47  72 103 136 179 233 286 346 414
#     4  12  24  44  68 102 142 178 227 283 345 413
#     4  11  24  43  68 100 136 182 230 281 342 404
#
# _framework density 22.453669000000001
#
# number of rings (size 3 to 8) (size 9 to 14) (size 15 to 20)
#    0.000    1.000    3.333    2.000    4.667    4.000 
#    0.000    3.333    0.000    0.000    0.000    0.000 
#    0.000    0.000    0.000    0.000    0.000    0.000 
#
# Total GULP energy -134296.426355 kJ/mol
# GULP energy per Si atom -5595.684431 kJ/mol
# Density = 2.240256 g / cm^3
# Si number density = 22.453669 Si / 1000 Ang^3
#
#
#
# Elastic Constant Matrix: (Units=GPa)
#
#
# Indices 1 2 3 4 5 6 
#
# 1 111.0421 48.0229 70.1273 0.0000 0.0000 0.0000
# 2 48.0229 111.0418 70.1261 0.0000 0.0000 0.0000
# 3 70.1273 70.1261 140.0506 0.0000 0.0000 0.0000
# 4 0.0000 0.0000 0.0000 34.6762 0.0000 0.0000
# 5 0.0000 0.0000 0.0000 0.0000 34.6764 0.0000
# 6 0.0000 0.0000 0.0000 0.0000 0.0000 19.4564
#
#
#
# Elastic Compliance Matrix: (Units=1/GPa)
#
#
# Indices 1 2 3 4 5 6 
#
# 1 0.013562 -0.002306 -0.005637 0.000000 0.000000 0.000000
# 2 -0.002306 0.013562 -0.005636 0.000000 0.000000 0.000000
# 3 -0.005637 -0.005636 0.012785 0.000000 0.000000 0.000000
# 4 0.000000 0.000000 0.000000 0.028838 0.000000 0.000000
# 5 0.000000 0.000000 0.000000 0.000000 0.028838 0.000000
# 6 0.000000 0.000000 0.000000 0.000000 0.000000 0.051397
#
#
# Mechanical properties :
#
#
# Convention : Reuss Voigt Hill
#
# Bulk Modulus (GPa) = 78.41725 82.07635 80.24680
# Shear Modulus (GPa) = 27.71753 29.35234 28.53494
#
# Velocity S-wave (km/s) = 3.51726 3.61950 3.56875
# Velocity P-wave (km/s) = 7.17598 7.35532 7.26620
#
# Compressibility (1/GPa) = 0.01275230
#
# Stress axis : x y z
#
# Youngs Moduli (GPa) = 73.73273 73.73364 78.21730
#
# Poissons Ratio (x) = 0.17001 0.44088
# Poissons Ratio (y) = 0.17001 0.44086
# Poissons Ratio (z) = 0.41560 0.41559
#
# Static dielectric constant tensor:
#      x y z
#    x 1.829030 0.000000 0.000000 
#    y 0.000000 1.829030 0.000000 
#    z 0.000000 0.000000 1.816240 
# 
# From -- ./inp_files/698.got.cif
#   From: 2010.05.17/outbox.cif.g08.bks.cpg/sg113_cif.got.tgz:698.got - 2010.05.20 11:03:00.
