data_PCOD9555877
_publ_section_title
;
Structure prediction by ZEFSAII (Michael W. Deem and Ramdas Pophale) SiO2 
 PCOD9555877
Probable space group: P -4 21 C
;
_chemical_formula_sum "Si O2"
_cell_formula_units_Z 48
_cell_length_a 16.223487
_cell_length_b 16.223487
_cell_length_c 8.992262
_cell_angle_alpha 90.000000
_cell_angle_beta 90.000000
_cell_angle_gamma 90.000000
_cell_volume 2366.777121
_symmetry_space_group_name_H-M "P -4 21 C"
_symmetry_group_IT_number 114
_symmetry_cell_setting 'tetragonal'
loop_
_space_group_symop_operation_xyz
x,y,z
y,-x,-z
-x,-y,z
-y,x,-z
1/2+x,1/2-y,1/2-z
1/2-x,1/2+y,1/2-z
1/2-y,1/2-x,1/2+z
1/2+y,1/2+x,1/2+z
loop_
_atom_site_type_symbol
_atom_site_label
_atom_site_fract_x
_atom_site_fract_y
_atom_site_fract_z
Si Si1 0.331430 0.567780 0.642774
Si Si2 0.289256 0.587743 0.307594
Si Si3 0.500000 0.500000 0.500000
Si Si4 0.500000 0.500000 0.000000
Si Si5 0.710744 0.587743 0.192406
Si Si6 0.635054 0.000000 0.250000
Si Si7 0.432220 0.668570 0.142774
Si Si8 0.500000 0.000000 0.000000
O O1 0.289343 0.587042 0.485572
O O2 0.419147 0.526683 0.592802
O O3 0.345663 0.651044 0.735794
O O4 0.290115 0.500000 0.750000
O O5 0.325993 0.500000 0.250000
O O6 0.196310 0.578839 0.249600
O O7 0.348956 0.654337 0.235794
O O8 0.580853 0.526683 0.907198
O O9 0.803690 0.578839 0.250400
O O10 0.710657 0.587043 0.014428
O O11 0.578831 0.001008 0.393924
O O12 0.578831 0.998992 0.106077
#
# Coordination Sequence:
#
# PCOD9555877 Si02
#       8
#     8   8   2   2   8   8   8   4
#     4  12  18  27  48  82 136 181 185 216 258 351
#     4  10  19  33  49  91 131 148 211 224 278 356
#     4  12  14  20  38  68 114 172 218 208 214 300
#     4  12  14  20  38  68 114 172 218 208 214 300
#     4  10  19  33  49  91 131 148 211 224 278 356
#     4   9  22  42  67 100  98 144 207 280 304 369
#     4  12  18  27  48  82 136 181 185 216 258 351
#     4  10  20  50  80  74 100 134 216 294 348 314
#
# _framework density 20.280745
#
# number of rings (size 3 to 8) (size 9 to 14) (size 15 to 20)
#    1.000    0.333    6.667    0.500    0.000    0.000 
#    6.000    0.000    0.000    6.000    0.000    0.000 
#    0.000    0.000    0.000    0.000    0.000    0.000 
#
# Total GULP energy -267538.699219 kJ/mol
# GULP energy per Si atom -5573.722900 kJ/mol
# Density = 2.023459 g / cm^3
# Si number density = 20.280745 Si / 1000 Ang^3
#
#
#
# Elastic Constant Matrix: (Units=GPa)
#
#
# Indices 1 2 3 4 5 6 
#
# 1 69.6324 -0.4858 28.4395 0.0000 0.0000 0.0000
# 2 -0.4858 69.6324 28.4395 0.0000 0.0000 0.0000
# 3 28.4395 28.4395 135.8134 0.0000 0.0000 0.0000
# 4 0.0000 0.0000 0.0000 -6.4191 0.0000 0.0000
# 5 0.0000 0.0000 0.0000 0.0000 -6.4191 0.0000
# 6 0.0000 0.0000 0.0000 0.0000 0.0000 -3.3715
#
#
#
# Elastic Compliance Matrix: (Units=1/GPa)
#
#
# Indices 1 2 3 4 5 6 
#
# 1 0.015867 0.001605 -0.003659 0.000000 0.000000 0.000000
# 2 0.001605 0.015867 -0.003659 0.000000 0.000000 0.000000
# 3 -0.003659 -0.003659 0.008895 0.000000 0.000000 0.000000
# 4 0.000000 0.000000 0.000000 -0.155786 0.000000 0.000000
# 5 0.000000 0.000000 0.000000 0.000000 -0.155786 0.000000
# 6 0.000000 0.000000 0.000000 0.000000 0.000000 -0.296604
#
#
# Mechanical properties :
#
#
# Convention : Reuss Voigt Hill
#
# Bulk Modulus (GPa) = 34.24180 43.09606 38.66893
# Shear Modulus (GPa) = -9.15101 11.33706 1.09303
#
# Velocity S-wave (km/s) = -2.12649 2.36690 0.73493
# Velocity P-wave (km/s) = 3.30019 5.36334 4.45291
#
# Compressibility (1/GPa) = 0.02920407
#
# Stress axis : x y z
#
# Youngs Moduli (GPa) = 63.02554 63.02554 112.41936
#
# Poissons Ratio (x) = -0.10115 0.41129
# Poissons Ratio (y) = -0.10115 0.41129
# Poissons Ratio (z) = 0.23058 0.23058
#
# Static dielectric constant tensor:
#      x y z
#    x 1.743920 0.000000 0.000000 
#    y 0.000000 1.743920 0.000000 
#    z 0.000000 0.000000 1.716770 
# 
# From -- ./inp_files/946.got.cif
#   From: 2010.05.17/outbox.cif.g08.bks.cpg/sg114_1_cif.got.tgz:946.got - 2010.05.20 11:04:54.
