data_PCOD9555641
_publ_section_title
;
Structure prediction by ZEFSAII (Michael W. Deem and Ramdas Pophale) SiO2 
 PCOD9555641
Probable space group: P -4 21 M 
;
_chemical_formula_sum "Si O2"
_cell_formula_units_Z 56
_cell_length_a 14.697197
_cell_length_b 14.697197
_cell_length_c 13.427618
_cell_angle_alpha 90.000000
_cell_angle_beta 90.000000
_cell_angle_gamma 90.000000
_cell_volume 2900.467533
_symmetry_space_group_name_H-M "P -4 21 M "
_symmetry_group_IT_number 113
_symmetry_cell_setting 'tetragonal'
loop_
_space_group_symop_operation_xyz
x,y,z
y,-x,-z
-x,-y,z
-y,x,-z
1/2+x,1/2-y,-z
1/2-x,1/2+y,-z
1/2-y,1/2-x,z
1/2+y,1/2+x,z
loop_
_atom_site_type_symbol
_atom_site_label
_atom_site_fract_x
_atom_site_fract_y
_atom_site_fract_z
Si Si1 0.993838 0.354918 0.201306
Si Si2 0.232099 0.583865 0.780939
Si Si3 0.235729 0.887526 0.301406
Si Si4 0.828678 0.822154 0.915027
Si Si5 0.085419 0.126902 0.501117
Si Si6 0.490816 0.238553 0.000093
Si Si7 0.874061 0.780685 0.291973
O O1 0.895460 0.395460 0.231339
O O2 0.994004 0.339127 0.082845
O O3 0.067457 0.432544 0.225350
O O4 0.032795 0.262817 0.249949
O O5 0.152789 0.652789 0.748323
O O6 0.238319 0.492939 0.715773
O O7 0.327221 0.639291 0.772886
O O8 0.213488 0.552535 0.893820
O O9 0.324863 0.824863 0.308972
O O10 0.184199 0.856057 0.200790
O O11 0.175244 0.878972 0.399505
O O12 0.736706 0.763295 0.929569
O O13 0.812782 0.923600 0.952137
O O14 0.908934 0.775064 0.977121
O O15 0.112532 0.181236 0.402322
O O16 0.975980 0.121186 0.506229
O O17 0.800119 0.699882 0.292092
#
# Coordination Sequence:
#
# PCOD9555641 Si02
#       7
#     8   8   8   8   8   8   8
#     4  10  21  36  57  88 123 163 207 250 302 361
#     4  10  20  37  61  88 120 164 204 241 298 360
#     4  10  22  41  61  88 123 153 198 256 304 354
#     4  10  22  38  58  88 122 161 203 247 299 356
#     4  11  23  41  64  89 115 153 204 250 304 373
#     4  11  21  37  59  86 124 163 203 246 293 355
#     4  10  21  40  63  86 121 159 199 252 308 369
#
# _framework density 19.307231999999999
#
# number of rings (size 3 to 8) (size 9 to 14) (size 15 to 20)
#    0.000    1.714    1.429    3.000    2.000    2.286 
#    0.000    1.429    0.000    1.714    0.000    0.000 
#    0.000    0.000    0.000    0.000    0.000    0.000 
#
# Total GULP energy -312681.708364 kJ/mol
# GULP energy per Si atom -5583.601935 kJ/mol
# Density = 1.926329 g / cm^3
# Si number density = 19.307232 Si / 1000 Ang^3
#
#
#
# Elastic Constant Matrix: (Units=GPa)
#
#
# Indices 1 2 3 4 5 6 
#
# 1 42.5291 30.5443 6.9856 0.0000 0.0000 0.0000
# 2 30.5443 42.5287 6.9861 0.0000 0.0000 0.0000
# 3 6.9856 6.9861 54.1809 0.0000 0.0000 0.0000
# 4 0.0000 0.0000 0.0000 26.9448 0.0000 0.0000
# 5 0.0000 0.0000 0.0000 0.0000 26.9461 0.0000
# 6 0.0000 0.0000 0.0000 0.0000 0.0000 14.8378
#
#
#
# Elastic Compliance Matrix: (Units=1/GPa)
#
#
# Indices 1 2 3 4 5 6 
#
# 1 0.048735 -0.034705 -0.001809 0.000000 0.000000 0.000000
# 2 -0.034705 0.048736 -0.001809 0.000000 0.000000 0.000000
# 3 -0.001809 -0.001809 0.018923 0.000000 0.000000 0.000000
# 4 0.000000 0.000000 0.000000 0.037113 0.000000 0.000000
# 5 0.000000 0.000000 0.000000 0.000000 0.037111 0.000000
# 6 0.000000 0.000000 0.000000 0.000000 0.000000 0.067395
#
#
# Mechanical properties :
#
#
# Convention : Reuss Voigt Hill
#
# Bulk Modulus (GPa) = 25.15818 25.36342 25.26080
# Shear Modulus (GPa) = 14.37158 20.06060 17.21609
#
# Velocity S-wave (km/s) = 2.73126 3.22688 2.98936
# Velocity P-wave (km/s) = 4.79636 5.20086 5.00270
#
# Compressibility (1/GPa) = 0.03974851
#
# Stress axis : x y z
#
# Youngs Moduli (GPa) = 20.51901 20.51878 52.84518
#
# Poissons Ratio (x) = 0.71210 0.09558
# Poissons Ratio (y) = 0.71211 0.09562
# Poissons Ratio (z) = 0.03711 0.03713
#
# Static dielectric constant tensor:
#      x y z
#    x 1.678000 0.000000 0.000000 
#    y 0.000000 1.678000 0.000000 
#    z 0.000000 0.000000 1.649240 
# 
# From -- ./inp_files/1939.got.cif
#   From: 2010.05.17/outbox.cif.g08.bks.cpg/sg113_cif.got.tgz:1939.got - 2010.05.20 11:03:00.
