data_PCOD9555608
_publ_section_title
;
Structure prediction by ZEFSAII (Michael W. Deem and Ramdas Pophale) SiO2 
 PCOD9555608
Probable space group: P -4 21 M 
;
_chemical_formula_sum "Si O2"
_cell_formula_units_Z 64
_cell_length_a 11.605504
_cell_length_b 11.605504
_cell_length_c 23.910106
_cell_angle_alpha 90.000000
_cell_angle_beta 90.000000
_cell_angle_gamma 90.000000
_cell_volume 3220.397736
_symmetry_space_group_name_H-M "P -4 21 M "
_symmetry_group_IT_number 113
_symmetry_cell_setting 'tetragonal'
loop_
_space_group_symop_operation_xyz
x,y,z
y,-x,-z
-x,-y,z
-y,x,-z
1/2+x,1/2-y,-z
1/2-x,1/2+y,-z
1/2-y,1/2-x,z
1/2+y,1/2+x,z
loop_
_atom_site_type_symbol
_atom_site_label
_atom_site_fract_x
_atom_site_fract_y
_atom_site_fract_z
Si Si1 0.184193 0.507630 0.681995
Si Si2 0.937912 0.248369 0.365863
Si Si3 0.554707 0.758052 0.062263
Si Si4 0.100712 0.095333 0.867841
Si Si5 0.651738 0.348721 0.259012
Si Si6 0.804175 0.045594 0.430282
Si Si7 0.253478 0.938164 0.942501
Si Si8 0.798116 0.125048 0.552511
O O1 0.084499 0.415502 0.695563
O O2 0.294059 0.466770 0.717293
O O3 0.212901 0.490634 0.616742
O O4 0.133098 0.633098 0.693259
O O5 0.864706 0.364706 0.363703
O O6 0.942746 0.193531 0.304087
O O7 0.866387 0.156815 0.404018
O O8 0.056673 0.260304 0.397462
O O9 0.628957 0.871044 0.079083
O O10 0.458270 0.708894 0.104919
O O11 0.649017 0.655334 0.053810
O O12 0.491616 0.777204 0.003285
O O13 0.138034 0.114338 0.804327
O O14 0.205605 0.041008 0.903538
O O15 0.000000 0.000000 0.868781
O O16 0.748880 0.248880 0.262488
O O17 0.763389 0.074651 0.492443
O O18 0.883366 0.933915 0.438520
O O19 0.365288 0.865288 0.923092
O O20 0.756328 0.256328 0.552938
#
# Coordination Sequence:
#
# PCOD9555608 Si02
#       8
#     8   8   8   8   8   8   8   8
#     4   9  18  34  56  80 110 150 195 247 303 356
#     4  10  22  41  61  81 113 154 196 238 290 351
#     4  10  20  35  59  89 122 160 200 249 306 360
#     4  10  21  36  59  87 123 159 199 249 303 351
#     4   9  20  38  58  80 110 155 199 239 293 351
#     4  11  21  36  55  82 115 147 186 237 295 357
#     4  10  20  36  59  87 121 162 203 245 300 363
#     4  12  24  36  57  87 116 148 187 239 297 355
#
# _framework density 19.873322000000002
#
# number of rings (size 3 to 8) (size 9 to 14) (size 15 to 20)
#    0.000    1.875    2.500    2.625    0.000    4.500 
#    0.000    0.625    0.000    2.250    0.000    0.000 
#    0.000    0.000    0.000    0.000    0.000    0.000 
#
# Total GULP energy -357015.220544 kJ/mol
# GULP energy per Si atom -5578.362821 kJ/mol
# Density = 1.982809 g / cm^3
# Si number density = 19.873322 Si / 1000 Ang^3
#
#
#
# Elastic Constant Matrix: (Units=GPa)
#
#
# Indices 1 2 3 4 5 6 
#
# 1 55.0834 22.8293 29.2053 0.0000 0.0000 0.0000
# 2 22.8293 55.0831 29.2055 0.0000 0.0000 0.0000
# 3 29.2053 29.2055 135.6721 0.0000 0.0000 0.0000
# 4 0.0000 0.0000 0.0000 22.0037 0.0000 0.0000
# 5 0.0000 0.0000 0.0000 0.0000 22.0103 0.0000
# 6 0.0000 0.0000 0.0000 0.0000 0.0000 21.8332
#
#
#
# Elastic Compliance Matrix: (Units=1/GPa)
#
#
# Indices 1 2 3 4 5 6 
#
# 1 0.023154 -0.007850 -0.003295 0.000000 0.000000 0.000000
# 2 -0.007850 0.023155 -0.003295 0.000000 0.000000 0.000000
# 3 -0.003295 -0.003295 0.008789 0.000000 0.000000 0.000000
# 4 0.000000 0.000000 0.000000 0.045447 0.000000 0.000000
# 5 0.000000 0.000000 0.000000 0.000000 0.045433 0.000000
# 6 0.000000 0.000000 0.000000 0.000000 0.000000 0.045802
#
#
# Mechanical properties :
#
#
# Convention : Reuss Voigt Hill
#
# Bulk Modulus (GPa) = 38.13814 45.36874 41.75344
# Shear Modulus (GPa) = 21.79623 24.14268 22.96946
#
# Velocity S-wave (km/s) = 3.31533 3.48922 3.40338
# Velocity P-wave (km/s) = 5.82129 6.25391 6.04148
#
# Compressibility (1/GPa) = 0.02622047
#
# Stress axis : x y z
#
# Youngs Moduli (GPa) = 43.18847 43.18814 113.77699
#
# Poissons Ratio (x) = 0.33901 0.37484
# Poissons Ratio (y) = 0.33901 0.37485
# Poissons Ratio (z) = 0.14229 0.14229
#
# Static dielectric constant tensor:
#      x y z
#    x 1.722900 0.000000 0.000000 
#    y 0.000000 1.722900 0.000000 
#    z 0.000000 0.000000 1.667380 
# 
# From -- ./inp_files/2905.got.cif
#   From: 2010.05.17/outbox.cif.g08.bks.cpg/sg113_cif.got.tgz:2905.got - 2010.05.20 11:03:00.
