data_PCOD9555675
_publ_section_title
;
Structure prediction by ZEFSAII (Michael W. Deem and Ramdas Pophale) SiO2 
 PCOD9555675
Probable space group: P -4 21 M 
;
_chemical_formula_sum "Si O2"
_cell_formula_units_Z 40
_cell_length_a 15.467669
_cell_length_b 15.467669
_cell_length_c 9.441570
_cell_angle_alpha 90.000000
_cell_angle_beta 90.000000
_cell_angle_gamma 90.000000
_cell_volume 2258.884144
_symmetry_space_group_name_H-M "P -4 21 M "
_symmetry_group_IT_number 113
_symmetry_cell_setting 'tetragonal'
loop_
_space_group_symop_operation_xyz
x,y,z
y,-x,-z
-x,-y,z
-y,x,-z
1/2+x,1/2-y,-z
1/2-x,1/2+y,-z
1/2-y,1/2-x,z
1/2+y,1/2+x,z
loop_
_atom_site_type_symbol
_atom_site_label
_atom_site_fract_x
_atom_site_fract_y
_atom_site_fract_z
Si Si1 0.850370 0.793305 0.759297
Si Si2 0.425965 0.074036 0.263370
Si Si3 0.189476 0.457517 0.546391
Si Si4 0.755314 0.470286 0.243832
Si Si5 0.573972 0.926029 0.933751
Si Si6 0.954525 0.864742 0.016562
O O1 0.786171 0.713830 0.786022
O O2 0.908518 0.767189 0.625488
O O3 0.793702 0.879037 0.737046
O O4 0.910487 0.808463 0.894881
O O5 0.467492 0.152926 0.350553
O O6 0.500000 0.000000 0.260219
O O7 0.406818 0.093183 0.099215
O O8 0.111830 0.388171 0.528335
O O9 0.216340 0.493752 0.395005
O O10 0.839511 0.456957 0.145749
O O11 0.689360 0.532053 0.159101
O O12 0.500000 0.000000 0.925263
O O13 0.049102 0.897150 0.966601
#
# Coordination Sequence:
#
# PCOD9555675 Si02
#       6
#     8   4   8   8   4   8
#     4  10  21  38  57  81 121 156 186 246 306 346
#     4   9  19  35  55  81 109 149 191 234 293 356
#     4  10  21  36  55  81 116 154 191 236 297 355
#     4  11  21  36  59  86 117 153 201 249 289 346
#     4  11  21  35  59  89 119 152 199 246 301 357
#     4   9  20  38  60  83 112 154 204 244 289 349
#
# _framework density 17.707858000000002
#
# number of rings (size 3 to 8) (size 9 to 14) (size 15 to 20)
#    0.000    2.000    1.000    2.400    0.000    5.600 
#    0.000    0.000    0.000    0.000    0.000    0.000 
#    0.000    0.000    0.000    0.000    0.000    0.000 
#
# Total GULP energy -223298.352615 kJ/mol
# GULP energy per Si atom -5582.458815 kJ/mol
# Density = 1.766755 g / cm^3
# Si number density = 17.707858 Si / 1000 Ang^3
#
#
#
# Elastic Constant Matrix: (Units=GPa)
#
#
# Indices 1 2 3 4 5 6 
#
# 1 64.1480 54.2429 81.0498 0.0000 0.0000 0.0000
# 2 54.2429 64.1456 81.0490 0.0000 0.0000 0.0000
# 3 81.0498 81.0490 189.9139 0.0000 0.0000 0.0000
# 4 0.0000 0.0000 0.0000 14.6985 0.0000 0.0000
# 5 0.0000 0.0000 0.0000 0.0000 14.6976 0.0000
# 6 0.0000 0.0000 0.0000 0.0000 0.0000 21.4164
#
#
#
# Elastic Compliance Matrix: (Units=1/GPa)
#
#
# Indices 1 2 3 4 5 6 
#
# 1 0.060643 -0.040325 -0.008672 0.000000 0.000000 0.000000
# 2 -0.040325 0.060647 -0.008673 0.000000 0.000000 0.000000
# 3 -0.008672 -0.008673 0.012668 0.000000 0.000000 0.000000
# 4 0.000000 0.000000 0.000000 0.068034 0.000000 0.000000
# 5 0.000000 0.000000 0.000000 0.000000 0.068038 0.000000
# 6 0.000000 0.000000 0.000000 0.000000 0.000000 0.046693
#
#
# Mechanical properties :
#
#
# Convention : Reuss Voigt Hill
#
# Bulk Modulus (GPa) = 53.70554 83.43234 68.56894
# Shear Modulus (GPa) = 11.40853 16.95356 14.18105
#
# Velocity S-wave (km/s) = 2.54099 3.09755 2.83297
# Velocity P-wave (km/s) = 6.24526 7.74670 7.03615
#
# Compressibility (1/GPa) = 0.01862005
#
# Stress axis : x y z
#
# Youngs Moduli (GPa) = 16.48984 16.48883 78.94125
#
# Poissons Ratio (x) = 0.66490 0.68455
# Poissons Ratio (y) = 0.66495 0.68464
# Poissons Ratio (z) = 0.14299 0.14300
#
# Static dielectric constant tensor:
#      x y z
#    x 1.601800 0.000000 0.000000 
#    y 0.000000 1.601800 0.000000 
#    z 0.000000 0.000000 1.563110 
# 
# From -- ./inp_files/1046.got.cif
#   From: 2010.05.17/outbox.cif.g08.bks.cpg/sg113_cif.got.tgz:1046.got - 2010.05.20 11:03:00.
