data_PCOD9555601
_publ_section_title
;
Structure prediction by ZEFSAII (Michael W. Deem and Ramdas Pophale) SiO2 
 PCOD9555601
Probable space group: P -4 21 M 
;
_chemical_formula_sum "Si O2"
_cell_formula_units_Z 56
_cell_length_a 12.716326
_cell_length_b 12.716326
_cell_length_c 20.164564
_cell_angle_alpha 90.000000
_cell_angle_beta 90.000000
_cell_angle_gamma 90.000000
_cell_volume 3260.709752
_symmetry_space_group_name_H-M "P -4 21 M "
_symmetry_group_IT_number 113
_symmetry_cell_setting 'tetragonal'
loop_
_space_group_symop_operation_xyz
x,y,z
y,-x,-z
-x,-y,z
-y,x,-z
1/2+x,1/2-y,-z
1/2-x,1/2+y,-z
1/2-y,1/2-x,z
1/2+y,1/2+x,z
loop_
_atom_site_type_symbol
_atom_site_label
_atom_site_fract_x
_atom_site_fract_y
_atom_site_fract_z
Si Si1 0.457721 0.785249 0.518029
Si Si2 0.327994 0.003365 0.669907
Si Si3 0.994319 0.328520 0.088789
Si Si4 0.100970 0.926762 0.710184
Si Si5 0.300760 0.628476 0.578905
Si Si6 0.651036 0.328391 0.847516
Si Si7 0.959282 0.161360 0.980360
O O1 0.378029 0.878029 0.498676
O O2 0.504892 0.815576 0.589876
O O3 0.389706 0.680402 0.532137
O O4 0.543329 0.762259 0.462899
O O5 0.401039 0.901039 0.685650
O O6 0.211901 0.987994 0.698843
O O7 0.394853 0.105148 0.691035
O O8 0.087111 0.412890 0.076193
O O9 0.045980 0.240014 0.135710
O O10 0.895397 0.395397 0.115097
O O11 0.962930 0.268754 0.021390
O O12 0.087144 0.854490 0.645324
O O13 0.115577 0.862374 0.777608
O O14 0.000000 0.000000 0.715996
O O15 0.224575 0.724575 0.597909
O O16 0.746290 0.246290 0.845681
O O17 0.667963 0.408788 0.908008
O O18 0.076060 0.112133 0.980262
#
# Coordination Sequence:
#
# PCOD9555601 Si02
#       7
#     8   8   8   8   8   8   8
#     4   9  19  33  56  84 106 136 177 226 282 330
#     4   9  18  36  60  83 108 139 180 233 288 334
#     4   9  18  32  53  83 111 133 169 223 275 317
#     4  11  24  36  53  78 112 151 185 222 267 325
#     4  10  21  36  54  79 110 140 178 228 272 325
#     4  10  20  35  56  77 105 145 182 213 262 320
#     4   9  18  31  55  80 108 138 172 218 261 321
#
# _framework density 17.174175000000002
#
# number of rings (size 3 to 8) (size 9 to 14) (size 15 to 20)
#    0.000    2.429    0.000    3.000    8.000    2.000 
#    0.000    1.429    0.000    0.857    0.000    0.000 
#    0.000    0.000    0.000    0.000    0.000    0.000 
#
# Total GULP energy -312380.104932 kJ/mol
# GULP energy per Si atom -5578.216160 kJ/mol
# Density = 1.713509 g / cm^3
# Si number density = 17.174175 Si / 1000 Ang^3
#
#
#
# Elastic Constant Matrix: (Units=GPa)
#
#
# Indices 1 2 3 4 5 6 
#
# 1 82.2866 -14.4351 21.2783 0.0000 0.0000 0.0000
# 2 -14.4351 82.2835 21.2773 0.0000 0.0000 0.0000
# 3 21.2783 21.2773 54.2789 0.0000 0.0000 0.0000
# 4 0.0000 0.0000 0.0000 8.7781 0.0000 0.0000
# 5 0.0000 0.0000 0.0000 0.0000 8.7783 0.0000
# 6 0.0000 0.0000 0.0000 0.0000 0.0000 17.4149
#
#
#
# Elastic Compliance Matrix: (Units=1/GPa)
#
#
# Indices 1 2 3 4 5 6 
#
# 1 0.014941 0.004602 -0.007661 0.000000 0.000000 0.000000
# 2 0.004602 0.014942 -0.007661 0.000000 0.000000 0.000000
# 3 -0.007661 -0.007661 0.024430 0.000000 0.000000 0.000000
# 4 0.000000 0.000000 0.000000 0.113920 0.000000 0.000000
# 5 0.000000 0.000000 0.000000 0.000000 0.113918 0.000000
# 6 0.000000 0.000000 0.000000 0.000000 0.000000 0.057422
#
#
# Mechanical properties :
#
#
# Convention : Reuss Voigt Hill
#
# Bulk Modulus (GPa) = 30.42100 30.56557 30.49328
# Shear Modulus (GPa) = 13.44194 19.70948 16.57571
#
# Velocity S-wave (km/s) = 2.80068 3.39133 3.11006
# Velocity P-wave (km/s) = 5.31132 5.75942 5.53990
#
# Compressibility (1/GPa) = 0.03287203
#
# Stress axis : x y z
#
# Youngs Moduli (GPa) = 66.92963 66.92741 40.93350
#
# Poissons Ratio (x) = -0.30801 0.31360
# Poissons Ratio (y) = -0.30802 0.31360
# Poissons Ratio (z) = 0.51276 0.51275
#
# Static dielectric constant tensor:
#      x y z
#    x 1.588990 0.000000 0.000000 
#    y 0.000000 1.588990 0.000000 
#    z 0.000000 0.000000 1.564240 
# 
# From -- ./inp_files/2676.got.cif
#   From: 2010.05.17/outbox.cif.g08.bks.cpg/sg113_cif.got.tgz:2676.got - 2010.05.20 11:03:00.
