data_PCOD9555230
_publ_section_title
;
Structure prediction by ZEFSAII (Michael W. Deem and Ramdas Pophale) SiO2 
 PCOD9555230
Probable space group: P -4 2 C
;
_chemical_formula_sum "Si O2"
_cell_formula_units_Z 26
_cell_length_a 8.273827
_cell_length_b 8.273827
_cell_length_c 14.892268
_cell_angle_alpha 90.000000
_cell_angle_beta 90.000000
_cell_angle_gamma 90.000000
_cell_volume 1019.468274
_symmetry_space_group_name_H-M "P -4 2 C"
_symmetry_group_IT_number 112
_symmetry_cell_setting 'tetragonal'
loop_
_space_group_symop_operation_xyz
x,y,z
y,-x,-z
-x,-y,z
-y,x,-z
x,-y,1/2-z
-x,y,1/2-z
-y,-x,1/2+z
y,x,1/2+z
loop_
_atom_site_type_symbol
_atom_site_label
_atom_site_fract_x
_atom_site_fract_y
_atom_site_fract_z
Si Si1 0.551248 0.811207 0.080327
Si Si2 0.000000 0.500000 0.250000
Si Si3 0.747788 0.344448 0.113542
Si Si4 0.189640 0.991766 0.351523
O O1 0.443371 0.681092 0.132826
O O2 0.500000 0.000000 0.096444
O O3 0.737297 0.826890 0.109903
O O4 0.548708 0.772267 0.974914
O O5 0.876279 0.396876 0.188186
O O6 0.779413 0.154934 0.092164
O O7 0.257204 0.000000 0.250000
O O8 0.000000 0.000000 0.344646
#
# Coordination Sequence:
#
# PCOD9555230 Si02
#       4
#     8   2   8   8
#     4  10  24  44  70 106 147 193 247 330 399 482
#     4  12  24  48  82 110 146 218 264 330 400 518
#     4  11  25  44  70 108 152 198 262 320 407 493
#     4  10  23  43  73 107 140 198 268 327 388 478
#
# _framework density 25.503489999999999
#
# number of rings (size 3 to 8) (size 9 to 14) (size 15 to 20)
#    0.000    1.538    1.538    1.846    8.615    8.615 
#    0.000    3.077    0.000    1.846    0.000    0.000 
#    0.000    0.000    0.000    0.000    0.000    0.000 
#
# Total GULP energy -145034.365438 kJ/mol
# GULP energy per Si atom -5578.244825 kJ/mol
# Density = 2.544544 g / cm^3
# Si number density = 25.503490 Si / 1000 Ang^3
#
#
#
# Elastic Constant Matrix: (Units=GPa)
#
#
# Indices 1 2 3 4 5 6 
#
# 1 128.7532 64.3147 49.9783 0.0000 0.0000 0.0000
# 2 64.3147 128.7532 49.9783 0.0000 0.0000 0.0000
# 3 49.9783 49.9783 108.6935 0.0000 0.0000 0.0000
# 4 0.0000 0.0000 0.0000 24.2692 0.0000 0.0000
# 5 0.0000 0.0000 0.0000 0.0000 24.2692 0.0000
# 6 0.0000 0.0000 0.0000 0.0000 0.0000 41.7666
#
#
#
# Elastic Compliance Matrix: (Units=1/GPa)
#
#
# Indices 1 2 3 4 5 6 
#
# 1 0.011158 -0.004360 -0.003126 0.000000 0.000000 0.000000
# 2 -0.004360 0.011158 -0.003126 0.000000 0.000000 0.000000
# 3 -0.003126 -0.003126 0.012075 0.000000 0.000000 0.000000
# 4 0.000000 0.000000 0.000000 0.041204 0.000000 0.000000
# 5 0.000000 0.000000 0.000000 0.000000 0.041204 0.000000
# 6 0.000000 0.000000 0.000000 0.000000 0.000000 0.023943
#
#
# Mechanical properties :
#
#
# Convention : Reuss Voigt Hill
#
# Bulk Modulus (GPa) = 75.94489 77.19361 76.56925
# Shear Modulus (GPa) = 30.05614 31.52291 30.78952
#
# Velocity S-wave (km/s) = 3.43667 3.51953 3.47834
# Velocity P-wave (km/s) = 6.75207 6.84468 6.79853
#
# Compressibility (1/GPa) = 0.01316744
#
# Stress axis : x y z
#
# Youngs Moduli (GPa) = 89.62001 89.62001 82.81833
#
# Poissons Ratio (x) = 0.39078 0.25886
# Poissons Ratio (y) = 0.39078 0.25886
# Poissons Ratio (z) = 0.28012 0.28012
#
# Static dielectric constant tensor:
#      x y z
#    x 2.413540 0.000000 0.000000 
#    y 0.000000 2.413540 0.000000 
#    z 0.000000 0.000000 2.020610 
# 
# From -- ./inp_files/3839.got.cif
#   From: 2010.05.17/outbox.cif.g08.bks.cpg/sg112_2_cif.got.tgz:3839.got - 2010.05.20 10:59:04.
