data_PCOD9555743
_publ_section_title
;
Structure prediction by ZEFSAII (Michael W. Deem and Ramdas Pophale) SiO2 
 PCOD9555743
Probable space group: P -4 21 M 
;
_chemical_formula_sum "Si O2"
_cell_formula_units_Z 40
_cell_length_a 15.458076
_cell_length_b 15.458076
_cell_length_c 6.815593
_cell_angle_alpha 90.000000
_cell_angle_beta 90.000000
_cell_angle_gamma 90.000000
_cell_volume 1628.600353
_symmetry_space_group_name_H-M "P -4 21 M "
_symmetry_group_IT_number 113
_symmetry_cell_setting 'tetragonal'
loop_
_space_group_symop_operation_xyz
x,y,z
y,-x,-z
-x,-y,z
-y,x,-z
1/2+x,1/2-y,-z
1/2-x,1/2+y,-z
1/2-y,1/2-x,z
1/2+y,1/2+x,z
loop_
_atom_site_type_symbol
_atom_site_label
_atom_site_fract_x
_atom_site_fract_y
_atom_site_fract_z
Si Si1 0.162401 0.524948 0.189936
Si Si2 0.809572 0.827477 0.771804
Si Si3 0.434065 0.609253 0.920404
Si Si4 0.554300 0.284486 0.547175
Si Si5 0.998825 0.356789 0.729186
O O1 0.071778 0.571778 0.243376
O O2 0.236529 0.598046 0.225265
O O3 0.199684 0.443821 0.309566
O O4 0.157503 0.503383 0.961947
O O5 0.763198 0.736803 0.769723
O O6 0.867969 0.825675 0.577402
O O7 0.862884 0.833898 0.972630
O O8 0.465369 0.641373 0.709377
O O9 0.513256 0.603916 0.073335
O O10 0.498128 0.235631 0.379134
O O11 0.082607 0.417394 0.685277
O O12 0.914250 0.414250 0.680717
#
# Coordination Sequence:
#
# PCOD9555743 Si02
#       5
#     8   8   8   8   8
#     4  10  23  46  71 101 148 195 238 297 375 437
#     4  11  26  45  70 109 144 185 240 300 367 440
#     4  11  26  48  74 103 143 196 248 301 363 436
#     4  12  24  41  73 104 143 186 241 307 355 435
#     4  10  23  44  73 110 150 194 245 301 369 446
#
# _framework density 24.560967999999999
#
# number of rings (size 3 to 8) (size 9 to 14) (size 15 to 20)
#    0.000    1.200    2.000    2.400    2.800    3.200 
#    0.000    8.000    0.000    0.000    0.000    0.000 
#    0.000    0.000    0.000    0.000    0.000    0.000 
#
# Total GULP energy -223165.356851 kJ/mol
# GULP energy per Si atom -5579.133921 kJ/mol
# Density = 2.450507 g / cm^3
# Si number density = 24.560968 Si / 1000 Ang^3
#
#
#
# Elastic Constant Matrix: (Units=GPa)
#
#
# Indices 1 2 3 4 5 6 
#
# 1 54.9520 67.2617 33.8134 0.0000 0.0000 0.0000
# 2 67.2617 54.9602 33.8150 0.0000 0.0000 0.0000
# 3 33.8134 33.8150 126.6436 0.0000 0.0000 0.0000
# 4 0.0000 0.0000 0.0000 32.3731 0.0000 0.0000
# 5 0.0000 0.0000 0.0000 0.0000 32.3748 0.0000
# 6 0.0000 0.0000 0.0000 0.0000 0.0000 51.4923
#
#
#
# Elastic Compliance Matrix: (Units=1/GPa)
#
#
# Indices 1 2 3 4 5 6 
#
# 1 -0.035835 0.045432 -0.002563 0.000000 0.000000 0.000000
# 2 0.045432 -0.035829 -0.002564 0.000000 0.000000 0.000000
# 3 -0.002563 -0.002564 0.009265 0.000000 0.000000 0.000000
# 4 0.000000 0.000000 0.000000 0.030890 0.000000 0.000000
# 5 0.000000 0.000000 0.000000 0.000000 0.030888 0.000000
# 6 0.000000 0.000000 0.000000 0.000000 0.000000 0.019420
#
#
# Mechanical properties :
#
#
# Convention : Reuss Voigt Hill
#
# Bulk Modulus (GPa) = 54.90700 56.25958 55.58329
# Shear Modulus (GPa) = -89.70230 30.02575 -29.83827
#
# Velocity S-wave (km/s) = -6.04992 3.50022 -3.48927
# Velocity P-wave (km/s) = 5.13792 6.26827 2.53900
#
# Compressibility (1/GPa) = 0.01821261
#
# Stress axis : x y z
#
# Youngs Moduli (GPa) = -27.90603 -27.91050 107.93272
#
# Poissons Ratio (x) = 1.26804 0.27664
# Poissons Ratio (y) = 1.26783 0.27670
# Poissons Ratio (z) = -0.07153 -0.07155
#
# Static dielectric constant tensor:
#      x y z
#    x 2.000430 0.000000 0.000000 
#    y 0.000000 2.000430 0.000000 
#    z 0.000000 0.000000 1.938550 
# 
# From -- ./inp_files/320.got.cif
#   From: 2010.05.17/outbox.cif.g08.bks.cpg/sg113_cif.got.tgz:320.got - 2010.05.20 11:03:00.
