data_PCOD9555205
_publ_section_title
;
Structure prediction by ZEFSAII (Michael W. Deem and Ramdas Pophale) SiO2 
 PCOD9555205
Probable space group: P -4 2 C
;
_chemical_formula_sum "Si O2"
_cell_formula_units_Z 32
_cell_length_a 8.251909
_cell_length_b 8.251909
_cell_length_c 22.128693
_cell_angle_alpha 90.000000
_cell_angle_beta 90.000000
_cell_angle_gamma 90.000000
_cell_volume 1506.831269
_symmetry_space_group_name_H-M "P -4 2 C"
_symmetry_group_IT_number 112
_symmetry_cell_setting 'tetragonal'
loop_
_space_group_symop_operation_xyz
x,y,z
y,-x,-z
-x,-y,z
-y,x,-z
x,-y,1/2-z
-x,y,1/2-z
-y,-x,1/2+z
y,x,1/2+z
loop_
_atom_site_type_symbol
_atom_site_label
_atom_site_fract_x
_atom_site_fract_y
_atom_site_fract_z
Si Si1 0.894426 0.357025 0.857605
Si Si2 0.859364 0.117609 0.578291
Si Si3 0.936014 0.312342 0.313734
Si Si4 0.278368 0.376027 0.516174
O O1 0.761275 0.247852 0.821449
O O2 0.798878 0.412061 0.918748
O O3 0.000000 0.500000 0.826755
O O4 0.041458 0.250708 0.884379
O O5 0.748995 0.177504 0.523791
O O6 0.753541 0.022214 0.626817
O O7 0.000000 0.000000 0.558552
O O8 0.000000 0.500000 0.312591
O O9 0.000000 0.243163 0.250000
O O10 0.299933 0.542428 0.479045
#
# Coordination Sequence:
#
# PCOD9555205 Si02
#       4
#     8   8   8   8
#     4  11  23  39  65 101 136 176 232 286 353 417
#     4  10  23  37  62  93 129 173 217 282 342 420
#     4  10  23  45  70  95 129 181 233 289 353 415
#     4  11  23  39  62  93 138 179 221 277 346 418
#
# _framework density 21.236618
#
# number of rings (size 3 to 8) (size 9 to 14) (size 15 to 20)
#    0.000    1.500    2.500    1.500    7.000    5.500 
#    0.000    2.500    0.000    3.000    0.000    0.000 
#    0.000    0.000    0.000    0.000    0.000    0.000 
#
# Total GULP energy -178273.362248 kJ/mol
# GULP energy per Si atom -5571.042570 kJ/mol
# Density = 2.118828 g / cm^3
# Si number density = 21.236618 Si / 1000 Ang^3
#
#
#
# Elastic Constant Matrix: (Units=GPa)
#
#
# Indices 1 2 3 4 5 6 
#
# 1 115.4863 61.5129 38.5599 0.0000 0.0000 0.0000
# 2 61.5129 115.4863 38.5599 0.0000 0.0000 0.0000
# 3 38.5599 38.5599 75.7978 0.0000 0.0000 0.0000
# 4 0.0000 0.0000 0.0000 27.8331 0.0000 0.0000
# 5 0.0000 0.0000 0.0000 0.0000 27.8331 0.0000
# 6 0.0000 0.0000 0.0000 0.0000 0.0000 36.8563
#
#
#
# Elastic Compliance Matrix: (Units=1/GPa)
#
#
# Indices 1 2 3 4 5 6 
#
# 1 0.012893 -0.005634 -0.003693 0.000000 0.000000 0.000000
# 2 -0.005634 0.012893 -0.003693 0.000000 0.000000 0.000000
# 3 -0.003693 -0.003693 0.016950 0.000000 0.000000 0.000000
# 4 0.000000 0.000000 0.000000 0.035928 0.000000 0.000000
# 5 0.000000 0.000000 0.000000 0.000000 0.035928 0.000000
# 6 0.000000 0.000000 0.000000 0.000000 0.000000 0.027132
#
#
# Mechanical properties :
#
#
# Convention : Reuss Voigt Hill
#
# Bulk Modulus (GPa) = 59.89166 64.89288 62.39227
# Shear Modulus (GPa) = 28.84659 29.71368 29.28014
#
# Velocity S-wave (km/s) = 3.68957 3.74461 3.71719
# Velocity P-wave (km/s) = 6.81277 7.02279 6.91858
#
# Compressibility (1/GPa) = 0.01669681
#
# Stress axis : x y z
#
# Youngs Moduli (GPa) = 77.56060 77.56060 58.99700
#
# Poissons Ratio (x) = 0.43702 0.21785
# Poissons Ratio (y) = 0.43702 0.21785
# Poissons Ratio (z) = 0.28640 0.28640
#
# Static dielectric constant tensor:
#      x y z
#    x 1.824520 0.000000 0.000000 
#    y 0.000000 1.824520 0.000000 
#    z 0.000000 0.000000 1.768160 
# 
# From -- ./inp_files/4531.got.cif
#   From: 2010.05.17/outbox.cif.g08.bks.cpg/sg112_3_cif.got.tgz:4531.got - 2010.05.20 10:59:04.
