data_PCOD9555036
_publ_section_title
;
Structure prediction by ZEFSAII (Michael W. Deem and Ramdas Pophale) SiO2 
 PCOD9555036
Probable space group: P -4 2 C
;
_chemical_formula_sum "Si O2"
_cell_formula_units_Z 56
_cell_length_a 11.478148
_cell_length_b 11.478148
_cell_length_c 21.775638
_cell_angle_alpha 90.000000
_cell_angle_beta 90.000000
_cell_angle_gamma 90.000000
_cell_volume 2868.894175
_symmetry_space_group_name_H-M "P -4 2 C"
_symmetry_group_IT_number 112
_symmetry_cell_setting 'tetragonal'
loop_
_space_group_symop_operation_xyz
x,y,z
y,-x,-z
-x,-y,z
-y,x,-z
x,-y,1/2-z
-x,y,1/2-z
-y,-x,1/2+z
y,x,1/2+z
loop_
_atom_site_type_symbol
_atom_site_label
_atom_site_fract_x
_atom_site_fract_y
_atom_site_fract_z
Si Si1 0.363042 0.015093 0.600448
Si Si2 0.883234 0.443003 0.682430
Si Si3 0.520534 0.633885 0.176602
Si Si4 0.192508 0.016535 0.487999
Si Si5 0.992511 0.207565 0.655768
Si Si6 0.731799 0.775446 0.682152
Si Si7 0.773418 0.104976 0.701542
O O1 0.332445 0.128693 0.640989
O O2 0.500000 0.000000 0.594167
O O3 0.298163 0.021463 0.535444
O O4 0.304769 0.913458 0.641649
O O5 0.874568 0.500000 0.750000
O O6 0.752594 0.451846 0.654739
O O7 0.926265 0.312661 0.688518
O O8 0.000000 0.500000 0.651309
O O9 0.500000 0.500000 0.153200
O O10 0.500000 0.626508 0.250000
O O11 0.652226 0.676830 0.165635
O O12 0.120454 0.897403 0.497590
O O13 0.223983 0.022126 0.416781
O O14 0.907750 0.105006 0.678855
O O15 0.129179 0.209103 0.669987
O O16 0.722552 0.792867 0.755543
O O17 0.762468 0.000000 0.750000
#
# Coordination Sequence:
#
# PCOD9555036 Si02
#       7
#     8   8   8   8   8   8   8
#     4  11  25  44  62  90 130 171 216 265 319 405
#     4  10  20  34  57  89 128 164 209 266 326 380
#     4  10  21  37  57  88 131 173 218 254 318 403
#     4  11  23  44  69  91 121 165 226 275 330 383
#     4  12  22  37  68  95 132 168 213 280 334 391
#     4  11  23  38  62  95 130 171 206 274 332 400
#     4  10  23  36  60  98 132 167 207 255 344 408
#
# _framework density 19.519717
#
# number of rings (size 3 to 8) (size 9 to 14) (size 15 to 20)
#    0.000    1.286    4.286    2.143    2.000   10.571 
#    0.000    0.000    0.000    0.000    0.000    0.000 
#    0.000    0.000    0.000    0.000    0.000    0.000 
#
# Total GULP energy -312102.226855 kJ/mol
# GULP energy per Si atom -5573.254051 kJ/mol
# Density = 1.947529 g / cm^3
# Si number density = 19.519717 Si / 1000 Ang^3
#
#
#
# Elastic Constant Matrix: (Units=GPa)
#
#
# Indices 1 2 3 4 5 6 
#
# 1 123.2997 34.8357 17.1557 0.0000 0.0000 0.0000
# 2 34.8357 123.2997 17.1557 0.0000 0.0000 0.0000
# 3 17.1557 17.1557 94.8896 0.0000 0.0000 0.0000
# 4 0.0000 0.0000 0.0000 11.4192 0.0000 0.0000
# 5 0.0000 0.0000 0.0000 0.0000 11.4192 0.0000
# 6 0.0000 0.0000 0.0000 0.0000 0.0000 16.2303
#
#
#
# Elastic Compliance Matrix: (Units=1/GPa)
#
#
# Indices 1 2 3 4 5 6 
#
# 1 0.008943 -0.002361 -0.001190 0.000000 0.000000 0.000000
# 2 -0.002361 0.008943 -0.001190 0.000000 0.000000 0.000000
# 3 -0.001190 -0.001190 0.010969 0.000000 0.000000 0.000000
# 4 0.000000 0.000000 0.000000 0.087572 0.000000 0.000000
# 5 0.000000 0.000000 0.000000 0.000000 0.087572 0.000000
# 6 0.000000 0.000000 0.000000 0.000000 0.000000 0.061613
#
#
# Mechanical properties :
#
#
# Convention : Reuss Voigt Hill
#
# Bulk Modulus (GPa) = 51.61901 53.30924 52.46413
# Shear Modulus (GPa) = 17.75876 25.96988 21.86432
#
# Velocity S-wave (km/s) = 3.01954 3.65148 3.35044
# Velocity P-wave (km/s) = 6.21762 6.71919 6.47326
#
# Compressibility (1/GPa) = 0.01937271
#
# Stress axis : x y z
#
# Youngs Moduli (GPa) = 111.81983 111.81983 91.16730
#
# Poissons Ratio (x) = 0.26401 0.10849
# Poissons Ratio (y) = 0.26401 0.10849
# Poissons Ratio (z) = 0.13306 0.13306
#
# Static dielectric constant tensor:
#      x y z
#    x 1.814910 0.000000 0.000000 
#    y 0.000000 1.814910 0.000000 
#    z 0.000000 0.000000 1.682710 
# 
# From -- ./inp_files/4914.got.cif
#   From: 2010.05.17/outbox.cif.g08.bks.cpg/sg112_3_cif.got.tgz:4914.got - 2010.05.20 10:59:04.
