data_PCOD9555315
_publ_section_title
;
Structure prediction by ZEFSAII (Michael W. Deem and Ramdas Pophale) SiO2 
 PCOD9555315
Probable space group: P -4 2 C
;
_chemical_formula_sum "Si O2"
_cell_formula_units_Z 40
_cell_length_a 19.982253
_cell_length_b 19.982253
_cell_length_c 4.965324
_cell_angle_alpha 90.000000
_cell_angle_beta 90.000000
_cell_angle_gamma 90.000000
_cell_volume 1982.606380
_symmetry_space_group_name_H-M "P -4 2 C"
_symmetry_group_IT_number 112
_symmetry_cell_setting 'tetragonal'
loop_
_space_group_symop_operation_xyz
x,y,z
y,-x,-z
-x,-y,z
-y,x,-z
x,-y,1/2-z
-x,y,1/2-z
-y,-x,1/2+z
y,x,1/2+z
loop_
_atom_site_type_symbol
_atom_site_label
_atom_site_fract_x
_atom_site_fract_y
_atom_site_fract_z
Si Si1 0.820036 0.757992 0.692445
Si Si2 0.124355 0.573280 0.246737
Si Si3 0.637133 0.424441 0.787219
Si Si4 0.211759 0.605484 0.765276
Si Si5 0.044409 0.698950 0.010086
O O1 0.783075 0.809572 0.494850
O O2 0.786052 0.684791 0.672643
O O3 0.895473 0.745490 0.595295
O O4 0.091814 0.500000 0.250000
O O5 0.158071 0.593967 0.528118
O O6 0.183884 0.568902 0.028607
O O7 0.076907 0.632133 0.139025
O O8 0.613093 0.500000 0.750000
O O9 0.596952 0.374466 0.593717
O O10 0.714497 0.419321 0.703231
O O11 0.000000 0.681885 0.750000
O O12 0.000000 0.729531 0.250000
#
# Coordination Sequence:
#
# PCOD9555315 Si02
#       5
#     8   8   8   8   8
#     4  11  21  38  63  89 116 149 193 239 287 340
#     4  11  22  38  60  86 119 162 203 240 286 348
#     4  12  25  40  58  79 107 146 193 251 318 382
#     4  11  22  39  61  86 113 144 194 257 308 346
#     4  11  23  40  59  87 127 163 195 239 287 340
#
# _framework density 20.175464000000002
#
# number of rings (size 3 to 8) (size 9 to 14) (size 15 to 20)
#    0.000    0.800    0.000   10.800    0.000    1.600 
#    0.000    3.000    0.000    0.000    0.000    0.000 
#    0.000   28.000    0.000    0.000    0.000    0.000 
#
# Total GULP energy -223798.058136 kJ/mol
# GULP energy per Si atom -5594.951453 kJ/mol
# Density = 2.012954 g / cm^3
# Si number density = 20.175464 Si / 1000 Ang^3
#
#
#
# Elastic Constant Matrix: (Units=GPa)
#
#
# Indices 1 2 3 4 5 6 
#
# 1 65.9626 9.4051 2.9650 0.0000 0.0000 0.0000
# 2 9.4051 65.9626 2.9650 0.0000 0.0000 0.0000
# 3 2.9650 2.9650 86.7366 0.0000 0.0000 0.0000
# 4 0.0000 0.0000 0.0000 16.3599 0.0000 0.0000
# 5 0.0000 0.0000 0.0000 0.0000 16.3599 0.0000
# 6 0.0000 0.0000 0.0000 0.0000 0.0000 4.2234
#
#
#
# Elastic Compliance Matrix: (Units=1/GPa)
#
#
# Indices 1 2 3 4 5 6 
#
# 1 0.015493 -0.002189 -0.000455 0.000000 0.000000 0.000000
# 2 -0.002189 0.015493 -0.000455 0.000000 0.000000 0.000000
# 3 -0.000455 -0.000455 0.011560 0.000000 0.000000 0.000000
# 4 0.000000 0.000000 0.000000 0.061125 0.000000 0.000000
# 5 0.000000 0.000000 0.000000 0.000000 0.061125 0.000000
# 6 0.000000 0.000000 0.000000 0.000000 0.000000 0.236777
#
#
# Mechanical properties :
#
#
# Convention : Reuss Voigt Hill
#
# Bulk Modulus (GPa) = 27.51091 27.70358 27.60725
# Shear Modulus (GPa) = 11.90803 20.94375 16.42589
#
# Velocity S-wave (km/s) = 2.43209 3.22542 2.85643
# Velocity P-wave (km/s) = 4.64243 5.25664 4.95905
#
# Compressibility (1/GPa) = 0.03634921
#
# Stress axis : x y z
#
# Youngs Moduli (GPa) = 64.54693 64.54693 86.50331
#
# Poissons Ratio (x) = 0.14126 0.03934
# Poissons Ratio (y) = 0.14126 0.03934
# Poissons Ratio (z) = 0.02936 0.02936
#
# Static dielectric constant tensor:
#      x y z
#    x 1.722790 0.000000 0.000000 
#    y 0.000000 1.722790 0.000000 
#    z 0.000000 0.000000 1.705540 
# 
# From -- ./inp_files/277.got.cif
#   From: 2010.05.17/outbox.cif.g08.bks.cpg/sg112_1_cif.got.tgz:277.got - 2010.05.20 10:59:04.
