data_PCOD9555756
_publ_section_title
;
Structure prediction by ZEFSAII (Michael W. Deem and Ramdas Pophale) SiO2 
 PCOD9555756
Probable space group: P -4 21 M 
;
_chemical_formula_sum "Si O2"
_cell_formula_units_Z 48
_cell_length_a 14.882583
_cell_length_b 14.882583
_cell_length_c 11.590856
_cell_angle_alpha 90.000000
_cell_angle_beta 90.000000
_cell_angle_gamma 90.000000
_cell_volume 2567.273494
_symmetry_space_group_name_H-M "P -4 21 M "
_symmetry_group_IT_number 113
_symmetry_cell_setting 'tetragonal'
loop_
_space_group_symop_operation_xyz
x,y,z
y,-x,-z
-x,-y,z
-y,x,-z
1/2+x,1/2-y,-z
1/2-x,1/2+y,-z
1/2-y,1/2-x,z
1/2+y,1/2+x,z
loop_
_atom_site_type_symbol
_atom_site_label
_atom_site_fract_x
_atom_site_fract_y
_atom_site_fract_z
Si Si1 0.667779 0.167779 0.975602
Si Si2 0.810440 0.689561 0.288388
Si Si3 0.842057 0.342057 0.754318
Si Si4 0.433536 0.416301 0.155962
Si Si5 0.502981 0.728227 0.966181
Si Si6 0.044860 0.792601 0.625960
Si Si7 0.785373 0.142044 0.499910
Si Si8 0.319671 0.180330 0.978392
O O1 0.658462 0.158462 0.835870
O O2 0.571535 0.203953 0.016289
O O3 0.743080 0.243080 0.006389
O O4 0.734638 0.765363 0.264247
O O5 0.879474 0.739043 0.374979
O O6 0.927342 0.299670 0.690391
O O7 0.849477 0.349477 0.891624
O O8 0.500000 0.500000 0.144682
O O9 0.334147 0.450949 0.125625
O O10 0.443590 0.370710 0.279316
O O11 0.461011 0.340714 0.063010
O O12 0.591342 0.778684 0.921344
O O13 0.118224 0.814702 0.527734
O O14 0.945499 0.791178 0.576588
O O15 0.718731 0.218731 0.451301
#
# Coordination Sequence:
#
# PCOD9555756 Si02
#       8
#     4   4   4   8   8   8   8   4
#     4  11  20  37  64  89 124 174 207 260 314 374
#     4   7  16  38  60  80 112 157 205 247 314 358
#     4   9  16  36  60  80 112 163 199 243 310 381
#     4  12  22  37  60  96 127 160 210 265 311 383
#     4  12  21  38  63  89 127 164 214 252 315 379
#     4  11  21  38  63  88 124 162 205 263 327 363
#     4   9  21  38  60  92 118 153 210 263 305 373
#     4  11  20  37  63  90 119 173 205 254 314 369
#
# _framework density 18.696878000000002
#
# number of rings (size 3 to 8) (size 9 to 14) (size 15 to 20)
#    0.500    1.000    5.833    2.000    2.333    0.333 
#    1.500    0.417    1.833    5.000    0.000    0.000 
#    0.000    0.000    0.000    0.000    0.000    0.000 
#
# Total GULP energy -267651.646540 kJ/mol
# GULP energy per Si atom -5576.075970 kJ/mol
# Density = 1.865432 g / cm^3
# Si number density = 18.696878 Si / 1000 Ang^3
#
#
#
# Elastic Constant Matrix: (Units=GPa)
#
#
# Indices 1 2 3 4 5 6 
#
# 1 90.9934 56.9641 20.8958 0.0000 0.0000 0.0000
# 2 56.9641 90.9945 20.8955 0.0000 0.0000 0.0000
# 3 20.8958 20.8955 47.3243 0.0000 0.0000 0.0000
# 4 0.0000 0.0000 0.0000 18.4941 0.0000 0.0000
# 5 0.0000 0.0000 0.0000 0.0000 18.4942 0.0000
# 6 0.0000 0.0000 0.0000 0.0000 0.0000 38.8538
#
#
#
# Elastic Compliance Matrix: (Units=1/GPa)
#
#
# Indices 1 2 3 4 5 6 
#
# 1 0.018554 -0.010832 -0.003410 0.000000 0.000000 0.000000
# 2 -0.010832 0.018554 -0.003409 0.000000 0.000000 0.000000
# 3 -0.003410 -0.003409 0.024142 0.000000 0.000000 0.000000
# 4 0.000000 0.000000 0.000000 0.054071 0.000000 0.000000
# 5 0.000000 0.000000 0.000000 0.000000 0.054071 0.000000
# 6 0.000000 0.000000 0.000000 0.000000 0.000000 0.025737
#
#
# Mechanical properties :
#
#
# Convention : Reuss Voigt Hill
#
# Bulk Modulus (GPa) = 38.53979 47.42477 42.98228
# Shear Modulus (GPa) = 20.91348 23.87221 22.39285
#
# Velocity S-wave (km/s) = 3.34811 3.57711 3.46450
# Velocity P-wave (km/s) = 5.96692 6.51775 6.24841
#
# Compressibility (1/GPa) = 0.02594721
#
# Stress axis : x y z
#
# Youngs Moduli (GPa) = 53.89673 53.89765 41.42224
#
# Poissons Ratio (x) = 0.58383 0.14123
# Poissons Ratio (y) = 0.58382 0.14122
# Poissons Ratio (z) = 0.18377 0.18375
#
# Static dielectric constant tensor:
#      x y z
#    x 1.666380 0.000000 0.000000 
#    y 0.000000 1.666380 0.000000 
#    z 0.000000 0.000000 1.668160 
# 
# From -- ./inp_files/1895.got.cif
#   From: 2010.05.17/outbox.cif.g08.bks.cpg/sg113_cif.got.tgz:1895.got - 2010.05.20 11:03:00.
