data_PCOD9555242
_publ_section_title
;
Structure prediction by ZEFSAII (Michael W. Deem and Ramdas Pophale) SiO2 
 PCOD9555242
Probable space group: P -4 2 C
;
_chemical_formula_sum "Si O2"
_cell_formula_units_Z 58
_cell_length_a 17.500239
_cell_length_b 17.500239
_cell_length_c 9.240549
_cell_angle_alpha 90.000000
_cell_angle_beta 90.000000
_cell_angle_gamma 90.000000
_cell_volume 2829.995429
_symmetry_space_group_name_H-M "P -4 2 C"
_symmetry_group_IT_number 112
_symmetry_cell_setting 'tetragonal'
loop_
_space_group_symop_operation_xyz
x,y,z
y,-x,-z
-x,-y,z
-y,x,-z
x,-y,1/2-z
-x,y,1/2-z
-y,-x,1/2+z
y,x,1/2+z
loop_
_atom_site_type_symbol
_atom_site_label
_atom_site_fract_x
_atom_site_fract_y
_atom_site_fract_z
Si Si1 0.389662 0.817983 0.131351
Si Si2 0.365873 0.936477 0.650016
Si Si3 0.964163 0.279479 0.589219
Si Si4 0.438283 0.810149 0.461705
Si Si5 0.247952 0.821715 0.748324
Si Si6 0.064915 0.854653 0.369510
Si Si7 0.000000 0.000000 0.500000
Si Si8 0.723607 0.291785 0.999555
O O1 0.332766 0.887870 0.093572
O O2 0.407834 0.829113 0.300600
O O3 0.470820 0.810145 0.051735
O O4 0.347759 0.739493 0.088625
O O5 0.419367 0.873638 0.579975
O O6 0.305957 0.892689 0.754187
O O7 0.403908 0.000000 0.750000
O O8 0.321847 0.975753 0.516464
O O9 0.945295 0.199596 0.509448
O O10 0.000000 0.272008 0.750000
O O11 0.382627 0.738044 0.498339
O O12 0.167142 0.854054 0.798770
O O13 0.275596 0.751395 0.846285
O O14 0.254302 0.795348 0.583937
O O15 0.000000 0.836599 0.250000
O O16 0.052959 0.942247 0.410683
#
# Coordination Sequence:
#
# PCOD9555242 Si02
#       8
#     8   8   8   8   8   8   2   8
#     4  11  22  42  66 102 136 176 219 270 335 413
#     4  11  20  42  62  95 135 169 216 277 331 392
#     4  12  23  40  68  95 127 176 221 265 341 412
#     4  10  24  40  65 101 139 172 220 272 331 412
#     4  11  22  39  69  90 120 164 230 267 318 396
#     4  12  26  48  62  87 126 167 226 293 337 386
#     4  12  34  44  60  90 126 180 228 294 358 372
#     4  11  22  41  69 100 123 174 217 268 326 395
#
# _framework density 20.494731999999999
#
# number of rings (size 3 to 8) (size 9 to 14) (size 15 to 20)
#    0.000    0.828    6.897    0.207    1.931    2.759 
#    0.000    8.966    0.000    0.414    0.000    1.931 
#    0.000    0.000    0.000    0.000    0.000    0.000 
#
# Total GULP energy -323904.364273 kJ/mol
# GULP energy per Si atom -5584.558005 kJ/mol
# Density = 2.044808 g / cm^3
# Si number density = 20.494732 Si / 1000 Ang^3
#
#
#
# Elastic Constant Matrix: (Units=GPa)
#
#
# Indices 1 2 3 4 5 6 
#
# 1 96.2871 30.8059 23.8142 0.0000 0.0000 0.0000
# 2 30.8059 96.2871 23.8142 0.0000 0.0000 0.0000
# 3 23.8142 23.8142 95.7477 0.0000 0.0000 0.0000
# 4 0.0000 0.0000 0.0000 25.0784 0.0000 0.0000
# 5 0.0000 0.0000 0.0000 0.0000 25.0784 0.0000
# 6 0.0000 0.0000 0.0000 0.0000 0.0000 15.5701
#
#
#
# Elastic Compliance Matrix: (Units=1/GPa)
#
#
# Indices 1 2 3 4 5 6 
#
# 1 0.011974 -0.003297 -0.002158 0.000000 0.000000 0.000000
# 2 -0.003297 0.011974 -0.002158 0.000000 0.000000 0.000000
# 3 -0.002158 -0.002158 0.011518 0.000000 0.000000 0.000000
# 4 0.000000 0.000000 0.000000 0.039875 0.000000 0.000000
# 5 0.000000 0.000000 0.000000 0.000000 0.039875 0.000000
# 6 0.000000 0.000000 0.000000 0.000000 0.000000 0.064226
#
#
# Mechanical properties :
#
#
# Convention : Reuss Voigt Hill
#
# Bulk Modulus (GPa) = 49.40920 49.46564 49.43742
# Shear Modulus (GPa) = 24.82435 27.13789 25.98112
#
# Velocity S-wave (km/s) = 3.48408 3.64282 3.56434
# Velocity P-wave (km/s) = 6.35183 6.47161 6.41200
#
# Compressibility (1/GPa) = 0.02023914
#
# Stress axis : x y z
#
# Youngs Moduli (GPa) = 83.51228 83.51228 86.82327
#
# Poissons Ratio (x) = 0.27536 0.18738
# Poissons Ratio (y) = 0.27536 0.18738
# Poissons Ratio (z) = 0.18023 0.18023
#
# Static dielectric constant tensor:
#      x y z
#    x 1.758780 0.000000 0.000000 
#    y 0.000000 1.758780 0.000000 
#    z 0.000000 0.000000 1.788580 
# 
# From -- ./inp_files/1545.got.cif
#   From: 2010.05.17/outbox.cif.g08.bks.cpg/sg112_1_cif.got.tgz:1545.got - 2010.05.20 10:59:04.
