data_PCOD9555845
_publ_section_title
;
Structure prediction by ZEFSAII (Michael W. Deem and Ramdas Pophale) SiO2 
 PCOD9555845
Probable space group: P -4 21 C
;
_chemical_formula_sum "Si O2"
_cell_formula_units_Z 34
_cell_length_a 8.948539
_cell_length_b 8.948539
_cell_length_c 20.773430
_cell_angle_alpha 90.000000
_cell_angle_beta 90.000000
_cell_angle_gamma 90.000000
_cell_volume 1663.460456
_symmetry_space_group_name_H-M "P -4 21 C"
_symmetry_group_IT_number 114
_symmetry_cell_setting 'tetragonal'
loop_
_space_group_symop_operation_xyz
x,y,z
y,-x,-z
-x,-y,z
-y,x,-z
1/2+x,1/2-y,1/2-z
1/2-x,1/2+y,1/2-z
1/2-y,1/2-x,1/2+z
1/2+y,1/2+x,1/2+z
loop_
_atom_site_type_symbol
_atom_site_label
_atom_site_fract_x
_atom_site_fract_y
_atom_site_fract_z
Si Si1 0.500000 0.500000 0.340704
Si Si2 0.709862 0.251364 0.715078
Si Si3 0.500000 0.000000 0.159820
Si Si4 0.000000 0.000000 0.500000
Si Si5 0.209260 0.751304 0.864508
Si Si6 0.336970 0.536449 0.119686
O O1 0.393847 0.393749 0.298378
O O2 0.606197 0.390329 0.381067
O O3 0.774147 0.249915 0.786521
O O4 0.843112 0.244543 0.663057
O O5 0.604334 0.108257 0.702217
O O6 0.395893 0.112841 0.119697
O O7 0.084616 0.887758 0.548200
O O8 0.378643 0.745754 0.887875
O O9 0.500000 0.500000 0.151232
#
# Coordination Sequence:
#
# PCOD9555845 Si02
#       6
#     4   8   4   2   8   8
#     4  10  24  33  48  87 118 156 184 238 316 372
#     4  11  21  33  55  83 126 155 196 241 309 363
#     4  10  18  32  48  72 112 160 184 228 294 374
#     4   8  20  38  68  92 108 154 232 258 264 324
#     4  11  21  33  55  83 126 155 196 241 309 363
#     4  10  20  38  63  91 109 154 212 257 276 341
#
# _framework density 20.439321
#
# number of rings (size 3 to 8) (size 9 to 14) (size 15 to 20)
#    0.706    0.941    2.353    4.235    3.294    0.941 
#    0.000    0.000    0.000   18.353    0.000    0.000 
#    0.000    0.000    0.000    0.000    0.000    0.000 
#
# Total GULP energy -189711.200720 kJ/mol
# GULP energy per Si atom -5579.741198 kJ/mol
# Density = 2.039280 g / cm^3
# Si number density = 20.439321 Si / 1000 Ang^3
#
#
#
# Elastic Constant Matrix: (Units=GPa)
#
#
# Indices 1 2 3 4 5 6 
#
# 1 115.7429 43.3552 2.9162 0.0000 0.0000 0.0000
# 2 43.3552 115.7429 2.9162 0.0000 0.0000 0.0000
# 3 2.9162 2.9162 50.3577 0.0000 0.0000 0.0000
# 4 0.0000 0.0000 0.0000 9.9125 0.0000 0.0000
# 5 0.0000 0.0000 0.0000 0.0000 9.9125 0.0000
# 6 0.0000 0.0000 0.0000 0.0000 0.0000 49.8398
#
#
#
# Elastic Compliance Matrix: (Units=1/GPa)
#
#
# Indices 1 2 3 4 5 6 
#
# 1 0.010057 -0.003758 -0.000365 0.000000 0.000000 0.000000
# 2 -0.003758 0.010057 -0.000365 0.000000 0.000000 0.000000
# 3 -0.000365 -0.000365 0.019900 0.000000 0.000000 0.000000
# 4 0.000000 0.000000 0.000000 0.100883 0.000000 0.000000
# 5 0.000000 0.000000 0.000000 0.000000 0.100883 0.000000
# 6 0.000000 0.000000 0.000000 0.000000 0.000000 0.020064
#
#
# Mechanical properties :
#
#
# Convention : Reuss Voigt Hill
#
# Bulk Modulus (GPa) = 32.21781 42.24653 37.23217
# Shear Modulus (GPa) = 17.78316 29.44334 23.61325
#
# Velocity S-wave (km/s) = 2.95286 3.79954 3.40264
# Velocity P-wave (km/s) = 5.23667 6.32161 5.80455
#
# Compressibility (1/GPa) = 0.03103874
#
# Stress axis : x y z
#
# Youngs Moduli (GPa) = 99.43663 99.43663 50.25076
#
# Poissons Ratio (x) = 0.37367 0.01833
# Poissons Ratio (y) = 0.37367 0.01833
# Poissons Ratio (z) = 0.03627 0.03627
#
# Static dielectric constant tensor:
#      x y z
#    x 1.767540 0.000000 0.000000 
#    y 0.000000 1.767540 0.000000 
#    z 0.000000 0.000000 1.688230 
# 
# From -- ./inp_files/3320.got.cif
#   From: 2010.05.17/outbox.cif.g08.bks.cpg/sg114_2_cif.got.tgz:3320.got - 2010.05.20 11:04:54.
