data_PCOD9555418
_publ_section_title
;
Structure prediction by ZEFSAII (Michael W. Deem and Ramdas Pophale) SiO2 
 PCOD9555418
Probable space group: P -4 2 C
;
_chemical_formula_sum "Si O2"
_cell_formula_units_Z 26
_cell_length_a 10.934023
_cell_length_b 10.934023
_cell_length_c 9.135776
_cell_angle_alpha 90.000000
_cell_angle_beta 90.000000
_cell_angle_gamma 90.000000
_cell_volume 1092.208140
_symmetry_space_group_name_H-M "P -4 2 C"
_symmetry_group_IT_number 112
_symmetry_cell_setting 'tetragonal'
loop_
_space_group_symop_operation_xyz
x,y,z
y,-x,-z
-x,-y,z
-y,x,-z
x,-y,1/2-z
-x,y,1/2-z
-y,-x,1/2+z
y,x,1/2+z
loop_
_atom_site_type_symbol
_atom_site_label
_atom_site_fract_x
_atom_site_fract_y
_atom_site_fract_z
Si Si1 0.500000 0.500000 0.500000
Si Si2 0.504669 0.779897 0.578755
Si Si3 0.707675 0.085079 0.120549
Si Si4 0.089828 0.731765 0.118788
O O1 0.513125 0.632965 0.574970
O O2 0.500000 0.813335 0.750000
O O3 0.605845 0.842685 0.475264
O O4 0.374965 0.836446 0.533938
O O5 0.806224 0.180513 0.181190
O O6 0.657750 0.000000 0.250000
O O7 0.780382 0.000033 0.005909
O O8 0.000000 0.693057 0.250000
#
# Coordination Sequence:
#
# PCOD9555418 Si02
#       4
#     2   8   8   8
#     4  12  26  48  88 118 156 206 264 338 386 488
#     4  12  26  51  76 117 159 207 261 328 410 458
#     4  12  28  47  78 118 155 208 270 322 386 476
#     4  12  26  49  78 109 162 213 256 323 395 464
#
# _framework density 23.804986
#
# number of rings (size 3 to 8) (size 9 to 14) (size 15 to 20)
#    0.000    0.000    6.154    3.231    0.000    6.154 
#    5.538    0.000    0.000    0.000    0.000    0.000 
#    0.000    0.000    0.000    0.000    0.000    0.000 
#
# Total GULP energy -145129.078594 kJ/mol
# GULP energy per Si atom -5581.887638 kJ/mol
# Density = 2.375080 g / cm^3
# Si number density = 23.804986 Si / 1000 Ang^3
#
#
#
# Elastic Constant Matrix: (Units=GPa)
#
#
# Indices 1 2 3 4 5 6 
#
# 1 151.0044 65.3105 52.9095 0.0000 0.0000 0.0000
# 2 65.3105 151.0044 52.9095 0.0000 0.0000 0.0000
# 3 52.9095 52.9095 116.2856 0.0000 0.0000 0.0000
# 4 0.0000 0.0000 0.0000 18.5863 0.0000 0.0000
# 5 0.0000 0.0000 0.0000 0.0000 18.5863 0.0000
# 6 0.0000 0.0000 0.0000 0.0000 0.0000 36.5476
#
#
#
# Elastic Compliance Matrix: (Units=1/GPa)
#
#
# Indices 1 2 3 4 5 6 
#
# 1 0.008808 -0.002861 -0.002706 0.000000 0.000000 0.000000
# 2 -0.002861 0.008808 -0.002706 0.000000 0.000000 0.000000
# 3 -0.002706 -0.002706 0.011062 0.000000 0.000000 0.000000
# 4 0.000000 0.000000 0.000000 0.053803 0.000000 0.000000
# 5 0.000000 0.000000 0.000000 0.000000 0.053803 0.000000
# 6 0.000000 0.000000 0.000000 0.000000 0.000000 0.027362
#
#
# Mechanical properties :
#
#
# Convention : Reuss Voigt Hill
#
# Bulk Modulus (GPa) = 82.42631 84.50596 83.46613
# Shear Modulus (GPa) = 27.13929 31.22168 29.18048
#
# Velocity S-wave (km/s) = 3.38015 3.62548 3.50496
# Velocity P-wave (km/s) = 7.06645 7.28710 7.17762
#
# Compressibility (1/GPa) = 0.01213205
#
# Stress axis : x y z
#
# Youngs Moduli (GPa) = 113.53382 113.53382 90.40281
#
# Poissons Ratio (x) = 0.32488 0.24460
# Poissons Ratio (y) = 0.32488 0.24460
# Poissons Ratio (z) = 0.30718 0.30718
#
# Static dielectric constant tensor:
#      x y z
#    x 1.942740 0.000000 0.000000 
#    y 0.000000 1.942740 0.000000 
#    z 0.000000 0.000000 1.949230 
# 
# From -- ./inp_files/851.got.cif
#   From: 2010.05.17/outbox.cif.g08.bks.cpg/sg112_1_cif.got.tgz:851.got - 2010.05.20 10:59:04.
