data_PCOD9555237
_publ_section_title
;
Structure prediction by ZEFSAII (Michael W. Deem and Ramdas Pophale) SiO2 
 PCOD9555237
Probable space group: P -4 2 C
;
_chemical_formula_sum "Si O2"
_cell_formula_units_Z 24
_cell_length_a 13.812957
_cell_length_b 13.812957
_cell_length_c 4.953414
_cell_angle_alpha 90.000000
_cell_angle_beta 90.000000
_cell_angle_gamma 90.000000
_cell_volume 945.100400
_symmetry_space_group_name_H-M "P -4 2 C"
_symmetry_group_IT_number 112
_symmetry_cell_setting 'tetragonal'
loop_
_space_group_symop_operation_xyz
x,y,z
y,-x,-z
-x,-y,z
-y,x,-z
x,-y,1/2-z
-x,y,1/2-z
-y,-x,1/2+z
y,x,1/2+z
loop_
_atom_site_type_symbol
_atom_site_label
_atom_site_fract_x
_atom_site_fract_y
_atom_site_fract_z
Si Si1 0.886494 0.398598 0.351920
Si Si2 0.386769 0.282348 0.273140
Si Si3 0.186354 0.891082 0.828956
O O1 0.843628 0.500000 0.250000
O O2 0.834382 0.389629 0.649169
O O3 0.862686 0.293493 0.238149
O O4 0.000000 0.403893 0.250000
O O5 0.500000 0.309992 0.250000
O O6 0.327758 0.333575 0.515164
O O7 0.118051 0.825570 0.647192
O O8 0.165128 0.000000 0.750000
#
# Coordination Sequence:
#
# PCOD9555237 Si02
#       3
#     8   8   8
#     4  10  23  46  73 107 148 196 253 318 392 472
#     4  12  26  47  75 108 150 203 263 329 400 479
#     4  11  24  43  69 101 140 186 237 299 369 448
#
# _framework density 25.394127000000001
#
# number of rings (size 3 to 8) (size 9 to 14) (size 15 to 20)
#    0.000    1.000    0.000    6.000    0.000    6.667 
#    0.000   25.000    0.000    0.000    0.000    0.000 
#    0.000    0.000    0.000    0.000    0.000    0.000 
#
# Total GULP energy -133630.034468 kJ/mol
# GULP energy per Si atom -5567.918103 kJ/mol
# Density = 2.533633 g / cm^3
# Si number density = 25.394127 Si / 1000 Ang^3
#
#
#
# Elastic Constant Matrix: (Units=GPa)
#
#
# Indices 1 2 3 4 5 6 
#
# 1 161.8549 -1.1379 35.2830 0.0000 0.0000 0.0000
# 2 -1.1379 161.8549 35.2830 0.0000 0.0000 0.0000
# 3 35.2830 35.2830 142.8843 0.0000 0.0000 0.0000
# 4 0.0000 0.0000 0.0000 47.1292 0.0000 0.0000
# 5 0.0000 0.0000 0.0000 0.0000 47.1292 0.0000
# 6 0.0000 0.0000 0.0000 0.0000 0.0000 8.1916
#
#
#
# Elastic Compliance Matrix: (Units=1/GPa)
#
#
# Indices 1 2 3 4 5 6 
#
# 1 0.006557 0.000422 -0.001723 0.000000 0.000000 0.000000
# 2 0.000422 0.006557 -0.001723 0.000000 0.000000 0.000000
# 3 -0.001723 -0.001723 0.007850 0.000000 0.000000 0.000000
# 4 0.000000 0.000000 0.000000 0.021218 0.000000 0.000000
# 5 0.000000 0.000000 0.000000 0.000000 0.021218 0.000000
# 6 0.000000 0.000000 0.000000 0.000000 0.000000 0.122076
#
#
# Mechanical properties :
#
#
# Convention : Reuss Voigt Hill
#
# Bulk Modulus (GPa) = 67.05063 67.27224 67.16144
# Shear Modulus (GPa) = 25.44567 46.96775 36.20671
#
# Velocity S-wave (km/s) = 3.16892 4.30531 3.78006
# Velocity P-wave (km/s) = 6.31274 7.15982 6.74958
#
# Compressibility (1/GPa) = 0.01491410
#
# Stress axis : x y z
#
# Youngs Moduli (GPa) = 152.50874 152.50874 127.39256
#
# Poissons Ratio (x) = -0.06432 0.21953
# Poissons Ratio (y) = -0.06432 0.21953
# Poissons Ratio (z) = 0.26282 0.26282
#
# Static dielectric constant tensor:
#      x y z
#    x 2.038830 0.000000 0.000000 
#    y 0.000000 2.038830 0.000000 
#    z 0.000000 0.000000 2.143040 
# 
# From -- ./inp_files/131.got.cif
#   From: 2010.05.17/outbox.cif.g08.bks.cpg/sg112_1_cif.got.tgz:131.got - 2010.05.20 10:59:04.
