data_PCOD9555043
_publ_section_title
;
Structure prediction by ZEFSAII (Michael W. Deem and Ramdas Pophale) SiO2 
 PCOD9555043
Probable space group: P -4 2 C
;
_chemical_formula_sum "Si O2"
_cell_formula_units_Z 56
_cell_length_a 15.530665
_cell_length_b 15.530665
_cell_length_c 11.829463
_cell_angle_alpha 90.000000
_cell_angle_beta 90.000000
_cell_angle_gamma 90.000000
_cell_volume 2853.284874
_symmetry_space_group_name_H-M "P -4 2 C"
_symmetry_group_IT_number 112
_symmetry_cell_setting 'tetragonal'
loop_
_space_group_symop_operation_xyz
x,y,z
y,-x,-z
-x,-y,z
-y,x,-z
x,-y,1/2-z
-x,y,1/2-z
-y,-x,1/2+z
y,x,1/2+z
loop_
_atom_site_type_symbol
_atom_site_label
_atom_site_fract_x
_atom_site_fract_y
_atom_site_fract_z
Si Si1 0.996719 0.206270 0.066158
Si Si2 0.162588 0.762004 0.308791
Si Si3 0.229569 0.572484 0.828827
Si Si4 0.638556 0.528170 0.479010
Si Si5 0.130391 0.075843 0.341073
Si Si6 0.289888 0.827453 0.489386
Si Si7 0.345269 0.292673 0.811005
O O1 0.064423 0.244320 0.154279
O O2 0.958682 0.115488 0.111545
O O3 0.038929 0.185763 0.944861
O O4 0.916341 0.270164 0.050767
O O5 0.172339 0.839316 0.217434
O O6 0.207256 0.800714 0.419057
O O7 0.211814 0.674933 0.272267
O O8 0.189471 0.500000 0.750000
O O9 0.166185 0.634189 0.897594
O O10 0.290916 0.631819 0.749033
O O11 0.287844 0.529090 0.926250
O O12 0.594394 0.435064 0.477376
O O13 0.672098 0.563558 0.357871
O O14 0.119923 0.000000 0.250000
O O15 0.309223 0.748300 0.572651
#
# Coordination Sequence:
#
# PCOD9555043 Si02
#       7
#     8   8   8   8   8   8   8
#     4  12  22  36  52  84 121 162 211 256 305 367
#     4  11  21  36  55  79 117 165 200 247 306 360
#     4  10  20  37  60  85 122 163 194 249 307 361
#     4  10  20  35  57  92 128 154 187 239 304 382
#     4  12  23  35  50  76 117 163 196 248 309 361
#     4  10  21  36  55  84 118 159 213 246 298 373
#     4  10  20  36  55  81 122 156 201 235 295 374
#
# _framework density 19.626501999999999
#
# number of rings (size 3 to 8) (size 9 to 14) (size 15 to 20)
#    0.000    1.286    5.714    0.429    0.000    4.286 
#    0.000    0.000    0.000    0.000    0.000   18.000 
#    0.000    8.571    0.000    0.000    0.000    0.000 
#
# Total GULP energy -312273.444584 kJ/mol
# GULP energy per Si atom -5576.311510 kJ/mol
# Density = 1.958183 g / cm^3
# Si number density = 19.626502 Si / 1000 Ang^3
#
#
#
# Elastic Constant Matrix: (Units=GPa)
#
#
# Indices 1 2 3 4 5 6 
#
# 1 51.4200 13.2197 8.7559 0.0000 0.0000 0.0000
# 2 13.2197 51.4200 8.7559 0.0000 0.0000 0.0000
# 3 8.7559 8.7559 38.2934 0.0000 0.0000 0.0000
# 4 0.0000 0.0000 0.0000 37.3804 0.0000 0.0000
# 5 0.0000 0.0000 0.0000 0.0000 37.3804 0.0000
# 6 0.0000 0.0000 0.0000 0.0000 0.0000 17.4454
#
#
#
# Elastic Compliance Matrix: (Units=1/GPa)
#
#
# Indices 1 2 3 4 5 6 
#
# 1 0.021335 -0.004843 -0.003771 0.000000 0.000000 0.000000
# 2 -0.004843 0.021335 -0.003771 0.000000 0.000000 0.000000
# 3 -0.003771 -0.003771 0.027839 0.000000 0.000000 0.000000
# 4 0.000000 0.000000 0.000000 0.026752 0.000000 0.000000
# 5 0.000000 0.000000 0.000000 0.000000 0.026752 0.000000
# 6 0.000000 0.000000 0.000000 0.000000 0.000000 0.057322
#
#
# Mechanical properties :
#
#
# Convention : Reuss Voigt Hill
#
# Bulk Modulus (GPa) = 21.86326 22.51071 22.18698
# Shear Modulus (GPa) = 22.58865 25.80135 24.19500
#
# Velocity S-wave (km/s) = 3.39621 3.62970 3.51489
# Velocity P-wave (km/s) = 5.15197 5.39080 5.27274
#
# Compressibility (1/GPa) = 0.04573883
#
# Stress axis : x y z
#
# Youngs Moduli (GPa) = 46.87157 46.87157 35.92127
#
# Poissons Ratio (x) = 0.22699 0.13546
# Poissons Ratio (y) = 0.22699 0.13546
# Poissons Ratio (z) = 0.17675 0.17675
#
# Static dielectric constant tensor:
#      x y z
#    x 1.696590 0.000000 0.000000 
#    y 0.000000 1.696590 0.000000 
#    z 0.000000 0.000000 1.742840 
# 
# From -- ./inp_files/2641.got.cif
#   From: 2010.05.17/outbox.cif.g08.bks.cpg/sg112_2_cif.got.tgz:2641.got - 2010.05.20 10:59:04.
