data_PCOD9555143
_publ_section_title
;
Structure prediction by ZEFSAII (Michael W. Deem and Ramdas Pophale) SiO2 
 PCOD9555143
Probable space group: P -4 2 C
;
_chemical_formula_sum "Si O2"
_cell_formula_units_Z 48
_cell_length_a 9.470528
_cell_length_b 9.470528
_cell_length_c 28.710681
_cell_angle_alpha 90.000000
_cell_angle_beta 90.000000
_cell_angle_gamma 90.000000
_cell_volume 2575.086836
_symmetry_space_group_name_H-M "P -4 2 C"
_symmetry_group_IT_number 112
_symmetry_cell_setting 'tetragonal'
loop_
_space_group_symop_operation_xyz
x,y,z
y,-x,-z
-x,-y,z
-y,x,-z
x,-y,1/2-z
-x,y,1/2-z
-y,-x,1/2+z
y,x,1/2+z
loop_
_atom_site_type_symbol
_atom_site_label
_atom_site_fract_x
_atom_site_fract_y
_atom_site_fract_z
Si Si1 0.161517 0.497721 0.385405
Si Si2 0.753617 0.166897 0.543181
Si Si3 0.212392 0.836558 0.939089
Si Si4 0.348500 0.576638 0.204480
Si Si5 0.911975 0.647601 0.791494
Si Si6 0.964433 0.333013 0.604555
O O1 0.169357 0.392419 0.429235
O O2 0.189839 0.647852 0.409043
O O3 0.260606 0.450447 0.342718
O O4 0.000000 0.500000 0.367928
O O5 0.757999 0.203241 0.488840
O O6 0.845751 0.285886 0.568501
O O7 0.806362 0.004355 0.550397
O O8 0.092301 0.766993 0.908577
O O9 0.500000 0.500000 0.197984
O O10 0.283246 0.500000 0.250000
O O11 0.366884 0.743674 0.216148
O O12 0.921547 0.707645 0.843158
O O13 0.000000 0.500000 0.795503
O O14 0.000000 0.722701 0.750000
O O15 0.000000 0.500000 0.601139
#
# Coordination Sequence:
#
# PCOD9555143 Si02
#       6
#     8   8   8   8   8   8
#     4  10  25  43  62  91 132 164 205 261 317 372
#     4  11  22  43  60  92 122 170 211 251 309 374
#     4  11  24  38  67  86 126 171 207 255 309 377
#     4  11  23  40  68  94 123 164 207 256 320 380
#     4  10  21  39  63  93 127 158 205 262 310 370
#     4  11  24  37  65  93 123 162 208 259 306 365
#
# _framework density 18.640149000000001
#
# number of rings (size 3 to 8) (size 9 to 14) (size 15 to 20)
#    0.000    1.333    3.333    2.500    9.333    0.333 
#    0.000    0.000    0.000    2.000    0.000    0.000 
#    0.000    0.000    0.000    0.000    0.000    0.000 
#
# Total GULP energy -267474.743616 kJ/mol
# GULP energy per Si atom -5572.390492 kJ/mol
# Density = 1.859772 g / cm^3
# Si number density = 18.640149 Si / 1000 Ang^3
#
#
#
# Elastic Constant Matrix: (Units=GPa)
#
#
# Indices 1 2 3 4 5 6 
#
# 1 139.1007 36.6103 25.0553 0.0000 0.0000 0.0000
# 2 36.6103 139.1007 25.0553 0.0000 0.0000 0.0000
# 3 25.0553 25.0553 130.9665 0.0000 0.0000 0.0000
# 4 0.0000 0.0000 0.0000 39.0523 0.0000 0.0000
# 5 0.0000 0.0000 0.0000 0.0000 39.0523 0.0000
# 6 0.0000 0.0000 0.0000 0.0000 0.0000 37.0112
#
#
#
# Elastic Compliance Matrix: (Units=1/GPa)
#
#
# Indices 1 2 3 4 5 6 
#
# 1 0.007888 -0.001869 -0.001152 0.000000 0.000000 0.000000
# 2 -0.001869 0.007888 -0.001152 0.000000 0.000000 0.000000
# 3 -0.001152 -0.001152 0.008076 0.000000 0.000000 0.000000
# 4 0.000000 0.000000 0.000000 0.025607 0.000000 0.000000
# 5 0.000000 0.000000 0.000000 0.000000 0.025607 0.000000
# 6 0.000000 0.000000 0.000000 0.000000 0.000000 0.027019
#
#
# Mechanical properties :
#
#
# Convention : Reuss Voigt Hill
#
# Bulk Modulus (GPa) = 64.47907 64.73438 64.60673
# Shear Modulus (GPa) = 43.25315 44.51962 43.88638
#
# Velocity S-wave (km/s) = 4.82231 4.89240 4.85748
# Velocity P-wave (km/s) = 8.10388 8.16811 8.13605
#
# Compressibility (1/GPa) = 0.01550891
#
# Stress axis : x y z
#
# Youngs Moduli (GPa) = 126.77001 126.77001 123.82102
#
# Poissons Ratio (x) = 0.23690 0.14259
# Poissons Ratio (y) = 0.23690 0.14259
# Poissons Ratio (z) = 0.14599 0.14599
#
# Static dielectric constant tensor:
#      x y z
#    x 1.790250 0.000000 0.000000 
#    y 0.000000 1.790250 0.000000 
#    z 0.000000 0.000000 1.659070 
# 
# From -- ./inp_files/6281.got.cif
#   From: 2010.05.17/outbox.cif.g08.bks.cpg/sg112_4_cif.got.tgz:6281.got - 2010.05.20 10:59:04.
