data_PCOD9555724
_publ_section_title
;
Structure prediction by ZEFSAII (Michael W. Deem and Ramdas Pophale) SiO2 
 PCOD9555724
Probable space group: P -4 21 M 
;
_chemical_formula_sum "Si O2"
_cell_formula_units_Z 40
_cell_length_a 12.221576
_cell_length_b 12.221576
_cell_length_c 11.946597
_cell_angle_alpha 90.000000
_cell_angle_beta 90.000000
_cell_angle_gamma 90.000000
_cell_volume 1784.426397
_symmetry_space_group_name_H-M "P -4 21 M "
_symmetry_group_IT_number 113
_symmetry_cell_setting 'tetragonal'
loop_
_space_group_symop_operation_xyz
x,y,z
y,-x,-z
-x,-y,z
-y,x,-z
1/2+x,1/2-y,-z
1/2-x,1/2+y,-z
1/2-y,1/2-x,z
1/2+y,1/2+x,z
loop_
_atom_site_type_symbol
_atom_site_label
_atom_site_fract_x
_atom_site_fract_y
_atom_site_fract_z
Si Si1 0.397130 0.713444 0.544168
Si Si2 0.315509 0.997462 0.068294
Si Si3 0.117562 0.797767 0.335625
Si Si4 0.486012 0.631026 0.878667
Si Si5 0.897857 0.217566 0.735900
O O1 0.314308 0.814308 0.559640
O O2 0.515357 0.743501 0.589866
O O3 0.385407 0.675938 0.416410
O O4 0.355136 0.614262 0.624291
O O5 0.396890 0.103111 0.054650
O O6 0.268742 0.000911 0.195527
O O7 0.390970 0.890970 0.050116
O O8 0.213626 0.002041 0.982162
O O9 0.201247 0.701247 0.315043
O O10 0.070220 0.840166 0.219844
O O11 0.500000 0.500000 0.892489
O O12 0.365308 0.651597 0.828752
O O13 0.819961 0.319961 0.713036
#
# Coordination Sequence:
#
# PCOD9555724 Si02
#       5
#     8   8   8   8   8
#     4   9  20  38  63  93 128 170 217 272 329 391
#     4  10  22  42  68  96 131 176 224 274 328 392
#     4  10  22  40  64  94 129 173 222 271 325 390
#     4  11  24  38  62  96 132 170 219 271 331 387
#     4   9  20  39  60  89 126 166 213 265 328 392
#
# _framework density 22.416169
#
# number of rings (size 3 to 8) (size 9 to 14) (size 15 to 20)
#    0.000    2.200    0.000    1.200    8.400    1.200 
#    0.000    2.000    0.000    3.600    0.000    0.000 
#    0.000    0.000    0.000    0.000    0.000    0.000 
#
# Total GULP energy -223241.262504 kJ/mol
# GULP energy per Si atom -5581.031563 kJ/mol
# Density = 2.236515 g / cm^3
# Si number density = 22.416169 Si / 1000 Ang^3
#
#
#
# Elastic Constant Matrix: (Units=GPa)
#
#
# Indices 1 2 3 4 5 6 
#
# 1 93.3697 23.7923 19.9847 0.0000 0.0000 0.0000
# 2 23.7923 93.3694 19.9844 0.0000 0.0000 0.0000
# 3 19.9847 19.9844 115.8563 0.0000 0.0000 0.0000
# 4 0.0000 0.0000 0.0000 27.7646 0.0000 0.0000
# 5 0.0000 0.0000 0.0000 0.0000 27.7647 0.0000
# 6 0.0000 0.0000 0.0000 0.0000 0.0000 19.5926
#
#
#
# Elastic Compliance Matrix: (Units=1/GPa)
#
#
# Indices 1 2 3 4 5 6 
#
# 1 0.011721 -0.002652 -0.001564 0.000000 0.000000 0.000000
# 2 -0.002652 0.011721 -0.001564 0.000000 0.000000 0.000000
# 3 -0.001564 -0.001564 0.009171 0.000000 0.000000 0.000000
# 4 0.000000 0.000000 0.000000 0.036017 0.000000 0.000000
# 5 0.000000 0.000000 0.000000 0.000000 0.036017 0.000000
# 6 0.000000 0.000000 0.000000 0.000000 0.000000 0.051040
#
#
# Mechanical properties :
#
#
# Convention : Reuss Voigt Hill
#
# Bulk Modulus (GPa) = 47.50261 47.79091 47.64676
# Shear Modulus (GPa) = 28.69205 30.94664 29.81934
#
# Velocity S-wave (km/s) = 3.58155 3.71961 3.65123
# Velocity P-wave (km/s) = 6.19198 6.30979 6.25116
#
# Compressibility (1/GPa) = 0.02105148
#
# Stress axis : x y z
#
# Youngs Moduli (GPa) = 85.31930 85.31910 109.03861
#
# Poissons Ratio (x) = 0.22625 0.17057
# Poissons Ratio (y) = 0.22625 0.17057
# Poissons Ratio (z) = 0.13347 0.13347
#
# Static dielectric constant tensor:
#      x y z
#    x 1.838280 0.000000 0.000000 
#    y 0.000000 1.838290 0.000000 
#    z 0.000000 0.000000 1.863840 
# 
# From -- ./inp_files/2182.got.cif
#   From: 2010.05.17/outbox.cif.g08.bks.cpg/sg113_cif.got.tgz:2182.got - 2010.05.20 11:03:00.
