data_PCOD9555826
_publ_section_title
;
Structure prediction by ZEFSAII (Michael W. Deem and Ramdas Pophale) SiO2 
 PCOD9555826
Probable space group: P -4 21 C
;
_chemical_formula_sum "Si O2"
_cell_formula_units_Z 48
_cell_length_a 16.916082
_cell_length_b 16.916082
_cell_length_c 8.594438
_cell_angle_alpha 90.000000
_cell_angle_beta 90.000000
_cell_angle_gamma 90.000000
_cell_volume 2459.331352
_symmetry_space_group_name_H-M "P -4 21 C"
_symmetry_group_IT_number 114
_symmetry_cell_setting 'tetragonal'
loop_
_space_group_symop_operation_xyz
x,y,z
y,-x,-z
-x,-y,z
-y,x,-z
1/2+x,1/2-y,1/2-z
1/2-x,1/2+y,1/2-z
1/2-y,1/2-x,1/2+z
1/2+y,1/2+x,1/2+z
loop_
_atom_site_type_symbol
_atom_site_label
_atom_site_fract_x
_atom_site_fract_y
_atom_site_fract_z
Si Si1 0.493665 0.121111 0.564616
Si Si2 0.236885 0.387919 0.563901
Si Si3 0.079770 0.089233 0.067123
Si Si4 0.263115 0.887919 0.563903
Si Si5 0.920231 0.910767 0.432876
Si Si6 0.121111 0.506335 0.064614
O O1 0.529979 0.203355 0.506648
O O2 0.492901 0.118172 0.750001
O O3 0.558025 0.058025 0.500001
O O4 0.410077 0.089923 0.500001
O O5 0.328955 0.377807 0.526474
O O6 0.182694 0.317306 0.499999
O O7 0.228100 0.391897 0.749999
O O8 0.091536 0.071960 0.250000
O O9 0.986498 0.102387 0.034187
O O10 0.171045 0.877807 0.526475
O O11 0.296645 0.970021 0.493354
O O12 0.013502 0.897613 0.465813
#
# Coordination Sequence:
#
# PCOD9555826 Si02
#       6
#     8   8   8   8   8   8
#     4  10  17  27  45  69 100 138 175 213 255 308
#     4  10  20  34  53  80 109 140 176 218 267 318
#     4  10  21  37  59  82 106 138 179 220 263 313
#     4  10  20  34  53  80 109 140 176 218 267 318
#     4  10  21  37  59  82 106 138 179 220 263 313
#     4  10  17  27  45  69 100 138 175 213 255 308
#
# _framework density 19.517499999999998
#
# number of rings (size 3 to 8) (size 9 to 14) (size 15 to 20)
#    0.000    2.000    0.000    9.000    0.000    5.333 
#    0.000    1.667    0.000    4.000    0.000    0.000 
#    0.000    0.000    0.000    0.000    0.000    0.000 
#
# Total GULP energy -267810.727678 kJ/mol
# GULP energy per Si atom -5579.390160 kJ/mol
# Density = 1.947308 g / cm^3
# Si number density = 19.517500 Si / 1000 Ang^3
#
#
#
# Elastic Constant Matrix: (Units=GPa)
#
#
# Indices 1 2 3 4 5 6 
#
# 1 46.6074 5.5765 3.9305 0.0000 0.0000 0.0000
# 2 5.5765 46.6074 3.9305 0.0000 0.0000 0.0000
# 3 3.9305 3.9305 79.2405 0.0000 0.0000 0.0000
# 4 0.0000 0.0000 0.0000 18.5289 0.0000 0.0000
# 5 0.0000 0.0000 0.0000 0.0000 18.5289 0.0000
# 6 0.0000 0.0000 0.0000 0.0000 0.0000 9.9384
#
#
#
# Elastic Compliance Matrix: (Units=1/GPa)
#
#
# Indices 1 2 3 4 5 6 
#
# 1 0.021840 -0.002532 -0.000958 0.000000 0.000000 0.000000
# 2 -0.002532 0.021840 -0.000958 0.000000 0.000000 0.000000
# 3 -0.000958 -0.000958 0.012715 0.000000 0.000000 0.000000
# 4 0.000000 0.000000 0.000000 0.053970 0.000000 0.000000
# 5 0.000000 0.000000 0.000000 0.000000 0.053970 0.000000
# 6 0.000000 0.000000 0.000000 0.000000 0.000000 0.100620
#
#
# Mechanical properties :
#
#
# Convention : Reuss Voigt Hill
#
# Bulk Modulus (GPa) = 21.05322 22.14779 21.60051
# Shear Modulus (GPa) = 17.26036 20.00044 18.63040
#
# Velocity S-wave (km/s) = 2.97703 3.20464 3.09293
# Velocity P-wave (km/s) = 4.75681 5.00652 4.88326
#
# Compressibility (1/GPa) = 0.04749866
#
# Stress axis : x y z
#
# Youngs Moduli (GPa) = 45.78844 45.78844 78.64841
#
# Poissons Ratio (x) = 0.11595 0.07532
# Poissons Ratio (y) = 0.11595 0.07532
# Poissons Ratio (z) = 0.04385 0.04385
#
# Static dielectric constant tensor:
#      x y z
#    x 1.724670 0.000000 0.000000 
#    y 0.000000 1.724670 0.000000 
#    z 0.000000 0.000000 1.648020 
# 
# From -- ./inp_files/931.got.cif
#   From: 2010.05.17/outbox.cif.g08.bks.cpg/sg114_1_cif.got.tgz:931.got - 2010.05.20 11:04:54.
