data_PCOD9555491
_publ_section_title
;
Structure prediction by ZEFSAII (Michael W. Deem and Ramdas Pophale) SiO2 
 PCOD9555491
Probable space group: P -4 21 M 
;
_chemical_formula_sum "Si O2"
_cell_formula_units_Z 64
_cell_length_a 12.818553
_cell_length_b 12.818553
_cell_length_c 23.345841
_cell_angle_alpha 90.000000
_cell_angle_beta 90.000000
_cell_angle_gamma 90.000000
_cell_volume 3836.078891
_symmetry_space_group_name_H-M "P -4 21 M "
_symmetry_group_IT_number 113
_symmetry_cell_setting 'tetragonal'
loop_
_space_group_symop_operation_xyz
x,y,z
y,-x,-z
-x,-y,z
-y,x,-z
1/2+x,1/2-y,-z
1/2-x,1/2+y,-z
1/2-y,1/2-x,z
1/2+y,1/2+x,z
loop_
_atom_site_type_symbol
_atom_site_label
_atom_site_fract_x
_atom_site_fract_y
_atom_site_fract_z
Si Si1 0.120554 0.034142 0.085017
Si Si2 0.006373 0.671631 0.105283
Si Si3 0.491966 0.828286 0.360578
Si Si4 0.107171 0.220282 0.426754
Si Si5 0.326741 0.647011 0.690380
Si Si6 0.059471 0.730519 0.518090
Si Si7 0.189396 0.867978 0.818061
Si Si8 0.726632 0.598673 0.000905
O O1 0.156121 0.089187 0.143064
O O2 0.125847 0.122352 0.035781
O O3 0.000000 0.000000 0.089776
O O4 0.192356 0.942584 0.060786
O O5 0.920867 0.579134 0.110300
O O6 0.968593 0.756225 0.152106
O O7 0.987956 0.718854 0.042049
O O8 0.118530 0.618530 0.112798
O O9 0.582739 0.917262 0.359708
O O10 0.538847 0.733559 0.323256
O O11 0.486232 0.792052 0.426807
O O12 0.385919 0.885919 0.342547
O O13 0.171584 0.328417 0.424002
O O14 0.098497 0.174985 0.362691
O O15 0.181065 0.139166 0.460527
O O16 0.003534 0.236097 0.462648
O O17 0.236005 0.736005 0.688495
O O18 0.378629 0.656558 0.752252
O O19 0.127107 0.627107 0.507211
O O20 0.273758 0.773758 0.822322
O O21 0.804610 0.695391 0.998337
#
# Coordination Sequence:
#
# PCOD9555491 Si02
#       8
#     8   8   8   8   8   8   8   8
#     4  11  19  35  51  73  99 130 163 195 238 298
#     4   8  15  27  44  69  96 122 157 197 235 279
#     4   8  13  23  43  68  90 117 156 199 243 292
#     4   9  17  29  47  69  96 127 159 199 245 293
#     4   8  15  29  46  66  93 127 163 198 240 290
#     4   9  17  28  44  69  98 125 157 201 252 302
#     4   9  18  32  51  69  94 133 168 202 243 285
#     4  10  19  32  51  75 102 128 156 198 250 296
#
# _framework density 16.683702
#
# number of rings (size 3 to 8) (size 9 to 14) (size 15 to 20)
#    0.000    3.000    1.250    3.000    0.000    2.000 
#    0.000    1.250    5.500    3.000    0.000    0.000 
#    0.000    0.000    0.000    0.000    0.000    0.000 
#
# Total GULP energy -356336.916813 kJ/mol
# GULP energy per Si atom -5567.764325 kJ/mol
# Density = 1.664573 g / cm^3
# Si number density = 16.683702 Si / 1000 Ang^3
#
#
#
# Elastic Constant Matrix: (Units=GPa)
#
#
# Indices 1 2 3 4 5 6 
#
# 1 38.1054 14.6896 25.7653 0.0000 0.0000 0.0000
# 2 14.6896 38.1045 25.7641 0.0000 0.0000 0.0000
# 3 25.7653 25.7641 94.6748 0.0000 0.0000 0.0000
# 4 0.0000 0.0000 0.0000 16.2973 0.0000 0.0000
# 5 0.0000 0.0000 0.0000 0.0000 16.2970 0.0000
# 6 0.0000 0.0000 0.0000 0.0000 0.0000 23.1771
#
#
#
# Elastic Compliance Matrix: (Units=1/GPa)
#
#
# Indices 1 2 3 4 5 6 
#
# 1 0.034250 -0.008457 -0.007019 0.000000 0.000000 0.000000
# 2 -0.008457 0.034250 -0.007019 0.000000 0.000000 0.000000
# 3 -0.007019 -0.007019 0.014383 0.000000 0.000000 0.000000
# 4 0.000000 0.000000 0.000000 0.061360 0.000000 0.000000
# 5 0.000000 0.000000 0.000000 0.000000 0.061361 0.000000
# 6 0.000000 0.000000 0.000000 0.000000 0.000000 0.043146
#
#
# Mechanical properties :
#
#
# Convention : Reuss Voigt Hill
#
# Bulk Modulus (GPa) = 26.39151 33.70252 30.04701
# Shear Modulus (GPa) = 16.32012 18.13200 17.22606
#
# Velocity S-wave (km/s) = 3.13102 3.30026 3.21675
# Velocity P-wave (km/s) = 5.37812 5.89635 5.64319
#
# Compressibility (1/GPa) = 0.03789098
#
# Stress axis : x y z
#
# Youngs Moduli (GPa) = 29.19746 29.19729 69.52754
#
# Poissons Ratio (x) = 0.24693 0.48804
# Poissons Ratio (y) = 0.24694 0.48800
# Poissons Ratio (z) = 0.20495 0.20493
#
# Static dielectric constant tensor:
#      x y z
#    x 1.577200 0.000000 0.000000 
#    y 0.000000 1.577200 0.000000 
#    z 0.000000 0.000000 1.558880 
# 
# From -- ./inp_files/2876.got.cif
#   From: 2010.05.17/outbox.cif.g08.bks.cpg/sg113_cif.got.tgz:2876.got - 2010.05.20 11:03:00.
