data_PCOD9555088
_publ_section_title
;
Structure prediction by ZEFSAII (Michael W. Deem and Ramdas Pophale) SiO2 
 PCOD9555088
Probable space group: P -4 2 C
;
_chemical_formula_sum "Si O2"
_cell_formula_units_Z 20
_cell_length_a 9.092787
_cell_length_b 9.092787
_cell_length_c 8.867354
_cell_angle_alpha 90.000000
_cell_angle_beta 90.000000
_cell_angle_gamma 90.000000
_cell_volume 733.141970
_symmetry_space_group_name_H-M "P -4 2 C"
_symmetry_group_IT_number 112
_symmetry_cell_setting 'tetragonal'
loop_
_space_group_symop_operation_xyz
x,y,z
y,-x,-z
-x,-y,z
-y,x,-z
x,-y,1/2-z
-x,y,1/2-z
-y,-x,1/2+z
y,x,1/2+z
loop_
_atom_site_type_symbol
_atom_site_label
_atom_site_fract_x
_atom_site_fract_y
_atom_site_fract_z
Si Si1 0.221948 0.579716 0.446625
Si Si2 0.262746 0.171119 0.847916
Si Si3 0.500000 0.500000 0.750000
Si Si4 0.000000 0.000000 0.500000
O O1 0.226262 0.658837 0.606329
O O2 0.152159 0.417755 0.438405
O O3 0.382683 0.571919 0.365894
O O4 0.147343 0.689443 0.324425
O O5 0.120593 0.085798 0.901863
#
# Coordination Sequence:
#
# PCOD9555088 Si02
#       4
#     8   8   2   2
#     4  10  20  40  68 102 131 174 225 292 346 404
#     4  10  23  40  67  97 136 175 228 279 343 408
#     4   8  16  34  68  98 124 154 220 286 348 390
#     4  12  28  46  64  98 144 198 232 270 336 434
#
# _framework density 27.279844000000001
#
# number of rings (size 3 to 8) (size 9 to 14) (size 15 to 20)
#    0.000    2.400    0.000    4.800    0.000    8.000 
#    0.000    8.000    0.000   14.400    0.000    0.000 
#    0.000    0.000    0.000    0.000    0.000    0.000 
#
# Total GULP energy -111902.664697 kJ/mol
# GULP energy per Si atom -5595.133235 kJ/mol
# Density = 2.721775 g / cm^3
# Si number density = 27.279844 Si / 1000 Ang^3
#
#
#
# Elastic Constant Matrix: (Units=GPa)
#
#
# Indices 1 2 3 4 5 6 
#
# 1 135.8659 77.8229 27.0677 0.0000 0.0000 0.0000
# 2 77.8229 135.8659 27.0677 0.0000 0.0000 0.0000
# 3 27.0677 27.0677 90.1372 0.0000 0.0000 0.0000
# 4 0.0000 0.0000 0.0000 48.4592 0.0000 0.0000
# 5 0.0000 0.0000 0.0000 0.0000 48.4592 0.0000
# 6 0.0000 0.0000 0.0000 0.0000 0.0000 64.1225
#
#
#
# Elastic Compliance Matrix: (Units=1/GPa)
#
#
# Indices 1 2 3 4 5 6 
#
# 1 0.011147 -0.006082 -0.001521 0.000000 0.000000 0.000000
# 2 -0.006082 0.011147 -0.001521 0.000000 0.000000 0.000000
# 3 -0.001521 -0.001521 0.012008 0.000000 0.000000 0.000000
# 4 0.000000 0.000000 0.000000 0.020636 0.000000 0.000000
# 5 0.000000 0.000000 0.000000 0.000000 0.020636 0.000000
# 6 0.000000 0.000000 0.000000 0.000000 0.000000 0.015595
#
#
# Mechanical properties :
#
#
# Convention : Reuss Voigt Hill
#
# Bulk Modulus (GPa) = 62.29073 69.53172 65.91122
# Shear Modulus (GPa) = 43.56650 47.53559 45.55104
#
# Velocity S-wave (km/s) = 4.00061 4.17887 4.09071
# Velocity P-wave (km/s) = 6.65007 6.98768 6.82096
#
# Compressibility (1/GPa) = 0.01605375
#
# Stress axis : x y z
#
# Youngs Moduli (GPa) = 89.71177 89.71177 83.27995
#
# Poissons Ratio (x) = 0.54561 0.12667
# Poissons Ratio (y) = 0.54561 0.12667
# Poissons Ratio (z) = 0.13645 0.13645
#
# Static dielectric constant tensor:
#      x y z
#    x 2.266530 0.000000 0.000000 
#    y 0.000000 2.266530 0.000000 
#    z 0.000000 0.000000 2.141580 
# 
# From -- ./inp_files/1915.got.cif
#   From: 2010.05.17/outbox.cif.g08.bks.cpg/sg112_1_cif.got.tgz:1915.got - 2010.05.20 10:59:04.
