data_PCOD9555234
_publ_section_title
;
Structure prediction by ZEFSAII (Michael W. Deem and Ramdas Pophale) SiO2 
 PCOD9555234
Probable space group: P -4 2 C
;
_chemical_formula_sum "Si O2"
_cell_formula_units_Z 16
_cell_length_a 5.198246
_cell_length_b 5.198246
_cell_length_c 25.113460
_cell_angle_alpha 90.000000
_cell_angle_beta 90.000000
_cell_angle_gamma 90.000000
_cell_volume 678.609926
_symmetry_space_group_name_H-M "P -4 2 C"
_symmetry_group_IT_number 112
_symmetry_cell_setting 'tetragonal'
loop_
_space_group_symop_operation_xyz
x,y,z
y,-x,-z
-x,-y,z
-y,x,-z
x,-y,1/2-z
-x,y,1/2-z
-y,-x,1/2+z
y,x,1/2+z
loop_
_atom_site_type_symbol
_atom_site_label
_atom_site_fract_x
_atom_site_fract_y
_atom_site_fract_z
Si Si1 0.000000 0.500000 0.928393
Si Si2 0.500000 0.500000 0.750000
Si Si3 0.746763 0.334594 0.350925
Si Si4 0.500000 0.500000 0.500000
O O1 0.916809 0.275628 0.886893
O O2 0.758015 0.554763 0.966233
O O3 0.322863 0.321599 0.711975
O O4 0.500000 0.500000 0.369214
O O5 0.000000 0.500000 0.358484
#
# Coordination Sequence:
#
# PCOD9555234 Si02
#       4
#     4   2   8   2
#     4  12  28  53  74 118 150 211 272 334 400 474
#     4   8  20  46  70 116 158 198 248 314 398 472
#     4  10  23  44  77 110 153 200 252 318 384 483
#     4  12  30  48  80 102 160 204 270 344 408 454
#
# _framework density 23.577605999999999
#
# number of rings (size 3 to 8) (size 9 to 14) (size 15 to 20)
#    1.500    0.000    2.500    0.750    3.500    8.000 
#    0.000    0.000   11.000    0.000    0.000    0.000 
#    0.000    0.000    0.000    0.000    0.000    0.000 
#
# Total GULP energy -89155.871879 kJ/mol
# GULP energy per Si atom -5572.241992 kJ/mol
# Density = 2.352394 g / cm^3
# Si number density = 23.577606 Si / 1000 Ang^3
#
#
#
# Elastic Constant Matrix: (Units=GPa)
#
#
# Indices 1 2 3 4 5 6 
#
# 1 170.8510 67.4460 77.9544 0.0000 0.0000 0.0000
# 2 67.4460 170.8510 77.9544 0.0000 0.0000 0.0000
# 3 77.9544 77.9544 176.4866 0.0000 0.0000 0.0000
# 4 0.0000 0.0000 0.0000 -107.9953 0.0000 0.0000
# 5 0.0000 0.0000 0.0000 0.0000 -107.9953 0.0000
# 6 0.0000 0.0000 0.0000 0.0000 0.0000 29.1659
#
#
#
# Elastic Compliance Matrix: (Units=1/GPa)
#
#
# Indices 1 2 3 4 5 6 
#
# 1 0.007786 -0.001884 -0.002607 0.000000 0.000000 0.000000
# 2 -0.001884 0.007786 -0.002607 0.000000 0.000000 0.000000
# 3 -0.002607 -0.002607 0.007969 0.000000 0.000000 0.000000
# 4 0.000000 0.000000 0.000000 -0.009260 0.000000 0.000000
# 5 0.000000 0.000000 0.000000 0.000000 -0.009260 0.000000
# 6 0.000000 0.000000 0.000000 0.000000 0.000000 0.034287
#
#
# Mechanical properties :
#
#
# Convention : Reuss Voigt Hill
#
# Bulk Modulus (GPa) = 107.00368 107.21093 107.10731
# Shear Modulus (GPa) = 88.30659 -17.70938 35.29861
#
# Velocity S-wave (km/s) = 6.12657 -2.74361 3.87347
# Velocity P-wave (km/s) = 9.77388 5.96101 8.09513
#
# Compressibility (1/GPa) = 0.00934547
#
# Stress axis : x y z
#
# Youngs Moduli (GPa) = 128.42910 128.42910 125.48394
#
# Poissons Ratio (x) = 0.24200 0.32713
# Poissons Ratio (y) = 0.24200 0.32713
# Poissons Ratio (z) = 0.33481 0.33481
#
# Static dielectric constant tensor:
#      x y z
#    x 2.083690 0.000000 0.000000 
#    y 0.000000 2.083690 0.000000 
#    z 0.000000 0.000000 2.014460 
# 
# From -- ./inp_files/5593.got.cif
#   From: 2010.05.17/outbox.cif.g08.bks.cpg/sg112_3_cif.got.tgz:5593.got - 2010.05.20 10:59:04.
