data_PCOD9555016
_publ_section_title
;
Structure prediction by ZEFSAII (Michael W. Deem and Ramdas Pophale) SiO2 
 PCOD9555016
Probable space group: P -4 2 C
;
_chemical_formula_sum "Si O2"
_cell_formula_units_Z 48
_cell_length_a 18.361188
_cell_length_b 18.361188
_cell_length_c 8.577452
_cell_angle_alpha 90.000000
_cell_angle_beta 90.000000
_cell_angle_gamma 90.000000
_cell_volume 2891.744053
_symmetry_space_group_name_H-M "P -4 2 C"
_symmetry_group_IT_number 112
_symmetry_cell_setting 'tetragonal'
loop_
_space_group_symop_operation_xyz
x,y,z
y,-x,-z
-x,-y,z
-y,x,-z
x,-y,1/2-z
-x,y,1/2-z
-y,-x,1/2+z
y,x,1/2+z
loop_
_atom_site_type_symbol
_atom_site_label
_atom_site_fract_x
_atom_site_fract_y
_atom_site_fract_z
Si Si1 0.670394 0.778426 0.915555
Si Si2 0.330966 0.555227 0.626242
Si Si3 0.582136 0.917482 0.556363
Si Si4 0.778372 0.332174 0.461192
Si Si5 0.583604 0.916097 0.935939
Si Si6 0.666155 0.552654 0.376708
O O1 0.669797 0.774744 0.726850
O O2 0.645113 0.857123 0.975853
O O3 0.604423 0.724208 0.960216
O O4 0.745007 0.743697 0.977477
O O5 0.297356 0.500000 0.750000
O O6 0.273580 0.606540 0.538289
O O7 0.367455 0.502508 0.499582
O O8 0.392840 0.607449 0.696362
O O9 0.641629 0.859847 0.499137
O O10 0.582781 0.916599 0.746103
O O11 0.498918 0.896232 0.512842
O O12 0.596409 0.001090 0.510191
O O13 0.702872 0.500000 0.250000
#
# Coordination Sequence:
#
# PCOD9555016 Si02
#       6
#     8   8   8   8   8   8
#     4  10  20  31  49  68  91 121 152 187 233 284
#     4  11  23  32  45  61  82 116 156 201 242 275
#     4   8  14  27  47  74  92 113 153 199 234 266
#     4  10  20  33  47  69  92 121 151 188 233 288
#     4   8  14  26  49  72  92 115 153 197 233 271
#     4  11  21  34  44  59  82 113 155 196 236 276
#
# _framework density 16.598980000000001
#
# number of rings (size 3 to 8) (size 9 to 14) (size 15 to 20)
#    0.000    2.333    1.667    3.000    9.333    2.000 
#    0.000    0.000    0.000    1.000    0.000    0.000 
#    0.000    0.667    0.000    8.333    0.000    0.000 
#
# Total GULP energy -267322.577660 kJ/mol
# GULP energy per Si atom -5569.220368 kJ/mol
# Density = 1.656120 g / cm^3
# Si number density = 16.598980 Si / 1000 Ang^3
#
#
#
# Elastic Constant Matrix: (Units=GPa)
#
#
# Indices 1 2 3 4 5 6 
#
# 1 100.4646 55.3349 12.8835 0.0000 0.0000 0.0000
# 2 55.3349 100.4646 12.8835 0.0000 0.0000 0.0000
# 3 12.8835 12.8835 19.4371 0.0000 0.0000 0.0000
# 4 0.0000 0.0000 0.0000 12.7635 0.0000 0.0000
# 5 0.0000 0.0000 0.0000 0.0000 12.7635 0.0000
# 6 0.0000 0.0000 0.0000 0.0000 0.0000 25.9021
#
#
#
# Elastic Compliance Matrix: (Units=1/GPa)
#
#
# Indices 1 2 3 4 5 6 
#
# 1 0.014684 -0.007475 -0.004778 0.000000 0.000000 0.000000
# 2 -0.007475 0.014684 -0.004778 0.000000 0.000000 0.000000
# 3 -0.004778 -0.004778 0.057782 0.000000 0.000000 0.000000
# 4 0.000000 0.000000 0.000000 0.078349 0.000000 0.000000
# 5 0.000000 0.000000 0.000000 0.000000 0.078349 0.000000
# 6 0.000000 0.000000 0.000000 0.000000 0.000000 0.038607
#
#
# Mechanical properties :
#
#
# Convention : Reuss Voigt Hill
#
# Bulk Modulus (GPa) = 18.83700 42.50777 30.67239
# Shear Modulus (GPa) = 14.96060 19.57012 17.26536
#
# Velocity S-wave (km/s) = 3.00542 3.43738 3.22863
# Velocity P-wave (km/s) = 4.83904 6.43571 5.69362
#
# Compressibility (1/GPa) = 0.05308701
#
# Stress axis : x y z
#
# Youngs Moduli (GPa) = 68.10342 68.10342 17.30639
#
# Poissons Ratio (x) = 0.50906 0.08269
# Poissons Ratio (y) = 0.50906 0.08269
# Poissons Ratio (z) = 0.32541 0.32541
#
# Static dielectric constant tensor:
#      x y z
#    x 1.574910 0.000000 0.000000 
#    y 0.000000 1.574910 0.000000 
#    z 0.000000 0.000000 1.639110 
# 
# From -- ./inp_files/1430.got.cif
#   From: 2010.05.17/outbox.cif.g08.bks.cpg/sg112_1_cif.got.tgz:1430.got - 2010.05.20 10:59:04.
