data_PCOD9555917
_publ_section_title
;
Structure prediction by ZEFSAII (Michael W. Deem and Ramdas Pophale) SiO2 
 PCOD9555917
Probable space group: P -4 21 C
;
_chemical_formula_sum "Si O2"
_cell_formula_units_Z 52
_cell_length_a 17.805392
_cell_length_b 17.805392
_cell_length_c 8.847462
_cell_angle_alpha 90.000000
_cell_angle_beta 90.000000
_cell_angle_gamma 90.000000
_cell_volume 2804.928434
_symmetry_space_group_name_H-M "P -4 21 C"
_symmetry_group_IT_number 114
_symmetry_cell_setting 'tetragonal'
loop_
_space_group_symop_operation_xyz
x,y,z
y,-x,-z
-x,-y,z
-y,x,-z
1/2+x,1/2-y,1/2-z
1/2-x,1/2+y,1/2-z
1/2-y,1/2-x,1/2+z
1/2+y,1/2+x,1/2+z
loop_
_atom_site_type_symbol
_atom_site_label
_atom_site_fract_x
_atom_site_fract_y
_atom_site_fract_z
Si Si1 0.794620 0.525526 0.438270
Si Si2 0.303453 0.135256 0.204738
Si Si3 0.647237 0.243395 0.754292
Si Si4 0.930750 0.632457 0.515851
Si Si5 0.000000 0.500000 0.169691
Si Si6 0.523718 0.829687 0.236382
Si Si7 0.216456 0.757873 0.523932
O O1 0.807708 0.450714 0.342767
O O2 0.733972 0.578497 0.355490
O O3 0.869617 0.576582 0.443497
O O4 0.786383 0.500634 0.612349
O O5 0.387029 0.170974 0.215552
O O6 0.261874 0.148646 0.363431
O O7 0.264305 0.182404 0.070462
O O8 0.715217 0.223798 0.639239
O O9 0.613492 0.174628 0.851710
O O10 0.681461 0.293922 0.889932
O O11 0.995180 0.577010 0.576589
O O12 0.971247 0.690757 0.404576
O O13 0.004527 0.580986 0.246923
#
# Coordination Sequence:
#
# PCOD9555917 Si02
#       7
#     8   8   8   8   4   8   8
#     4  11  21  33  54  81 110 149 201 234 277 335
#     4  11  21  39  53  82 114 161 191 241 284 333
#     4  11  22  38  56  76 108 166 197 230 277 344
#     4  11  21  32  52  82 117 157 195 227 272 339
#     4  10  20  30  46  84 122 150 184 220 270 324
#     4  11  20  31  50  81 118 150 189 230 274 324
#     4  10  24  39  56  71 117 163 199 232 288 337
#
# _framework density 18.538796999999999
#
# number of rings (size 3 to 8) (size 9 to 14) (size 15 to 20)
#    0.000    1.231    3.077    6.000    2.154    0.000 
#    0.000    0.000    0.000    0.000    0.000    0.000 
#    0.000    3.692    0.000    0.000    0.000    0.000 
#
# Total GULP energy -289768.183991 kJ/mol
# GULP energy per Si atom -5572.465077 kJ/mol
# Density = 1.849660 g / cm^3
# Si number density = 18.538797 Si / 1000 Ang^3
#
#
#
# Elastic Constant Matrix: (Units=GPa)
#
#
# Indices 1 2 3 4 5 6 
#
# 1 37.6522 22.3646 31.0609 0.0000 0.0000 0.0000
# 2 22.3646 37.6522 31.0609 0.0000 0.0000 0.0000
# 3 31.0609 31.0609 118.5935 0.0000 0.0000 0.0000
# 4 0.0000 0.0000 0.0000 27.4061 0.0000 0.0000
# 5 0.0000 0.0000 0.0000 0.0000 27.4061 0.0000
# 6 0.0000 0.0000 0.0000 0.0000 0.0000 21.6886
#
#
#
# Elastic Compliance Matrix: (Units=1/GPa)
#
#
# Indices 1 2 3 4 5 6 
#
# 1 0.044136 -0.021277 -0.005987 0.000000 0.000000 0.000000
# 2 -0.021277 0.044136 -0.005987 0.000000 0.000000 0.000000
# 3 -0.005987 -0.005987 0.011568 0.000000 0.000000 0.000000
# 4 0.000000 0.000000 0.000000 0.036488 0.000000 0.000000
# 5 0.000000 0.000000 0.000000 0.000000 0.036488 0.000000
# 6 0.000000 0.000000 0.000000 0.000000 0.000000 0.046107
#
#
# Mechanical properties :
#
#
# Convention : Reuss Voigt Hill
#
# Bulk Modulus (GPa) = 29.99556 40.31897 35.15727
# Shear Modulus (GPa) = 16.86125 22.59425 19.72775
#
# Velocity S-wave (km/s) = 3.01908 3.49485 3.26564
# Velocity P-wave (km/s) = 5.32618 6.17098 5.76408
#
# Compressibility (1/GPa) = 0.03333826
#
# Stress axis : x y z
#
# Youngs Moduli (GPa) = 22.65735 22.65735 86.44307
#
# Poissons Ratio (x) = 0.48207 0.51754
# Poissons Ratio (y) = 0.48207 0.51754
# Poissons Ratio (z) = 0.13565 0.13565
#
# Static dielectric constant tensor:
#      x y z
#    x 1.669300 0.000000 0.000000 
#    y 0.000000 1.669300 0.000000 
#    z 0.000000 0.000000 1.789480 
# 
# From -- ./inp_files/972.got.cif
#   From: 2010.05.17/outbox.cif.g08.bks.cpg/sg114_1_cif.got.tgz:972.got - 2010.05.20 11:04:54.
