data_PCOD9555862
_publ_section_title
;
Structure prediction by ZEFSAII (Michael W. Deem and Ramdas Pophale) SiO2 
 PCOD9555862
Probable space group: P -4 21 C
;
_chemical_formula_sum "Si O2"
_cell_formula_units_Z 58
_cell_length_a 17.838614
_cell_length_b 17.838614
_cell_length_c 7.720759
_cell_angle_alpha 90.000000
_cell_angle_beta 90.000000
_cell_angle_gamma 90.000000
_cell_volume 2456.870200
_symmetry_space_group_name_H-M "P -4 21 C"
_symmetry_group_IT_number 114
_symmetry_cell_setting 'tetragonal'
loop_
_space_group_symop_operation_xyz
x,y,z
y,-x,-z
-x,-y,z
-y,x,-z
1/2+x,1/2-y,1/2-z
1/2-x,1/2+y,1/2-z
1/2-y,1/2-x,1/2+z
1/2+y,1/2+x,1/2+z
loop_
_atom_site_type_symbol
_atom_site_label
_atom_site_fract_x
_atom_site_fract_y
_atom_site_fract_z
Si Si1 0.798528 0.899028 0.726610
Si Si2 0.015761 0.664328 0.117044
Si Si3 0.500000 0.500000 0.500000
Si Si4 0.535805 0.918898 0.041304
Si Si5 0.744436 0.252735 0.643854
Si Si6 0.234491 0.875480 0.850416
Si Si7 0.138212 0.069187 0.097091
Si Si8 0.075812 0.738386 0.626990
O O1 0.717603 0.922955 0.798400
O O2 0.796588 0.809069 0.720600
O O3 0.796465 0.934556 0.536202
O O4 0.847553 0.923973 0.890340
O O5 0.002483 0.606033 0.275034
O O6 0.941410 0.712526 0.085662
O O7 0.054960 0.622551 0.958456
O O8 0.573990 0.491557 0.384967
O O9 0.500000 0.000000 0.994084
O O10 0.537800 0.841918 0.924382
O O11 0.734543 0.164444 0.679739
O O12 0.696509 0.271177 0.474972
O O13 0.833267 0.269830 0.637903
O O14 0.147660 0.896056 0.832853
O O15 0.214703 0.052844 0.202062
#
# Coordination Sequence:
#
# PCOD9555862 Si02
#       8
#     8   8   2   8   8   8   8   8
#     4  10  20  40  69 100 131 180 241 294 350 444
#     4  11  24  40  62  92 141 185 231 294 361 447
#     4  12  24  52  70 108 156 190 244 324 386 456
#     4  11  25  42  62  96 142 194 238 291 365 450
#     4  10  18  37  67  96 127 173 235 297 349 416
#     4  10  22  38  63 100 129 172 228 303 350 417
#     4  10  24  43  74 102 141 187 239 308 383 433
#     4  10  21  42  72 104 133 190 252 292 360 454
#
# _framework density 23.607271999999998
#
# number of rings (size 3 to 8) (size 9 to 14) (size 15 to 20)
#    0.000    1.655    2.759    1.241    3.862    0.000 
#    0.000    8.966    0.000    0.000    0.000    0.000 
#    0.000    0.000    0.000    0.000    0.000    0.000 
#
# Total GULP energy -323009.849764 kJ/mol
# GULP energy per Si atom -5569.135341 kJ/mol
# Density = 2.355354 g / cm^3
# Si number density = 23.607272 Si / 1000 Ang^3
#
#
#
# Elastic Constant Matrix: (Units=GPa)
#
#
# Indices 1 2 3 4 5 6 
#
# 1 100.0376 29.9664 32.2601 0.0000 0.0000 0.0000
# 2 29.9664 100.0376 32.2601 0.0000 0.0000 0.0000
# 3 32.2601 32.2601 80.7611 0.0000 0.0000 0.0000
# 4 0.0000 0.0000 0.0000 12.3844 0.0000 0.0000
# 5 0.0000 0.0000 0.0000 0.0000 12.3844 0.0000
# 6 0.0000 0.0000 0.0000 0.0000 0.0000 42.7479
#
#
#
# Elastic Compliance Matrix: (Units=1/GPa)
#
#
# Indices 1 2 3 4 5 6 
#
# 1 0.011933 -0.002339 -0.003832 0.000000 0.000000 0.000000
# 2 -0.002339 0.011933 -0.003832 0.000000 0.000000 0.000000
# 3 -0.003832 -0.003832 0.015444 0.000000 0.000000 0.000000
# 4 0.000000 0.000000 0.000000 0.080747 0.000000 0.000000
# 5 0.000000 0.000000 0.000000 0.000000 0.080747 0.000000
# 6 0.000000 0.000000 0.000000 0.000000 0.000000 0.023393
#
#
# Mechanical properties :
#
#
# Convention : Reuss Voigt Hill
#
# Bulk Modulus (GPa) = 51.80659 52.20105 52.00382
# Shear Modulus (GPa) = 19.94924 25.92667 22.93795
#
# Velocity S-wave (km/s) = 2.91012 3.31758 3.12051
# Velocity P-wave (km/s) = 5.76928 6.06922 5.92115
#
# Compressibility (1/GPa) = 0.01930256
#
# Stress axis : x y z
#
# Youngs Moduli (GPa) = 83.80393 83.80393 64.75061
#
# Poissons Ratio (x) = 0.19598 0.24815
# Poissons Ratio (y) = 0.19598 0.24815
# Poissons Ratio (z) = 0.32117 0.32117
#
# Static dielectric constant tensor:
#      x y z
#    x 1.945130 0.000000 0.000000 
#    y 0.000000 1.945130 0.000000 
#    z 0.000000 0.000000 2.077520 
# 
# From -- ./inp_files/1021.got.cif
#   From: 2010.05.17/outbox.cif.g08.bks.cpg/sg114_1_cif.got.tgz:1021.got - 2010.05.20 11:04:54.
