data_PCOD9555191
_publ_section_title
;
Structure prediction by ZEFSAII (Michael W. Deem and Ramdas Pophale) SiO2 
 PCOD9555191
Probable space group: P -4 2 C
;
_chemical_formula_sum "Si O2"
_cell_formula_units_Z 56
_cell_length_a 15.043012
_cell_length_b 15.043012
_cell_length_c 11.109975
_cell_angle_alpha 90.000000
_cell_angle_beta 90.000000
_cell_angle_gamma 90.000000
_cell_volume 2514.100796
_symmetry_space_group_name_H-M "P -4 2 C"
_symmetry_group_IT_number 112
_symmetry_cell_setting 'tetragonal'
loop_
_space_group_symop_operation_xyz
x,y,z
y,-x,-z
-x,-y,z
-y,x,-z
x,-y,1/2-z
-x,y,1/2-z
-y,-x,1/2+z
y,x,1/2+z
loop_
_atom_site_type_symbol
_atom_site_label
_atom_site_fract_x
_atom_site_fract_y
_atom_site_fract_z
Si Si1 0.788745 0.637569 0.532890
Si Si2 0.526051 0.897198 0.505768
Si Si3 0.213193 0.812353 0.637946
Si Si4 0.411109 0.394570 0.463828
Si Si5 0.298444 0.920078 0.842696
Si Si6 0.950490 0.868575 0.983843
Si Si7 0.390772 0.777341 0.186248
O O1 0.836677 0.558373 0.458406
O O2 0.833047 0.726596 0.479730
O O3 0.682532 0.637574 0.516066
O O4 0.796763 0.619460 0.673605
O O5 0.611023 0.892483 0.592459
O O6 0.554317 0.852937 0.380625
O O7 0.500000 0.000000 0.495524
O O8 0.260831 0.842260 0.759094
O O9 0.115593 0.851923 0.626854
O O10 0.210411 0.707473 0.636405
O O11 0.393954 0.501486 0.449514
O O12 0.425149 0.321852 0.355837
O O13 0.220568 0.948913 0.935541
O O14 0.316079 0.000000 0.750000
O O15 0.047990 0.902689 0.950237
#
# Coordination Sequence:
#
# PCOD9555191 Si02
#       7
#     8   8   8   8   8   8   8
#     4  11  25  44  69 102 145 188 242 297 360 430
#     4  12  27  46  71 104 144 191 247 296 364 433
#     4  11  24  44  73 107 145 191 235 304 362 440
#     4  10  22  41  67 102 143 186 237 291 361 431
#     4  12  25  48  76 104 145 185 242 302 363 432
#     4  11  24  45  71 105 145 180 235 289 365 446
#     4  11  24  44  70 103 146 191 240 300 361 434
#
# _framework density 22.274366000000001
#
# number of rings (size 3 to 8) (size 9 to 14) (size 15 to 20)
#    0.000    0.857    4.286    2.143    2.000    4.286 
#    0.000    5.714    0.000    0.000    0.000    0.000 
#    0.000    0.000    0.000    0.000    0.000    0.000 
#
# Total GULP energy -312497.656117 kJ/mol
# GULP energy per Si atom -5580.315288 kJ/mol
# Density = 2.222367 g / cm^3
# Si number density = 22.274366 Si / 1000 Ang^3
#
#
#
# Elastic Constant Matrix: (Units=GPa)
#
#
# Indices 1 2 3 4 5 6 
#
# 1 76.0335 36.8794 24.1894 0.0000 0.0000 0.0000
# 2 36.8794 76.0335 24.1894 0.0000 0.0000 0.0000
# 3 24.1894 24.1894 62.1956 0.0000 0.0000 0.0000
# 4 0.0000 0.0000 0.0000 23.5199 0.0000 0.0000
# 5 0.0000 0.0000 0.0000 0.0000 23.5199 0.0000
# 6 0.0000 0.0000 0.0000 0.0000 0.0000 36.4994
#
#
#
# Elastic Compliance Matrix: (Units=1/GPa)
#
#
# Indices 1 2 3 4 5 6 
#
# 1 0.018084 -0.007456 -0.004133 0.000000 0.000000 0.000000
# 2 -0.007456 0.018084 -0.004133 0.000000 0.000000 0.000000
# 3 -0.004133 -0.004133 0.019293 0.000000 0.000000 0.000000
# 4 0.000000 0.000000 0.000000 0.042517 0.000000 0.000000
# 5 0.000000 0.000000 0.000000 0.000000 0.042517 0.000000
# 6 0.000000 0.000000 0.000000 0.000000 0.000000 0.027398
#
#
# Mechanical properties :
#
#
# Convention : Reuss Voigt Hill
#
# Bulk Modulus (GPa) = 41.64053 42.75322 42.19687
# Shear Modulus (GPa) = 24.11457 25.30814 24.71136
#
# Velocity S-wave (km/s) = 3.29388 3.37441 3.33439
# Velocity P-wave (km/s) = 5.76205 5.86667 5.81459
#
# Compressibility (1/GPa) = 0.02401507
#
# Stress axis : x y z
#
# Youngs Moduli (GPa) = 55.29840 55.29840 51.83142
#
# Poissons Ratio (x) = 0.41233 0.21423
# Poissons Ratio (y) = 0.41233 0.21423
# Poissons Ratio (z) = 0.22856 0.22856
#
# Static dielectric constant tensor:
#      x y z
#    x 1.868520 0.000000 0.000000 
#    y 0.000000 1.868520 0.000000 
#    z 0.000000 0.000000 1.819010 
# 
# From -- ./inp_files/2683.got.cif
#   From: 2010.05.17/outbox.cif.g08.bks.cpg/sg112_2_cif.got.tgz:2683.got - 2010.05.20 10:59:04.
