data_PCOD9555682
_publ_section_title
;
Structure prediction by ZEFSAII (Michael W. Deem and Ramdas Pophale) SiO2 
 PCOD9555682
Probable space group: P -4 21 M 
;
_chemical_formula_sum "Si O2"
_cell_formula_units_Z 48
_cell_length_a 11.654752
_cell_length_b 11.654752
_cell_length_c 18.230641
_cell_angle_alpha 90.000000
_cell_angle_beta 90.000000
_cell_angle_gamma 90.000000
_cell_volume 2476.327111
_symmetry_space_group_name_H-M "P -4 21 M "
_symmetry_group_IT_number 113
_symmetry_cell_setting 'tetragonal'
loop_
_space_group_symop_operation_xyz
x,y,z
y,-x,-z
-x,-y,z
-y,x,-z
1/2+x,1/2-y,-z
1/2-x,1/2+y,-z
1/2-y,1/2-x,z
1/2+y,1/2+x,z
loop_
_atom_site_type_symbol
_atom_site_label
_atom_site_fract_x
_atom_site_fract_y
_atom_site_fract_z
Si Si1 0.508331 0.818411 0.892885
Si Si2 0.842037 0.846739 0.339601
Si Si3 0.747874 0.936692 0.583089
Si Si4 0.982423 0.180370 0.972686
Si Si5 0.094211 0.902805 0.821406
Si Si6 0.060486 0.257034 0.569253
O O1 0.411820 0.911820 0.877234
O O2 0.469635 0.703591 0.853479
O O3 0.629480 0.870521 0.869029
O O4 0.511962 0.794489 0.980127
O O5 0.757189 0.742812 0.357718
O O6 0.841441 0.873003 0.253265
O O7 0.969676 0.805614 0.363166
O O8 0.794240 0.958953 0.380982
O O9 0.638329 0.861672 0.610127
O O10 0.845643 0.844194 0.562000
O O11 0.715602 0.005416 0.509539
O O12 0.950465 0.178378 0.887505
O O13 0.101087 0.112804 0.986475
O O14 0.000000 0.000000 0.806405
O O15 0.131290 0.368711 0.596639
#
# Coordination Sequence:
#
# PCOD9555682 Si02
#       6
#     8   8   8   8   8   8
#     4  10  21  36  59  92 124 155 197 256 315 362
#     4  12  26  41  62  94 130 170 210 258 325 380
#     4  11  23  41  67  96 125 165 217 265 315 376
#     4   9  16  35  60  86 112 151 203 242 293 355
#     4  11  21  41  62  86 120 164 210 249 304 373
#     4  11  23  42  67  94 125 166 216 265 315 375
#
# _framework density 19.383547
#
# number of rings (size 3 to 8) (size 9 to 14) (size 15 to 20)
#    0.000    1.333    5.000    3.000    0.000    6.333 
#    0.000    1.667    0.000    0.000    0.000    0.000 
#    0.000    0.000    0.000    0.000    0.000    0.000 
#
# Total GULP energy -267873.112636 kJ/mol
# GULP energy per Si atom -5580.689847 kJ/mol
# Density = 1.933943 g / cm^3
# Si number density = 19.383547 Si / 1000 Ang^3
#
#
#
# Elastic Constant Matrix: (Units=GPa)
#
#
# Indices 1 2 3 4 5 6 
#
# 1 76.7449 33.0413 14.8282 0.0000 0.0000 0.0000
# 2 33.0413 76.7524 14.8292 0.0000 0.0000 0.0000
# 3 14.8282 14.8292 84.9379 0.0000 0.0000 0.0000
# 4 0.0000 0.0000 0.0000 2.5788 0.0000 0.0000
# 5 0.0000 0.0000 0.0000 0.0000 2.5803 0.0000
# 6 0.0000 0.0000 0.0000 0.0000 0.0000 15.5887
#
#
#
# Elastic Compliance Matrix: (Units=1/GPa)
#
#
# Indices 1 2 3 4 5 6 
#
# 1 0.016220 -0.006660 -0.001669 0.000000 0.000000 0.000000
# 2 -0.006660 0.016218 -0.001669 0.000000 0.000000 0.000000
# 3 -0.001669 -0.001669 0.012356 0.000000 0.000000 0.000000
# 4 0.000000 0.000000 0.000000 0.387780 0.000000 0.000000
# 5 0.000000 0.000000 0.000000 0.000000 0.387546 0.000000
# 6 0.000000 0.000000 0.000000 0.000000 0.000000 0.064149
#
#
# Mechanical properties :
#
#
# Convention : Reuss Voigt Hill
#
# Bulk Modulus (GPa) = 40.32454 40.42586 40.37520
# Shear Modulus (GPa) = 5.47926 15.86534 10.67230
#
# Velocity S-wave (km/s) = 1.68312 2.86404 2.34900
# Velocity P-wave (km/s) = 4.96244 5.64252 5.31337
#
# Compressibility (1/GPa) = 0.02479879
#
# Stress axis : x y z
#
# Youngs Moduli (GPa) = 61.65205 61.65799 80.93227
#
# Poissons Ratio (x) = 0.41065 0.13506
# Poissons Ratio (y) = 0.41061 0.13506
# Poissons Ratio (z) = 0.10289 0.10290
#
# Static dielectric constant tensor:
#      x y z
#    x 1.698900 0.000000 0.000000 
#    y 0.000000 1.698900 0.000000 
#    z 0.000000 0.000000 1.677430 
# 
# From -- ./inp_files/2488.got.cif
#   From: 2010.05.17/outbox.cif.g08.bks.cpg/sg113_cif.got.tgz:2488.got - 2010.05.20 11:03:00.
