data_PCOD9555519
_publ_section_title
;
Structure prediction by ZEFSAII (Michael W. Deem and Ramdas Pophale) SiO2 
 PCOD9555519
Probable space group: P -4 21 M 
;
_chemical_formula_sum "Si O2"
_cell_formula_units_Z 64
_cell_length_a 13.969717
_cell_length_b 13.969717
_cell_length_c 19.182124
_cell_angle_alpha 90.000000
_cell_angle_beta 90.000000
_cell_angle_gamma 90.000000
_cell_volume 3743.448912
_symmetry_space_group_name_H-M "P -4 21 M "
_symmetry_group_IT_number 113
_symmetry_cell_setting 'tetragonal'
loop_
_space_group_symop_operation_xyz
x,y,z
y,-x,-z
-x,-y,z
-y,x,-z
1/2+x,1/2-y,-z
1/2-x,1/2+y,-z
1/2-y,1/2-x,z
1/2+y,1/2+x,z
loop_
_atom_site_type_symbol
_atom_site_label
_atom_site_fract_x
_atom_site_fract_y
_atom_site_fract_z
Si Si1 0.155031 0.004977 0.023281
Si Si2 0.840278 0.499713 0.071056
Si Si3 0.788874 0.863943 0.576611
Si Si4 0.524606 0.386365 0.329665
Si Si5 0.527326 0.609736 0.177515
Si Si6 0.748782 0.089429 0.792506
Si Si7 0.697060 0.043730 0.637610
Si Si8 0.304181 0.648369 0.584109
O O1 0.165940 0.006567 0.106745
O O2 0.088444 0.095152 0.001170
O O3 0.255804 0.008546 0.984582
O O4 0.912600 0.587401 0.054894
O O5 0.791307 0.525035 0.144888
O O6 0.905055 0.405055 0.075200
O O7 0.739256 0.760745 0.579248
O O8 0.814956 0.882690 0.496128
O O9 0.879214 0.870599 0.627207
O O10 0.712967 0.943066 0.601571
O O11 0.500000 0.500000 0.333371
O O12 0.529124 0.362223 0.247568
O O13 0.439961 0.325763 0.365402
O O14 0.500000 0.500000 0.160717
O O15 0.639703 0.610366 0.196469
O O16 0.687358 0.187358 0.791906
O O17 0.728481 0.040144 0.718452
O O18 0.593382 0.093382 0.633407
O O19 0.771868 0.116457 0.601650
O O20 0.202041 0.702041 0.593157
#
# Coordination Sequence:
#
# PCOD9555519 Si02
#       8
#     8   8   8   8   8   8   8   8
#     4  11  20  35  56  79 111 147 182 225 264 327
#     4  10  22  38  55  81 115 145 181 229 279 328
#     4  11  23  36  52  81 115 150 185 229 280 333
#     4  11  21  34  58  84 111 143 183 234 280 329
#     4  11  19  33  54  83 110 140 179 222 274 317
#     4  10  19  34  56  80 107 140 180 226 275 329
#     4  10  19  35  56  81 110 144 182 226 279 338
#     4  10  20  35  56  81 110 142 187 233 275 324
#
# _framework density 17.096533999999998
#
# number of rings (size 3 to 8) (size 9 to 14) (size 15 to 20)
#    0.000    1.500    5.000    1.500    0.000    1.750 
#    0.000    1.875    0.000    1.125    0.000    0.000 
#    0.000    0.000    0.000    0.000    0.000    0.000 
#
# Total GULP energy -357255.126492 kJ/mol
# GULP energy per Si atom -5582.111351 kJ/mol
# Density = 1.705762 g / cm^3
# Si number density = 17.096534 Si / 1000 Ang^3
#
#
#
# Elastic Constant Matrix: (Units=GPa)
#
#
# Indices 1 2 3 4 5 6 
#
# 1 53.4970 9.2833 35.7773 0.0000 0.0000 0.0000
# 2 9.2833 53.4985 35.7778 0.0000 0.0000 0.0000
# 3 35.7773 35.7778 148.6542 0.0000 0.0000 0.0000
# 4 0.0000 0.0000 0.0000 76.6646 0.0000 0.0000
# 5 0.0000 0.0000 0.0000 0.0000 76.7732 0.0000
# 6 0.0000 0.0000 0.0000 0.0000 0.0000 17.6413
#
#
#
# Elastic Compliance Matrix: (Units=1/GPa)
#
#
# Indices 1 2 3 4 5 6 
#
# 1 0.022284 -0.000334 -0.005283 0.000000 0.000000 0.000000
# 2 -0.000334 0.022283 -0.005283 0.000000 0.000000 0.000000
# 3 -0.005283 -0.005283 0.009270 0.000000 0.000000 0.000000
# 4 0.000000 0.000000 0.000000 0.013044 0.000000 0.000000
# 5 0.000000 0.000000 0.000000 0.000000 0.013025 0.000000
# 6 0.000000 0.000000 0.000000 0.000000 0.000000 0.056685
#
#
# Mechanical properties :
#
#
# Convention : Reuss Voigt Hill
#
# Bulk Modulus (GPa) = 31.21309 46.36962 38.79135
# Shear Modulus (GPa) = 29.57382 45.86990 37.72186
#
# Velocity S-wave (km/s) = 4.16362 5.18538 4.70233
# Velocity P-wave (km/s) = 6.43513 7.93927 7.22644
#
# Compressibility (1/GPa) = 0.03203784
#
# Stress axis : x y z
#
# Youngs Moduli (GPa) = 44.87621 44.87745 107.87643
#
# Poissons Ratio (x) = 0.01498 0.56988
# Poissons Ratio (y) = 0.01498 0.56988
# Poissons Ratio (z) = 0.23707 0.23707
#
# Static dielectric constant tensor:
#      x y z
#    x 1.535970 0.000000 0.000000 
#    y 0.000000 1.535900 0.000000 
#    z 0.000000 0.000000 1.582980 
# 
# From -- ./inp_files/2572.got.cif
#   From: 2010.05.17/outbox.cif.g08.bks.cpg/sg113_cif.got.tgz:2572.got - 2010.05.20 11:03:00.
