data_PCOD9555343
_publ_section_title
;
Structure prediction by ZEFSAII (Michael W. Deem and Ramdas Pophale) SiO2 
 PCOD9555343
Probable space group: P -4 2 C
;
_chemical_formula_sum "Si O2"
_cell_formula_units_Z 40
_cell_length_a 8.695258
_cell_length_b 8.695258
_cell_length_c 22.670357
_cell_angle_alpha 90.000000
_cell_angle_beta 90.000000
_cell_angle_gamma 90.000000
_cell_volume 1714.049282
_symmetry_space_group_name_H-M "P -4 2 C"
_symmetry_group_IT_number 112
_symmetry_cell_setting 'tetragonal'
loop_
_space_group_symop_operation_xyz
x,y,z
y,-x,-z
-x,-y,z
-y,x,-z
x,-y,1/2-z
-x,y,1/2-z
-y,-x,1/2+z
y,x,1/2+z
loop_
_atom_site_type_symbol
_atom_site_label
_atom_site_fract_x
_atom_site_fract_y
_atom_site_fract_z
Si Si1 0.244492 0.924293 0.988592
Si Si2 0.327762 0.024843 0.861412
Si Si3 0.816352 0.896325 0.191113
Si Si4 0.553249 0.332060 0.317094
Si Si5 0.154374 0.320999 0.890116
O O1 0.310677 0.930647 0.922977
O O2 0.353772 0.869575 0.041126
O O3 0.094248 0.817040 0.994796
O O4 0.180031 0.982204 0.820826
O O5 0.500000 0.000000 0.837626
O O6 0.293454 0.200514 0.879274
O O7 0.724272 0.733591 0.188502
O O8 0.793847 0.000000 0.250000
O O9 0.758559 0.003169 0.137495
O O10 0.500000 0.500000 0.340033
O O11 0.500000 0.329454 0.250000
O O12 0.468461 0.201197 0.353942
#
# Coordination Sequence:
#
# PCOD9555343 Si02
#       5
#     8   8   8   8   8
#     4   9  18  38  65  95 129 170 226 278 329 397
#     4  11  24  42  66  99 140 174 220 290 351 398
#     4  12  24  43  67  98 131 174 229 277 337 420
#     4  11  24  43  65  95 135 175 221 280 343 408
#     4  11  22  41  69  97 128 180 228 278 329 415
#
# _framework density 23.336552000000001
#
# number of rings (size 3 to 8) (size 9 to 14) (size 15 to 20)
#    0.000    1.200    4.000    2.400    0.000    3.200 
#    0.000    1.000    0.000    0.000    0.000    0.000 
#    0.000    0.000    0.000    0.000    0.000    0.000 
#
# Total GULP energy -223339.161242 kJ/mol
# GULP energy per Si atom -5583.479031 kJ/mol
# Density = 2.328344 g / cm^3
# Si number density = 23.336552 Si / 1000 Ang^3
#
#
#
# Elastic Constant Matrix: (Units=GPa)
#
#
# Indices 1 2 3 4 5 6 
#
# 1 88.4384 14.3570 7.2216 0.0000 0.0000 0.0000
# 2 14.3570 88.4384 7.2216 0.0000 0.0000 0.0000
# 3 7.2216 7.2216 97.7380 0.0000 0.0000 0.0000
# 4 0.0000 0.0000 0.0000 31.1032 0.0000 0.0000
# 5 0.0000 0.0000 0.0000 0.0000 31.1032 0.0000
# 6 0.0000 0.0000 0.0000 0.0000 0.0000-1654.9594
#
#
#
# Elastic Compliance Matrix: (Units=1/GPa)
#
#
# Indices 1 2 3 4 5 6 
#
# 1 0.011664 -0.001834 -0.000726 0.000000 0.000000 0.000000
# 2 -0.001834 0.011664 -0.000726 0.000000 0.000000 0.000000
# 3 -0.000726 -0.000726 0.010339 0.000000 0.000000 0.000000
# 4 0.000000 0.000000 0.000000 0.032151 0.000000 0.000000
# 5 0.000000 0.000000 0.000000 0.000000 0.032151 0.000000
# 6 0.000000 0.000000 0.000000 0.000000 0.000000 -0.000604
#
#
# Mechanical properties :
#
#
# Convention : Reuss Voigt Hill
#
# Bulk Modulus (GPa) = 36.90894 36.91280 36.91087
# Shear Modulus (GPa) = 44.25938 -302.16295 -128.95178
#
# Velocity S-wave (km/s) = 4.35969 -11.39130 -7.44160
# Velocity P-wave (km/s) = 6.41816 12.53649 7.61482
#
# Compressibility (1/GPa) = 0.02709371
#
# Stress axis : x y z
#
# Youngs Moduli (GPa) = 85.73107 85.73107 96.72331
#
# Poissons Ratio (x) = 0.15725 0.07025
# Poissons Ratio (y) = 0.15725 0.07025
# Poissons Ratio (z) = 0.06227 0.06227
#
# Static dielectric constant tensor:
#      x y z
#    x 1.884790 0.000000 0.000000 
#    y 0.000000 1.884790 0.000000 
#    z 0.000000 0.000000 3.271080 
# 
# From -- ./inp_files/5308.got.cif
#   From: 2010.05.17/outbox.cif.g08.bks.cpg/sg112_3_cif.got.tgz:5308.got - 2010.05.20 10:59:04.
