data_PCOD9555866
_publ_section_title
;
Structure prediction by ZEFSAII (Michael W. Deem and Ramdas Pophale) SiO2 
 PCOD9555866
Probable space group: P -4 21 C
;
_chemical_formula_sum "Si O2"
_cell_formula_units_Z 28
_cell_length_a 9.333233
_cell_length_b 9.333233
_cell_length_c 12.794744
_cell_angle_alpha 90.000000
_cell_angle_beta 90.000000
_cell_angle_gamma 90.000000
_cell_volume 1114.540403
_symmetry_space_group_name_H-M "P -4 21 C"
_symmetry_group_IT_number 114
_symmetry_cell_setting 'tetragonal'
loop_
_space_group_symop_operation_xyz
x,y,z
y,-x,-z
-x,-y,z
-y,x,-z
1/2+x,1/2-y,1/2-z
1/2-x,1/2+y,1/2-z
1/2-y,1/2-x,1/2+z
1/2+y,1/2+x,1/2+z
loop_
_atom_site_type_symbol
_atom_site_label
_atom_site_fract_x
_atom_site_fract_y
_atom_site_fract_z
Si Si1 0.500000 0.000000 0.382999
Si Si2 0.772672 0.017959 0.737034
Si Si3 0.158870 0.653080 0.444486
Si Si4 0.147481 0.227806 0.875411
O O1 0.468147 0.867786 0.309239
O O2 0.624179 0.953008 0.462260
O O3 0.756460 0.912949 0.637970
O O4 0.869757 0.921715 0.814127
O O5 0.769118 0.175774 0.683981
O O6 0.299764 0.701398 0.506147
O O7 0.191694 0.503702 0.385168
#
# Coordination Sequence:
#
# PCOD9555866 Si02
#       4
#     4   8   8   8
#     4  10  18  40  70  88 130 194 238 266 358 460
#     4  11  23  43  72  98 141 190 245 289 369 439
#     4  11  23  42  71  97 143 186 241 296 372 435
#     4  11  25  42  69 104 135 193 244 305 357 434
#
# _framework density 25.122464999999998
#
# number of rings (size 3 to 8) (size 9 to 14) (size 15 to 20)
#    0.000    1.143    5.714    0.000    8.000    0.571 
#    0.000    0.000    0.000    0.000    0.000    0.000 
#    0.000    0.000    0.000    0.000    0.000    0.000 
#
# Total GULP energy -156414.252490 kJ/mol
# GULP energy per Si atom -5586.223303 kJ/mol
# Density = 2.506529 g / cm^3
# Si number density = 25.122465 Si / 1000 Ang^3
#
#
#
# Elastic Constant Matrix: (Units=GPa)
#
#
# Indices 1 2 3 4 5 6 
#
# 1 42.8216 50.8835 32.5421 0.0000 0.0000 0.0000
# 2 50.8835 42.8216 32.5421 0.0000 0.0000 0.0000
# 3 32.5421 32.5421 130.8238 0.0000 0.0000 0.0000
# 4 0.0000 0.0000 0.0000 25.9198 0.0000 0.0000
# 5 0.0000 0.0000 0.0000 0.0000 25.9198 0.0000
# 6 0.0000 0.0000 0.0000 0.0000 0.0000 26.7539
#
#
#
# Elastic Compliance Matrix: (Units=1/GPa)
#
#
# Indices 1 2 3 4 5 6 
#
# 1 -0.055569 0.068470 -0.003209 0.000000 0.000000 0.000000
# 2 0.068470 -0.055569 -0.003209 0.000000 0.000000 0.000000
# 3 -0.003209 -0.003209 0.009240 0.000000 0.000000 0.000000
# 4 0.000000 0.000000 0.000000 0.038581 0.000000 0.000000
# 5 0.000000 0.000000 0.000000 0.000000 0.038581 0.000000
# 6 0.000000 0.000000 0.000000 0.000000 0.000000 0.037378
#
#
# Mechanical properties :
#
#
# Convention : Reuss Voigt Hill
#
# Bulk Modulus (GPa) = 45.03371 49.82251 47.42811
# Shear Modulus (GPa) = -48.04828 22.41866 -12.81481
#
# Velocity S-wave (km/s) = -4.37803 2.99051 -2.26098
# Velocity P-wave (km/s) = 2.75529 5.63907 3.47904
#
# Compressibility (1/GPa) = 0.02220559
#
# Stress axis : x y z
#
# Youngs Moduli (GPa) = -17.99551 -17.99551 108.22122
#
# Poissons Ratio (x) = 1.23215 0.34728
# Poissons Ratio (y) = 1.23215 0.34728
# Poissons Ratio (z) = -0.05775 -0.05775
#
# Static dielectric constant tensor:
#      x y z
#    x 2.065730 0.000000 0.000000 
#    y 0.000000 2.065730 0.000000 
#    z 0.000000 0.000000 1.957010 
# 
# From -- ./inp_files/1297.got.cif
#   From: 2010.05.17/outbox.cif.g08.bks.cpg/sg114_1_cif.got.tgz:1297.got - 2010.05.20 11:04:54.
