data_PCOD9555118
_publ_section_title
;
Structure prediction by ZEFSAII (Michael W. Deem and Ramdas Pophale) SiO2 
 PCOD9555118
Probable space group: P -4 2 C
;
_chemical_formula_sum "Si O2"
_cell_formula_units_Z 48
_cell_length_a 11.949363
_cell_length_b 11.949363
_cell_length_c 18.928262
_cell_angle_alpha 90.000000
_cell_angle_beta 90.000000
_cell_angle_gamma 90.000000
_cell_volume 2702.714972
_symmetry_space_group_name_H-M "P -4 2 C"
_symmetry_group_IT_number 112
_symmetry_cell_setting 'tetragonal'
loop_
_space_group_symop_operation_xyz
x,y,z
y,-x,-z
-x,-y,z
-y,x,-z
x,-y,1/2-z
-x,y,1/2-z
-y,-x,1/2+z
y,x,1/2+z
loop_
_atom_site_type_symbol
_atom_site_label
_atom_site_fract_x
_atom_site_fract_y
_atom_site_fract_z
Si Si1 0.869196 0.374280 0.488085
Si Si2 0.128951 1.000000 0.165777
Si Si3 0.374281 0.130804 0.988085
Si Si4 0.774208 0.257352 0.620314
Si Si5 0.364911 0.364400 0.750000
Si Si6 0.257352 0.225792 0.120314
O O1 0.845340 0.500000 0.465559
O O2 0.805894 0.348233 0.560823
O O3 0.832855 0.294546 0.424886
O O4 0.000000 0.360921 0.502340
O O5 0.197512 0.111328 0.144859
O O6 0.121225 0.000000 0.250000
O O7 0.197512 0.888671 0.144859
O O8 0.000000 0.000000 0.137532
O O9 0.294547 0.167145 0.924886
O O10 0.348233 0.194106 0.060823
O O11 0.699355 0.310478 0.682479
O O12 0.351760 0.500000 0.750000
O O13 0.500000 0.341529 0.750000
O O14 0.300645 0.310478 0.682479
#
# Coordination Sequence:
#
# PCOD9555118 Si02
#       6
#     8   8   8   8   8   8
#     4  10  21  37  58  86 119 154 195 240 290 351
#     4  11  22  38  60  88 122 153 194 244 297 359
#     4  10  21  37  58  86 119 154 195 240 290 351
#     4  11  21  39  60  87 117 158 194 244 298 353
#     4  11  24  41  61  86 116 153 200 250 299 357
#     4  11  21  39  60  87 117 158 194 244 298 353
#
# _framework density 17.759920000000001
#
# number of rings (size 3 to 8) (size 9 to 14) (size 15 to 20)
#    0.000    1.333    3.333    3.000    0.000    0.000 
#    0.000    0.833    0.000   12.000    0.000    0.000 
#    0.000    0.000    0.000    0.000    0.000    0.000 
#
# Total GULP energy -267684.844260 kJ/mol
# GULP energy per Si atom -5576.767589 kJ/mol
# Density = 1.771950 g / cm^3
# Si number density = 17.759920 Si / 1000 Ang^3
#
#
#
# Elastic Constant Matrix: (Units=GPa)
#
#
# Indices 1 2 3 4 5 6 
#
# 1 30.4836 143.5080 49.4918 0.0000 0.0000 0.0000
# 2 143.5080 30.4836 49.4918 0.0000 0.0000 0.0000
# 3 49.4918 49.4918 109.6833 0.0000 0.0000 0.0000
# 4 0.0000 0.0000 0.0000 15.4951 0.0000 0.0000
# 5 0.0000 0.0000 0.0000 0.0000 15.4951 0.0000
# 6 0.0000 0.0000 0.0000 0.0000 0.0000 29.9858
#
#
#
# Elastic Compliance Matrix: (Units=1/GPa)
#
#
# Indices 1 2 3 4 5 6 
#
# 1 -0.000558 0.008290 -0.003489 0.000000 0.000000 0.000000
# 2 0.008290 -0.000558 -0.003489 0.000000 0.000000 0.000000
# 3 -0.003489 -0.003489 0.012266 0.000000 0.000000 0.000000
# 4 0.000000 0.000000 0.000000 0.064537 0.000000 0.000000
# 5 0.000000 0.000000 0.000000 0.000000 0.064537 0.000000
# 6 0.000000 0.000000 0.000000 0.000000 0.000000 0.033349
#
#
# Mechanical properties :
#
#
# Convention : Reuss Voigt Hill
#
# Bulk Modulus (GPa) = 72.59854 72.84822 72.72338
# Shear Modulus (GPa) = 28.48347 7.40578 17.94463
#
# Velocity S-wave (km/s) = 4.00910 2.04426 3.18213
# Velocity P-wave (km/s) = 7.89918 6.83223 7.38500
#
# Compressibility (1/GPa) = 0.01377438
#
# Stress axis : x y z
#
# Youngs Moduli (GPa) = -1793.15945 -1793.15945 81.52742
#
# Poissons Ratio (x) = 14.86524 0.28445
# Poissons Ratio (y) = 14.86524 0.28445
# Poissons Ratio (z) = -6.25634 -6.25634
#
# Static dielectric constant tensor:
#      x y z
#    x 1.612100 0.000000 0.000000 
#    y 0.000000 1.612100 0.000000 
#    z 0.000000 0.000000 2.393970 
# 
# From -- ./inp_files/4143.got.cif
#   From: 2010.05.17/outbox.cif.g08.bks.cpg/sg112_3_cif.got.tgz:4143.got - 2010.05.20 10:59:04.
