data_PCOD9555229
_publ_section_title
;
Structure prediction by ZEFSAII (Michael W. Deem and Ramdas Pophale) SiO2 
 PCOD9555229
Probable space group: P -4 2 C
;
_chemical_formula_sum "Si O2"
_cell_formula_units_Z 40
_cell_length_a 9.007910
_cell_length_b 9.007910
_cell_length_c 20.212638
_cell_angle_alpha 90.000000
_cell_angle_beta 90.000000
_cell_angle_gamma 90.000000
_cell_volume 1640.102818
_symmetry_space_group_name_H-M "P -4 2 C"
_symmetry_group_IT_number 112
_symmetry_cell_setting 'tetragonal'
loop_
_space_group_symop_operation_xyz
x,y,z
y,-x,-z
-x,-y,z
-y,x,-z
x,-y,1/2-z
-x,y,1/2-z
-y,-x,1/2+z
y,x,1/2+z
loop_
_atom_site_type_symbol
_atom_site_label
_atom_site_fract_x
_atom_site_fract_y
_atom_site_fract_z
Si Si1 0.161176 0.994183 0.864693
Si Si2 0.198414 0.380707 0.077998
Si Si3 0.641108 0.395519 0.166050
Si Si4 0.175800 0.487467 0.566928
Si Si5 0.243022 0.161924 0.253007
O O1 0.295595 0.957328 0.912645
O O2 0.166863 0.860061 0.811220
O O3 0.167819 0.135711 0.817172
O O4 0.000000 0.000000 0.898261
O O5 0.230245 0.500272 0.135708
O O6 0.327130 0.253502 0.077213
O O7 0.203421 0.463090 0.008252
O O8 0.500000 0.500000 0.166890
O O9 0.598581 0.265061 0.114551
O O10 0.668029 0.311728 0.235164
O O11 0.000000 0.500000 0.581036
O O12 0.319157 0.000000 0.250000
#
# Coordination Sequence:
#
# PCOD9555229 Si02
#       5
#     8   8   8   8   8
#     4   9  21  40  71 101 133 179 228 298 363 431
#     4  11  23  44  69 100 145 184 246 295 355 440
#     4  10  23  43  72  99 141 185 240 291 353 438
#     4  11  25  42  69 102 137 195 235 300 362 421
#     4   9  20  42  72 100 137 177 228 298 370 424
#
# _framework density 24.388715999999999
#
# number of rings (size 3 to 8) (size 9 to 14) (size 15 to 20)
#    0.000    2.000    2.000    1.200    8.400    0.800 
#    0.000    9.000    0.000    0.000    0.000    0.000 
#    0.000    0.000    0.000    0.000    0.000    0.000 
#
# Total GULP energy -223800.979231 kJ/mol
# GULP energy per Si atom -5595.024481 kJ/mol
# Density = 2.433321 g / cm^3
# Si number density = 24.388716 Si / 1000 Ang^3
#
#
#
# Elastic Constant Matrix: (Units=GPa)
#
#
# Indices 1 2 3 4 5 6 
#
# 1 133.9805 46.2597 34.8252 0.0000 0.0000 0.0000
# 2 46.2597 133.9805 34.8252 0.0000 0.0000 0.0000
# 3 34.8252 34.8252 70.8759 0.0000 0.0000 0.0000
# 4 0.0000 0.0000 0.0000 39.9092 0.0000 0.0000
# 5 0.0000 0.0000 0.0000 0.0000 39.9092 0.0000
# 6 0.0000 0.0000 0.0000 0.0000 0.0000 38.8786
#
#
#
# Elastic Compliance Matrix: (Units=1/GPa)
#
#
# Indices 1 2 3 4 5 6 
#
# 1 0.009124 -0.002276 -0.003365 0.000000 0.000000 0.000000
# 2 -0.002276 0.009124 -0.003365 0.000000 0.000000 0.000000
# 3 -0.003365 -0.003365 0.017416 0.000000 0.000000 0.000000
# 4 0.000000 0.000000 0.000000 0.025057 0.000000 0.000000
# 5 0.000000 0.000000 0.000000 0.000000 0.025057 0.000000
# 6 0.000000 0.000000 0.000000 0.000000 0.000000 0.025721
#
#
# Mechanical properties :
#
#
# Convention : Reuss Voigt Hill
#
# Bulk Modulus (GPa) = 56.64804 63.40636 60.02720
# Shear Modulus (GPa) = 36.92897 38.60117 37.76507
#
# Velocity S-wave (km/s) = 3.89547 3.98269 3.93932
# Velocity P-wave (km/s) = 6.59625 6.87050 6.73477
#
# Compressibility (1/GPa) = 0.01765286
#
# Stress axis : x y z
#
# Youngs Moduli (GPa) = 109.59914 109.59914 57.41831
#
# Poissons Ratio (x) = 0.24941 0.19322
# Poissons Ratio (y) = 0.24941 0.19322
# Poissons Ratio (z) = 0.36881 0.36881
#
# Static dielectric constant tensor:
#      x y z
#    x 2.020610 0.000000 0.000000 
#    y 0.000000 2.020610 0.000000 
#    z 0.000000 0.000000 1.913930 
# 
# From -- ./inp_files/5356.got.cif
#   From: 2010.05.17/outbox.cif.g08.bks.cpg/sg112_3_cif.got.tgz:5356.got - 2010.05.20 10:59:04.
