data_PCOD9555604
_publ_section_title
;
Structure prediction by ZEFSAII (Michael W. Deem and Ramdas Pophale) SiO2 
 PCOD9555604
Probable space group: P -4 21 M 
;
_chemical_formula_sum "Si O2"
_cell_formula_units_Z 56
_cell_length_a 11.411705
_cell_length_b 11.411705
_cell_length_c 23.161430
_cell_angle_alpha 90.000000
_cell_angle_beta 90.000000
_cell_angle_gamma 90.000000
_cell_volume 3016.243800
_symmetry_space_group_name_H-M "P -4 21 M "
_symmetry_group_IT_number 113
_symmetry_cell_setting 'tetragonal'
loop_
_space_group_symop_operation_xyz
x,y,z
y,-x,-z
-x,-y,z
-y,x,-z
1/2+x,1/2-y,-z
1/2-x,1/2+y,-z
1/2-y,1/2-x,z
1/2+y,1/2+x,z
loop_
_atom_site_type_symbol
_atom_site_label
_atom_site_fract_x
_atom_site_fract_y
_atom_site_fract_z
Si Si1 0.634282 0.684540 0.557660
Si Si2 0.741563 0.942395 0.431050
Si Si3 0.942394 0.741564 0.931050
Si Si4 0.000001 0.691927 0.250001
Si Si5 0.094411 0.216259 0.368104
Si Si6 0.684539 0.634282 0.057660
Si Si7 0.283742 0.594410 0.131897
O O1 0.697659 0.802342 0.577706
O O2 0.723349 0.577620 0.567859
O O3 0.608842 0.699055 0.489615
O O4 0.512727 0.678381 0.591339
O O5 0.609055 0.890946 0.431779
O O6 0.807609 0.882437 0.377390
O O7 0.890944 0.609057 0.931780
O O8 0.882437 0.807610 0.877390
O O9 0.077620 0.776651 0.932141
O O10 0.891158 0.800949 0.989615
O O11 0.105574 0.605574 0.269142
O O12 0.046751 0.765889 0.196192
O O13 0.894429 0.605572 0.230859
O O14 0.953248 0.765888 0.303809
O O15 0.161494 0.338507 0.384749
O O16 0.802342 0.697658 0.077704
O O17 0.678381 0.512728 0.091340
O O18 0.161494 0.661494 0.115253
#
# Coordination Sequence:
#
# PCOD9555604 Si02
#       7
#     8   8   8   8   8   8   8
#     4  11  21  34  54  78 110 150 186 232 284 333
#     4  10  21  35  52  77 110 148 189 232 278 337
#     4  10  21  35  52  77 110 148 189 232 278 337
#     4   9  18  34  55  82 116 146 181 237 288 330
#     4  10  20  35  57  84 111 144 186 232 286 339
#     4  11  21  34  54  78 110 150 186 232 284 333
#     4  10  20  35  57  84 111 144 186 232 286 339
#
# _framework density 18.566137999999999
#
# number of rings (size 3 to 8) (size 9 to 14) (size 15 to 20)
#    0.000    1.857    2.857    1.714    0.000    2.286 
#    0.000    5.714    0.000    0.000    0.000    0.000 
#    0.000    6.857    0.000    0.000    0.000    0.000 
#
# Total GULP energy -311985.042786 kJ/mol
# GULP energy per Si atom -5571.161478 kJ/mol
# Density = 1.852388 g / cm^3
# Si number density = 18.566138 Si / 1000 Ang^3
#
#
#
# Elastic Constant Matrix: (Units=GPa)
#
#
# Indices 1 2 3 4 5 6 
#
# 1 50.3942 11.4736 8.6314 0.0000 0.0000 0.0000
# 2 11.4736 50.3939 8.6316 0.0000 0.0000 0.0000
# 3 8.6314 8.6316 62.4574 0.0000 0.0000 0.0000
# 4 0.0000 0.0000 0.0000 24.9403 0.0000 0.0000
# 5 0.0000 0.0000 0.0000 0.0000 24.9403 0.0000
# 6 0.0000 0.0000 0.0000 0.0000 0.0000 28.7906
#
#
#
# Elastic Compliance Matrix: (Units=1/GPa)
#
#
# Indices 1 2 3 4 5 6 
#
# 1 0.021253 -0.004441 -0.002323 0.000000 0.000000 0.000000
# 2 -0.004441 0.021253 -0.002323 0.000000 0.000000 0.000000
# 3 -0.002323 -0.002323 0.016653 0.000000 0.000000 0.000000
# 4 0.000000 0.000000 0.000000 0.040096 0.000000 0.000000
# 5 0.000000 0.000000 0.000000 0.000000 0.040096 0.000000
# 6 0.000000 0.000000 0.000000 0.000000 0.000000 0.034734
#
#
# Mechanical properties :
#
#
# Convention : Reuss Voigt Hill
#
# Bulk Modulus (GPa) = 24.40019 24.52430 24.46225
# Shear Modulus (GPa) = 24.28134 24.70152 24.49143
#
# Velocity S-wave (km/s) = 3.62032 3.65151 3.63594
# Velocity P-wave (km/s) = 5.53592 5.56918 5.55258
#
# Compressibility (1/GPa) = 0.04098328
#
# Stress axis : x y z
#
# Youngs Moduli (GPa) = 47.05314 47.05287 60.04894
#
# Poissons Ratio (x) = 0.20895 0.13951
# Poissons Ratio (y) = 0.20895 0.13952
# Poissons Ratio (z) = 0.10932 0.10932
#
# Static dielectric constant tensor:
#      x y z
#    x 1.655040 0.000000 0.000000 
#    y 0.000000 1.655040 0.000000 
#    z 0.000000 0.000000 1.615730 
# 
# From -- ./inp_files/2707.got.cif
#   From: 2010.05.17/outbox.cif.g08.bks.cpg/sg113_cif.got.tgz:2707.got - 2010.05.20 11:03:00.
