data_PCOD9555057
_publ_section_title
;
Structure prediction by ZEFSAII (Michael W. Deem and Ramdas Pophale) SiO2 
 PCOD9555057
Probable space group: P -4 2 C
;
_chemical_formula_sum "Si O2"
_cell_formula_units_Z 56
_cell_length_a 11.885462
_cell_length_b 11.885462
_cell_length_c 20.529054
_cell_angle_alpha 90.000000
_cell_angle_beta 90.000000
_cell_angle_gamma 90.000000
_cell_volume 2900.020533
_symmetry_space_group_name_H-M "P -4 2 C"
_symmetry_group_IT_number 112
_symmetry_cell_setting 'tetragonal'
loop_
_space_group_symop_operation_xyz
x,y,z
y,-x,-z
-x,-y,z
-y,x,-z
x,-y,1/2-z
-x,y,1/2-z
-y,-x,1/2+z
y,x,1/2+z
loop_
_atom_site_type_symbol
_atom_site_label
_atom_site_fract_x
_atom_site_fract_y
_atom_site_fract_z
Si Si1 0.778839 0.000019 0.176801
Si Si2 0.843434 0.000046 0.460425
Si Si3 0.226288 0.368590 0.825211
Si Si4 0.366371 0.747079 0.563122
Si Si5 0.368640 0.773783 0.325233
Si Si6 0.633710 0.747078 0.563084
Si Si7 0.628733 0.000013 0.531015
O O1 0.701109 0.889511 0.170700
O O2 0.828069 0.000000 0.250000
O O3 0.864372 0.999943 0.116123
O O4 0.701234 0.110610 0.170673
O O5 0.711002 0.000067 0.469961
O O6 0.896302 0.896343 0.499987
O O7 0.314512 0.314309 0.874592
O O8 0.264690 0.362234 0.749983
O O9 0.207426 0.499967 0.841146
O O10 0.500037 0.726650 0.556476
O O11 0.301962 0.698049 0.500029
O O12 0.350345 0.882498 0.567952
O O13 0.314307 0.685642 0.374647
O O14 0.649715 0.882499 0.567913
O O15 0.500000 0.000000 0.509973
#
# Coordination Sequence:
#
# PCOD9555057 Si02
#       7
#     8   8   8   8   8   8   8
#     4  10  20  36  58  85 117 150 191 239 284 339
#     4  11  22  36  57  85 115 146 184 232 290 348
#     4  10  21  37  59  87 118 152 189 234 291 350
#     4  11  23  38  58  84 114 151 195 241 291 348
#     4  10  21  37  59  87 118 152 189 234 291 350
#     4  11  23  38  58  84 114 151 195 241 291 348
#     4  10  21  37  57  80 109 147 192 239 285 338
#
# _framework density 19.310209
#
# number of rings (size 3 to 8) (size 9 to 14) (size 15 to 20)
#    0.000    1.571    0.000    5.571    0.000    7.714 
#    0.000    3.571    0.000   11.143    0.000    0.000 
#    0.000    0.000    0.000    0.000    0.000    0.000 
#
# Total GULP energy -312693.248521 kJ/mol
# GULP energy per Si atom -5583.808009 kJ/mol
# Density = 1.926626 g / cm^3
# Si number density = 19.310209 Si / 1000 Ang^3
#
#
#
# Elastic Constant Matrix: (Units=GPa)
#
#
# Indices 1 2 3 4 5 6 
#
# 1 98.0081 35.4335 61.8778 0.0000 0.0000 0.0000
# 2 35.4335 98.0081 61.8778 0.0000 0.0000 0.0000
# 3 61.8778 61.8778 146.3550 0.0000 0.0000 0.0000
# 4 0.0000 0.0000 0.0000 27.1972 0.0000 0.0000
# 5 0.0000 0.0000 0.0000 0.0000 27.1972 0.0000
# 6 0.0000 0.0000 0.0000 0.0000 0.0000 29.0337
#
#
#
# Elastic Compliance Matrix: (Units=1/GPa)
#
#
# Indices 1 2 3 4 5 6 
#
# 1 0.014154 -0.001827 -0.005212 0.000000 0.000000 0.000000
# 2 -0.001827 0.014154 -0.005212 0.000000 0.000000 0.000000
# 3 -0.005212 -0.005212 0.011240 0.000000 0.000000 0.000000
# 4 0.000000 0.000000 0.000000 0.036769 0.000000 0.000000
# 5 0.000000 0.000000 0.000000 0.000000 0.036769 0.000000
# 6 0.000000 0.000000 0.000000 0.000000 0.000000 0.034443
#
#
# Mechanical properties :
#
#
# Convention : Reuss Voigt Hill
#
# Bulk Modulus (GPa) = 66.45819 73.41659 69.93739
# Shear Modulus (GPa) = 28.24135 28.89775 28.56955
#
# Velocity S-wave (km/s) = 3.82843 3.87266 3.85061
# Velocity P-wave (km/s) = 7.35073 7.62226 7.48772
#
# Compressibility (1/GPa) = 0.01504705
#
# Stress axis : x y z
#
# Youngs Moduli (GPa) = 70.65008 70.65008 88.96870
#
# Poissons Ratio (x) = 0.12905 0.46371
# Poissons Ratio (y) = 0.12905 0.46371
# Poissons Ratio (z) = 0.36823 0.36823
#
# Static dielectric constant tensor:
#      x y z
#    x 1.685610 0.000000 0.000000 
#    y 0.000000 1.685610 0.000000 
#    z 0.000000 0.000000 1.671520 
# 
# From -- ./inp_files/4924.got.cif
#   From: 2010.05.17/outbox.cif.g08.bks.cpg/sg112_3_cif.got.tgz:4924.got - 2010.05.20 10:59:04.
