data_PCOD9555464
_publ_section_title
;
Structure prediction by ZEFSAII (Michael W. Deem and Ramdas Pophale) SiO2 
 PCOD9555464
Probable space group: P -4 21 M 
;
_chemical_formula_sum "Si O2"
_cell_formula_units_Z 40
_cell_length_a 15.634741
_cell_length_b 15.634741
_cell_length_c 9.892043
_cell_angle_alpha 90.000000
_cell_angle_beta 90.000000
_cell_angle_gamma 90.000000
_cell_volume 2418.061699
_symmetry_space_group_name_H-M "P -4 21 M "
_symmetry_group_IT_number 113
_symmetry_cell_setting 'tetragonal'
loop_
_space_group_symop_operation_xyz
x,y,z
y,-x,-z
-x,-y,z
-y,x,-z
1/2+x,1/2-y,-z
1/2-x,1/2+y,-z
1/2-y,1/2-x,z
1/2+y,1/2+x,z
loop_
_atom_site_type_symbol
_atom_site_label
_atom_site_fract_x
_atom_site_fract_y
_atom_site_fract_z
Si Si1 0.430982 0.069019 0.727645
Si Si2 0.296772 0.942628 0.035482
Si Si3 0.868866 0.052691 0.510981
Si Si4 0.985626 0.243179 0.249550
Si Si5 0.430882 0.069119 0.056885
Si Si6 0.158428 0.196867 0.739421
O O1 0.460172 0.164044 0.689550
O O2 0.500000 0.000000 0.681518
O O3 0.431001 0.069000 0.892533
O O4 0.374868 0.874868 0.015720
O O5 0.232571 0.900788 0.140880
O O6 0.339218 0.030332 0.093013
O O7 0.257526 0.964231 0.890062
O O8 0.812550 0.038666 0.644172
O O9 0.817810 0.103406 0.395776
O O10 0.957586 0.103072 0.537278
O O11 0.895232 0.197093 0.222511
O O12 0.500000 0.000000 0.106768
O O13 0.234988 0.265013 0.719079
#
# Coordination Sequence:
#
# PCOD9555464 Si02
#       6
#     4   8   8   8   4   8
#     4   9  16  28  51  79 103 132 176 216 260 311
#     4   9  18  31  51  76 103 135 173 211 262 317
#     4   9  20  37  55  72 101 145 184 215 264 320
#     4  10  18  33  54  76 105 138 180 221 261 313
#     4   7  12  26  45  65  93 129 160 194 242 306
#     4  10  20  34  52  78 109 137 171 224 275 308
#
# _framework density 16.542175
#
# number of rings (size 3 to 8) (size 9 to 14) (size 15 to 20)
#    0.000    2.800    1.000    1.800    0.000    3.200 
#    0.000    1.000    0.000    1.200    0.000    0.000 
#    0.000    0.000    0.000    0.000    0.000    0.000 
#
# Total GULP energy -222761.908922 kJ/mol
# GULP energy per Si atom -5569.047723 kJ/mol
# Density = 1.650452 g / cm^3
# Si number density = 16.542175 Si / 1000 Ang^3
#
#
#
# Elastic Constant Matrix: (Units=GPa)
#
#
# Indices 1 2 3 4 5 6 
#
# 1 78.5515 46.6131 55.3272 0.0000 0.0000 0.0000
# 2 46.6131 78.5555 55.3274 0.0000 0.0000 0.0000
# 3 55.3272 55.3274 74.1388 0.0000 0.0000 0.0000
# 4 0.0000 0.0000 0.0000 23.2008 0.0000 0.0000
# 5 0.0000 0.0000 0.0000 0.0000 23.2006 0.0000
# 6 0.0000 0.0000 0.0000 0.0000 0.0000 21.9095
#
#
#
# Elastic Compliance Matrix: (Units=1/GPa)
#
#
# Indices 1 2 3 4 5 6 
#
# 1 0.027396 -0.003914 -0.017524 0.000000 0.000000 0.000000
# 2 -0.003914 0.027393 -0.017522 0.000000 0.000000 0.000000
# 3 -0.017524 -0.017522 0.039641 0.000000 0.000000 0.000000
# 4 0.000000 0.000000 0.000000 0.043102 0.000000 0.000000
# 5 0.000000 0.000000 0.000000 0.000000 0.043102 0.000000
# 6 0.000000 0.000000 0.000000 0.000000 0.000000 0.045642
#
#
# Mechanical properties :
#
#
# Convention : Reuss Voigt Hill
#
# Bulk Modulus (GPa) = 60.56359 60.64238 60.60298
# Shear Modulus (GPa) = 16.14470 18.59404 17.36937
#
# Velocity S-wave (km/s) = 3.12744 3.35631 3.24389
# Velocity P-wave (km/s) = 7.05211 7.19434 7.12358
#
# Compressibility (1/GPa) = 0.01651157
#
# Stress axis : x y z
#
# Youngs Moduli (GPa) = 36.50203 36.50570 25.22615
#
# Poissons Ratio (x) = 0.14288 0.44205
# Poissons Ratio (y) = 0.14287 0.44200
# Poissons Ratio (z) = 0.63965 0.63964
#
# Static dielectric constant tensor:
#      x y z
#    x 1.575750 0.000000 0.000000 
#    y 0.000000 1.575740 0.000000 
#    z 0.000000 0.000000 1.514130 
# 
# From -- ./inp_files/1062.got.cif
#   From: 2010.05.17/outbox.cif.g08.bks.cpg/sg113_cif.got.tgz:1062.got - 2010.05.20 11:03:00.
