data_PCOD9555451
_publ_section_title
;
Structure prediction by ZEFSAII (Michael W. Deem and Ramdas Pophale) SiO2 
 PCOD9555451
Probable space group: P -4 21 M 
;
_chemical_formula_sum "Si O2"
_cell_formula_units_Z 56
_cell_length_a 12.188448
_cell_length_b 12.188448
_cell_length_c 20.925614
_cell_angle_alpha 90.000000
_cell_angle_beta 90.000000
_cell_angle_gamma 90.000000
_cell_volume 3108.672903
_symmetry_space_group_name_H-M "P -4 21 M "
_symmetry_group_IT_number 113
_symmetry_cell_setting 'tetragonal'
loop_
_space_group_symop_operation_xyz
x,y,z
y,-x,-z
-x,-y,z
-y,x,-z
1/2+x,1/2-y,-z
1/2-x,1/2+y,-z
1/2-y,1/2-x,z
1/2+y,1/2+x,z
loop_
_atom_site_type_symbol
_atom_site_label
_atom_site_fract_x
_atom_site_fract_y
_atom_site_fract_z
Si Si1 0.232649 0.444105 0.474614
Si Si2 0.319257 0.006936 0.660473
Si Si3 0.991730 0.322471 0.091392
Si Si4 0.096313 0.916502 0.721202
Si Si5 0.374424 0.548339 0.583036
Si Si6 0.658379 0.341735 0.855255
Si Si7 0.978558 0.172032 0.978034
O O1 0.124876 0.375125 0.488365
O O2 0.207033 0.524685 0.415047
O O3 0.288518 0.486754 0.538755
O O4 0.327834 0.371680 0.442290
O O5 0.389699 0.110302 0.684643
O O6 0.400909 0.900909 0.664085
O O7 0.207000 0.979210 0.697268
O O8 0.878035 0.378035 0.113036
O O9 0.083608 0.416393 0.096661
O O10 0.042162 0.218796 0.129086
O O11 0.981612 0.283419 0.018037
O O12 0.051537 0.854431 0.658397
O O13 0.124229 0.843645 0.781908
O O14 0.000000 0.000000 0.740032
O O15 0.500000 0.500000 0.574664
O O16 0.752840 0.252840 0.867563
O O17 0.675849 0.439716 0.905265
O O18 0.094087 0.111003 0.986918
#
# Coordination Sequence:
#
# PCOD9555451 Si02
#       7
#     8   8   8   8   8   8   8
#     4  10  18  30  55  80 101 133 172 220 274 319
#     4   9  19  36  56  81 110 138 174 225 283 328
#     4   9  18  32  52  80 109 133 165 215 272 318
#     4  10  22  34  53  74 109 149 182 218 255 322
#     4  10  18  36  50  72 105 137 176 218 260 316
#     4  10  20  34  54  77 103 140 180 211 256 314
#     4   9  18  31  54  79 105 136 171 218 261 309
#
# _framework density 18.014118
#
# number of rings (size 3 to 8) (size 9 to 14) (size 15 to 20)
#    0.000    2.429    1.429    0.857    4.000    2.286 
#    0.000    1.429    0.000    0.857    0.000    0.000 
#    0.000    1.714    0.000    0.000    0.000    0.000 
#
# Total GULP energy -311934.725850 kJ/mol
# GULP energy per Si atom -5570.262962 kJ/mol
# Density = 1.797312 g / cm^3
# Si number density = 18.014118 Si / 1000 Ang^3
#
#
#
# Elastic Constant Matrix: (Units=GPa)
#
#
# Indices 1 2 3 4 5 6 
#
# 1 30.9560 -5.2025 3.4379 0.0000 0.0000 0.0000
# 2 -5.2025 30.9544 3.4380 0.0000 0.0000 0.0000
# 3 3.4379 3.4380 86.6175 0.0000 0.0000 0.0000
# 4 0.0000 0.0000 0.0000 122.6899 0.0000 0.0000
# 5 0.0000 0.0000 0.0000 0.0000 124.4854 0.0000
# 6 0.0000 0.0000 0.0000 0.0000 0.0000 14.1088
#
#
#
# Elastic Compliance Matrix: (Units=1/GPa)
#
#
# Indices 1 2 3 4 5 6 
#
# 1 0.033451 0.005795 -0.001558 0.000000 0.000000 0.000000
# 2 0.005795 0.033453 -0.001558 0.000000 0.000000 0.000000
# 3 -0.001558 -0.001558 0.011669 0.000000 0.000000 0.000000
# 4 0.000000 0.000000 0.000000 0.008151 0.000000 0.000000
# 5 0.000000 0.000000 0.000000 0.000000 0.008033 0.000000
# 6 0.000000 0.000000 0.000000 0.000000 0.000000 0.070878
#
#
# Mechanical properties :
#
#
# Convention : Reuss Voigt Hill
#
# Bulk Modulus (GPa) = 11.91452 16.87497 14.39475
# Shear Modulus (GPa) = 26.56024 62.04713 44.30368
#
# Velocity S-wave (km/s) = 3.84397 5.87523 4.96460
# Velocity P-wave (km/s) = 5.13126 7.44396 6.39306
#
# Compressibility (1/GPa) = 0.08393118
#
# Stress axis : x y z
#
# Youngs Moduli (GPa) = 29.89464 29.89309 85.69953
#
# Poissons Ratio (x) = -0.17323 0.13349
# Poissons Ratio (y) = -0.17324 0.13350
# Poissons Ratio (z) = 0.04657 0.04657
#
# Static dielectric constant tensor:
#      x y z
#    x 1.508540 0.000000 0.000000 
#    y 0.000000 1.506290 0.000000 
#    z 0.000000 0.000000 1.638700 
# 
# From -- ./inp_files/2674.got.cif
#   From: 2010.05.17/outbox.cif.g08.bks.cpg/sg113_cif.got.tgz:2674.got - 2010.05.20 11:03:00.
