data_PCOD9555885
_publ_section_title
;
Structure prediction by ZEFSAII (Michael W. Deem and Ramdas Pophale) SiO2 
 PCOD9555885
Probable space group: P -4 21 C
;
_chemical_formula_sum "Si O2"
_cell_formula_units_Z 60
_cell_length_a 13.083380
_cell_length_b 13.083380
_cell_length_c 15.553491
_cell_angle_alpha 90.000000
_cell_angle_beta 90.000000
_cell_angle_gamma 90.000000
_cell_volume 2662.366212
_symmetry_space_group_name_H-M "P -4 21 C"
_symmetry_group_IT_number 114
_symmetry_cell_setting 'tetragonal'
loop_
_space_group_symop_operation_xyz
x,y,z
y,-x,-z
-x,-y,z
-y,x,-z
1/2+x,1/2-y,1/2-z
1/2-x,1/2+y,1/2-z
1/2-y,1/2-x,1/2+z
1/2+y,1/2+x,1/2+z
loop_
_atom_site_type_symbol
_atom_site_label
_atom_site_fract_x
_atom_site_fract_y
_atom_site_fract_z
Si Si1 0.746056 0.674203 0.114235
Si Si2 0.801576 0.418609 0.664261
Si Si3 0.000000 0.500000 0.726153
Si Si4 0.197282 0.228074 0.294465
Si Si5 0.312665 0.519024 0.839162
Si Si6 0.487019 0.842888 0.003598
Si Si7 0.448993 0.839279 0.628083
Si Si8 0.723392 0.880806 0.013163
O O1 0.794425 0.729791 0.197252
O O2 0.628844 0.638693 0.135643
O O3 0.802428 0.575980 0.077046
O O4 0.750194 0.766383 0.043673
O O5 0.901421 0.487834 0.667938
O O6 0.828842 0.300164 0.679996
O O7 0.744727 0.451126 0.751422
O O8 0.734707 0.422771 0.577421
O O9 0.990177 0.596212 0.790826
O O10 0.098430 0.158288 0.315599
O O11 0.200079 0.336626 0.346319
O O12 0.243333 0.498251 0.922443
O O13 0.417613 0.925806 0.051053
O O14 0.603193 0.872974 0.989152
O O15 0.537342 0.766347 0.590439
#
# Coordination Sequence:
#
# PCOD9555885 Si02
#       8
#     8   8   4   8   8   8   8   8
#     4  10  22  38  59  93 127 178 223 271 340 399
#     4  11  23  36  59  97 131 175 214 272 347 399
#     4  12  20  36  58  94 136 170 212 280 340 386
#     4  10  21  39  60  86 133 178 212 271 345 407
#     4   9  19  40  57  84 126 166 217 267 322 409
#     4  10  19  35  56  87 126 166 205 273 326 391
#     4  11  20  35  58  89 131 167 204 281 327 390
#     4  11  22  35  58  96 129 160 226 270 332 402
#
# _framework density 22.536342999999999
#
# number of rings (size 3 to 8) (size 9 to 14) (size 15 to 20)
#    0.000    1.600    4.000    3.200    5.600    0.000 
#    0.000    0.000    0.000   13.600    0.000    0.000 
#    0.000    0.000    0.000    0.000    0.000    0.000 
#
# Total GULP energy -334430.117628 kJ/mol
# GULP energy per Si atom -5573.835294 kJ/mol
# Density = 2.248505 g / cm^3
# Si number density = 22.536343 Si / 1000 Ang^3
#
#
#
# Elastic Constant Matrix: (Units=GPa)
#
#
# Indices 1 2 3 4 5 6 
#
# 1 52.5052 11.6031 11.8470 0.0000 0.0000 0.0000
# 2 11.6031 52.5052 11.8470 0.0000 0.0000 0.0000
# 3 11.8470 11.8470 112.1460 0.0000 0.0000 0.0000
# 4 0.0000 0.0000 0.0000 39.4872 0.0000 0.0000
# 5 0.0000 0.0000 0.0000 0.0000 39.4872 0.0000
# 6 0.0000 0.0000 0.0000 0.0000 0.0000 19.9435
#
#
#
# Elastic Compliance Matrix: (Units=1/GPa)
#
#
# Indices 1 2 3 4 5 6 
#
# 1 0.020341 -0.004108 -0.001715 0.000000 0.000000 0.000000
# 2 -0.004108 0.020341 -0.001715 0.000000 0.000000 0.000000
# 3 -0.001715 -0.001715 0.009279 0.000000 0.000000 0.000000
# 4 0.000000 0.000000 0.000000 0.025325 0.000000 0.000000
# 5 0.000000 0.000000 0.000000 0.000000 0.025325 0.000000
# 6 0.000000 0.000000 0.000000 0.000000 0.000000 0.050142
#
#
# Mechanical properties :
#
#
# Convention : Reuss Voigt Hill
#
# Bulk Modulus (GPa) = 28.66572 31.97230 30.31901
# Shear Modulus (GPa) = 28.17617 31.90752 30.04185
#
# Velocity S-wave (km/s) = 3.53973 3.76683 3.65504
# Velocity P-wave (km/s) = 5.42712 5.75643 5.59420
#
# Compressibility (1/GPa) = 0.03488487
#
# Stress axis : x y z
#
# Youngs Moduli (GPa) = 49.16299 49.16299 107.76738
#
# Poissons Ratio (x) = 0.20197 0.18480
# Poissons Ratio (y) = 0.20197 0.18480
# Poissons Ratio (z) = 0.08430 0.08430
#
# Static dielectric constant tensor:
#      x y z
#    x 1.862120 0.000000 0.000000 
#    y 0.000000 1.862120 0.000000 
#    z 0.000000 0.000000 1.963330 
# 
# From -- ./inp_files/2296.got.cif
#   From: 2010.05.17/outbox.cif.g08.bks.cpg/sg114_2_cif.got.tgz:2296.got - 2010.05.20 11:04:54.
