data_PCOD9555757
_publ_section_title
;
Structure prediction by ZEFSAII (Michael W. Deem and Ramdas Pophale) SiO2 
 PCOD9555757
Probable space group: P -4 21 M 
;
_chemical_formula_sum "Si O2"
_cell_formula_units_Z 48
_cell_length_a 14.470333
_cell_length_b 14.470333
_cell_length_c 12.386664
_cell_angle_alpha 90.000000
_cell_angle_beta 90.000000
_cell_angle_gamma 90.000000
_cell_volume 2593.650228
_symmetry_space_group_name_H-M "P -4 21 M "
_symmetry_group_IT_number 113
_symmetry_cell_setting 'tetragonal'
loop_
_space_group_symop_operation_xyz
x,y,z
y,-x,-z
-x,-y,z
-y,x,-z
1/2+x,1/2-y,-z
1/2-x,1/2+y,-z
1/2-y,1/2-x,z
1/2+y,1/2+x,z
loop_
_atom_site_type_symbol
_atom_site_label
_atom_site_fract_x
_atom_site_fract_y
_atom_site_fract_z
Si Si1 0.653507 0.512678 0.481772
Si Si2 0.422083 0.077918 0.190104
Si Si3 0.225406 0.877759 0.102986
Si Si4 0.279796 0.534479 0.070527
Si Si5 0.237520 0.000870 0.295551
Si Si6 0.577927 0.922074 0.935269
Si Si7 0.050404 0.100392 0.256812
O O1 0.595276 0.418247 0.492508
O O2 0.729580 0.513152 0.575537
O O3 0.669254 0.524654 0.354854
O O4 0.333654 0.038842 0.252272
O O5 0.500000 0.000000 0.190274
O O6 0.402818 0.097183 0.063384
O O7 0.318106 0.818106 0.086709
O O8 0.137774 0.819644 0.062316
O O9 0.216414 0.907247 0.228234
O O10 0.226191 0.973403 0.037314
O O11 0.175117 0.544051 0.112572
O O12 0.350719 0.481103 0.148297
O O13 0.157404 0.073600 0.263944
O O14 0.500000 0.000000 0.927016
O O15 0.000000 0.000000 0.270781
#
# Coordination Sequence:
#
# PCOD9555757 Si02
#       7
#     8   4   8   8   8   4   8
#     4   9  15  33  63  91 120 156 191 251 326 382
#     4  11  24  44  63  87 125 179 225 257 311 391
#     4  12  24  39  60  92 128 164 215 267 317 381
#     4  12  24  37  61  92 123 167 211 262 317 384
#     4  11  21  38  67  92 124 166 216 266 325 373
#     4  11  24  46  61  81 127 185 219 245 319 393
#     4  11  20  37  64  97 131 159 199 266 334 380
#
# _framework density 18.506734999999999
#
# number of rings (size 3 to 8) (size 9 to 14) (size 15 to 20)
#    0.000    1.000    7.500    2.000    0.000    0.000 
#    1.500    0.833   18.333    1.000    0.000    0.000 
#    0.000    0.000    0.000    0.000    0.000    0.000 
#
# Total GULP energy -267795.222432 kJ/mol
# GULP energy per Si atom -5579.067134 kJ/mol
# Density = 1.846461 g / cm^3
# Si number density = 18.506735 Si / 1000 Ang^3
#
#
#
# Elastic Constant Matrix: (Units=GPa)
#
#
# Indices 1 2 3 4 5 6 
#
# 1 74.6691 23.3379 21.1760 0.0000 0.0000 0.0000
# 2 23.3379 74.6682 21.1760 0.0000 0.0000 0.0000
# 3 21.1760 21.1760 87.4352 0.0000 0.0000 0.0000
# 4 0.0000 0.0000 0.0000 77.0505 0.0000 0.0000
# 5 0.0000 0.0000 0.0000 0.0000 77.0150 0.0000
# 6 0.0000 0.0000 0.0000 0.0000 0.0000 28.7588
#
#
#
# Elastic Compliance Matrix: (Units=1/GPa)
#
#
# Indices 1 2 3 4 5 6 
#
# 1 0.015439 -0.004043 -0.002760 0.000000 0.000000 0.000000
# 2 -0.004043 0.015439 -0.002760 0.000000 0.000000 0.000000
# 3 -0.002760 -0.002760 0.012774 0.000000 0.000000 0.000000
# 4 0.000000 0.000000 0.000000 0.012979 0.000000 0.000000
# 5 0.000000 0.000000 0.000000 0.000000 0.012984 0.000000
# 6 0.000000 0.000000 0.000000 0.000000 0.000000 0.034772
#
#
# Mechanical properties :
#
#
# Convention : Reuss Voigt Hill
#
# Bulk Modulus (GPa) = 40.77301 40.90581 40.83941
# Shear Modulus (GPa) = 37.96873 47.97037 42.96955
#
# Velocity S-wave (km/s) = 4.53439 5.09674 4.82377
# Velocity P-wave (km/s) = 7.03517 7.53571 7.28973
#
# Compressibility (1/GPa) = 0.02452603
#
# Stress axis : x y z
#
# Youngs Moduli (GPa) = 64.77234 64.77147 78.28428
#
# Poissons Ratio (x) = 0.26185 0.21606
# Poissons Ratio (y) = 0.26185 0.21607
# Poissons Ratio (z) = 0.17877 0.17877
#
# Static dielectric constant tensor:
#      x y z
#    x 1.604570 0.000000 0.000000 
#    y 0.000000 1.604600 0.000000 
#    z 0.000000 0.000000 1.686390 
# 
# From -- ./inp_files/1869.got.cif
#   From: 2010.05.17/outbox.cif.g08.bks.cpg/sg113_cif.got.tgz:1869.got - 2010.05.20 11:03:00.
