data_PCOD9555375
_publ_section_title
;
Structure prediction by ZEFSAII (Michael W. Deem and Ramdas Pophale) SiO2 
 PCOD9555375
Probable space group: P -4 2 C
;
_chemical_formula_sum "Si O2"
_cell_formula_units_Z 26
_cell_length_a 11.965843
_cell_length_b 11.965843
_cell_length_c 7.555073
_cell_angle_alpha 90.000000
_cell_angle_beta 90.000000
_cell_angle_gamma 90.000000
_cell_volume 1081.745919
_symmetry_space_group_name_H-M "P -4 2 C"
_symmetry_group_IT_number 112
_symmetry_cell_setting 'tetragonal'
loop_
_space_group_symop_operation_xyz
x,y,z
y,-x,-z
-x,-y,z
-y,x,-z
x,-y,1/2-z
-x,y,1/2-z
-y,-x,1/2+z
y,x,1/2+z
loop_
_atom_site_type_symbol
_atom_site_label
_atom_site_fract_x
_atom_site_fract_y
_atom_site_fract_z
Si Si1 0.086523 0.309272 0.013064
Si Si2 0.548511 0.667025 0.943975
Si Si3 0.842135 0.285897 0.885615
Si Si4 0.500000 0.000000 0.750000
O O1 0.170564 0.226232 0.111135
O O2 0.073827 0.421904 0.123792
O O3 0.132791 0.323175 0.814541
O O4 0.959414 0.268173 0.985689
O O5 0.500000 0.686572 0.750000
O O6 0.629669 0.558661 0.941390
O O7 0.620117 0.768118 0.019783
#
# Coordination Sequence:
#
# PCOD9555375 Si02
#       4
#     8   8   8   2
#     4  11  27  50  82 117 159 210 264 330 413 469
#     4  11  24  44  73 110 160 216 263 320 397 478
#     4  11  26  50  80 119 159 211 265 339 393 494
#     4  12  28  50  80 118 156 208 260 340 392 482
#
# _framework density 24.035219000000001
#
# number of rings (size 3 to 8) (size 9 to 14) (size 15 to 20)
#    0.000    0.923    0.000    5.538    6.462    3.077 
#    2.769    3.077    0.000    0.000    0.000    0.000 
#    0.000    0.000    0.000    0.000    0.000    0.000 
#
# Total GULP energy -146019.453925 kJ/mol
# GULP energy per Si atom -5616.132843 kJ/mol
# Density = 2.398051 g / cm^3
# Si number density = 24.035219 Si / 1000 Ang^3
#
#
#
# Elastic Constant Matrix: (Units=GPa)
#
#
# Indices 1 2 3 4 5 6 
#
# 1 204.1459 113.2034 98.3783 0.0000 0.0000 0.0000
# 2 113.2034 204.1459 98.3783 0.0000 0.0000 0.0000
# 3 98.3783 98.3783 173.2516 0.0000 0.0000 0.0000
# 4 0.0000 0.0000 0.0000 42.4935 0.0000 0.0000
# 5 0.0000 0.0000 0.0000 0.0000 42.4935 0.0000
# 6 0.0000 0.0000 0.0000 0.0000 0.0000 54.6544
#
#
#
# Elastic Compliance Matrix: (Units=1/GPa)
#
#
# Indices 1 2 3 4 5 6 
#
# 1 0.007930 -0.003066 -0.002762 0.000000 0.000000 0.000000
# 2 -0.003066 0.007930 -0.002762 0.000000 0.000000 0.000000
# 3 -0.002762 -0.002762 0.008908 0.000000 0.000000 0.000000
# 4 0.000000 0.000000 0.000000 0.023533 0.000000 0.000000
# 5 0.000000 0.000000 0.000000 0.000000 0.023533 0.000000
# 6 0.000000 0.000000 0.000000 0.000000 0.000000 0.018297
#
#
# Mechanical properties :
#
#
# Convention : Reuss Voigt Hill
#
# Bulk Modulus (GPa) = 131.77768 133.49590 132.63679
# Shear Modulus (GPa) = 45.52142 46.03386 45.77764
#
# Velocity S-wave (km/s) = 4.35667 4.38112 4.36891
# Velocity P-wave (km/s) = 8.95842 9.01414 8.98632
#
# Compressibility (1/GPa) = 0.00758854
#
# Stress axis : x y z
#
# Youngs Moduli (GPa) = 126.10974 126.10974 112.25703
#
# Poissons Ratio (x) = 0.38670 0.31000
# Poissons Ratio (y) = 0.38670 0.31000
# Poissons Ratio (z) = 0.34825 0.34825
#
# Static dielectric constant tensor:
#      x y z
#    x 1.912820 0.000000 0.000000 
#    y 0.000000 1.912820 0.000000 
#    z 0.000000 0.000000 1.934970 
# 
# From -- ./inp_files/856.got.cif
#   From: 2010.05.17/outbox.cif.g08.bks.cpg/sg112_1_cif.got.tgz:856.got - 2010.05.20 10:59:04.
