data_PCOD9555602
_publ_section_title
;
Structure prediction by ZEFSAII (Michael W. Deem and Ramdas Pophale) SiO2 
 PCOD9555602
Probable space group: P -4 21 M 
;
_chemical_formula_sum "Si O2"
_cell_formula_units_Z 32
_cell_length_a 16.836407
_cell_length_b 16.836407
_cell_length_c 5.176404
_cell_angle_alpha 90.000000
_cell_angle_beta 90.000000
_cell_angle_gamma 90.000000
_cell_volume 1467.327293
_symmetry_space_group_name_H-M "P -4 21 M "
_symmetry_group_IT_number 113
_symmetry_cell_setting 'tetragonal'
loop_
_space_group_symop_operation_xyz
x,y,z
y,-x,-z
-x,-y,z
-y,x,-z
1/2+x,1/2-y,-z
1/2-x,1/2+y,-z
1/2-y,1/2-x,z
1/2+y,1/2+x,z
loop_
_atom_site_type_symbol
_atom_site_label
_atom_site_fract_x
_atom_site_fract_y
_atom_site_fract_z
Si Si1 0.788908 0.835363 0.588900
Si Si2 0.929637 0.920297 0.360306
Si Si3 0.706905 0.079087 0.342573
Si Si4 0.269080 0.505572 0.143608
O O1 0.713757 0.786244 0.489113
O O2 0.843017 0.882382 0.383983
O O3 0.850638 0.771169 0.699531
O O4 0.765624 0.901598 0.794874
O O5 0.976882 0.861879 0.167746
O O6 0.984723 0.915221 0.624259
O O7 0.621477 0.121477 0.335626
O O8 0.726455 0.040634 0.619130
O O9 0.725222 0.017768 0.116612
#
# Coordination Sequence:
#
# PCOD9555602 Si02
#       4
#     8   8   8   8
#     4   9  19  34  55  83 112 143 181 226 276 329
#     4   8  15  30  52  79 111 145 180 221 275 337
#     4  10  21  37  57  80 108 144 184 224 271 328
#     4  10  20  35  56  81 111 145 181 225 274 325
#
# _framework density 21.808357999999998
#
# number of rings (size 3 to 8) (size 9 to 14) (size 15 to 20)
#    0.000    2.750    0.000    0.750    0.000    9.000 
#    0.000    6.250    0.000   13.500    0.000    0.000 
#    0.000    0.000    0.000    0.000    0.000    0.000 
#
# Total GULP energy -178371.959271 kJ/mol
# GULP energy per Si atom -5574.123727 kJ/mol
# Density = 2.175872 g / cm^3
# Si number density = 21.808358 Si / 1000 Ang^3
#
#
#
# Elastic Constant Matrix: (Units=GPa)
#
#
# Indices 1 2 3 4 5 6 
#
# 1 76.4520 41.1514 9.8396 0.0000 0.0000 0.0000
# 2 41.1514 76.4511 9.8425 0.0000 0.0000 0.0000
# 3 9.8396 9.8425 61.8006 0.0000 0.0000 0.0000
# 4 0.0000 0.0000 0.0000 10.4861 0.0000 0.0000
# 5 0.0000 0.0000 0.0000 0.0000 10.4850 0.0000
# 6 0.0000 0.0000 0.0000 0.0000 0.0000 48.8680
#
#
#
# Elastic Compliance Matrix: (Units=1/GPa)
#
#
# Indices 1 2 3 4 5 6 
#
# 1 0.018532 -0.009796 -0.001390 0.000000 0.000000 0.000000
# 2 -0.009796 0.018532 -0.001392 0.000000 0.000000 0.000000
# 3 -0.001390 -0.001392 0.016624 0.000000 0.000000 0.000000
# 4 0.000000 0.000000 0.000000 0.095365 0.000000 0.000000
# 5 0.000000 0.000000 0.000000 0.000000 0.095375 0.000000
# 6 0.000000 0.000000 0.000000 0.000000 0.000000 0.020463
#
#
# Mechanical properties :
#
#
# Convention : Reuss Voigt Hill
#
# Bulk Modulus (GPa) = 35.04877 37.37453 36.21165
# Shear Modulus (GPa) = 16.69121 24.22581 20.45851
#
# Velocity S-wave (km/s) = 2.76951 3.33656 3.06617
# Velocity P-wave (km/s) = 5.13158 5.65848 5.40146
#
# Compressibility (1/GPa) = 0.02853167
#
# Stress axis : x y z
#
# Youngs Moduli (GPa) = 53.96061 53.95929 60.15364
#
# Poissons Ratio (x) = 0.52860 0.08364
# Poissons Ratio (y) = 0.52861 0.08372
# Poissons Ratio (z) = 0.07503 0.07510
#
# Static dielectric constant tensor:
#      x y z
#    x 1.834330 0.000000 0.000000 
#    y 0.000000 1.834330 0.000000 
#    z 0.000000 0.000000 1.854530 
# 
# From -- ./inp_files/264.got.cif
#   From: 2010.05.17/outbox.cif.g08.bks.cpg/sg113_cif.got.tgz:264.got - 2010.05.20 11:03:00.
