data_PCOD9555473
_publ_section_title
;
Structure prediction by ZEFSAII (Michael W. Deem and Ramdas Pophale) SiO2 
 PCOD9555473
Probable space group: P -4 21 M 
;
_chemical_formula_sum "Si O2"
_cell_formula_units_Z 64
_cell_length_a 11.152913
_cell_length_b 11.152913
_cell_length_c 28.205795
_cell_angle_alpha 90.000000
_cell_angle_beta 90.000000
_cell_angle_gamma 90.000000
_cell_volume 3508.447434
_symmetry_space_group_name_H-M "P -4 21 M "
_symmetry_group_IT_number 113
_symmetry_cell_setting 'tetragonal'
loop_
_space_group_symop_operation_xyz
x,y,z
y,-x,-z
-x,-y,z
-y,x,-z
1/2+x,1/2-y,-z
1/2-x,1/2+y,-z
1/2-y,1/2-x,z
1/2+y,1/2+x,z
loop_
_atom_site_type_symbol
_atom_site_label
_atom_site_fract_x
_atom_site_fract_y
_atom_site_fract_z
Si Si1 0.804580 0.507368 0.293301
Si Si2 0.957960 0.731766 0.036362
Si Si3 0.812324 0.130608 0.546147
Si Si4 0.624762 0.441367 0.375397
Si Si5 0.741499 0.055389 0.441935
Si Si6 0.237372 0.068523 0.064721
Si Si7 0.334578 0.638889 0.110341
Si Si8 0.200102 0.493387 0.184751
O O1 0.910295 0.410295 0.290763
O O2 0.715050 0.461286 0.332886
O O3 0.758838 0.517694 0.239307
O O4 0.866428 0.633573 0.306593
O O5 0.891260 0.608741 0.051406
O O6 0.863154 0.838056 0.046455
O O7 0.075192 0.771971 0.065064
O O8 0.992582 0.722918 0.981373
O O9 0.686313 0.186313 0.560799
O O10 0.803566 0.103572 0.490410
O O11 0.915960 0.227401 0.555979
O O12 0.838080 0.016391 0.577961
O O13 0.500000 0.500000 0.360028
O O14 0.605800 0.308713 0.395572
O O15 0.607565 0.107565 0.442806
O O16 0.349501 0.150500 0.081982
O O17 0.176239 0.971331 0.099657
O O18 0.259227 0.759227 0.120936
O O19 0.305672 0.541182 0.151219
O O20 0.096623 0.596623 0.182215
O O21 0.130067 0.369934 0.171296
#
# Coordination Sequence:
#
# PCOD9555473 Si02
#       8
#     8   8   8   8   8   8   8   8
#     4   9  17  32  54  79 105 129 163 218 271 313
#     4  11  22  36  53  74 104 143 185 224 265 314
#     4  10  19  31  46  64  93 130 166 204 246 293
#     4  10  19  30  49  71 100 132 167 204 252 308
#     4  10  19  31  46  64  92 131 168 204 243 293
#     4  11  23  37  52  75 109 147 183 222 272 318
#     4  11  21  34  55  81 105 138 178 220 266 323
#     4   8  16  32  54  80 109 138 171 217 274 329
#
# _framework density 18.241689000000001
#
# number of rings (size 3 to 8) (size 9 to 14) (size 15 to 20)
#    0.000    2.000    2.500    3.000    0.000    2.500 
#    0.000    1.250    0.000    0.000    0.000    3.500 
#    0.000    9.000    0.000    0.000    0.000    0.750 
#
# Total GULP energy -356693.665600 kJ/mol
# GULP energy per Si atom -5573.338525 kJ/mol
# Density = 1.820017 g / cm^3
# Si number density = 18.241689 Si / 1000 Ang^3
#
#
#
# Elastic Constant Matrix: (Units=GPa)
#
#
# Indices 1 2 3 4 5 6 
#
# 1 64.1048 33.3534 24.5426 0.0000 0.0000 0.0000
# 2 33.3534 64.1048 24.5423 0.0000 0.0000 0.0000
# 3 24.5426 24.5423 84.7734 0.0000 0.0000 0.0000
# 4 0.0000 0.0000 0.0000 16.4671 0.0000 0.0000
# 5 0.0000 0.0000 0.0000 0.0000 16.4673 0.0000
# 6 0.0000 0.0000 0.0000 0.0000 0.0000 26.8894
#
#
#
# Elastic Compliance Matrix: (Units=1/GPa)
#
#
# Indices 1 2 3 4 5 6 
#
# 1 0.022266 -0.010253 -0.003478 0.000000 0.000000 0.000000
# 2 -0.010253 0.022266 -0.003478 0.000000 0.000000 0.000000
# 3 -0.003478 -0.003478 0.013810 0.000000 0.000000 0.000000
# 4 0.000000 0.000000 0.000000 0.060727 0.000000 0.000000
# 5 0.000000 0.000000 0.000000 0.000000 0.060726 0.000000
# 6 0.000000 0.000000 0.000000 0.000000 0.000000 0.037189
#
#
# Mechanical properties :
#
#
# Convention : Reuss Voigt Hill
#
# Bulk Modulus (GPa) = 41.79933 41.98440 41.89186
# Shear Modulus (GPa) = 19.27705 20.66773 19.97239
#
# Velocity S-wave (km/s) = 3.25431 3.36965 3.31248
# Velocity P-wave (km/s) = 6.08971 6.18102 6.13554
#
# Compressibility (1/GPa) = 0.02392383
#
# Stress axis : x y z
#
# Youngs Moduli (GPa) = 44.91226 44.91243 72.41256
#
# Poissons Ratio (x) = 0.46050 0.25183
# Poissons Ratio (y) = 0.46050 0.25182
# Poissons Ratio (z) = 0.15619 0.15619
#
# Static dielectric constant tensor:
#      x y z
#    x 1.644700 0.000000 0.000000 
#    y 0.000000 1.644700 0.000000 
#    z 0.000000 0.000000 1.624440 
# 
# From -- ./inp_files/2957.got.cif
#   From: 2010.05.17/outbox.cif.g08.bks.cpg/sg113_cif.got.tgz:2957.got - 2010.05.20 11:03:00.
