data_PCOD9555566
_publ_section_title
;
Structure prediction by ZEFSAII (Michael W. Deem and Ramdas Pophale) SiO2 
 PCOD9555566
Probable space group: P -4 21 M 
;
_chemical_formula_sum "Si O2"
_cell_formula_units_Z 64
_cell_length_a 13.541251
_cell_length_b 13.541251
_cell_length_c 21.716211
_cell_angle_alpha 90.000000
_cell_angle_beta 90.000000
_cell_angle_gamma 90.000000
_cell_volume 3982.003424
_symmetry_space_group_name_H-M "P -4 21 M "
_symmetry_group_IT_number 113
_symmetry_cell_setting 'tetragonal'
loop_
_space_group_symop_operation_xyz
x,y,z
y,-x,-z
-x,-y,z
-y,x,-z
1/2+x,1/2-y,-z
1/2-x,1/2+y,-z
1/2-y,1/2-x,z
1/2+y,1/2+x,z
loop_
_atom_site_type_symbol
_atom_site_label
_atom_site_fract_x
_atom_site_fract_y
_atom_site_fract_z
Si Si1 0.792341 0.871874 0.627926
Si Si2 0.734758 0.397229 0.894606
Si Si3 0.072988 0.262504 0.137198
Si Si4 0.839674 0.498651 0.461825
Si Si5 0.779928 0.118020 0.131677
Si Si6 0.640671 0.541533 0.526899
Si Si7 0.900909 0.237223 0.232221
Si Si8 0.736400 0.402936 0.040231
O O1 0.732860 0.767141 0.625598
O O2 0.720141 0.950126 0.594448
O O3 0.893407 0.869122 0.588606
O O4 0.802862 0.903488 0.698575
O O5 0.834603 0.334603 0.886748
O O6 0.646589 0.329810 0.869196
O O7 0.737473 0.502933 0.863282
O O8 0.720812 0.413725 0.967873
O O9 0.139682 0.360318 0.138281
O O10 0.003581 0.253249 0.196968
O O11 0.002010 0.259951 0.077492
O O12 0.911233 0.411233 0.486793
O O13 0.754607 0.535301 0.507716
O O14 0.911764 0.588237 0.444344
O O15 0.679008 0.179008 0.123796
O O16 0.837156 0.163674 0.189721
O O17 0.849445 0.144471 0.073382
O O18 0.597844 0.429697 0.523406
O O19 0.840068 0.340068 0.233671
O O20 0.827989 0.327989 0.049908
#
# Coordination Sequence:
#
# PCOD9555566 Si02
#       8
#     8   8   8   8   8   8   8   8
#     4   9  17  31  52  75  99 129 164 200 238 286
#     4  10  20  32  47  69  93 119 155 197 244 294
#     4  10  20  33  48  70 102 131 157 198 247 294
#     4   9  17  29  47  73 103 132 162 199 245 294
#     4   9  18  34  50  65  90 120 154 197 237 279
#     4   9  17  30  48  73 103 132 164 201 243 287
#     4   9  19  34  52  73  95 127 167 198 235 290
#     4   9  18  31  48  70  93 120 155 192 237 294
#
# _framework density 16.072310999999999
#
# number of rings (size 3 to 8) (size 9 to 14) (size 15 to 20)
#    0.000    2.750    0.000    2.250    0.000    5.750 
#    0.000   10.000    0.000    0.750    0.000    1.750 
#    0.000    0.000    0.000    0.000    0.000    0.000 
#
# Total GULP energy -356520.576759 kJ/mol
# GULP energy per Si atom -5570.634012 kJ/mol
# Density = 1.603573 g / cm^3
# Si number density = 16.072311 Si / 1000 Ang^3
#
#
#
# Elastic Constant Matrix: (Units=GPa)
#
#
# Indices 1 2 3 4 5 6 
#
# 1 104.9454 38.4103 41.7580 0.0000 0.0000 0.0000
# 2 38.4103 104.9450 41.7579 0.0000 0.0000 0.0000
# 3 41.7580 41.7579 64.6067 0.0000 0.0000 0.0000
# 4 0.0000 0.0000 0.0000 14.2973 0.0000 0.0000
# 5 0.0000 0.0000 0.0000 0.0000 14.2971 0.0000
# 6 0.0000 0.0000 0.0000 0.0000 0.0000 9.5430
#
#
#
# Elastic Compliance Matrix: (Units=1/GPa)
#
#
# Indices 1 2 3 4 5 6 
#
# 1 0.013109 -0.001920 -0.007232 0.000000 0.000000 0.000000
# 2 -0.001920 0.013109 -0.007232 0.000000 0.000000 0.000000
# 3 -0.007232 -0.007232 0.024827 0.000000 0.000000 0.000000
# 4 0.000000 0.000000 0.000000 0.069943 0.000000 0.000000
# 5 0.000000 0.000000 0.000000 0.000000 0.069944 0.000000
# 6 0.000000 0.000000 0.000000 0.000000 0.000000 0.104789
#
#
# Mechanical properties :
#
#
# Convention : Reuss Voigt Hill
#
# Bulk Modulus (GPa) = 54.71320 57.59439 56.15380
# Shear Modulus (GPa) = 14.94404 17.79888 16.37146
#
# Velocity S-wave (km/s) = 3.05257 3.33141 3.19503
# Velocity P-wave (km/s) = 6.82203 7.12110 6.97317
#
# Compressibility (1/GPa) = 0.01827712
#
# Stress axis : x y z
#
# Youngs Moduli (GPa) = 76.28238 76.28216 40.27939
#
# Poissons Ratio (x) = 0.14650 0.29129
# Poissons Ratio (y) = 0.14650 0.29129
# Poissons Ratio (z) = 0.55165 0.55165
#
# Static dielectric constant tensor:
#      x y z
#    x 1.540150 0.000000 0.000000 
#    y 0.000000 1.540150 0.000000 
#    z 0.000000 0.000000 1.522980 
# 
# From -- ./inp_files/2913.got.cif
#   From: 2010.05.17/outbox.cif.g08.bks.cpg/sg113_cif.got.tgz:2913.got - 2010.05.20 11:03:00.
