data_PCOD9555241
_publ_section_title
;
Structure prediction by ZEFSAII (Michael W. Deem and Ramdas Pophale) SiO2 
 PCOD9555241
Probable space group: P -4 2 C
;
_chemical_formula_sum "Si O2"
_cell_formula_units_Z 40
_cell_length_a 11.674554
_cell_length_b 11.674554
_cell_length_c 14.871922
_cell_angle_alpha 90.000000
_cell_angle_beta 90.000000
_cell_angle_gamma 90.000000
_cell_volume 2026.971748
_symmetry_space_group_name_H-M "P -4 2 C"
_symmetry_group_IT_number 112
_symmetry_cell_setting 'tetragonal'
loop_
_space_group_symop_operation_xyz
x,y,z
y,-x,-z
-x,-y,z
-y,x,-z
x,-y,1/2-z
-x,y,1/2-z
-y,-x,1/2+z
y,x,1/2+z
loop_
_atom_site_type_symbol
_atom_site_label
_atom_site_fract_x
_atom_site_fract_y
_atom_site_fract_z
Si Si1 0.519526 0.136453 0.141914
Si Si2 0.890965 0.149312 0.979931
Si Si3 0.731451 0.245812 0.626810
Si Si4 0.128693 0.865555 0.774215
Si Si5 0.549744 0.683736 0.993370
O O1 0.500000 0.156280 0.250000
O O2 0.647612 0.180732 0.121665
O O3 0.450532 0.218668 0.071617
O O4 0.500000 0.000000 0.126002
O O5 0.851593 0.155867 0.878368
O O6 0.841664 0.240985 0.046826
O O7 0.027514 0.147427 0.980163
O O8 0.768054 0.188048 0.718800
O O9 0.602454 0.280028 0.603110
O O10 0.000000 0.820350 0.750000
O O11 0.125206 0.000000 0.750000
O O12 0.632350 0.577215 0.019345
#
# Coordination Sequence:
#
# PCOD9555241 Si02
#       5
#     8   8   8   8   8
#     4  10  24  39  64 100 123 153 211 278 328 371
#     4  11  20  33  53  84 126 173 203 250 326 390
#     4  11  23  36  62  89 120 174 205 261 328 371
#     4  11  20  33  52  88 130 164 207 251 313 410
#     4   9  21  45  65  85 125 168 218 260 312 380
#
# _framework density 19.733872000000002
#
# number of rings (size 3 to 8) (size 9 to 14) (size 15 to 20)
#    0.000    1.600    4.000    1.200    8.400    0.000 
#    0.000    8.000    0.000    0.000    0.000    4.200 
#    0.000    0.000    0.000    0.000    0.000    0.000 
#
# Total GULP energy -222977.899842 kJ/mol
# GULP energy per Si atom -5574.447496 kJ/mol
# Density = 1.968896 g / cm^3
# Si number density = 19.733872 Si / 1000 Ang^3
#
#
#
# Elastic Constant Matrix: (Units=GPa)
#
#
# Indices 1 2 3 4 5 6 
#
# 1 61.2454 32.9883 32.8716 0.0000 0.0000 0.0000
# 2 32.9883 61.2454 32.8716 0.0000 0.0000 0.0000
# 3 32.8716 32.8716 142.2250 0.0000 0.0000 0.0000
# 4 0.0000 0.0000 0.0000 20.3046 0.0000 0.0000
# 5 0.0000 0.0000 0.0000 0.0000 20.3046 0.0000
# 6 0.0000 0.0000 0.0000 0.0000 0.0000 3.7105
#
#
#
# Elastic Compliance Matrix: (Units=1/GPa)
#
#
# Indices 1 2 3 4 5 6 
#
# 1 0.024021 -0.011369 -0.002924 0.000000 0.000000 0.000000
# 2 -0.011369 0.024021 -0.002924 0.000000 0.000000 0.000000
# 3 -0.002924 -0.002924 0.008383 0.000000 0.000000 0.000000
# 4 0.000000 0.000000 0.000000 0.049250 0.000000 0.000000
# 5 0.000000 0.000000 0.000000 0.000000 0.049250 0.000000
# 6 0.000000 0.000000 0.000000 0.000000 0.000000 0.269503
#
#
# Mechanical properties :
#
#
# Convention : Reuss Voigt Hill
#
# Bulk Modulus (GPa) = 45.47502 51.35320 48.41411
# Shear Modulus (GPa) = 10.72522 19.92955 15.32739
#
# Velocity S-wave (km/s) = 2.33382 3.18137 2.78997
# Velocity P-wave (km/s) = 5.50967 6.29080 5.91315
#
# Compressibility (1/GPa) = 0.02199009
#
# Stress axis : x y z
#
# Youngs Moduli (GPa) = 41.63088 41.63088 119.29174
#
# Poissons Ratio (x) = 0.47329 0.34883
# Poissons Ratio (y) = 0.47329 0.34883
# Poissons Ratio (z) = 0.12174 0.12174
#
# Static dielectric constant tensor:
#      x y z
#    x 1.775570 0.000000 0.000000 
#    y 0.000000 1.775570 0.000000 
#    z 0.000000 0.000000 1.712970 
# 
# From -- ./inp_files/3283.got.cif
#   From: 2010.05.17/outbox.cif.g08.bks.cpg/sg112_2_cif.got.tgz:3283.got - 2010.05.20 10:59:04.
