data_PCOD9555581
_publ_section_title
;
Structure prediction by ZEFSAII (Michael W. Deem and Ramdas Pophale) SiO2 
 PCOD9555581
Probable space group: P -4 21 M 
;
_chemical_formula_sum "Si O2"
_cell_formula_units_Z 48
_cell_length_a 11.064678
_cell_length_b 11.064678
_cell_length_c 19.618633
_cell_angle_alpha 90.000000
_cell_angle_beta 90.000000
_cell_angle_gamma 90.000000
_cell_volume 2401.852329
_symmetry_space_group_name_H-M "P -4 21 M "
_symmetry_group_IT_number 113
_symmetry_cell_setting 'tetragonal'
loop_
_space_group_symop_operation_xyz
x,y,z
y,-x,-z
-x,-y,z
-y,x,-z
1/2+x,1/2-y,-z
1/2-x,1/2+y,-z
1/2-y,1/2-x,z
1/2+y,1/2+x,z
loop_
_atom_site_type_symbol
_atom_site_label
_atom_site_fract_x
_atom_site_fract_y
_atom_site_fract_z
Si Si1 0.352137 0.352134 0.395941
Si Si2 0.500001 0.796634 0.500002
Si Si3 0.296002 0.499999 0.000000
Si Si4 0.398009 0.398008 0.238652
Si Si5 0.738856 0.051891 0.148889
Si Si6 0.948110 0.261144 0.148889
O O1 0.250001 0.250000 0.393174
O O2 0.461515 0.290891 0.438045
O O3 0.290895 0.461515 0.438043
O O4 0.383159 0.383155 0.318798
O O5 0.613806 0.886195 0.514789
O O6 0.386198 0.886198 0.485215
O O7 0.225863 0.490106 0.929223
O O8 0.384238 0.615761 0.994081
O O9 0.225864 0.509892 0.070778
O O10 0.500000 0.500000 0.228484
O O11 0.447658 0.281449 0.199249
O O12 0.281449 0.447659 0.199250
O O13 0.619699 0.119699 0.172542
O O14 0.846659 0.153341 0.147277
O O15 0.880301 0.380301 0.172542
#
# Coordination Sequence:
#
# PCOD9555581 Si02
#       6
#     8   8   8   8   8   8
#     4  10  22  38  60  86 112 149 190 225 282 346
#     4   9  20  39  60  86 120 151 186 235 280 330
#     4   9  14  26  50  71  96 140 188 235 284 327
#     4  10  20  34  52  82 112 145 182 232 281 331
#     4   9  17  30  49  77 110 145 187 232 283 336
#     4   9  17  30  49  77 110 145 187 232 283 336
#
# _framework density 19.984577000000002
#
# number of rings (size 3 to 8) (size 9 to 14) (size 15 to 20)
#    0.000    2.667    1.667    0.000    2.333    1.333 
#    0.000    1.667    0.000    2.500    0.000    0.000 
#    0.000    0.000    0.000    0.000    0.000    0.000 
#
# Total GULP energy -267801.026496 kJ/mol
# GULP energy per Si atom -5579.188052 kJ/mol
# Density = 1.993909 g / cm^3
# Si number density = 19.984577 Si / 1000 Ang^3
#
#
#
# Elastic Constant Matrix: (Units=GPa)
#
#
# Indices 1 2 3 4 5 6 
#
# 1 64.8586 55.7639 66.2835 0.0000 0.0000 0.0000
# 2 55.7639 64.8587 66.2835 0.0000 0.0000 0.0000
# 3 66.2835 66.2835 164.5186 0.0000 0.0000 0.0000
# 4 0.0000 0.0000 0.0000 -22.0455 0.0000 0.0000
# 5 0.0000 0.0000 0.0000 0.0000 -22.0457 0.0000
# 6 0.0000 0.0000 0.0000 0.0000 0.0000 8.0870
#
#
#
# Elastic Compliance Matrix: (Units=1/GPa)
#
#
# Indices 1 2 3 4 5 6 
#
# 1 0.062416 -0.047538 -0.005994 0.000000 0.000000 0.000000
# 2 -0.047538 0.062416 -0.005994 0.000000 0.000000 0.000000
# 3 -0.005994 -0.005994 0.010909 0.000000 0.000000 0.000000
# 4 0.000000 0.000000 0.000000 -0.045361 0.000000 0.000000
# 5 0.000000 0.000000 0.000000 0.000000 -0.045360 0.000000
# 6 0.000000 0.000000 0.000000 0.000000 0.000000 0.123656
#
#
# Mechanical properties :
#
#
# Convention : Reuss Voigt Hill
#
# Bulk Modulus (GPa) = 59.92466 74.54417 67.23441
# Shear Modulus (GPa) = 17.04796 -0.14050 8.45373
#
# Velocity S-wave (km/s) = 2.92388 -0.26544 2.05896
# Velocity P-wave (km/s) = 6.43811 6.10638 6.27444
#
# Compressibility (1/GPa) = 0.01668762
#
# Stress axis : x y z
#
# Youngs Moduli (GPa) = 16.02155 16.02159 91.67154
#
# Poissons Ratio (x) = 0.76163 0.54951
# Poissons Ratio (y) = 0.76163 0.54951
# Poissons Ratio (z) = 0.09604 0.09604
#
# Static dielectric constant tensor:
#      x y z
#    x 1.730500 0.000000 0.000000 
#    y 0.000000 1.730500 0.000000 
#    z 0.000000 0.000000 1.665610 
# 
# From -- ./inp_files/2508.got.cif
#   From: 2010.05.17/outbox.cif.g08.bks.cpg/sg113_cif.got.tgz:2508.got - 2010.05.20 11:03:00.
