data_PCOD9555310
_publ_section_title
;
Structure prediction by ZEFSAII (Michael W. Deem and Ramdas Pophale) SiO2 
 PCOD9555310
Probable space group: P -4 2 C
;
_chemical_formula_sum "Si O2"
_cell_formula_units_Z 32
_cell_length_a 9.195247
_cell_length_b 9.195247
_cell_length_c 18.182386
_cell_angle_alpha 90.000000
_cell_angle_beta 90.000000
_cell_angle_gamma 90.000000
_cell_volume 1537.367418
_symmetry_space_group_name_H-M "P -4 2 C"
_symmetry_group_IT_number 112
_symmetry_cell_setting 'tetragonal'
loop_
_space_group_symop_operation_xyz
x,y,z
y,-x,-z
-x,-y,z
-y,x,-z
x,-y,1/2-z
-x,y,1/2-z
-y,-x,1/2+z
y,x,1/2+z
loop_
_atom_site_type_symbol
_atom_site_label
_atom_site_fract_x
_atom_site_fract_y
_atom_site_fract_z
Si Si1 0.826592 0.468022 0.506039
Si Si2 0.625471 0.384805 0.118192
Si Si3 0.821364 0.929001 0.540138
Si Si4 0.070589 0.660676 0.173281
O O1 0.723447 0.557958 0.451130
O O2 0.756663 0.456081 0.586384
O O3 0.820542 0.308552 0.470618
O O4 0.000000 0.500000 0.507088
O O5 0.500000 0.500000 0.138230
O O6 0.754595 0.354387 0.175960
O O7 0.969708 0.839207 0.532984
O O8 0.774037 0.023654 0.609908
O O9 0.000000 0.500000 0.157407
O O10 0.000000 0.706369 0.250000
#
# Coordination Sequence:
#
# PCOD9555310 Si02
#       4
#     8   8   8   8
#     4  12  19  33  60  98 132 159 214 280 324 371
#     4  12  22  37  63  99 130 170 219 275 334 384
#     4  11  21  35  62  95 125 169 225 266 317 391
#     4  11  23  41  64  92 134 172 213 272 339 404
#
# _framework density 20.814803999999999
#
# number of rings (size 3 to 8) (size 9 to 14) (size 15 to 20)
#    0.000    0.500   10.000    0.000    0.000    0.000 
#    0.000    5.000    0.000    0.000    0.000    0.000 
#    0.000    0.000    0.000    0.000    0.000    0.000 
#
# Total GULP energy -178267.584133 kJ/mol
# GULP energy per Si atom -5570.862004 kJ/mol
# Density = 2.076743 g / cm^3
# Si number density = 20.814804 Si / 1000 Ang^3
#
#
#
# Elastic Constant Matrix: (Units=GPa)
#
#
# Indices 1 2 3 4 5 6 
#
# 1 92.5354 20.5301 38.6997 0.0000 0.0000 0.0000
# 2 20.5301 92.5354 38.6997 0.0000 0.0000 0.0000
# 3 38.6997 38.6997 82.4475 0.0000 0.0000 0.0000
# 4 0.0000 0.0000 0.0000 22.5712 0.0000 0.0000
# 5 0.0000 0.0000 0.0000 0.0000 22.5712 0.0000
# 6 0.0000 0.0000 0.0000 0.0000 0.0000 36.3613
#
#
#
# Elastic Compliance Matrix: (Units=1/GPa)
#
#
# Indices 1 2 3 4 5 6 
#
# 1 0.013460 -0.000428 -0.006117 0.000000 0.000000 0.000000
# 2 -0.000428 0.013460 -0.006117 0.000000 0.000000 0.000000
# 3 -0.006117 -0.006117 0.017871 0.000000 0.000000 0.000000
# 4 0.000000 0.000000 0.000000 0.044304 0.000000 0.000000
# 5 0.000000 0.000000 0.000000 0.000000 0.044304 0.000000
# 6 0.000000 0.000000 0.000000 0.000000 0.000000 0.027502
#
#
# Mechanical properties :
#
#
# Convention : Reuss Voigt Hill
#
# Bulk Modulus (GPa) = 51.36853 51.48638 51.42746
# Shear Modulus (GPa) = 25.94516 27.60666 26.77591
#
# Velocity S-wave (km/s) = 3.53438 3.64579 3.59052
# Velocity P-wave (km/s) = 6.43336 6.52009 6.47687
#
# Compressibility (1/GPa) = 0.01946717
#
# Stress axis : x y z
#
# Youngs Moduli (GPa) = 74.29507 74.29507 55.95542
#
# Poissons Ratio (x) = 0.03180 0.34228
# Poissons Ratio (y) = 0.03180 0.34228
# Poissons Ratio (z) = 0.45446 0.45446
#
# Static dielectric constant tensor:
#      x y z
#    x 1.841700 0.000000 0.000000 
#    y 0.000000 1.841700 0.000000 
#    z 0.000000 0.000000 1.766490 
# 
# From -- ./inp_files/4492.got.cif
#   From: 2010.05.17/outbox.cif.g08.bks.cpg/sg112_3_cif.got.tgz:4492.got - 2010.05.20 10:59:04.
