data_PCOD9555787
_publ_section_title
;
Structure prediction by ZEFSAII (Michael W. Deem and Ramdas Pophale) SiO2 
 PCOD9555787
Probable space group: P -4 21 M 
;
_chemical_formula_sum "Si O2"
_cell_formula_units_Z 40
_cell_length_a 14.056147
_cell_length_b 14.056147
_cell_length_c 9.649616
_cell_angle_alpha 90.000000
_cell_angle_beta 90.000000
_cell_angle_gamma 90.000000
_cell_volume 1906.525472
_symmetry_space_group_name_H-M "P -4 21 M "
_symmetry_group_IT_number 113
_symmetry_cell_setting 'tetragonal'
loop_
_space_group_symop_operation_xyz
x,y,z
y,-x,-z
-x,-y,z
-y,x,-z
1/2+x,1/2-y,-z
1/2-x,1/2+y,-z
1/2-y,1/2-x,z
1/2+y,1/2+x,z
loop_
_atom_site_type_symbol
_atom_site_label
_atom_site_fract_x
_atom_site_fract_y
_atom_site_fract_z
Si Si1 0.740233 0.006899 0.727477
Si Si2 0.369191 0.869191 0.916360
Si Si3 0.683487 0.183487 0.533877
Si Si4 0.115722 0.384279 0.765466
Si Si5 0.666829 0.833172 0.558162
Si Si6 0.371268 0.564188 0.053475
Si Si7 0.278640 0.221361 0.057531
Si Si8 0.603598 0.896403 0.274039
O O1 0.664409 0.031904 0.850451
O O2 0.723170 0.090289 0.614613
O O3 0.720075 0.908594 0.652504
O O4 0.839586 0.991656 0.807199
O O5 0.292707 0.792707 0.864984
O O6 0.355958 0.855958 0.079772
O O7 0.659717 0.159717 0.372773
O O8 0.763165 0.263165 0.521269
O O9 0.129966 0.496565 0.761348
O O10 0.611810 0.888191 0.438152
O O11 0.474662 0.615729 0.053343
O O12 0.288939 0.642820 0.020439
O O13 0.332350 0.167651 0.178411
#
# Coordination Sequence:
#
# PCOD9555787 Si02
#       8
#     8   4   4   4   4   8   4   4
#     4  11  24  47  71 105 145 193 248 309 373 454
#     4  11  24  42  72 102 140 188 239 311 365 433
#     4  11  26  47  70 103 153 194 248 306 376 449
#     4  11  24  45  66 103 141 183 239 307 364 433
#     4  12  26  42  72 102 136 203 245 295 377 445
#     4  11  25  45  73 111 147 192 246 312 375 441
#     4  12  24  45  72 105 151 189 241 309 378 445
#     4  11  24  41  66  99 141 185 228 298 368 436
#
# _framework density 20.980574000000001
#
# number of rings (size 3 to 8) (size 9 to 14) (size 15 to 20)
#    0.000    0.800    4.000    3.000    2.800    3.200 
#    0.000    0.000    0.000    0.000    0.000    0.000 
#    0.000    0.000    0.000    0.000    0.000    0.000 
#
# Total GULP energy -223121.218885 kJ/mol
# GULP energy per Si atom -5578.030472 kJ/mol
# Density = 2.093282 g / cm^3
# Si number density = 20.980574 Si / 1000 Ang^3
#
#
#
# Elastic Constant Matrix: (Units=GPa)
#
#
# Indices 1 2 3 4 5 6 
#
# 1 71.1449 51.4938 29.4322 0.0000 0.0000 0.0000
# 2 51.4938 71.1411 29.4331 0.0000 0.0000 0.0000
# 3 29.4322 29.4331 101.9655 0.0000 0.0000 0.0000
# 4 0.0000 0.0000 0.0000 266.5171 0.0000 0.0000
# 5 0.0000 0.0000 0.0000 0.0000 290.6830 0.0000
# 6 0.0000 0.0000 0.0000 0.0000 0.0000 44.6191
#
#
#
# Elastic Compliance Matrix: (Units=1/GPa)
#
#
# Indices 1 2 3 4 5 6 
#
# 1 0.030178 -0.020713 -0.002732 0.000000 0.000000 0.000000
# 2 -0.020713 0.030180 -0.002733 0.000000 0.000000 0.000000
# 3 -0.002732 -0.002733 0.011385 0.000000 0.000000 0.000000
# 4 0.000000 0.000000 0.000000 0.003752 0.000000 0.000000
# 5 0.000000 0.000000 0.000000 0.000000 0.003440 0.000000
# 6 0.000000 0.000000 0.000000 0.000000 0.000000 0.022412
#
#
# Mechanical properties :
#
#
# Convention : Reuss Voigt Hill
#
# Bulk Modulus (GPa) = 51.58161 51.66329 51.62245
# Shear Modulus (GPa) = 31.21775 129.29000 80.25388
#
# Velocity S-wave (km/s) = 3.86156 7.85859 6.19149
# Velocity P-wave (km/s) = 6.67241 10.34510 8.70466
#
# Compressibility (1/GPa) = 0.01938676
#
# Stress axis : x y z
#
# Youngs Moduli (GPa) = 33.13666 33.13439 87.83788
#
# Poissons Ratio (x) = 0.68633 0.23995
# Poissons Ratio (y) = 0.68637 0.24005
# Poissons Ratio (z) = 0.09052 0.09055
#
# Static dielectric constant tensor:
#      x y z
#    x -2.645260 0.000000 0.000000 
#    y 0.000000 -3.110040 0.000000 
#    z 0.000000 0.000000 1.797460 
# 
# From -- ./inp_files/1093.got.cif
#   From: 2010.05.17/outbox.cif.g08.bks.cpg/sg113_cif.got.tgz:1093.got - 2010.05.20 11:03:00.
