data_PCOD9555720
_publ_section_title
;
Structure prediction by ZEFSAII (Michael W. Deem and Ramdas Pophale) SiO2 
 PCOD9555720
Probable space group: P -4 21 M 
;
_chemical_formula_sum "Si O2"
_cell_formula_units_Z 48
_cell_length_a 13.889942
_cell_length_b 13.889942
_cell_length_c 10.123369
_cell_angle_alpha 90.000000
_cell_angle_beta 90.000000
_cell_angle_gamma 90.000000
_cell_volume 1953.106529
_symmetry_space_group_name_H-M "P -4 21 M "
_symmetry_group_IT_number 113
_symmetry_cell_setting 'tetragonal'
loop_
_space_group_symop_operation_xyz
x,y,z
y,-x,-z
-x,-y,z
-y,x,-z
1/2+x,1/2-y,-z
1/2-x,1/2+y,-z
1/2-y,1/2-x,z
1/2+y,1/2+x,z
loop_
_atom_site_type_symbol
_atom_site_label
_atom_site_fract_x
_atom_site_fract_y
_atom_site_fract_z
Si Si1 0.111215 0.982666 0.169372
Si Si2 0.851773 0.505748 0.743414
Si Si3 0.362839 0.291659 0.335591
Si Si4 0.596306 0.246207 0.996552
Si Si5 0.191573 0.145149 0.627730
Si Si6 0.657062 0.004326 0.733591
O O1 0.145753 0.932654 0.033597
O O2 0.140184 0.900822 0.278406
O O3 0.154299 0.086285 0.215837
O O4 0.000000 0.000000 0.175896
O O5 0.929143 0.429143 0.794293
O O6 0.789074 0.445184 0.642916
O O7 0.802169 0.546009 0.874317
O O8 0.907578 0.592423 0.675631
O O9 0.265252 0.234749 0.301051
O O10 0.350710 0.342202 0.475324
O O11 0.705938 0.205938 0.997873
O O12 0.546507 0.206741 0.865361
O O13 0.262129 0.237872 0.650748
O O14 0.259060 0.051753 0.655334
O O15 0.578286 0.921715 0.766518
O O16 0.593212 0.093212 0.675200
#
# Coordination Sequence:
#
# PCOD9555720 Si02
#       6
#     8   8   8   8   8   8
#     4  11  24  40  64  91 125 164 212 260 323 387
#     4   8  13  24  48  83 115 143 185 246 305 350
#     4   9  20  37  59  86 121 163 212 260 312 376
#     4   9  17  34  59  88 119 155 203 256 307 365
#     4  10  22  40  60  89 128 169 208 258 324 387
#     4   9  18  36  64  94 126 168 213 258 313 377
#
# _framework density 24.576232000000001
#
# number of rings (size 3 to 8) (size 9 to 14) (size 15 to 20)
#    0.000    2.667    0.000    1.000    2.333    4.000 
#    3.000    4.167    0.000    0.000    0.000    0.000 
#    0.000    0.000    0.000    0.000    0.000    0.000 
#
# Total GULP energy -267954.852391 kJ/mol
# GULP energy per Si atom -5582.392758 kJ/mol
# Density = 2.452030 g / cm^3
# Si number density = 24.576232 Si / 1000 Ang^3
#
#
#
# Elastic Constant Matrix: (Units=GPa)
#
#
# Indices 1 2 3 4 5 6 
#
# 1 78.8603 41.8386 40.9780 0.0000 0.0000 0.0000
# 2 41.8386 78.8579 40.9781 0.0000 0.0000 0.0000
# 3 40.9780 40.9781 115.2958 0.0000 0.0000 0.0000
# 4 0.0000 0.0000 0.0000 19.6171 0.0000 0.0000
# 5 0.0000 0.0000 0.0000 0.0000 19.6170 0.0000
# 6 0.0000 0.0000 0.0000 0.0000 0.0000 40.7892
#
#
#
# Elastic Compliance Matrix: (Units=1/GPa)
#
#
# Indices 1 2 3 4 5 6 
#
# 1 0.018966 -0.008046 -0.003881 0.000000 0.000000 0.000000
# 2 -0.008046 0.018967 -0.003882 0.000000 0.000000 0.000000
# 3 -0.003881 -0.003882 0.011432 0.000000 0.000000 0.000000
# 4 0.000000 0.000000 0.000000 0.050976 0.000000 0.000000
# 5 0.000000 0.000000 0.000000 0.000000 0.050976 0.000000
# 6 0.000000 0.000000 0.000000 0.000000 0.000000 0.024516
#
#
# Mechanical properties :
#
#
# Convention : Reuss Voigt Hill
#
# Bulk Modulus (GPa) = 56.34377 57.84480 57.09429
# Shear Modulus (GPa) = 23.43385 25.95262 24.69324
#
# Velocity S-wave (km/s) = 3.09126 3.25315 3.17324
# Velocity P-wave (km/s) = 5.97637 6.13992 6.05870
#
# Compressibility (1/GPa) = 0.01774819
#
# Stress axis : x y z
#
# Youngs Moduli (GPa) = 52.72589 52.72390 87.47086
#
# Poissons Ratio (x) = 0.42420 0.33950
# Poissons Ratio (y) = 0.42421 0.33952
# Poissons Ratio (z) = 0.20464 0.20465
#
# Static dielectric constant tensor:
#      x y z
#    x 2.039540 0.000000 0.000000 
#    y 0.000000 2.039550 0.000000 
#    z 0.000000 0.000000 1.866040 
# 
# From -- ./inp_files/1838.got.cif
#   From: 2010.05.17/outbox.cif.g08.bks.cpg/sg113_cif.got.tgz:1838.got - 2010.05.20 11:03:00.
