data_PCOD9555980
_publ_section_title
;
Structure prediction by ZEFSAII (Michael W. Deem and Ramdas Pophale) SiO2 
 PCOD9555980
Probable space group: P -4 21 C
;
_chemical_formula_sum "Si O2"
_cell_formula_units_Z 50
_cell_length_a 8.147284
_cell_length_b 8.147284
_cell_length_c 33.894034
_cell_angle_alpha 90.000000
_cell_angle_beta 90.000000
_cell_angle_gamma 90.000000
_cell_volume 2249.826207
_symmetry_space_group_name_H-M "P -4 21 C"
_symmetry_group_IT_number 114
_symmetry_cell_setting 'tetragonal'
loop_
_space_group_symop_operation_xyz
x,y,z
y,-x,-z
-x,-y,z
-y,x,-z
1/2+x,1/2-y,1/2-z
1/2-x,1/2+y,1/2-z
1/2-y,1/2-x,1/2+z
1/2+y,1/2+x,1/2+z
loop_
_atom_site_type_symbol
_atom_site_label
_atom_site_fract_x
_atom_site_fract_y
_atom_site_fract_z
Si Si1 0.388408 0.755960 0.215597
Si Si2 0.234814 0.271640 0.969507
Si Si3 0.000000 0.000000 0.343294
Si Si4 0.000000 0.000000 0.000000
Si Si5 0.742652 0.765262 0.122545
Si Si6 0.104440 0.758559 0.794579
Si Si7 0.074307 0.327650 0.549355
Si Si8 0.500000 0.000000 0.078801
O O1 0.379807 0.608680 0.184253
O O2 0.573187 0.824898 0.210817
O O3 0.360263 0.678728 0.258513
O O4 0.265468 0.907930 0.207814
O O5 0.128451 0.103924 0.973566
O O6 0.404203 0.267819 0.945876
O O7 0.127707 0.408255 0.948687
O O8 0.259222 0.321401 0.015231
O O9 0.110076 0.875198 0.367539
O O10 0.820816 0.828652 0.163282
O O11 0.850567 0.683633 0.088182
O O12 0.638201 0.915227 0.105273
O O13 0.000000 0.500000 0.534599
#
# Coordination Sequence:
#
# PCOD9555980 Si02
#       8
#     8   8   4   2   8   8   8   4
#     4  10  20  38  67  92 127 171 219 259 324 398
#     4  12  24  43  71  92 129 174 227 267 330 406
#     4  10  20  40  64  94 126 170 210 279 324 401
#     4  12  20  40  68  90 128 160 212 280 312 390
#     4  11  23  40  63  96 135 164 221 274 339 386
#     4  10  21  39  64  95 127 171 216 268 323 397
#     4  12  25  43  64 100 132 172 220 278 331 402
#     4  12  24  42  68  96 126 182 220 272 332 402
#
# _framework density 22.223939000000001
#
# number of rings (size 3 to 8) (size 9 to 14) (size 15 to 20)
#    0.000    0.960    2.400    6.720    0.000    1.600 
#    5.760    0.000    7.040    0.000    0.000    0.000 
#    0.000    0.000    0.000    0.000    0.000    0.000 
#
# Total GULP energy -279602.822768 kJ/mol
# GULP energy per Si atom -5592.056455 kJ/mol
# Density = 2.217336 g / cm^3
# Si number density = 22.223939 Si / 1000 Ang^3
#
#
#
# Elastic Constant Matrix: (Units=GPa)
#
#
# Indices 1 2 3 4 5 6 
#
# 1 65.5562 3.6880 7.1641 0.0000 0.0000 0.0000
# 2 3.6880 65.5562 7.1641 0.0000 0.0000 0.0000
# 3 7.1641 7.1641 78.1321 0.0000 0.0000 0.0000
# 4 0.0000 0.0000 0.0000 21.9397 0.0000 0.0000
# 5 0.0000 0.0000 0.0000 0.0000 21.9397 0.0000
# 6 0.0000 0.0000 0.0000 0.0000 0.0000 31.3541
#
#
#
# Elastic Compliance Matrix: (Units=1/GPa)
#
#
# Indices 1 2 3 4 5 6 
#
# 1 0.015442 -0.000721 -0.001350 0.000000 0.000000 0.000000
# 2 -0.000721 0.015442 -0.001350 0.000000 0.000000 0.000000
# 3 -0.001350 -0.001350 0.013046 0.000000 0.000000 0.000000
# 4 0.000000 0.000000 0.000000 0.045579 0.000000 0.000000
# 5 0.000000 0.000000 0.000000 0.000000 0.045579 0.000000
# 6 0.000000 0.000000 0.000000 0.000000 0.000000 0.031894
#
#
# Mechanical properties :
#
#
# Convention : Reuss Voigt Hill
#
# Bulk Modulus (GPa) = 26.96211 27.25299 27.10755
# Shear Modulus (GPa) = 26.85456 27.79524 27.32490
#
# Velocity S-wave (km/s) = 3.47992 3.54034 3.51026
# Velocity P-wave (km/s) = 5.32023 5.38531 5.35287
#
# Compressibility (1/GPa) = 0.03708908
#
# Stress axis : x y z
#
# Youngs Moduli (GPa) = 64.75769 64.75769 76.64964
#
# Poissons Ratio (x) = 0.04670 0.10346
# Poissons Ratio (y) = 0.04670 0.10346
# Poissons Ratio (z) = 0.08741 0.08741
#
# Static dielectric constant tensor:
#      x y z
#    x 1.845700 0.000000 0.000000 
#    y 0.000000 1.845700 0.000000 
#    z 0.000000 0.000000 1.808620 
# 
# From -- ./inp_files/4052.got.cif
#   From: 2010.05.17/outbox.cif.g08.bks.cpg/sg114_3_cif.got.tgz:4052.got - 2010.05.20 11:04:54.
