data_PCOD9555692
_publ_section_title
;
Structure prediction by ZEFSAII (Michael W. Deem and Ramdas Pophale) SiO2 
 PCOD9555692
Probable space group: P -4 21 M 
;
_chemical_formula_sum "Si O2"
_cell_formula_units_Z 40
_cell_length_a 10.995440
_cell_length_b 10.995440
_cell_length_c 16.653530
_cell_angle_alpha 90.000000
_cell_angle_beta 90.000000
_cell_angle_gamma 90.000000
_cell_volume 2013.406794
_symmetry_space_group_name_H-M "P -4 21 M "
_symmetry_group_IT_number 113
_symmetry_cell_setting 'tetragonal'
loop_
_space_group_symop_operation_xyz
x,y,z
y,-x,-z
-x,-y,z
-y,x,-z
1/2+x,1/2-y,-z
1/2-x,1/2+y,-z
1/2-y,1/2-x,z
1/2+y,1/2+x,z
loop_
_atom_site_type_symbol
_atom_site_label
_atom_site_fract_x
_atom_site_fract_y
_atom_site_fract_z
Si Si1 0.197005 0.895042 0.201181
Si Si2 0.002581 0.295692 0.473577
Si Si3 0.379285 0.304896 0.084692
Si Si4 0.334310 0.372665 0.620542
Si Si5 0.543572 0.766964 0.907958
O O1 0.331009 0.831009 0.197092
O O2 0.162640 0.930693 0.291591
O O3 0.106329 0.791835 0.169366
O O4 0.176623 0.004034 0.139337
O O5 0.891163 0.391163 0.487895
O O6 0.955579 0.196821 0.409066
O O7 0.119438 0.380563 0.451931
O O8 0.038281 0.218999 0.552616
O O9 0.324049 0.175952 0.108747
O O10 0.276107 0.405985 0.095889
O O11 0.409271 0.296389 0.990265
O O12 0.234590 0.265411 0.628505
O O13 0.596001 0.904000 0.912963
#
# Coordination Sequence:
#
# PCOD9555692 Si02
#       5
#     8   8   8   8   8
#     4  10  21  38  61  88 118 155 199 248 302 362
#     4   9  18  36  61  86 118 156 193 241 299 362
#     4  11  22  37  60  88 120 160 200 249 307 362
#     4   9  19  37  60  88 119 153 196 243 299 360
#     4  10  21  38  59  83 117 159 202 248 301 358
#
# _framework density 19.866824999999999
#
# number of rings (size 3 to 8) (size 9 to 14) (size 15 to 20)
#    0.000    2.200    2.000    0.600    0.000    2.000 
#    7.200    5.000    0.000    3.600    0.000    0.000 
#    0.000    0.000    0.000    0.000    0.000    0.000 
#
# Total GULP energy -222801.022162 kJ/mol
# GULP energy per Si atom -5570.025554 kJ/mol
# Density = 1.982161 g / cm^3
# Si number density = 19.866825 Si / 1000 Ang^3
#
#
#
# Elastic Constant Matrix: (Units=GPa)
#
#
# Indices 1 2 3 4 5 6 
#
# 1 32.8267 54.6118 13.9354 0.0000 0.0000 0.0000
# 2 54.6118 32.8328 13.9352 0.0000 0.0000 0.0000
# 3 13.9354 13.9352 66.1908 0.0000 0.0000 0.0000
# 4 0.0000 0.0000 0.0000 13.3958 0.0000 0.0000
# 5 0.0000 0.0000 0.0000 0.0000 13.3957 0.0000
# 6 0.0000 0.0000 0.0000 0.0000 0.0000 25.2468
#
#
#
# Elastic Compliance Matrix: (Units=1/GPa)
#
#
# Indices 1 2 3 4 5 6 
#
# 1 -0.016827 0.029084 -0.002580 0.000000 0.000000 0.000000
# 2 0.029084 -0.016824 -0.002581 0.000000 0.000000 0.000000
# 3 -0.002580 -0.002581 0.016195 0.000000 0.000000 0.000000
# 4 0.000000 0.000000 0.000000 0.074650 0.000000 0.000000
# 5 0.000000 0.000000 0.000000 0.000000 0.074651 0.000000
# 6 0.000000 0.000000 0.000000 0.000000 0.000000 0.039609
#
#
# Mechanical properties :
#
#
# Convention : Reuss Voigt Hill
#
# Bulk Modulus (GPa) = 32.90697 32.97945 32.94321
# Shear Modulus (GPa) = 37.38617 13.69884 25.54250
#
# Velocity S-wave (km/s) = 4.34272 2.62875 3.58954
# Velocity P-wave (km/s) = 6.46107 5.08429 5.81358
#
# Compressibility (1/GPa) = 0.03038870
#
# Stress axis : x y z
#
# Youngs Moduli (GPa) = -59.42816 -59.44052 61.74912
#
# Poissons Ratio (x) = 1.72877 0.15934
# Poissons Ratio (y) = 1.72842 0.15939
# Poissons Ratio (z) = -0.15335 -0.15344
#
# Static dielectric constant tensor:
#      x y z
#    x 1.726970 0.000000 0.000000 
#    y 0.000000 1.726970 0.000000 
#    z 0.000000 0.000000 1.668640 
# 
# From -- ./inp_files/2160.got.cif
#   From: 2010.05.17/outbox.cif.g08.bks.cpg/sg113_cif.got.tgz:2160.got - 2010.05.20 11:03:00.
