data_PCOD9555666
_publ_section_title
;
Structure prediction by ZEFSAII (Michael W. Deem and Ramdas Pophale) SiO2 
 PCOD9555666
Probable space group: P -4 21 M 
;
_chemical_formula_sum "Si O2"
_cell_formula_units_Z 56
_cell_length_a 10.846180
_cell_length_b 10.846180
_cell_length_c 21.754509
_cell_angle_alpha 90.000000
_cell_angle_beta 90.000000
_cell_angle_gamma 90.000000
_cell_volume 2559.192185
_symmetry_space_group_name_H-M "P -4 21 M "
_symmetry_group_IT_number 113
_symmetry_cell_setting 'tetragonal'
loop_
_space_group_symop_operation_xyz
x,y,z
y,-x,-z
-x,-y,z
-y,x,-z
1/2+x,1/2-y,-z
1/2-x,1/2+y,-z
1/2-y,1/2-x,z
1/2+y,1/2+x,z
loop_
_atom_site_type_symbol
_atom_site_label
_atom_site_fract_x
_atom_site_fract_y
_atom_site_fract_z
Si Si1 0.326403 0.614802 0.727112
Si Si2 0.381501 0.329266 0.408560
Si Si3 0.938167 0.231051 0.101867
Si Si4 0.451784 0.740800 0.157024
Si Si5 0.495870 0.800378 0.023881
Si Si6 0.292995 0.002997 0.524809
Si Si7 0.304943 0.002023 0.772164
O O1 0.224807 0.724807 0.726568
O O2 0.333454 0.559852 0.658846
O O3 0.282486 0.526648 0.781577
O O4 0.457669 0.678846 0.742098
O O5 0.277345 0.222655 0.406366
O O6 0.305667 0.452934 0.425770
O O7 0.470350 0.285128 0.463166
O O8 0.820627 0.320627 0.094337
O O9 0.884174 0.115793 0.137525
O O10 0.019776 0.293362 0.154348
O O11 0.993121 0.210651 0.034480
O O12 0.354332 0.854332 0.164784
O O13 0.525377 0.764283 0.093546
O O14 0.358807 0.858807 0.024028
O O15 0.588994 0.911007 0.009642
O O16 0.393375 0.893375 0.515276
O O17 0.374926 0.125075 0.540179
O O18 0.409476 0.909476 0.748055
O O19 0.360124 0.139877 0.763714
#
# Coordination Sequence:
#
# PCOD9555666 Si02
#       7
#     8   8   8   8   8   8   8
#     4  10  21  36  56  82 112 147 186 227 275 342
#     4   9  19  36  58  86 114 144 188 230 275 344
#     4   9  18  33  51  72 101 136 178 230 280 328
#     4  10  21  35  51  77 115 152 184 227 285 345
#     4   9  17  31  52  75 100 137 185 231 277 328
#     4   9  18  35  59  85 116 151 188 239 292 336
#     4   9  18  34  55  76 100 135 181 232 282 329
#
# _framework density 21.881906000000001
#
# number of rings (size 3 to 8) (size 9 to 14) (size 15 to 20)
#    0.000    2.714    0.000    0.857    0.000    5.714 
#    0.000   10.000    0.000    5.143    0.000    0.000 
#    0.000    0.000    0.000    0.000    0.000    0.000 
#
# Total GULP energy -311980.787204 kJ/mol
# GULP energy per Si atom -5571.085486 kJ/mol
# Density = 2.183210 g / cm^3
# Si number density = 21.881906 Si / 1000 Ang^3
#
#
#
# Elastic Constant Matrix: (Units=GPa)
#
#
# Indices 1 2 3 4 5 6 
#
# 1 -550.6642 595.3581 23.1054 0.0000 0.0000 0.0000
# 2 595.3581 -550.5985 23.0956 0.0000 0.0000 0.0000
# 3 23.1054 23.0956 131.8019 0.0000 0.0000 0.0000
# 4 0.0000 0.0000 0.0000 27.8455 0.0000 0.0000
# 5 0.0000 0.0000 0.0000 0.0000 27.8456 0.0000
# 6 0.0000 0.0000 0.0000 0.0000 0.0000 22.5766
#
#
#
# Elastic Compliance Matrix: (Units=1/GPa)
#
#
# Indices 1 2 3 4 5 6 
#
# 1 0.013213 0.014087 -0.004785 0.000000 0.000000 0.000000
# 2 0.014087 0.013215 -0.004785 0.000000 0.000000 0.000000
# 3 -0.004785 -0.004785 0.009264 0.000000 0.000000 0.000000
# 4 0.000000 0.000000 0.000000 0.035912 0.000000 0.000000
# 5 0.000000 0.000000 0.000000 0.000000 0.035912 0.000000
# 6 0.000000 0.000000 0.000000 0.000000 0.000000 0.044294
#
#
# Mechanical properties :
#
#
# Convention : Reuss Voigt Hill
#
# Bulk Modulus (GPa) = 22.35836 34.85083 28.60459
# Shear Modulus (GPa) = 31.70864 -91.74778 -30.01957
#
# Velocity S-wave (km/s) = 3.81081 -6.48225 -3.70792
# Velocity P-wave (km/s) = 5.44086 6.32968 2.28713
#
# Compressibility (1/GPa) = 0.04472600
#
# Stress axis : x y z
#
# Youngs Moduli (GPa) = 75.68215 75.67273 107.93999
#
# Poissons Ratio (x) = -1.06597 0.51646
# Poissons Ratio (y) = -1.06610 0.51650
# Poissons Ratio (z) = 0.36212 0.36210
#
# Static dielectric constant tensor:
#      x y z
#    x 1.775270 0.000000 0.000000 
#    y 0.000000 1.775260 0.000000 
#    z 0.000000 0.000000 1.808150 
# 
# From -- ./inp_files/2740.got.cif
#   From: 2010.05.17/outbox.cif.g08.bks.cpg/sg113_cif.got.tgz:2740.got - 2010.05.20 11:03:00.
