data_PCOD9555514
_publ_section_title
;
Structure prediction by ZEFSAII (Michael W. Deem and Ramdas Pophale) SiO2 
 PCOD9555514
Probable space group: P -4 21 M 
;
_chemical_formula_sum "Si O2"
_cell_formula_units_Z 64
_cell_length_a 12.231037
_cell_length_b 12.231037
_cell_length_c 22.177944
_cell_angle_alpha 90.000000
_cell_angle_beta 90.000000
_cell_angle_gamma 90.000000
_cell_volume 3317.781968
_symmetry_space_group_name_H-M "P -4 21 M "
_symmetry_group_IT_number 113
_symmetry_cell_setting 'tetragonal'
loop_
_space_group_symop_operation_xyz
x,y,z
y,-x,-z
-x,-y,z
-y,x,-z
1/2+x,1/2-y,-z
1/2-x,1/2+y,-z
1/2-y,1/2-x,z
1/2+y,1/2+x,z
loop_
_atom_site_type_symbol
_atom_site_label
_atom_site_fract_x
_atom_site_fract_y
_atom_site_fract_z
Si Si1 0.906435 0.909320 0.232869
Si Si2 0.299894 0.624159 0.424768
Si Si3 0.254538 0.579692 0.112551
Si Si4 0.133654 0.001145 0.350942
Si Si5 0.624099 0.501781 0.890435
Si Si6 0.184977 0.497351 0.988052
Si Si7 0.130609 0.189534 0.442056
Si Si8 0.494978 0.176795 0.760522
O O1 0.829901 0.956098 0.285660
O O2 0.960587 0.796835 0.256877
O O3 0.862125 0.914192 0.164248
O O4 0.000000 0.000000 0.227536
O O5 0.186134 0.686134 0.421998
O O6 0.379868 0.663210 0.371441
O O7 0.357729 0.656105 0.488009
O O8 0.286907 0.494296 0.425187
O O9 0.187769 0.687769 0.097172
O O10 0.373243 0.620089 0.133438
O O11 0.194330 0.521030 0.167789
O O12 0.244749 0.506310 0.052959
O O13 0.168334 0.087745 0.401385
O O14 0.000000 0.000000 0.351843
O O15 0.500000 0.500000 0.916657
O O16 0.720833 0.492399 0.938128
O O17 0.113991 0.386010 0.983358
O O18 0.096044 0.596044 0.983281
O O19 0.207224 0.292776 0.430911
O O20 0.589729 0.089729 0.747871
O O21 0.381116 0.118885 0.738987
#
# Coordination Sequence:
#
# PCOD9555514 Si02
#       8
#     8   8   8   8   8   8   8   8
#     4  10  20  39  55  82 115 153 193 232 279 343
#     4  10  19  34  57  88 119 152 195 238 287 344
#     4  10  20  36  58  82 112 144 181 233 295 353
#     4   9  19  35  59  79 112 154 194 229 277 341
#     4  11  22  37  55  84 116 143 188 234 284 341
#     4  10  23  41  59  82 111 148 190 233 290 354
#     4  10  19  33  57  86 118 151 189 240 291 335
#     4  10  20  36  60  86 113 147 187 237 294 349
#
# _framework density 19.289997
#
# number of rings (size 3 to 8) (size 9 to 14) (size 15 to 20)
#    0.000    2.000    3.750    0.750    1.750    2.750 
#    0.000    6.875    0.000    0.375    0.000    0.000 
#    0.000    0.000    0.000    0.000    0.000    0.000 
#
# Total GULP energy -356466.417332 kJ/mol
# GULP energy per Si atom -5569.787771 kJ/mol
# Density = 1.924609 g / cm^3
# Si number density = 19.289997 Si / 1000 Ang^3
#
#
#
# Elastic Constant Matrix: (Units=GPa)
#
#
# Indices 1 2 3 4 5 6 
#
# 1 80.8614 20.7037 7.7253 0.0000 0.0000 0.0000
# 2 20.7037 80.8633 7.7263 0.0000 0.0000 0.0000
# 3 7.7253 7.7263 56.3747 0.0000 0.0000 0.0000
# 4 0.0000 0.0000 0.0000 6.0946 0.0000 0.0000
# 5 0.0000 0.0000 0.0000 0.0000 6.0939 0.0000
# 6 0.0000 0.0000 0.0000 0.0000 0.0000 11.1554
#
#
#
# Elastic Compliance Matrix: (Units=1/GPa)
#
#
# Indices 1 2 3 4 5 6 
#
# 1 0.013339 -0.003284 -0.001378 0.000000 0.000000 0.000000
# 2 -0.003284 0.013339 -0.001378 0.000000 0.000000 0.000000
# 3 -0.001378 -0.001378 0.018116 0.000000 0.000000 0.000000
# 4 0.000000 0.000000 0.000000 0.164079 0.000000 0.000000
# 5 0.000000 0.000000 0.000000 0.000000 0.164099 0.000000
# 6 0.000000 0.000000 0.000000 0.000000 0.000000 0.089643
#
#
# Mechanical properties :
#
#
# Convention : Reuss Voigt Hill
#
# Bulk Modulus (GPa) = 30.56710 32.26778 31.41744
# Shear Modulus (GPa) = 10.29655 16.79837 13.54746
#
# Velocity S-wave (km/s) = 2.31287 2.95419 2.65298
# Velocity P-wave (km/s) = 4.79718 5.32920 5.07017
#
# Compressibility (1/GPa) = 0.03271491
#
# Stress axis : x y z
#
# Youngs Moduli (GPa) = 74.96688 74.96838 55.19932
#
# Poissons Ratio (x) = 0.24617 0.07606
# Poissons Ratio (y) = 0.24616 0.07607
# Poissons Ratio (z) = 0.10330 0.10332
#
# Static dielectric constant tensor:
#      x y z
#    x 1.694190 0.000000 0.000000 
#    y 0.000000 1.694190 0.000000 
#    z 0.000000 0.000000 1.762070 
# 
# From -- ./inp_files/2938.got.cif
#   From: 2010.05.17/outbox.cif.g08.bks.cpg/sg113_cif.got.tgz:2938.got - 2010.05.20 11:03:00.
