data_PCOD9555129
_publ_section_title
;
Structure prediction by ZEFSAII (Michael W. Deem and Ramdas Pophale) SiO2 
 PCOD9555129
Probable space group: P -4 2 C
;
_chemical_formula_sum "Si O2"
_cell_formula_units_Z 48
_cell_length_a 12.097417
_cell_length_b 12.097417
_cell_length_c 17.006359
_cell_angle_alpha 90.000000
_cell_angle_beta 90.000000
_cell_angle_gamma 90.000000
_cell_volume 2488.838091
_symmetry_space_group_name_H-M "P -4 2 C"
_symmetry_group_IT_number 112
_symmetry_cell_setting 'tetragonal'
loop_
_space_group_symop_operation_xyz
x,y,z
y,-x,-z
-x,-y,z
-y,x,-z
x,-y,1/2-z
-x,y,1/2-z
-y,-x,1/2+z
y,x,1/2+z
loop_
_atom_site_type_symbol
_atom_site_label
_atom_site_fract_x
_atom_site_fract_y
_atom_site_fract_z
Si Si1 0.515259 0.629288 0.593935
Si Si2 0.695507 0.274313 0.146643
Si Si3 0.909713 0.699088 0.066426
Si Si4 0.794047 0.482145 0.540478
Si Si5 0.792149 0.620929 0.209119
Si Si6 0.150370 0.733979 0.000795
O O1 0.500000 0.500000 0.603247
O O2 0.402465 0.678361 0.626676
O O3 0.531178 0.676959 0.506237
O O4 0.605772 0.687678 0.649234
O O5 0.577956 0.217045 0.125054
O O6 0.754145 0.283567 0.230450
O O7 0.778363 0.237667 0.078634
O O8 0.896520 0.654942 0.155487
O O9 0.025754 0.736344 0.031084
O O10 0.873305 0.593627 0.013055
O O11 0.823619 0.800693 0.058892
O O12 0.825418 0.610342 0.532782
O O13 0.811315 0.500000 0.250000
#
# Coordination Sequence:
#
# PCOD9555129 Si02
#       6
#     8   8   8   8   8   8
#     4   9  18  27  44  73 118 164 196 225 277 356
#     4   9  19  30  49  78 114 148 194 235 296 365
#     4  10  21  38  60  83 120 149 203 257 303 364
#     4   9  19  33  52  80 113 156 197 239 291 368
#     4   9  19  35  49  86 124 160 197 238 312 373
#     4  10  21  38  57  84 110 160 204 253 302 349
#
# _framework density 19.286107000000001
#
# number of rings (size 3 to 8) (size 9 to 14) (size 15 to 20)
#    0.000    2.667    0.000    1.500    9.333    4.000 
#    3.000    4.167    0.000    4.000    0.000    9.333 
#    0.000    0.000    0.000    0.000    0.000    0.000 
#
# Total GULP energy -267215.997673 kJ/mol
# GULP energy per Si atom -5566.999952 kJ/mol
# Density = 1.924221 g / cm^3
# Si number density = 19.286107 Si / 1000 Ang^3
#
#
#
# Elastic Constant Matrix: (Units=GPa)
#
#
# Indices 1 2 3 4 5 6 
#
# 1 83.5465 16.9956 17.2152 0.0000 0.0000 0.0000
# 2 16.9956 83.5465 17.2152 0.0000 0.0000 0.0000
# 3 17.2152 17.2152 62.4023 0.0000 0.0000 0.0000
# 4 0.0000 0.0000 0.0000 18.2718 0.0000 0.0000
# 5 0.0000 0.0000 0.0000 0.0000 18.2718 0.0000
# 6 0.0000 0.0000 0.0000 0.0000 0.0000 12.5596
#
#
#
# Elastic Compliance Matrix: (Units=1/GPa)
#
#
# Indices 1 2 3 4 5 6 
#
# 1 0.013005 -0.002021 -0.003030 0.000000 0.000000 0.000000
# 2 -0.002021 0.013005 -0.003030 0.000000 0.000000 0.000000
# 3 -0.003030 -0.003030 0.017697 0.000000 0.000000 0.000000
# 4 0.000000 0.000000 0.000000 0.054729 0.000000 0.000000
# 5 0.000000 0.000000 0.000000 0.000000 0.054729 0.000000
# 6 0.000000 0.000000 0.000000 0.000000 0.000000 0.079620
#
#
# Mechanical properties :
#
#
# Convention : Reuss Voigt Hill
#
# Bulk Modulus (GPa) = 36.30569 36.92746 36.61658
# Shear Modulus (GPa) = 19.37013 21.69193 20.53103
#
# Velocity S-wave (km/s) = 3.17260 3.35736 3.26628
# Velocity P-wave (km/s) = 5.68209 5.84961 5.76646
#
# Compressibility (1/GPa) = 0.02754389
#
# Stress axis : x y z
#
# Youngs Moduli (GPa) = 76.89400 76.89400 56.50704
#
# Poissons Ratio (x) = 0.15542 0.17122
# Poissons Ratio (y) = 0.15542 0.17122
# Poissons Ratio (z) = 0.23300 0.23300
#
# Static dielectric constant tensor:
#      x y z
#    x 1.716680 0.000000 0.000000 
#    y 0.000000 1.716680 0.000000 
#    z 0.000000 0.000000 1.782300 
# 
# From -- ./inp_files/4122.got.cif
#   From: 2010.05.17/outbox.cif.g08.bks.cpg/sg112_3_cif.got.tgz:4122.got - 2010.05.20 10:59:04.
