data_PCOD9555131
_publ_section_title
;
Structure prediction by ZEFSAII (Michael W. Deem and Ramdas Pophale) SiO2 
 PCOD9555131
Probable space group: P -4 2 C
;
_chemical_formula_sum "Si O2"
_cell_formula_units_Z 40
_cell_length_a 8.084097
_cell_length_b 8.084097
_cell_length_c 30.408666
_cell_angle_alpha 90.000000
_cell_angle_beta 90.000000
_cell_angle_gamma 90.000000
_cell_volume 1987.286125
_symmetry_space_group_name_H-M "P -4 2 C"
_symmetry_group_IT_number 112
_symmetry_cell_setting 'tetragonal'
loop_
_space_group_symop_operation_xyz
x,y,z
y,-x,-z
-x,-y,z
-y,x,-z
x,-y,1/2-z
-x,y,1/2-z
-y,-x,1/2+z
y,x,1/2+z
loop_
_atom_site_type_symbol
_atom_site_label
_atom_site_fract_x
_atom_site_fract_y
_atom_site_fract_z
Si Si1 0.690372 0.298918 0.547192
Si Si2 0.806132 0.688221 0.643566
Si Si3 0.695903 0.000001 0.799328
Si Si4 0.298918 0.690371 0.452808
Si Si5 0.193867 0.311778 0.856434
O O1 0.689893 0.500000 0.543583
O O2 0.759411 0.240590 0.500000
O O3 0.500000 0.243832 0.551727
O O4 0.779287 0.260825 0.592636
O O5 0.740895 0.833032 0.674547
O O6 0.779285 0.739174 0.592636
O O7 0.735139 0.499999 0.649261
O O8 1.000000 0.676292 0.651668
O O9 0.500000 0.000000 0.795759
O O10 0.768807 0.000000 0.750000
O O11 0.740896 0.833034 0.825453
#
# Coordination Sequence:
#
# PCOD9555131 Si02
#       5
#     8   8   8   8   8
#     4   8  14  28  52  80 112 153 197 236 279 336
#     4  10  21  38  60  87 121 157 193 239 299 364
#     4  11  25  43  63  87 113 149 201 255 303 352
#     4   8  14  28  52  80 112 153 197 236 279 336
#     4  10  21  38  60  87 121 157 193 239 299 364
#
# _framework density 20.127950999999999
#
# number of rings (size 3 to 8) (size 9 to 14) (size 15 to 20)
#    0.000    2.600    0.000    3.000    0.000    4.800 
#    3.600    4.000    0.000    0.000    0.000    0.000 
#    0.000    0.000    0.000    0.000    0.000    0.000 
#
# Total GULP energy -222915.986970 kJ/mol
# GULP energy per Si atom -5572.899674 kJ/mol
# Density = 2.008214 g / cm^3
# Si number density = 20.127951 Si / 1000 Ang^3
#
#
#
# Elastic Constant Matrix: (Units=GPa)
#
#
# Indices 1 2 3 4 5 6 
#
# 1 69.7541 34.8159 62.3077 0.0000 0.0000 0.0000
# 2 34.8159 69.7541 62.3077 0.0000 0.0000 0.0000
# 3 62.3077 62.3077 177.7344 0.0000 0.0000 0.0000
# 4 0.0000 0.0000 0.0000 19.9089 0.0000 0.0000
# 5 0.0000 0.0000 0.0000 0.0000 19.9089 0.0000
# 6 0.0000 0.0000 0.0000 0.0000 0.0000 19.3912
#
#
#
# Elastic Compliance Matrix: (Units=1/GPa)
#
#
# Indices 1 2 3 4 5 6 
#
# 1 0.022523 -0.006099 -0.005758 0.000000 0.000000 0.000000
# 2 -0.006099 0.022523 -0.005758 0.000000 0.000000 0.000000
# 3 -0.005758 -0.005758 0.009663 0.000000 0.000000 0.000000
# 4 0.000000 0.000000 0.000000 0.050229 0.000000 0.000000
# 5 0.000000 0.000000 0.000000 0.000000 0.050229 0.000000
# 6 0.000000 0.000000 0.000000 0.000000 0.000000 0.051570
#
#
# Mechanical properties :
#
#
# Convention : Reuss Voigt Hill
#
# Bulk Modulus (GPa) = 51.33193 70.67833 61.00513
# Shear Modulus (GPa) = 20.12395 22.36256 21.24325
#
# Velocity S-wave (km/s) = 3.16539 3.33681 3.25223
# Velocity P-wave (km/s) = 6.23841 7.07365 6.66912
#
# Compressibility (1/GPa) = 0.01948105
#
# Stress axis : x y z
#
# Youngs Moduli (GPa) = 44.39847 44.39847 103.48270
#
# Poissons Ratio (x) = 0.27077 0.59585
# Poissons Ratio (y) = 0.27077 0.59585
# Poissons Ratio (z) = 0.25564 0.25564
#
# Static dielectric constant tensor:
#      x y z
#    x 1.725390 0.000000 0.000000 
#    y 0.000000 1.725390 0.000000 
#    z 0.000000 0.000000 1.736640 
# 
# From -- ./inp_files/6138.got.cif
#   From: 2010.05.17/outbox.cif.g08.bks.cpg/sg112_4_cif.got.tgz:6138.got - 2010.05.20 10:59:04.
