data_PCOD9555262
_publ_section_title
;
Structure prediction by ZEFSAII (Michael W. Deem and Ramdas Pophale) SiO2 
 PCOD9555262
Probable space group: P -4 2 C
;
_chemical_formula_sum "Si O2"
_cell_formula_units_Z 30
_cell_length_a 10.651971
_cell_length_b 10.651971
_cell_length_c 11.835830
_cell_angle_alpha 90.000000
_cell_angle_beta 90.000000
_cell_angle_gamma 90.000000
_cell_volume 1342.946370
_symmetry_space_group_name_H-M "P -4 2 C"
_symmetry_group_IT_number 112
_symmetry_cell_setting 'tetragonal'
loop_
_space_group_symop_operation_xyz
x,y,z
y,-x,-z
-x,-y,z
-y,x,-z
x,-y,1/2-z
-x,y,1/2-z
-y,-x,1/2+z
y,x,1/2+z
loop_
_atom_site_type_symbol
_atom_site_label
_atom_site_fract_x
_atom_site_fract_y
_atom_site_fract_z
Si Si1 0.000000 0.000000 0.500000
Si Si2 0.500000 0.709975 0.750000
Si Si3 0.123797 0.418690 0.454796
Si Si4 0.628867 0.777632 0.200650
Si Si5 0.879958 0.842671 0.328140
O O1 0.112979 0.051202 0.423578
O O2 0.494479 0.793758 0.636590
O O3 0.368994 0.637466 0.763125
O O4 0.199834 0.381317 0.567052
O O5 0.096744 0.290088 0.388816
O O6 0.000000 0.500000 0.481194
O O7 0.500000 0.831252 0.250000
O O8 0.752144 0.837927 0.257503
O O9 0.000000 0.862445 0.250000
#
# Coordination Sequence:
#
# PCOD9555262 Si02
#       5
#     2   4   8   8   8
#     4  12  26  44  76  98 152 200 254 304 382 456
#     4  10  24  46  72 106 147 200 239 304 387 458
#     4  11  24  43  76 104 149 190 250 311 383 455
#     4  11  26  45  72 110 149 190 255 310 380 448
#     4  11  25  47  72 107 147 199 255 307 384 459
#
# _framework density 22.338940999999998
#
# number of rings (size 3 to 8) (size 9 to 14) (size 15 to 20)
#    0.000    1.067    0.000    6.000   11.200    0.533 
#    0.000    0.000    0.000    0.000    0.000    0.000 
#    0.000    0.000    0.000    0.000    0.000    0.000 
#
# Total GULP energy -167836.109509 kJ/mol
# GULP energy per Si atom -5594.536984 kJ/mol
# Density = 2.228810 g / cm^3
# Si number density = 22.338941 Si / 1000 Ang^3
#
#
#
# Elastic Constant Matrix: (Units=GPa)
#
#
# Indices 1 2 3 4 5 6 
#
# 1 112.4618 46.5791 51.1602 0.0000 0.0000 0.0000
# 2 46.5791 112.4618 51.1602 0.0000 0.0000 0.0000
# 3 51.1602 51.1602 135.4028 0.0000 0.0000 0.0000
# 4 0.0000 0.0000 0.0000 46.2030 0.0000 0.0000
# 5 0.0000 0.0000 0.0000 0.0000 46.2030 0.0000
# 6 0.0000 0.0000 0.0000 0.0000 0.0000 1.9741
#
#
#
# Elastic Compliance Matrix: (Units=1/GPa)
#
#
# Indices 1 2 3 4 5 6 
#
# 1 0.011743 -0.003436 -0.003139 0.000000 0.000000 0.000000
# 2 -0.003436 0.011743 -0.003139 0.000000 0.000000 0.000000
# 3 -0.003139 -0.003139 0.009757 0.000000 0.000000 0.000000
# 4 0.000000 0.000000 0.000000 0.021644 0.000000 0.000000
# 5 0.000000 0.000000 0.000000 0.000000 0.021644 0.000000
# 6 0.000000 0.000000 0.000000 0.000000 0.000000 0.506569
#
#
# Mechanical properties :
#
#
# Convention : Reuss Voigt Hill
#
# Bulk Modulus (GPa) = 72.37764 73.12507 72.75135
# Shear Modulus (GPa) = 8.23546 32.97114 20.60330
#
# Velocity S-wave (km/s) = 1.92213 3.84598 3.04024
# Velocity P-wave (km/s) = 6.11525 7.24758 6.70536
#
# Compressibility (1/GPa) = 0.01381642
#
# Stress axis : x y z
#
# Youngs Moduli (GPa) = 85.15896 85.15896 102.48835
#
# Poissons Ratio (x) = 0.29258 0.32168
# Poissons Ratio (y) = 0.29258 0.32168
# Poissons Ratio (z) = 0.26729 0.26729
#
# Static dielectric constant tensor:
#      x y z
#    x 1.746570 0.000000 0.000000 
#    y 0.000000 1.746570 0.000000 
#    z 0.000000 0.000000 1.883710 
# 
# From -- ./inp_files/2165.got.cif
#   From: 2010.05.17/outbox.cif.g08.bks.cpg/sg112_2_cif.got.tgz:2165.got - 2010.05.20 10:59:04.
