data_PCOD9555028
_publ_section_title
;
Structure prediction by ZEFSAII (Michael W. Deem and Ramdas Pophale) SiO2 
 PCOD9555028
Probable space group: P -4 2 C
;
_chemical_formula_sum "Si O2"
_cell_formula_units_Z 48
_cell_length_a 11.601611
_cell_length_b 11.601611
_cell_length_c 19.052712
_cell_angle_alpha 90.000000
_cell_angle_beta 90.000000
_cell_angle_gamma 90.000000
_cell_volume 2564.445075
_symmetry_space_group_name_H-M "P -4 2 C"
_symmetry_group_IT_number 112
_symmetry_cell_setting 'tetragonal'
loop_
_space_group_symop_operation_xyz
x,y,z
y,-x,-z
-x,-y,z
-y,x,-z
x,-y,1/2-z
-x,y,1/2-z
-y,-x,1/2+z
y,x,1/2+z
loop_
_atom_site_type_symbol
_atom_site_label
_atom_site_fract_x
_atom_site_fract_y
_atom_site_fract_z
Si Si1 0.989391 0.363473 0.670324
Si Si2 0.665344 0.573725 0.486666
Si Si3 0.307522 0.222633 0.097787
Si Si4 0.861818 0.867887 0.989698
Si Si5 0.735566 0.249216 0.129415
Si Si6 0.637812 0.637105 0.736879
O O1 0.097853 0.311276 0.631501
O O2 0.000000 0.500000 0.672257
O O3 0.000000 0.319692 0.750000
O O4 0.868528 0.335585 0.634834
O O5 0.631650 0.443437 0.473940
O O6 0.766408 0.587476 0.542392
O O7 0.685229 0.647719 0.417817
O O8 0.196464 0.219693 0.046181
O O9 0.325731 0.314751 0.160312
O O10 0.795981 0.845991 0.915376
O O11 0.998933 0.846687 0.987297
O O12 0.723036 0.300165 0.207709
O O13 0.669368 0.500000 0.750000
O O14 0.500000 0.644509 0.750000
#
# Coordination Sequence:
#
# PCOD9555028 Si02
#       6
#     8   8   8   8   8   8
#     4  11  20  32  53  83 115 144 182 239 286 334
#     4  10  20  34  52  78 114 150 184 226 282 352
#     4  11  21  35  58  83 112 149 192 238 289 340
#     4  10  22  42  62  82 110 150 202 248 290 340
#     4  11  21  35  58  83 112 149 192 238 289 340
#     4  11  22  37  60  89 122 157 189 228 284 354
#
# _framework density 18.717497999999999
#
# number of rings (size 3 to 8) (size 9 to 14) (size 15 to 20)
#    0.000    1.333    3.333    4.000    0.000    2.667 
#    0.000    0.833    0.000    4.000    0.000    0.000 
#    0.000    0.000    0.000    0.000    0.000    0.000 
#
# Total GULP energy -267233.840339 kJ/mol
# GULP energy per Si atom -5567.371674 kJ/mol
# Density = 1.867490 g / cm^3
# Si number density = 18.717498 Si / 1000 Ang^3
#
#
#
# Elastic Constant Matrix: (Units=GPa)
#
#
# Indices 1 2 3 4 5 6 
#
# 1 49.0196 1.0912 18.3171 0.0000 0.0000 0.0000
# 2 1.0912 49.0196 18.3171 0.0000 0.0000 0.0000
# 3 18.3171 18.3171 113.9967 0.0000 0.0000 0.0000
# 4 0.0000 0.0000 0.0000 38.4122 0.0000 0.0000
# 5 0.0000 0.0000 0.0000 0.0000 38.4122 0.0000
# 6 0.0000 0.0000 0.0000 0.0000 0.0000 24.5627
#
#
#
# Elastic Compliance Matrix: (Units=1/GPa)
#
#
# Indices 1 2 3 4 5 6 
#
# 1 0.021738 0.000874 -0.003633 0.000000 0.000000 0.000000
# 2 0.000874 0.021738 -0.003633 0.000000 0.000000 0.000000
# 3 -0.003633 -0.003633 0.009940 0.000000 0.000000 0.000000
# 4 0.000000 0.000000 0.000000 0.026033 0.000000 0.000000
# 5 0.000000 0.000000 0.000000 0.000000 0.026033 0.000000
# 6 0.000000 0.000000 0.000000 0.000000 0.000000 0.040712
#
#
# Mechanical properties :
#
#
# Convention : Reuss Voigt Hill
#
# Bulk Modulus (GPa) = 24.61205 31.94296 28.27750
# Shear Modulus (GPa) = 28.98141 31.89812 30.43976
#
# Velocity S-wave (km/s) = 3.93919 4.13266 4.03708
# Velocity P-wave (km/s) = 5.81957 6.31464 6.07215
#
# Compressibility (1/GPa) = 0.04063050
#
# Stress axis : x y z
#
# Youngs Moduli (GPa) = 46.00194 46.00194 100.60565
#
# Poissons Ratio (x) = -0.04020 0.36553
# Poissons Ratio (y) = -0.04020 0.36553
# Poissons Ratio (z) = 0.16714 0.16714
#
# Static dielectric constant tensor:
#      x y z
#    x 1.642460 0.000000 0.000000 
#    y 0.000000 1.642460 0.000000 
#    z 0.000000 0.000000 1.685520 
# 
# From -- ./inp_files/4118.got.cif
#   From: 2010.05.17/outbox.cif.g08.bks.cpg/sg112_3_cif.got.tgz:4118.got - 2010.05.20 10:59:04.
