data_PCOD9555344
_publ_section_title
;
Structure prediction by ZEFSAII (Michael W. Deem and Ramdas Pophale) SiO2 
 PCOD9555344
Probable space group: P -4 2 C
;
_chemical_formula_sum "Si O2"
_cell_formula_units_Z 26
_cell_length_a 7.870359
_cell_length_b 7.870359
_cell_length_c 18.958516
_cell_angle_alpha 90.000000
_cell_angle_beta 90.000000
_cell_angle_gamma 90.000000
_cell_volume 1174.338840
_symmetry_space_group_name_H-M "P -4 2 C"
_symmetry_group_IT_number 112
_symmetry_cell_setting 'tetragonal'
loop_
_space_group_symop_operation_xyz
x,y,z
y,-x,-z
-x,-y,z
-y,x,-z
x,-y,1/2-z
-x,y,1/2-z
-y,-x,1/2+z
y,x,1/2+z
loop_
_atom_site_type_symbol
_atom_site_label
_atom_site_fract_x
_atom_site_fract_y
_atom_site_fract_z
Si Si1 0.445194 0.809290 0.059602
Si Si2 0.257191 0.882179 0.639328
Si Si3 0.000000 0.000000 0.750000
Si Si4 0.604783 0.241502 0.896330
O O1 0.248496 0.804112 0.080431
O O2 0.574285 0.692410 0.105407
O O3 0.500000 0.000000 0.070803
O O4 0.462943 0.767843 0.976909
O O5 0.125289 0.886176 0.702839
O O6 0.445452 0.804725 0.653837
O O7 0.274627 0.077542 0.614095
#
# Coordination Sequence:
#
# PCOD9555344 Si02
#       4
#     8   8   2   8
#     4  12  21  40  71 113 148 174 236 320 397 441
#     4  11  25  44  67 102 145 202 241 303 361 447
#     4  12  28  50  68  96 160 212 268 282 342 470
#     4  11  22  41  72 111 141 179 241 320 391 436
#
# _framework density 22.140118999999999
#
# number of rings (size 3 to 8) (size 9 to 14) (size 15 to 20)
#    0.000    0.615    6.154    2.769    0.000    2.462 
#    0.000    6.923    0.000   14.769    0.000    0.000 
#    0.000    0.000    0.000    0.000    0.000    0.000 
#
# Total GULP energy -145108.436167 kJ/mol
# GULP energy per Si atom -5581.093699 kJ/mol
# Density = 2.208973 g / cm^3
# Si number density = 22.140119 Si / 1000 Ang^3
#
#
#
# Elastic Constant Matrix: (Units=GPa)
#
#
# Indices 1 2 3 4 5 6 
#
# 1 92.2963 39.8760 37.6684 0.0000 0.0000 0.0000
# 2 39.8760 92.2963 37.6684 0.0000 0.0000 0.0000
# 3 37.6684 37.6684 69.6374 0.0000 0.0000 0.0000
# 4 0.0000 0.0000 0.0000 -6.2706 0.0000 0.0000
# 5 0.0000 0.0000 0.0000 0.0000 -6.2706 0.0000
# 6 0.0000 0.0000 0.0000 0.0000 0.0000 37.7557
#
#
#
# Elastic Compliance Matrix: (Units=1/GPa)
#
#
# Indices 1 2 3 4 5 6 
#
# 1 0.015007 -0.004069 -0.005917 0.000000 0.000000 0.000000
# 2 -0.004069 0.015007 -0.005917 0.000000 0.000000 0.000000
# 3 -0.005917 -0.005917 0.020761 0.000000 0.000000 0.000000
# 4 0.000000 0.000000 0.000000 -0.159474 0.000000 0.000000
# 5 0.000000 0.000000 0.000000 0.000000 -0.159474 0.000000
# 6 0.000000 0.000000 0.000000 0.000000 0.000000 0.026486
#
#
# Mechanical properties :
#
#
# Convention : Reuss Voigt Hill
#
# Bulk Modulus (GPa) = 52.71287 53.85062 53.28174
# Shear Modulus (GPa) = -24.56321 14.31071 -5.12625
#
# Velocity S-wave (km/s) = -3.33444 2.54514 -1.52328
# Velocity P-wave (km/s) = 3.00595 5.74564 4.58520
#
# Compressibility (1/GPa) = 0.01897070
#
# Stress axis : x y z
#
# Youngs Moduli (GPa) = 66.63344 66.63344 48.16688
#
# Poissons Ratio (x) = 0.27114 0.28499
# Poissons Ratio (y) = 0.27114 0.28499
# Poissons Ratio (z) = 0.39426 0.39426
#
# Static dielectric constant tensor:
#      x y z
#    x 1.883900 0.000000 0.000000 
#    y 0.000000 1.883900 0.000000 
#    z 0.000000 0.000000 1.789920 
# 
# From -- ./inp_files/3726.got.cif
#   From: 2010.05.17/outbox.cif.g08.bks.cpg/sg112_2_cif.got.tgz:3726.got - 2010.05.20 10:59:04.
