data_PCOD9555623
_publ_section_title
;
Structure prediction by ZEFSAII (Michael W. Deem and Ramdas Pophale) SiO2 
 PCOD9555623
Probable space group: P -4 21 M 
;
_chemical_formula_sum "Si O2"
_cell_formula_units_Z 32
_cell_length_a 13.186373
_cell_length_b 13.186373
_cell_length_c 8.007474
_cell_angle_alpha 90.000000
_cell_angle_beta 90.000000
_cell_angle_gamma 90.000000
_cell_volume 1392.343046
_symmetry_space_group_name_H-M "P -4 21 M "
_symmetry_group_IT_number 113
_symmetry_cell_setting 'tetragonal'
loop_
_space_group_symop_operation_xyz
x,y,z
y,-x,-z
-x,-y,z
-y,x,-z
1/2+x,1/2-y,-z
1/2-x,1/2+y,-z
1/2-y,1/2-x,z
1/2+y,1/2+x,z
loop_
_atom_site_type_symbol
_atom_site_label
_atom_site_fract_x
_atom_site_fract_y
_atom_site_fract_z
Si Si1 0.567797 0.760470 0.322360
Si Si2 0.428928 0.759781 0.995400
Si Si3 0.380168 0.285212 0.805611
Si Si4 0.619684 0.287421 0.531502
O O1 0.649801 0.850200 0.341943
O O2 0.503579 0.777195 0.154384
O O3 0.489054 0.753523 0.475798
O O4 0.629874 0.654524 0.331738
O O5 0.356961 0.856961 0.969200
O O6 0.355419 0.668187 0.049410
O O7 0.503066 0.734249 0.843501
O O8 0.320786 0.179215 0.808837
O O9 0.344553 0.341853 0.638387
O O10 0.691001 0.191001 0.560303
#
# Coordination Sequence:
#
# PCOD9555623 Si02
#       4
#     8   8   8   8
#     4  10  20  36  59  84 113 152 195 235 279 337
#     4  10  21  37  59  85 113 150 193 233 279 339
#     4   9  19  36  55  81 117 148 183 236 288 335
#     4   9  20  37  55  80 115 150 187 236 288 335
#
# _framework density 22.982842000000002
#
# number of rings (size 3 to 8) (size 9 to 14) (size 15 to 20)
#    0.000    2.500    0.000    3.000    0.000    6.500 
#    0.000   10.000    0.000    9.000    0.000    0.000 
#    0.000    0.000    0.000    0.000    0.000    0.000 
#
# Total GULP energy -178780.499885 kJ/mol
# GULP energy per Si atom -5586.890621 kJ/mol
# Density = 2.293053 g / cm^3
# Si number density = 22.982842 Si / 1000 Ang^3
#
#
#
# Elastic Constant Matrix: (Units=GPa)
#
#
# Indices 1 2 3 4 5 6 
#
# 1 108.1869 57.4996 18.1118 0.0000 0.0000 0.0000
# 2 57.4996 108.1912 18.1153 0.0000 0.0000 0.0000
# 3 18.1118 18.1153 74.1695 0.0000 0.0000 0.0000
# 4 0.0000 0.0000 0.0000 32.5758 0.0000 0.0000
# 5 0.0000 0.0000 0.0000 0.0000 32.5766 0.0000
# 6 0.0000 0.0000 0.0000 0.0000 0.0000 17.8812
#
#
#
# Elastic Compliance Matrix: (Units=1/GPa)
#
#
# Indices 1 2 3 4 5 6 
#
# 1 0.013052 -0.006676 -0.001557 0.000000 0.000000 0.000000
# 2 -0.006676 0.013052 -0.001558 0.000000 0.000000 0.000000
# 3 -0.001557 -0.001558 0.014243 0.000000 0.000000 0.000000
# 4 0.000000 0.000000 0.000000 0.030698 0.000000 0.000000
# 5 0.000000 0.000000 0.000000 0.000000 0.030697 0.000000
# 6 0.000000 0.000000 0.000000 0.000000 0.000000 0.055925
#
#
# Mechanical properties :
#
#
# Convention : Reuss Voigt Hill
#
# Bulk Modulus (GPa) = 48.15447 53.11122 50.63284
# Shear Modulus (GPa) = 27.14898 29.72810 28.43854
#
# Velocity S-wave (km/s) = 3.44069 3.60042 3.52146
# Velocity P-wave (km/s) = 6.06484 6.35950 6.21392
#
# Compressibility (1/GPa) = 0.02076650
#
# Stress axis : x y z
#
# Youngs Moduli (GPa) = 76.61610 76.61806 70.20907
#
# Poissons Ratio (x) = 0.51151 0.10929
# Poissons Ratio (y) = 0.51149 0.10935
# Poissons Ratio (z) = 0.11927 0.11933
#
# Static dielectric constant tensor:
#      x y z
#    x 1.829090 0.000000 0.000000 
#    y 0.000000 1.829080 0.000000 
#    z 0.000000 0.000000 2.012220 
# 
# From -- ./inp_files/1536.got.cif
#   From: 2010.05.17/outbox.cif.g08.bks.cpg/sg113_cif.got.tgz:1536.got - 2010.05.20 11:03:00.
