data_PCOD9555461
_publ_section_title
;
Structure prediction by ZEFSAII (Michael W. Deem and Ramdas Pophale) SiO2 
 PCOD9555461
Probable space group: P -4 21 M 
;
_chemical_formula_sum "Si O2"
_cell_formula_units_Z 64
_cell_length_a 12.251801
_cell_length_b 12.251801
_cell_length_c 23.002073
_cell_angle_alpha 90.000000
_cell_angle_beta 90.000000
_cell_angle_gamma 90.000000
_cell_volume 3452.763609
_symmetry_space_group_name_H-M "P -4 21 M "
_symmetry_group_IT_number 113
_symmetry_cell_setting 'tetragonal'
loop_
_space_group_symop_operation_xyz
x,y,z
y,-x,-z
-x,-y,z
-y,x,-z
1/2+x,1/2-y,-z
1/2-x,1/2+y,-z
1/2-y,1/2-x,z
1/2+y,1/2+x,z
loop_
_atom_site_type_symbol
_atom_site_label
_atom_site_fract_x
_atom_site_fract_y
_atom_site_fract_z
Si Si1 0.676917 0.993339 0.910478
Si Si2 0.677716 0.007675 0.694961
Si Si3 0.834457 0.153440 0.342025
Si Si4 0.521733 0.329426 0.228486
Si Si5 0.679627 0.002460 0.125414
Si Si6 0.486456 0.323224 0.016675
Si Si7 0.438564 0.601498 0.456210
Si Si8 0.679599 0.519892 0.195542
O O1 0.616623 0.883378 0.889060
O O2 0.588460 0.088460 0.909160
O O3 0.776607 0.027062 0.869390
O O4 0.718786 0.976235 0.975441
O O5 0.619272 0.119272 0.673474
O O6 0.718764 0.024925 0.760656
O O7 0.584124 0.915877 0.693445
O O8 0.782232 0.950761 0.664032
O O9 0.740975 0.240975 0.327535
O O10 0.824599 0.054985 0.296056
O O11 0.824430 0.113417 0.408212
O O12 0.517840 0.219540 0.191500
O O13 0.617959 0.404999 0.202510
O O14 0.408132 0.390806 0.215975
O O15 0.603939 0.896062 0.120554
O O16 0.605904 0.105904 0.107898
O O17 0.783034 0.991745 0.082830
O O18 0.387796 0.404516 0.001826
O O19 0.358052 0.534726 0.500177
O O20 0.500000 0.500000 0.423964
#
# Coordination Sequence:
#
# PCOD9555461 Si02
#       8
#     8   8   8   8   8   8   8   8
#     4  11  23  37  54  79 107 136 176 226 280 338
#     4   9  18  30  46  75 112 145 178 222 275 332
#     4  10  18  32  57  84 110 150 190 225 272 324
#     4  10  22  35  54  81 108 136 184 230 261 322
#     4  11  24  41  57  75 105 142 176 218 277 334
#     4  11  24  40  59  80 103 130 177 230 278 333
#     4   6  16  30  55  73 109 149 177 220 275 298
#     4  10  20  32  53  75 105 142 174 221 284 329
#
# _framework density 18.535876999999999
#
# number of rings (size 3 to 8) (size 9 to 14) (size 15 to 20)
#    0.750    1.500    0.000    3.375    3.500   10.500 
#    0.000    0.625    0.000    0.750    0.000    0.000 
#    0.000    0.000    0.000    0.000    0.000    0.000 
#
# Total GULP energy -356398.506602 kJ/mol
# GULP energy per Si atom -5568.726666 kJ/mol
# Density = 1.849369 g / cm^3
# Si number density = 18.535877 Si / 1000 Ang^3
#
#
#
# Elastic Constant Matrix: (Units=GPa)
#
#
# Indices 1 2 3 4 5 6 
#
# 1 42.3707 17.0102 20.4006 0.0000 0.0000 0.0000
# 2 17.0102 42.3727 20.4006 0.0000 0.0000 0.0000
# 3 20.4006 20.4006 92.9270 0.0000 0.0000 0.0000
# 4 0.0000 0.0000 0.0000 7.9161 0.0000 0.0000
# 5 0.0000 0.0000 0.0000 0.0000 7.9204 0.0000
# 6 0.0000 0.0000 0.0000 0.0000 0.0000 5.4630
#
#
#
# Elastic Compliance Matrix: (Units=1/GPa)
#
#
# Indices 1 2 3 4 5 6 
#
# 1 0.029631 -0.009799 -0.004354 0.000000 0.000000 0.000000
# 2 -0.009799 0.029630 -0.004354 0.000000 0.000000 0.000000
# 3 -0.004354 -0.004354 0.012673 0.000000 0.000000 0.000000
# 4 0.000000 0.000000 0.000000 0.126324 0.000000 0.000000
# 5 0.000000 0.000000 0.000000 0.000000 0.126256 0.000000
# 6 0.000000 0.000000 0.000000 0.000000 0.000000 0.183050
#
#
# Mechanical properties :
#
#
# Convention : Reuss Voigt Hill
#
# Bulk Modulus (GPa) = 28.63602 32.58813 30.61207
# Shear Modulus (GPa) = 8.98929 12.25051 10.61990
#
# Velocity S-wave (km/s) = 2.20459 2.57360 2.39621
# Velocity P-wave (km/s) = 4.68645 5.14301 4.92002
#
# Compressibility (1/GPa) = 0.03492106
#
# Stress axis : x y z
#
# Youngs Moduli (GPa) = 33.74787 33.74971 78.90980
#
# Poissons Ratio (x) = 0.33072 0.34356
# Poissons Ratio (y) = 0.33070 0.34354
# Poissons Ratio (z) = 0.14693 0.14693
#
# Static dielectric constant tensor:
#      x y z
#    x 1.654630 0.000000 0.000000 
#    y 0.000000 1.654630 0.000000 
#    z 0.000000 0.000000 1.637590 
# 
# From -- ./inp_files/2910.got.cif
#   From: 2010.05.17/outbox.cif.g08.bks.cpg/sg113_cif.got.tgz:2910.got - 2010.05.20 11:03:00.
