data_PCOD9555734
_publ_section_title
;
Structure prediction by ZEFSAII (Michael W. Deem and Ramdas Pophale) SiO2 
 PCOD9555734
Probable space group: P -4 21 M 
;
_chemical_formula_sum "Si O2"
_cell_formula_units_Z 40
_cell_length_a 16.544631
_cell_length_b 16.544631
_cell_length_c 7.446732
_cell_angle_alpha 90.000000
_cell_angle_beta 90.000000
_cell_angle_gamma 90.000000
_cell_volume 2038.355339
_symmetry_space_group_name_H-M "P -4 21 M "
_symmetry_group_IT_number 113
_symmetry_cell_setting 'tetragonal'
loop_
_space_group_symop_operation_xyz
x,y,z
y,-x,-z
-x,-y,z
-y,x,-z
1/2+x,1/2-y,-z
1/2-x,1/2+y,-z
1/2-y,1/2-x,z
1/2+y,1/2+x,z
loop_
_atom_site_type_symbol
_atom_site_label
_atom_site_fract_x
_atom_site_fract_y
_atom_site_fract_z
Si Si1 0.791101 0.422692 0.653676
Si Si2 0.691054 0.322162 0.179822
Si Si3 0.208610 0.839717 0.601179
Si Si4 0.566974 0.199757 0.071525
Si Si5 0.255367 0.011609 0.731059
O O1 0.868012 0.368012 0.698634
O O2 0.712757 0.365567 0.677620
O O3 0.788402 0.501087 0.775359
O O4 0.794025 0.447368 0.444051
O O5 0.775552 0.275552 0.142300
O O6 0.667081 0.300188 0.385312
O O7 0.622825 0.280148 0.059422
O O8 0.702515 0.417999 0.175365
O O9 0.291383 0.791383 0.649937
O O10 0.209360 0.932314 0.659093
O O11 0.627684 0.127684 0.117137
O O12 0.522201 0.185822 0.883731
#
# Coordination Sequence:
#
# PCOD9555734 Si02
#       5
#     8   8   8   8   8
#     4  10  23  42  63  90 127 165 203 255 311 371
#     4   9  20  40  62  86 122 164 205 251 307 372
#     4   9  18  37  64  88 117 162 206 248 307 368
#     4  11  24  40  62  92 126 165 205 252 311 374
#     4  11  21  37  66  93 118 158 217 256 298 362
#
# _framework density 19.623664000000002
#
# number of rings (size 3 to 8) (size 9 to 14) (size 15 to 20)
#    0.000    2.000    2.000    2.400    2.800    2.800 
#    0.000    1.000    0.000    5.400    0.000    0.000 
#    0.000    0.000    0.000    0.000    0.000    0.000 
#
# Total GULP energy -223322.504793 kJ/mol
# GULP energy per Si atom -5583.062620 kJ/mol
# Density = 1.957900 g / cm^3
# Si number density = 19.623664 Si / 1000 Ang^3
#
#
#
# Elastic Constant Matrix: (Units=GPa)
#
#
# Indices 1 2 3 4 5 6 
#
# 1 108.3282 37.6187 3.0950 0.0000 0.0000 0.0000
# 2 37.6187 108.3282 3.0950 0.0000 0.0000 0.0000
# 3 3.0950 3.0950 30.6801 0.0000 0.0000 0.0000
# 4 0.0000 0.0000 0.0000 22.9276 0.0000 0.0000
# 5 0.0000 0.0000 0.0000 0.0000 22.9276 0.0000
# 6 0.0000 0.0000 0.0000 0.0000 0.0000 8.9914
#
#
#
# Elastic Compliance Matrix: (Units=1/GPa)
#
#
# Indices 1 2 3 4 5 6 
#
# 1 0.010512 -0.003631 -0.000694 0.000000 0.000000 0.000000
# 2 -0.003631 0.010512 -0.000694 0.000000 0.000000 0.000000
# 3 -0.000694 -0.000694 0.032734 0.000000 0.000000 0.000000
# 4 0.000000 0.000000 0.000000 0.043616 0.000000 0.000000
# 5 0.000000 0.000000 0.000000 0.000000 0.043616 0.000000
# 6 0.000000 0.000000 0.000000 0.000000 0.000000 0.111218
#
#
# Mechanical properties :
#
#
# Convention : Reuss Voigt Hill
#
# Bulk Modulus (GPa) = 22.87272 37.21711 30.04491
# Shear Modulus (GPa) = 18.06240 24.53782 21.30011
#
# Velocity S-wave (km/s) = 3.03717 3.53996 3.29816
# Velocity P-wave (km/s) = 4.89695 5.97621 5.46330
#
# Compressibility (1/GPa) = 0.04372021
#
# Stress axis : x y z
#
# Youngs Moduli (GPa) = 95.13102 95.13102 30.54887
#
# Poissons Ratio (x) = 0.34538 0.02121
# Poissons Ratio (y) = 0.34538 0.02121
# Poissons Ratio (z) = 0.06604 0.06604
#
# Static dielectric constant tensor:
#      x y z
#    x 1.662790 0.000000 0.000000 
#    y 0.000000 1.662790 0.000000 
#    z 0.000000 0.000000 1.736440 
# 
# From -- ./inp_files/999.got.cif
#   From: 2010.05.17/outbox.cif.g08.bks.cpg/sg113_cif.got.tgz:999.got - 2010.05.20 11:03:00.
