data_PCOD9555403
_publ_section_title
;
Structure prediction by ZEFSAII (Michael W. Deem and Ramdas Pophale) SiO2 
 PCOD9555403
Probable space group: P -4 2 C
;
_chemical_formula_sum "Si O2"
_cell_formula_units_Z 20
_cell_length_a 5.319813
_cell_length_b 5.319813
_cell_length_c 28.704343
_cell_angle_alpha 90.000000
_cell_angle_beta 90.000000
_cell_angle_gamma 90.000000
_cell_volume 812.344686
_symmetry_space_group_name_H-M "P -4 2 C"
_symmetry_group_IT_number 112
_symmetry_cell_setting 'tetragonal'
loop_
_space_group_symop_operation_xyz
x,y,z
y,-x,-z
-x,-y,z
-y,x,-z
x,-y,1/2-z
-x,y,1/2-z
-y,-x,1/2+z
y,x,1/2+z
loop_
_atom_site_type_symbol
_atom_site_label
_atom_site_fract_x
_atom_site_fract_y
_atom_site_fract_z
Si Si1 0.000000 0.000000 0.500000
Si Si2 0.500000 0.000000 0.250000
Si Si3 0.658340 0.756635 0.823998
Si Si4 0.330745 0.249567 0.428189
O O1 0.119933 0.212737 0.467196
O O2 0.686070 0.145029 0.215350
O O3 0.500000 0.500000 0.826709
O O4 0.753737 0.792103 0.876713
O O5 0.500000 0.000000 0.811061
O O6 0.500000 0.500000 0.433920
O O7 0.500000 0.000000 0.430887
#
# Coordination Sequence:
#
# PCOD9555403 Si02
#       4
#     2   2   8   8
#     4  12  32  48  88 122 172 220 292 364 424 518
#     4  12  26  54  84 124 164 226 282 346 438 500
#     4  11  28  52  82 119 168 221 280 350 425 514
#     4  11  29  54  81 123 169 226 284 354 433 510
#
# _framework density 24.620092
#
# number of rings (size 3 to 8) (size 9 to 14) (size 15 to 20)
#    0.000    0.800    2.000    0.600   16.800    6.400 
#    0.000    4.000    0.000    0.000    0.000    0.000 
#    0.000    0.000    0.000    0.000    0.000    0.000 
#
# Total GULP energy -112206.921452 kJ/mol
# GULP energy per Si atom -5610.346073 kJ/mol
# Density = 2.456406 g / cm^3
# Si number density = 24.620092 Si / 1000 Ang^3
#
#
#
# Elastic Constant Matrix: (Units=GPa)
#
#
# Indices 1 2 3 4 5 6 
#
# 1 158.2987 79.1178 90.3611 0.0000 0.0000 0.0000
# 2 79.1178 158.2987 90.3611 0.0000 0.0000 0.0000
# 3 90.3611 90.3611 257.2992 0.0000 0.0000 0.0000
# 4 0.0000 0.0000 0.0000 -162.1353 0.0000 0.0000
# 5 0.0000 0.0000 0.0000 0.0000 -162.1353 0.0000
# 6 0.0000 0.0000 0.0000 0.0000 0.0000 60.6383
#
#
#
# Elastic Compliance Matrix: (Units=1/GPa)
#
#
# Indices 1 2 3 4 5 6 
#
# 1 0.009189 -0.003440 -0.002019 0.000000 0.000000 0.000000
# 2 -0.003440 0.009189 -0.002019 0.000000 0.000000 0.000000
# 3 -0.002019 -0.002019 0.005305 0.000000 0.000000 0.000000
# 4 0.000000 0.000000 0.000000 -0.006168 0.000000 0.000000
# 5 0.000000 0.000000 0.000000 0.000000 -0.006168 0.000000
# 6 0.000000 0.000000 0.000000 0.000000 0.000000 0.016491
#
#
# Mechanical properties :
#
#
# Convention : Reuss Voigt Hill
#
# Bulk Modulus (GPa) = 114.59345 121.50852 118.05099
# Shear Modulus (GPa) = 109.40043 -31.78938 38.80552
#
# Velocity S-wave (km/s) = 6.67322 -3.59722 3.97441
# Velocity P-wave (km/s) = 10.29668 5.67514 8.31351
#
# Compressibility (1/GPa) = 0.00872650
#
# Stress axis : x y z
#
# Youngs Moduli (GPa) = 108.82492 108.82492 188.51601
#
# Poissons Ratio (x) = 0.37438 0.38060
# Poissons Ratio (y) = 0.37438 0.38060
# Poissons Ratio (z) = 0.21971 0.21971
#
# Static dielectric constant tensor:
#      x y z
#    x 1.952380 0.000000 0.000000 
#    y 0.000000 1.952380 0.000000 
#    z 0.000000 0.000000 1.987200 
# 
# From -- ./inp_files/5648.got.cif
#   From: 2010.05.17/outbox.cif.g08.bks.cpg/sg112_3_cif.got.tgz:5648.got - 2010.05.20 10:59:04.
