data_PCOD9555493
_publ_section_title
;
Structure prediction by ZEFSAII (Michael W. Deem and Ramdas Pophale) SiO2 
 PCOD9555493
Probable space group: P -4 21 M 
;
_chemical_formula_sum "Si O2"
_cell_formula_units_Z 64
_cell_length_a 12.217453
_cell_length_b 12.217453
_cell_length_c 23.588181
_cell_angle_alpha 90.000000
_cell_angle_beta 90.000000
_cell_angle_gamma 90.000000
_cell_volume 3520.917148
_symmetry_space_group_name_H-M "P -4 21 M "
_symmetry_group_IT_number 113
_symmetry_cell_setting 'tetragonal'
loop_
_space_group_symop_operation_xyz
x,y,z
y,-x,-z
-x,-y,z
-y,x,-z
1/2+x,1/2-y,-z
1/2-x,1/2+y,-z
1/2-y,1/2-x,z
1/2+y,1/2+x,z
loop_
_atom_site_type_symbol
_atom_site_label
_atom_site_fract_x
_atom_site_fract_y
_atom_site_fract_z
Si Si1 0.255944 0.934036 0.126183
Si Si2 0.958730 0.874135 0.419353
Si Si3 0.821903 0.510058 0.630627
Si Si4 0.681134 0.001173 0.999446
Si Si5 0.754103 0.432514 0.517457
Si Si6 0.853089 0.169451 0.818889
Si Si7 0.873955 0.979730 0.910817
Si Si8 0.661463 0.347657 0.687835
O O1 0.351575 0.851575 0.143900
O O2 0.142515 0.870568 0.114460
O O3 0.232530 0.033463 0.168434
O O4 0.289326 0.986055 0.065476
O O5 0.839526 0.867323 0.448535
O O6 0.940428 0.839173 0.354766
O O7 0.031362 0.798075 0.458776
O O8 0.000000 0.000000 0.423268
O O9 0.880029 0.619972 0.651442
O O10 0.784190 0.523073 0.565147
O O11 0.725390 0.458196 0.667973
O O12 0.915397 0.415397 0.629915
O O13 0.606804 0.106804 0.984101
O O14 0.789124 0.993606 0.961746
O O15 0.605021 0.894980 0.991367
O O16 0.859193 0.359193 0.507661
O O17 0.753154 0.253154 0.827879
O O18 0.848502 0.068979 0.862426
O O19 0.852277 0.132513 0.753655
O O20 0.000000 0.000000 0.928463
O O21 0.747108 0.247108 0.679874
#
# Coordination Sequence:
#
# PCOD9555493 Si02
#       8
#     8   8   8   8   8   8   8   8
#     4  10  22  36  55  84 115 146 183 234 286 334
#     4  11  19  35  53  78 110 143 179 221 273 328
#     4   8  15  28  47  75 106 135 172 218 269 321
#     4  10  21  37  57  83 114 147 183 227 283 339
#     4  10  19  32  51  77 109 144 180 221 274 331
#     4  10  21  38  59  82 111 149 193 232 278 334
#     4  10  22  35  56  82 113 149 188 227 274 330
#     4   9  20  36  55  78 105 144 185 229 274 322
#
# _framework density 18.177081999999999
#
# number of rings (size 3 to 8) (size 9 to 14) (size 15 to 20)
#    0.000    2.250    1.250    2.250    3.500    3.750 
#    0.000    1.250    0.000    3.000    0.000    3.500 
#    0.000    0.000    0.000    0.000    0.000    0.000 
#
# Total GULP energy -357014.527338 kJ/mol
# GULP energy per Si atom -5578.351990 kJ/mol
# Density = 1.813571 g / cm^3
# Si number density = 18.177082 Si / 1000 Ang^3
#
#
#
# Elastic Constant Matrix: (Units=GPa)
#
#
# Indices 1 2 3 4 5 6 
#
# 1 35.6117 3.2773 17.7771 0.0000 0.0000 0.0000
# 2 3.2773 35.6117 17.7771 0.0000 0.0000 0.0000
# 3 17.7771 17.7771 71.9956 0.0000 0.0000 0.0000
# 4 0.0000 0.0000 0.0000 20.1748 0.0000 0.0000
# 5 0.0000 0.0000 0.0000 0.0000 20.1752 0.0000
# 6 0.0000 0.0000 0.0000 0.0000 0.0000 17.1437
#
#
#
# Elastic Compliance Matrix: (Units=1/GPa)
#
#
# Indices 1 2 3 4 5 6 
#
# 1 0.032069 0.001142 -0.008201 0.000000 0.000000 0.000000
# 2 0.001142 0.032069 -0.008201 0.000000 0.000000 0.000000
# 3 -0.008201 -0.008201 0.017939 0.000000 0.000000 0.000000
# 4 0.000000 0.000000 0.000000 0.049567 0.000000 0.000000
# 5 0.000000 0.000000 0.000000 0.000000 0.049566 0.000000
# 6 0.000000 0.000000 0.000000 0.000000 0.000000 0.058330
#
#
# Mechanical properties :
#
#
# Convention : Reuss Voigt Hill
#
# Bulk Modulus (GPa) = 19.39477 24.54244 21.96860
# Shear Modulus (GPa) = 17.40674 18.45792 17.93233
#
# Velocity S-wave (km/s) = 3.09790 3.19007 3.14432
# Velocity P-wave (km/s) = 4.84655 5.20576 5.02936
#
# Compressibility (1/GPa) = 0.05156030
#
# Stress axis : x y z
#
# Youngs Moduli (GPa) = 31.18259 31.18258 55.74296
#
# Poissons Ratio (x) = -0.03562 0.45712
# Poissons Ratio (y) = -0.03562 0.45712
# Poissons Ratio (z) = 0.25571 0.25571
#
# Static dielectric constant tensor:
#      x y z
#    x 1.637470 0.000000 0.000000 
#    y 0.000000 1.637470 0.000000 
#    z 0.000000 0.000000 1.625770 
# 
# From -- ./inp_files/2906.got.cif
#   From: 2010.05.17/outbox.cif.g08.bks.cpg/sg113_cif.got.tgz:2906.got - 2010.05.20 11:03:00.
