data_PCOD9555606
_publ_section_title
;
Structure prediction by ZEFSAII (Michael W. Deem and Ramdas Pophale) SiO2 
 PCOD9555606
Probable space group: P -4 21 M 
;
_chemical_formula_sum "Si O2"
_cell_formula_units_Z 40
_cell_length_a 15.297237
_cell_length_b 15.297237
_cell_length_c 9.095439
_cell_angle_alpha 90.000000
_cell_angle_beta 90.000000
_cell_angle_gamma 90.000000
_cell_volume 2128.382386
_symmetry_space_group_name_H-M "P -4 21 M "
_symmetry_group_IT_number 113
_symmetry_cell_setting 'tetragonal'
loop_
_space_group_symop_operation_xyz
x,y,z
y,-x,-z
-x,-y,z
-y,x,-z
1/2+x,1/2-y,-z
1/2-x,1/2+y,-z
1/2-y,1/2-x,z
1/2+y,1/2+x,z
loop_
_atom_site_type_symbol
_atom_site_label
_atom_site_fract_x
_atom_site_fract_y
_atom_site_fract_z
Si Si1 0.997167 0.354101 0.394906
Si Si2 0.106038 0.247735 0.602564
Si Si3 0.430858 0.601518 0.576325
Si Si4 0.202231 0.998323 0.845176
Si Si5 0.343712 0.693608 0.078189
O O1 0.075451 0.424550 0.373473
O O2 0.020985 0.297177 0.538822
O O3 0.993757 0.287236 0.259102
O O4 0.908706 0.408706 0.409056
O O5 0.179128 0.320873 0.605755
O O6 0.132602 0.176932 0.478519
O O7 0.109218 0.208258 0.764425
O O8 0.506505 0.606821 0.450221
O O9 0.472860 0.623936 0.731632
O O10 0.185939 0.091897 0.921513
O O11 0.210660 0.917115 0.955381
O O12 0.261910 0.761910 0.065690
#
# Coordination Sequence:
#
# PCOD9555606 Si02
#       5
#     8   8   8   8   8
#     4   9  18  37  64  89 114 154 210 264 311 362
#     4   9  19  37  58  83 117 153 193 250 306 355
#     4  10  20  35  58  85 112 147 201 248 295 360
#     4  11  23  37  62  85 127 165 205 248 316 363
#     4  11  24  41  60  90 130 167 207 253 309 376
#
# _framework density 18.793614000000002
#
# number of rings (size 3 to 8) (size 9 to 14) (size 15 to 20)
#    0.000    2.000    2.000    1.200    2.800    1.200 
#    0.000    2.000    0.000    4.800    0.000    0.000 
#    0.000    0.000    0.000    0.000    0.000    0.000 
#
# Total GULP energy -222866.999107 kJ/mol
# GULP energy per Si atom -5571.674978 kJ/mol
# Density = 1.875084 g / cm^3
# Si number density = 18.793614 Si / 1000 Ang^3
#
#
#
# Elastic Constant Matrix: (Units=GPa)
#
#
# Indices 1 2 3 4 5 6 
#
# 1 76.3377 18.1905 34.0932 0.0000 0.0000 0.0000
# 2 18.1905 76.3378 34.0939 0.0000 0.0000 0.0000
# 3 34.0932 34.0939 56.1462 0.0000 0.0000 0.0000
# 4 0.0000 0.0000 0.0000 27.6491 0.0000 0.0000
# 5 0.0000 0.0000 0.0000 0.0000 27.6504 0.0000
# 6 0.0000 0.0000 0.0000 0.0000 0.0000 10.3071
#
#
#
# Elastic Compliance Matrix: (Units=1/GPa)
#
#
# Indices 1 2 3 4 5 6 
#
# 1 0.018011 0.000813 -0.011430 0.000000 0.000000 0.000000
# 2 0.000813 0.018011 -0.011431 0.000000 0.000000 0.000000
# 3 -0.011430 -0.011431 0.031693 0.000000 0.000000 0.000000
# 4 0.000000 0.000000 0.000000 0.036168 0.000000 0.000000
# 5 0.000000 0.000000 0.000000 0.000000 0.036166 0.000000
# 6 0.000000 0.000000 0.000000 0.000000 0.000000 0.097021
#
#
# Mechanical properties :
#
#
# Convention : Reuss Voigt Hill
#
# Bulk Modulus (GPa) = 42.33941 42.39743 42.36842
# Shear Modulus (GPa) = 17.29882 21.28426 19.29154
#
# Velocity S-wave (km/s) = 3.03720 3.36895 3.20737
# Velocity P-wave (km/s) = 5.90568 6.14342 6.02572
#
# Compressibility (1/GPa) = 0.02361865
#
# Stress axis : x y z
#
# Youngs Moduli (GPa) = 55.52218 55.52143 31.55320
#
# Poissons Ratio (x) = -0.04515 0.36066
# Poissons Ratio (y) = -0.04515 0.36068
# Poissons Ratio (z) = 0.63464 0.63465
#
# Static dielectric constant tensor:
#      x y z
#    x 1.709050 0.000000 0.000000 
#    y 0.000000 1.709050 0.000000 
#    z 0.000000 0.000000 1.636950 
# 
# From -- ./inp_files/989.got.cif
#   From: 2010.05.17/outbox.cif.g08.bks.cpg/sg113_cif.got.tgz:989.got - 2010.05.20 11:03:00.
