data_PCOD9555935
_publ_section_title
;
Structure prediction by ZEFSAII (Michael W. Deem and Ramdas Pophale) SiO2 
 PCOD9555935
Probable space group: P -4 21 C
;
_chemical_formula_sum "Si O2"
_cell_formula_units_Z 40
_cell_length_a 17.221068
_cell_length_b 17.221068
_cell_length_c 5.144208
_cell_angle_alpha 90.000000
_cell_angle_beta 90.000000
_cell_angle_gamma 90.000000
_cell_volume 1525.592987
_symmetry_space_group_name_H-M "P -4 21 C"
_symmetry_group_IT_number 114
_symmetry_cell_setting 'tetragonal'
loop_
_space_group_symop_operation_xyz
x,y,z
y,-x,-z
-x,-y,z
-y,x,-z
1/2+x,1/2-y,1/2-z
1/2-x,1/2+y,1/2-z
1/2-y,1/2-x,1/2+z
1/2+y,1/2+x,1/2+z
loop_
_atom_site_type_symbol
_atom_site_label
_atom_site_fract_x
_atom_site_fract_y
_atom_site_fract_z
Si Si1 0.122065 0.004492 0.592566
Si Si2 0.273169 0.940407 0.453235
Si Si3 0.332295 0.231829 0.716851
Si Si4 0.394148 0.693173 0.446689
Si Si5 0.037107 0.599649 0.780887
O O1 0.210473 0.011922 0.490751
O O2 0.138593 0.967969 0.877465
O O3 0.066245 0.077380 0.557613
O O4 0.261955 0.899337 0.729066
O O5 0.357138 0.966256 0.359545
O O6 0.233729 0.894257 0.220619
O O7 0.269638 0.200623 0.506835
O O8 0.353004 0.316400 0.612922
O O9 0.400750 0.169655 0.701017
O O10 0.070482 0.536325 0.577254
#
# Coordination Sequence:
#
# PCOD9555935 Si02
#       5
#     8   8   8   8   8
#     4   9  20  34  50  74 108 152 189 216 250 306
#     4  10  21  35  53  76 109 143 184 221 271 313
#     4  10  20  34  54  78 106 142 185 231 279 325
#     4  10  21  35  53  76 109 143 184 221 271 313
#     4  10  20  34  54  78 106 142 185 231 279 325
#
# _framework density 26.21931
#
# number of rings (size 3 to 8) (size 9 to 14) (size 15 to 20)
#    1.200    1.000    0.000    3.600    0.000    3.200 
#    0.000    2.000    0.000    0.000    0.000    0.000 
#    0.000   56.000    0.000    0.000    0.000    0.000 
#
# Total GULP energy -223438.644196 kJ/mol
# GULP energy per Si atom -5585.966105 kJ/mol
# Density = 2.615963 g / cm^3
# Si number density = 26.219310 Si / 1000 Ang^3
#
#
#
# Elastic Constant Matrix: (Units=GPa)
#
#
# Indices 1 2 3 4 5 6 
#
# 1 82.3559 15.1293 4.3988 0.0000 0.0000 0.0000
# 2 15.1293 82.3559 4.3988 0.0000 0.0000 0.0000
# 3 4.3988 4.3988 115.2246 0.0000 0.0000 0.0000
# 4 0.0000 0.0000 0.0000 -98.1629 0.0000 0.0000
# 5 0.0000 0.0000 0.0000 0.0000 -98.1629 0.0000
# 6 0.0000 0.0000 0.0000 0.0000 0.0000 23.4280
#
#
#
# Elastic Compliance Matrix: (Units=1/GPa)
#
#
# Indices 1 2 3 4 5 6 
#
# 1 0.012584 -0.002291 -0.000393 0.000000 0.000000 0.000000
# 2 -0.002291 0.012584 -0.000393 0.000000 0.000000 0.000000
# 3 -0.000393 -0.000393 0.008709 0.000000 0.000000 0.000000
# 4 0.000000 0.000000 0.000000 -0.010187 0.000000 0.000000
# 5 0.000000 0.000000 0.000000 0.000000 -0.010187 0.000000
# 6 0.000000 0.000000 0.000000 0.000000 0.000000 0.042684
#
#
# Mechanical properties :
#
#
# Convention : Reuss Voigt Hill
#
# Bulk Modulus (GPa) = 36.07019 36.42113 36.24566
# Shear Modulus (GPa) = 69.85037 -17.51225 26.16906
#
# Velocity S-wave (km/s) = 5.16707 -2.58721 3.16267
# Velocity P-wave (km/s) = 7.02746 2.23523 5.21447
#
# Compressibility (1/GPa) = 0.02772373
#
# Stress axis : x y z
#
# Youngs Moduli (GPa) = 79.46446 79.46446 114.82764
#
# Poissons Ratio (x) = 0.18204 0.04512
# Poissons Ratio (y) = 0.18204 0.04512
# Poissons Ratio (z) = 0.03123 0.03123
#
# Static dielectric constant tensor:
#      x y z
#    x 2.165960 0.000000 0.000000 
#    y 0.000000 2.165960 0.000000 
#    z 0.000000 0.000000 2.031060 
# 
# From -- ./inp_files/191.got.cif
#   From: 2010.05.17/outbox.cif.g08.bks.cpg/sg114_1_cif.got.tgz:191.got - 2010.05.20 11:04:54.
