data_PCOD9555771
_publ_section_title
;
Structure prediction by ZEFSAII (Michael W. Deem and Ramdas Pophale) SiO2 
 PCOD9555771
Probable space group: P -4 21 M 
;
_chemical_formula_sum "Si O2"
_cell_formula_units_Z 40
_cell_length_a 14.257804
_cell_length_b 14.257804
_cell_length_c 10.160308
_cell_angle_alpha 90.000000
_cell_angle_beta 90.000000
_cell_angle_gamma 90.000000
_cell_volume 2065.437957
_symmetry_space_group_name_H-M "P -4 21 M "
_symmetry_group_IT_number 113
_symmetry_cell_setting 'tetragonal'
loop_
_space_group_symop_operation_xyz
x,y,z
y,-x,-z
-x,-y,z
-y,x,-z
1/2+x,1/2-y,-z
1/2-x,1/2+y,-z
1/2-y,1/2-x,z
1/2+y,1/2+x,z
loop_
_atom_site_type_symbol
_atom_site_label
_atom_site_fract_x
_atom_site_fract_y
_atom_site_fract_z
Si Si1 0.545690 0.273908 0.634964
Si Si2 0.830353 0.167292 0.390552
Si Si3 0.577967 0.077967 0.505129
Si Si4 0.921957 0.578044 0.802419
Si Si5 0.821613 0.161334 0.892006
Si Si6 0.962492 0.783038 0.857074
O O1 0.438075 0.305499 0.634999
O O2 0.614317 0.325379 0.530607
O O3 0.544082 0.169303 0.579531
O O4 0.595095 0.282797 0.775759
O O5 0.755618 0.255618 0.388393
O O6 0.805620 0.091663 0.278078
O O7 0.598525 0.098525 0.351916
O O8 0.500000 0.000000 0.507642
O O9 0.957809 0.671301 0.870619
O O10 0.000000 0.500000 0.806010
O O11 0.751859 0.251859 0.904783
O O12 0.929108 0.187539 0.858519
O O13 0.823813 0.100367 0.025167
#
# Coordination Sequence:
#
# PCOD9555771 Si02
#       6
#     8   8   4   4   8   8
#     4  12  24  42  68 100 136 179 220 285 341 392
#     4  12  24  44  67  96 138 177 229 278 335 411
#     4  11  22  43  69 103 135 176 233 281 332 388
#     4  11  22  43  73  99 131 180 241 269 324 408
#     4  12  26  44  69  98 138 171 227 282 337 401
#     4  12  24  46  68  96 136 183 220 277 339 400
#
# _framework density 19.366354000000001
#
# number of rings (size 3 to 8) (size 9 to 14) (size 15 to 20)
#    0.000    0.200    6.000    3.600    0.000    4.800 
#    0.000    4.000    0.000    0.000    0.000    0.000 
#    0.000    0.000    0.000    0.000    0.000    0.000 
#
# Total GULP energy -223520.482043 kJ/mol
# GULP energy per Si atom -5588.012051 kJ/mol
# Density = 1.932228 g / cm^3
# Si number density = 19.366354 Si / 1000 Ang^3
#
#
#
# Elastic Constant Matrix: (Units=GPa)
#
#
# Indices 1 2 3 4 5 6 
#
# 1 128.5837 15.0406 -21.2245 0.0000 0.0000 0.0000
# 2 15.0406 128.5842 -21.2239 0.0000 0.0000 0.0000
# 3 -21.2245 -21.2239 11.7393 0.0000 0.0000 0.0000
# 4 0.0000 0.0000 0.0000 38.2233 0.0000 0.0000
# 5 0.0000 0.0000 0.0000 0.0000 38.2194 0.0000
# 6 0.0000 0.0000 0.0000 0.0000 0.0000 33.3762
#
#
#
# Elastic Compliance Matrix: (Units=1/GPa)
#
#
# Indices 1 2 3 4 5 6 
#
# 1 0.011880 0.003073 0.027034 0.000000 0.000000 0.000000
# 2 0.003073 0.011880 0.027033 0.000000 0.000000 0.000000
# 3 0.027034 0.027033 0.182935 0.000000 0.000000 0.000000
# 4 0.000000 0.000000 0.000000 0.026162 0.000000 0.000000
# 5 0.000000 0.000000 0.000000 0.000000 0.026165 0.000000
# 6 0.000000 0.000000 0.000000 0.000000 0.000000 0.029961
#
#
# Mechanical properties :
#
#
# Convention : Reuss Voigt Hill
#
# Bulk Modulus (GPa) = 3.11552 23.78793 13.45173
# Shear Modulus (GPa) = 17.74967 41.71812 29.73390
#
# Velocity S-wave (km/s) = 3.03069 4.64632 3.92259
# Velocity P-wave (km/s) = 3.72277 6.41048 5.24181
#
# Compressibility (1/GPa) = 0.32097329
#
# Stress axis : x y z
#
# Youngs Moduli (GPa) = 84.17532 84.17795 5.46642
#
# Poissons Ratio (x) = -0.25864 -0.14778
# Poissons Ratio (y) = -0.25864 -0.14777
# Poissons Ratio (z) = -2.27559 -2.27557
#
# Static dielectric constant tensor:
#      x y z
#    x 1.633450 0.000000 0.000000 
#    y 0.000000 1.633460 0.000000 
#    z 0.000000 0.000000 1.669170 
# 
# From -- ./inp_files/1036.got.cif
#   From: 2010.05.17/outbox.cif.g08.bks.cpg/sg113_cif.got.tgz:1036.got - 2010.05.20 11:03:00.
