data_PCOD9555153
_publ_section_title
;
Structure prediction by ZEFSAII (Michael W. Deem and Ramdas Pophale) SiO2 
 PCOD9555153
Probable space group: P -4 2 C
;
_chemical_formula_sum "Si O2"
_cell_formula_units_Z 40
_cell_length_a 15.301412
_cell_length_b 15.301412
_cell_length_c 8.152069
_cell_angle_alpha 90.000000
_cell_angle_beta 90.000000
_cell_angle_gamma 90.000000
_cell_volume 1908.670077
_symmetry_space_group_name_H-M "P -4 2 C"
_symmetry_group_IT_number 112
_symmetry_cell_setting 'tetragonal'
loop_
_space_group_symop_operation_xyz
x,y,z
y,-x,-z
-x,-y,z
-y,x,-z
x,-y,1/2-z
-x,y,1/2-z
-y,-x,1/2+z
y,x,1/2+z
loop_
_atom_site_type_symbol
_atom_site_label
_atom_site_fract_x
_atom_site_fract_y
_atom_site_fract_z
Si Si1 0.816970 0.305529 0.876540
Si Si2 0.942523 0.420117 0.467444
Si Si3 0.700088 0.000000 0.250000
Si Si4 0.823353 0.500000 0.750000
Si Si5 0.945077 0.891389 0.091877
Si Si6 0.151100 0.279439 0.237691
O O1 0.898663 0.268166 0.762572
O O2 0.793105 0.406243 0.831436
O O3 0.733012 0.248075 0.830505
O O4 0.842069 0.284097 0.065564
O O5 0.999218 0.357018 0.584181
O O6 0.875074 0.460459 0.596501
O O7 0.897151 0.364886 0.327244
O O8 0.000000 0.500000 0.413318
O O9 0.898732 0.802103 0.147162
O O10 0.000000 0.913883 0.250000
O O11 0.025332 0.885243 0.959602
#
# Coordination Sequence:
#
# PCOD9555153 Si02
#       6
#     8   8   4   4   8   8
#     4  11  24  47  65 100 137 186 238 305 372 429
#     4  11  20  41  63 100 133 182 234 296 363 432
#     4  10  21  40  66  86 137 174 240 291 352 428
#     4  10  21  44  68  94 138 177 232 300 369 440
#     4  11  25  44  57  82 124 187 258 309 354 413
#     4  12  28  43  67 100 144 187 247 314 362 440
#
# _framework density 20.957001000000002
#
# number of rings (size 3 to 8) (size 9 to 14) (size 15 to 20)
#    0.000    1.000    4.000    4.800    5.600    0.800 
#   10.800    0.000    0.000    0.000    0.000    0.000 
#    0.000   38.400    0.000    0.400    0.000    0.000 
#
# Total GULP energy -222821.807439 kJ/mol
# GULP energy per Si atom -5570.545186 kJ/mol
# Density = 2.090930 g / cm^3
# Si number density = 20.957001 Si / 1000 Ang^3
#
#
#
# Elastic Constant Matrix: (Units=GPa)
#
#
# Indices 1 2 3 4 5 6 
#
# 1 107.4990 50.5986 37.5903 0.0000 0.0000 0.0000
# 2 50.5986 107.4990 37.5903 0.0000 0.0000 0.0000
# 3 37.5903 37.5903 141.2787 0.0000 0.0000 0.0000
# 4 0.0000 0.0000 0.0000 33.2497 0.0000 0.0000
# 5 0.0000 0.0000 0.0000 0.0000 33.2497 0.0000
# 6 0.0000 0.0000 0.0000 0.0000 0.0000 46.6015
#
#
#
# Elastic Compliance Matrix: (Units=1/GPa)
#
#
# Indices 1 2 3 4 5 6 
#
# 1 0.012408 -0.005167 -0.001927 0.000000 0.000000 0.000000
# 2 -0.005167 0.012408 -0.001927 0.000000 0.000000 0.000000
# 3 -0.001927 -0.001927 0.008104 0.000000 0.000000 0.000000
# 4 0.000000 0.000000 0.000000 0.030075 0.000000 0.000000
# 5 0.000000 0.000000 0.000000 0.000000 0.030075 0.000000
# 6 0.000000 0.000000 0.000000 0.000000 0.000000 0.021459
#
#
# Mechanical properties :
#
#
# Convention : Reuss Voigt Hill
#
# Bulk Modulus (GPa) = 67.20697 67.53725 67.37211
# Shear Modulus (GPa) = 36.35599 37.98667 37.17133
#
# Velocity S-wave (km/s) = 4.16960 4.26208 4.21610
# Velocity P-wave (km/s) = 7.43770 7.51778 7.47785
#
# Compressibility (1/GPa) = 0.01487941
#
# Stress axis : x y z
#
# Youngs Moduli (GPa) = 80.59322 80.59322 123.40328
#
# Poissons Ratio (x) = 0.41639 0.23777
# Poissons Ratio (y) = 0.41639 0.23777
# Poissons Ratio (z) = 0.15528 0.15528
#
# Static dielectric constant tensor:
#      x y z
#    x 1.827980 0.000000 0.000000 
#    y 0.000000 1.827980 0.000000 
#    z 0.000000 0.000000 1.927140 
# 
# From -- ./inp_files/1301.got.cif
#   From: 2010.05.17/outbox.cif.g08.bks.cpg/sg112_1_cif.got.tgz:1301.got - 2010.05.20 10:59:04.
