data_PCOD9555727
_publ_section_title
;
Structure prediction by ZEFSAII (Michael W. Deem and Ramdas Pophale) SiO2 
 PCOD9555727
Probable space group: P -4 21 M 
;
_chemical_formula_sum "Si O2"
_cell_formula_units_Z 40
_cell_length_a 15.182030
_cell_length_b 15.182030
_cell_length_c 9.146797
_cell_angle_alpha 90.000000
_cell_angle_beta 90.000000
_cell_angle_gamma 90.000000
_cell_volume 2108.282147
_symmetry_space_group_name_H-M "P -4 21 M "
_symmetry_group_IT_number 113
_symmetry_cell_setting 'tetragonal'
loop_
_space_group_symop_operation_xyz
x,y,z
y,-x,-z
-x,-y,z
-y,x,-z
1/2+x,1/2-y,-z
1/2-x,1/2+y,-z
1/2-y,1/2-x,z
1/2+y,1/2+x,z
loop_
_atom_site_type_symbol
_atom_site_label
_atom_site_fract_x
_atom_site_fract_y
_atom_site_fract_z
Si Si1 0.510314 0.710190 0.609383
Si Si2 0.000703 0.645663 0.136632
Si Si3 0.209604 0.854177 0.391604
Si Si4 0.788061 0.051040 0.096392
Si Si5 0.923297 0.072690 0.830905
O O1 0.515129 0.789525 0.726450
O O2 0.609387 0.677362 0.577772
O O3 0.445463 0.730779 0.475335
O O4 0.459081 0.632616 0.694375
O O5 0.920719 0.579282 0.169412
O O6 0.087132 0.587132 0.111522
O O7 0.975136 0.701663 0.992978
O O8 0.278645 0.778645 0.434919
O O9 0.218765 0.874070 0.218185
O O10 0.832715 0.968368 0.178381
O O11 0.859350 0.074560 0.970934
O O12 0.000000 0.000000 0.844354
#
# Coordination Sequence:
#
# PCOD9555727 Si02
#       5
#     8   8   8   8   8
#     4  11  24  39  63  86 126 164 204 253 315 369
#     4  10  22  42  63  84 118 170 217 249 298 369
#     4  12  25  40  60  94 128 162 210 257 314 374
#     4  11  19  35  62  93 123 151 197 263 309 366
#     4  11  18  35  60  92 120 152 191 241 317 382
#
# _framework density 18.972792999999999
#
# number of rings (size 3 to 8) (size 9 to 14) (size 15 to 20)
#    0.000    1.000    4.000    4.200    0.000    0.000 
#    0.000    9.000    0.000    4.800    0.000    0.000 
#    0.000    0.000    0.000    0.000    0.000    0.000 
#
# Total GULP energy -223312.794538 kJ/mol
# GULP energy per Si atom -5582.819863 kJ/mol
# Density = 1.892961 g / cm^3
# Si number density = 18.972793 Si / 1000 Ang^3
#
#
#
# Elastic Constant Matrix: (Units=GPa)
#
#
# Indices 1 2 3 4 5 6 
#
# 1 105.3711 46.8420 34.6366 0.0000 0.0000 0.0000
# 2 46.8420 105.3715 34.6360 0.0000 0.0000 0.0000
# 3 34.6366 34.6360 77.2080 0.0000 0.0000 0.0000
# 4 0.0000 0.0000 0.0000 13.0014 0.0000 0.0000
# 5 0.0000 0.0000 0.0000 0.0000 13.0023 0.0000
# 6 0.0000 0.0000 0.0000 0.0000 0.0000 30.7072
#
#
#
# Elastic Compliance Matrix: (Units=1/GPa)
#
#
# Indices 1 2 3 4 5 6 
#
# 1 0.012670 -0.004415 -0.003703 0.000000 0.000000 0.000000
# 2 -0.004415 0.012670 -0.003703 0.000000 0.000000 0.000000
# 3 -0.003703 -0.003703 0.016275 0.000000 0.000000 0.000000
# 4 0.000000 0.000000 0.000000 0.076915 0.000000 0.000000
# 5 0.000000 0.000000 0.000000 0.000000 0.076910 0.000000
# 6 0.000000 0.000000 0.000000 0.000000 0.000000 0.032566
#
#
# Mechanical properties :
#
#
# Convention : Reuss Voigt Hill
#
# Bulk Modulus (GPa) = 55.64321 57.79776 56.72048
# Shear Modulus (GPa) = 19.40694 22.79790 21.10242
#
# Velocity S-wave (km/s) = 3.20172 3.47019 3.33865
# Velocity P-wave (km/s) = 6.56198 6.82538 6.69498
#
# Compressibility (1/GPa) = 0.01797164
#
# Stress axis : x y z
#
# Youngs Moduli (GPa) = 78.92440 78.92527 61.44498
#
# Poissons Ratio (x) = 0.34847 0.22756
# Poissons Ratio (y) = 0.34846 0.22754
# Poissons Ratio (z) = 0.29229 0.29228
#
# Static dielectric constant tensor:
#      x y z
#    x 1.655340 0.000000 0.000000 
#    y 0.000000 1.655340 0.000000 
#    z 0.000000 0.000000 1.686150 
# 
# From -- ./inp_files/1023.got.cif
#   From: 2010.05.17/outbox.cif.g08.bks.cpg/sg113_cif.got.tgz:1023.got - 2010.05.20 11:03:00.
