data_PCOD9555265
_publ_section_title
;
Structure prediction by ZEFSAII (Michael W. Deem and Ramdas Pophale) SiO2 
 PCOD9555265
Probable space group: P -4 2 C
;
_chemical_formula_sum "Si O2"
_cell_formula_units_Z 40
_cell_length_a 13.307137
_cell_length_b 13.307137
_cell_length_c 9.037287
_cell_angle_alpha 90.000000
_cell_angle_beta 90.000000
_cell_angle_gamma 90.000000
_cell_volume 1600.321834
_symmetry_space_group_name_H-M "P -4 2 C"
_symmetry_group_IT_number 112
_symmetry_cell_setting 'tetragonal'
loop_
_space_group_symop_operation_xyz
x,y,z
y,-x,-z
-x,-y,z
-y,x,-z
x,-y,1/2-z
-x,y,1/2-z
-y,-x,1/2+z
y,x,1/2+z
loop_
_atom_site_type_symbol
_atom_site_label
_atom_site_fract_x
_atom_site_fract_y
_atom_site_fract_z
Si Si1 0.000000 0.000000 0.000000
Si Si2 0.000000 0.500000 0.250000
Si Si3 0.216420 0.959551 0.583079
Si Si4 0.611779 0.641356 0.813508
Si Si5 0.373023 0.893224 0.003981
Si Si6 0.500000 0.500000 0.500000
Si Si7 0.500000 0.000000 0.250000
Si Si8 0.698342 0.249920 0.449872
O O1 0.959034 0.096656 0.084956
O O2 0.068186 0.434314 0.139172
O O3 0.254818 0.857401 0.499642
O O4 0.243111 0.000000 0.750000
O O5 0.269503 0.044349 0.485794
O O6 0.500000 0.647649 0.750000
O O7 0.595771 0.537607 0.905475
O O8 0.708921 0.655690 0.706893
O O9 0.615225 0.733386 0.927311
O O10 0.336427 0.780740 0.983242
O O11 0.436219 0.926752 0.145186
#
# Coordination Sequence:
#
# PCOD9555265 Si02
#       8
#     2   2   8   8   8   2   2   8
#     4  12  26  48  84 122 168 210 264 364 434 510
#     4  10  24  46  76 100 160 212 252 322 416 500
#     4  12  26  51  82 119 164 216 276 348 429 523
#     4  12  28  50  78 117 160 221 279 350 417 508
#     4  11  25  49  74 112 158 203 268 330 412 506
#     4  12  26  56  82 116 178 224 286 360 446 500
#     4  10  28  46  72 108 150 206 256 342 404 476
#     4  12  29  48  83 119 160 219 283 340 424 520
#
# _framework density 24.994973000000002
#
# number of rings (size 3 to 8) (size 9 to 14) (size 15 to 20)
#    0.000    0.400    5.000    1.800    4.200    1.600 
#    3.600    0.000    0.000    0.000    0.000    0.000 
#    0.000    0.000    0.000    0.000    0.000    0.000 
#
# Total GULP energy -223060.747855 kJ/mol
# GULP energy per Si atom -5576.518696 kJ/mol
# Density = 2.493808 g / cm^3
# Si number density = 24.994973 Si / 1000 Ang^3
#
#
#
# Elastic Constant Matrix: (Units=GPa)
#
#
# Indices 1 2 3 4 5 6 
#
# 1 118.6449 34.7667 41.6664 0.0000 0.0000 0.0000
# 2 34.7667 118.6449 41.6664 0.0000 0.0000 0.0000
# 3 41.6664 41.6664 134.2549 0.0000 0.0000 0.0000
# 4 0.0000 0.0000 0.0000 20.1138 0.0000 0.0000
# 5 0.0000 0.0000 0.0000 0.0000 20.1138 0.0000
# 6 0.0000 0.0000 0.0000 0.0000 0.0000 29.1049
#
#
#
# Elastic Compliance Matrix: (Units=1/GPa)
#
#
# Indices 1 2 3 4 5 6 
#
# 1 0.009881 -0.002041 -0.002433 0.000000 0.000000 0.000000
# 2 -0.002041 0.009881 -0.002433 0.000000 0.000000 0.000000
# 3 -0.002433 -0.002433 0.008959 0.000000 0.000000 0.000000
# 4 0.000000 0.000000 0.000000 0.049717 0.000000 0.000000
# 5 0.000000 0.000000 0.000000 0.000000 0.049717 0.000000
# 6 0.000000 0.000000 0.000000 0.000000 0.000000 0.034358
#
#
# Mechanical properties :
#
#
# Convention : Reuss Voigt Hill
#
# Bulk Modulus (GPa) = 67.08596 67.52707 67.30651
# Shear Modulus (GPa) = 27.57906 30.76286 29.17096
#
# Velocity S-wave (km/s) = 3.32533 3.51203 3.41995
# Velocity P-wave (km/s) = 6.45304 6.59702 6.52543
#
# Compressibility (1/GPa) = 0.01490625
#
# Stress axis : x y z
#
# Youngs Moduli (GPa) = 101.20345 101.20345 111.62183
#
# Poissons Ratio (x) = 0.20655 0.27160
# Poissons Ratio (y) = 0.20655 0.27160
# Poissons Ratio (z) = 0.24625 0.24625
#
# Static dielectric constant tensor:
#      x y z
#    x 1.997670 0.000000 0.000000 
#    y 0.000000 1.997670 0.000000 
#    z 0.000000 0.000000 2.446400 
# 
# From -- ./inp_files/1341.got.cif
#   From: 2010.05.17/outbox.cif.g08.bks.cpg/sg112_1_cif.got.tgz:1341.got - 2010.05.20 10:59:04.
