data_PCOD9555156
_publ_section_title
;
Structure prediction by ZEFSAII (Michael W. Deem and Ramdas Pophale) SiO2 
 PCOD9555156
Probable space group: P -4 2 C
;
_chemical_formula_sum "Si O2"
_cell_formula_units_Z 56
_cell_length_a 15.136261
_cell_length_b 15.136261
_cell_length_c 12.422271
_cell_angle_alpha 90.000000
_cell_angle_beta 90.000000
_cell_angle_gamma 90.000000
_cell_volume 2846.021752
_symmetry_space_group_name_H-M "P -4 2 C"
_symmetry_group_IT_number 112
_symmetry_cell_setting 'tetragonal'
loop_
_space_group_symop_operation_xyz
x,y,z
y,-x,-z
-x,-y,z
-y,x,-z
x,-y,1/2-z
-x,y,1/2-z
-y,-x,1/2+z
y,x,1/2+z
loop_
_atom_site_type_symbol
_atom_site_label
_atom_site_fract_x
_atom_site_fract_y
_atom_site_fract_z
Si Si1 0.001442 0.776980 0.122777
Si Si2 0.600923 0.533440 0.364625
Si Si3 0.826119 0.182327 0.501358
Si Si4 0.977651 0.401890 0.007807
Si Si5 0.806877 0.355976 0.881829
Si Si6 0.291891 0.477335 0.928524
Si Si7 0.863777 0.645759 0.864114
O O1 0.914849 0.819491 0.069145
O O2 0.000000 0.792737 0.250000
O O3 0.999844 0.672297 0.095568
O O4 0.089543 0.809819 0.061290
O O5 0.500000 0.500000 0.380096
O O6 0.632146 0.500000 0.250000
O O7 0.664653 0.496316 0.456026
O O8 0.586272 0.638151 0.369290
O O9 0.742955 0.208813 0.425349
O O10 0.839260 0.258423 0.589915
O O11 0.038529 0.378467 0.904201
O O12 0.000000 0.500000 0.044093
O O13 0.877381 0.393401 0.968114
O O14 0.725617 0.424950 0.880401
O O15 0.848539 0.356751 0.763148
O O16 0.200838 0.424883 0.920721
#
# Coordination Sequence:
#
# PCOD9555156 Si02
#       7
#     8   8   8   8   8   8   8
#     4  10  22  43  69  94 132 168 203 256 315 364
#     4  11  25  41  57  74 115 157 197 253 311 365
#     4  10  23  42  64  95 129 161 210 257 305 380
#     4  10  21  41  60  93 126 165 209 255 300 371
#     4  11  23  37  63  90 125 161 206 259 311 363
#     4  12  22  39  58  87 113 156 209 257 305 372
#     4  11  23  36  65  90 124 161 206 259 310 364
#
# _framework density 19.676590000000001
#
# number of rings (size 3 to 8) (size 9 to 14) (size 15 to 20)
#    0.000    1.286    2.857    2.571    4.000    1.143 
#    0.000    8.571    0.000    0.000    0.000    0.000 
#    0.000    0.000    0.000    0.000    0.000    0.000 
#
# Total GULP energy -312805.357296 kJ/mol
# GULP energy per Si atom -5585.809952 kJ/mol
# Density = 1.963181 g / cm^3
# Si number density = 19.676590 Si / 1000 Ang^3
#
#
#
# Elastic Constant Matrix: (Units=GPa)
#
#
# Indices 1 2 3 4 5 6 
#
# 1 82.9410 20.9024 30.8914 0.0000 0.0000 0.0000
# 2 20.9024 82.9410 30.8914 0.0000 0.0000 0.0000
# 3 30.8914 30.8914 119.3565 0.0000 0.0000 0.0000
# 4 0.0000 0.0000 0.0000 15.1874 0.0000 0.0000
# 5 0.0000 0.0000 0.0000 0.0000 15.1874 0.0000
# 6 0.0000 0.0000 0.0000 0.0000 0.0000 24.6413
#
#
#
# Elastic Compliance Matrix: (Units=1/GPa)
#
#
# Indices 1 2 3 4 5 6 
#
# 1 0.013751 -0.002368 -0.002946 0.000000 0.000000 0.000000
# 2 -0.002368 0.013751 -0.002946 0.000000 0.000000 0.000000
# 3 -0.002946 -0.002946 0.009903 0.000000 0.000000 0.000000
# 4 0.000000 0.000000 0.000000 0.065844 0.000000 0.000000
# 5 0.000000 0.000000 0.000000 0.000000 0.065844 0.000000
# 6 0.000000 0.000000 0.000000 0.000000 0.000000 0.040582
#
#
# Mechanical properties :
#
#
# Convention : Reuss Voigt Hill
#
# Bulk Modulus (GPa) = 47.88252 50.06768 48.97510
# Shear Modulus (GPa) = 21.44476 24.50677 22.97577
#
# Velocity S-wave (km/s) = 3.30489 3.53296 3.42083
# Velocity P-wave (km/s) = 6.24104 6.49176 6.36764
#
# Compressibility (1/GPa) = 0.02088445
#
# Stress axis : x y z
#
# Youngs Moduli (GPa) = 72.72294 72.72294 100.97728
#
# Poissons Ratio (x) = 0.17222 0.29748
# Poissons Ratio (y) = 0.17222 0.29748
# Poissons Ratio (z) = 0.21424 0.21424
#
# Static dielectric constant tensor:
#      x y z
#    x 1.754730 0.000000 0.000000 
#    y 0.000000 1.754730 0.000000 
#    z 0.000000 0.000000 1.662020 
# 
# From -- ./inp_files/2639.got.cif
#   From: 2010.05.17/outbox.cif.g08.bks.cpg/sg112_2_cif.got.tgz:2639.got - 2010.05.20 10:59:04.
