data_PCOD9555296
_publ_section_title
;
Structure prediction by ZEFSAII (Michael W. Deem and Ramdas Pophale) SiO2 
 PCOD9555296
Probable space group: P -4 2 C
;
_chemical_formula_sum "Si O2"
_cell_formula_units_Z 34
_cell_length_a 8.698739
_cell_length_b 8.698739
_cell_length_c 23.658896
_cell_angle_alpha 90.000000
_cell_angle_beta 90.000000
_cell_angle_gamma 90.000000
_cell_volume 1790.222767
_symmetry_space_group_name_H-M "P -4 2 C"
_symmetry_group_IT_number 112
_symmetry_cell_setting 'tetragonal'
loop_
_space_group_symop_operation_xyz
x,y,z
y,-x,-z
-x,-y,z
-y,x,-z
x,-y,1/2-z
-x,y,1/2-z
-y,-x,1/2+z
y,x,1/2+z
loop_
_atom_site_type_symbol
_atom_site_label
_atom_site_fract_x
_atom_site_fract_y
_atom_site_fract_z
Si Si1 0.441579 0.165107 0.882550
Si Si2 0.325379 0.563788 0.689427
Si Si3 0.500000 0.500000 0.500000
Si Si4 0.273572 0.392116 0.584472
Si Si5 0.758747 0.913160 0.994380
O O1 0.350252 0.262302 0.834140
O O2 0.591906 0.265285 0.902280
O O3 0.336421 0.126639 0.937620
O O4 0.500000 0.000000 0.860745
O O5 0.500000 0.500000 0.685939
O O6 0.270633 0.500000 0.750000
O O7 0.232020 0.475935 0.641546
O O8 0.356314 0.509808 0.541299
O O9 0.130505 0.333204 0.550261
O O10 0.911495 0.810117 0.000416
#
# Coordination Sequence:
#
# PCOD9555296 Si02
#       5
#     8   8   2   8   8
#     4  11  20  33  57  83 111 147 198 231 287 355
#     4   9  19  35  54  81 116 146 188 249 288 324
#     4  12  16  28  54  80 104 144 184 234 284 336
#     4  11  18  32  54  77 111 148 187 233 282 344
#     4  11  23  35  52  84 123 151 182 233 298 353
#
# _framework density 18.992049000000002
#
# number of rings (size 3 to 8) (size 9 to 14) (size 15 to 20)
#    0.000    1.412    8.235    0.000    0.000    0.000 
#    0.000    9.412    0.000    2.824    0.000    3.294 
#    0.000    0.000    0.000    0.000    0.000    0.000 
#
# Total GULP energy -189399.178158 kJ/mol
# GULP energy per Si atom -5570.564063 kJ/mol
# Density = 1.894882 g / cm^3
# Si number density = 18.992049 Si / 1000 Ang^3
#
#
#
# Elastic Constant Matrix: (Units=GPa)
#
#
# Indices 1 2 3 4 5 6 
#
# 1 61.2146 28.2177 43.6068 0.0000 0.0000 0.0000
# 2 28.2177 61.2146 43.6068 0.0000 0.0000 0.0000
# 3 43.6068 43.6068 164.5364 0.0000 0.0000 0.0000
# 4 0.0000 0.0000 0.0000 11.9097 0.0000 0.0000
# 5 0.0000 0.0000 0.0000 0.0000 11.9097 0.0000
# 6 0.0000 0.0000 0.0000 0.0000 0.0000 16.4212
#
#
#
# Elastic Compliance Matrix: (Units=1/GPa)
#
#
# Indices 1 2 3 4 5 6 
#
# 1 0.022692 -0.007614 -0.003996 0.000000 0.000000 0.000000
# 2 -0.007614 0.022692 -0.003996 0.000000 0.000000 0.000000
# 3 -0.003996 -0.003996 0.008196 0.000000 0.000000 0.000000
# 4 0.000000 0.000000 0.000000 0.083965 0.000000 0.000000
# 5 0.000000 0.000000 0.000000 0.000000 0.083965 0.000000
# 6 0.000000 0.000000 0.000000 0.000000 0.000000 0.060897
#
#
# Mechanical properties :
#
#
# Convention : Reuss Voigt Hill
#
# Bulk Modulus (GPa) = 44.70608 57.53648 51.12128
# Shear Modulus (GPa) = 15.57262 19.48375 17.52818
#
# Velocity S-wave (km/s) = 2.86659 3.20643 3.04126
# Velocity P-wave (km/s) = 5.87766 6.63845 6.26961
#
# Compressibility (1/GPa) = 0.02236832
#
# Stress axis : x y z
#
# Youngs Moduli (GPa) = 44.06779 44.06779 122.01142
#
# Poissons Ratio (x) = 0.33551 0.48760
# Poissons Ratio (y) = 0.33551 0.48760
# Poissons Ratio (z) = 0.17611 0.17611
#
# Static dielectric constant tensor:
#      x y z
#    x 1.711170 0.000000 0.000000 
#    y 0.000000 1.711170 0.000000 
#    z 0.000000 0.000000 1.687650 
# 
# From -- ./inp_files/4667.got.cif
#   From: 2010.05.17/outbox.cif.g08.bks.cpg/sg112_3_cif.got.tgz:4667.got - 2010.05.20 10:59:04.
