data_PCOD9555137
_publ_section_title
;
Structure prediction by ZEFSAII (Michael W. Deem and Ramdas Pophale) SiO2 
 PCOD9555137
Probable space group: P -4 2 C
;
_chemical_formula_sum "Si O2"
_cell_formula_units_Z 40
_cell_length_a 14.997311
_cell_length_b 14.997311
_cell_length_c 7.255138
_cell_angle_alpha 90.000000
_cell_angle_beta 90.000000
_cell_angle_gamma 90.000000
_cell_volume 1631.820830
_symmetry_space_group_name_H-M "P -4 2 C"
_symmetry_group_IT_number 112
_symmetry_cell_setting 'tetragonal'
loop_
_space_group_symop_operation_xyz
x,y,z
y,-x,-z
-x,-y,z
-y,x,-z
x,-y,1/2-z
-x,y,1/2-z
-y,-x,1/2+z
y,x,1/2+z
loop_
_atom_site_type_symbol
_atom_site_label
_atom_site_fract_x
_atom_site_fract_y
_atom_site_fract_z
Si Si1 0.355284 0.500000 0.250000
Si Si2 0.000000 0.000000 0.000000
Si Si3 0.500000 0.500000 0.000000
Si Si4 0.290959 0.808081 0.074024
Si Si5 0.986548 0.197481 0.525665
Si Si6 0.327924 0.142712 0.002490
Si Si7 0.210948 0.494057 0.969221
O O1 0.427542 0.448713 0.124198
O O2 0.289884 0.466661 0.406393
O O3 0.897203 0.990037 0.937201
O O4 0.231080 0.886645 0.987889
O O5 0.313062 0.840202 0.279714
O O6 0.389121 0.797696 0.984050
O O7 0.229109 0.720922 0.084083
O O8 0.000000 0.185739 0.750000
O O9 0.054691 0.272707 0.458047
O O10 0.434593 0.134130 0.981843
O O11 0.227990 0.500000 0.750000
#
# Coordination Sequence:
#
# PCOD9555137 Si02
#       7
#     4   2   2   8   8   8   8
#     4  11  26  44  66  93 140 170 228 289 340 409
#     4  12  18  36  60  98 128 164 218 276 346 408
#     4  10  28  42  62 104 126 182 220 286 358 404
#     4  10  22  40  62  93 127 171 224 275 335 403
#     4  10  21  38  63  92 131 170 216 275 343 411
#     4  10  22  40  62  93 127 171 224 275 335 403
#     4  10  25  41  66  96 130 182 229 278 336 402
#
# _framework density 24.512494
#
# number of rings (size 3 to 8) (size 9 to 14) (size 15 to 20)
#    0.000    1.800    2.000    0.300    8.400    0.800 
#    0.000    5.000    0.000    1.200    0.000    0.000 
#    0.000    0.000    0.000    0.000    0.000    0.000 
#
# Total GULP energy -222778.213152 kJ/mol
# GULP energy per Si atom -5569.455329 kJ/mol
# Density = 2.445670 g / cm^3
# Si number density = 24.512494 Si / 1000 Ang^3
#
#
#
# Elastic Constant Matrix: (Units=GPa)
#
#
# Indices 1 2 3 4 5 6 
#
# 1 131.7305 29.5512 15.6273 0.0000 0.0000 0.0000
# 2 29.5512 131.7305 15.6273 0.0000 0.0000 0.0000
# 3 15.6273 15.6273 74.0558 0.0000 0.0000 0.0000
# 4 0.0000 0.0000 0.0000 18.6019 0.0000 0.0000
# 5 0.0000 0.0000 0.0000 0.0000 18.6019 0.0000
# 6 0.0000 0.0000 0.0000 0.0000 0.0000 14.9132
#
#
#
# Elastic Compliance Matrix: (Units=1/GPa)
#
#
# Indices 1 2 3 4 5 6 
#
# 1 0.008126 -0.001661 -0.001364 0.000000 0.000000 0.000000
# 2 -0.001661 0.008126 -0.001364 0.000000 0.000000 0.000000
# 3 -0.001364 -0.001364 0.014079 0.000000 0.000000 0.000000
# 4 0.000000 0.000000 0.000000 0.053758 0.000000 0.000000
# 5 0.000000 0.000000 0.000000 0.000000 0.053758 0.000000
# 6 0.000000 0.000000 0.000000 0.000000 0.000000 0.067055
#
#
# Mechanical properties :
#
#
# Convention : Reuss Voigt Hill
#
# Bulk Modulus (GPa) = 46.39996 51.01424 48.70710
# Shear Modulus (GPa) = 22.63839 28.87080 25.75460
#
# Velocity S-wave (km/s) = 3.04229 3.43563 3.24492
# Velocity P-wave (km/s) = 5.59561 6.04936 5.82691
#
# Compressibility (1/GPa) = 0.02155174
#
# Stress axis : x y z
#
# Youngs Moduli (GPa) = 123.06622 123.06622 71.02738
#
# Poissons Ratio (x) = 0.20441 0.09689
# Poissons Ratio (y) = 0.20441 0.09689
# Poissons Ratio (z) = 0.16788 0.16788
#
# Static dielectric constant tensor:
#      x y z
#    x 1.946420 0.000000 0.000000 
#    y 0.000000 1.946420 0.000000 
#    z 0.000000 0.000000 2.068420 
# 
# From -- ./inp_files/1316.got.cif
#   From: 2010.05.17/outbox.cif.g08.bks.cpg/sg112_1_cif.got.tgz:1316.got - 2010.05.20 10:59:04.
