data_PCOD9555481
_publ_section_title
;
Structure prediction by ZEFSAII (Michael W. Deem and Ramdas Pophale) SiO2 
 PCOD9555481
Probable space group: P -4 21 M 
;
_chemical_formula_sum "Si O2"
_cell_formula_units_Z 64
_cell_length_a 11.315648
_cell_length_b 11.315648
_cell_length_c 25.476672
_cell_angle_alpha 90.000000
_cell_angle_beta 90.000000
_cell_angle_gamma 90.000000
_cell_volume 3262.132178
_symmetry_space_group_name_H-M "P -4 21 M "
_symmetry_group_IT_number 113
_symmetry_cell_setting 'tetragonal'
loop_
_space_group_symop_operation_xyz
x,y,z
y,-x,-z
-x,-y,z
-y,x,-z
1/2+x,1/2-y,-z
1/2-x,1/2+y,-z
1/2-y,1/2-x,z
1/2+y,1/2+x,z
loop_
_atom_site_type_symbol
_atom_site_label
_atom_site_fract_x
_atom_site_fract_y
_atom_site_fract_z
Si Si1 0.163611 0.846021 0.946296
Si Si2 0.609808 0.705079 0.933088
Si Si3 0.506665 0.695230 0.510980
Si Si4 0.005044 0.306678 0.756023
Si Si5 0.507604 0.187321 0.404450
Si Si6 0.032727 0.281228 0.879278
Si Si7 0.628579 0.667144 0.326546
Si Si8 0.006244 0.697045 0.372955
O O1 0.292375 0.792375 0.941626
O O2 0.073681 0.761407 0.915691
O O3 0.172560 0.975540 0.923412
O O4 0.134204 0.843901 0.008081
O O5 0.661059 0.838942 0.933276
O O6 0.686054 0.633326 0.891590
O O7 0.616092 0.610703 0.496076
O O8 0.497966 0.793901 0.466413
O O9 0.519075 0.747356 0.568966
O O10 0.909930 0.409930 0.745320
O O11 0.956087 0.195872 0.722926
O O12 0.132530 0.367471 0.743435
O O13 0.002022 0.283019 0.818159
O O14 0.635639 0.135639 0.389428
O O15 0.458408 0.302851 0.375401
O O16 0.413431 0.086570 0.389784
O O17 0.093410 0.406591 0.892990
O O18 0.734790 0.765211 0.325502
O O19 0.697699 0.544172 0.335702
O O20 0.902629 0.597372 0.375506
O O21 0.125576 0.625576 0.358126
#
# Coordination Sequence:
#
# PCOD9555481 Si02
#       8
#     8   8   8   8   8   8   8   8
#     4  11  21  34  55  81 115 159 200 244 297 351
#     4  10  21  35  53  80 116 158 201 241 294 358
#     4  11  22  34  49  72 107 149 190 232 285 350
#     4   9  17  31  54  85 118 150 189 242 303 360
#     4  10  19  31  51  78 105 139 182 225 279 344
#     4  10  20  34  55  86 120 154 197 251 303 359
#     4   9  17  32  53  79 113 146 183 237 294 352
#     4  10  20  34  54  80 110 148 192 235 289 356
#
# _framework density 19.619071000000002
#
# number of rings (size 3 to 8) (size 9 to 14) (size 15 to 20)
#    0.000    2.000    2.500    1.875    0.000    5.000 
#    0.000    1.250    0.000    3.750    0.000    5.250 
#    0.000    0.000    0.000    0.000    0.000    0.000 
#
# Total GULP energy -356684.836733 kJ/mol
# GULP energy per Si atom -5573.200574 kJ/mol
# Density = 1.957442 g / cm^3
# Si number density = 19.619071 Si / 1000 Ang^3
#
#
#
# Elastic Constant Matrix: (Units=GPa)
#
#
# Indices 1 2 3 4 5 6 
#
# 1 197.1279 -70.9175 21.6338 0.0000 0.0000 0.0000
# 2 -70.9175 197.1259 21.6325 0.0000 0.0000 0.0000
# 3 21.6338 21.6325 58.2593 0.0000 0.0000 0.0000
# 4 0.0000 0.0000 0.0000 24.9097 0.0000 0.0000
# 5 0.0000 0.0000 0.0000 0.0000 24.9097 0.0000
# 6 0.0000 0.0000 0.0000 0.0000 0.0000 23.9407
#
#
#
# Elastic Compliance Matrix: (Units=1/GPa)
#
#
# Indices 1 2 3 4 5 6 
#
# 1 0.006405 0.002674 -0.003371 0.000000 0.000000 0.000000
# 2 0.002674 0.006405 -0.003371 0.000000 0.000000 0.000000
# 3 -0.003371 -0.003371 0.019668 0.000000 0.000000 0.000000
# 4 0.000000 0.000000 0.000000 0.040145 0.000000 0.000000
# 5 0.000000 0.000000 0.000000 0.000000 0.040145 0.000000
# 6 0.000000 0.000000 0.000000 0.000000 0.000000 0.041770
#
#
# Mechanical properties :
#
#
# Convention : Reuss Voigt Hill
#
# Bulk Modulus (GPa) = 41.08241 44.13451 42.60846
# Shear Modulus (GPa) = 29.27596 46.76298 38.01947
#
# Velocity S-wave (km/s) = 3.86712 4.88745 4.40692
# Velocity P-wave (km/s) = 6.39726 7.37524 6.90359
#
# Compressibility (1/GPa) = 0.02434132
#
# Stress axis : x y z
#
# Youngs Moduli (GPa) = 156.13106 156.13016 50.84312
#
# Poissons Ratio (x) = -0.41752 0.17141
# Poissons Ratio (y) = -0.41752 0.17141
# Poissons Ratio (z) = 0.52637 0.52635
#
# Static dielectric constant tensor:
#      x y z
#    x 1.721080 0.000000 0.000000 
#    y 0.000000 1.721080 0.000000 
#    z 0.000000 0.000000 1.659720 
# 
# From -- ./inp_files/2929.got.cif
#   From: 2010.05.17/outbox.cif.g08.bks.cpg/sg113_cif.got.tgz:2929.got - 2010.05.20 11:03:00.
