data_PCOD9555363
_publ_section_title
;
Structure prediction by ZEFSAII (Michael W. Deem and Ramdas Pophale) SiO2 
 PCOD9555363
Probable space group: P -4 2 C
;
_chemical_formula_sum "Si O2"
_cell_formula_units_Z 38
_cell_length_a 8.339095
_cell_length_b 8.339095
_cell_length_c 20.458725
_cell_angle_alpha 90.000000
_cell_angle_beta 90.000000
_cell_angle_gamma 90.000000
_cell_volume 1422.710077
_symmetry_space_group_name_H-M "P -4 2 C"
_symmetry_group_IT_number 112
_symmetry_cell_setting 'tetragonal'
loop_
_space_group_symop_operation_xyz
x,y,z
y,-x,-z
-x,-y,z
-y,x,-z
x,-y,1/2-z
-x,y,1/2-z
-y,-x,1/2+z
y,x,1/2+z
loop_
_atom_site_type_symbol
_atom_site_label
_atom_site_fract_x
_atom_site_fract_y
_atom_site_fract_z
Si Si1 0.772616 0.273345 0.215240
Si Si2 0.000000 0.500000 0.363014
Si Si3 0.747829 0.052769 0.980440
Si Si4 0.437340 0.813773 0.337399
Si Si5 0.711713 0.518095 0.967034
Si Si6 0.000000 0.000000 0.750000
O O1 0.705297 0.235543 0.288704
O O2 0.603446 0.275091 0.178969
O O3 0.867419 0.425122 0.186408
O O4 0.889580 0.118915 0.206685
O O5 0.031874 0.652178 0.412090
O O6 0.613592 0.126229 0.026890
O O7 0.893987 0.177177 0.988123
O O8 0.401256 0.740141 0.407625
O O9 0.500000 0.000000 0.332081
O O10 0.656113 0.424541 0.032420
#
# Coordination Sequence:
#
# PCOD9555363 Si02
#       6
#     8   4   8   8   8   2
#     4  11  25  50  83 125 168 230 288 354 448 522
#     4  12  28  51  84 130 186 227 294 384 432 535
#     4  11  25  47  79 127 173 228 294 365 452 519
#     4  11  23  49  91 123 168 231 288 356 431 555
#     4  11  26  47  78 126 168 218 284 361 446 522
#     4  12  24  48  80 116 166 208 300 352 412 502
#
# _framework density 26.709586999999999
#
# number of rings (size 3 to 8) (size 9 to 14) (size 15 to 20)
#    0.000    0.842    2.105    4.421    4.421    5.474 
#    0.000    4.211    2.316   17.684    0.000    0.000 
#    0.000    0.000    0.000    0.000    0.000    0.000 
#
# Total GULP energy -212102.883871 kJ/mol
# GULP energy per Si atom -5581.654839 kJ/mol
# Density = 2.664880 g / cm^3
# Si number density = 26.709587 Si / 1000 Ang^3
#
#
#
# Elastic Constant Matrix: (Units=GPa)
#
#
# Indices 1 2 3 4 5 6 
#
# 1 172.9803 108.6471 84.0238 0.0000 0.0000 0.0000
# 2 108.6471 172.9803 84.0238 0.0000 0.0000 0.0000
# 3 84.0238 84.0238 161.5935 0.0000 0.0000 0.0000
# 4 0.0000 0.0000 0.0000 21.6314 0.0000 0.0000
# 5 0.0000 0.0000 0.0000 0.0000 21.6314 0.0000
# 6 0.0000 0.0000 0.0000 0.0000 0.0000 72.0706
#
#
#
# Elastic Compliance Matrix: (Units=1/GPa)
#
#
# Indices 1 2 3 4 5 6 
#
# 1 0.010346 -0.005198 -0.002677 0.000000 0.000000 0.000000
# 2 -0.005198 0.010346 -0.002677 0.000000 0.000000 0.000000
# 3 -0.002677 -0.002677 0.008972 0.000000 0.000000 0.000000
# 4 0.000000 0.000000 0.000000 0.046229 0.000000 0.000000
# 5 0.000000 0.000000 0.000000 0.000000 0.046229 0.000000
# 6 0.000000 0.000000 0.000000 0.000000 0.000000 0.013875
#
#
# Mechanical properties :
#
#
# Convention : Reuss Voigt Hill
#
# Bulk Modulus (GPa) = 116.81027 117.88262 117.34644
# Shear Modulus (GPa) = 31.25884 38.45730 34.85807
#
# Velocity S-wave (km/s) = 3.42471 3.79863 3.61650
# Velocity P-wave (km/s) = 7.71146 7.96682 7.84018
#
# Compressibility (1/GPa) = 0.00856089
#
# Stress axis : x y z
#
# Youngs Moduli (GPa) = 96.65512 96.65512 111.45633
#
# Poissons Ratio (x) = 0.50241 0.29835
# Poissons Ratio (y) = 0.50241 0.29835
# Poissons Ratio (z) = 0.25873 0.25873
#
# Static dielectric constant tensor:
#      x y z
#    x 2.173730 0.000000 0.000000 
#    y 0.000000 2.173730 0.000000 
#    z 0.000000 0.000000 2.222000 
# 
# From -- ./inp_files/5396.got.cif
#   From: 2010.05.17/outbox.cif.g08.bks.cpg/sg112_3_cif.got.tgz:5396.got - 2010.05.20 10:59:04.
