data_PCOD9555567
_publ_section_title
;
Structure prediction by ZEFSAII (Michael W. Deem and Ramdas Pophale) SiO2 
 PCOD9555567
Probable space group: P -4 21 M 
;
_chemical_formula_sum "Si O2"
_cell_formula_units_Z 48
_cell_length_a 13.497753
_cell_length_b 13.497753
_cell_length_c 15.864978
_cell_angle_alpha 90.000000
_cell_angle_beta 90.000000
_cell_angle_gamma 90.000000
_cell_volume 2890.429808
_symmetry_space_group_name_H-M "P -4 21 M "
_symmetry_group_IT_number 113
_symmetry_cell_setting 'tetragonal'
loop_
_space_group_symop_operation_xyz
x,y,z
y,-x,-z
-x,-y,z
-y,x,-z
1/2+x,1/2-y,-z
1/2-x,1/2+y,-z
1/2-y,1/2-x,z
1/2+y,1/2+x,z
loop_
_atom_site_type_symbol
_atom_site_label
_atom_site_fract_x
_atom_site_fract_y
_atom_site_fract_z
Si Si1 0.118249 0.778085 0.735196
Si Si2 0.721918 0.618247 0.735196
Si Si3 0.386236 0.620328 0.907700
Si Si4 0.620326 0.386234 0.092300
Si Si5 0.616959 0.718442 0.579689
Si Si6 0.781558 0.116957 0.579689
O O1 0.174432 0.674432 0.722318
O O2 0.145781 0.821264 0.827016
O O3 0.159190 0.851731 0.663707
O O4 0.000001 0.769446 0.729527
O O5 0.825573 0.674428 0.722319
O O6 0.678739 0.645779 0.827016
O O7 0.648274 0.659191 0.663707
O O8 0.389153 0.500001 0.911710
O O9 0.500001 0.654199 0.896004
O O10 0.348129 0.651874 0.000000
O O11 0.679638 0.820363 0.579212
O O12 0.655226 0.655225 0.500000
O O13 0.500001 0.734067 0.575708
O O14 0.679637 0.179637 0.579213
#
# Coordination Sequence:
#
# PCOD9555567 Si02
#       6
#     8   8   8   8   8   8
#     4  10  20  32  47  69  96 128 166 204 243 287
#     4  10  20  32  47  69  96 128 166 204 243 287
#     4   8  14  26  45  68  92 118 152 197 246 292
#     4   8  14  26  45  68  92 118 152 197 246 292
#     4  10  21  36  54  77 102 128 160 196 236 283
#     4  10  21  36  54  77 102 128 160 196 236 283
#
# _framework density 16.606525999999999
#
# number of rings (size 3 to 8) (size 9 to 14) (size 15 to 20)
#    0.000    2.667    0.000    3.000    0.000    5.000 
#    0.000    0.000    0.000    6.000    0.000    0.000 
#    0.000    8.000    0.000    0.000    0.000    0.000 
#
# Total GULP energy -267531.736938 kJ/mol
# GULP energy per Si atom -5573.577853 kJ/mol
# Density = 1.656873 g / cm^3
# Si number density = 16.606526 Si / 1000 Ang^3
#
#
#
# Elastic Constant Matrix: (Units=GPa)
#
#
# Indices 1 2 3 4 5 6 
#
# 1 91.5392 71.3747 48.5586 0.0000 0.0000 0.0000
# 2 71.3747 91.5440 48.5589 0.0000 0.0000 0.0000
# 3 48.5586 48.5589 133.7721 0.0000 0.0000 0.0000
# 4 0.0000 0.0000 0.0000 19.4118 0.0000 0.0000
# 5 0.0000 0.0000 0.0000 0.0000 19.4136 0.0000
# 6 0.0000 0.0000 0.0000 0.0000 0.0000 7.3153
#
#
#
# Elastic Compliance Matrix: (Units=1/GPa)
#
#
# Indices 1 2 3 4 5 6 
#
# 1 0.028711 -0.020877 -0.002844 0.000000 0.000000 0.000000
# 2 -0.020877 0.028709 -0.002843 0.000000 0.000000 0.000000
# 3 -0.002844 -0.002843 0.009540 0.000000 0.000000 0.000000
# 4 0.000000 0.000000 0.000000 0.051515 0.000000 0.000000
# 5 0.000000 0.000000 0.000000 0.000000 0.051510 0.000000
# 6 0.000000 0.000000 0.000000 0.000000 0.000000 0.136699
#
#
# Mechanical properties :
#
#
# Convention : Reuss Voigt Hill
#
# Bulk Modulus (GPa) = 72.29425 72.64883 72.47154
# Shear Modulus (GPa) = 13.72039 19.11903 16.41971
#
# Velocity S-wave (km/s) = 2.87750 3.39676 3.14785
# Velocity P-wave (km/s) = 7.39379 7.69585 7.54633
#
# Compressibility (1/GPa) = 0.01383236
#
# Stress axis : x y z
#
# Youngs Moduli (GPa) = 34.83044 34.83260 104.82536
#
# Poissons Ratio (x) = 0.72718 0.29809
# Poissons Ratio (y) = 0.72714 0.29803
# Poissons Ratio (z) = 0.09905 0.09903
#
# Static dielectric constant tensor:
#      x y z
#    x 1.535210 0.000000 0.000000 
#    y 0.000000 1.535210 0.000000 
#    z 0.000000 0.000000 1.583770 
# 
# From -- ./inp_files/2456.got.cif
#   From: 2010.05.17/outbox.cif.g08.bks.cpg/sg113_cif.got.tgz:2456.got - 2010.05.20 11:03:00.
