data_PCOD9555830
_publ_section_title
;
Structure prediction by ZEFSAII (Michael W. Deem and Ramdas Pophale) SiO2 
 PCOD9555830
Probable space group: P -4 21 C
;
_chemical_formula_sum "Si O2"
_cell_formula_units_Z 64
_cell_length_a 17.749059
_cell_length_b 17.749059
_cell_length_c 8.027249
_cell_angle_alpha 90.000000
_cell_angle_beta 90.000000
_cell_angle_gamma 90.000000
_cell_volume 2528.816991
_symmetry_space_group_name_H-M "P -4 21 C"
_symmetry_group_IT_number 114
_symmetry_cell_setting 'tetragonal'
loop_
_space_group_symop_operation_xyz
x,y,z
y,-x,-z
-x,-y,z
-y,x,-z
1/2+x,1/2-y,1/2-z
1/2-x,1/2+y,1/2-z
1/2-y,1/2-x,1/2+z
1/2+y,1/2+x,1/2+z
loop_
_atom_site_type_symbol
_atom_site_label
_atom_site_fract_x
_atom_site_fract_y
_atom_site_fract_z
Si Si1 0.809070 0.560436 0.184957
Si Si2 0.282098 0.588150 0.814200
Si Si3 0.593771 0.559508 0.558665
Si Si4 0.618628 0.966049 0.022734
Si Si5 0.511167 0.145329 0.158094
Si Si6 0.219172 0.667365 0.389595
Si Si7 0.712609 0.649697 0.409830
Si Si8 0.933010 0.182716 0.664977
O O1 0.864257 0.518003 0.316387
O O2 0.778582 0.632895 0.282512
O O3 0.734076 0.507633 0.176373
O O4 0.840603 0.568087 0.997984
O O5 0.232270 0.513211 0.802408
O O6 0.325331 0.635462 0.678755
O O7 0.214230 0.645942 0.854200
O O8 0.335503 0.579604 0.973726
O O9 0.581645 0.470982 0.576132
O O10 0.680209 0.578114 0.511189
O O11 0.571617 0.611586 0.714594
O O12 0.613708 0.011296 0.848596
O O13 0.688652 0.906366 0.011393
O O14 0.547575 0.912758 0.066909
O O15 0.279218 0.722996 0.472183
O O16 0.260175 0.632109 0.229574
#
# Coordination Sequence:
#
# PCOD9555830 Si02
#       8
#     8   8   8   8   8   8   8   8
#     4  10  20  32  49  77 106 129 174 215 263 306
#     4  10  19  31  49  74  97 129 167 215 273 319
#     4  10  20  36  51  62  90 144 192 219 252 300
#     4  10  17  32  54  76 101 138 168 211 267 319
#     4  10  18  31  54  76 104 135 167 213 265 324
#     4   9  18  31  52  70  96 135 168 205 271 328
#     4  11  20  34  49  74 104 132 175 227 259 307
#     4   9  18  33  47  69  94 126 177 216 249 309
#
# _framework density 25.308275999999999
#
# number of rings (size 3 to 8) (size 9 to 14) (size 15 to 20)
#    0.000    2.125    3.750    0.750    3.500    0.000 
#    9.000    0.000    0.000    1.500    0.000    0.000 
#    0.000    3.000    0.000    0.000    0.000    0.000 
#
# Total GULP energy -356970.786371 kJ/mol
# GULP energy per Si atom -5577.668537 kJ/mol
# Density = 2.525067 g / cm^3
# Si number density = 25.308276 Si / 1000 Ang^3
#
#
#
# Elastic Constant Matrix: (Units=GPa)
#
#
# Indices 1 2 3 4 5 6 
#
# 1 73.7142 -0.1546 24.7357 0.0000 0.0000 0.0000
# 2 -0.1546 73.7142 24.7357 0.0000 0.0000 0.0000
# 3 24.7357 24.7357 84.3400 0.0000 0.0000 0.0000
# 4 0.0000 0.0000 0.0000 23.0250 0.0000 0.0000
# 5 0.0000 0.0000 0.0000 0.0000 23.0250 0.0000
# 6 0.0000 0.0000 0.0000 0.0000 0.0000 23.1943
#
#
#
# Elastic Compliance Matrix: (Units=1/GPa)
#
#
# Indices 1 2 3 4 5 6 
#
# 1 0.015236 0.001699 -0.004967 0.000000 0.000000 0.000000
# 2 0.001699 0.015236 -0.004967 0.000000 0.000000 0.000000
# 3 -0.004967 -0.004967 0.014770 0.000000 0.000000 0.000000
# 4 0.000000 0.000000 0.000000 0.043431 0.000000 0.000000
# 5 0.000000 0.000000 0.000000 0.000000 0.043431 0.000000
# 6 0.000000 0.000000 0.000000 0.000000 0.000000 0.043114
#
#
# Mechanical properties :
#
#
# Convention : Reuss Voigt Hill
#
# Bulk Modulus (GPa) = 34.75515 36.71130 35.73322
# Shear Modulus (GPa) = 24.84115 26.01231 25.42673
#
# Velocity S-wave (km/s) = 3.13636 3.20944 3.17311
# Velocity P-wave (km/s) = 5.18442 5.31706 5.25116
#
# Compressibility (1/GPa) = 0.02877271
#
# Stress axis : x y z
#
# Youngs Moduli (GPa) = 65.63355 65.63355 67.70444
#
# Poissons Ratio (x) = -0.11148 0.33627
# Poissons Ratio (y) = -0.11148 0.33627
# Poissons Ratio (z) = 0.32598 0.32598
#
# Static dielectric constant tensor:
#      x y z
#    x 2.133980 0.000000 0.000000 
#    y 0.000000 2.133980 0.000000 
#    z 0.000000 0.000000 2.051750 
# 
# From -- ./inp_files/1104.got.cif
#   From: 2010.05.17/outbox.cif.g08.bks.cpg/sg114_1_cif.got.tgz:1104.got - 2010.05.20 11:04:54.
