data_PCOD9555848
_publ_section_title
;
Structure prediction by ZEFSAII (Michael W. Deem and Ramdas Pophale) SiO2 
 PCOD9555848
Probable space group: P -4 21 C
;
_chemical_formula_sum "Si O2"
_cell_formula_units_Z 44
_cell_length_a 11.768247
_cell_length_b 11.768247
_cell_length_c 13.329466
_cell_angle_alpha 90.000000
_cell_angle_beta 90.000000
_cell_angle_gamma 90.000000
_cell_volume 1846.019573
_symmetry_space_group_name_H-M "P -4 21 C"
_symmetry_group_IT_number 114
_symmetry_cell_setting 'tetragonal'
loop_
_space_group_symop_operation_xyz
x,y,z
y,-x,-z
-x,-y,z
-y,x,-z
1/2+x,1/2-y,1/2-z
1/2-x,1/2+y,1/2-z
1/2-y,1/2-x,1/2+z
1/2+y,1/2+x,1/2+z
loop_
_atom_site_type_symbol
_atom_site_label
_atom_site_fract_x
_atom_site_fract_y
_atom_site_fract_z
Si Si1 0.361339 0.153369 0.137192
Si Si2 0.825947 0.417288 0.086007
Si Si3 0.703698 0.495899 0.626916
Si Si4 0.931463 0.784315 0.908058
Si Si5 0.500000 0.000000 0.284099
Si Si6 0.767939 0.187772 0.715524
O O1 0.453558 0.094156 0.208186
O O2 0.289276 0.243017 0.201533
O O3 0.270170 0.052447 0.116443
O O4 0.417451 0.191216 0.032738
O O5 0.893306 0.520076 0.139937
O O6 0.717630 0.379641 0.149687
O O7 0.913816 0.311961 0.105274
O O8 0.598264 0.409283 0.632245
O O9 0.700670 0.574225 0.527867
O O10 0.715607 0.573394 0.723612
O O11 0.837521 0.700894 0.860010
#
# Coordination Sequence:
#
# PCOD9555848 Si02
#       6
#     8   8   8   8   4   8
#     4  10  20  34  54  80 114 146 181 234 281 335
#     4   9  19  32  49  76 107 141 180 225 277 333
#     4  10  19  34  54  77 109 141 182 237 281 336
#     4  10  21  35  55  83 110 147 192 233 288 344
#     4  10  18  32  54  80 110 148 188 226 280 338
#     4  10  19  32  51  76 107 139 178 226 279 333
#
# _framework density 23.835066999999999
#
# number of rings (size 3 to 8) (size 9 to 14) (size 15 to 20)
#    0.000    2.182    0.000    4.909    0.000    2.545 
#    0.000    0.000    0.000   13.091    0.000    0.000 
#    0.000  101.818    0.000    0.000    0.000    0.000 
#
# Total GULP energy -245875.575937 kJ/mol
# GULP energy per Si atom -5588.081271 kJ/mol
# Density = 2.378082 g / cm^3
# Si number density = 23.835067 Si / 1000 Ang^3
#
#
#
# Elastic Constant Matrix: (Units=GPa)
#
#
# Indices 1 2 3 4 5 6 
#
# 1 73.1439 31.6311 29.8140 0.0000 0.0000 0.0000
# 2 31.6311 73.1439 29.8140 0.0000 0.0000 0.0000
# 3 29.8140 29.8140 159.4352 0.0000 0.0000 0.0000
# 4 0.0000 0.0000 0.0000 33.8388 0.0000 0.0000
# 5 0.0000 0.0000 0.0000 0.0000 33.8388 0.0000
# 6 0.0000 0.0000 0.0000 0.0000 0.0000 36.2302
#
#
#
# Elastic Compliance Matrix: (Units=1/GPa)
#
#
# Indices 1 2 3 4 5 6 
#
# 1 0.017385 -0.006704 -0.001997 0.000000 0.000000 0.000000
# 2 -0.006704 0.017385 -0.001997 0.000000 0.000000 0.000000
# 3 -0.001997 -0.001997 0.007019 0.000000 0.000000 0.000000
# 4 0.000000 0.000000 0.000000 0.029552 0.000000 0.000000
# 5 0.000000 0.000000 0.000000 0.000000 0.029552 0.000000
# 6 0.000000 0.000000 0.000000 0.000000 0.000000 0.027601
#
#
# Mechanical properties :
#
#
# Convention : Reuss Voigt Hill
#
# Bulk Modulus (GPa) = 49.03941 54.24903 51.64422
# Shear Modulus (GPa) = 31.91045 35.07917 33.49481
#
# Velocity S-wave (km/s) = 3.66293 3.84050 3.75277
# Velocity P-wave (km/s) = 6.20553 6.51732 6.36334
#
# Compressibility (1/GPa) = 0.02039176
#
# Stress axis : x y z
#
# Youngs Moduli (GPa) = 57.52100 57.52100 142.46787
#
# Poissons Ratio (x) = 0.38562 0.28455
# Poissons Ratio (y) = 0.38562 0.28455
# Poissons Ratio (z) = 0.11489 0.11489
#
# Static dielectric constant tensor:
#      x y z
#    x 2.001500 0.000000 0.000000 
#    y 0.000000 2.001500 0.000000 
#    z 0.000000 0.000000 1.936960 
# 
# From -- ./inp_files/1612.got.cif
#   From: 2010.05.17/outbox.cif.g08.bks.cpg/sg114_1_cif.got.tgz:1612.got - 2010.05.20 11:04:54.
