data_PCOD9555639
_publ_section_title
;
Structure prediction by ZEFSAII (Michael W. Deem and Ramdas Pophale) SiO2 
 PCOD9555639
Probable space group: P -4 21 M 
;
_chemical_formula_sum "Si O2"
_cell_formula_units_Z 64
_cell_length_a 12.651788
_cell_length_b 12.651788
_cell_length_c 21.789428
_cell_angle_alpha 90.000000
_cell_angle_beta 90.000000
_cell_angle_gamma 90.000000
_cell_volume 3487.784487
_symmetry_space_group_name_H-M "P -4 21 M "
_symmetry_group_IT_number 113
_symmetry_cell_setting 'tetragonal'
loop_
_space_group_symop_operation_xyz
x,y,z
y,-x,-z
-x,-y,z
-y,x,-z
1/2+x,1/2-y,-z
1/2-x,1/2+y,-z
1/2-y,1/2-x,z
1/2+y,1/2+x,z
loop_
_atom_site_type_symbol
_atom_site_label
_atom_site_fract_x
_atom_site_fract_y
_atom_site_fract_z
Si Si1 0.425205 0.594780 0.256359
Si Si2 0.312878 0.637202 0.137857
Si Si3 0.036679 0.153937 0.971074
Si Si4 0.983446 0.885440 0.386452
Si Si5 0.998619 0.679669 0.470047
Si Si6 0.667939 0.006451 0.942407
Si Si7 0.928113 0.257224 0.600313
Si Si8 0.328493 0.001387 0.272782
O O1 0.500000 0.500000 0.234288
O O2 0.331592 0.609556 0.208252
O O3 0.390833 0.555959 0.324781
O O4 0.484631 0.707692 0.253266
O O5 0.242855 0.742855 0.131612
O O6 0.419859 0.646697 0.097643
O O7 0.249142 0.543713 0.104974
O O8 0.041496 0.270822 0.997138
O O9 0.919973 0.109539 0.984856
O O10 0.003967 0.777831 0.423071
O O11 0.857685 0.894507 0.375322
O O12 0.000000 0.000000 0.419188
O O13 0.096745 0.596745 0.463038
O O14 0.007502 0.733760 0.537234
O O15 0.892709 0.607292 0.464711
O O16 0.603092 0.103092 0.915172
O O17 0.585180 0.914821 0.958191
O O18 0.820949 0.320949 0.588877
O O19 0.991246 0.317552 0.653504
O O20 0.392652 0.107349 0.253500
O O21 0.401989 0.901989 0.255494
#
# Coordination Sequence:
#
# PCOD9555639 Si02
#       8
#     8   8   8   8   8   8   8   8
#     4  11  23  40  58  82 119 157 198 245 288 345
#     4  10  21  36  59  85 113 153 197 242 289 342
#     4   9  18  32  56  85 113 149 184 238 296 346
#     4  11  23  40  55  87 118 156 194 237 292 351
#     4  10  23  41  62  89 118 150 189 240 301 363
#     4   9  18  34  55  83 119 155 192 235 290 358
#     4  10  20  37  60  87 115 147 188 238 297 354
#     4  10  20  38  63  85 111 150 198 249 300 353
#
# _framework density 18.349758000000001
#
# number of rings (size 3 to 8) (size 9 to 14) (size 15 to 20)
#    0.000    2.000    2.500    1.500    5.250    3.000 
#    0.000    2.500    0.000    3.750    0.000    0.000 
#    0.000    0.000    0.000    0.000    0.000    0.000 
#
# Total GULP energy -356328.404323 kJ/mol
# GULP energy per Si atom -5567.631318 kJ/mol
# Density = 1.830799 g / cm^3
# Si number density = 18.349758 Si / 1000 Ang^3
#
#
#
# Elastic Constant Matrix: (Units=GPa)
#
#
# Indices 1 2 3 4 5 6 
#
# 1 82.3709 39.8836 28.6428 0.0000 0.0000 0.0000
# 2 39.8836 82.3783 28.6432 0.0000 0.0000 0.0000
# 3 28.6428 28.6432 57.0261 0.0000 0.0000 0.0000
# 4 0.0000 0.0000 0.0000 8.3846 0.0000 0.0000
# 5 0.0000 0.0000 0.0000 0.0000 8.3881 0.0000
# 6 0.0000 0.0000 0.0000 0.0000 0.0000 8.2618
#
#
#
# Elastic Compliance Matrix: (Units=1/GPa)
#
#
# Indices 1 2 3 4 5 6 
#
# 1 0.017117 -0.006419 -0.005373 0.000000 0.000000 0.000000
# 2 -0.006419 0.017115 -0.005373 0.000000 0.000000 0.000000
# 3 -0.005373 -0.005373 0.022933 0.000000 0.000000 0.000000
# 4 0.000000 0.000000 0.000000 0.119266 0.000000 0.000000
# 5 0.000000 0.000000 0.000000 0.000000 0.119216 0.000000
# 6 0.000000 0.000000 0.000000 0.000000 0.000000 0.121039
#
#
# Mechanical properties :
#
#
# Convention : Reuss Voigt Hill
#
# Bulk Modulus (GPa) = 43.79118 46.23497 45.01307
# Shear Modulus (GPa) = 10.90213 13.31396 12.10805
#
# Velocity S-wave (km/s) = 2.44012 2.69656 2.57154
# Velocity P-wave (km/s) = 5.64406 5.91155 5.77935
#
# Compressibility (1/GPa) = 0.02283565
#
# Stress axis : x y z
#
# Youngs Moduli (GPa) = 58.42300 58.42896 43.60500
#
# Poissons Ratio (x) = 0.37504 0.23430
# Poissons Ratio (y) = 0.37500 0.23427
# Poissons Ratio (z) = 0.31392 0.31391
#
# Static dielectric constant tensor:
#      x y z
#    x 1.659060 0.000000 0.000000 
#    y 0.000000 1.659060 0.000000 
#    z 0.000000 0.000000 1.627610 
# 
# From -- ./inp_files/2878.got.cif
#   From: 2010.05.17/outbox.cif.g08.bks.cpg/sg113_cif.got.tgz:2878.got - 2010.05.20 11:03:00.
