data_PCOD9555573
_publ_section_title
;
Structure prediction by ZEFSAII (Michael W. Deem and Ramdas Pophale) SiO2 
 PCOD9555573
Probable space group: P -4 21 M 
;
_chemical_formula_sum "Si O2"
_cell_formula_units_Z 64
_cell_length_a 12.753120
_cell_length_b 12.753120
_cell_length_c 23.115188
_cell_angle_alpha 90.000000
_cell_angle_beta 90.000000
_cell_angle_gamma 90.000000
_cell_volume 3759.502019
_symmetry_space_group_name_H-M "P -4 21 M "
_symmetry_group_IT_number 113
_symmetry_cell_setting 'tetragonal'
loop_
_space_group_symop_operation_xyz
x,y,z
y,-x,-z
-x,-y,z
-y,x,-z
1/2+x,1/2-y,-z
1/2-x,1/2+y,-z
1/2-y,1/2-x,z
1/2+y,1/2+x,z
loop_
_atom_site_type_symbol
_atom_site_label
_atom_site_fract_x
_atom_site_fract_y
_atom_site_fract_z
Si Si1 0.884419 0.791979 0.829500
Si Si2 0.800894 0.871628 0.189591
Si Si3 0.300491 0.627628 0.054124
Si Si4 0.618850 0.290870 0.933462
Si Si5 0.129724 0.804030 0.367982
Si Si6 0.514134 0.625194 0.747804
Si Si7 0.998588 0.661825 0.454722
Si Si8 0.149939 0.952375 0.473222
O O1 0.804533 0.695468 0.817707
O O2 0.875522 0.820114 0.897439
O O3 0.850740 0.898464 0.796505
O O4 0.004404 0.773960 0.809587
O O5 0.700837 0.799164 0.201688
O O6 0.841211 0.846521 0.124763
O O7 0.898120 0.841342 0.231622
O O8 0.192351 0.692351 0.057641
O O9 0.283568 0.506003 0.066918
O O10 0.346904 0.645294 0.990423
O O11 0.679527 0.179527 0.936798
O O12 0.236899 0.736899 0.357703
O O13 0.065552 0.830924 0.310569
O O14 0.056248 0.731487 0.407679
O O15 0.145209 0.906283 0.408880
O O16 0.500000 0.500000 0.742220
O O17 0.086775 0.586775 0.481873
O O18 0.912478 0.587523 0.426648
O O19 0.946004 0.734298 0.502229
O O20 0.071516 0.887960 0.515816
#
# Coordination Sequence:
#
# PCOD9555573 Si02
#       8
#     8   8   8   8   8   8   8   8
#     4  10  20  36  56  81 108 141 186 231 279 334
#     4  10  21  37  55  80 111 145 185 230 284 333
#     4  10  20  33  54  80 108 142 184 230 284 344
#     4  10  20  34  53  79 110 143 182 231 283 341
#     4  10  20  33  54  81 107 142 181 222 266 316
#     4  10  21  35  57  76 108 144 186 229 272 320
#     4   9  18  32  50  75 109 143 174 215 266 319
#     4   9  18  31  53  78 107 135 178 221 268 319
#
# _framework density 17.023530000000001
#
# number of rings (size 3 to 8) (size 9 to 14) (size 15 to 20)
#    0.000    2.250    1.250    1.500    3.500    2.750 
#    0.000    0.000    0.000    6.375    0.000    0.000 
#    0.000    0.000    0.000    0.000    0.000    0.000 
#
# Total GULP energy -356494.180594 kJ/mol
# GULP energy per Si atom -5570.221572 kJ/mol
# Density = 1.698478 g / cm^3
# Si number density = 17.023530 Si / 1000 Ang^3
#
#
#
# Elastic Constant Matrix: (Units=GPa)
#
#
# Indices 1 2 3 4 5 6 
#
# 1 90.0308 32.0636 23.2638 0.0000 0.0000 0.0000
# 2 32.0636 90.0340 23.2634 0.0000 0.0000 0.0000
# 3 23.2638 23.2634 80.2291 0.0000 0.0000 0.0000
# 4 0.0000 0.0000 0.0000 17.4441 0.0000 0.0000
# 5 0.0000 0.0000 0.0000 0.0000 17.4437 0.0000
# 6 0.0000 0.0000 0.0000 0.0000 0.0000 12.4649
#
#
#
# Elastic Compliance Matrix: (Units=1/GPa)
#
#
# Indices 1 2 3 4 5 6 
#
# 1 0.013229 -0.004021 -0.002670 0.000000 0.000000 0.000000
# 2 -0.004021 0.013229 -0.002670 0.000000 0.000000 0.000000
# 3 -0.002670 -0.002670 0.014013 0.000000 0.000000 0.000000
# 4 0.000000 0.000000 0.000000 0.057326 0.000000 0.000000
# 5 0.000000 0.000000 0.000000 0.000000 0.057327 0.000000
# 6 0.000000 0.000000 0.000000 0.000000 0.000000 0.080225
#
#
# Mechanical properties :
#
#
# Convention : Reuss Voigt Hill
#
# Bulk Modulus (GPa) = 45.98034 46.38617 46.18325
# Shear Modulus (GPa) = 19.13352 21.58408 20.35880
#
# Velocity S-wave (km/s) = 3.35617 3.56462 3.46196
# Velocity P-wave (km/s) = 6.48745 6.65202 6.57025
#
# Compressibility (1/GPa) = 0.02174843
#
# Stress axis : x y z
#
# Youngs Moduli (GPa) = 75.58893 75.59205 71.36405
#
# Poissons Ratio (x) = 0.30399 0.19054
# Poissons Ratio (y) = 0.30398 0.19053
# Poissons Ratio (z) = 0.20183 0.20181
#
# Static dielectric constant tensor:
#      x y z
#    x 1.585040 0.000000 0.000000 
#    y 0.000000 1.585040 0.000000 
#    z 0.000000 0.000000 1.577400 
# 
# From -- ./inp_files/2899.got.cif
#   From: 2010.05.17/outbox.cif.g08.bks.cpg/sg113_cif.got.tgz:2899.got - 2010.05.20 11:03:00.
