data_PCOD9555678
_publ_section_title
;
Structure prediction by ZEFSAII (Michael W. Deem and Ramdas Pophale) SiO2 
 PCOD9555678
Probable space group: P -4 21 M 
;
_chemical_formula_sum "Si O2"
_cell_formula_units_Z 56
_cell_length_a 11.437364
_cell_length_b 11.437364
_cell_length_c 21.960766
_cell_angle_alpha 90.000000
_cell_angle_beta 90.000000
_cell_angle_gamma 90.000000
_cell_volume 2872.760167
_symmetry_space_group_name_H-M "P -4 21 M "
_symmetry_group_IT_number 113
_symmetry_cell_setting 'tetragonal'
loop_
_space_group_symop_operation_xyz
x,y,z
y,-x,-z
-x,-y,z
-y,x,-z
1/2+x,1/2-y,-z
1/2-x,1/2+y,-z
1/2-y,1/2-x,z
1/2+y,1/2+x,z
loop_
_atom_site_type_symbol
_atom_site_label
_atom_site_fract_x
_atom_site_fract_y
_atom_site_fract_z
Si Si1 0.809645 0.499109 0.498236
Si Si2 0.654299 0.357312 0.850483
Si Si3 0.844467 0.850172 0.288162
Si Si4 0.030971 0.135049 0.606181
Si Si5 0.044502 0.731270 0.362281
Si Si6 0.994104 0.694617 0.936510
Si Si7 0.694646 0.993868 0.923206
O O1 0.904260 0.595741 0.516584
O O2 0.705194 0.505917 0.545178
O O3 0.778909 0.519340 0.427709
O O4 0.873459 0.373459 0.500532
O O5 0.755276 0.255276 0.851231
O O6 0.634854 0.391784 0.780552
O O7 0.705740 0.463326 0.890529
O O8 0.539859 0.296840 0.879626
O O9 0.732335 0.767666 0.288451
O O10 0.954140 0.773536 0.311740
O O11 0.826745 0.951895 0.337154
O O12 0.165513 0.137225 0.626014
O O13 0.000000 0.000000 0.595428
O O14 0.111153 0.611153 0.348925
O O15 0.869615 0.630386 0.925387
O O16 0.091024 0.591024 0.932155
O O17 0.001292 0.735673 0.006559
O O18 0.591110 0.091110 0.919470
O O19 0.629945 0.870056 0.910799
#
# Coordination Sequence:
#
# PCOD9555678 Si02
#       7
#     8   8   8   8   8   8   8
#     4  10  21  37  58  85 110 132 173 237 288 326
#     4   9  17  30  52  81 112 145 187 232 277 339
#     4  10  21  36  56  82 114 150 185 230 280 335
#     4  10  22  36  56  78 108 147 185 220 270 337
#     4  10  22  37  56  79 108 148 188 228 278 336
#     4   8  14  27  49  76 108 145 185 232 281 331
#     4   8  14  26  48  78 110 144 183 231 283 335
#
# _framework density 19.493448000000001
#
# number of rings (size 3 to 8) (size 9 to 14) (size 15 to 20)
#    0.000    2.714    0.000    2.143    4.000    1.429 
#    0.000    2.857    9.429    3.429    0.000    0.000 
#    0.000    0.000    0.000    0.000    0.000    0.000 
#
# Total GULP energy -312458.018244 kJ/mol
# GULP energy per Si atom -5579.607469 kJ/mol
# Density = 1.944908 g / cm^3
# Si number density = 19.493448 Si / 1000 Ang^3
#
#
#
# Elastic Constant Matrix: (Units=GPa)
#
#
# Indices 1 2 3 4 5 6 
#
# 1 38.6915 22.2739 27.3076 0.0000 0.0000 0.0000
# 2 22.2739 38.6943 27.3107 0.0000 0.0000 0.0000
# 3 27.3076 27.3107 77.9544 0.0000 0.0000 0.0000
# 4 0.0000 0.0000 0.0000 31.7236 0.0000 0.0000
# 5 0.0000 0.0000 0.0000 0.0000 31.7059 0.0000
# 6 0.0000 0.0000 0.0000 0.0000 0.0000 22.7857
#
#
#
# Elastic Compliance Matrix: (Units=1/GPa)
#
#
# Indices 1 2 3 4 5 6 
#
# 1 0.042405 -0.018500 -0.008373 0.000000 0.000000 0.000000
# 2 -0.018500 0.042404 -0.008375 0.000000 0.000000 0.000000
# 3 -0.008373 -0.008375 0.018695 0.000000 0.000000 0.000000
# 4 0.000000 0.000000 0.000000 0.031522 0.000000 0.000000
# 5 0.000000 0.000000 0.000000 0.000000 0.031540 0.000000
# 6 0.000000 0.000000 0.000000 0.000000 0.000000 0.043887
#
#
# Mechanical properties :
#
#
# Convention : Reuss Voigt Hill
#
# Bulk Modulus (GPa) = 30.29620 34.34718 32.32169
# Shear Modulus (GPa) = 17.12595 22.47291 19.79943
#
# Velocity S-wave (km/s) = 2.96725 3.39904 3.19046
# Velocity P-wave (km/s) = 5.22636 5.75002 5.49443
#
# Compressibility (1/GPa) = 0.03300744
#
# Stress axis : x y z
#
# Youngs Moduli (GPa) = 23.58196 23.58246 53.48902
#
# Poissons Ratio (x) = 0.43628 0.44788
# Poissons Ratio (y) = 0.43627 0.44799
# Poissons Ratio (z) = 0.19746 0.19751
#
# Static dielectric constant tensor:
#      x y z
#    x 1.684530 0.000000 0.000000 
#    y 0.000000 1.684540 0.000000 
#    z 0.000000 0.000000 1.660620 
# 
# From -- ./inp_files/2673.got.cif
#   From: 2010.05.17/outbox.cif.g08.bks.cpg/sg113_cif.got.tgz:2673.got - 2010.05.20 11:03:00.
