data_PCOD9555047
_publ_section_title
;
Structure prediction by ZEFSAII (Michael W. Deem and Ramdas Pophale) SiO2 
 PCOD9555047
Probable space group: P -4 2 C
;
_chemical_formula_sum "Si O2"
_cell_formula_units_Z 38
_cell_length_a 11.062346
_cell_length_b 11.062346
_cell_length_c 15.990863
_cell_angle_alpha 90.000000
_cell_angle_beta 90.000000
_cell_angle_gamma 90.000000
_cell_volume 1956.889839
_symmetry_space_group_name_H-M "P -4 2 C"
_symmetry_group_IT_number 112
_symmetry_cell_setting 'tetragonal'
loop_
_space_group_symop_operation_xyz
x,y,z
y,-x,-z
-x,-y,z
-y,x,-z
x,-y,1/2-z
-x,y,1/2-z
-y,-x,1/2+z
y,x,1/2+z
loop_
_atom_site_type_symbol
_atom_site_label
_atom_site_fract_x
_atom_site_fract_y
_atom_site_fract_z
Si Si1 0.000000 0.500000 0.475531
Si Si2 0.811220 0.100610 0.873343
Si Si3 0.000000 0.000000 0.250000
Si Si4 0.440942 0.795940 0.838774
Si Si5 0.416634 0.645457 0.545133
Si Si6 0.268919 0.115143 0.981036
O O1 0.889108 0.475762 0.412746
O O2 0.960300 0.620326 0.523056
O O3 0.914203 0.081569 0.806509
O O4 0.703319 0.185960 0.838794
O O5 0.762458 0.967636 0.900930
O O6 0.866318 0.159069 0.956678
O O7 0.500000 0.827825 0.750000
O O8 0.502922 0.672805 0.872511
O O9 0.516351 0.646622 0.469767
O O10 0.318423 0.751268 0.539248
#
# Coordination Sequence:
#
# PCOD9555047 Si02
#       6
#     4   8   2   8   8   8
#     4   8  19  32  62  89 114 146 212 256 299 356
#     4  11  23  40  62  87 124 161 208 251 319 367
#     4  12  28  38  54  94 132 166 196 274 302 382
#     4  10  20  35  60  89 119 158 199 252 307 368
#     4  10  20  38  62  92 122 151 205 259 306 365
#     4  10  20  40  62  91 111 165 205 255 302 380
#
# _framework density 19.418568
#
# number of rings (size 3 to 8) (size 9 to 14) (size 15 to 20)
#    0.000    1.895    2.105    1.579    8.842    0.000 
#    0.000    2.105    0.000    3.158    0.000    0.000 
#    0.000    0.000    0.000    0.000    0.000    0.000 
#
# Total GULP energy -211629.773158 kJ/mol
# GULP energy per Si atom -5569.204557 kJ/mol
# Density = 1.937437 g / cm^3
# Si number density = 19.418568 Si / 1000 Ang^3
#
#
#
# Elastic Constant Matrix: (Units=GPa)
#
#
# Indices 1 2 3 4 5 6 
#
# 1 82.7861 14.2059 32.3900 0.0000 0.0000 0.0000
# 2 14.2059 82.7861 32.3900 0.0000 0.0000 0.0000
# 3 32.3900 32.3900 50.4752 0.0000 0.0000 0.0000
# 4 0.0000 0.0000 0.0000 8.3406 0.0000 0.0000
# 5 0.0000 0.0000 0.0000 0.0000 8.3406 0.0000
# 6 0.0000 0.0000 0.0000 0.0000 0.0000 36.8092
#
#
#
# Elastic Compliance Matrix: (Units=1/GPa)
#
#
# Indices 1 2 3 4 5 6 
#
# 1 0.016312 0.001731 -0.011578 0.000000 0.000000 0.000000
# 2 0.001731 0.016312 -0.011578 0.000000 0.000000 0.000000
# 3 -0.011578 -0.011578 0.034671 0.000000 0.000000 0.000000
# 4 0.000000 0.000000 0.000000 0.119896 0.000000 0.000000
# 5 0.000000 0.000000 0.000000 0.000000 0.119896 0.000000
# 6 0.000000 0.000000 0.000000 0.000000 0.000000 0.027167
#
#
# Mechanical properties :
#
#
# Convention : Reuss Voigt Hill
#
# Bulk Modulus (GPa) = 40.90914 41.55767 41.23340
# Shear Modulus (GPa) = 12.97845 19.83551 16.40698
#
# Velocity S-wave (km/s) = 2.58806 3.19951 2.90989
# Velocity P-wave (km/s) = 5.48119 5.92424 5.70702
#
# Compressibility (1/GPa) = 0.02444442
#
# Stress axis : x y z
#
# Youngs Moduli (GPa) = 61.30344 61.30344 28.84232
#
# Poissons Ratio (x) = -0.10611 0.33394
# Poissons Ratio (y) = -0.10611 0.33394
# Poissons Ratio (z) = 0.70979 0.70979
#
# Static dielectric constant tensor:
#      x y z
#    x 1.754340 0.000000 0.000000 
#    y 0.000000 1.754340 0.000000 
#    z 0.000000 0.000000 1.661750 
# 
# From -- ./inp_files/3337.got.cif
#   From: 2010.05.17/outbox.cif.g08.bks.cpg/sg112_2_cif.got.tgz:3337.got - 2010.05.20 10:59:04.
