data_PCOD9555290
_publ_section_title
;
Structure prediction by ZEFSAII (Michael W. Deem and Ramdas Pophale) SiO2 
 PCOD9555290
Probable space group: P -4 2 C
;
_chemical_formula_sum "Si O2"
_cell_formula_units_Z 12
_cell_length_a 5.148133
_cell_length_b 5.148133
_cell_length_c 17.901397
_cell_angle_alpha 90.000000
_cell_angle_beta 90.000000
_cell_angle_gamma 90.000000
_cell_volume 474.445619
_symmetry_space_group_name_H-M "P -4 2 C"
_symmetry_group_IT_number 112
_symmetry_cell_setting 'tetragonal'
loop_
_space_group_symop_operation_xyz
x,y,z
y,-x,-z
-x,-y,z
-y,x,-z
x,-y,1/2-z
-x,y,1/2-z
-y,-x,1/2+z
y,x,1/2+z
loop_
_atom_site_type_symbol
_atom_site_label
_atom_site_fract_x
_atom_site_fract_y
_atom_site_fract_z
Si Si1 0.248660 0.680529 0.879564
Si Si2 0.000000 0.000000 0.000000
Si Si3 0.000000 0.000000 0.250000
O O1 0.500000 0.500000 0.878589
O O2 0.000000 0.500000 0.891217
O O3 0.186351 0.829036 0.802612
O O4 0.223225 0.888046 0.946088
#
# Coordination Sequence:
#
# PCOD9555290 Si02
#       3
#     8   2   2
#     4  11  27  48  81 114 163 214 273 342 416 492
#     4  10  28  46  76 118 160 206 280 334 420 490
#     4  10  26  52  76 122 156 216 274 344 410 500
#
# _framework density 25.292677000000001
#
# number of rings (size 3 to 8) (size 9 to 14) (size 15 to 20)
#    0.000    1.333    0.000    1.000    9.333   16.000 
#    0.000   10.000    0.000    0.000    0.000    0.000 
#    0.000    0.000    0.000    0.000    0.000    0.000 
#
# Total GULP energy -67366.452941 kJ/mol
# GULP energy per Si atom -5613.871078 kJ/mol
# Density = 2.523511 g / cm^3
# Si number density = 25.292677 Si / 1000 Ang^3
#
#
#
# Elastic Constant Matrix: (Units=GPa)
#
#
# Indices 1 2 3 4 5 6 
#
# 1 196.2928 103.4784 93.5005 0.0000 0.0000 0.0000
# 2 103.4784 196.2928 93.5005 0.0000 0.0000 0.0000
# 3 93.5005 93.5005 220.8965 0.0000 0.0000 0.0000
# 4 0.0000 0.0000 0.0000 17.5386 0.0000 0.0000
# 5 0.0000 0.0000 0.0000 0.0000 17.5386 0.0000
# 6 0.0000 0.0000 0.0000 0.0000 0.0000 78.4643
#
#
#
# Elastic Compliance Matrix: (Units=1/GPa)
#
#
# Indices 1 2 3 4 5 6 
#
# 1 0.007653 -0.003121 -0.001919 0.000000 0.000000 0.000000
# 2 -0.003121 0.007653 -0.001919 0.000000 0.000000 0.000000
# 3 -0.001919 -0.001919 0.006151 0.000000 0.000000 0.000000
# 4 0.000000 0.000000 0.000000 0.057017 0.000000 0.000000
# 5 0.000000 0.000000 0.000000 0.000000 0.057017 0.000000
# 6 0.000000 0.000000 0.000000 0.000000 0.000000 0.012745
#
#
# Mechanical properties :
#
#
# Convention : Reuss Voigt Hill
#
# Bulk Modulus (GPa) = 132.58632 132.71565 132.65098
# Shear Modulus (GPa) = 30.36432 44.24180 37.30306
#
# Velocity S-wave (km/s) = 3.46861 4.18687 3.84455
# Velocity P-wave (km/s) = 8.28108 8.71545 8.50104
#
# Compressibility (1/GPa) = 0.00754226
#
# Stress axis : x y z
#
# Youngs Moduli (GPa) = 130.65984 130.65984 162.56975
#
# Poissons Ratio (x) = 0.40776 0.31191
# Poissons Ratio (y) = 0.40776 0.31191
# Poissons Ratio (z) = 0.25068 0.25068
#
# Static dielectric constant tensor:
#      x y z
#    x 1.817870 0.000000 0.000000 
#    y 0.000000 1.817870 0.000000 
#    z 0.000000 0.000000 2.009560 
# 
# From -- ./inp_files/3520.got.cif
#   From: 2010.05.17/outbox.cif.g08.bks.cpg/sg112_2_cif.got.tgz:3520.got - 2010.05.20 10:59:04.
