data_PCOD9555589
_publ_section_title
;
Structure prediction by ZEFSAII (Michael W. Deem and Ramdas Pophale) SiO2 
 PCOD9555589
Probable space group: P -4 21 M 
;
_chemical_formula_sum "Si O2"
_cell_formula_units_Z 56
_cell_length_a 15.902369
_cell_length_b 15.902369
_cell_length_c 11.754117
_cell_angle_alpha 90.000000
_cell_angle_beta 90.000000
_cell_angle_gamma 90.000000
_cell_volume 2972.443872
_symmetry_space_group_name_H-M "P -4 21 M "
_symmetry_group_IT_number 113
_symmetry_cell_setting 'tetragonal'
loop_
_space_group_symop_operation_xyz
x,y,z
y,-x,-z
-x,-y,z
-y,x,-z
1/2+x,1/2-y,-z
1/2-x,1/2+y,-z
1/2-y,1/2-x,z
1/2+y,1/2+x,z
loop_
_atom_site_type_symbol
_atom_site_label
_atom_site_fract_x
_atom_site_fract_y
_atom_site_fract_z
Si Si1 0.699115 0.667776 0.327349
Si Si2 0.621060 0.261986 0.907456
Si Si3 0.457470 0.311082 0.488907
Si Si4 0.814062 0.177862 0.155397
Si Si5 0.031329 0.337063 0.401685
Si Si6 0.934907 0.922911 0.681395
Si Si7 0.675787 0.952178 0.844463
O O1 0.741460 0.758541 0.311982
O O2 0.676818 0.631427 0.201961
O O3 0.628392 0.675993 0.421255
O O4 0.769917 0.604798 0.373767
O O5 0.687038 0.187038 0.884829
O O6 0.530776 0.217297 0.908090
O O7 0.645905 0.302050 0.026706
O O8 0.476536 0.212795 0.506417
O O9 0.521259 0.364026 0.412349
O O10 0.459288 0.354295 0.613393
O O11 0.725108 0.225108 0.190488
O O12 0.858320 0.102187 0.225276
O O13 0.882021 0.252218 0.161243
O O14 0.077007 0.422994 0.436094
O O15 0.982998 0.346915 0.282629
O O16 0.000000 0.000000 0.711233
O O17 0.593218 0.906783 0.894778
#
# Coordination Sequence:
#
# PCOD9555589 Si02
#       7
#     8   8   8   8   8   8   8
#     4   9  19  35  58  81 111 159 202 238 300 370
#     4   9  20  40  60  85 120 153 201 258 300 354
#     4  12  20  35  57  84 121 156 194 243 303 366
#     4  10  23  41  62  87 124 165 206 251 304 373
#     4  10  20  34  54  85 119 155 201 252 298 356
#     4  12  22  36  59  88 123 159 197 251 309 359
#     4  10  20  36  60  87 118 160 204 249 305 362
#
# _framework density 18.839715000000002
#
# number of rings (size 3 to 8) (size 9 to 14) (size 15 to 20)
#    0.000    1.714    4.286    1.286    2.000    4.000 
#    0.000    0.000    0.000    0.000    0.000    0.000 
#    0.000    0.000    0.000    0.000    0.000    0.000 
#
# Total GULP energy -311955.536777 kJ/mol
# GULP energy per Si atom -5570.634585 kJ/mol
# Density = 1.879683 g / cm^3
# Si number density = 18.839715 Si / 1000 Ang^3
#
#
#
# Elastic Constant Matrix: (Units=GPa)
#
#
# Indices 1 2 3 4 5 6 
#
# 1 18.4970 99.2031 37.3422 0.0000 0.0000 0.0000
# 2 99.2031 18.4992 37.3423 0.0000 0.0000 0.0000
# 3 37.3422 37.3423 64.4373 0.0000 0.0000 0.0000
# 4 0.0000 0.0000 0.0000 25.3308 0.0000 0.0000
# 5 0.0000 0.0000 0.0000 0.0000 25.3324 0.0000
# 6 0.0000 0.0000 0.0000 0.0000 0.0000 39.8025
#
#
#
# Elastic Compliance Matrix: (Units=1/GPa)
#
#
# Indices 1 2 3 4 5 6 
#
# 1 0.000523 0.012914 -0.007787 0.000000 0.000000 0.000000
# 2 0.012914 0.000523 -0.007787 0.000000 0.000000 0.000000
# 3 -0.007787 -0.007787 0.024544 0.000000 0.000000 0.000000
# 4 0.000000 0.000000 0.000000 0.039478 0.000000 0.000000
# 5 0.000000 0.000000 0.000000 0.000000 0.039475 0.000000
# 6 0.000000 0.000000 0.000000 0.000000 0.000000 0.025124
#
#
# Mechanical properties :
#
#
# Convention : Reuss Voigt Hill
#
# Bulk Modulus (GPa) = 49.33257 49.91209 49.62233
# Shear Modulus (GPa) = 35.27474 13.26287 24.26881
#
# Velocity S-wave (km/s) = 4.33177 2.65615 3.59301
# Velocity P-wave (km/s) = 7.15970 5.99645 6.60374
#
# Compressibility (1/GPa) = 0.02027058
#
# Stress axis : x y z
#
# Youngs Moduli (GPa) = 1912.02810 1910.73519 40.74259
#
# Poissons Ratio (x) = -24.67521 0.31726
# Poissons Ratio (y) = -24.69190 0.31727
# Poissons Ratio (z) = 14.88883 14.87912
#
# Static dielectric constant tensor:
#      x y z
#    x 1.732060 0.000000 0.000000 
#    y 0.000000 1.732060 0.000000 
#    z 0.000000 0.000000 1.649740 
# 
# From -- ./inp_files/1913.got.cif
#   From: 2010.05.17/outbox.cif.g08.bks.cpg/sg113_cif.got.tgz:1913.got - 2010.05.20 11:03:00.
