data_PCOD9555797
_publ_section_title
;
Structure prediction by ZEFSAII (Michael W. Deem and Ramdas Pophale) SiO2 
 PCOD9555797
Probable space group: P -4 21 M 
;
_chemical_formula_sum "Si O2"
_cell_formula_units_Z 48
_cell_length_a 10.040018
_cell_length_b 10.040018
_cell_length_c 19.063213
_cell_angle_alpha 90.000000
_cell_angle_beta 90.000000
_cell_angle_gamma 90.000000
_cell_volume 1921.609262
_symmetry_space_group_name_H-M "P -4 21 M "
_symmetry_group_IT_number 113
_symmetry_cell_setting 'tetragonal'
loop_
_space_group_symop_operation_xyz
x,y,z
y,-x,-z
-x,-y,z
-y,x,-z
1/2+x,1/2-y,-z
1/2-x,1/2+y,-z
1/2-y,1/2-x,z
1/2+y,1/2+x,z
loop_
_atom_site_type_symbol
_atom_site_label
_atom_site_fract_x
_atom_site_fract_y
_atom_site_fract_z
Si Si1 0.195441 0.926095 0.743530
Si Si2 0.783227 0.515761 0.702309
Si Si3 0.313536 0.415776 0.104516
Si Si4 0.506341 0.220430 0.044918
Si Si5 0.545549 0.751253 0.442717
Si Si6 0.745118 0.031989 0.597757
O O1 0.313152 0.813152 0.739687
O O2 0.056118 0.845264 0.735032
O O3 0.196812 0.986981 0.820763
O O4 0.227529 0.018055 0.676172
O O5 0.896075 0.396075 0.701675
O O6 0.748751 0.556353 0.621354
O O7 0.859259 0.640742 0.736473
O O8 0.201211 0.298790 0.107242
O O9 0.277772 0.494919 0.034303
O O10 0.453813 0.339231 0.093844
O O11 0.396107 0.103894 0.049811
O O12 0.647978 0.147978 0.058314
O O13 0.600964 0.899037 0.444047
O O14 0.653079 0.653507 0.409772
O O15 0.540041 0.720446 0.525154
O O16 0.600111 0.100111 0.591969
#
# Coordination Sequence:
#
# PCOD9555797 Si02
#       6
#     8   8   8   8   8   8
#     4   8  15  27  43  67  97 124 151 189 236 282
#     4   8  13  22  39  64  91 119 154 196 239 276
#     4   9  17  31  51  74 102 131 160 201 246 289
#     4   9  18  32  52  78 102 129 168 204 240 295
#     4   9  17  28  43  63  87 119 158 197 233 271
#     4   9  17  29  45  66  91 119 155 194 232 278
#
# _framework density 24.979064000000001
#
# number of rings (size 3 to 8) (size 9 to 14) (size 15 to 20)
#    0.000    3.333    0.000    2.500    0.000    2.333 
#    0.000    4.167    0.000   11.000    0.000    9.333 
#    0.000    0.000    0.000    0.000    0.000    0.000 
#
# Total GULP energy -267290.722697 kJ/mol
# GULP energy per Si atom -5568.556723 kJ/mol
# Density = 2.492221 g / cm^3
# Si number density = 24.979064 Si / 1000 Ang^3
#
#
#
# Elastic Constant Matrix: (Units=GPa)
#
#
# Indices 1 2 3 4 5 6 
#
# 1 35.7154 10.3034 0.7925 0.0000 0.0000 0.0000
# 2 10.3034 35.7148 0.7927 0.0000 0.0000 0.0000
# 3 0.7925 0.7927 137.6510 0.0000 0.0000 0.0000
# 4 0.0000 0.0000 0.0000 12.6903 0.0000 0.0000
# 5 0.0000 0.0000 0.0000 0.0000 12.6917 0.0000
# 6 0.0000 0.0000 0.0000 0.0000 0.0000 24.5290
#
#
#
# Elastic Compliance Matrix: (Units=1/GPa)
#
#
# Indices 1 2 3 4 5 6 
#
# 1 0.030543 -0.008809 -0.000125 0.000000 0.000000 0.000000
# 2 -0.008809 0.030544 -0.000125 0.000000 0.000000 0.000000
# 3 -0.000125 -0.000125 0.007266 0.000000 0.000000 0.000000
# 4 0.000000 0.000000 0.000000 0.078801 0.000000 0.000000
# 5 0.000000 0.000000 0.000000 0.000000 0.078792 0.000000
# 6 0.000000 0.000000 0.000000 0.000000 0.000000 0.040768
#
#
# Mechanical properties :
#
#
# Convention : Reuss Voigt Hill
#
# Bulk Modulus (GPa) = 19.90644 25.87316 22.88980
# Shear Modulus (GPa) = 16.57956 23.12836 19.85396
#
# Velocity S-wave (km/s) = 2.57911 3.04618 2.82232
# Velocity P-wave (km/s) = 4.10556 4.76998 4.45019
#
# Compressibility (1/GPa) = 0.05023499
#
# Stress axis : x y z
#
# Youngs Moduli (GPa) = 32.74067 32.74005 137.62370
#
# Poissons Ratio (x) = 0.28840 0.01722
# Poissons Ratio (y) = 0.28840 0.01723
# Poissons Ratio (z) = 0.00410 0.00410
#
# Static dielectric constant tensor:
#      x y z
#    x 2.030570 0.000000 0.000000 
#    y 0.000000 2.030570 0.000000 
#    z 0.000000 0.000000 2.006750 
# 
# From -- ./inp_files/2451.got.cif
#   From: 2010.05.17/outbox.cif.g08.bks.cpg/sg113_cif.got.tgz:2451.got - 2010.05.20 11:03:00.
