data_PCOD9555978
_publ_section_title
;
Structure prediction by ZEFSAII (Michael W. Deem and Ramdas Pophale) SiO2 
 PCOD9555978
Probable space group: P -4 21 C
;
_chemical_formula_sum "Si O2"
_cell_formula_units_Z 48
_cell_length_a 8.141786
_cell_length_b 8.141786
_cell_length_c 27.974858
_cell_angle_alpha 90.000000
_cell_angle_beta 90.000000
_cell_angle_gamma 90.000000
_cell_volume 1854.416390
_symmetry_space_group_name_H-M "P -4 21 C"
_symmetry_group_IT_number 114
_symmetry_cell_setting 'tetragonal'
loop_
_space_group_symop_operation_xyz
x,y,z
y,-x,-z
-x,-y,z
-y,x,-z
1/2+x,1/2-y,1/2-z
1/2-x,1/2+y,1/2-z
1/2-y,1/2-x,1/2+z
1/2+y,1/2+x,1/2+z
loop_
_atom_site_type_symbol
_atom_site_label
_atom_site_fract_x
_atom_site_fract_y
_atom_site_fract_z
Si Si1 0.770419 0.269247 0.996414
Si Si2 0.229888 0.391557 0.194139
Si Si3 0.736541 0.112479 0.898483
Si Si4 0.000000 0.000000 0.000000
Si Si5 0.000000 0.500000 0.431771
Si Si6 0.500000 0.500000 0.000000
Si Si7 0.387504 0.712177 0.627528
Si Si8 0.251090 0.115980 0.777667
O O1 0.693608 0.164672 0.952176
O O2 0.891165 0.389757 0.967427
O O3 0.634340 0.376687 0.022875
O O4 0.876003 0.130034 0.023829
O O5 0.219151 0.373487 0.137381
O O6 0.202010 0.574809 0.212299
O O7 0.375345 0.311026 0.223628
O O8 0.072136 0.283127 0.209481
O O9 0.927478 0.157183 0.887473
O O10 0.742988 0.917731 0.887209
O O11 0.890190 0.615173 0.397091
O O12 0.374616 0.701120 0.685097
#
# Coordination Sequence:
#
# PCOD9555978 Si02
#       8
#     8   8   8   2   4   2   8   8
#     4  11  24  43  68  97 132 168 214 267 329 402
#     4  10  21  36  54  79 113 154 202 252 307 362
#     4   9  19  38  60  83 117 165 209 248 305 389
#     4  12  24  48  76  96 124 186 228 252 328 432
#     4  10  20  38  64  96 128 168 210 260 318 386
#     4  12  28  44  64 108 144 162 204 292 348 376
#     4   9  18  34  58  88 120 159 210 256 300 362
#     4  10  21  35  53  81 117 158 204 253 303 366
#
# _framework density 25.884152
#
# number of rings (size 3 to 8) (size 9 to 14) (size 15 to 20)
#    0.000    2.000    0.000    4.000    0.000    7.333 
#    0.000    5.000    0.000    0.000    0.000    0.000 
#    0.000    0.000    0.000    0.000    0.000    0.000 
#
# Total GULP energy -267932.441441 kJ/mol
# GULP energy per Si atom -5581.925863 kJ/mol
# Density = 2.582524 g / cm^3
# Si number density = 25.884152 Si / 1000 Ang^3
#
#
#
# Elastic Constant Matrix: (Units=GPa)
#
#
# Indices 1 2 3 4 5 6 
#
# 1 88.1863 42.0002 18.9109 0.0000 0.0000 0.0000
# 2 42.0002 88.1863 18.9109 0.0000 0.0000 0.0000
# 3 18.9109 18.9109 100.5266 0.0000 0.0000 0.0000
# 4 0.0000 0.0000 0.0000 32.7389 0.0000 0.0000
# 5 0.0000 0.0000 0.0000 0.0000 32.7389 0.0000
# 6 0.0000 0.0000 0.0000 0.0000 0.0000 51.3311
#
#
#
# Elastic Compliance Matrix: (Units=1/GPa)
#
#
# Indices 1 2 3 4 5 6 
#
# 1 0.014888 -0.006763 -0.001529 0.000000 0.000000 0.000000
# 2 -0.006763 0.014888 -0.001529 0.000000 0.000000 0.000000
# 3 -0.001529 -0.001529 0.010523 0.000000 0.000000 0.000000
# 4 0.000000 0.000000 0.000000 0.030545 0.000000 0.000000
# 5 0.000000 0.000000 0.000000 0.000000 0.030545 0.000000
# 6 0.000000 0.000000 0.000000 0.000000 0.000000 0.019481
#
#
# Mechanical properties :
#
#
# Convention : Reuss Voigt Hill
#
# Bulk Modulus (GPa) = 48.40434 48.50479 48.45457
# Shear Modulus (GPa) = 33.92197 36.50027 35.21112
#
# Velocity S-wave (km/s) = 3.62405 3.75926 3.69227
# Velocity P-wave (km/s) = 6.02102 6.13372 6.07763
#
# Compressibility (1/GPa) = 0.02065931
#
# Stress axis : x y z
#
# Youngs Moduli (GPa) = 67.16614 67.16614 95.03258
#
# Poissons Ratio (x) = 0.45425 0.14526
# Poissons Ratio (y) = 0.45425 0.14526
# Poissons Ratio (z) = 0.10267 0.10267
#
# Static dielectric constant tensor:
#      x y z
#    x 2.097400 0.000000 0.000000 
#    y 0.000000 2.097400 0.000000 
#    z 0.000000 0.000000 2.065650 
# 
# From -- ./inp_files/4048.got.cif
#   From: 2010.05.17/outbox.cif.g08.bks.cpg/sg114_3_cif.got.tgz:4048.got - 2010.05.20 11:04:54.
