data_PCOD9555306
_publ_section_title
;
Structure prediction by ZEFSAII (Michael W. Deem and Ramdas Pophale) SiO2 
 PCOD9555306
Probable space group: P -4 2 C
;
_chemical_formula_sum "Si O2"
_cell_formula_units_Z 48
_cell_length_a 12.063838
_cell_length_b 12.063838
_cell_length_c 16.821497
_cell_angle_alpha 90.000000
_cell_angle_beta 90.000000
_cell_angle_gamma 90.000000
_cell_volume 2448.136538
_symmetry_space_group_name_H-M "P -4 2 C"
_symmetry_group_IT_number 112
_symmetry_cell_setting 'tetragonal'
loop_
_space_group_symop_operation_xyz
x,y,z
y,-x,-z
-x,-y,z
-y,x,-z
x,-y,1/2-z
-x,y,1/2-z
-y,-x,1/2+z
y,x,1/2+z
loop_
_atom_site_type_symbol
_atom_site_label
_atom_site_fract_x
_atom_site_fract_y
_atom_site_fract_z
Si Si1 0.253644 0.685744 0.857667
Si Si2 0.146311 0.898447 0.095665
Si Si3 0.879894 0.649050 0.792941
Si Si4 0.098174 0.838748 0.411657
Si Si5 0.509057 0.124069 0.444114
Si Si6 0.549281 0.342810 0.968805
O O1 0.216315 0.641977 0.772295
O O2 0.233709 0.817121 0.861429
O O3 0.165201 0.631919 0.920301
O O4 0.373825 0.652630 0.891008
O O5 0.235856 0.868707 0.160554
O O6 0.032075 0.831698 0.105884
O O7 0.123965 0.030637 0.101489
O O8 0.185863 0.882420 0.004951
O O9 0.876402 0.556994 0.860923
O O10 0.000000 0.645178 0.750000
O O11 0.458201 0.217936 0.500173
O O12 0.500000 0.000000 0.476745
O O13 0.424428 0.390766 0.966992
#
# Coordination Sequence:
#
# PCOD9555306 Si02
#       6
#     8   8   8   8   8   8
#     4  11  21  33  56  84 118 156 194 247 302 372
#     4   9  18  31  49  73 114 155 190 242 288 364
#     4  12  21  33  52  88 124 153 191 244 318 371
#     4   9  17  32  49  74 107 156 200 233 289 360
#     4  11  21  36  60  88 118 155 194 256 313 358
#     4   9  21  42  63  85 114 156 209 252 297 366
#
# _framework density 19.606749000000001
#
# number of rings (size 3 to 8) (size 9 to 14) (size 15 to 20)
#    0.000    1.833    3.333    2.500    0.000    2.000 
#    0.000    0.833    0.000    4.000    0.000    0.000 
#    0.000    0.000    0.000    0.000    0.000    0.000 
#
# Total GULP energy -267925.517147 kJ/mol
# GULP energy per Si atom -5581.781607 kJ/mol
# Density = 1.956212 g / cm^3
# Si number density = 19.606749 Si / 1000 Ang^3
#
#
#
# Elastic Constant Matrix: (Units=GPa)
#
#
# Indices 1 2 3 4 5 6 
#
# 1 92.5763 13.8561 25.6951 0.0000 0.0000 0.0000
# 2 13.8561 92.5763 25.6951 0.0000 0.0000 0.0000
# 3 25.6951 25.6951 42.9157 0.0000 0.0000 0.0000
# 4 0.0000 0.0000 0.0000 23.3143 0.0000 0.0000
# 5 0.0000 0.0000 0.0000 0.0000 23.3143 0.0000
# 6 0.0000 0.0000 0.0000 0.0000 0.0000 14.3146
#
#
#
# Elastic Compliance Matrix: (Units=1/GPa)
#
#
# Indices 1 2 3 4 5 6 
#
# 1 0.012960 0.000257 -0.007913 0.000000 0.000000 0.000000
# 2 0.000257 0.012960 -0.007913 0.000000 0.000000 0.000000
# 3 -0.007913 -0.007913 0.032777 0.000000 0.000000 0.000000
# 4 0.000000 0.000000 0.000000 0.042892 0.000000 0.000000
# 5 0.000000 0.000000 0.000000 0.000000 0.042892 0.000000
# 6 0.000000 0.000000 0.000000 0.000000 0.000000 0.069859
#
#
# Mechanical properties :
#
#
# Convention : Reuss Voigt Hill
#
# Bulk Modulus (GPa) = 36.28768 39.84011 38.06389
# Shear Modulus (GPa) = 19.63362 23.04343 21.33853
#
# Velocity S-wave (km/s) = 3.16788 3.43196 3.30256
# Velocity P-wave (km/s) = 5.65053 6.00567 5.83081
#
# Compressibility (1/GPa) = 0.02755756
#
# Stress axis : x y z
#
# Youngs Moduli (GPa) = 77.16149 77.16149 30.50896
#
# Poissons Ratio (x) = -0.01980 0.24142
# Poissons Ratio (y) = -0.01980 0.24142
# Poissons Ratio (z) = 0.61059 0.61059
#
# Static dielectric constant tensor:
#      x y z
#    x 1.724740 0.000000 0.000000 
#    y 0.000000 1.724740 0.000000 
#    z 0.000000 0.000000 1.670170 
# 
# From -- ./inp_files/4133.got.cif
#   From: 2010.05.17/outbox.cif.g08.bks.cpg/sg112_3_cif.got.tgz:4133.got - 2010.05.20 10:59:04.
