data_PCOD9555792
_publ_section_title
;
Structure prediction by ZEFSAII (Michael W. Deem and Ramdas Pophale) SiO2 
 PCOD9555792
Probable space group: P -4 21 M 
;
_chemical_formula_sum "Si O2"
_cell_formula_units_Z 40
_cell_length_a 15.448275
_cell_length_b 15.448275
_cell_length_c 7.296124
_cell_angle_alpha 90.000000
_cell_angle_beta 90.000000
_cell_angle_gamma 90.000000
_cell_volume 1741.214159
_symmetry_space_group_name_H-M "P -4 21 M "
_symmetry_group_IT_number 113
_symmetry_cell_setting 'tetragonal'
loop_
_space_group_symop_operation_xyz
x,y,z
y,-x,-z
-x,-y,z
-y,x,-z
1/2+x,1/2-y,-z
1/2-x,1/2+y,-z
1/2-y,1/2-x,z
1/2+y,1/2+x,z
loop_
_atom_site_type_symbol
_atom_site_label
_atom_site_fract_x
_atom_site_fract_y
_atom_site_fract_z
Si Si1 0.996508 0.362089 0.643256
Si Si2 0.568779 0.324111 0.367290
Si Si3 0.592196 0.395339 0.752088
Si Si4 0.863410 0.504077 0.199742
Si Si5 0.923508 0.181849 0.100857
O O1 0.068159 0.431842 0.702488
O O2 0.029822 0.267439 0.696342
O O3 0.998288 0.359656 0.420931
O O4 0.903227 0.403227 0.695576
O O5 0.489362 0.390569 0.334723
O O6 0.590210 0.328957 0.582675
O O7 0.652346 0.354723 0.254102
O O8 0.504150 0.383143 0.865199
O O9 0.666324 0.382686 0.903010
O O10 0.900703 0.599298 0.152742
O O11 0.774078 0.468135 0.124062
O O12 0.936031 0.436031 0.139389
#
# Coordination Sequence:
#
# PCOD9555792 Si02
#       5
#     8   8   8   8   8
#     4   9  19  40  69  97 130 180 236 286 346 420
#     4  12  23  39  65 100 137 177 223 279 348 412
#     4  12  24  38  64  96 133 175 223 271 345 421
#     4   9  19  41  70  96 132 184 236 287 351 424
#     4  12  24  40  65 101 135 176 225 283 345 419
#
# _framework density 22.972477000000001
#
# number of rings (size 3 to 8) (size 9 to 14) (size 15 to 20)
#    0.000    1.200    6.000    1.800    0.000    0.800 
#    0.000    6.000    0.000    4.800    0.000    5.600 
#    0.000    0.000    0.000    0.000    0.000    0.000 
#
# Total GULP energy -223446.755431 kJ/mol
# GULP energy per Si atom -5586.168886 kJ/mol
# Density = 2.292019 g / cm^3
# Si number density = 22.972477 Si / 1000 Ang^3
#
#
#
# Elastic Constant Matrix: (Units=GPa)
#
#
# Indices 1 2 3 4 5 6 
#
# 1 128.6643 66.6823 14.7378 0.0000 0.0000 0.0000
# 2 66.6823 128.6622 14.7377 0.0000 0.0000 0.0000
# 3 14.7378 14.7377 91.3460 0.0000 0.0000 0.0000
# 4 0.0000 0.0000 0.0000 5.0764 0.0000 0.0000
# 5 0.0000 0.0000 0.0000 0.0000 5.0777 0.0000
# 6 0.0000 0.0000 0.0000 0.0000 0.0000 34.1456
#
#
#
# Elastic Compliance Matrix: (Units=1/GPa)
#
#
# Indices 1 2 3 4 5 6 
#
# 1 0.010690 -0.005444 -0.000847 0.000000 0.000000 0.000000
# 2 -0.005444 0.010691 -0.000847 0.000000 0.000000 0.000000
# 3 -0.000847 -0.000847 0.011221 0.000000 0.000000 0.000000
# 4 0.000000 0.000000 0.000000 0.196991 0.000000 0.000000
# 5 0.000000 0.000000 0.000000 0.000000 0.196938 0.000000
# 6 0.000000 0.000000 0.000000 0.000000 0.000000 0.029286
#
#
# Mechanical properties :
#
#
# Convention : Reuss Voigt Hill
#
# Bulk Modulus (GPa) = 54.56086 60.10981 57.33533
# Shear Modulus (GPa) = 10.49980 25.69426 18.09703
#
# Velocity S-wave (km/s) = 2.14022 3.34800 2.80977
# Velocity P-wave (km/s) = 5.46895 6.41625 5.96145
#
# Compressibility (1/GPa) = 0.01832816
#
# Stress axis : x y z
#
# Youngs Moduli (GPa) = 93.54238 93.54088 89.12224
#
# Poissons Ratio (x) = 0.50920 0.07544
# Poissons Ratio (y) = 0.50920 0.07545
# Poissons Ratio (z) = 0.07919 0.07919
#
# Static dielectric constant tensor:
#      x y z
#    x 1.879160 0.000000 0.000000 
#    y 0.000000 1.879160 0.000000 
#    z 0.000000 0.000000 1.904980 
# 
# From -- ./inp_files/1016.got.cif
#   From: 2010.05.17/outbox.cif.g08.bks.cpg/sg113_cif.got.tgz:1016.got - 2010.05.20 11:03:00.
