data_PCOD9555297
_publ_section_title
;
Structure prediction by ZEFSAII (Michael W. Deem and Ramdas Pophale) SiO2 
 PCOD9555297
Probable space group: P -4 2 C
;
_chemical_formula_sum "Si O2"
_cell_formula_units_Z 32
_cell_length_a 8.060683
_cell_length_b 8.060683
_cell_length_c 19.748840
_cell_angle_alpha 90.000000
_cell_angle_beta 90.000000
_cell_angle_gamma 90.000000
_cell_volume 1283.173185
_symmetry_space_group_name_H-M "P -4 2 C"
_symmetry_group_IT_number 112
_symmetry_cell_setting 'tetragonal'
loop_
_space_group_symop_operation_xyz
x,y,z
y,-x,-z
-x,-y,z
-y,x,-z
x,-y,1/2-z
-x,y,1/2-z
-y,-x,1/2+z
y,x,1/2+z
loop_
_atom_site_type_symbol
_atom_site_label
_atom_site_fract_x
_atom_site_fract_y
_atom_site_fract_z
Si Si1 0.823217 0.076995 0.321084
Si Si2 0.691042 0.689314 0.765147
Si Si3 0.666164 0.257856 0.436632
Si Si4 0.280963 0.638167 0.082980
O O1 0.828611 0.258637 0.288835
O O2 0.711885 0.109196 0.386083
O O3 0.753156 0.000000 0.250000
O O4 0.000000 0.000000 0.335671
O O5 0.757054 0.500000 0.750000
O O6 0.500000 0.668059 0.750000
O O7 0.713284 0.748276 0.842747
O O8 0.474111 0.312298 0.429527
O O9 0.747234 0.438238 0.418838
O O10 0.702383 0.200785 0.513442
#
# Coordination Sequence:
#
# PCOD9555297 Si02
#       4
#     8   8   8   8
#     4  11  24  40  58  90 145 195 230 269 356 439
#     4  11  18  35  68 107 131 165 232 306 353 407
#     4   9  16  34  61 103 140 165 217 301 369 420
#     4   9  16  30  67 106 130 159 227 310 366 397
#
# _framework density 24.938177
#
# number of rings (size 3 to 8) (size 9 to 14) (size 15 to 20)
#    0.000    2.000    5.000    3.000    0.000    0.500 
#    0.000    3.750   11.000    0.000    0.000    0.000 
#    0.000    0.000    0.000    0.000    0.000    0.000 
#
# Total GULP energy -178147.388103 kJ/mol
# GULP energy per Si atom -5567.105878 kJ/mol
# Density = 2.488142 g / cm^3
# Si number density = 24.938177 Si / 1000 Ang^3
#
#
#
# Elastic Constant Matrix: (Units=GPa)
#
#
# Indices 1 2 3 4 5 6 
#
# 1 49.5551 44.0507 24.3355 0.0000 0.0000 0.0000
# 2 44.0507 49.5551 24.3355 0.0000 0.0000 0.0000
# 3 24.3355 24.3355 235.4278 0.0000 0.0000 0.0000
# 4 0.0000 0.0000 0.0000 32.4425 0.0000 0.0000
# 5 0.0000 0.0000 0.0000 0.0000 32.4425 0.0000
# 6 0.0000 0.0000 0.0000 0.0000 0.0000 35.2819
#
#
#
# Elastic Compliance Matrix: (Units=1/GPa)
#
#
# Indices 1 2 3 4 5 6 
#
# 1 0.096480 -0.085190 -0.001167 0.000000 0.000000 0.000000
# 2 -0.085190 0.096480 -0.001167 0.000000 0.000000 0.000000
# 3 -0.001167 -0.001167 0.004489 0.000000 0.000000 0.000000
# 4 0.000000 0.000000 0.000000 0.030824 0.000000 0.000000
# 5 0.000000 0.000000 0.000000 0.000000 0.030824 0.000000
# 6 0.000000 0.000000 0.000000 0.000000 0.000000 0.028343
#
#
# Mechanical properties :
#
#
# Convention : Reuss Voigt Hill
#
# Bulk Modulus (GPa) = 44.64164 57.77572 51.20868
# Shear Modulus (GPa) = 10.63933 36.15449 23.39691
#
# Velocity S-wave (km/s) = 2.06774 3.81171 3.06632
# Velocity P-wave (km/s) = 4.86215 6.52610 5.75459
#
# Compressibility (1/GPa) = 0.02240061
#
# Stress axis : x y z
#
# Youngs Moduli (GPa) = 10.36485 10.36485 222.77433
#
# Poissons Ratio (x) = 0.88298 0.25998
# Poissons Ratio (y) = 0.88298 0.25998
# Poissons Ratio (z) = 0.01210 0.01210
#
# Static dielectric constant tensor:
#      x y z
#    x 2.187100 0.000000 0.000000 
#    y 0.000000 2.187100 0.000000 
#    z 0.000000 0.000000 2.022550 
# 
# From -- ./inp_files/4547.got.cif
#   From: 2010.05.17/outbox.cif.g08.bks.cpg/sg112_3_cif.got.tgz:4547.got - 2010.05.20 10:59:04.
