data_PCOD9555166
_publ_section_title
;
Structure prediction by ZEFSAII (Michael W. Deem and Ramdas Pophale) SiO2 
 PCOD9555166
Probable space group: P -4 2 C
;
_chemical_formula_sum "Si O2"
_cell_formula_units_Z 48
_cell_length_a 14.674578
_cell_length_b 14.674578
_cell_length_c 10.234316
_cell_angle_alpha 90.000000
_cell_angle_beta 90.000000
_cell_angle_gamma 90.000000
_cell_volume 2203.890761
_symmetry_space_group_name_H-M "P -4 2 C"
_symmetry_group_IT_number 112
_symmetry_cell_setting 'tetragonal'
loop_
_space_group_symop_operation_xyz
x,y,z
y,-x,-z
-x,-y,z
-y,x,-z
x,-y,1/2-z
-x,y,1/2-z
-y,-x,1/2+z
y,x,1/2+z
loop_
_atom_site_type_symbol
_atom_site_label
_atom_site_fract_x
_atom_site_fract_y
_atom_site_fract_z
Si Si1 0.595570 0.711115 0.685998
Si Si2 0.096959 0.946557 0.365131
Si Si3 0.232814 0.985628 0.915931
Si Si4 0.777758 0.598747 0.686865
Si Si5 0.671714 0.166408 0.581470
Si Si6 0.183520 0.320770 0.956081
O O1 0.500000 0.678053 0.750000
O O2 0.673020 0.633446 0.673787
O O3 0.628031 0.782499 0.796060
O O4 0.603542 0.763473 0.545630
O O5 0.075478 0.841313 0.336676
O O6 0.146509 0.000000 0.250000
O O7 0.161242 0.963456 0.487480
O O8 0.000000 0.000000 0.374546
O O9 0.296178 0.067822 0.870395
O O10 0.298031 0.914004 0.985784
O O11 0.778307 0.500000 0.750000
O O12 0.829662 0.609543 0.549045
O O13 0.821444 0.658377 0.802828
O O14 0.756601 0.228793 0.535819
#
# Coordination Sequence:
#
# PCOD9555166 Si02
#       6
#     8   8   8   8   8   8
#     4  10  22  42  64  89 120 157 196 255 324 384
#     4  11  22  34  54  82 118 154 211 274 293 331
#     4  12  21  40  55  88 118 168 210 248 314 349
#     4  10  22  42  66  93 118 153 204 261 316 384
#     4  10  22  39  61  87 129 164 202 253 311 375
#     4  10  22  37  61  89 125 162 204 251 311 374
#
# _framework density 21.779662999999999
#
# number of rings (size 3 to 8) (size 9 to 14) (size 15 to 20)
#    0.000    1.500    3.333    1.000    2.333    5.000 
#    0.000    5.000    0.000    6.000    0.000    0.000 
#    0.000    0.000    0.000    0.000    0.000    0.000 
#
# Total GULP energy -267675.487999 kJ/mol
# GULP energy per Si atom -5576.572667 kJ/mol
# Density = 2.173009 g / cm^3
# Si number density = 21.779663 Si / 1000 Ang^3
#
#
#
# Elastic Constant Matrix: (Units=GPa)
#
#
# Indices 1 2 3 4 5 6 
#
# 1 58.7274 5.2595 -5.3125 0.0000 0.0000 0.0000
# 2 5.2595 58.7274 -5.3125 0.0000 0.0000 0.0000
# 3 -5.3125 -5.3125 83.7448 0.0000 0.0000 0.0000
# 4 0.0000 0.0000 0.0000 13.9097 0.0000 0.0000
# 5 0.0000 0.0000 0.0000 0.0000 13.9097 0.0000
# 6 0.0000 0.0000 0.0000 0.0000 0.0000 9.3234
#
#
#
# Elastic Compliance Matrix: (Units=1/GPa)
#
#
# Indices 1 2 3 4 5 6 
#
# 1 0.017249 -0.001454 0.001002 0.000000 0.000000 0.000000
# 2 -0.001454 0.017249 0.001002 0.000000 0.000000 0.000000
# 3 0.001002 0.001002 0.012068 0.000000 0.000000 0.000000
# 4 0.000000 0.000000 0.000000 0.071892 0.000000 0.000000
# 5 0.000000 0.000000 0.000000 0.000000 0.071892 0.000000
# 6 0.000000 0.000000 0.000000 0.000000 0.000000 0.107257
#
#
# Mechanical properties :
#
#
# Convention : Reuss Voigt Hill
#
# Bulk Modulus (GPa) = 20.97972 21.16320 21.07146
# Shear Modulus (GPa) = 16.00536 21.19959 18.60247
#
# Velocity S-wave (km/s) = 2.71380 3.12327 2.92571
# Velocity P-wave (km/s) = 4.41285 4.76911 4.59444
#
# Compressibility (1/GPa) = 0.04766509
#
# Stress axis : x y z
#
# Youngs Moduli (GPa) = 57.97545 57.97545 82.86271
#
# Poissons Ratio (x) = 0.08430 -0.08302
# Poissons Ratio (y) = 0.08430 -0.08302
# Poissons Ratio (z) = -0.05809 -0.05809
#
# Static dielectric constant tensor:
#      x y z
#    x 1.830000 0.000000 0.000000 
#    y 0.000000 1.830000 0.000000 
#    z 0.000000 0.000000 2.012680 
# 
# From -- ./inp_files/2594.got.cif
#   From: 2010.05.17/outbox.cif.g08.bks.cpg/sg112_2_cif.got.tgz:2594.got - 2010.05.20 10:59:04.
