data_PCOD9555529
_publ_section_title
;
Structure prediction by ZEFSAII (Michael W. Deem and Ramdas Pophale) SiO2 
 PCOD9555529
Probable space group: P -4 21 M 
;
_chemical_formula_sum "Si O2"
_cell_formula_units_Z 40
_cell_length_a 11.065097
_cell_length_b 11.065097
_cell_length_c 16.755743
_cell_angle_alpha 90.000000
_cell_angle_beta 90.000000
_cell_angle_gamma 90.000000
_cell_volume 2051.512377
_symmetry_space_group_name_H-M "P -4 21 M "
_symmetry_group_IT_number 113
_symmetry_cell_setting 'tetragonal'
loop_
_space_group_symop_operation_xyz
x,y,z
y,-x,-z
-x,-y,z
-y,x,-z
1/2+x,1/2-y,-z
1/2-x,1/2+y,-z
1/2-y,1/2-x,z
1/2+y,1/2+x,z
loop_
_atom_site_type_symbol
_atom_site_label
_atom_site_fract_x
_atom_site_fract_y
_atom_site_fract_z
Si Si1 0.241850 0.551271 0.411252
Si Si2 0.395532 0.604467 0.700351
Si Si3 0.258149 0.948727 0.411254
Si Si4 0.896720 0.103283 0.883873
Si Si5 0.500001 0.804364 0.999998
O O1 0.122281 0.622281 0.386102
O O2 0.284724 0.450556 0.349293
O O3 0.226401 0.499998 0.499999
O O4 0.349897 0.650102 0.415657
O O5 0.500000 0.500000 0.700946
O O6 0.284725 0.549444 0.650704
O O7 0.368373 0.631622 0.792049
O O8 0.377718 0.877718 0.386102
O O9 0.781634 0.051265 0.930838
O O10 0.948736 0.218366 0.930840
O O11 0.000000 0.000000 0.886802
O O12 0.608387 0.891614 0.971969
O O13 0.391618 0.891618 0.028026
#
# Coordination Sequence:
#
# PCOD9555529 Si02
#       5
#     8   8   8   8   8
#     4  10  19  34  58  86 118 159 201 243 293 348
#     4   9  20  35  59  89 121 155 196 249 298 348
#     4  10  19  34  58  86 118 159 201 243 293 348
#     4  11  21  39  65  94 122 159 203 252 308 361
#     4  11  23  40  64  92 125 163 200 246 302 365
#
# _framework density 19.497810999999999
#
# number of rings (size 3 to 8) (size 9 to 14) (size 15 to 20)
#    0.000    1.800    4.000    0.600    0.000    2.000 
#    0.000    8.000    0.000    0.000    0.000    0.000 
#    0.000    0.000    0.000    0.000    0.000    0.000 
#
# Total GULP energy -223497.878909 kJ/mol
# GULP energy per Si atom -5587.446973 kJ/mol
# Density = 1.945343 g / cm^3
# Si number density = 19.497811 Si / 1000 Ang^3
#
#
#
# Elastic Constant Matrix: (Units=GPa)
#
#
# Indices 1 2 3 4 5 6 
#
# 1 109.5138 71.0492 74.8607 0.0000 0.0000 0.0000
# 2 71.0492 109.5139 74.8605 0.0000 0.0000 0.0000
# 3 74.8607 74.8605 177.2085 0.0000 0.0000 0.0000
# 4 0.0000 0.0000 0.0000 -6.2165 0.0000 0.0000
# 5 0.0000 0.0000 0.0000 0.0000 -6.2166 0.0000
# 6 0.0000 0.0000 0.0000 0.0000 0.0000 30.8624
#
#
#
# Elastic Compliance Matrix: (Units=1/GPa)
#
#
# Indices 1 2 3 4 5 6 
#
# 1 0.017261 -0.008737 -0.003601 0.000000 0.000000 0.000000
# 2 -0.008737 0.017261 -0.003601 0.000000 0.000000 0.000000
# 3 -0.003601 -0.003601 0.008685 0.000000 0.000000 0.000000
# 4 0.000000 0.000000 0.000000 -0.160863 0.000000 0.000000
# 5 0.000000 0.000000 0.000000 0.000000 -0.160861 0.000000
# 6 0.000000 0.000000 0.000000 0.000000 0.000000 0.032402
#
#
# Mechanical properties :
#
#
# Convention : Reuss Voigt Hill
#
# Bulk Modulus (GPa) = 88.26228 93.08633 90.67431
# Shear Modulus (GPa) = -23.75743 15.38361 -4.18691
#
# Velocity S-wave (km/s) = -3.49444 2.81195 -1.46698
# Velocity P-wave (km/s) = 5.39301 7.64122 6.61335
#
# Compressibility (1/GPa) = 0.01132987
#
# Stress axis : x y z
#
# Youngs Moduli (GPa) = 57.93395 57.93415 115.13488
#
# Poissons Ratio (x) = 0.50617 0.41460
# Poissons Ratio (y) = 0.50616 0.41459
# Poissons Ratio (z) = 0.20862 0.20862
#
# Static dielectric constant tensor:
#      x y z
#    x 1.693470 0.000000 0.000000 
#    y 0.000000 1.693470 0.000000 
#    z 0.000000 0.000000 1.626450 
# 
# From -- ./inp_files/2163.got.cif
#   From: 2010.05.17/outbox.cif.g08.bks.cpg/sg113_cif.got.tgz:2163.got - 2010.05.20 11:03:00.
