data_PCOD9555492
_publ_section_title
;
Structure prediction by ZEFSAII (Michael W. Deem and Ramdas Pophale) SiO2 
 PCOD9555492
Probable space group: P -4 21 M 
;
_chemical_formula_sum "Si O2"
_cell_formula_units_Z 56
_cell_length_a 10.968727
_cell_length_b 10.968727
_cell_length_c 23.160986
_cell_angle_alpha 90.000000
_cell_angle_beta 90.000000
_cell_angle_gamma 90.000000
_cell_volume 2786.567060
_symmetry_space_group_name_H-M "P -4 21 M "
_symmetry_group_IT_number 113
_symmetry_cell_setting 'tetragonal'
loop_
_space_group_symop_operation_xyz
x,y,z
y,-x,-z
-x,-y,z
-y,x,-z
1/2+x,1/2-y,-z
1/2-x,1/2+y,-z
1/2-y,1/2-x,z
1/2+y,1/2+x,z
loop_
_atom_site_type_symbol
_atom_site_label
_atom_site_fract_x
_atom_site_fract_y
_atom_site_fract_z
Si Si1 0.811508 0.129339 0.554228
Si Si2 0.627211 0.445044 0.347817
Si Si3 0.201505 0.495337 0.242627
Si Si4 0.387784 0.323972 0.863107
Si Si5 0.007279 0.702703 0.898720
Si Si6 0.202233 0.494069 0.032335
Si Si7 0.555060 0.241792 0.426968
O O1 0.681301 0.181301 0.572490
O O2 0.803468 0.105333 0.486187
O O3 0.913800 0.228897 0.568531
O O4 0.845159 0.015094 0.592563
O O5 0.500000 0.500000 0.325270
O O6 0.730999 0.473527 0.302171
O O7 0.605823 0.308321 0.369804
O O8 0.092390 0.592390 0.235706
O O9 0.294261 0.525768 0.190823
O O10 0.137099 0.362902 0.241162
O O11 0.280080 0.219921 0.863286
O O12 0.315849 0.452270 0.863164
O O13 0.467116 0.301332 0.920807
O O14 0.905771 0.594230 0.895216
O O15 0.135701 0.635701 0.884729
O O16 0.005803 0.742231 0.966003
O O17 0.093149 0.593149 0.038567
O O18 0.137522 0.362479 0.041624
O O19 0.605498 0.105498 0.427758
#
# Coordination Sequence:
#
# PCOD9555492 Si02
#       7
#     8   8   8   8   8   8   8
#     4  10  19  32  51  75 104 138 173 213 263 318
#     4  10  20  34  56  74 103 143 183 220 264 328
#     4  10  20  34  54  83 115 145 182 231 281 331
#     4   9  16  27  48  75 106 141 181 220 268 331
#     4   8  14  25  44  71 102 136 177 223 271 326
#     4   8  13  23  42  69  99 133 172 215 267 326
#     4  10  19  32  51  75 104 135 174 220 264 314
#
# _framework density 20.096409999999999
#
# number of rings (size 3 to 8) (size 9 to 14) (size 15 to 20)
#    0.000    2.714    1.429    2.143    0.000    2.000 
#    0.000    0.000    3.143    4.286    0.000    4.000 
#    0.000    0.000    0.000    0.000    0.000    0.000 
#
# Total GULP energy -311976.732142 kJ/mol
# GULP energy per Si atom -5571.013074 kJ/mol
# Density = 2.005067 g / cm^3
# Si number density = 20.096410 Si / 1000 Ang^3
#
#
#
# Elastic Constant Matrix: (Units=GPa)
#
#
# Indices 1 2 3 4 5 6 
#
# 1 47.2492 32.4437 32.3908 0.0000 0.0000 0.0000
# 2 32.4437 47.2503 32.3911 0.0000 0.0000 0.0000
# 3 32.3908 32.3911 70.0007 0.0000 0.0000 0.0000
# 4 0.0000 0.0000 0.0000 18.7558 0.0000 0.0000
# 5 0.0000 0.0000 0.0000 0.0000 18.7555 0.0000
# 6 0.0000 0.0000 0.0000 0.0000 0.0000 26.5368
#
#
#
# Elastic Compliance Matrix: (Units=1/GPa)
#
#
# Indices 1 2 3 4 5 6 
#
# 1 0.043827 -0.023713 -0.009307 0.000000 0.000000 0.000000
# 2 -0.023713 0.043826 -0.009307 0.000000 0.000000 0.000000
# 3 -0.009307 -0.009307 0.022899 0.000000 0.000000 0.000000
# 4 0.000000 0.000000 0.000000 0.053317 0.000000 0.000000
# 5 0.000000 0.000000 0.000000 0.000000 0.053318 0.000000
# 6 0.000000 0.000000 0.000000 0.000000 0.000000 0.037684
#
#
# Mechanical properties :
#
#
# Convention : Reuss Voigt Hill
#
# Bulk Modulus (GPa) = 38.61321 39.88349 39.24835
# Shear Modulus (GPa) = 14.36133 17.29459 15.82796
#
# Velocity S-wave (km/s) = 2.67614 2.93675 2.80947
# Velocity P-wave (km/s) = 5.36700 5.60254 5.48603
#
# Compressibility (1/GPa) = 0.02589787
#
# Stress axis : x y z
#
# Youngs Moduli (GPa) = 22.81685 22.81744 43.67048
#
# Poissons Ratio (x) = 0.54107 0.40645
# Poissons Ratio (y) = 0.54106 0.40644
# Poissons Ratio (z) = 0.21236 0.21236
#
# Static dielectric constant tensor:
#      x y z
#    x 1.730860 0.000000 0.000000 
#    y 0.000000 1.730860 0.000000 
#    z 0.000000 0.000000 1.684490 
# 
# From -- ./inp_files/2735.got.cif
#   From: 2010.05.17/outbox.cif.g08.bks.cpg/sg113_cif.got.tgz:2735.got - 2010.05.20 11:03:00.
