data_PCOD9555154
_publ_section_title
;
Structure prediction by ZEFSAII (Michael W. Deem and Ramdas Pophale) SiO2 
 PCOD9555154
Probable space group: P -4 2 C
;
_chemical_formula_sum "Si O2"
_cell_formula_units_Z 56
_cell_length_a 14.648439
_cell_length_b 14.648439
_cell_length_c 11.711123
_cell_angle_alpha 90.000000
_cell_angle_beta 90.000000
_cell_angle_gamma 90.000000
_cell_volume 2512.934889
_symmetry_space_group_name_H-M "P -4 2 C"
_symmetry_group_IT_number 112
_symmetry_cell_setting 'tetragonal'
loop_
_space_group_symop_operation_xyz
x,y,z
y,-x,-z
-x,-y,z
-y,x,-z
x,-y,1/2-z
-x,y,1/2-z
-y,-x,1/2+z
y,x,1/2+z
loop_
_atom_site_type_symbol
_atom_site_label
_atom_site_fract_x
_atom_site_fract_y
_atom_site_fract_z
Si Si1 0.090069 0.549848 0.128430
Si Si2 0.497262 0.283480 0.980670
Si Si3 0.897314 0.288462 0.796475
Si Si4 0.394387 0.594766 0.820363
Si Si5 0.667135 0.740566 0.355213
Si Si6 0.892926 0.095811 0.709625
Si Si7 0.260514 0.128707 0.941972
O O1 0.100269 0.500000 0.250000
O O2 0.185034 0.533782 0.062782
O O3 0.082346 0.660203 0.135637
O O4 0.000000 0.500000 0.076155
O O5 0.519810 0.355260 0.879080
O O6 0.430663 0.330086 0.071993
O O7 0.589667 0.268160 0.051191
O O8 0.830953 0.349992 0.721010
O O9 0.858754 0.186598 0.770819
O O10 0.000000 0.295747 0.750000
O O11 0.894667 0.294285 0.931517
O O12 0.406587 0.500000 0.750000
O O13 0.340850 0.661953 0.736203
O O14 0.763645 0.739440 0.418008
O O15 0.845787 0.101837 0.584186
O O16 0.000000 0.095702 0.750000
O O17 0.856230 0.000000 0.750000
#
# Coordination Sequence:
#
# PCOD9555154 Si02
#       7
#     8   8   8   8   8   8   8
#     4  11  26  42  62  98 132 182 239 284 348 421
#     4  11  22  42  69  93 135 179 228 293 349 413
#     4  10  22  38  61  99 132 175 234 281 349 414
#     4  10  23  43  67 100 135 172 231 283 355 422
#     4  10  21  40  66  94 130 188 225 285 345 417
#     4   9  21  40  64  98 130 170 224 282 350 421
#     4  11  23  42  67  92 141 181 227 291 352 408
#
# _framework density 22.284700000000001
#
# number of rings (size 3 to 8) (size 9 to 14) (size 15 to 20)
#    0.000    1.714    0.000    3.429    4.000    6.000 
#    0.000    6.429    0.000    0.000    0.000    0.000 
#    0.000    0.000    0.000    0.000    0.000    0.000 
#
# Total GULP energy -312415.531516 kJ/mol
# GULP energy per Si atom -5578.848777 kJ/mol
# Density = 2.223398 g / cm^3
# Si number density = 22.284700 Si / 1000 Ang^3
#
#
#
# Elastic Constant Matrix: (Units=GPa)
#
#
# Indices 1 2 3 4 5 6 
#
# 1 109.9645 22.5800 43.6478 0.0000 0.0000 0.0000
# 2 22.5800 109.9645 43.6478 0.0000 0.0000 0.0000
# 3 43.6478 43.6478 125.9020 0.0000 0.0000 0.0000
# 4 0.0000 0.0000 0.0000 19.1979 0.0000 0.0000
# 5 0.0000 0.0000 0.0000 0.0000 19.1979 0.0000
# 6 0.0000 0.0000 0.0000 0.0000 0.0000 18.4135
#
#
#
# Elastic Compliance Matrix: (Units=1/GPa)
#
#
# Indices 1 2 3 4 5 6 
#
# 1 0.010610 -0.000833 -0.003389 0.000000 0.000000 0.000000
# 2 -0.000833 0.010610 -0.003389 0.000000 0.000000 0.000000
# 3 -0.003389 -0.003389 0.010293 0.000000 0.000000 0.000000
# 4 0.000000 0.000000 0.000000 0.052089 0.000000 0.000000
# 5 0.000000 0.000000 0.000000 0.000000 0.052089 0.000000
# 6 0.000000 0.000000 0.000000 0.000000 0.000000 0.054308
#
#
# Mechanical properties :
#
#
# Convention : Reuss Voigt Hill
#
# Bulk Modulus (GPa) = 61.39171 62.84248 62.11709
# Shear Modulus (GPa) = 23.73564 27.09222 25.41393
#
# Velocity S-wave (km/s) = 3.26714 3.49052 3.38067
# Velocity P-wave (km/s) = 6.46845 6.67128 6.57065
#
# Compressibility (1/GPa) = 0.01628884
#
# Stress axis : x y z
#
# Youngs Moduli (GPa) = 94.24764 94.24764 97.15497
#
# Poissons Ratio (x) = 0.07854 0.32931
# Poissons Ratio (y) = 0.07854 0.32931
# Poissons Ratio (z) = 0.31945 0.31945
#
# Static dielectric constant tensor:
#      x y z
#    x 1.908380 0.000000 0.000000 
#    y 0.000000 1.908380 0.000000 
#    z 0.000000 0.000000 1.834870 
# 
# From -- ./inp_files/2662.got.cif
#   From: 2010.05.17/outbox.cif.g08.bks.cpg/sg112_2_cif.got.tgz:2662.got - 2010.05.20 10:59:04.
