data_PCOD9555419
_publ_section_title
;
Structure prediction by ZEFSAII (Michael W. Deem and Ramdas Pophale) SiO2 
 PCOD9555419
Probable space group: P -4 2 C
;
_chemical_formula_sum "Si O2"
_cell_formula_units_Z 14
_cell_length_a 8.165857
_cell_length_b 8.165857
_cell_length_c 7.282022
_cell_angle_alpha 90.000000
_cell_angle_beta 90.000000
_cell_angle_gamma 90.000000
_cell_volume 485.574115
_symmetry_space_group_name_H-M "P -4 2 C"
_symmetry_group_IT_number 112
_symmetry_cell_setting 'tetragonal'
loop_
_space_group_symop_operation_xyz
x,y,z
y,-x,-z
-x,-y,z
-y,x,-z
x,-y,1/2-z
-x,y,1/2-z
-y,-x,1/2+z
y,x,1/2+z
loop_
_atom_site_type_symbol
_atom_site_label
_atom_site_fract_x
_atom_site_fract_y
_atom_site_fract_z
Si Si1 0.500000 0.500000 0.000000
Si Si2 0.651715 0.818557 0.112093
Si Si3 0.257551 0.000000 0.750000
O O1 0.622085 0.368370 0.911977
O O2 0.500000 0.848216 0.250000
O O3 0.837377 0.837484 0.183068
O O4 0.649715 0.922543 0.925908
#
# Coordination Sequence:
#
# PCOD9555419 Si02
#       3
#     2   8   4
#     4  12  26  56  90 144 190 234 338 396 462 612
#     4  12  29  59  96 145 189 255 332 393 490 594
#     4  12  32  60 100 136 204 262 310 414 494 564
#
# _framework density 28.831855000000001
#
# number of rings (size 3 to 8) (size 9 to 14) (size 15 to 20)
#    0.000    0.000    5.714    0.857    0.000   10.286 
#   10.286    2.857    0.000    0.000    0.000    0.000 
#    0.000    0.000    0.000    0.000    0.000    0.000 
#
# Total GULP energy -78281.869248 kJ/mol
# GULP energy per Si atom -5591.562089 kJ/mol
# Density = 2.876623 g / cm^3
# Si number density = 28.831855 Si / 1000 Ang^3
#
#
#
# Elastic Constant Matrix: (Units=GPa)
#
#
# Indices 1 2 3 4 5 6 
#
# 1 282.1238 64.0897 111.2337 0.0000 0.0000 0.0000
# 2 64.0897 282.1238 111.2337 0.0000 0.0000 0.0000
# 3 111.2337 111.2337 259.1620 0.0000 0.0000 0.0000
# 4 0.0000 0.0000 0.0000 60.7487 0.0000 0.0000
# 5 0.0000 0.0000 0.0000 0.0000 60.7487 0.0000
# 6 0.0000 0.0000 0.0000 0.0000 0.0000 145.3023
#
#
#
# Elastic Compliance Matrix: (Units=1/GPa)
#
#
# Indices 1 2 3 4 5 6 
#
# 1 0.004287 -0.000299 -0.001712 0.000000 0.000000 0.000000
# 2 -0.000299 0.004287 -0.001712 0.000000 0.000000 0.000000
# 3 -0.001712 -0.001712 0.005328 0.000000 0.000000 0.000000
# 4 0.000000 0.000000 0.000000 0.016461 0.000000 0.000000
# 5 0.000000 0.000000 0.000000 0.000000 0.016461 0.000000
# 6 0.000000 0.000000 0.000000 0.000000 0.000000 0.006882
#
#
# Mechanical properties :
#
#
# Convention : Reuss Voigt Hill
#
# Bulk Modulus (GPa) = 154.85960 155.16929 155.01445
# Shear Modulus (GPa) = 78.98216 89.15011 84.06614
#
# Velocity S-wave (km/s) = 5.23961 5.56667 5.40562
# Velocity P-wave (km/s) = 9.50961 9.75975 9.63549
#
# Compressibility (1/GPa) = 0.00645746
#
# Stress axis : x y z
#
# Youngs Moduli (GPa) = 233.24150 233.24150 187.68626
#
# Poissons Ratio (x) = 0.06975 0.32129
# Poissons Ratio (y) = 0.06975 0.32129
# Poissons Ratio (z) = 0.39927 0.39927
#
# Static dielectric constant tensor:
#      x y z
#    x 2.249190 0.000000 0.000000 
#    y 0.000000 2.249190 0.000000 
#    z 0.000000 0.000000 2.500780 
# 
# From -- ./inp_files/557.got.cif
#   From: 2010.05.17/outbox.cif.g08.bks.cpg/sg112_1_cif.got.tgz:557.got - 2010.05.20 10:59:04.
