data_PCOD9555085
_publ_section_title
;
Structure prediction by ZEFSAII (Michael W. Deem and Ramdas Pophale) SiO2 
 PCOD9555085
Probable space group: P -4 2 C
;
_chemical_formula_sum "Si O2"
_cell_formula_units_Z 26
_cell_length_a 11.168418
_cell_length_b 11.168418
_cell_length_c 8.197136
_cell_angle_alpha 90.000000
_cell_angle_beta 90.000000
_cell_angle_gamma 90.000000
_cell_volume 1022.457960
_symmetry_space_group_name_H-M "P -4 2 C"
_symmetry_group_IT_number 112
_symmetry_cell_setting 'tetragonal'
loop_
_space_group_symop_operation_xyz
x,y,z
y,-x,-z
-x,-y,z
-y,x,-z
x,-y,1/2-z
-x,y,1/2-z
-y,-x,1/2+z
y,x,1/2+z
loop_
_atom_site_type_symbol
_atom_site_label
_atom_site_fract_x
_atom_site_fract_y
_atom_site_fract_z
Si Si1 0.914682 0.176716 0.502453
Si Si2 0.564865 0.745224 0.898536
Si Si3 0.695559 0.195516 0.278532
Si Si4 0.500000 0.500000 0.500000
O O1 0.824274 0.214585 0.363670
O O2 0.907047 0.276172 0.643728
O O3 0.048041 0.143832 0.447363
O O4 0.500000 0.816788 0.750000
O O5 0.687942 0.687524 0.833240
O O6 0.598309 0.807668 0.073365
O O7 0.481400 0.628683 0.919405
#
# Coordination Sequence:
#
# PCOD9555085 Si02
#       4
#     8   8   8   2
#     4  10  20  39  67  96 125 165 221 282 335 404
#     4  11  22  36  57  92 126 164 217 288 328 385
#     4  10  22  35  57 100 128 163 210 285 344 394
#     4  12  22  36  66  88 110 168 242 280 314 376
#
# _framework density 25.428919
#
# number of rings (size 3 to 8) (size 9 to 14) (size 15 to 20)
#    0.000    1.538    3.077    2.308    0.000    2.462 
#    0.000    0.000    0.000   14.769   16.000    0.000 
#    0.000    0.000    0.000    0.000    0.000    0.000 
#
# Total GULP energy -144740.356786 kJ/mol
# GULP energy per Si atom -5566.936799 kJ/mol
# Density = 2.537104 g / cm^3
# Si number density = 25.428919 Si / 1000 Ang^3
#
#
#
# Elastic Constant Matrix: (Units=GPa)
#
#
# Indices 1 2 3 4 5 6 
#
# 1 43.0997 7.6231 11.2618 0.0000 0.0000 0.0000
# 2 7.6231 43.0997 11.2618 0.0000 0.0000 0.0000
# 3 11.2618 11.2618 116.6878 0.0000 0.0000 0.0000
# 4 0.0000 0.0000 0.0000 33.1428 0.0000 0.0000
# 5 0.0000 0.0000 0.0000 0.0000 33.1428 0.0000
# 6 0.0000 0.0000 0.0000 0.0000 0.0000 35.6493
#
#
#
# Elastic Compliance Matrix: (Units=1/GPa)
#
#
# Indices 1 2 3 4 5 6 
#
# 1 0.024393 -0.003795 -0.001988 0.000000 0.000000 0.000000
# 2 -0.003795 0.024393 -0.001988 0.000000 0.000000 0.000000
# 3 -0.001988 -0.001988 0.008954 0.000000 0.000000 0.000000
# 4 0.000000 0.000000 0.000000 0.030172 0.000000 0.000000
# 5 0.000000 0.000000 0.000000 0.000000 0.030172 0.000000
# 6 0.000000 0.000000 0.000000 0.000000 0.000000 0.028051
#
#
# Mechanical properties :
#
#
# Convention : Reuss Voigt Hill
#
# Bulk Modulus (GPa) = 23.69818 29.24229 26.47024
# Shear Modulus (GPa) = 28.45077 31.90302 30.17689
#
# Velocity S-wave (km/s) = 3.34853 3.54587 3.44861
# Velocity P-wave (km/s) = 4.92847 5.31873 5.12731
#
# Compressibility (1/GPa) = 0.04219734
#
# Stress axis : x y z
#
# Youngs Moduli (GPa) = 40.99594 40.99594 111.68692
#
# Poissons Ratio (x) = 0.15558 0.22203
# Poissons Ratio (y) = 0.15558 0.22203
# Poissons Ratio (z) = 0.08150 0.08150
#
# Static dielectric constant tensor:
#      x y z
#    x 2.057420 0.000000 0.000000 
#    y 0.000000 2.057420 0.000000 
#    z 0.000000 0.000000 2.145960 
# 
# From -- ./inp_files/828.got.cif
#   From: 2010.05.17/outbox.cif.g08.bks.cpg/sg112_1_cif.got.tgz:828.got - 2010.05.20 10:59:04.
