data_PCOD9555620
_publ_section_title
;
Structure prediction by ZEFSAII (Michael W. Deem and Ramdas Pophale) SiO2 
 PCOD9555620
Probable space group: P -4 21 M 
;
_chemical_formula_sum "Si O2"
_cell_formula_units_Z 40
_cell_length_a 15.778786
_cell_length_b 15.778786
_cell_length_c 8.792497
_cell_angle_alpha 90.000000
_cell_angle_beta 90.000000
_cell_angle_gamma 90.000000
_cell_volume 2189.068749
_symmetry_space_group_name_H-M "P -4 21 M "
_symmetry_group_IT_number 113
_symmetry_cell_setting 'tetragonal'
loop_
_space_group_symop_operation_xyz
x,y,z
y,-x,-z
-x,-y,z
-y,x,-z
1/2+x,1/2-y,-z
1/2-x,1/2+y,-z
1/2-y,1/2-x,z
1/2+y,1/2+x,z
loop_
_atom_site_type_symbol
_atom_site_label
_atom_site_fract_x
_atom_site_fract_y
_atom_site_fract_z
Si Si1 0.545621 0.378710 0.069152
Si Si2 0.697926 0.054835 0.929749
Si Si3 0.621289 0.545621 0.569154
Si Si4 0.927208 0.427208 0.574936
Si Si5 0.572793 0.927208 0.074926
Si Si6 0.945166 0.697925 0.429755
O O1 0.551135 0.389200 0.249999
O O2 0.450010 0.397793 0.012820
O O3 0.569641 0.284718 0.018201
O O4 0.631787 0.131787 0.953146
O O5 0.714125 0.047165 0.749996
O O6 0.651763 0.970108 0.990782
O O7 0.602206 0.450010 0.512820
O O8 0.715282 0.569641 0.518206
O O9 0.906969 0.406969 0.750005
O O10 0.848238 0.470108 0.490791
O O11 0.000000 0.500000 0.575225
O O12 0.500000 0.000000 0.075212
O O13 0.868214 0.631787 0.453152
#
# Coordination Sequence:
#
# PCOD9555620 Si02
#       6
#     8   8   8   4   4   8
#     4  11  22  39  61  83 112 149 191 232 283 340
#     4  10  20  36  58  85 117 150 188 234 283 334
#     4  11  22  39  61  83 112 149 191 232 283 340
#     4   9  17  31  53  81 113 149 185 224 277 334
#     4   9  17  31  53  81 113 149 185 224 277 334
#     4  10  20  36  58  85 117 150 188 234 283 334
#
# _framework density 18.272608999999999
#
# number of rings (size 3 to 8) (size 9 to 14) (size 15 to 20)
#    0.000    1.800    0.000    6.600    0.000    4.800 
#    3.600    0.000    0.000    0.000    0.000    0.000 
#    0.000    0.000    0.000    0.000    0.000    0.000 
#
# Total GULP energy -223410.436642 kJ/mol
# GULP energy per Si atom -5585.260916 kJ/mol
# Density = 1.823102 g / cm^3
# Si number density = 18.272609 Si / 1000 Ang^3
#
#
#
# Elastic Constant Matrix: (Units=GPa)
#
#
# Indices 1 2 3 4 5 6 
#
# 1 40.4573 5.5138 23.9407 0.0000 0.0000 0.0000
# 2 5.5138 40.4563 23.9395 0.0000 0.0000 0.0000
# 3 23.9407 23.9395 108.1450 0.0000 0.0000 0.0000
# 4 0.0000 0.0000 0.0000 31.7561 0.0000 0.0000
# 5 0.0000 0.0000 0.0000 0.0000 31.7563 0.0000
# 6 0.0000 0.0000 0.0000 0.0000 0.0000 3.9168
#
#
#
# Elastic Compliance Matrix: (Units=1/GPa)
#
#
# Indices 1 2 3 4 5 6 
#
# 1 0.028445 -0.000173 -0.006259 0.000000 0.000000 0.000000
# 2 -0.000173 0.028445 -0.006258 0.000000 0.000000 0.000000
# 3 -0.006259 -0.006258 0.012018 0.000000 0.000000 0.000000
# 4 0.000000 0.000000 0.000000 0.031490 0.000000 0.000000
# 5 0.000000 0.000000 0.000000 0.000000 0.031490 0.000000
# 6 0.000000 0.000000 0.000000 0.000000 0.000000 0.255313
#
#
# Mechanical properties :
#
#
# Convention : Reuss Voigt Hill
#
# Bulk Modulus (GPa) = 22.97437 32.87185 27.92311
# Shear Modulus (GPa) = 11.70716 22.53014 17.11865
#
# Velocity S-wave (km/s) = 2.53394 3.51522 3.06412
# Velocity P-wave (km/s) = 4.60017 5.87405 5.27570
#
# Compressibility (1/GPa) = 0.04352677
#
# Stress axis : x y z
#
# Youngs Moduli (GPa) = 35.15610 35.15566 83.21041
#
# Poissons Ratio (x) = 0.00609 0.52078
# Poissons Ratio (y) = 0.00609 0.52076
# Poissons Ratio (z) = 0.22003 0.22002
#
# Static dielectric constant tensor:
#      x y z
#    x 1.617210 0.000000 0.000000 
#    y 0.000000 1.617220 0.000000 
#    z 0.000000 0.000000 1.610850 
# 
# From -- ./inp_files/1039.got.cif
#   From: 2010.05.17/outbox.cif.g08.bks.cpg/sg113_cif.got.tgz:1039.got - 2010.05.20 11:03:00.
