data_PCOD9555823
_publ_section_title
;
Structure prediction by ZEFSAII (Michael W. Deem and Ramdas Pophale) SiO2 
 PCOD9555823
Probable space group: P -4 21 C
;
_chemical_formula_sum "Si O2"
_cell_formula_units_Z 48
_cell_length_a 15.422078
_cell_length_b 15.422078
_cell_length_c 9.089521
_cell_angle_alpha 90.000000
_cell_angle_beta 90.000000
_cell_angle_gamma 90.000000
_cell_volume 2161.856127
_symmetry_space_group_name_H-M "P -4 21 C"
_symmetry_group_IT_number 114
_symmetry_cell_setting 'tetragonal'
loop_
_space_group_symop_operation_xyz
x,y,z
y,-x,-z
-x,-y,z
-y,x,-z
1/2+x,1/2-y,1/2-z
1/2-x,1/2+y,1/2-z
1/2-y,1/2-x,1/2+z
1/2+y,1/2+x,1/2+z
loop_
_atom_site_type_symbol
_atom_site_label
_atom_site_fract_x
_atom_site_fract_y
_atom_site_fract_z
Si Si1 0.500000 0.500000 0.000000
Si Si2 0.000000 0.500000 0.772426
Si Si3 0.221882 0.632610 0.884430
Si Si4 0.954575 0.111131 0.758916
Si Si5 0.000000 0.000000 0.000000
Si Si6 0.134068 0.527566 0.511310
Si Si7 0.730975 0.537661 0.721228
Si Si8 0.782753 0.806376 0.320703
O O1 0.498502 0.416838 0.893178
O O2 0.922519 0.476884 0.661621
O O3 0.020112 0.419799 0.881975
O O4 0.243808 0.535159 0.839395
O O5 0.226881 0.692482 0.740564
O O6 0.126204 0.637171 0.955413
O O7 0.282869 0.675646 0.006935
O O8 0.010678 0.084989 0.897734
O O9 0.902973 0.200574 0.749275
O O10 0.872949 0.044616 0.777673
O O11 0.224183 0.487323 0.567256
O O12 0.636430 0.247884 0.230236
#
# Coordination Sequence:
#
# PCOD9555823 Si02
#       8
#     2   4   8   8   2   8   8   8
#     4  10  16  42  64  82 132 158 200 286 324 418
#     4  10  22  38  64  94 118 176 212 274 328 426
#     4  12  21  46  67  96 137 186 222 294 348 411
#     4   9  22  37  61  95 118 169 215 269 336 402
#     4  10  20  38  64  86 132 154 204 298 320 402
#     4  11  21  40  67  90 134 171 224 276 346 407
#     4  10  23  39  64  97 127 172 230 274 342 413
#     4  10  25  37  67  93 132 179 229 279 343 416
#
# _framework density 22.203142
#
# number of rings (size 3 to 8) (size 9 to 14) (size 15 to 20)
#    1.000    0.667    3.333    1.000    2.333    1.333 
#    0.000    0.000    3.667    0.000    0.000    0.000 
#    0.000    0.000    0.000    0.000    0.000    0.000 
#
# Total GULP energy -267531.823929 kJ/mol
# GULP energy per Si atom -5573.579665 kJ/mol
# Density = 2.215261 g / cm^3
# Si number density = 22.203142 Si / 1000 Ang^3
#
#
#
# Elastic Constant Matrix: (Units=GPa)
#
#
# Indices 1 2 3 4 5 6 
#
# 1 60.4028 2.7270 11.2258 0.0000 0.0000 0.0000
# 2 2.7270 60.4028 11.2258 0.0000 0.0000 0.0000
# 3 11.2258 11.2258 109.6891 0.0000 0.0000 0.0000
# 4 0.0000 0.0000 0.0000 32.5625 0.0000 0.0000
# 5 0.0000 0.0000 0.0000 0.0000 32.5625 0.0000
# 6 0.0000 0.0000 0.0000 0.0000 0.0000 26.6633
#
#
#
# Elastic Compliance Matrix: (Units=1/GPa)
#
#
# Indices 1 2 3 4 5 6 
#
# 1 0.016888 -0.000450 -0.001682 0.000000 0.000000 0.000000
# 2 -0.000450 0.016888 -0.001682 0.000000 0.000000 0.000000
# 3 -0.001682 -0.001682 0.009461 0.000000 0.000000 0.000000
# 4 0.000000 0.000000 0.000000 0.030710 0.000000 0.000000
# 5 0.000000 0.000000 0.000000 0.000000 0.030710 0.000000
# 6 0.000000 0.000000 0.000000 0.000000 0.000000 0.037505
#
#
# Mechanical properties :
#
#
# Convention : Reuss Voigt Hill
#
# Bulk Modulus (GPa) = 28.08283 31.20578 29.64430
# Shear Modulus (GPa) = 30.92876 32.04540 31.48708
#
# Velocity S-wave (km/s) = 3.73633 3.80318 3.76990
# Velocity P-wave (km/s) = 5.59367 5.77674 5.68594
#
# Compressibility (1/GPa) = 0.03560894
#
# Stress axis : x y z
#
# Youngs Moduli (GPa) = 59.21190 59.21190 105.69677
#
# Poissons Ratio (x) = 0.02663 0.17782
# Poissons Ratio (y) = 0.02663 0.17782
# Poissons Ratio (z) = 0.09962 0.09962
#
# Static dielectric constant tensor:
#      x y z
#    x 1.860820 0.000000 0.000000 
#    y 0.000000 1.860820 0.000000 
#    z 0.000000 0.000000 1.851220 
# 
# From -- ./inp_files/955.got.cif
#   From: 2010.05.17/outbox.cif.g08.bks.cpg/sg114_1_cif.got.tgz:955.got - 2010.05.20 11:04:54.
