data_PCOD9555353
_publ_section_title
;
Structure prediction by ZEFSAII (Michael W. Deem and Ramdas Pophale) SiO2 
 PCOD9555353
Probable space group: P -4 2 C
;
_chemical_formula_sum "Si O2"
_cell_formula_units_Z 24
_cell_length_a 8.235491
_cell_length_b 8.235491
_cell_length_c 14.328797
_cell_angle_alpha 90.000000
_cell_angle_beta 90.000000
_cell_angle_gamma 90.000000
_cell_volume 971.826470
_symmetry_space_group_name_H-M "P -4 2 C"
_symmetry_group_IT_number 112
_symmetry_cell_setting 'tetragonal'
loop_
_space_group_symop_operation_xyz
x,y,z
y,-x,-z
-x,-y,z
-y,x,-z
x,-y,1/2-z
-x,y,1/2-z
-y,-x,1/2+z
y,x,1/2+z
loop_
_atom_site_type_symbol
_atom_site_label
_atom_site_fract_x
_atom_site_fract_y
_atom_site_fract_z
Si Si1 0.686096 0.820417 0.774642
Si Si2 0.722324 0.660876 0.485438
Si Si3 0.087596 0.671034 0.841111
O O1 0.500000 0.836217 0.750000
O O2 0.712172 0.772280 0.881619
O O3 0.737917 0.673571 0.706922
O O4 0.754608 0.000000 0.750000
O O5 0.719264 0.462707 0.494057
O O6 0.860932 0.728580 0.556246
O O7 0.000000 0.500000 0.851328
O O8 0.000000 0.754020 0.750000
#
# Coordination Sequence:
#
# PCOD9555353 Si02
#       3
#     8   8   8
#     4  11  25  46  72 102 147 194 240 300 367 438
#     4  11  23  42  73 106 139 186 245 304 361 421
#     4  11  24  43  68 105 145 186 239 301 356 427
#
# _framework density 24.695765000000002
#
# number of rings (size 3 to 8) (size 9 to 14) (size 15 to 20)
#    0.000    1.000    3.333    4.000    4.667    3.333 
#    0.000    0.000    0.000    4.000    0.000    0.000 
#    0.000    0.000    0.000    0.000    0.000    0.000 
#
# Total GULP energy -133627.390079 kJ/mol
# GULP energy per Si atom -5567.807920 kJ/mol
# Density = 2.463956 g / cm^3
# Si number density = 24.695765 Si / 1000 Ang^3
#
#
#
# Elastic Constant Matrix: (Units=GPa)
#
#
# Indices 1 2 3 4 5 6 
#
# 1 62.0516 24.6206 5.3839 0.0000 0.0000 0.0000
# 2 24.6206 62.0516 5.3839 0.0000 0.0000 0.0000
# 3 5.3839 5.3839 192.4325 0.0000 0.0000 0.0000
# 4 0.0000 0.0000 0.0000 31.3214 0.0000 0.0000
# 5 0.0000 0.0000 0.0000 0.0000 31.3214 0.0000
# 6 0.0000 0.0000 0.0000 0.0000 0.0000 43.7321
#
#
#
# Elastic Compliance Matrix: (Units=1/GPa)
#
#
# Indices 1 2 3 4 5 6 
#
# 1 0.019147 -0.007569 -0.000324 0.000000 0.000000 0.000000
# 2 -0.007569 0.019147 -0.000324 0.000000 0.000000 0.000000
# 3 -0.000324 -0.000324 0.005215 0.000000 0.000000 0.000000
# 4 0.000000 0.000000 0.000000 0.031927 0.000000 0.000000
# 5 0.000000 0.000000 0.000000 0.000000 0.031927 0.000000
# 6 0.000000 0.000000 0.000000 0.000000 0.000000 0.022866
#
#
# Mechanical properties :
#
#
# Convention : Reuss Voigt Hill
#
# Bulk Modulus (GPa) = 36.93446 43.03471 39.98458
# Shear Modulus (GPa) = 32.11559 40.01815 36.06687
#
# Velocity S-wave (km/s) = 3.61009 4.02984 3.82573
# Velocity P-wave (km/s) = 5.68904 6.25433 5.97837
#
# Compressibility (1/GPa) = 0.02707499
#
# Stress axis : x y z
#
# Youngs Moduli (GPa) = 52.22780 52.22780 191.76365
#
# Poissons Ratio (x) = 0.39531 0.06212
# Poissons Ratio (y) = 0.39531 0.06212
# Poissons Ratio (z) = 0.01692 0.01692
#
# Static dielectric constant tensor:
#      x y z
#    x 2.180070 0.000000 0.000000 
#    y 0.000000 2.180070 0.000000 
#    z 0.000000 0.000000 1.969000 
# 
# From -- ./inp_files/2990.got.cif
#   From: 2010.05.17/outbox.cif.g08.bks.cpg/sg112_2_cif.got.tgz:2990.got - 2010.05.20 10:59:04.
