data_PCOD9555496
_publ_section_title
;
Structure prediction by ZEFSAII (Michael W. Deem and Ramdas Pophale) SiO2 
 PCOD9555496
Probable space group: P -4 21 M 
;
_chemical_formula_sum "Si O2"
_cell_formula_units_Z 56
_cell_length_a 15.699901
_cell_length_b 15.699901
_cell_length_c 13.036068
_cell_angle_alpha 90.000000
_cell_angle_beta 90.000000
_cell_angle_gamma 90.000000
_cell_volume 3213.219878
_symmetry_space_group_name_H-M "P -4 21 M "
_symmetry_group_IT_number 113
_symmetry_cell_setting 'tetragonal'
loop_
_space_group_symop_operation_xyz
x,y,z
y,-x,-z
-x,-y,z
-y,x,-z
1/2+x,1/2-y,-z
1/2-x,1/2+y,-z
1/2-y,1/2-x,z
1/2+y,1/2+x,z
loop_
_atom_site_type_symbol
_atom_site_label
_atom_site_fract_x
_atom_site_fract_y
_atom_site_fract_z
Si Si1 0.179495 0.179517 0.698765
Si Si2 0.117448 0.920609 0.500180
Si Si3 0.878838 0.758647 0.901285
Si Si4 0.121694 0.237029 0.307588
Si Si5 0.322754 0.040643 0.026642
Si Si6 0.455673 0.181513 0.779956
Si Si7 0.317025 0.673937 0.900039
O O1 0.235949 0.264052 0.677727
O O2 0.130691 0.150317 0.598266
O O3 0.114350 0.196294 0.792421
O O4 0.245356 0.108239 0.739616
O O5 0.180594 0.903808 0.595105
O O6 0.021362 0.889005 0.522531
O O7 0.786420 0.713580 0.896552
O O8 0.949710 0.688565 0.922475
O O9 0.878263 0.818116 0.001521
O O10 0.205721 0.294280 0.327543
O O11 0.137681 0.175147 0.209491
O O12 0.045581 0.300382 0.273210
O O13 0.411086 0.088915 0.045790
O O14 0.248300 0.098773 0.075323
O O15 0.311728 0.035517 0.903436
O O16 0.408356 0.091645 0.758656
O O17 0.260522 0.760522 0.897004
#
# Coordination Sequence:
#
# PCOD9555496 Si02
#       7
#     8   8   8   8   8   8   8
#     4  10  20  38  59  78 106 148 191 226 274 339
#     4  11  24  40  58  83 110 141 188 240 283 325
#     4  10  19  32  54  80 107 143 182 222 267 332
#     4  11  22  38  58  82 116 149 185 232 284 334
#     4  10  19  32  52  81 116 149 180 221 273 328
#     4  10  19  34  58  84 113 147 186 230 274 331
#     4   9  18  32  50  78 109 141 179 218 268 328
#
# _framework density 17.428000000000001
#
# number of rings (size 3 to 8) (size 9 to 14) (size 15 to 20)
#    0.000    1.857    4.286    0.429    2.000    0.571 
#    0.000    1.429    0.000    3.000    0.000    2.000 
#    0.000    0.000    0.000    0.000    0.000    0.000 
#
# Total GULP energy -312195.342644 kJ/mol
# GULP energy per Si atom -5574.916833 kJ/mol
# Density = 1.738833 g / cm^3
# Si number density = 17.428000 Si / 1000 Ang^3
#
#
#
# Elastic Constant Matrix: (Units=GPa)
#
#
# Indices 1 2 3 4 5 6 
#
# 1 52.6175 13.1796 25.8451 0.0000 0.0000 0.0000
# 2 13.1796 52.6185 25.8453 0.0000 0.0000 0.0000
# 3 25.8451 25.8453 73.2130 0.0000 0.0000 0.0000
# 4 0.0000 0.0000 0.0000 24.0051 0.0000 0.0000
# 5 0.0000 0.0000 0.0000 0.0000 24.0056 0.0000
# 6 0.0000 0.0000 0.0000 0.0000 0.0000 18.6650
#
#
#
# Elastic Compliance Matrix: (Units=1/GPa)
#
#
# Indices 1 2 3 4 5 6 
#
# 1 0.023193 -0.002163 -0.007424 0.000000 0.000000 0.000000
# 2 -0.002163 0.023193 -0.007424 0.000000 0.000000 0.000000
# 3 -0.007424 -0.007424 0.018900 0.000000 0.000000 0.000000
# 4 0.000000 0.000000 0.000000 0.041658 0.000000 0.000000
# 5 0.000000 0.000000 0.000000 0.000000 0.041657 0.000000
# 6 0.000000 0.000000 0.000000 0.000000 0.000000 0.053576
#
#
# Mechanical properties :
#
#
# Convention : Reuss Voigt Hill
#
# Bulk Modulus (GPa) = 31.98455 34.24321 33.11388
# Shear Modulus (GPa) = 20.27402 20.90708 20.59055
#
# Velocity S-wave (km/s) = 3.41442 3.46732 3.44097
# Velocity P-wave (km/s) = 5.82551 5.97669 5.90158
#
# Compressibility (1/GPa) = 0.03126509
#
# Stress axis : x y z
#
# Youngs Moduli (GPa) = 43.11560 43.11655 52.90911
#
# Poissons Ratio (x) = 0.09325 0.39280
# Poissons Ratio (y) = 0.09325 0.39280
# Poissons Ratio (z) = 0.32009 0.32010
#
# Static dielectric constant tensor:
#      x y z
#    x 1.602820 0.000000 0.000000 
#    y 0.000000 1.602820 0.000000 
#    z 0.000000 0.000000 1.585980 
# 
# From -- ./inp_files/1905.got.cif
#   From: 2010.05.17/outbox.cif.g08.bks.cpg/sg113_cif.got.tgz:1905.got - 2010.05.20 11:03:00.
