data_PCOD9555287
_publ_section_title
;
Structure prediction by ZEFSAII (Michael W. Deem and Ramdas Pophale) SiO2 
 PCOD9555287
Probable space group: P -4 2 C
;
_chemical_formula_sum "Si O2"
_cell_formula_units_Z 16
_cell_length_a 5.096498
_cell_length_b 5.096498
_cell_length_c 25.289396
_cell_angle_alpha 90.000000
_cell_angle_beta 90.000000
_cell_angle_gamma 90.000000
_cell_volume 656.874153
_symmetry_space_group_name_H-M "P -4 2 C"
_symmetry_group_IT_number 112
_symmetry_cell_setting 'tetragonal'
loop_
_space_group_symop_operation_xyz
x,y,z
y,-x,-z
-x,-y,z
-y,x,-z
x,-y,1/2-z
-x,y,1/2-z
-y,-x,1/2+z
y,x,1/2+z
loop_
_atom_site_type_symbol
_atom_site_label
_atom_site_fract_x
_atom_site_fract_y
_atom_site_fract_z
Si Si1 0.500000 0.000000 0.928894
Si Si2 0.500000 0.500000 0.000000
Si Si3 0.500000 0.000000 0.750000
Si Si4 0.315118 0.749145 0.157218
O O1 0.272611 0.102907 0.889556
O O2 0.574135 0.247451 0.964970
O O3 0.313678 0.171353 0.787753
O O4 0.500000 0.500000 0.147768
O O5 0.500000 0.000000 0.158115
#
# Coordination Sequence:
#
# PCOD9555287 Si02
#       4
#     4   2   2   8
#     4  11  28  51  80 122 158 211 270 333 406 482
#     4  12  28  48  84 114 160 208 268 336 404 478
#     4  10  26  46  80 120 164 216 272 330 404 482
#     4  11  26  49  79 115 163 211 267 333 401 483
#
# _framework density 24.357786999999998
#
# number of rings (size 3 to 8) (size 9 to 14) (size 15 to 20)
#    0.000    1.000    2.500    0.750    3.500   19.000 
#    0.000    0.000    5.500    0.000    0.000    0.000 
#    0.000    0.000    0.000    0.000    0.000    0.000 
#
# Total GULP energy -89726.740997 kJ/mol
# GULP energy per Si atom -5607.921312 kJ/mol
# Density = 2.430235 g / cm^3
# Si number density = 24.357787 Si / 1000 Ang^3
#
#
#
# Elastic Constant Matrix: (Units=GPa)
#
#
# Indices 1 2 3 4 5 6 
#
# 1 210.9788 102.4117 96.4977 0.0000 0.0000 0.0000
# 2 102.4117 210.9788 96.4977 0.0000 0.0000 0.0000
# 3 96.4977 96.4977 191.6484 0.0000 0.0000 0.0000
# 4 0.0000 0.0000 0.0000 9.1469 0.0000 0.0000
# 5 0.0000 0.0000 0.0000 0.0000 9.1469 0.0000
# 6 0.0000 0.0000 0.0000 0.0000 0.0000 62.2251
#
#
#
# Elastic Compliance Matrix: (Units=1/GPa)
#
#
# Indices 1 2 3 4 5 6 
#
# 1 0.006918 -0.002293 -0.002329 0.000000 0.000000 0.000000
# 2 -0.002293 0.006918 -0.002329 0.000000 0.000000 0.000000
# 3 -0.002329 -0.002329 0.007563 0.000000 0.000000 0.000000
# 4 0.000000 0.000000 0.000000 0.109327 0.000000 0.000000
# 5 0.000000 0.000000 0.000000 0.000000 0.109327 0.000000
# 6 0.000000 0.000000 0.000000 0.000000 0.000000 0.016071
#
#
# Mechanical properties :
#
#
# Convention : Reuss Voigt Hill
#
# Bulk Modulus (GPa) = 133.36867 133.82447 133.59657
# Shear Modulus (GPa) = 18.34705 37.31704 27.83205
#
# Velocity S-wave (km/s) = 2.74748 3.91837 3.38395
# Velocity P-wave (km/s) = 8.05840 8.69091 8.38062
#
# Compressibility (1/GPa) = 0.00749801
#
# Stress axis : x y z
#
# Youngs Moduli (GPa) = 144.55121 144.55121 132.22219
#
# Poissons Ratio (x) = 0.33145 0.30792
# Poissons Ratio (y) = 0.33145 0.30792
# Poissons Ratio (z) = 0.33663 0.33663
#
# Static dielectric constant tensor:
#      x y z
#    x 1.648930 0.000000 0.000000 
#    y 0.000000 1.648930 0.000000 
#    z 0.000000 0.000000 1.970180 
# 
# From -- ./inp_files/5013.got.cif
#   From: 2010.05.17/outbox.cif.g08.bks.cpg/sg112_3_cif.got.tgz:5013.got - 2010.05.20 10:59:04.
