data_PCOD9555998
_publ_section_title
;
Structure prediction by ZEFSAII (Michael W. Deem and Ramdas Pophale) SiO2 
 PCOD9555998
Probable space group: P -4 21 C
;
_chemical_formula_sum "Si O2"
_cell_formula_units_Z 36
_cell_length_a 11.677759
_cell_length_b 11.677759
_cell_length_c 9.757956
_cell_angle_alpha 90.000000
_cell_angle_beta 90.000000
_cell_angle_gamma 90.000000
_cell_volume 1330.692999
_symmetry_space_group_name_H-M "P -4 21 C"
_symmetry_group_IT_number 114
_symmetry_cell_setting 'tetragonal'
loop_
_space_group_symop_operation_xyz
x,y,z
y,-x,-z
-x,-y,z
-y,x,-z
1/2+x,1/2-y,1/2-z
1/2-x,1/2+y,1/2-z
1/2-y,1/2-x,1/2+z
1/2+y,1/2+x,1/2+z
loop_
_atom_site_type_symbol
_atom_site_label
_atom_site_fract_x
_atom_site_fract_y
_atom_site_fract_z
Si Si1 0.751901 0.538334 0.011721
Si Si2 0.567676 0.782332 0.256749
Si Si3 0.000000 0.500000 0.105747
Si Si4 0.561824 0.713767 0.702027
Si Si5 0.346259 0.712539 0.518310
O O1 0.512785 0.712020 0.132356
O O2 0.690745 0.489580 0.147364
O O3 0.882711 0.490604 0.023875
O O4 0.767780 0.675504 0.006132
O O5 0.677949 0.854962 0.209079
O O6 0.621073 0.714134 0.382777
O O7 0.483564 0.883795 0.307384
O O8 0.456239 0.747720 0.605364
O O9 0.642218 0.624926 0.620146
#
# Coordination Sequence:
#
# PCOD9555998 Si02
#       5
#     8   8   4   8   8
#     4  11  22  42  71 102 139 184 240 307 370 445
#     4  11  23  42  71 107 140 182 245 312 380 450
#     4  10  20  40  70 102 134 176 238 304 364 436
#     4  11  25  42  67 101 145 192 242 302 374 460
#     4  12  25  45  70 104 144 189 244 309 383 453
#
# _framework density 27.053571000000002
#
# number of rings (size 3 to 8) (size 9 to 14) (size 15 to 20)
#    0.000    0.889    0.000   10.000    0.000    2.222 
#    0.000    0.000    0.000    2.667    0.000    0.000 
#    0.000    0.000    0.000    0.000    0.000    0.000 
#
# Total GULP energy -201812.583156 kJ/mol
# GULP energy per Si atom -5605.905088 kJ/mol
# Density = 2.699200 g / cm^3
# Si number density = 27.053571 Si / 1000 Ang^3
#
#
#
# Elastic Constant Matrix: (Units=GPa)
#
#
# Indices 1 2 3 4 5 6 
#
# 1 98.3564 22.1178 69.7153 0.0000 0.0000 0.0000
# 2 22.1178 98.3564 69.7153 0.0000 0.0000 0.0000
# 3 69.7153 69.7153 240.8487 0.0000 0.0000 0.0000
# 4 0.0000 0.0000 0.0000 43.9486 0.0000 0.0000
# 5 0.0000 0.0000 0.0000 0.0000 43.9486 0.0000
# 6 0.0000 0.0000 0.0000 0.0000 0.0000 33.9347
#
#
#
# Elastic Compliance Matrix: (Units=1/GPa)
#
#
# Indices 1 2 3 4 5 6 
#
# 1 0.012799 -0.000317 -0.003613 0.000000 0.000000 0.000000
# 2 -0.000317 0.012799 -0.003613 0.000000 0.000000 0.000000
# 3 -0.003613 -0.003613 0.006244 0.000000 0.000000 0.000000
# 4 0.000000 0.000000 0.000000 0.022754 0.000000 0.000000
# 5 0.000000 0.000000 0.000000 0.000000 0.022754 0.000000
# 6 0.000000 0.000000 0.000000 0.000000 0.000000 0.029468
#
#
# Mechanical properties :
#
#
# Convention : Reuss Voigt Hill
#
# Bulk Modulus (GPa) = 59.68138 84.51759 72.09949
# Shear Modulus (GPa) = 39.21865 42.76725 40.99295
#
# Velocity S-wave (km/s) = 3.81158 3.98029 3.89685
# Velocity P-wave (km/s) = 6.44043 7.24101 6.85242
#
# Compressibility (1/GPa) = 0.01675564
#
# Stress axis : x y z
#
# Youngs Moduli (GPa) = 78.12882 78.12882 160.16392
#
# Poissons Ratio (x) = 0.02479 0.57867
# Poissons Ratio (y) = 0.02479 0.57867
# Poissons Ratio (z) = 0.28228 0.28228
#
# Static dielectric constant tensor:
#      x y z
#    x 2.124080 0.000000 0.000000 
#    y 0.000000 2.124080 0.000000 
#    z 0.000000 0.000000 2.179610 
# 
# From -- ./inp_files/1497.got.cif
#   From: 2010.05.17/outbox.cif.g08.bks.cpg/sg114_1_cif.got.tgz:1497.got - 2010.05.20 11:04:54.
