data_PCOD9555044
_publ_section_title
;
Structure prediction by ZEFSAII (Michael W. Deem and Ramdas Pophale) SiO2 
 PCOD9555044
Probable space group: P -4 2 C
;
_chemical_formula_sum "Si O2"
_cell_formula_units_Z 48
_cell_length_a 8.257293
_cell_length_b 8.257293
_cell_length_c 34.324918
_cell_angle_alpha 90.000000
_cell_angle_beta 90.000000
_cell_angle_gamma 90.000000
_cell_volume 2340.372029
_symmetry_space_group_name_H-M "P -4 2 C"
_symmetry_group_IT_number 112
_symmetry_cell_setting 'tetragonal'
loop_
_space_group_symop_operation_xyz
x,y,z
y,-x,-z
-x,-y,z
-y,x,-z
x,-y,1/2-z
-x,y,1/2-z
-y,-x,1/2+z
y,x,1/2+z
loop_
_atom_site_type_symbol
_atom_site_label
_atom_site_fract_x
_atom_site_fract_y
_atom_site_fract_z
Si Si1 0.823174 0.806746 0.161343
Si Si2 0.193254 0.176826 0.838657
Si Si3 0.192083 0.807917 0.500000
Si Si4 0.307165 0.684894 0.583097
Si Si5 0.684893 0.307165 0.416903
Si Si6 0.198116 0.500000 0.795330
O O1 0.796247 0.773770 0.115645
O O2 0.664322 0.743308 0.183700
O O3 1.000000 0.742357 0.173443
O O4 0.825657 0.000000 0.167546
O O5 0.226230 0.203753 0.884355
O O6 0.256692 0.335678 0.816300
O O7 0.264238 0.733791 0.539281
O O8 0.266209 0.735763 0.460719
O O9 0.000000 0.778700 0.499776
O O10 0.253052 0.500000 0.589929
O O11 0.500000 0.693481 0.588050
O O12 0.241437 0.500000 0.750000
O O13 0.000000 0.500000 0.797761
#
# Coordination Sequence:
#
# PCOD9555044 Si02
#       6
#     8   8   8   8   8   8
#     4  10  20  35  58  86 115 152 195 238 293 358
#     4  10  20  35  58  86 115 152 195 238 293 358
#     4  11  24  39  56  82 114 149 192 241 292 348
#     4  11  23  38  57  82 113 151 195 240 291 350
#     4  11  23  38  57  82 113 151 195 240 291 350
#     4   9  18  34  57  87 121 153 189 241 301 355
#
# _framework density 20.509558999999999
#
# number of rings (size 3 to 8) (size 9 to 14) (size 15 to 20)
#    0.000    1.667    1.667    3.000    0.000   10.667 
#    0.000    3.333    0.000    2.000    0.000    2.333 
#    0.000    0.000    0.000    0.000    0.000    0.000 
#
# Total GULP energy -268203.540640 kJ/mol
# GULP energy per Si atom -5587.573763 kJ/mol
# Density = 2.046288 g / cm^3
# Si number density = 20.509559 Si / 1000 Ang^3
#
#
#
# Elastic Constant Matrix: (Units=GPa)
#
#
# Indices 1 2 3 4 5 6 
#
# 1 55.6599 52.0378 24.6721 0.0000 0.0000 0.0000
# 2 52.0378 55.6599 24.6721 0.0000 0.0000 0.0000
# 3 24.6721 24.6721 110.8582 0.0000 0.0000 0.0000
# 4 0.0000 0.0000 0.0000 21.8294 0.0000 0.0000
# 5 0.0000 0.0000 0.0000 0.0000 21.8294 0.0000
# 6 0.0000 0.0000 0.0000 0.0000 0.0000 17.5929
#
#
#
# Elastic Compliance Matrix: (Units=1/GPa)
#
#
# Indices 1 2 3 4 5 6 
#
# 1 0.143209 -0.132870 -0.002301 0.000000 0.000000 0.000000
# 2 -0.132870 0.143209 -0.002301 0.000000 0.000000 0.000000
# 3 -0.002301 -0.002301 0.010045 0.000000 0.000000 0.000000
# 4 0.000000 0.000000 0.000000 0.045810 0.000000 0.000000
# 5 0.000000 0.000000 0.000000 0.000000 0.045810 0.000000
# 6 0.000000 0.000000 0.000000 0.000000 0.000000 0.056841
#
#
# Mechanical properties :
#
#
# Convention : Reuss Voigt Hill
#
# Bulk Modulus (GPa) = 46.46968 47.21579 46.84274
# Shear Modulus (GPa) = 6.87719 20.30340 13.59030
#
# Velocity S-wave (km/s) = 1.83315 3.14976 2.57696
# Velocity P-wave (km/s) = 5.21415 6.02489 5.63412
#
# Compressibility (1/GPa) = 0.02151941
#
# Stress axis : x y z
#
# Youngs Moduli (GPa) = 6.98278 6.98278 99.55411
#
# Poissons Ratio (x) = 0.92780 0.22909
# Poissons Ratio (y) = 0.92780 0.22909
# Poissons Ratio (z) = 0.01607 0.01607
#
# Static dielectric constant tensor:
#      x y z
#    x 1.735650 0.000000 0.000000 
#    y 0.000000 1.735650 0.000000 
#    z 0.000000 0.000000 1.690140 
# 
# From -- ./inp_files/6313.got.cif
#   From: 2010.05.17/outbox.cif.g08.bks.cpg/sg112_4_cif.got.tgz:6313.got - 2010.05.20 10:59:04.
