data_PCOD9555888
_publ_section_title
;
Structure prediction by ZEFSAII (Michael W. Deem and Ramdas Pophale) SiO2 
 PCOD9555888
Probable space group: P -4 21 C
;
_chemical_formula_sum "Si O2"
_cell_formula_units_Z 28
_cell_length_a 9.483284
_cell_length_b 9.483284
_cell_length_c 13.560794
_cell_angle_alpha 90.000000
_cell_angle_beta 90.000000
_cell_angle_gamma 90.000000
_cell_volume 1219.558485
_symmetry_space_group_name_H-M "P -4 21 C"
_symmetry_group_IT_number 114
_symmetry_cell_setting 'tetragonal'
loop_
_space_group_symop_operation_xyz
x,y,z
y,-x,-z
-x,-y,z
-y,x,-z
1/2+x,1/2-y,1/2-z
1/2-x,1/2+y,1/2-z
1/2-y,1/2-x,1/2+z
1/2+y,1/2+x,1/2+z
loop_
_atom_site_type_symbol
_atom_site_label
_atom_site_fract_x
_atom_site_fract_y
_atom_site_fract_z
Si Si1 0.500000 0.000000 0.087544
Si Si2 0.856231 0.569360 0.218831
Si Si3 0.204545 0.038310 0.548352
Si Si4 0.380448 0.405505 0.747774
O O1 0.380891 0.940114 0.161893
O O2 0.562560 0.867962 0.031914
O O3 0.726800 0.463319 0.205079
O O4 0.852639 0.736503 0.195316
O O5 0.000000 0.500000 0.178625
O O6 0.171778 0.007306 0.663173
O O7 0.158339 0.896788 0.491749
O O8 0.500000 0.500000 0.693146
#
# Coordination Sequence:
#
# PCOD9555888 Si02
#       4
#     4   8   8   8
#     4   8  20  38  54  80 110 138 184 230 286 318
#     4   9  20  34  55  79 111 141 175 235 286 333
#     4  10  19  35  59  77 106 150 187 224 264 339
#     4  11  19  33  55  80 111 142 186 226 280 333
#
# _framework density 22.959128
#
# number of rings (size 3 to 8) (size 9 to 14) (size 15 to 20)
#    0.857    1.429    2.857    1.714    0.000    0.000 
#    2.571    0.000   12.571    0.000    0.000    0.000 
#    0.000    0.000    0.000    0.000    0.000    0.000 
#
# Total GULP energy -156056.288552 kJ/mol
# GULP energy per Si atom -5573.438877 kJ/mol
# Density = 2.290687 g / cm^3
# Si number density = 22.959128 Si / 1000 Ang^3
#
#
#
# Elastic Constant Matrix: (Units=GPa)
#
#
# Indices 1 2 3 4 5 6 
#
# 1 144.9266 46.5882 -8.2801 0.0000 0.0000 0.0000
# 2 46.5882 144.9266 -8.2801 0.0000 0.0000 0.0000
# 3 -8.2801 -8.2801 22.1853 0.0000 0.0000 0.0000
# 4 0.0000 0.0000 0.0000 20.2017 0.0000 0.0000
# 5 0.0000 0.0000 0.0000 0.0000 20.2017 0.0000
# 6 0.0000 0.0000 0.0000 0.0000 0.0000 21.3308
#
#
#
# Elastic Compliance Matrix: (Units=1/GPa)
#
#
# Indices 1 2 3 4 5 6 
#
# 1 0.007782 -0.002387 0.002014 0.000000 0.000000 0.000000
# 2 -0.002387 0.007782 0.002014 0.000000 0.000000 0.000000
# 3 0.002014 0.002014 0.046578 0.000000 0.000000 0.000000
# 4 0.000000 0.000000 0.000000 0.049501 0.000000 0.000000
# 5 0.000000 0.000000 0.000000 0.000000 0.049501 0.000000
# 6 0.000000 0.000000 0.000000 0.000000 0.000000 0.046880
#
#
# Mechanical properties :
#
#
# Convention : Reuss Voigt Hill
#
# Bulk Modulus (GPa) = 15.28479 41.34385 28.31432
# Shear Modulus (GPa) = 22.07006 31.14753 26.60880
#
# Velocity S-wave (km/s) = 3.10381 3.68727 3.40805
# Velocity P-wave (km/s) = 4.41777 6.01454 5.27690
#
# Compressibility (1/GPa) = 0.06542452
#
# Stress axis : x y z
#
# Youngs Moduli (GPa) = 128.49654 128.49654 21.46933
#
# Poissons Ratio (x) = 0.30668 -0.04323
# Poissons Ratio (y) = 0.30668 -0.04323
# Poissons Ratio (z) = -0.25876 -0.25876
#
# Static dielectric constant tensor:
#      x y z
#    x 1.941910 0.000000 0.000000 
#    y 0.000000 1.941910 0.000000 
#    z 0.000000 0.000000 1.940090 
# 
# From -- ./inp_files/2776.got.cif
#   From: 2010.05.17/outbox.cif.g08.bks.cpg/sg114_2_cif.got.tgz:2776.got - 2010.05.20 11:04:54.
