data_PCOD9555307
_publ_section_title
;
Structure prediction by ZEFSAII (Michael W. Deem and Ramdas Pophale) SiO2 
 PCOD9555307
Probable space group: P -4 2 C
;
_chemical_formula_sum "Si O2"
_cell_formula_units_Z 24
_cell_length_a 13.909396
_cell_length_b 13.909396
_cell_length_c 4.858260
_cell_angle_alpha 90.000000
_cell_angle_beta 90.000000
_cell_angle_gamma 90.000000
_cell_volume 939.933864
_symmetry_space_group_name_H-M "P -4 2 C"
_symmetry_group_IT_number 112
_symmetry_cell_setting 'tetragonal'
loop_
_space_group_symop_operation_xyz
x,y,z
y,-x,-z
-x,-y,z
-y,x,-z
x,-y,1/2-z
-x,y,1/2-z
-y,-x,1/2+z
y,x,1/2+z
loop_
_atom_site_type_symbol
_atom_site_label
_atom_site_fract_x
_atom_site_fract_y
_atom_site_fract_z
Si Si1 0.870220 0.429248 0.489072
Si Si2 0.786566 0.110250 0.210469
Si Si3 0.601365 0.325905 0.673185
O O1 0.911886 0.500000 0.250000
O O2 0.902596 0.324980 0.609881
O O3 0.774798 0.399262 0.322506
O O4 0.863975 0.500000 0.750000
O O5 0.817713 0.162102 0.493295
O O6 0.822958 0.000000 0.250000
O O7 0.500000 0.372947 0.750000
O O8 0.615726 0.321340 0.350694
#
# Coordination Sequence:
#
# PCOD9555307 Si02
#       3
#     8   8   8
#     4  11  23  43  71 104 141 187 245 311 386 464
#     4  12  27  49  78 113 155 205 261 326 398 479
#     4  11  21  34  53  81 122 172 225 285 353 430
#
# _framework density 25.533709999999999
#
# number of rings (size 3 to 8) (size 9 to 14) (size 15 to 20)
#    0.000    0.667    0.000   10.000    0.000    4.667 
#    0.000    1.667    0.000    0.000    0.000    0.000 
#    0.000    0.000    0.000    0.000    0.000    0.000 
#
# Total GULP energy -133720.403022 kJ/mol
# GULP energy per Si atom -5571.683459 kJ/mol
# Density = 2.547559 g / cm^3
# Si number density = 25.533710 Si / 1000 Ang^3
#
#
#
# Elastic Constant Matrix: (Units=GPa)
#
#
# Indices 1 2 3 4 5 6 
#
# 1 138.4730 5.0531 37.8936 0.0000 0.0000 0.0000
# 2 5.0531 138.4730 37.8936 0.0000 0.0000 0.0000
# 3 37.8936 37.8936 147.0478 0.0000 0.0000 0.0000
# 4 0.0000 0.0000 0.0000 59.2429 0.0000 0.0000
# 5 0.0000 0.0000 0.0000 0.0000 59.2429 0.0000
# 6 0.0000 0.0000 0.0000 0.0000 0.0000 -6.4592
#
#
#
# Elastic Compliance Matrix: (Units=1/GPa)
#
#
# Indices 1 2 3 4 5 6 
#
# 1 0.007780 0.000285 -0.002078 0.000000 0.000000 0.000000
# 2 0.000285 0.007780 -0.002078 0.000000 0.000000 0.000000
# 3 -0.002078 -0.002078 0.007872 0.000000 0.000000 0.000000
# 4 0.000000 0.000000 0.000000 0.016880 0.000000 0.000000
# 5 0.000000 0.000000 0.000000 0.000000 0.016880 0.000000
# 6 0.000000 0.000000 0.000000 0.000000 0.000000 -0.154818
#
#
# Mechanical properties :
#
#
# Convention : Reuss Voigt Hill
#
# Bulk Modulus (GPa) = 63.74241 65.07491 64.40866
# Shear Modulus (GPa) = -59.06378 45.28223 -6.89078
#
# Velocity S-wave (km/s) = -4.81476 4.21578 -1.64455
# Velocity P-wave (km/s) = 2.42714 7.01700 4.65550
#
# Compressibility (1/GPa) = 0.01568814
#
# Stress axis : x y z
#
# Youngs Moduli (GPa) = 128.53555 128.53555 127.03858
#
# Poissons Ratio (x) = -0.03661 0.26402
# Poissons Ratio (y) = -0.03661 0.26402
# Poissons Ratio (z) = 0.26713 0.26713
#
# Static dielectric constant tensor:
#      x y z
#    x 2.106220 0.000000 0.000000 
#    y 0.000000 2.106220 0.000000 
#    z 0.000000 0.000000 1.913600 
# 
# From -- ./inp_files/98.got.cif
#   From: 2010.05.17/outbox.cif.g08.bks.cpg/sg112_1_cif.got.tgz:98.got - 2010.05.20 10:59:04.
