data_PCOD9555505
_publ_section_title
;
Structure prediction by ZEFSAII (Michael W. Deem and Ramdas Pophale) SiO2 
 PCOD9555505
Probable space group: P -4 21 M 
;
_chemical_formula_sum "Si O2"
_cell_formula_units_Z 64
_cell_length_a 14.550099
_cell_length_b 14.550099
_cell_length_c 16.932378
_cell_angle_alpha 90.000000
_cell_angle_beta 90.000000
_cell_angle_gamma 90.000000
_cell_volume 3584.675534
_symmetry_space_group_name_H-M "P -4 21 M "
_symmetry_group_IT_number 113
_symmetry_cell_setting 'tetragonal'
loop_
_space_group_symop_operation_xyz
x,y,z
y,-x,-z
-x,-y,z
-y,x,-z
1/2+x,1/2-y,-z
1/2-x,1/2+y,-z
1/2-y,1/2-x,z
1/2+y,1/2+x,z
loop_
_atom_site_type_symbol
_atom_site_label
_atom_site_fract_x
_atom_site_fract_y
_atom_site_fract_z
Si Si1 0.673278 0.323954 0.325418
Si Si2 0.171106 0.529866 0.275132
Si Si3 0.369838 0.729010 0.641457
Si Si4 0.946597 0.701096 0.108260
Si Si5 0.978418 0.129529 0.042278
Si Si6 0.156911 0.808746 0.803833
Si Si7 0.533114 0.399992 0.199928
Si Si8 0.125823 0.922174 0.490291
O O1 0.725883 0.225883 0.322221
O O2 0.749377 0.399008 0.299832
O O3 0.592716 0.342960 0.262453
O O4 0.633769 0.344443 0.412836
O O5 0.076126 0.576126 0.298555
O O6 0.198391 0.437197 0.317923
O O7 0.170726 0.509532 0.181673
O O8 0.276256 0.776256 0.615943
O O9 0.342816 0.661515 0.712597
O O10 0.416194 0.693012 0.563716
O O11 0.884297 0.615704 0.079656
O O12 0.875987 0.775324 0.147107
O O13 0.006445 0.761372 0.047126
O O14 0.935620 0.094643 0.125564
O O15 0.078176 0.086110 0.021092
O O16 0.208286 0.708286 0.808795
O O17 0.052074 0.834373 0.825411
O O18 0.500000 0.500000 0.233994
O O19 0.029556 0.886632 0.525949
#
# Coordination Sequence:
#
# PCOD9555505 Si02
#       8
#     8   8   8   8   8   8   8   8
#     4  11  23  36  54  83 117 147 188 247 299 340
#     4  10  19  35  55  79 111 149 194 235 281 342
#     4  10  19  33  49  71 107 142 178 228 288 334
#     4  10  19  34  53  82 118 148 185 231 282 337
#     4  11  19  34  56  84 112 146 186 225 284 337
#     4   9  17  29  51  81 105 135 183 235 277 328
#     4  12  19  34  62  80 109 150 190 231 286 347
#     4  11  22  34  52  77 106 145 192 235 288 343
#
# _framework density 17.853777000000001
#
# number of rings (size 3 to 8) (size 9 to 14) (size 15 to 20)
#    0.000    1.500    5.000    3.000    1.750    1.000 
#    0.000    1.250    0.000    1.875    0.000    0.000 
#    0.000    0.000    0.000    0.000    0.000    0.000 
#
# Total GULP energy -356272.987051 kJ/mol
# GULP energy per Si atom -5566.765423 kJ/mol
# Density = 1.781314 g / cm^3
# Si number density = 17.853777 Si / 1000 Ang^3
#
#
#
# Elastic Constant Matrix: (Units=GPa)
#
#
# Indices 1 2 3 4 5 6 
#
# 1 52.5866 37.9132 27.7296 0.0000 0.0000 0.0000
# 2 37.9132 52.5870 27.7294 0.0000 0.0000 0.0000
# 3 27.7296 27.7294 60.2169 0.0000 0.0000 0.0000
# 4 0.0000 0.0000 0.0000 6.9047 0.0000 0.0000
# 5 0.0000 0.0000 0.0000 0.0000 6.9026 0.0000
# 6 0.0000 0.0000 0.0000 0.0000 0.0000 27.2599
#
#
#
# Elastic Compliance Matrix: (Units=1/GPa)
#
#
# Indices 1 2 3 4 5 6 
#
# 1 0.041772 -0.026378 -0.007089 0.000000 0.000000 0.000000
# 2 -0.026378 0.041771 -0.007088 0.000000 0.000000 0.000000
# 3 -0.007089 -0.007088 0.023135 0.000000 0.000000 0.000000
# 4 0.000000 0.000000 0.000000 0.144829 0.000000 0.000000
# 5 0.000000 0.000000 0.000000 0.000000 0.144873 0.000000
# 6 0.000000 0.000000 0.000000 0.000000 0.000000 0.036684
#
#
# Mechanical properties :
#
#
# Convention : Reuss Voigt Hill
#
# Bulk Modulus (GPa) = 39.11163 39.12612 39.11887
# Shear Modulus (GPa) = 9.56578 13.01467 11.29022
#
# Velocity S-wave (km/s) = 2.31721 2.70285 2.51743
# Velocity P-wave (km/s) = 5.39569 5.63053 5.51436
#
# Compressibility (1/GPa) = 0.02556784
#
# Stress axis : x y z
#
# Youngs Moduli (GPa) = 23.93958 23.93991 43.22407
#
# Poissons Ratio (x) = 0.63148 0.30641
# Poissons Ratio (y) = 0.63147 0.30639
# Poissons Ratio (z) = 0.16971 0.16970
#
# Static dielectric constant tensor:
#      x y z
#    x 1.645740 0.000000 0.000000 
#    y 0.000000 1.645740 0.000000 
#    z 0.000000 0.000000 1.653050 
# 
# From -- ./inp_files/2593.got.cif
#   From: 2010.05.17/outbox.cif.g08.bks.cpg/sg113_cif.got.tgz:2593.got - 2010.05.20 11:03:00.
