data_PCOD9555992
_publ_section_title
;
Structure prediction by ZEFSAII (Michael W. Deem and Ramdas Pophale) SiO2 
 PCOD9555992
Probable space group: P -4 21 C
;
_chemical_formula_sum "Si O2"
_cell_formula_units_Z 44
_cell_length_a 8.192513
_cell_length_b 8.192513
_cell_length_c 28.836228
_cell_angle_alpha 90.000000
_cell_angle_beta 90.000000
_cell_angle_gamma 90.000000
_cell_volume 1935.408879
_symmetry_space_group_name_H-M "P -4 21 C"
_symmetry_group_IT_number 114
_symmetry_cell_setting 'tetragonal'
loop_
_space_group_symop_operation_xyz
x,y,z
y,-x,-z
-x,-y,z
-y,x,-z
1/2+x,1/2-y,1/2-z
1/2-x,1/2+y,1/2-z
1/2-y,1/2-x,1/2+z
1/2+y,1/2+x,1/2+z
loop_
_atom_site_type_symbol
_atom_site_label
_atom_site_fract_x
_atom_site_fract_y
_atom_site_fract_z
Si Si1 0.539972 0.673422 0.828867
Si Si2 0.598027 0.148955 0.680412
Si Si3 0.000000 0.500000 0.230480
Si Si4 0.929971 0.238676 0.073144
Si Si5 0.258374 0.425775 0.073320
Si Si6 0.500000 0.500000 0.343270
Si Si7 0.000000 0.000000 0.000000
Si Si8 0.500000 0.500000 0.000000
O O1 0.500000 0.500000 0.804720
O O2 0.728472 0.662954 0.843230
O O3 0.536132 0.842552 0.800464
O O4 0.419377 0.686269 0.872988
O O5 0.502133 0.323192 0.682859
O O6 0.500000 0.000000 0.657126
O O7 0.628477 0.074531 0.732281
O O8 0.805507 0.387511 0.070464
O O9 0.106067 0.313977 0.062205
O O10 0.968261 0.152237 0.122337
O O11 0.888987 0.103034 0.035141
O O12 0.395621 0.393353 0.035621
#
# Coordination Sequence:
#
# PCOD9555992 Si02
#       8
#     8   8   4   8   8   4   2   2
#     4  12  26  46  71 100 139 188 232 292 363 421
#     4  10  27  43  68 105 137 185 241 292 347 418
#     4  10  28  42  72 104 140 182 240 286 358 416
#     4  10  22  40  67  94 131 180 224 283 346 428
#     4  11  23  42  65  98 134 174 232 278 352 417
#     4  11  22  43  71  92 144 182 237 291 358 411
#     4  10  20  40  64 100 126 176 224 280 356 410
#     4  12  24  40  66 100 134 176 218 296 340 416
#
# _framework density 22.734216
#
# number of rings (size 3 to 8) (size 9 to 14) (size 15 to 20)
#    0.545    0.727    2.727    2.182    6.364    0.000 
#    0.000    0.000    0.000    0.000    0.000    0.000 
#    0.000    0.000    0.000    0.000    0.000    0.000 
#
# Total GULP energy -245055.940621 kJ/mol
# GULP energy per Si atom -5569.453196 kJ/mol
# Density = 2.268247 g / cm^3
# Si number density = 22.734216 Si / 1000 Ang^3
#
#
#
# Elastic Constant Matrix: (Units=GPa)
#
#
# Indices 1 2 3 4 5 6 
#
# 1 92.4537 7.4849 14.3615 0.0000 0.0000 0.0000
# 2 7.4849 92.4537 14.3615 0.0000 0.0000 0.0000
# 3 14.3615 14.3615 81.1720 0.0000 0.0000 0.0000
# 4 0.0000 0.0000 0.0000 8.6144 0.0000 0.0000
# 5 0.0000 0.0000 0.0000 0.0000 8.6144 0.0000
# 6 0.0000 0.0000 0.0000 0.0000 0.0000 16.8746
#
#
#
# Elastic Compliance Matrix: (Units=1/GPa)
#
#
# Indices 1 2 3 4 5 6 
#
# 1 0.011156 -0.000613 -0.001865 0.000000 0.000000 0.000000
# 2 -0.000613 0.011156 -0.001865 0.000000 0.000000 0.000000
# 3 -0.001865 -0.001865 0.012980 0.000000 0.000000 0.000000
# 4 0.000000 0.000000 0.000000 0.116084 0.000000 0.000000
# 5 0.000000 0.000000 0.000000 0.000000 0.116084 0.000000
# 6 0.000000 0.000000 0.000000 0.000000 0.000000 0.059261
#
#
# Mechanical properties :
#
#
# Convention : Reuss Voigt Hill
#
# Bulk Modulus (GPa) = 37.58951 37.61056 37.60004
# Shear Modulus (GPa) = 14.52326 22.14546 18.33436
#
# Velocity S-wave (km/s) = 2.53025 3.12445 2.84291
# Velocity P-wave (km/s) = 5.01063 5.44020 5.22983
#
# Compressibility (1/GPa) = 0.02660317
#
# Stress axis : x y z
#
# Youngs Moduli (GPa) = 89.64091 89.64091 77.04437
#
# Poissons Ratio (x) = 0.05499 0.14370
# Poissons Ratio (y) = 0.05499 0.14370
# Poissons Ratio (z) = 0.16720 0.16720
#
# Static dielectric constant tensor:
#      x y z
#    x 1.948420 0.000000 0.000000 
#    y 0.000000 1.948420 0.000000 
#    z 0.000000 0.000000 1.913230 
# 
# From -- ./inp_files/3899.got.cif
#   From: 2010.05.17/outbox.cif.g08.bks.cpg/sg114_2_cif.got.tgz:3899.got - 2010.05.20 11:04:54.
