data_PCOD9555597
_publ_section_title
;
Structure prediction by ZEFSAII (Michael W. Deem and Ramdas Pophale) SiO2 
 PCOD9555597
Probable space group: P -4 21 M 
;
_chemical_formula_sum "Si O2"
_cell_formula_units_Z 40
_cell_length_a 16.129467
_cell_length_b 16.129467
_cell_length_c 8.806908
_cell_angle_alpha 90.000000
_cell_angle_beta 90.000000
_cell_angle_gamma 90.000000
_cell_volume 2291.202593
_symmetry_space_group_name_H-M "P -4 21 M "
_symmetry_group_IT_number 113
_symmetry_cell_setting 'tetragonal'
loop_
_space_group_symop_operation_xyz
x,y,z
y,-x,-z
-x,-y,z
-y,x,-z
1/2+x,1/2-y,-z
1/2-x,1/2+y,-z
1/2-y,1/2-x,z
1/2+y,1/2+x,z
loop_
_atom_site_type_symbol
_atom_site_label
_atom_site_fract_x
_atom_site_fract_y
_atom_site_fract_z
Si Si1 0.071200 0.571200 0.575633
Si Si2 0.379774 0.458657 0.432680
Si Si3 0.379774 0.458658 0.067321
Si Si4 0.190249 0.444598 0.067375
Si Si5 0.809751 0.555404 0.432631
Si Si6 0.428800 0.071201 0.075630
O O1 0.149435 0.528678 0.496069
O O2 0.089964 0.589964 0.750002
O O3 0.000000 0.500000 0.570254
O O4 0.401075 0.551401 0.488920
O O5 0.388546 0.454219 0.250000
O O6 0.285978 0.436076 0.475870
O O7 0.285977 0.436078 0.024134
O O8 0.401076 0.551402 0.011081
O O9 0.132317 0.367684 0.016967
O O10 0.186277 0.447981 0.250003
O O11 0.149435 0.528679 0.003937
O O12 0.867683 0.632318 0.483041
O O13 0.500000 0.000000 0.070252
#
# Coordination Sequence:
#
# PCOD9555597 Si02
#       6
#     4   8   8   8   8   4
#     4   9  17  29  49  77 105 133 165 206 255 300
#     4  10  20  35  55  75 102 137 176 214 257 308
#     4  10  20  35  55  75 102 137 176 214 257 308
#     4   9  18  34  54  75 103 138 173 209 254 310
#     4   9  18  34  54  75 103 138 173 209 254 310
#     4   9  17  29  49  77 105 133 165 206 255 300
#
# _framework density 17.458079999999999
#
# number of rings (size 3 to 8) (size 9 to 14) (size 15 to 20)
#    0.000    2.600    0.000    3.000    0.000    5.600 
#    3.600    0.000    0.000    0.000    0.000    0.000 
#    0.000    0.000    0.000    0.000    0.000    0.000 
#
# Total GULP energy -222993.241688 kJ/mol
# GULP energy per Si atom -5574.831042 kJ/mol
# Density = 1.741834 g / cm^3
# Si number density = 17.458080 Si / 1000 Ang^3
#
#
#
# Elastic Constant Matrix: (Units=GPa)
#
#
# Indices 1 2 3 4 5 6 
#
# 1 98.2030 43.7640 20.0784 0.0000 0.0000 0.0000
# 2 43.7640 98.2042 20.0786 0.0000 0.0000 0.0000
# 3 20.0784 20.0786 25.7776 0.0000 0.0000 0.0000
# 4 0.0000 0.0000 0.0000 22.7047 0.0000 0.0000
# 5 0.0000 0.0000 0.0000 0.0000 22.7046 0.0000
# 6 0.0000 0.0000 0.0000 0.0000 0.0000 7.6493
#
#
#
# Elastic Compliance Matrix: (Units=1/GPa)
#
#
# Indices 1 2 3 4 5 6 
#
# 1 0.013702 -0.004667 -0.007037 0.000000 0.000000 0.000000
# 2 -0.004667 0.013702 -0.007037 0.000000 0.000000 0.000000
# 3 -0.007037 -0.007037 0.049756 0.000000 0.000000 0.000000
# 4 0.000000 0.000000 0.000000 0.044044 0.000000 0.000000
# 5 0.000000 0.000000 0.000000 0.000000 0.044044 0.000000
# 6 0.000000 0.000000 0.000000 0.000000 0.000000 0.130732
#
#
# Mechanical properties :
#
#
# Convention : Reuss Voigt Hill
#
# Bulk Modulus (GPa) = 25.20379 43.33630 34.27004
# Shear Modulus (GPa) = 14.42225 19.82929 17.12577
#
# Velocity S-wave (km/s) = 2.87733 3.37385 3.13543
# Velocity P-wave (km/s) = 5.05042 6.32883 5.72542
#
# Compressibility (1/GPa) = 0.03967658
#
# Stress axis : x y z
#
# Youngs Moduli (GPa) = 72.98350 72.98431 20.09817
#
# Poissons Ratio (x) = 0.34064 0.14143
# Poissons Ratio (y) = 0.34064 0.14143
# Poissons Ratio (z) = 0.51358 0.51359
#
# Static dielectric constant tensor:
#      x y z
#    x 1.587560 0.000000 0.000000 
#    y 0.000000 1.587560 0.000000 
#    z 0.000000 0.000000 1.587810 
# 
# From -- ./inp_files/1077.got.cif
#   From: 2010.05.17/outbox.cif.g08.bks.cpg/sg113_cif.got.tgz:1077.got - 2010.05.20 11:03:00.
