data_PCOD9555631
_publ_section_title
;
Structure prediction by ZEFSAII (Michael W. Deem and Ramdas Pophale) SiO2 
 PCOD9555631
Probable space group: P -4 21 M 
;
_chemical_formula_sum "Si O2"
_cell_formula_units_Z 56
_cell_length_a 11.313481
_cell_length_b 11.313481
_cell_length_c 21.767936
_cell_angle_alpha 90.000000
_cell_angle_beta 90.000000
_cell_angle_gamma 90.000000
_cell_volume 2786.183754
_symmetry_space_group_name_H-M "P -4 21 M "
_symmetry_group_IT_number 113
_symmetry_cell_setting 'tetragonal'
loop_
_space_group_symop_operation_xyz
x,y,z
y,-x,-z
-x,-y,z
-y,x,-z
1/2+x,1/2-y,-z
1/2-x,1/2+y,-z
1/2-y,1/2-x,z
1/2+y,1/2+x,z
loop_
_atom_site_type_symbol
_atom_site_label
_atom_site_fract_x
_atom_site_fract_y
_atom_site_fract_z
Si Si1 0.649288 0.649288 0.708615
Si Si2 0.899152 0.899152 0.850225
Si Si3 0.000001 0.802737 0.500000
Si Si4 0.490468 0.808188 0.632725
Si Si5 0.945386 0.257172 0.932793
Si Si6 0.945387 0.742829 0.067206
Si Si7 0.308189 0.009533 0.367275
O O1 0.750001 0.750000 0.702726
O O2 0.628186 0.628187 0.780001
O O3 0.534623 0.699549 0.673725
O O4 0.699550 0.534623 0.673726
O O5 0.953958 0.787854 0.886501
O O6 0.787855 0.953956 0.886502
O O7 0.000000 0.000000 0.851606
O O8 0.983256 0.728789 0.438308
O O9 0.886882 0.886881 0.508976
O O10 0.016747 0.728790 0.561693
O O11 0.591175 0.908826 0.637349
O O12 0.368298 0.868298 0.652487
O O13 0.873094 0.373094 0.912872
O O14 0.848955 0.151045 0.937875
O O15 0.999999 0.275818 1.000000
O O16 0.873096 0.626905 0.087127
O O17 0.408829 0.908829 0.362651
O O18 0.368297 0.131704 0.347511
#
# Coordination Sequence:
#
# PCOD9555631 Si02
#       7
#     8   8   8   8   8   8   8
#     4  10  22  40  58  82 120 160 203 250 301 366
#     4  10  22  38  60  86 124 162 199 250 303 362
#     4  11  22  35  56  88 120 151 196 253 312 368
#     4  10  21  38  60  84 114 157 205 253 309 367
#     4  10  20  36  61  90 120 158 203 252 308 362
#     4  10  20  36  61  90 120 158 203 252 308 362
#     4  10  21  38  60  84 114 157 205 253 309 367
#
# _framework density 20.099177999999998
#
# number of rings (size 3 to 8) (size 9 to 14) (size 15 to 20)
#    0.000    1.857    2.857    0.857    0.000    6.571 
#    0.000    0.000    0.000    0.000    0.000    0.000 
#    0.000    0.000    0.000    0.000    0.000    0.000 
#
# Total GULP energy -312901.765699 kJ/mol
# GULP energy per Si atom -5587.531530 kJ/mol
# Density = 2.005343 g / cm^3
# Si number density = 20.099178 Si / 1000 Ang^3
#
#
#
# Elastic Constant Matrix: (Units=GPa)
#
#
# Indices 1 2 3 4 5 6 
#
# 1 85.6504 59.4968 54.2441 0.0000 0.0000 0.0000
# 2 59.4968 85.6500 54.2438 0.0000 0.0000 0.0000
# 3 54.2441 54.2438 145.7337 0.0000 0.0000 0.0000
# 4 0.0000 0.0000 0.0000 -173.9615 0.0000 0.0000
# 5 0.0000 0.0000 0.0000 0.0000 -173.9512 0.0000
# 6 0.0000 0.0000 0.0000 0.0000 0.0000 7.3609
#
#
#
# Elastic Compliance Matrix: (Units=1/GPa)
#
#
# Indices 1 2 3 4 5 6 
#
# 1 0.023890 -0.014345 -0.003553 0.000000 0.000000 0.000000
# 2 -0.014345 0.023891 -0.003553 0.000000 0.000000 0.000000
# 3 -0.003553 -0.003553 0.009507 0.000000 0.000000 0.000000
# 4 0.000000 0.000000 0.000000 -0.005748 0.000000 0.000000
# 5 0.000000 0.000000 0.000000 0.000000 -0.005749 0.000000
# 6 0.000000 0.000000 0.000000 0.000000 0.000000 0.135852
#
#
# Mechanical properties :
#
#
# Convention : Reuss Voigt Hill
#
# Bulk Modulus (GPa) = 69.51416 72.55593 71.03505
# Shear Modulus (GPa) = 21.80172 -58.17371 -18.18599
#
# Velocity S-wave (km/s) = 3.29706 -5.38574 -3.01127
# Velocity P-wave (km/s) = 7.01105 1.58037 4.82997
#
# Compressibility (1/GPa) = 0.01438556
#
# Stress axis : x y z
#
# Youngs Moduli (GPa) = 41.85775 41.85762 105.18989
#
# Poissons Ratio (x) = 0.60047 0.37372
# Poissons Ratio (y) = 0.60047 0.37371
# Poissons Ratio (z) = 0.14871 0.14871
#
# Static dielectric constant tensor:
#      x y z
#    x 1.738300 0.000000 0.000000 
#    y 0.000000 1.738300 0.000000 
#    z 0.000000 0.000000 1.647200 
# 
# From -- ./inp_files/2730.got.cif
#   From: 2010.05.17/outbox.cif.g08.bks.cpg/sg113_cif.got.tgz:2730.got - 2010.05.20 11:03:00.
