data_PCOD9555713
_publ_section_title
;
Structure prediction by ZEFSAII (Michael W. Deem and Ramdas Pophale) SiO2 
 PCOD9555713
Probable space group: P -4 21 M 
;
_chemical_formula_sum "Si O2"
_cell_formula_units_Z 32
_cell_length_a 13.231423
_cell_length_b 13.231423
_cell_length_c 9.915555
_cell_angle_alpha 90.000000
_cell_angle_beta 90.000000
_cell_angle_gamma 90.000000
_cell_volume 1735.921713
_symmetry_space_group_name_H-M "P -4 21 M "
_symmetry_group_IT_number 113
_symmetry_cell_setting 'tetragonal'
loop_
_space_group_symop_operation_xyz
x,y,z
y,-x,-z
-x,-y,z
-y,x,-z
1/2+x,1/2-y,-z
1/2-x,1/2+y,-z
1/2-y,1/2-x,z
1/2+y,1/2+x,z
loop_
_atom_site_type_symbol
_atom_site_label
_atom_site_fract_x
_atom_site_fract_y
_atom_site_fract_z
Si Si1 0.081928 0.745630 0.142432
Si Si2 0.883912 0.959309 0.326927
Si Si3 0.860474 0.805807 0.085022
Si Si4 0.166892 0.165362 0.594625
O O1 0.139796 0.639796 0.122901
O O2 0.091357 0.775976 0.299603
O O3 0.968359 0.750920 0.089922
O O4 0.146001 0.828062 0.057308
O O5 0.814368 0.058058 0.339222
O O6 0.868404 0.896596 0.191784
O O7 0.857895 0.888390 0.453702
O O8 0.000000 0.000000 0.333676
O O9 0.773077 0.726924 0.123596
O O10 0.237266 0.262735 0.578459
#
# Coordination Sequence:
#
# PCOD9555713 Si02
#       4
#     8   8   8   8
#     4  10  22  37  57  88 120 157 199 246 299 353
#     4  12  20  37  60  89 112 152 203 247 295 348
#     4  11  23  38  60  89 120 158 202 247 299 358
#     4  11  21  35  57  85 119 150 193 250 299 349
#
# _framework density 18.434011999999999
#
# number of rings (size 3 to 8) (size 9 to 14) (size 15 to 20)
#    0.000    1.000    5.000    2.250    0.000    0.500 
#    0.000    0.000    0.000    6.000    0.000    0.000 
#    0.000    0.000    0.000    0.000    0.000    0.000 
#
# Total GULP energy -178680.429202 kJ/mol
# GULP energy per Si atom -5583.763413 kJ/mol
# Density = 1.839206 g / cm^3
# Si number density = 18.434012 Si / 1000 Ang^3
#
#
#
# Elastic Constant Matrix: (Units=GPa)
#
#
# Indices 1 2 3 4 5 6 
#
# 1 83.9541 49.8920 20.3701 0.0000 0.0000 0.0000
# 2 49.8920 83.9500 20.3698 0.0000 0.0000 0.0000
# 3 20.3701 20.3698 78.7595 0.0000 0.0000 0.0000
# 4 0.0000 0.0000 0.0000 26.3243 0.0000 0.0000
# 5 0.0000 0.0000 0.0000 0.0000 26.3242 0.0000
# 6 0.0000 0.0000 0.0000 0.0000 0.0000 35.0133
#
#
#
# Elastic Compliance Matrix: (Units=1/GPa)
#
#
# Indices 1 2 3 4 5 6 
#
# 1 0.018734 -0.010625 -0.002097 0.000000 0.000000 0.000000
# 2 -0.010625 0.018735 -0.002098 0.000000 0.000000 0.000000
# 3 -0.002097 -0.002098 0.013782 0.000000 0.000000 0.000000
# 4 0.000000 0.000000 0.000000 0.037988 0.000000 0.000000
# 5 0.000000 0.000000 0.000000 0.000000 0.037988 0.000000
# 6 0.000000 0.000000 0.000000 0.000000 0.000000 0.028561
#
#
# Mechanical properties :
#
#
# Convention : Reuss Voigt Hill
#
# Bulk Modulus (GPa) = 46.27153 47.54748 46.90950
# Shear Modulus (GPa) = 25.95628 27.93448 26.94538
#
# Velocity S-wave (km/s) = 3.75649 3.89701 3.82739
# Velocity P-wave (km/s) = 6.63103 6.78957 6.71077
#
# Compressibility (1/GPa) = 0.02161156
#
# Stress axis : x y z
#
# Youngs Moduli (GPa) = 53.37767 53.37499 72.55919
#
# Poissons Ratio (x) = 0.56711 0.15219
# Poissons Ratio (y) = 0.56714 0.15220
# Poissons Ratio (z) = 0.11196 0.11196
#
# Static dielectric constant tensor:
#      x y z
#    x 1.633620 0.000000 0.000000 
#    y 0.000000 1.633620 0.000000 
#    z 0.000000 0.000000 1.654640 
# 
# From -- ./inp_files/842.got.cif
#   From: 2010.05.17/outbox.cif.g08.bks.cpg/sg113_cif.got.tgz:842.got - 2010.05.20 11:03:00.
