data_PCOD9555207
_publ_section_title
;
Structure prediction by ZEFSAII (Michael W. Deem and Ramdas Pophale) SiO2 
 PCOD9555207
Probable space group: P -4 2 C
;
_chemical_formula_sum "Si O2"
_cell_formula_units_Z 46
_cell_length_a 10.722230
_cell_length_b 10.722230
_cell_length_c 19.454683
_cell_angle_alpha 90.000000
_cell_angle_beta 90.000000
_cell_angle_gamma 90.000000
_cell_volume 2236.631291
_symmetry_space_group_name_H-M "P -4 2 C"
_symmetry_group_IT_number 112
_symmetry_cell_setting 'tetragonal'
loop_
_space_group_symop_operation_xyz
x,y,z
y,-x,-z
-x,-y,z
-y,x,-z
x,-y,1/2-z
-x,y,1/2-z
-y,-x,1/2+z
y,x,1/2+z
loop_
_atom_site_type_symbol
_atom_site_label
_atom_site_fract_x
_atom_site_fract_y
_atom_site_fract_z
Si Si1 0.254388 0.639275 0.278968
Si Si2 0.615730 0.259163 0.547975
Si Si3 0.500000 0.311011 0.250000
Si Si4 0.059884 0.793786 0.100664
Si Si5 0.769006 0.000000 0.750000
Si Si6 0.500000 0.500000 0.623538
Si Si7 0.647142 0.811396 0.561511
Si Si8 0.000000 0.000000 0.500000
O O1 0.280713 0.500000 0.250000
O O2 0.358333 0.736534 0.249578
O O3 0.119717 0.681597 0.255160
O O4 0.239839 0.635937 0.360944
O O5 0.702160 0.179337 0.599773
O O6 0.555778 0.388348 0.576789
O O7 0.706330 0.285668 0.484166
O O8 0.492984 0.177769 0.532184
O O9 0.516056 0.388706 0.320818
O O10 0.019452 0.836331 0.177048
O O11 0.942407 0.717191 0.069172
O O12 0.077818 0.909994 0.050055
#
# Coordination Sequence:
#
# PCOD9555207 Si02
#       8
#     8   8   4   8   4   4   8   2
#     4  11  19  35  53  85 129 168 210 262 321 392
#     4  12  22  39  60  93 134 172 209 268 327 409
#     4  11  18  32  52  82 130 173 205 248 314 396
#     4  11  24  44  68  91 124 169 226 280 334 385
#     4  10  23  37  64  94 116 160 225 277 328 396
#     4  11  20  33  54  90 130 174 200 246 329 395
#     4  11  23  36  60  94 126 173 217 263 329 405
#     4  12  24  50  68  88 124 170 224 284 340 390
#
# _framework density 20.566645999999999
#
# number of rings (size 3 to 8) (size 9 to 14) (size 15 to 20)
#    0.000    0.870    5.217    3.913    0.000    3.130 
#    3.130    0.000    0.000    0.000    0.000    0.000 
#    0.000    2.783    0.000    0.000    0.000    0.000 
#
# Total GULP energy -256161.214901 kJ/mol
# GULP energy per Si atom -5568.722063 kJ/mol
# Density = 2.051983 g / cm^3
# Si number density = 20.566646 Si / 1000 Ang^3
#
#
#
# Elastic Constant Matrix: (Units=GPa)
#
#
# Indices 1 2 3 4 5 6 
#
# 1 79.1584 13.2885 33.8287 0.0000 0.0000 0.0000
# 2 13.2885 79.1584 33.8287 0.0000 0.0000 0.0000
# 3 33.8287 33.8287 128.2071 0.0000 0.0000 0.0000
# 4 0.0000 0.0000 0.0000 20.0167 0.0000 0.0000
# 5 0.0000 0.0000 0.0000 0.0000 20.0167 0.0000
# 6 0.0000 0.0000 0.0000 0.0000 0.0000 27.0981
#
#
#
# Elastic Compliance Matrix: (Units=1/GPa)
#
#
# Indices 1 2 3 4 5 6 
#
# 1 0.014294 -0.000888 -0.003537 0.000000 0.000000 0.000000
# 2 -0.000888 0.014294 -0.003537 0.000000 0.000000 0.000000
# 3 -0.003537 -0.003537 0.009667 0.000000 0.000000 0.000000
# 4 0.000000 0.000000 0.000000 0.049958 0.000000 0.000000
# 5 0.000000 0.000000 0.000000 0.000000 0.049958 0.000000
# 6 0.000000 0.000000 0.000000 0.000000 0.000000 0.036903
#
#
# Mechanical properties :
#
#
# Convention : Reuss Voigt Hill
#
# Bulk Modulus (GPa) = 44.78461 49.82396 47.30429
# Shear Modulus (GPa) = 25.19640 27.13149 26.16395
#
# Velocity S-wave (km/s) = 3.50395 3.63602 3.57060
# Velocity P-wave (km/s) = 6.18004 6.47346 6.32845
#
# Compressibility (1/GPa) = 0.02232910
#
# Stress axis : x y z
#
# Youngs Moduli (GPa) = 69.96142 69.96142 103.44962
#
# Poissons Ratio (x) = 0.06212 0.36593
# Poissons Ratio (y) = 0.06212 0.36593
# Poissons Ratio (z) = 0.24747 0.24747
#
# Static dielectric constant tensor:
#      x y z
#    x 1.835230 0.000000 0.000000 
#    y 0.000000 1.835230 0.000000 
#    z 0.000000 0.000000 1.784030 
# 
# From -- ./inp_files/4195.got.cif
#   From: 2010.05.17/outbox.cif.g08.bks.cpg/sg112_3_cif.got.tgz:4195.got - 2010.05.20 10:59:04.
