data_PCOD9555994
_publ_section_title
;
Structure prediction by ZEFSAII (Michael W. Deem and Ramdas Pophale) SiO2 
 PCOD9555994
Probable space group: P -4 21 C
;
_chemical_formula_sum "Si O2"
_cell_formula_units_Z 56
_cell_length_a 11.994146
_cell_length_b 11.994146
_cell_length_c 17.270583
_cell_angle_alpha 90.000000
_cell_angle_beta 90.000000
_cell_angle_gamma 90.000000
_cell_volume 2484.538096
_symmetry_space_group_name_H-M "P -4 21 C"
_symmetry_group_IT_number 114
_symmetry_cell_setting 'tetragonal'
loop_
_space_group_symop_operation_xyz
x,y,z
y,-x,-z
-x,-y,z
-y,x,-z
1/2+x,1/2-y,1/2-z
1/2-x,1/2+y,1/2-z
1/2-y,1/2-x,1/2+z
1/2+y,1/2+x,1/2+z
loop_
_atom_site_type_symbol
_atom_site_label
_atom_site_fract_x
_atom_site_fract_y
_atom_site_fract_z
Si Si1 0.921332 0.147983 0.249446
Si Si2 0.132610 0.070347 0.318560
Si Si3 0.827454 0.362418 0.283648
Si Si4 0.760381 0.066207 0.554475
Si Si5 0.649504 0.433815 0.483298
Si Si6 0.781076 0.582304 0.360274
Si Si7 0.801870 0.249345 0.442198
O O1 0.927573 0.279354 0.265318
O O2 0.821721 0.133830 0.188247
O O3 0.048505 0.106689 0.248069
O O4 0.875616 0.063350 0.316756
O O5 0.249253 0.119018 0.290542
O O6 0.090794 0.126580 0.397018
O O7 0.846904 0.487004 0.312961
O O8 0.771843 0.292760 0.355803
O O9 0.666648 0.131509 0.603327
O O10 0.768154 0.127574 0.471956
O O11 0.738277 0.935017 0.549628
O O12 0.530231 0.383993 0.454928
O O13 0.714226 0.511714 0.423846
O O14 0.734571 0.334148 0.498937
#
# Coordination Sequence:
#
# PCOD9555994 Si02
#       7
#     8   8   8   8   8   8   8
#     4  10  20  40  64  96 126 164 224 274 326 403
#     4  10  22  38  66  95 129 169 219 275 329 400
#     4  10  21  41  63  96 124 167 218 278 332 392
#     4  12  24  44  64  99 136 182 227 272 336 408
#     4  10  21  41  66  94 126 165 223 276 334 401
#     4  10  22  40  67  95 127 174 217 283 338 388
#     4  11  26  41  65  96 136 180 223 279 332 403
#
# _framework density 22.539403
#
# number of rings (size 3 to 8) (size 9 to 14) (size 15 to 20)
#    0.000    1.571    4.286    0.000    2.000    9.429 
#    0.000    0.000    0.000    0.000    7.429    0.000 
#    0.000    0.000    0.000    0.000    0.000    0.000 
#
# Total GULP energy -311908.158796 kJ/mol
# GULP energy per Si atom -5569.788550 kJ/mol
# Density = 2.248810 g / cm^3
# Si number density = 22.539403 Si / 1000 Ang^3
#
#
#
# Elastic Constant Matrix: (Units=GPa)
#
#
# Indices 1 2 3 4 5 6 
#
# 1 67.4452 -0.5101 -1.8452 0.0000 0.0000 0.0000
# 2 -0.5101 67.4452 -1.8452 0.0000 0.0000 0.0000
# 3 -1.8452 -1.8452 28.8603 0.0000 0.0000 0.0000
# 4 0.0000 0.0000 0.0000 26.0462 0.0000 0.0000
# 5 0.0000 0.0000 0.0000 0.0000 26.0462 0.0000
# 6 0.0000 0.0000 0.0000 0.0000 0.0000 39.6584
#
#
#
# Elastic Compliance Matrix: (Units=1/GPa)
#
#
# Indices 1 2 3 4 5 6 
#
# 1 0.014854 0.000139 0.000959 0.000000 0.000000 0.000000
# 2 0.000139 0.014854 0.000959 0.000000 0.000000 0.000000
# 3 0.000959 0.000959 0.034772 0.000000 0.000000 0.000000
# 4 0.000000 0.000000 0.000000 0.038393 0.000000 0.000000
# 5 0.000000 0.000000 0.000000 0.000000 0.038393 0.000000
# 6 0.000000 0.000000 0.000000 0.000000 0.000000 0.025215
#
#
# Mechanical properties :
#
#
# Convention : Reuss Voigt Hill
#
# Bulk Modulus (GPa) = 14.57895 17.26105 15.92000
# Shear Modulus (GPa) = 26.99276 29.54693 28.26984
#
# Velocity S-wave (km/s) = 3.46436 3.62456 3.54537
# Velocity P-wave (km/s) = 4.74180 5.01911 4.88242
#
# Compressibility (1/GPa) = 0.06859204
#
# Stress axis : x y z
#
# Youngs Moduli (GPa) = 67.32134 67.32134 28.75856
#
# Poissons Ratio (x) = -0.00933 -0.02757
# Poissons Ratio (y) = -0.00933 -0.02757
# Poissons Ratio (z) = -0.06453 -0.06453
#
# Static dielectric constant tensor:
#      x y z
#    x 1.868750 0.000000 0.000000 
#    y 0.000000 1.868750 0.000000 
#    z 0.000000 0.000000 1.934980 
# 
# From -- ./inp_files/3134.got.cif
#   From: 2010.05.17/outbox.cif.g08.bks.cpg/sg114_2_cif.got.tgz:3134.got - 2010.05.20 11:04:54.
