data_PCOD9555975
_publ_section_title
;
Structure prediction by ZEFSAII (Michael W. Deem and Ramdas Pophale) SiO2 
 PCOD9555975
Probable space group: P -4 21 C
;
_chemical_formula_sum "Si O2"
_cell_formula_units_Z 52
_cell_length_a 17.254261
_cell_length_b 17.254261
_cell_length_c 8.456721
_cell_angle_alpha 90.000000
_cell_angle_beta 90.000000
_cell_angle_gamma 90.000000
_cell_volume 2517.646372
_symmetry_space_group_name_H-M "P -4 21 C"
_symmetry_group_IT_number 114
_symmetry_cell_setting 'tetragonal'
loop_
_space_group_symop_operation_xyz
x,y,z
y,-x,-z
-x,-y,z
-y,x,-z
1/2+x,1/2-y,1/2-z
1/2-x,1/2+y,1/2-z
1/2-y,1/2-x,1/2+z
1/2+y,1/2+x,1/2+z
loop_
_atom_site_type_symbol
_atom_site_label
_atom_site_fract_x
_atom_site_fract_y
_atom_site_fract_z
Si Si1 0.964138 0.391746 0.426558
Si Si2 0.570152 0.280387 0.460006
Si Si3 0.850321 0.082584 0.610622
Si Si4 0.070153 0.780387 0.460005
Si Si5 0.535862 0.108254 0.426555
Si Si6 0.582584 0.649679 0.389378
Si Si7 0.500000 0.500000 0.500000
Si Si8 0.500000 0.500000 0.000000
O O1 0.922868 0.311266 0.464572
O O2 0.907978 0.464438 0.454289
O O3 0.035563 0.407977 0.545713
O O4 0.000000 0.389117 0.250001
O O5 0.581511 0.311735 0.281432
O O6 0.577132 0.188734 0.464571
O O7 0.631972 0.330267 0.557268
O O8 0.479031 0.301243 0.494839
O O9 0.868028 0.169733 0.557268
O O10 0.801243 0.020969 0.505162
O O11 0.935731 0.044546 0.601346
O O12 0.081511 0.811735 0.281431
O O13 0.544546 0.564269 0.398654
#
# Coordination Sequence:
#
# PCOD9555975 Si02
#       8
#     8   8   8   8   8   8   2   2
#     4  11  23  46  72  94 118 163 221 274 313 369
#     4  10  20  38  62  92 133 165 209 255 311 378
#     4   9  18  34  59  91 130 169 206 252 310 374
#     4  10  20  38  62  92 133 165 209 255 311 378
#     4  11  23  46  72  94 118 163 221 274 313 369
#     4   9  18  34  59  91 130 169 206 252 310 374
#     4   8  16  26  56  94 116 178 216 234 292 382
#     4   8  16  26  56  94 116 178 216 234 292 382
#
# _framework density 20.654211
#
# number of rings (size 3 to 8) (size 9 to 14) (size 15 to 20)
#    0.000    2.154    3.077    1.846    0.000   18.462 
#   11.077    1.538    0.000    0.000    0.000    0.000 
#    0.000    0.000    0.000    0.000    0.000    0.000 
#
# Total GULP energy -289917.458089 kJ/mol
# GULP energy per Si atom -5575.335732 kJ/mol
# Density = 2.060720 g / cm^3
# Si number density = 20.654211 Si / 1000 Ang^3
#
#
#
# Elastic Constant Matrix: (Units=GPa)
#
#
# Indices 1 2 3 4 5 6 
#
# 1 85.3635 -13.0903 19.9252 0.0000 0.0000 0.0000
# 2 -13.0903 85.3635 19.9252 0.0000 0.0000 0.0000
# 3 19.9252 19.9252 29.1211 0.0000 0.0000 0.0000
# 4 0.0000 0.0000 0.0000 -9.7802 0.0000 0.0000
# 5 0.0000 0.0000 0.0000 0.0000 -9.7802 0.0000
# 6 0.0000 0.0000 0.0000 0.0000 0.0000 9.1639
#
#
#
# Elastic Compliance Matrix: (Units=1/GPa)
#
#
# Indices 1 2 3 4 5 6 
#
# 1 0.016188 0.006031 -0.015203 0.000000 0.000000 0.000000
# 2 0.006031 0.016188 -0.015203 0.000000 0.000000 0.000000
# 3 -0.015203 -0.015203 0.055143 0.000000 0.000000 0.000000
# 4 0.000000 0.000000 0.000000 -0.102247 0.000000 0.000000
# 5 0.000000 0.000000 0.000000 0.000000 -0.102247 0.000000
# 6 0.000000 0.000000 0.000000 0.000000 0.000000 0.109124
#
#
# Mechanical properties :
#
#
# Convention : Reuss Voigt Hill
#
# Bulk Modulus (GPa) = 25.79276 28.15204 26.97240
# Shear Modulus (GPa) = 92.89979 9.45988 51.17983
#
# Velocity S-wave (km/s) = 6.71389 2.14244 4.98329
# Velocity P-wave (km/s) = 8.52154 4.44745 6.79693
#
# Compressibility (1/GPa) = 0.03877057
#
# Stress axis : x y z
#
# Youngs Moduli (GPa) = 61.77426 61.77426 18.13463
#
# Poissons Ratio (x) = -0.37256 0.27569
# Poissons Ratio (y) = -0.37256 0.27569
# Poissons Ratio (z) = 0.93913 0.93913
#
# Static dielectric constant tensor:
#      x y z
#    x 1.758130 0.000000 0.000000 
#    y 0.000000 1.758130 0.000000 
#    z 0.000000 0.000000 1.783060 
# 
# From -- ./inp_files/1008.got.cif
#   From: 2010.05.17/outbox.cif.g08.bks.cpg/sg114_1_cif.got.tgz:1008.got - 2010.05.20 11:04:54.
