data_PCOD9555987
_publ_section_title
;
Structure prediction by ZEFSAII (Michael W. Deem and Ramdas Pophale) SiO2 
 PCOD9555987
Probable space group: P -4 21 C
;
_chemical_formula_sum "Si O2"
_cell_formula_units_Z 40
_cell_length_a 8.882957
_cell_length_b 8.882957
_cell_length_c 25.234088
_cell_angle_alpha 90.000000
_cell_angle_beta 90.000000
_cell_angle_gamma 90.000000
_cell_volume 1991.144291
_symmetry_space_group_name_H-M "P -4 21 C"
_symmetry_group_IT_number 114
_symmetry_cell_setting 'tetragonal'
loop_
_space_group_symop_operation_xyz
x,y,z
y,-x,-z
-x,-y,z
-y,x,-z
1/2+x,1/2-y,1/2-z
1/2-x,1/2+y,1/2-z
1/2-y,1/2-x,1/2+z
1/2+y,1/2+x,1/2+z
loop_
_atom_site_type_symbol
_atom_site_label
_atom_site_fract_x
_atom_site_fract_y
_atom_site_fract_z
Si Si1 0.250143 0.286947 0.722551
Si Si2 0.500000 0.000000 0.325150
Si Si3 0.749433 0.790112 0.846299
Si Si4 0.500000 0.500000 0.675335
Si Si5 0.459045 0.175050 0.135209
Si Si6 0.930153 0.149993 0.460815
O O1 0.103717 0.387928 0.709557
O O2 0.248835 0.230136 0.782297
O O3 0.390275 0.397139 0.710671
O O4 0.268018 0.145927 0.682844
O O5 0.393257 0.107631 0.359133
O O6 0.748150 0.622651 0.867288
O O7 0.898575 0.885756 0.858454
O O8 0.382696 0.224484 0.080034
O O9 0.500000 0.000000 0.141442
O O10 0.808574 0.069503 0.499585
O O11 0.000000 0.000000 0.432505
#
# Coordination Sequence:
#
# PCOD9555987 Si02
#       6
#     8   4   8   4   8   8
#     4  11  23  36  55  84 128 169 214 243 297 363
#     4  10  24  34  52  74 120 172 202 248 300 322
#     4  11  23  36  55  84 128 169 214 243 297 363
#     4  10  20  40  44  74 133 154 191 270 280 358
#     4  12  22  37  69  93 120 170 209 252 325 374
#     4   6  18  40  65  83 122 138 211 271 307 352
#
# _framework density 20.088951999999999
#
# number of rings (size 3 to 8) (size 9 to 14) (size 15 to 20)
#    1.200    0.800    2.000    3.600    5.600    0.000 
#    0.000    0.000   13.200    0.000    0.000    0.000 
#    0.000    0.000    0.000    0.000    0.000    0.000 
#
# Total GULP energy -222838.443811 kJ/mol
# GULP energy per Si atom -5570.961095 kJ/mol
# Density = 2.004323 g / cm^3
# Si number density = 20.088952 Si / 1000 Ang^3
#
#
#
# Elastic Constant Matrix: (Units=GPa)
#
#
# Indices 1 2 3 4 5 6 
#
# 1 91.1320 29.3803 -0.6719 0.0000 0.0000 0.0000
# 2 29.3803 91.1320 -0.6719 0.0000 0.0000 0.0000
# 3 -0.6719 -0.6719 41.0197 0.0000 0.0000 0.0000
# 4 0.0000 0.0000 0.0000 7.5995 0.0000 0.0000
# 5 0.0000 0.0000 0.0000 0.0000 7.5995 0.0000
# 6 0.0000 0.0000 0.0000 0.0000 0.0000 32.4262
#
#
#
# Elastic Compliance Matrix: (Units=1/GPa)
#
#
# Indices 1 2 3 4 5 6 
#
# 1 0.012247 -0.003947 0.000136 0.000000 0.000000 0.000000
# 2 -0.003947 0.012247 0.000136 0.000000 0.000000 0.000000
# 3 0.000136 0.000136 0.024383 0.000000 0.000000 0.000000
# 4 0.000000 0.000000 0.000000 0.131588 0.000000 0.000000
# 5 0.000000 0.000000 0.000000 0.000000 0.131588 0.000000
# 6 0.000000 0.000000 0.000000 0.000000 0.000000 0.030839
#
#
# Mechanical properties :
#
#
# Convention : Reuss Voigt Hill
#
# Bulk Modulus (GPa) = 24.08155 31.03965 27.56060
# Shear Modulus (GPa) = 13.73311 22.54151 18.13731
#
# Velocity S-wave (km/s) = 2.61744 3.35339 3.00801
# Velocity P-wave (km/s) = 4.59871 5.52071 5.08067
#
# Compressibility (1/GPa) = 0.04152557
#
# Stress axis : x y z
#
# Youngs Moduli (GPa) = 81.65488 81.65488 41.01221
#
# Poissons Ratio (x) = 0.32231 -0.00557
# Poissons Ratio (y) = 0.32231 -0.00557
# Poissons Ratio (z) = -0.01110 -0.01110
#
# Static dielectric constant tensor:
#      x y z
#    x 1.763100 0.000000 0.000000 
#    y 0.000000 1.763100 0.000000 
#    z 0.000000 0.000000 1.683020 
# 
# From -- ./inp_files/3688.got.cif
#   From: 2010.05.17/outbox.cif.g08.bks.cpg/sg114_2_cif.got.tgz:3688.got - 2010.05.20 11:04:54.
