data_PCOD9555214
_publ_section_title
;
Structure prediction by ZEFSAII (Michael W. Deem and Ramdas Pophale) SiO2 
 PCOD9555214
Probable space group: P -4 2 C
;
_chemical_formula_sum "Si O2"
_cell_formula_units_Z 58
_cell_length_a 17.566400
_cell_length_b 17.566400
_cell_length_c 8.712166
_cell_angle_alpha 90.000000
_cell_angle_beta 90.000000
_cell_angle_gamma 90.000000
_cell_volume 2688.386323
_symmetry_space_group_name_H-M "P -4 2 C"
_symmetry_group_IT_number 112
_symmetry_cell_setting 'tetragonal'
loop_
_space_group_symop_operation_xyz
x,y,z
y,-x,-z
-x,-y,z
-y,x,-z
x,-y,1/2-z
-x,y,1/2-z
-y,-x,1/2+z
y,x,1/2+z
loop_
_atom_site_type_symbol
_atom_site_label
_atom_site_fract_x
_atom_site_fract_y
_atom_site_fract_z
Si Si1 0.029563 0.832824 0.593255
Si Si2 0.608166 0.472875 0.928745
Si Si3 0.231413 0.298446 0.647536
Si Si4 0.065215 0.291551 0.148996
Si Si5 0.793750 0.613837 0.122287
Si Si6 0.228858 0.557015 0.029759
Si Si7 0.000000 0.000000 0.500000
Si Si8 0.205353 0.821807 0.623004
O O1 0.024209 0.771190 0.457726
O O2 0.119234 0.845206 0.608272
O O3 0.000000 0.797354 0.750000
O O4 0.992272 0.916539 0.577279
O O5 0.615546 0.500000 0.750000
O O6 0.540565 0.413935 0.954646
O O7 0.681565 0.436890 0.003172
O O8 0.320178 0.272137 0.615922
O O9 0.205802 0.383962 0.605600
O O10 0.179125 0.246414 0.538558
O O11 0.214673 0.264446 0.813984
O O12 0.124945 0.349864 0.075426
O O13 0.122226 0.245584 0.259605
O O14 0.000000 0.330483 0.250000
O O15 0.784340 0.534155 0.031252
O O16 0.795601 0.590191 0.304477
#
# Coordination Sequence:
#
# PCOD9555214 Si02
#       8
#     8   8   8   8   8   8   2   8
#     4  12  25  41  66 102 142 177 216 274 331 419
#     4  11  25  40  60  91 133 180 219 275 358 429
#     4  11  21  41  68  94 134 176 226 279 343 402
#     4  11  23  43  68  94 132 179 228 271 339 404
#     4  10  23  41  64 100 130 173 227 290 334 411
#     4  11  23  39  68  94 131 167 234 289 340 389
#     4  12  26  44  64 110 146 176 216 266 342 420
#     4  11  22  42  66  99 134 178 222 270 333 418
#
# _framework density 21.574280000000002
#
# number of rings (size 3 to 8) (size 9 to 14) (size 15 to 20)
#    0.000    0.966    5.517    3.517    7.724    1.103 
#    0.000    1.379    0.000    0.000    0.000    0.000 
#    0.000    0.000    0.000    0.000    0.000    0.000 
#
# Total GULP energy -323289.101191 kJ/mol
# GULP energy per Si atom -5573.950021 kJ/mol
# Density = 2.152518 g / cm^3
# Si number density = 21.574280 Si / 1000 Ang^3
#
#
#
# Elastic Constant Matrix: (Units=GPa)
#
#
# Indices 1 2 3 4 5 6 
#
# 1 55.9326 38.4523 13.6973 0.0000 0.0000 0.0000
# 2 38.4523 55.9326 13.6973 0.0000 0.0000 0.0000
# 3 13.6973 13.6973 51.9960 0.0000 0.0000 0.0000
# 4 0.0000 0.0000 0.0000 24.8576 0.0000 0.0000
# 5 0.0000 0.0000 0.0000 0.0000 24.8576 0.0000
# 6 0.0000 0.0000 0.0000 0.0000 0.0000 16.1688
#
#
#
# Elastic Compliance Matrix: (Units=1/GPa)
#
#
# Indices 1 2 3 4 5 6 
#
# 1 0.034340 -0.022867 -0.003022 0.000000 0.000000 0.000000
# 2 -0.022867 0.034340 -0.003022 0.000000 0.000000 0.000000
# 3 -0.003022 -0.003022 0.020824 0.000000 0.000000 0.000000
# 4 0.000000 0.000000 0.000000 0.040229 0.000000 0.000000
# 5 0.000000 0.000000 0.000000 0.000000 0.040229 0.000000
# 6 0.000000 0.000000 0.000000 0.000000 0.000000 0.061847
#
#
# Mechanical properties :
#
#
# Convention : Reuss Voigt Hill
#
# Bulk Modulus (GPa) = 31.56541 32.83945 32.20243
# Shear Modulus (GPa) = 16.65596 19.71108 18.18352
#
# Velocity S-wave (km/s) = 2.78155 3.02592 2.90631
# Velocity P-wave (km/s) = 4.99789 5.24051 5.12063
#
# Compressibility (1/GPa) = 0.03168024
#
# Stress axis : x y z
#
# Youngs Moduli (GPa) = 29.12094 29.12094 48.02042
#
# Poissons Ratio (x) = 0.66592 0.14512
# Poissons Ratio (y) = 0.66592 0.14512
# Poissons Ratio (z) = 0.08801 0.08801
#
# Static dielectric constant tensor:
#      x y z
#    x 1.864560 0.000000 0.000000 
#    y 0.000000 1.864560 0.000000 
#    z 0.000000 0.000000 1.843360 
# 
# From -- ./inp_files/1540.got.cif
#   From: 2010.05.17/outbox.cif.g08.bks.cpg/sg112_1_cif.got.tgz:1540.got - 2010.05.20 10:59:04.
