data_PCOD9555824
_publ_section_title
;
Structure prediction by ZEFSAII (Michael W. Deem and Ramdas Pophale) SiO2 
 PCOD9555824
Probable space group: P -4 21 C
;
_chemical_formula_sum "Si O2"
_cell_formula_units_Z 26
_cell_length_a 8.559820
_cell_length_b 8.559820
_cell_length_c 13.117175
_cell_angle_alpha 90.000000
_cell_angle_beta 90.000000
_cell_angle_gamma 90.000000
_cell_volume 961.102213
_symmetry_space_group_name_H-M "P -4 21 C"
_symmetry_group_IT_number 114
_symmetry_cell_setting 'tetragonal'
loop_
_space_group_symop_operation_xyz
x,y,z
y,-x,-z
-x,-y,z
-y,x,-z
1/2+x,1/2-y,1/2-z
1/2-x,1/2+y,1/2-z
1/2-y,1/2-x,1/2+z
1/2+y,1/2+x,1/2+z
loop_
_atom_site_type_symbol
_atom_site_label
_atom_site_fract_x
_atom_site_fract_y
_atom_site_fract_z
Si Si1 0.668321 0.932507 0.055183
Si Si2 0.500000 0.500000 0.000000
Si Si3 0.392891 0.677484 0.830282
Si Si4 0.500000 0.500000 0.651868
Si Si5 0.500000 0.000000 0.854361
O O1 0.675881 0.760118 0.101591
O O2 0.500000 0.000000 0.092094
O O3 0.641979 0.961228 0.934184
O O4 0.839419 0.991680 0.089137
O O5 0.521452 0.635525 0.917653
O O6 0.374304 0.554123 0.739508
O O7 0.447991 0.846537 0.794083
#
# Coordination Sequence:
#
# PCOD9555824 Si02
#       5
#     8   2   8   4   4
#     4  10  25  47  67 107 154 196 260 319 389 467
#     4  10  16  44  68 104 118 196 234 302 364 448
#     4  11  23  43  74 102 148 194 257 315 381 468
#     4  11  28  41  75 108 151 198 254 315 408 453
#     4  10  24  42  74 104 148 206 262 314 386 456
#
# _framework density 27.052274000000001
#
# number of rings (size 3 to 8) (size 9 to 14) (size 15 to 20)
#    0.923    0.615    3.077    0.000    6.462    2.462 
#    5.538    0.000    0.000    0.000    0.000    0.000 
#    0.000    0.000    0.000    0.000    0.000    0.000 
#
# Total GULP energy -144844.666042 kJ/mol
# GULP energy per Si atom -5570.948694 kJ/mol
# Density = 2.699070 g / cm^3
# Si number density = 27.052274 Si / 1000 Ang^3
#
#
#
# Elastic Constant Matrix: (Units=GPa)
#
#
# Indices 1 2 3 4 5 6 
#
# 1 129.8005 39.0950 51.3773 0.0000 0.0000 0.0000
# 2 39.0950 129.8005 51.3773 0.0000 0.0000 0.0000
# 3 51.3773 51.3773 117.8921 0.0000 0.0000 0.0000
# 4 0.0000 0.0000 0.0000 36.6207 0.0000 0.0000
# 5 0.0000 0.0000 0.0000 0.0000 36.6207 0.0000
# 6 0.0000 0.0000 0.0000 0.0000 0.0000 40.1816
#
#
#
# Elastic Compliance Matrix: (Units=1/GPa)
#
#
# Indices 1 2 3 4 5 6 
#
# 1 0.009541 -0.001484 -0.003511 0.000000 0.000000 0.000000
# 2 -0.001484 0.009541 -0.003511 0.000000 0.000000 0.000000
# 3 -0.003511 -0.003511 0.011543 0.000000 0.000000 0.000000
# 4 0.000000 0.000000 0.000000 0.027307 0.000000 0.000000
# 5 0.000000 0.000000 0.000000 0.000000 0.027307 0.000000
# 6 0.000000 0.000000 0.000000 0.000000 0.000000 0.024887
#
#
# Mechanical properties :
#
#
# Convention : Reuss Voigt Hill
#
# Bulk Modulus (GPa) = 73.46567 73.46583 73.46575
# Shear Modulus (GPa) = 37.97219 38.39417 38.18318
#
# Velocity S-wave (km/s) = 3.75061 3.77139 3.76101
# Velocity P-wave (km/s) = 6.78026 6.79562 6.78795
#
# Compressibility (1/GPa) = 0.01361180
#
# Stress axis : x y z
#
# Youngs Moduli (GPa) = 104.81230 104.81230 86.63459
#
# Poissons Ratio (x) = 0.15552 0.30420
# Poissons Ratio (y) = 0.15552 0.30420
# Poissons Ratio (z) = 0.36802 0.36802
#
# Static dielectric constant tensor:
#      x y z
#    x 2.246170 0.000000 0.000000 
#    y 0.000000 2.246170 0.000000 
#    z 0.000000 0.000000 2.116010 
# 
# From -- ./inp_files/1963.got.cif
#   From: 2010.05.17/outbox.cif.g08.bks.cpg/sg114_1_cif.got.tgz:1963.got - 2010.05.20 11:04:54.
