data_PCOD9555795
_publ_section_title
;
Structure prediction by ZEFSAII (Michael W. Deem and Ramdas Pophale) SiO2 
 PCOD9555795
Probable space group: P -4 21 M 
;
_chemical_formula_sum "Si O2"
_cell_formula_units_Z 24
_cell_length_a 11.947823
_cell_length_b 11.947823
_cell_length_c 7.365661
_cell_angle_alpha 90.000000
_cell_angle_beta 90.000000
_cell_angle_gamma 90.000000
_cell_volume 1051.451602
_symmetry_space_group_name_H-M "P -4 21 M "
_symmetry_group_IT_number 113
_symmetry_cell_setting 'tetragonal'
loop_
_space_group_symop_operation_xyz
x,y,z
y,-x,-z
-x,-y,z
-y,x,-z
1/2+x,1/2-y,-z
1/2-x,1/2+y,-z
1/2-y,1/2-x,z
1/2+y,1/2+x,z
loop_
_atom_site_type_symbol
_atom_site_label
_atom_site_fract_x
_atom_site_fract_y
_atom_site_fract_z
Si Si1 0.548502 0.235661 0.600999
Si Si2 0.674662 0.449352 0.732150
Si Si3 0.805659 0.866740 0.867208
O O1 0.644360 0.144360 0.620537
O O2 0.601786 0.360516 0.617910
O O3 0.487133 0.229570 0.407449
O O4 0.458746 0.233432 0.761726
O O5 0.622223 0.566320 0.802710
O O6 0.703207 0.387165 0.918690
O O7 0.754435 0.745566 0.822244
#
# Coordination Sequence:
#
# PCOD9555795 Si02
#       3
#     8   8   8
#     4  12  27  46  73 109 145 188 241 299 358 423
#     4  12  25  44  76 105 142 187 242 292 349 428
#     4  12  27  46  73 109 145 188 241 299 358 423
#
# _framework density 22.825588
#
# number of rings (size 3 to 8) (size 9 to 14) (size 15 to 20)
#    0.000    0.000    6.667    3.000    0.000    3.333 
#    0.000    0.000    0.000    9.000    0.000    0.000 
#    0.000    0.000    0.000    0.000    0.000    0.000 
#
# Total GULP energy -134247.719026 kJ/mol
# GULP energy per Si atom -5593.654959 kJ/mol
# Density = 2.277364 g / cm^3
# Si number density = 22.825588 Si / 1000 Ang^3
#
#
#
# Elastic Constant Matrix: (Units=GPa)
#
#
# Indices 1 2 3 4 5 6 
#
# 1 30.1884 54.5259 -6.6164 0.0000 0.0000 0.0000
# 2 54.5259 30.1890 -6.6220 0.0000 0.0000 0.0000
# 3 -6.6164 -6.6220 111.2445 0.0000 0.0000 0.0000
# 4 0.0000 0.0000 0.0000 23.9026 0.0000 0.0000
# 5 0.0000 0.0000 0.0000 0.0000 23.9012 0.0000
# 6 0.0000 0.0000 0.0000 0.0000 0.0000 39.4565
#
#
#
# Elastic Compliance Matrix: (Units=1/GPa)
#
#
# Indices 1 2 3 4 5 6 
#
# 1 -0.014587 0.026502 0.000710 0.000000 0.000000 0.000000
# 2 0.026502 -0.014587 0.000708 0.000000 0.000000 0.000000
# 3 0.000710 0.000708 0.009074 0.000000 0.000000 0.000000
# 4 0.000000 0.000000 0.000000 0.041836 0.000000 0.000000
# 5 0.000000 0.000000 0.000000 0.000000 0.041839 0.000000
# 6 0.000000 0.000000 0.000000 0.000000 0.000000 0.025344
#
#
# Mechanical properties :
#
#
# Convention : Reuss Voigt Hill
#
# Bulk Modulus (GPa) = 27.98008 28.24410 28.11209
# Shear Modulus (GPa) = 111.13149 26.14103 68.63626
#
# Velocity S-wave (km/s) = 6.98519 3.38783 5.48955
# Velocity P-wave (km/s) = 8.79443 5.26345 7.24727
#
# Compressibility (1/GPa) = 0.03573971
#
# Stress axis : x y z
#
# Youngs Moduli (GPa) = -68.55361 -68.55337 110.21009
#
# Poissons Ratio (x) = 1.81682 -0.07825
# Poissons Ratio (y) = 1.81683 -0.07802
# Poissons Ratio (z) = 0.04867 0.04853
#
# Static dielectric constant tensor:
#      x y z
#    x 1.847700 0.000000 0.000000 
#    y 0.000000 1.847700 0.000000 
#    z 0.000000 0.000000 1.831350 
# 
# From -- ./inp_files/699.got.cif
#   From: 2010.05.17/outbox.cif.g08.bks.cpg/sg113_cif.got.tgz:699.got - 2010.05.20 11:03:00.
