data_PCOD9555163
_publ_section_title
;
Structure prediction by ZEFSAII (Michael W. Deem and Ramdas Pophale) SiO2 
 PCOD9555163
Probable space group: P -4 2 C
;
_chemical_formula_sum "Si O2"
_cell_formula_units_Z 36
_cell_length_a 15.068376
_cell_length_b 15.068376
_cell_length_c 7.482446
_cell_angle_alpha 90.000000
_cell_angle_beta 90.000000
_cell_angle_gamma 90.000000
_cell_volume 1698.933924
_symmetry_space_group_name_H-M "P -4 2 C"
_symmetry_group_IT_number 112
_symmetry_cell_setting 'tetragonal'
loop_
_space_group_symop_operation_xyz
x,y,z
y,-x,-z
-x,-y,z
-y,x,-z
x,-y,1/2-z
-x,y,1/2-z
-y,-x,1/2+z
y,x,1/2+z
loop_
_atom_site_type_symbol
_atom_site_label
_atom_site_fract_x
_atom_site_fract_y
_atom_site_fract_z
Si Si1 0.316416 0.205931 0.038065
Si Si2 0.657531 0.826741 0.453997
Si Si3 0.000000 0.500000 0.750000
Si Si4 0.496163 0.698995 0.468935
Si Si5 0.500000 0.500000 0.000000
Si Si6 0.624476 0.973890 0.945733
O O1 0.335808 0.187914 0.243803
O O2 0.399184 0.266281 0.973672
O O3 0.226174 0.260119 0.032545
O O4 0.314174 0.112507 0.933827
O O5 0.568110 0.775217 0.514848
O O6 0.660152 0.931582 0.486904
O O7 0.053908 0.443914 0.603864
O O8 0.500000 0.685777 0.250000
O O9 0.517760 0.603424 0.556049
O O10 0.590946 0.000000 0.750000
#
# Coordination Sequence:
#
# PCOD9555163 Si02
#       6
#     8   8   2   8   2   8
#     4  11  22  41  65  94 131 172 223 282 338 403
#     4  11  22  41  65  94 131 172 223 282 338 403
#     4  12  22  44  64  98 136 164 222 284 336 406
#     4  10  22  35  56  83 125 174 218 270 322 376
#     4  12  18  40  52  82 128 172 230 260 298 394
#     4  12  25  43  67  97 130 178 224 284 353 406
#
# _framework density 21.189761000000001
#
# number of rings (size 3 to 8) (size 9 to 14) (size 15 to 20)
#    0.000    0.889    4.444    3.333    3.111    0.000 
#    0.000    3.333    0.000    0.667    0.000    4.667 
#    0.000    0.000    0.000    0.000    0.000    0.000 
#
# Total GULP energy -200724.501053 kJ/mol
# GULP energy per Si atom -5575.680585 kJ/mol
# Density = 2.114153 g / cm^3
# Si number density = 21.189761 Si / 1000 Ang^3
#
#
#
# Elastic Constant Matrix: (Units=GPa)
#
#
# Indices 1 2 3 4 5 6 
#
# 1 144.8928 48.1997 3.5741 0.0000 0.0000 0.0000
# 2 48.1997 144.8928 3.5741 0.0000 0.0000 0.0000
# 3 3.5741 3.5741 93.0781 0.0000 0.0000 0.0000
# 4 0.0000 0.0000 0.0000 7.4198 0.0000 0.0000
# 5 0.0000 0.0000 0.0000 0.0000 7.4198 0.0000
# 6 0.0000 0.0000 0.0000 0.0000 0.0000 15.0953
#
#
#
# Elastic Compliance Matrix: (Units=1/GPa)
#
#
# Indices 1 2 3 4 5 6 
#
# 1 0.007764 -0.002578 -0.000199 0.000000 0.000000 0.000000
# 2 -0.002578 0.007764 -0.000199 0.000000 0.000000 0.000000
# 3 -0.000199 -0.000199 0.010759 0.000000 0.000000 0.000000
# 4 0.000000 0.000000 0.000000 0.134775 0.000000 0.000000
# 5 0.000000 0.000000 0.000000 0.000000 0.134775 0.000000
# 6 0.000000 0.000000 0.000000 0.000000 0.000000 0.066246
#
#
# Mechanical properties :
#
#
# Convention : Reuss Voigt Hill
#
# Bulk Modulus (GPa) = 49.17666 54.83995 52.00830
# Shear Modulus (GPa) = 13.33999 27.82137 20.58068
#
# Velocity S-wave (km/s) = 2.51180 3.62741 3.11988
# Velocity P-wave (km/s) = 5.62764 6.59399 6.12989
#
# Compressibility (1/GPa) = 0.02033485
#
# Stress axis : x y z
#
# Youngs Moduli (GPa) = 128.79763 128.79763 92.94580
#
# Poissons Ratio (x) = 0.33202 0.01851
# Poissons Ratio (y) = 0.33202 0.01851
# Poissons Ratio (z) = 0.02565 0.02565
#
# Static dielectric constant tensor:
#      x y z
#    x 1.938410 0.000000 0.000000 
#    y 0.000000 1.938410 0.000000 
#    z 0.000000 0.000000 1.853950 
# 
# From -- ./inp_files/1177.got.cif
#   From: 2010.05.17/outbox.cif.g08.bks.cpg/sg112_1_cif.got.tgz:1177.got - 2010.05.20 10:59:04.
