data_PCOD9555176
_publ_section_title
;
Structure prediction by ZEFSAII (Michael W. Deem and Ramdas Pophale) SiO2 
 PCOD9555176
Probable space group: P -4 2 C
;
_chemical_formula_sum "Si O2"
_cell_formula_units_Z 40
_cell_length_a 13.815568
_cell_length_b 13.815568
_cell_length_c 10.398951
_cell_angle_alpha 90.000000
_cell_angle_beta 90.000000
_cell_angle_gamma 90.000000
_cell_volume 1984.846937
_symmetry_space_group_name_H-M "P -4 2 C"
_symmetry_group_IT_number 112
_symmetry_cell_setting 'tetragonal'
loop_
_space_group_symop_operation_xyz
x,y,z
y,-x,-z
-x,-y,z
-y,x,-z
x,-y,1/2-z
-x,y,1/2-z
-y,-x,1/2+z
y,x,1/2+z
loop_
_atom_site_type_symbol
_atom_site_label
_atom_site_fract_x
_atom_site_fract_y
_atom_site_fract_z
Si Si1 0.838941 0.500000 0.750000
Si Si2 0.000000 0.338941 0.750000
Si Si3 0.106152 0.770956 0.279858
Si Si4 0.381414 0.284449 0.430894
Si Si5 0.784449 0.881414 0.430894
Si Si6 0.729044 0.606152 0.220142
O O1 0.908778 0.591222 0.722516
O O2 0.772344 0.472759 0.629066
O O3 0.027241 0.272344 0.870934
O O4 0.105439 0.815949 0.422767
O O5 0.135855 0.847620 0.170955
O O6 0.185477 0.685477 0.278130
O O7 0.000000 0.731562 0.250000
O O8 0.295125 0.204875 0.433065
O O9 0.347620 0.364145 0.329045
O O10 0.394561 0.315949 0.577233
O O11 0.768438 0.500000 0.250000
#
# Coordination Sequence:
#
# PCOD9555176 Si02
#       6
#     4   4   8   8   8   8
#     4   9  18  34  61  90 112 146 201 252 292 347
#     4   9  18  34  61  90 112 146 201 252 292 347
#     4  10  22  39  61  87 118 158 197 241 296 350
#     4   9  20  37  58  86 119 154 189 236 301 352
#     4   9  20  37  58  86 119 154 189 236 301 352
#     4  10  22  39  61  87 118 158 197 241 296 350
#
# _framework density 20.152688000000001
#
# number of rings (size 3 to 8) (size 9 to 14) (size 15 to 20)
#    0.000    2.600    0.000    0.000    5.600    2.000 
#    0.000    5.000    0.000    0.000    0.000    0.000 
#    0.000    0.000    0.000    0.000    0.000    0.000 
#
# Total GULP energy -223161.303161 kJ/mol
# GULP energy per Si atom -5579.032579 kJ/mol
# Density = 2.010682 g / cm^3
# Si number density = 20.152688 Si / 1000 Ang^3
#
#
#
# Elastic Constant Matrix: (Units=GPa)
#
#
# Indices 1 2 3 4 5 6 
#
# 1 53.4046 25.5712 46.1474 0.0000 0.0000 0.0000
# 2 25.5712 53.4046 46.1474 0.0000 0.0000 0.0000
# 3 46.1474 46.1474 185.4045 0.0000 0.0000 0.0000
# 4 0.0000 0.0000 0.0000 24.7327 0.0000 0.0000
# 5 0.0000 0.0000 0.0000 0.0000 24.7327 0.0000
# 6 0.0000 0.0000 0.0000 0.0000 0.0000 7.6365
#
#
#
# Elastic Compliance Matrix: (Units=1/GPa)
#
#
# Indices 1 2 3 4 5 6 
#
# 1 0.026892 -0.009036 -0.004444 0.000000 0.000000 0.000000
# 2 -0.009036 0.026892 -0.004444 0.000000 0.000000 0.000000
# 3 -0.004444 -0.004444 0.007606 0.000000 0.000000 0.000000
# 4 0.000000 0.000000 0.000000 0.040432 0.000000 0.000000
# 5 0.000000 0.000000 0.000000 0.000000 0.040432 0.000000
# 6 0.000000 0.000000 0.000000 0.000000 0.000000 0.130951
#
#
# Mechanical properties :
#
#
# Convention : Reuss Voigt Hill
#
# Bulk Modulus (GPa) = 39.15341 58.66064 48.90702
# Shear Modulus (GPa) = 15.74462 23.04354 19.39408
#
# Velocity S-wave (km/s) = 2.79815 3.38516 3.10555
# Velocity P-wave (km/s) = 5.46901 6.66711 6.09756
#
# Compressibility (1/GPa) = 0.02554056
#
# Stress axis : x y z
#
# Youngs Moduli (GPa) = 37.18569 37.18569 131.47440
#
# Poissons Ratio (x) = 0.33601 0.58432
# Poissons Ratio (y) = 0.33601 0.58432
# Poissons Ratio (z) = 0.16527 0.16527
#
# Static dielectric constant tensor:
#      x y z
#    x 1.702250 0.000000 0.000000 
#    y 0.000000 1.702250 0.000000 
#    z 0.000000 0.000000 1.719250 
# 
# From -- ./inp_files/1298.got.cif
#   From: 2010.05.17/outbox.cif.g08.bks.cpg/sg112_1_cif.got.tgz:1298.got - 2010.05.20 10:59:04.
