data_PCOD9555873
_publ_section_title
;
Structure prediction by ZEFSAII (Michael W. Deem and Ramdas Pophale) SiO2 
 PCOD9555873
Probable space group: P -4 21 C
;
_chemical_formula_sum "Si O2"
_cell_formula_units_Z 48
_cell_length_a 16.058872
_cell_length_b 16.058872
_cell_length_c 7.873807
_cell_angle_alpha 90.000000
_cell_angle_beta 90.000000
_cell_angle_gamma 90.000000
_cell_volume 2030.555378
_symmetry_space_group_name_H-M "P -4 21 C"
_symmetry_group_IT_number 114
_symmetry_cell_setting 'tetragonal'
loop_
_space_group_symop_operation_xyz
x,y,z
y,-x,-z
-x,-y,z
-y,x,-z
1/2+x,1/2-y,1/2-z
1/2-x,1/2+y,1/2-z
1/2-y,1/2-x,1/2+z
1/2+y,1/2+x,1/2+z
loop_
_atom_site_type_symbol
_atom_site_label
_atom_site_fract_x
_atom_site_fract_y
_atom_site_fract_z
Si Si1 0.027448 0.333245 0.435981
Si Si2 0.848329 0.341651 0.011008
Si Si3 0.843994 0.546606 0.554254
Si Si4 0.278705 0.438525 0.268283
Si Si5 0.289294 0.629062 0.283845
Si Si6 0.907644 0.894757 0.511104
O O1 0.065094 0.420052 0.503691
O O2 0.051785 0.273914 0.593292
O O3 0.928173 0.328981 0.412591
O O4 0.064729 0.321253 0.248637
O O5 0.825616 0.247431 0.949476
O O6 0.947776 0.341556 0.027545
O O7 0.796423 0.361884 0.178718
O O8 0.779253 0.588329 0.422521
O O9 0.307637 0.531748 0.321940
O O10 0.355788 0.386382 0.195187
O O11 0.359951 0.648725 0.145571
O O12 0.007178 0.887552 0.487613
#
# Coordination Sequence:
#
# PCOD9555873 Si02
#       6
#     8   8   8   8   8   8
#     4  11  20  32  51  80 121 161 195 227 266 333
#     4  10  19  32  50  80 116 154 192 227 274 336
#     4  11  20  32  51  80 121 161 195 227 266 333
#     4   9  20  35  54  80 110 145 194 238 286 330
#     4   9  18  33  54  82 106 144 189 230 284 343
#     4   9  18  38  66  84 104 144 193 247 302 348
#
# _framework density 23.638852
#
# number of rings (size 3 to 8) (size 9 to 14) (size 15 to 20)
#    0.000    2.167    3.333    0.500    0.000    1.333 
#    3.000    0.000    0.000    2.000    0.000    7.000 
#    0.000    0.000    0.000    0.000    0.000    0.000 
#
# Total GULP energy -267267.061159 kJ/mol
# GULP energy per Si atom -5568.063774 kJ/mol
# Density = 2.358505 g / cm^3
# Si number density = 23.638852 Si / 1000 Ang^3
#
#
#
# Elastic Constant Matrix: (Units=GPa)
#
#
# Indices 1 2 3 4 5 6 
#
# 1 54.0422 19.8220 11.4846 0.0000 0.0000 0.0000
# 2 19.8220 54.0422 11.4846 0.0000 0.0000 0.0000
# 3 11.4846 11.4846 95.1174 0.0000 0.0000 0.0000
# 4 0.0000 0.0000 0.0000 20.8079 0.0000 0.0000
# 5 0.0000 0.0000 0.0000 0.0000 20.8079 0.0000
# 6 0.0000 0.0000 0.0000 0.0000 0.0000 21.7430
#
#
#
# Elastic Compliance Matrix: (Units=1/GPa)
#
#
# Indices 1 2 3 4 5 6 
#
# 1 0.021644 -0.007578 -0.001698 0.000000 0.000000 0.000000
# 2 -0.007578 0.021644 -0.001698 0.000000 0.000000 0.000000
# 3 -0.001698 -0.001698 0.010923 0.000000 0.000000 0.000000
# 4 0.000000 0.000000 0.000000 0.048059 0.000000 0.000000
# 5 0.000000 0.000000 0.000000 0.000000 0.048059 0.000000
# 6 0.000000 0.000000 0.000000 0.000000 0.000000 0.045992
#
#
# Mechanical properties :
#
#
# Convention : Reuss Voigt Hill
#
# Bulk Modulus (GPa) = 30.99540 32.08711 31.54125
# Shear Modulus (GPa) = 21.83162 23.36580 22.59871
#
# Velocity S-wave (km/s) = 3.04229 3.14737 3.09528
# Velocity P-wave (km/s) = 5.04789 5.17796 5.11334
#
# Compressibility (1/GPa) = 0.03226285
#
# Stress axis : x y z
#
# Youngs Moduli (GPa) = 46.20114 46.20114 91.54608
#
# Poissons Ratio (x) = 0.35011 0.15548
# Poissons Ratio (y) = 0.35011 0.15548
# Poissons Ratio (z) = 0.07847 0.07847
#
# Static dielectric constant tensor:
#      x y z
#    x 1.949440 0.000000 0.000000 
#    y 0.000000 1.949440 0.000000 
#    z 0.000000 0.000000 1.986110 
# 
# From -- ./inp_files/897.got.cif
#   From: 2010.05.17/outbox.cif.g08.bks.cpg/sg114_1_cif.got.tgz:897.got - 2010.05.20 11:04:54.
