data_PCOD9555412
_publ_section_title
;
Structure prediction by ZEFSAII (Michael W. Deem and Ramdas Pophale) SiO2 
 PCOD9555412
Probable space group: P -4 2 C
;
_chemical_formula_sum "Si O2"
_cell_formula_units_Z 40
_cell_length_a 14.051205
_cell_length_b 14.051205
_cell_length_c 9.870429
_cell_angle_alpha 90.000000
_cell_angle_beta 90.000000
_cell_angle_gamma 90.000000
_cell_volume 1948.781593
_symmetry_space_group_name_H-M "P -4 2 C"
_symmetry_group_IT_number 112
_symmetry_cell_setting 'tetragonal'
loop_
_space_group_symop_operation_xyz
x,y,z
y,-x,-z
-x,-y,z
-y,x,-z
x,-y,1/2-z
-x,y,1/2-z
-y,-x,1/2+z
y,x,1/2+z
loop_
_atom_site_type_symbol
_atom_site_label
_atom_site_fract_x
_atom_site_fract_y
_atom_site_fract_z
Si Si1 0.758415 0.000000 0.250000
Si Si2 0.193335 0.216775 0.250332
Si Si3 0.677266 0.281658 0.497635
Si Si4 0.000000 0.672743 0.250000
Si Si5 0.243803 0.469272 0.909001
Si Si6 0.964905 0.400775 0.536547
O O1 0.810398 0.898074 0.250602
O O2 0.688938 0.000199 0.379325
O O3 0.225583 0.260204 0.392943
O O4 0.090989 0.261491 0.222707
O O5 0.270727 0.257121 0.143796
O O6 0.678161 0.392701 0.542090
O O7 0.568562 0.247457 0.488765
O O8 0.995232 0.610202 0.385359
O O9 0.247609 0.500000 0.750000
O O10 0.148026 0.411686 0.947007
O O11 0.000000 0.500000 0.595919
#
# Coordination Sequence:
#
# PCOD9555412 Si02
#       6
#     4   8   8   4   8   8
#     4  12  23  43  72  96 138 198 236 284 360 440
#     4  12  24  45  67 105 145 188 241 301 356 430
#     4  12  25  45  73 101 145 187 243 302 363 430
#     4  12  25  41  64 104 144 180 228 310 364 404
#     4  12  24  47  71 105 145 194 237 302 372 442
#     4  12  23  40  69 101 134 180 245 295 353 423
#
# _framework density 20.525645000000001
#
# number of rings (size 3 to 8) (size 9 to 14) (size 15 to 20)
#    0.000    0.000    6.000    5.400    0.000    1.600 
#    0.000    1.000    0.000    4.800    0.000    0.000 
#    0.000    0.000    0.000    0.000    0.000    0.000 
#
# Total GULP energy -223571.073315 kJ/mol
# GULP energy per Si atom -5589.276833 kJ/mol
# Density = 2.047893 g / cm^3
# Si number density = 20.525645 Si / 1000 Ang^3
#
#
#
# Elastic Constant Matrix: (Units=GPa)
#
#
# Indices 1 2 3 4 5 6 
#
# 1 100.7614 15.4728 -2.8387 0.0000 0.0000 0.0000
# 2 15.4728 100.7614 -2.8387 0.0000 0.0000 0.0000
# 3 -2.8387 -2.8387 88.3798 0.0000 0.0000 0.0000
# 4 0.0000 0.0000 0.0000 26.6828 0.0000 0.0000
# 5 0.0000 0.0000 0.0000 0.0000 26.6828 0.0000
# 6 0.0000 0.0000 0.0000 0.0000 0.0000 18.4598
#
#
#
# Elastic Compliance Matrix: (Units=1/GPa)
#
#
# Indices 1 2 3 4 5 6 
#
# 1 0.010171 -0.001554 0.000277 0.000000 0.000000 0.000000
# 2 -0.001554 0.010171 0.000277 0.000000 0.000000 0.000000
# 3 0.000277 0.000277 0.011333 0.000000 0.000000 0.000000
# 4 0.000000 0.000000 0.000000 0.037477 0.000000 0.000000
# 5 0.000000 0.000000 0.000000 0.000000 0.037477 0.000000
# 6 0.000000 0.000000 0.000000 0.000000 0.000000 0.054172
#
#
# Mechanical properties :
#
#
# Convention : Reuss Voigt Hill
#
# Bulk Modulus (GPa) = 33.70032 34.38818 34.04425
# Shear Modulus (GPa) = 28.95311 33.03887 30.99599
#
# Velocity S-wave (km/s) = 3.75985 4.01638 3.89023
# Velocity P-wave (km/s) = 5.94162 6.18858 6.06636
#
# Compressibility (1/GPa) = 0.02967331
#
# Stress axis : x y z
#
# Youngs Moduli (GPa) = 98.32002 98.32002 88.24117
#
# Poissons Ratio (x) = 0.15279 -0.02442
# Poissons Ratio (y) = 0.15279 -0.02442
# Poissons Ratio (z) = -0.02721 -0.02721
#
# Static dielectric constant tensor:
#      x y z
#    x 1.790790 0.000000 0.000000 
#    y 0.000000 1.790790 0.000000 
#    z 0.000000 0.000000 1.751220 
# 
# From -- ./inp_files/1289.got.cif
#   From: 2010.05.17/outbox.cif.g08.bks.cpg/sg112_1_cif.got.tgz:1289.got - 2010.05.20 10:59:04.
