data_PCOD9555843
_publ_section_title
;
Structure prediction by ZEFSAII (Michael W. Deem and Ramdas Pophale) SiO2 
 PCOD9555843
Probable space group: P -4 21 C
;
_chemical_formula_sum "Si O2"
_cell_formula_units_Z 40
_cell_length_a 8.198373
_cell_length_b 8.198373
_cell_length_c 29.239850
_cell_angle_alpha 90.000000
_cell_angle_beta 90.000000
_cell_angle_gamma 90.000000
_cell_volume 1965.307390
_symmetry_space_group_name_H-M "P -4 21 C"
_symmetry_group_IT_number 114
_symmetry_cell_setting 'tetragonal'
loop_
_space_group_symop_operation_xyz
x,y,z
y,-x,-z
-x,-y,z
-y,x,-z
1/2+x,1/2-y,1/2-z
1/2-x,1/2+y,1/2-z
1/2-y,1/2-x,1/2+z
1/2+y,1/2+x,1/2+z
loop_
_atom_site_type_symbol
_atom_site_label
_atom_site_fract_x
_atom_site_fract_y
_atom_site_fract_z
Si Si1 0.000000 0.000000 0.145815
Si Si2 0.111819 0.760959 0.697335
Si Si3 0.612629 0.232866 0.289154
Si Si4 0.249380 0.742296 0.603239
Si Si5 0.500000 0.000000 0.937700
Si Si6 0.248050 0.890210 0.007418
O O1 0.884891 0.883744 0.176097
O O2 0.122067 0.896001 0.115871
O O3 0.171072 0.573249 0.704397
O O4 0.191623 0.858020 0.739226
O O5 0.186846 0.828799 0.649573
O O6 0.915428 0.738113 0.700475
O O7 0.101966 0.621151 0.592705
O O8 0.309742 0.813002 0.554583
O O9 0.385637 0.889475 0.969314
O O10 0.082675 0.800452 0.990726
#
# Coordination Sequence:
#
# PCOD9555843 Si02
#       6
#     4   8   8   8   4   8
#     4  10  18  32  55  80 104 134 181 226 262 320
#     4  10  20  34  54  78 108 145 182 219 269 325
#     4  10  20  34  53  80 111 142 175 223 272 314
#     4  10  18  31  53  77 100 135 178 216 262 324
#     4  10  18  32  52  76 104 130 166 216 268 312
#     4   9  18  32  53  76 100 130 170 221 268 310
#
# _framework density 20.35305
#
# number of rings (size 3 to 8) (size 9 to 14) (size 15 to 20)
#    0.000    2.200    0.000    7.200    0.000    0.000 
#    0.000    4.000    0.000   19.200    0.000    0.000 
#    0.000    0.000    0.000    0.000    0.000    0.000 
#
# Total GULP energy -222953.403445 kJ/mol
# GULP energy per Si atom -5573.835086 kJ/mol
# Density = 2.030673 g / cm^3
# Si number density = 20.353050 Si / 1000 Ang^3
#
#
#
# Elastic Constant Matrix: (Units=GPa)
#
#
# Indices 1 2 3 4 5 6 
#
# 1 48.9678 2.8158 5.0721 0.0000 0.0000 0.0000
# 2 2.8158 48.9678 5.0721 0.0000 0.0000 0.0000
# 3 5.0721 5.0721 59.2686 0.0000 0.0000 0.0000
# 4 0.0000 0.0000 0.0000 36.2904 0.0000 0.0000
# 5 0.0000 0.0000 0.0000 0.0000 36.2904 0.0000
# 6 0.0000 0.0000 0.0000 0.0000 0.0000 10.1625
#
#
#
# Elastic Compliance Matrix: (Units=1/GPa)
#
#
# Indices 1 2 3 4 5 6 
#
# 1 0.020654 -0.001014 -0.001681 0.000000 0.000000 0.000000
# 2 -0.001014 0.020654 -0.001681 0.000000 0.000000 0.000000
# 3 -0.001681 -0.001681 0.017160 0.000000 0.000000 0.000000
# 4 0.000000 0.000000 0.000000 0.027556 0.000000 0.000000
# 5 0.000000 0.000000 0.000000 0.000000 0.027556 0.000000
# 6 0.000000 0.000000 0.000000 0.000000 0.000000 0.098401
#
#
# Mechanical properties :
#
#
# Convention : Reuss Voigt Hill
#
# Bulk Modulus (GPa) = 20.11357 20.34712 20.23034
# Shear Modulus (GPa) = 21.07009 26.16492 23.61750
#
# Velocity S-wave (km/s) = 3.22099 3.58935 3.41015
# Velocity P-wave (km/s) = 4.87204 5.21505 5.04646
#
# Compressibility (1/GPa) = 0.04971768
#
# Stress axis : x y z
#
# Youngs Moduli (GPa) = 48.41683 48.41683 58.27497
#
# Poissons Ratio (x) = 0.04907 0.09795
# Poissons Ratio (y) = 0.04907 0.09795
# Poissons Ratio (z) = 0.08138 0.08138
#
# Static dielectric constant tensor:
#      x y z
#    x 1.741450 0.000000 0.000000 
#    y 0.000000 1.741450 0.000000 
#    z 0.000000 0.000000 1.756090 
# 
# From -- ./inp_files/3816.got.cif
#   From: 2010.05.17/outbox.cif.g08.bks.cpg/sg114_2_cif.got.tgz:3816.got - 2010.05.20 11:04:54.
