data_PCOD9555435
_publ_section_title
;
Structure prediction by ZEFSAII (Michael W. Deem and Ramdas Pophale) SiO2 
 PCOD9555435
Probable space group: P -4 2 C
;
_chemical_formula_sum "Si O2"
_cell_formula_units_Z 40
_cell_length_a 9.000000
_cell_length_b 9.000000
_cell_length_c 24.000000
_cell_angle_alpha 90.000000
_cell_angle_beta 90.000000
_cell_angle_gamma 90.000000
_cell_volume 1944.000000
_symmetry_space_group_name_H-M "P -4 2 C"
_symmetry_group_IT_number 112
_symmetry_cell_setting 'tetragonal'
loop_
_space_group_symop_operation_xyz
x,y,z
y,-x,-z
-x,-y,z
-y,x,-z
x,-y,1/2-z
-x,y,1/2-z
-y,-x,1/2+z
y,x,1/2+z
loop_
_atom_site_type_symbol
_atom_site_label
_atom_site_fract_x
_atom_site_fract_y
_atom_site_fract_z
Si Si1 0.346796 0.599046 0.679257
Si Si2 0.831754 0.463253 0.090718
Si Si3 0.911120 0.234626 0.991935
Si Si4 0.175079 0.823404 0.263273
Si Si5 0.230328 0.313867 0.618425
O O1 0.500000 0.500000 0.690443
O O2 0.380613 0.732911 0.636685
O O3 0.268489 0.692399 0.730160
O O4 0.247504 0.476616 0.646508
O O5 0.739994 0.618236 0.086926
O O6 0.000000 0.500000 0.109762
O O7 0.855114 0.359139 0.036214
O O8 0.892548 0.297846 0.929449
O O9 0.081919 0.185027 0.002735
O O10 0.205801 0.796986 0.328826
O O11 0.000000 0.783369 0.250000
O O12 0.191563 0.000000 0.250000
#
# Coordination Sequence:
#
# PCOD9555435 Si02
#       5
#     8   8   8   8   8
#     4  10  25  46  75 104 147 191 240 306 364 444
#     4  11  23  45  69 102 141 190 243 293 367 432
#     4  11  26  44  72 103 147 190 245 302 363 433
#     4  11  26  47  77 110 148 191 248 303 376 445
#     4  11  25  45  70 107 145 191 236 301 370 438
#
# _framework density 20.576132000000001
#
# number of rings (size 3 to 8) (size 9 to 14) (size 15 to 20)
#    0.000    1.200    2.000    1.800    5.600    8.800 
#    0.000    5.000    0.000    0.000    0.000    0.000 
#    0.000    0.000    0.000    0.000    0.000    0.000 
#
# Total GULP energy -223390.992648 kJ/mol
# GULP energy per Si atom -5584.774816 kJ/mol
# Density = 2.052930 g / cm^3
# Si number density = 20.576132 Si / 1000 Ang^3
#
#
#
# Elastic Constant Matrix: (Units=GPa)
#
#
# Indices 1 2 3 4 5 6 
#
# 1 123.7111 28.4618 62.1541 0.0000 0.0000 0.0000
# 2 28.4618 123.7111 62.1541 0.0000 0.0000 0.0000
# 3 62.1541 62.1541 169.1292 0.0000 0.0000 0.0000
# 4 0.0000 0.0000 0.0000 37.7714 0.0000 0.0000
# 5 0.0000 0.0000 0.0000 0.0000 37.7714 0.0000
# 6 0.0000 0.0000 0.0000 0.0000 0.0000 38.9868
#
#
#
# Elastic Compliance Matrix: (Units=1/GPa)
#
#
# Indices 1 2 3 4 5 6 
#
# 1 0.009945 -0.000554 -0.003451 0.000000 0.000000 0.000000
# 2 -0.000554 0.009945 -0.003451 0.000000 0.000000 0.000000
# 3 -0.003451 -0.003451 0.008449 0.000000 0.000000 0.000000
# 4 0.000000 0.000000 0.000000 0.026475 0.000000 0.000000
# 5 0.000000 0.000000 0.000000 0.000000 0.026475 0.000000
# 6 0.000000 0.000000 0.000000 0.000000 0.000000 0.025650
#
#
# Mechanical properties :
#
#
# Convention : Reuss Voigt Hill
#
# Bulk Modulus (GPa) = 74.48097 80.23236 77.35667
# Shear Modulus (GPa) = 39.58021 40.49134 40.03577
#
# Velocity S-wave (km/s) = 4.39064 4.44089 4.41584
# Velocity P-wave (km/s) = 7.87274 8.08535 7.97975
#
# Compressibility (1/GPa) = 0.01342625
#
# Stress axis : x y z
#
# Youngs Moduli (GPa) = 100.55658 100.55658 118.35620
#
# Poissons Ratio (x) = 0.05572 0.40844
# Poissons Ratio (y) = 0.05572 0.40844
# Poissons Ratio (z) = 0.34702 0.34702
#
# Static dielectric constant tensor:
#      x y z
#    x 1.748240 0.000000 0.000000 
#    y 0.000000 1.748240 0.000000 
#    z 0.000000 0.000000 1.738370 
# 
# From -- ./inp_files/5329.got.cif
#   From: 2010.05.17/outbox.ucp.g08.bks.cvg/sg112_3_cif.got.tgz:5329.got - 2010.06.11 11:33:06.
