data_PCOD9555323
_publ_section_title
;
Structure prediction by ZEFSAII (Michael W. Deem and Ramdas Pophale) SiO2 
 PCOD9555323
Probable space group: P -4 2 C
;
_chemical_formula_sum "Si O2"
_cell_formula_units_Z 38
_cell_length_a 11.603399
_cell_length_b 11.603399
_cell_length_c 14.578689
_cell_angle_alpha 90.000000
_cell_angle_beta 90.000000
_cell_angle_gamma 90.000000
_cell_volume 1962.858189
_symmetry_space_group_name_H-M "P -4 2 C"
_symmetry_group_IT_number 112
_symmetry_cell_setting 'tetragonal'
loop_
_space_group_symop_operation_xyz
x,y,z
y,-x,-z
-x,-y,z
-y,x,-z
x,-y,1/2-z
-x,y,1/2-z
-y,-x,1/2+z
y,x,1/2+z
loop_
_atom_site_type_symbol
_atom_site_label
_atom_site_fract_x
_atom_site_fract_y
_atom_site_fract_z
Si Si1 0.251321 0.629536 0.282109
Si Si2 0.927326 0.098738 0.653629
Si Si3 0.410316 0.665470 0.982731
Si Si4 0.000000 0.500000 0.750000
Si Si5 0.000000 0.288265 0.250000
Si Si6 0.665095 0.170347 0.141165
O O1 0.280999 0.500000 0.250000
O O2 0.303705 0.640652 0.383566
O O3 0.298813 0.729950 0.214985
O O4 0.112078 0.642417 0.282079
O O5 0.801897 0.045251 0.673890
O O6 0.902687 0.222277 0.612652
O O7 0.000000 0.118653 0.750000
O O8 0.000000 0.000000 0.604672
O O9 0.547350 0.643993 0.978607
O O10 0.386422 0.766393 0.053914
O O11 0.917085 0.578138 0.811566
#
# Coordination Sequence:
#
# PCOD9555323 Si02
#       6
#     8   8   8   2   4   8
#     4  11  21  42  68  93 129 173 217 269 332 393
#     4   8  15  34  64  89 126 171 212 262 325 398
#     4  11  24  43  64  97 135 173 223 273 330 405
#     4  12  24  40  60 100 134 172 220 284 352 388
#     4   8  18  32  64  92 118 165 213 256 324 382
#     4  11  22  41  66  98 133 173 223 279 333 399
#
# _framework density 19.359524
#
# number of rings (size 3 to 8) (size 9 to 14) (size 15 to 20)
#    0.000    2.105    3.158    1.579    0.000    0.000 
#    3.789    2.105    0.000    5.053    0.000    0.000 
#    0.000    0.000    0.000    0.000    0.000    0.000 
#
# Total GULP energy -211935.088793 kJ/mol
# GULP energy per Si atom -5577.239179 kJ/mol
# Density = 1.931546 g / cm^3
# Si number density = 19.359524 Si / 1000 Ang^3
#
#
#
# Elastic Constant Matrix: (Units=GPa)
#
#
# Indices 1 2 3 4 5 6 
#
# 1 92.3439 44.9242 17.1350 0.0000 0.0000 0.0000
# 2 44.9242 92.3439 17.1350 0.0000 0.0000 0.0000
# 3 17.1350 17.1350 64.9604 0.0000 0.0000 0.0000
# 4 0.0000 0.0000 0.0000 12.2502 0.0000 0.0000
# 5 0.0000 0.0000 0.0000 0.0000 12.2502 0.0000
# 6 0.0000 0.0000 0.0000 0.0000 0.0000 38.3122
#
#
#
# Elastic Compliance Matrix: (Units=1/GPa)
#
#
# Indices 1 2 3 4 5 6 
#
# 1 0.014443 -0.006645 -0.002057 0.000000 0.000000 0.000000
# 2 -0.006645 0.014443 -0.002057 0.000000 0.000000 0.000000
# 3 -0.002057 -0.002057 0.016479 0.000000 0.000000 0.000000
# 4 0.000000 0.000000 0.000000 0.081631 0.000000 0.000000
# 5 0.000000 0.000000 0.000000 0.000000 0.081631 0.000000
# 6 0.000000 0.000000 0.000000 0.000000 0.000000 0.026101
#
#
# Mechanical properties :
#
#
# Convention : Reuss Voigt Hill
#
# Bulk Modulus (GPa) = 41.93215 45.33741 43.63478
# Shear Modulus (GPa) = 18.92524 23.92611 21.42568
#
# Velocity S-wave (km/s) = 3.13000 3.51933 3.33036
# Velocity P-wave (km/s) = 5.89655 6.32327 6.11363
#
# Compressibility (1/GPa) = 0.02384805
#
# Stress axis : x y z
#
# Youngs Moduli (GPa) = 69.23555 69.23555 60.68246
#
# Poissons Ratio (x) = 0.46006 0.12483
# Poissons Ratio (y) = 0.46006 0.12483
# Poissons Ratio (z) = 0.14242 0.14242
#
# Static dielectric constant tensor:
#      x y z
#    x 1.681400 0.000000 0.000000 
#    y 0.000000 1.681400 0.000000 
#    z 0.000000 0.000000 1.710790 
# 
# From -- ./inp_files/3351.got.cif
#   From: 2010.05.17/outbox.cif.g08.bks.cpg/sg112_2_cif.got.tgz:3351.got - 2010.05.20 10:59:04.
