data_PCOD9555135
_publ_section_title
;
Structure prediction by ZEFSAII (Michael W. Deem and Ramdas Pophale) SiO2 
 PCOD9555135
Probable space group: P -4 2 C
;
_chemical_formula_sum "Si O2"
_cell_formula_units_Z 40
_cell_length_a 18.078069
_cell_length_b 18.078069
_cell_length_c 5.270199
_cell_angle_alpha 90.000000
_cell_angle_beta 90.000000
_cell_angle_gamma 90.000000
_cell_volume 1722.388407
_symmetry_space_group_name_H-M "P -4 2 C"
_symmetry_group_IT_number 112
_symmetry_cell_setting 'tetragonal'
loop_
_space_group_symop_operation_xyz
x,y,z
y,-x,-z
-x,-y,z
-y,x,-z
x,-y,1/2-z
-x,y,1/2-z
-y,-x,1/2+z
y,x,1/2+z
loop_
_atom_site_type_symbol
_atom_site_label
_atom_site_fract_x
_atom_site_fract_y
_atom_site_fract_z
Si Si1 0.855559 0.919937 0.358760
Si Si2 0.585514 0.967628 0.991222
Si Si3 0.269315 0.796815 0.078808
Si Si4 0.417484 0.354682 0.221802
Si Si5 0.418812 0.184623 0.168575
O O1 0.889634 0.912041 0.640923
O O2 0.784167 0.866758 0.379855
O O3 0.835315 0.000000 0.250000
O O4 0.596285 0.879721 0.969029
O O5 0.500000 0.000000 0.989802
O O6 0.616947 0.000000 0.250000
O O7 0.625138 0.000000 0.750000
O O8 0.243285 0.743475 0.310856
O O9 0.353802 0.818487 0.125982
O O10 0.500000 0.387606 0.250000
O O11 0.389651 0.364214 0.509910
O O12 0.425689 0.271211 0.116410
O O13 0.500000 0.159982 0.250000
#
# Coordination Sequence:
#
# PCOD9555135 Si02
#       5
#     8   8   8   8   8
#     4  10  21  38  62  92 125 158 204 251 312 377
#     4  10  21  40  58  88 132 164 206 270 325 391
#     4  10  23  44  64  91 131 175 213 266 324 394
#     4  11  25  44  68 102 132 174 228 284 349 419
#     4  11  23  43  69  97 130 178 225 279 328 399
#
# _framework density 23.223565000000001
#
# number of rings (size 3 to 8) (size 9 to 14) (size 15 to 20)
#    0.000    1.600    2.000    2.400    0.000    6.400 
#    3.600    4.000    0.000    0.000    0.000    0.000 
#    0.000    0.000    0.000    0.000    0.000    0.000 
#
# Total GULP energy -223074.679639 kJ/mol
# GULP energy per Si atom -5576.866991 kJ/mol
# Density = 2.317071 g / cm^3
# Si number density = 23.223565 Si / 1000 Ang^3
#
#
#
# Elastic Constant Matrix: (Units=GPa)
#
#
# Indices 1 2 3 4 5 6 
#
# 1 99.9998 -20.6954 8.1590 0.0000 0.0000 0.0000
# 2 -20.6954 99.9998 8.1590 0.0000 0.0000 0.0000
# 3 8.1590 8.1590 108.0781 0.0000 0.0000 0.0000
# 4 0.0000 0.0000 0.0000 -4.8265 0.0000 0.0000
# 5 0.0000 0.0000 0.0000 0.0000 -4.8265 0.0000
# 6 0.0000 0.0000 0.0000 0.0000 0.0000 -1.0878
#
#
#
# Elastic Compliance Matrix: (Units=1/GPa)
#
#
# Indices 1 2 3 4 5 6 
#
# 1 0.010547 0.002262 -0.000967 0.000000 0.000000 0.000000
# 2 0.002262 0.010547 -0.000967 0.000000 0.000000 0.000000
# 3 -0.000967 -0.000967 0.009399 0.000000 0.000000 0.000000
# 4 0.000000 0.000000 0.000000 -0.207190 0.000000 0.000000
# 5 0.000000 0.000000 0.000000 0.000000 -0.207190 0.000000
# 6 0.000000 0.000000 0.000000 0.000000 0.000000 -0.919284
#
#
# Mechanical properties :
#
#
# Convention : Reuss Voigt Hill
#
# Bulk Modulus (GPa) = 32.10480 33.25810 32.68145
# Shear Modulus (GPa) = -3.86565 18.68219 7.40827
#
# Velocity S-wave (km/s) = -1.29157 2.83936 1.78799
# Velocity P-wave (km/s) = 3.41029 5.01011 4.28551
#
# Compressibility (1/GPa) = 0.03114799
#
# Stress axis : x y z
#
# Youngs Moduli (GPa) = 94.81397 94.81397 106.39931
#
# Poissons Ratio (x) = -0.21443 0.10288
# Poissons Ratio (y) = -0.21443 0.10288
# Poissons Ratio (z) = 0.09168 0.09168
#
# Static dielectric constant tensor:
#      x y z
#    x 1.887360 0.000000 0.000000 
#    y 0.000000 1.887360 0.000000 
#    z 0.000000 0.000000 1.889370 
# 
# From -- ./inp_files/250.got.cif
#   From: 2010.05.17/outbox.cif.g08.bks.cpg/sg112_1_cif.got.tgz:250.got - 2010.05.20 10:59:04.
