data_PCOD9555314
_publ_section_title
;
Structure prediction by ZEFSAII (Michael W. Deem and Ramdas Pophale) SiO2 
 PCOD9555314
Probable space group: P -4 2 C
;
_chemical_formula_sum "Si O2"
_cell_formula_units_Z 60
_cell_length_a 12.713852
_cell_length_b 12.713852
_cell_length_c 19.958465
_cell_angle_alpha 90.000000
_cell_angle_beta 90.000000
_cell_angle_gamma 90.000000
_cell_volume 3226.126852
_symmetry_space_group_name_H-M "P -4 2 C"
_symmetry_group_IT_number 112
_symmetry_cell_setting 'tetragonal'
loop_
_space_group_symop_operation_xyz
x,y,z
y,-x,-z
-x,-y,z
-y,x,-z
x,-y,1/2-z
-x,y,1/2-z
-y,-x,1/2+z
y,x,1/2+z
loop_
_atom_site_type_symbol
_atom_site_label
_atom_site_fract_x
_atom_site_fract_y
_atom_site_fract_z
Si Si1 0.544658 0.387193 0.675720
Si Si2 0.230046 0.502470 0.055394
Si Si3 0.848614 0.635957 0.673932
Si Si4 0.296584 0.263551 0.039769
Si Si5 0.392689 0.792198 0.181780
Si Si6 0.101952 0.878622 0.512692
Si Si7 0.500000 0.000000 0.982916
Si Si8 0.315702 0.953317 0.089958
O O1 0.500000 0.500000 0.652189
O O2 0.500000 0.366053 0.750000
O O3 0.521809 0.296361 0.622520
O O4 0.668432 0.401417 0.682220
O O5 0.257688 0.383385 0.033834
O O6 0.255354 0.594183 0.001428
O O7 0.104302 0.509178 0.060918
O O8 0.769461 0.678800 0.616848
O O9 0.825111 0.666432 0.750167
O O10 0.839010 0.509781 0.676735
O O11 0.964089 0.665060 0.648949
O O12 0.205764 0.182411 0.013676
O O13 0.338206 0.837125 0.116402
O O14 0.049967 0.804208 0.568396
O O15 0.998692 0.879812 0.464114
O O16 0.602022 0.014550 0.031494
#
# Coordination Sequence:
#
# PCOD9555314 Si02
#       8
#     8   8   8   8   8   8   4   8
#     4  11  24  44  62  88 130 177 220 263 321 404
#     4  12  26  38  65  93 131 170 213 262 332 383
#     4  11  21  38  60  93 129 167 202 261 325 383
#     4  12  24  40  62  96 133 166 208 271 325 393
#     4  11  22  36  62  90 126 170 211 256 321 391
#     4  11  23  41  63  88 120 171 212 257 321 386
#     4  12  22  40  58  94 136 162 202 280 322 384
#     4  12  20  37  61  93 127 156 211 266 326 379
#
# _framework density 18.598151999999999
#
# number of rings (size 3 to 8) (size 9 to 14) (size 15 to 20)
#    0.000    0.533    5.333    4.400    3.733    1.067 
#    0.000    0.333    0.000    0.800    0.000    0.000 
#    0.000    0.000    0.000    0.000    0.000    0.000 
#
# Total GULP energy -334867.604923 kJ/mol
# GULP energy per Si atom -5581.126749 kJ/mol
# Density = 1.855582 g / cm^3
# Si number density = 18.598152 Si / 1000 Ang^3
#
#
#
# Elastic Constant Matrix: (Units=GPa)
#
#
# Indices 1 2 3 4 5 6 
#
# 1 115.1184 15.1283 42.2873 0.0000 0.0000 0.0000
# 2 15.1283 115.1184 42.2873 0.0000 0.0000 0.0000
# 3 42.2873 42.2873 81.6776 0.0000 0.0000 0.0000
# 4 0.0000 0.0000 0.0000 36.0426 0.0000 0.0000
# 5 0.0000 0.0000 0.0000 0.0000 36.0426 0.0000
# 6 0.0000 0.0000 0.0000 0.0000 0.0000 18.9748
#
#
#
# Elastic Compliance Matrix: (Units=1/GPa)
#
#
# Indices 1 2 3 4 5 6 
#
# 1 0.010784 0.000783 -0.005988 0.000000 0.000000 0.000000
# 2 0.000783 0.010784 -0.005988 0.000000 0.000000 0.000000
# 3 -0.005988 -0.005988 0.018444 0.000000 0.000000 0.000000
# 4 0.000000 0.000000 0.000000 0.027745 0.000000 0.000000
# 5 0.000000 0.000000 0.000000 0.000000 0.027745 0.000000
# 6 0.000000 0.000000 0.000000 0.000000 0.000000 0.052702
#
#
# Mechanical properties :
#
#
# Convention : Reuss Voigt Hill
#
# Bulk Modulus (GPa) = 56.74288 56.81334 56.77811
# Shear Modulus (GPa) = 28.33435 32.35944 30.34689
#
# Velocity S-wave (km/s) = 3.90744 4.17577 4.04383
# Velocity P-wave (km/s) = 7.13678 7.33918 7.23869
#
# Compressibility (1/GPa) = 0.01762336
#
# Stress axis : x y z
#
# Youngs Moduli (GPa) = 92.73390 92.73390 54.21871
#
# Poissons Ratio (x) = -0.07257 0.32467
# Poissons Ratio (y) = -0.07257 0.32467
# Poissons Ratio (z) = 0.55531 0.55531
#
# Static dielectric constant tensor:
#      x y z
#    x 1.618590 0.000000 0.000000 
#    y 0.000000 1.618590 0.000000 
#    z 0.000000 0.000000 1.744530 
# 
# From -- ./inp_files/4984.got.cif
#   From: 2010.05.17/outbox.cif.g08.bks.cpg/sg112_3_cif.got.tgz:4984.got - 2010.05.20 10:59:04.
