data_PCOD9555504
_publ_section_title
;
Structure prediction by ZEFSAII (Michael W. Deem and Ramdas Pophale) SiO2 
 PCOD9555504
Probable space group: P -4 21 M 
;
_chemical_formula_sum "Si O2"
_cell_formula_units_Z 56
_cell_length_a 12.405373
_cell_length_b 12.405373
_cell_length_c 20.754545
_cell_angle_alpha 90.000000
_cell_angle_beta 90.000000
_cell_angle_gamma 90.000000
_cell_volume 3193.984990
_symmetry_space_group_name_H-M "P -4 21 M "
_symmetry_group_IT_number 113
_symmetry_cell_setting 'tetragonal'
loop_
_space_group_symop_operation_xyz
x,y,z
y,-x,-z
-x,-y,z
-y,x,-z
1/2+x,1/2-y,-z
1/2-x,1/2+y,-z
1/2-y,1/2-x,z
1/2+y,1/2+x,z
loop_
_atom_site_type_symbol
_atom_site_label
_atom_site_fract_x
_atom_site_fract_y
_atom_site_fract_z
Si Si1 0.136826 0.186719 0.418595
Si Si2 0.204975 0.116652 0.560692
Si Si3 0.797785 0.123034 0.075321
Si Si4 0.782610 0.463241 0.028063
Si Si5 0.089640 0.908550 0.206798
Si Si6 0.494008 0.822781 0.824372
Si Si7 0.370280 0.482007 0.657136
O O1 0.206045 0.293956 0.411494
O O2 0.168482 0.131536 0.486728
O O3 0.009590 0.213446 0.421461
O O4 0.168709 0.100050 0.363728
O O5 0.312752 0.187249 0.570706
O O6 0.107795 0.160696 0.604976
O O7 0.726713 0.226713 0.091930
O O8 0.897356 0.171131 0.034860
O O9 0.839454 0.079915 0.142888
O O10 0.730777 0.044343 0.030324
O O11 0.880068 0.380068 0.016908
O O12 0.801624 0.514966 0.098517
O O13 0.152993 0.934589 0.272476
O O14 0.031950 0.790467 0.206683
O O15 0.000000 0.000000 0.202510
O O16 0.384957 0.884957 0.802581
O O17 0.591542 0.908459 0.816007
O O18 0.500000 0.500000 0.653773
#
# Coordination Sequence:
#
# PCOD9555504 Si02
#       7
#     8   8   8   8   8   8   8
#     4  10  19  34  57  84 114 146 183 228 271 322
#     4  10  19  32  57  87 110 142 183 227 277 320
#     4  10  21  34  52  78 106 141 180 224 272 327
#     4   9  19  33  52  78 105 137 178 228 282 327
#     4  10  21  36  52  79 110 146 185 221 269 332
#     4   9  18  35  59  82 107 139 179 235 292 332
#     4   9  19  36  56  76 108 147 184 220 267 329
#
# _framework density 17.532955999999999
#
# number of rings (size 3 to 8) (size 9 to 14) (size 15 to 20)
#    0.000    2.429    1.429    1.714    4.000    2.286 
#    0.000    7.143    0.000    0.429    0.000    0.000 
#    0.000    0.000    0.000    0.000    0.000    0.000 
#
# Total GULP energy -311992.208428 kJ/mol
# GULP energy per Si atom -5571.289436 kJ/mol
# Density = 1.749305 g / cm^3
# Si number density = 17.532956 Si / 1000 Ang^3
#
#
#
# Elastic Constant Matrix: (Units=GPa)
#
#
# Indices 1 2 3 4 5 6 
#
# 1 82.3030 33.9496 25.1035 0.0000 0.0000 0.0000
# 2 33.9496 82.3003 25.1011 0.0000 0.0000 0.0000
# 3 25.1035 25.1011 59.1884 0.0000 0.0000 0.0000
# 4 0.0000 0.0000 0.0000 7.8675 0.0000 0.0000
# 5 0.0000 0.0000 0.0000 0.0000 7.8688 0.0000
# 6 0.0000 0.0000 0.0000 0.0000 0.0000 17.1108
#
#
#
# Elastic Compliance Matrix: (Units=1/GPa)
#
#
# Indices 1 2 3 4 5 6 
#
# 1 0.015606 -0.005075 -0.004467 0.000000 0.000000 0.000000
# 2 -0.005075 0.015606 -0.004466 0.000000 0.000000 0.000000
# 3 -0.004467 -0.004466 0.020684 0.000000 0.000000 0.000000
# 4 0.000000 0.000000 0.000000 0.127105 0.000000 0.000000
# 5 0.000000 0.000000 0.000000 0.000000 0.127084 0.000000
# 6 0.000000 0.000000 0.000000 0.000000 0.000000 0.058443
#
#
# Mechanical properties :
#
#
# Convention : Reuss Voigt Hill
#
# Bulk Modulus (GPa) = 41.87544 43.56668 42.72106
# Shear Modulus (GPa) = 12.48428 15.87860 14.18144
#
# Velocity S-wave (km/s) = 2.67132 3.01265 2.84710
# Velocity P-wave (km/s) = 5.78362 6.08308 5.93524
#
# Compressibility (1/GPa) = 0.02388035
#
# Stress axis : x y z
#
# Youngs Moduli (GPa) = 64.07718 64.07665 48.34765
#
# Poissons Ratio (x) = 0.32521 0.21595
# Poissons Ratio (y) = 0.32522 0.21591
# Poissons Ratio (z) = 0.28621 0.28615
#
# Static dielectric constant tensor:
#      x y z
#    x 1.618060 0.000000 0.000000 
#    y 0.000000 1.618060 0.000000 
#    z 0.000000 0.000000 1.618800 
# 
# From -- ./inp_files/2845.got.cif
#   From: 2010.05.17/outbox.cif.g08.bks.cpg/sg113_cif.got.tgz:2845.got - 2010.05.20 11:03:00.
