data_PCOD9555568
_publ_section_title
;
Structure prediction by ZEFSAII (Michael W. Deem and Ramdas Pophale) SiO2 
 PCOD9555568
Probable space group: P -4 21 M 
;
_chemical_formula_sum "Si O2"
_cell_formula_units_Z 38
_cell_length_a 10.624928
_cell_length_b 10.624928
_cell_length_c 17.580615
_cell_angle_alpha 90.000000
_cell_angle_beta 90.000000
_cell_angle_gamma 90.000000
_cell_volume 1984.659717
_symmetry_space_group_name_H-M "P -4 21 M "
_symmetry_group_IT_number 113
_symmetry_cell_setting 'tetragonal'
loop_
_space_group_symop_operation_xyz
x,y,z
y,-x,-z
-x,-y,z
-y,x,-z
1/2+x,1/2-y,-z
1/2-x,1/2+y,-z
1/2-y,1/2-x,z
1/2+y,1/2+x,z
loop_
_atom_site_type_symbol
_atom_site_label
_atom_site_fract_x
_atom_site_fract_y
_atom_site_fract_z
Si Si1 0.000000 0.500000 0.328854
Si Si2 0.948843 0.255783 0.085169
Si Si3 0.631641 0.868360 0.530897
Si Si4 0.959749 0.735947 0.912286
Si Si5 0.159225 0.340776 0.492657
Si Si6 0.806205 0.693796 0.312652
Si Si7 0.606832 0.607580 0.201942
O O1 0.912885 0.412885 0.384512
O O2 0.908497 0.591504 0.284707
O O3 0.883175 0.383175 0.110626
O O4 0.844768 0.145832 0.085655
O O5 0.053056 0.209720 0.143152
O O6 0.988094 0.268431 0.997584
O O7 0.494310 0.824198 0.495546
O O8 0.740545 0.759456 0.530395
O O9 0.893724 0.606277 0.894720
O O10 0.050629 0.777263 0.845548
O O11 0.185871 0.314130 0.403333
O O12 0.673082 0.652160 0.278499
O O13 0.500000 0.500000 0.213842
#
# Coordination Sequence:
#
# PCOD9555568 Si02
#       7
#     2   8   4   8   4   4   8
#     4   8  20  42  66  96 126 152 194 246 272 354
#     4  10  20  32  51  77  96 136 197 251 299 350
#     4   8  17  37  65  99 134 161 199 249 287 342
#     4  10  20  34  52  72 102 138 196 255 303 343
#     4   9  19  40  66 101 132 162 203 248 294 364
#     4  10  22  40  61  87 128 153 191 232 306 360
#     4  10  22  38  55  75 115 152 187 248 303 358
#
# _framework density 19.146858000000002
#
# number of rings (size 3 to 8) (size 9 to 14) (size 15 to 20)
#    0.000    2.737    2.105    0.000    4.421    0.842 
#    7.579    0.000    6.947    0.000    0.000    0.000 
#    0.000    0.000    0.000    0.000    0.000    0.000 
#
# Total GULP energy -211643.953803 kJ/mol
# GULP energy per Si atom -5569.577732 kJ/mol
# Density = 1.910328 g / cm^3
# Si number density = 19.146858 Si / 1000 Ang^3
#
#
#
# Elastic Constant Matrix: (Units=GPa)
#
#
# Indices 1 2 3 4 5 6 
#
# 1 86.9089 68.9599 30.4612 0.0000 0.0000 0.0000
# 2 68.9599 86.9123 30.4609 0.0000 0.0000 0.0000
# 3 30.4612 30.4609 62.1867 0.0000 0.0000 0.0000
# 4 0.0000 0.0000 0.0000 27.2742 0.0000 0.0000
# 5 0.0000 0.0000 0.0000 0.0000 27.2731 0.0000
# 6 0.0000 0.0000 0.0000 0.0000 0.0000 34.4512
#
#
#
# Elastic Compliance Matrix: (Units=1/GPa)
#
#
# Indices 1 2 3 4 5 6 
#
# 1 0.031822 -0.023887 -0.003887 0.000000 0.000000 0.000000
# 2 -0.023887 0.031821 -0.003886 0.000000 0.000000 0.000000
# 3 -0.003887 -0.003886 0.019888 0.000000 0.000000 0.000000
# 4 0.000000 0.000000 0.000000 0.036665 0.000000 0.000000
# 5 0.000000 0.000000 0.000000 0.000000 0.036666 0.000000
# 6 0.000000 0.000000 0.000000 0.000000 0.000000 0.029027
#
#
# Mechanical properties :
#
#
# Convention : Reuss Voigt Hill
#
# Bulk Modulus (GPa) = 49.47814 55.08577 52.28195
# Shear Modulus (GPa) = 19.53536 24.87473 22.20505
#
# Velocity S-wave (km/s) = 3.19766 3.60829 3.40916
# Velocity P-wave (km/s) = 6.28736 6.79649 6.54688
#
# Compressibility (1/GPa) = 0.02021095
#
# Stress axis : x y z
#
# Youngs Moduli (GPa) = 31.42447 31.42610 50.28097
#
# Poissons Ratio (x) = 0.75067 0.19545
# Poissons Ratio (y) = 0.75063 0.19540
# Poissons Ratio (z) = 0.12215 0.12213
#
# Static dielectric constant tensor:
#      x y z
#    x 1.718010 0.000000 0.000000 
#    y 0.000000 1.718010 0.000000 
#    z 0.000000 0.000000 1.639700 
# 
# From -- ./inp_files/2228.got.cif
#   From: 2010.05.17/outbox.cif.g08.bks.cpg/sg113_cif.got.tgz:2228.got - 2010.05.20 11:03:00.
