data_PCOD9555840
_publ_section_title
;
Structure prediction by ZEFSAII (Michael W. Deem and Ramdas Pophale) SiO2 
 PCOD9555840
Probable space group: P -4 21 C
;
_chemical_formula_sum "Si O2"
_cell_formula_units_Z 64
_cell_length_a 11.689366
_cell_length_b 11.689366
_cell_length_c 26.877249
_cell_angle_alpha 90.000000
_cell_angle_beta 90.000000
_cell_angle_gamma 90.000000
_cell_volume 3672.541639
_symmetry_space_group_name_H-M "P -4 21 C"
_symmetry_group_IT_number 114
_symmetry_cell_setting 'tetragonal'
loop_
_space_group_symop_operation_xyz
x,y,z
y,-x,-z
-x,-y,z
-y,x,-z
1/2+x,1/2-y,1/2-z
1/2-x,1/2+y,1/2-z
1/2-y,1/2-x,1/2+z
1/2+y,1/2+x,1/2+z
loop_
_atom_site_type_symbol
_atom_site_label
_atom_site_fract_x
_atom_site_fract_y
_atom_site_fract_z
Si Si1 0.281941 0.402501 0.294496
Si Si2 0.609164 0.273271 0.161142
Si Si3 0.241341 0.152374 0.175934
Si Si4 0.891973 0.244257 0.403302
Si Si5 0.873663 0.610815 0.196406
Si Si6 0.057757 0.819489 0.507717
Si Si7 0.224500 0.557463 0.749455
Si Si8 0.501426 0.723962 0.881733
O O1 0.204056 0.323748 0.330320
O O2 0.305901 0.526611 0.316261
O O3 0.210593 0.417264 0.242747
O O4 0.392244 0.327875 0.282036
O O5 0.518147 0.240182 0.118914
O O6 0.536799 0.272814 0.212264
O O7 0.661545 0.396542 0.147954
O O8 0.306579 0.169972 0.123953
O O9 0.154793 0.257089 0.181800
O O10 0.338889 0.174818 0.217755
O O11 0.892101 0.253014 0.462472
O O12 0.852748 0.114665 0.387086
O O13 0.835315 0.535441 0.149534
O O14 0.001428 0.623956 0.217076
O O15 0.933917 0.865217 0.489105
O O16 0.043693 0.762203 0.561431
#
# Coordination Sequence:
#
# PCOD9555840 Si02
#       8
#     8   8   8   8   8   8   8   8
#     4  10  21  34  48  69  97 143 180 208 244 303
#     4  10  19  32  48  74 101 138 172 203 253 303
#     4   9  19  35  47  73 101 130 180 211 252 297
#     4   9  17  30  49  76 104 131 163 215 262 306
#     4   9  20  32  48  73 103 137 169 213 254 294
#     4   9  15  26  48  78 106 130 160 200 263 321
#     4   9  20  35  47  73 100 142 176 209 252 296
#     4  10  18  30  49  78 108 133 166 209 260 320
#
# _framework density 17.426622999999999
#
# number of rings (size 3 to 8) (size 9 to 14) (size 15 to 20)
#    0.000    2.625    1.250    1.125    5.250    5.000 
#    4.500    0.000    0.000    0.000    6.500    0.000 
#    0.000    0.000    0.000    0.000    0.000    0.000 
#
# Total GULP energy -356917.640451 kJ/mol
# GULP energy per Si atom -5576.838132 kJ/mol
# Density = 1.738696 g / cm^3
# Si number density = 17.426623 Si / 1000 Ang^3
#
#
#
# Elastic Constant Matrix: (Units=GPa)
#
#
# Indices 1 2 3 4 5 6 
#
# 1 44.8131 1.7939 21.3340 0.0000 0.0000 0.0000
# 2 1.7939 44.8131 21.3340 0.0000 0.0000 0.0000
# 3 21.3340 21.3340 89.7528 0.0000 0.0000 0.0000
# 4 0.0000 0.0000 0.0000 21.3625 0.0000 0.0000
# 5 0.0000 0.0000 0.0000 0.0000 21.3625 0.0000
# 6 0.0000 0.0000 0.0000 0.0000 0.0000 16.3500
#
#
#
# Elastic Compliance Matrix: (Units=1/GPa)
#
#
# Indices 1 2 3 4 5 6 
#
# 1 0.025335 0.002089 -0.006519 0.000000 0.000000 0.000000
# 2 0.002089 0.025335 -0.006519 0.000000 0.000000 0.000000
# 3 -0.006519 -0.006519 0.014241 0.000000 0.000000 0.000000
# 4 0.000000 0.000000 0.000000 0.046811 0.000000 0.000000
# 5 0.000000 0.000000 0.000000 0.000000 0.046811 0.000000
# 6 0.000000 0.000000 0.000000 0.000000 0.000000 0.061162
#
#
# Mechanical properties :
#
#
# Convention : Reuss Voigt Hill
#
# Bulk Modulus (GPa) = 23.24836 29.81140 26.52988
# Shear Modulus (GPa) = 19.53679 20.80948 20.17313
#
# Velocity S-wave (km/s) = 3.35190 3.45935 3.40605
# Velocity P-wave (km/s) = 5.32447 5.75327 5.54302
#
# Compressibility (1/GPa) = 0.04301379
#
# Stress axis : x y z
#
# Youngs Moduli (GPa) = 39.47178 39.47178 70.22180
#
# Poissons Ratio (x) = -0.08246 0.45774
# Poissons Ratio (y) = -0.08246 0.45774
# Poissons Ratio (z) = 0.25730 0.25730
#
# Static dielectric constant tensor:
#      x y z
#    x 1.611100 0.000000 0.000000 
#    y 0.000000 1.611100 0.000000 
#    z 0.000000 0.000000 1.602130 
# 
# From -- ./inp_files/3771.got.cif
#   From: 2010.05.17/outbox.cif.g08.bks.cpg/sg114_2_cif.got.tgz:3771.got - 2010.05.20 11:04:54.
