data_PCOD9555967
_publ_section_title
;
Structure prediction by ZEFSAII (Michael W. Deem and Ramdas Pophale) SiO2 
 PCOD9555967
Probable space group: P -4 21 C
;
_chemical_formula_sum "Si O2"
_cell_formula_units_Z 40
_cell_length_a 17.511248
_cell_length_b 17.511248
_cell_length_c 5.508958
_cell_angle_alpha 90.000000
_cell_angle_beta 90.000000
_cell_angle_gamma 90.000000
_cell_volume 1689.287851
_symmetry_space_group_name_H-M "P -4 21 C"
_symmetry_group_IT_number 114
_symmetry_cell_setting 'tetragonal'
loop_
_space_group_symop_operation_xyz
x,y,z
y,-x,-z
-x,-y,z
-y,x,-z
1/2+x,1/2-y,1/2-z
1/2-x,1/2+y,1/2-z
1/2-y,1/2-x,1/2+z
1/2+y,1/2+x,1/2+z
loop_
_atom_site_type_symbol
_atom_site_label
_atom_site_fract_x
_atom_site_fract_y
_atom_site_fract_z
Si Si1 0.263005 0.390444 0.793948
Si Si2 0.952665 0.893358 0.579954
Si Si3 0.117913 0.414518 0.316799
Si Si4 0.185447 0.751308 0.969959
Si Si5 0.265115 0.507752 0.423159
O O1 0.332200 0.391019 0.981852
O O2 0.177005 0.367085 0.856490
O O3 0.289849 0.338647 0.570381
O O4 0.260028 0.476063 0.695359
O O5 0.024177 0.912502 0.398484
O O6 0.990200 0.847522 0.803776
O O7 0.079897 0.433093 0.576348
O O8 0.195880 0.462244 0.290843
O O9 0.223320 0.709519 0.736070
O O10 0.095951 0.747229 0.927697
#
# Coordination Sequence:
#
# PCOD9555967 Si02
#       5
#     8   8   8   8   8
#     4  11  24  41  69 102 142 196 250 298 358 441
#     4  11  24  40  64 104 153 195 236 295 374 452
#     4  10  20  37  65  97 126 177 241 287 344 415
#     4  12  29  48  75 109 148 191 253 313 367 435
#     4  11  25  42  70 102 147 192 242 315 370 435
#
# _framework density 23.678619000000001
#
# number of rings (size 3 to 8) (size 9 to 14) (size 15 to 20)
#    0.000    1.000    4.000    2.400    8.400    0.000 
#    0.000    2.000    0.000   14.400    0.000    0.000 
#    0.000    0.000    0.000    0.000    0.000    0.000 
#
# Total GULP energy -223327.943461 kJ/mol
# GULP energy per Si atom -5583.198587 kJ/mol
# Density = 2.362473 g / cm^3
# Si number density = 23.678619 Si / 1000 Ang^3
#
#
#
# Elastic Constant Matrix: (Units=GPa)
#
#
# Indices 1 2 3 4 5 6 
#
# 1 76.2967 8.5936 12.1571 0.0000 0.0000 0.0000
# 2 8.5936 76.2967 12.1571 0.0000 0.0000 0.0000
# 3 12.1571 12.1571 93.8591 0.0000 0.0000 0.0000
# 4 0.0000 0.0000 0.0000 28.8324 0.0000 0.0000
# 5 0.0000 0.0000 0.0000 0.0000 28.8324 0.0000
# 6 0.0000 0.0000 0.0000 0.0000 0.0000 27.5201
#
#
#
# Elastic Compliance Matrix: (Units=1/GPa)
#
#
# Indices 1 2 3 4 5 6 
#
# 1 0.013502 -0.001268 -0.001585 0.000000 0.000000 0.000000
# 2 -0.001268 0.013502 -0.001585 0.000000 0.000000 0.000000
# 3 -0.001585 -0.001585 0.011065 0.000000 0.000000 0.000000
# 4 0.000000 0.000000 0.000000 0.034683 0.000000 0.000000
# 5 0.000000 0.000000 0.000000 0.000000 0.034683 0.000000
# 6 0.000000 0.000000 0.000000 0.000000 0.000000 0.036337
#
#
# Mechanical properties :
#
#
# Convention : Reuss Voigt Hill
#
# Bulk Modulus (GPa) = 34.25365 34.69645 34.47505
# Shear Modulus (GPa) = 30.79223 31.27329 31.03276
#
# Velocity S-wave (km/s) = 3.61005 3.63814 3.62412
# Velocity P-wave (km/s) = 5.64571 5.68621 5.66600
#
# Compressibility (1/GPa) = 0.02919397
#
# Stress axis : x y z
#
# Youngs Moduli (GPa) = 74.06276 74.06276 90.37712
#
# Poissons Ratio (x) = 0.09393 0.14321
# Poissons Ratio (y) = 0.09393 0.14321
# Poissons Ratio (z) = 0.11736 0.11736
#
# Static dielectric constant tensor:
#      x y z
#    x 1.877560 0.000000 0.000000 
#    y 0.000000 1.877560 0.000000 
#    z 0.000000 0.000000 2.016250 
# 
# From -- ./inp_files/152.got.cif
#   From: 2010.05.17/outbox.cif.g08.bks.cpg/sg114_1_cif.got.tgz:152.got - 2010.05.20 11:04:54.
