data_PCOD9555553
_publ_section_title
;
Structure prediction by ZEFSAII (Michael W. Deem and Ramdas Pophale) SiO2 
 PCOD9555553
Probable space group: P -4 21 M 
;
_chemical_formula_sum "Si O2"
_cell_formula_units_Z 48
_cell_length_a 17.303756
_cell_length_b 17.303756
_cell_length_c 8.988043
_cell_angle_alpha 90.000000
_cell_angle_beta 90.000000
_cell_angle_gamma 90.000000
_cell_volume 2691.199581
_symmetry_space_group_name_H-M "P -4 21 M "
_symmetry_group_IT_number 113
_symmetry_cell_setting 'tetragonal'
loop_
_space_group_symop_operation_xyz
x,y,z
y,-x,-z
-x,-y,z
-y,x,-z
1/2+x,1/2-y,-z
1/2-x,1/2+y,-z
1/2-y,1/2-x,z
1/2+y,1/2+x,z
loop_
_atom_site_type_symbol
_atom_site_label
_atom_site_fract_x
_atom_site_fract_y
_atom_site_fract_z
Si Si1 0.666708 0.297454 0.088773
Si Si2 0.903023 0.273064 0.905534
Si Si3 0.052616 0.327130 0.424381
Si Si4 0.055259 0.317869 0.069162
Si Si5 0.181595 0.885823 0.425453
Si Si6 0.716817 0.446468 0.579405
O O1 0.734874 0.234874 0.104238
O O2 0.634267 0.311962 0.252337
O O3 0.704952 0.371458 0.011700
O O4 0.602558 0.257447 0.984874
O O5 0.833285 0.333285 0.880907
O O6 0.929143 0.237499 0.749154
O O7 0.974019 0.315604 0.985749
O O8 0.088633 0.411368 0.457575
O O9 0.046487 0.318229 0.247110
O O10 0.113014 0.264349 0.491257
O O11 0.973501 0.296901 0.499136
O O12 0.108173 0.391828 0.028708
O O13 0.123942 0.826859 0.503183
O O14 0.162696 0.977319 0.434956
#
# Coordination Sequence:
#
# PCOD9555553 Si02
#       6
#     8   8   8   8   8   8
#     4  10  20  35  61  85 114 153 196 242 284 347
#     4  11  23  38  59  91 118 150 200 249 295 345
#     4   9  19  35  61  85 113 157 199 239 291 349
#     4  10  19  37  60  84 118 155 192 238 299 355
#     4  10  20  36  59  85 117 152 196 238 298 346
#     4  10  22  37  58  85 119 154 190 248 287 353
#
# _framework density 17.835912
#
# number of rings (size 3 to 8) (size 9 to 14) (size 15 to 20)
#    1.000    1.000    1.667    2.500    0.000    4.000 
#    0.000    0.833    0.000    1.500    0.000    0.000 
#    0.000    0.000    0.000    0.000    0.000    0.000 
#
# Total GULP energy -267303.011514 kJ/mol
# GULP energy per Si atom -5568.812740 kJ/mol
# Density = 1.779532 g / cm^3
# Si number density = 17.835912 Si / 1000 Ang^3
#
#
#
# Elastic Constant Matrix: (Units=GPa)
#
#
# Indices 1 2 3 4 5 6 
#
# 1 61.2558 -45.2767 -8.1406 0.0000 0.0000 0.0000
# 2 -45.2767 61.2361 -8.1492 0.0000 0.0000 0.0000
# 3 -8.1406 -8.1492 60.5701 0.0000 0.0000 0.0000
# 4 0.0000 0.0000 0.0000 0.2108 0.0000 0.0000
# 5 0.0000 0.0000 0.0000 0.0000 0.2139 0.0000
# 6 0.0000 0.0000 0.0000 0.0000 0.0000 23.5193
#
#
#
# Elastic Compliance Matrix: (Units=1/GPa)
#
#
# Indices 1 2 3 4 5 6 
#
# 1 0.040974 0.031594 0.009758 0.000000 0.000000 0.000000
# 2 0.031594 0.040989 0.009761 0.000000 0.000000 0.000000
# 3 0.009758 0.009761 0.019134 0.000000 0.000000 0.000000
# 4 0.000000 0.000000 0.000000 4.744360 0.000000 0.000000
# 5 0.000000 0.000000 0.000000 0.000000 4.674776 0.000000
# 6 0.000000 0.000000 0.000000 0.000000 0.000000 0.042518
#
#
# Mechanical properties :
#
#
# Convention : Reuss Voigt Hill
#
# Bulk Modulus (GPa) = 4.91830 6.65879 5.78854
# Shear Modulus (GPa) = 0.52475 21.09735 10.81105
#
# Velocity S-wave (km/s) = 0.54300 3.44300 2.46466
# Velocity P-wave (km/s) = 1.77669 4.42122 3.36926
#
# Compressibility (1/GPa) = 0.20332246
#
# Stress axis : x y z
#
# Youngs Moduli (GPa) = 24.40567 24.39671 52.26177
#
# Poissons Ratio (x) = -0.77079 -0.50995
# Poissons Ratio (y) = -0.77107 -0.51012
# Poissons Ratio (z) = -0.23814 -0.23813
#
# Static dielectric constant tensor:
#      x y z
#    x 1.619560 0.000000 0.000000 
#    y 0.000000 1.619560 0.000000 
#    z 0.000000 0.000000 1.576910 
# 
# From -- ./inp_files/1184.got.cif
#   From: 2010.05.17/outbox.cif.g08.bks.cpg/sg113_cif.got.tgz:1184.got - 2010.05.20 11:03:00.
