data_PCOD9555716
_publ_section_title
;
Structure prediction by ZEFSAII (Michael W. Deem and Ramdas Pophale) SiO2 
 PCOD9555716
Probable space group: P -4 21 M 
;
_chemical_formula_sum "Si O2"
_cell_formula_units_Z 32
_cell_length_a 12.897632
_cell_length_b 12.897632
_cell_length_c 9.882397
_cell_angle_alpha 90.000000
_cell_angle_beta 90.000000
_cell_angle_gamma 90.000000
_cell_volume 1643.925981
_symmetry_space_group_name_H-M "P -4 21 M "
_symmetry_group_IT_number 113
_symmetry_cell_setting 'tetragonal'
loop_
_space_group_symop_operation_xyz
x,y,z
y,-x,-z
-x,-y,z
-y,x,-z
1/2+x,1/2-y,-z
1/2-x,1/2+y,-z
1/2-y,1/2-x,z
1/2+y,1/2+x,z
loop_
_atom_site_type_symbol
_atom_site_label
_atom_site_fract_x
_atom_site_fract_y
_atom_site_fract_z
Si Si1 0.134206 0.192923 0.104867
Si Si2 0.947122 0.137042 0.435977
Si Si3 0.620628 0.528825 0.830214
Si Si4 0.997577 0.331295 0.302016
O O1 0.227241 0.272760 0.096478
O O2 0.171002 0.084822 0.170944
O O3 0.044085 0.250570 0.192137
O O4 0.091876 0.165391 0.956080
O O5 0.953353 0.259925 0.423019
O O6 0.068444 0.101275 0.442990
O O7 0.883129 0.095587 0.306387
O O8 0.500000 0.500000 0.853550
O O9 0.905635 0.405635 0.249921
O O10 0.091973 0.408028 0.341494
#
# Coordination Sequence:
#
# PCOD9555716 Si02
#       4
#     8   8   8   8
#     4  11  21  34  58  86 113 153 188 233 308 362
#     4  11  20  36  59  83 111 157 198 240 284 338
#     4  12  19  36  56  81 119 143 191 252 284 336
#     4  10  22  39  59  88 122 151 190 247 303 356
#
# _framework density 19.465595
#
# number of rings (size 3 to 8) (size 9 to 14) (size 15 to 20)
#    0.000    1.000    7.500    0.000    0.000    5.000 
#    0.000    1.250    0.000    0.000    0.000    3.500 
#    0.000    0.000    0.000    0.000    0.000    0.000 
#
# Total GULP energy -178244.239451 kJ/mol
# GULP energy per Si atom -5570.132483 kJ/mol
# Density = 1.942129 g / cm^3
# Si number density = 19.465595 Si / 1000 Ang^3
#
#
#
# Elastic Constant Matrix: (Units=GPa)
#
#
# Indices 1 2 3 4 5 6 
#
# 1 88.3865 31.0913 24.5503 0.0000 0.0000 0.0000
# 2 31.0913 88.3853 24.5501 0.0000 0.0000 0.0000
# 3 24.5503 24.5501 70.6737 0.0000 0.0000 0.0000
# 4 0.0000 0.0000 0.0000 27.6003 0.0000 0.0000
# 5 0.0000 0.0000 0.0000 0.0000 27.6003 0.0000
# 6 0.0000 0.0000 0.0000 0.0000 0.0000 27.1045
#
#
#
# Elastic Compliance Matrix: (Units=1/GPa)
#
#
# Indices 1 2 3 4 5 6 
#
# 1 0.013609 -0.003845 -0.003392 0.000000 0.000000 0.000000
# 2 -0.003845 0.013609 -0.003392 0.000000 0.000000 0.000000
# 3 -0.003392 -0.003392 0.016506 0.000000 0.000000 0.000000
# 4 0.000000 0.000000 0.000000 0.036231 0.000000 0.000000
# 5 0.000000 0.000000 0.000000 0.000000 0.036232 0.000000
# 6 0.000000 0.000000 0.000000 0.000000 0.000000 0.036894
#
#
# Mechanical properties :
#
#
# Convention : Reuss Voigt Hill
#
# Bulk Modulus (GPa) = 44.51052 45.31432 44.91242
# Shear Modulus (GPa) = 27.49884 27.61126 27.55505
#
# Velocity S-wave (km/s) = 3.76265 3.77034 3.76650
# Velocity P-wave (km/s) = 6.46472 6.50259 6.48368
#
# Compressibility (1/GPa) = 0.02246660
#
# Stress axis : x y z
#
# Youngs Moduli (GPa) = 73.48328 73.48219 60.58454
#
# Poissons Ratio (x) = 0.28254 0.20548
# Poissons Ratio (y) = 0.28254 0.20548
# Poissons Ratio (z) = 0.24923 0.24923
#
# Static dielectric constant tensor:
#      x y z
#    x 1.720950 0.000000 0.000000 
#    y 0.000000 1.720950 0.000000 
#    z 0.000000 0.000000 1.751590 
# 
# From -- ./inp_files/1543.got.cif
#   From: 2010.05.17/outbox.cif.g08.bks.cpg/sg113_cif.got.tgz:1543.got - 2010.05.20 11:03:00.
