data_PCOD9555932
_publ_section_title
;
Structure prediction by ZEFSAII (Michael W. Deem and Ramdas Pophale) SiO2 
 PCOD9555932
Probable space group: P -4 21 C
;
_chemical_formula_sum "Si O2"
_cell_formula_units_Z 44
_cell_length_a 6.765472
_cell_length_b 6.765472
_cell_length_c 31.850011
_cell_angle_alpha 90.000000
_cell_angle_beta 90.000000
_cell_angle_gamma 90.000000
_cell_volume 1457.826326
_symmetry_space_group_name_H-M "P -4 21 C"
_symmetry_group_IT_number 114
_symmetry_cell_setting 'tetragonal'
loop_
_space_group_symop_operation_xyz
x,y,z
y,-x,-z
-x,-y,z
-y,x,-z
1/2+x,1/2-y,1/2-z
1/2-x,1/2+y,1/2-z
1/2-y,1/2-x,1/2+z
1/2+y,1/2+x,1/2+z
loop_
_atom_site_type_symbol
_atom_site_label
_atom_site_fract_x
_atom_site_fract_y
_atom_site_fract_z
Si Si1 0.296684 0.667215 0.313671
Si Si2 0.245372 0.841914 0.905658
Si Si3 0.178115 0.310009 0.915836
Si Si4 0.714744 0.172879 0.994741
Si Si5 0.500000 0.500000 0.237490
Si Si6 0.736830 0.650452 0.825636
O O1 0.350358 0.787129 0.356016
O O2 0.425616 0.668178 0.271479
O O3 0.289338 0.428489 0.324628
O O4 0.063044 0.702106 0.306852
O O5 0.060584 0.688273 0.907765
O O6 0.199583 0.070458 0.915552
O O7 0.368261 0.793992 0.947908
O O8 0.238473 0.384391 0.961864
O O9 0.301015 0.376334 0.875144
O O10 0.937950 0.257097 0.996830
O O11 0.683307 0.450724 0.204423
#
# Coordination Sequence:
#
# PCOD9555932 Si02
#       6
#     8   8   8   8   4   8
#     4  10  20  34  52  74  98 131 180 226 266 319
#     4   8  13  24  47  75 101 128 162 210 263 317
#     4   8  13  25  45  73 104 130 161 208 264 324
#     4   7  10  18  39  72 102 125 154 199 258 315
#     4  12  22  36  52  70 102 142 182 228 276 314
#     4  10  21  34  51  74  99 133 176 221 271 322
#
# _framework density 30.181923000000001
#
# number of rings (size 3 to 8) (size 9 to 14) (size 15 to 20)
#    0.000    3.091    0.000    5.455    0.000    0.000 
#    0.000    0.000    0.000    2.182    0.000    5.091 
#    0.000    0.000    0.000    0.364    0.000    0.364 
#
# Total GULP energy -245062.821007 kJ/mol
# GULP energy per Si atom -5569.609568 kJ/mol
# Density = 3.011323 g / cm^3
# Si number density = 30.181923 Si / 1000 Ang^3
#
#
#
# Elastic Constant Matrix: (Units=GPa)
#
#
# Indices 1 2 3 4 5 6 
#
# 1 92.3469 13.9473 42.3138 0.0000 0.0000 0.0000
# 2 13.9473 92.3469 42.3138 0.0000 0.0000 0.0000
# 3 42.3138 42.3138 369.4333 0.0000 0.0000 0.0000
# 4 0.0000 0.0000 0.0000 31.2306 0.0000 0.0000
# 5 0.0000 0.0000 0.0000 0.0000 31.2306 0.0000
# 6 0.0000 0.0000 0.0000 0.0000 0.0000 34.5469
#
#
#
# Elastic Compliance Matrix: (Units=1/GPa)
#
#
# Indices 1 2 3 4 5 6 
#
# 1 0.011554 -0.001202 -0.001186 0.000000 0.000000 0.000000
# 2 -0.001202 0.011554 -0.001186 0.000000 0.000000 0.000000
# 3 -0.001186 -0.001186 0.002978 0.000000 0.000000 0.000000
# 4 0.000000 0.000000 0.000000 0.032020 0.000000 0.000000
# 5 0.000000 0.000000 0.000000 0.000000 0.032020 0.000000
# 6 0.000000 0.000000 0.000000 0.000000 0.000000 0.028946
#
#
# Mechanical properties :
#
#
# Convention : Reuss Voigt Hill
#
# Bulk Modulus (GPa) = 52.79985 83.47524 68.13754
# Shear Modulus (GPa) = 37.72713 49.77174 43.74943
#
# Velocity S-wave (km/s) = 3.53936 4.06526 3.81139
# Velocity P-wave (km/s) = 5.85103 7.05355 6.48024
#
# Compressibility (1/GPa) = 0.01893945
#
# Stress axis : x y z
#
# Youngs Moduli (GPa) = 86.55381 86.55381 335.74451
#
# Poissons Ratio (x) = 0.10401 0.39808
# Poissons Ratio (y) = 0.10401 0.39808
# Poissons Ratio (z) = 0.10262 0.10262
#
# Static dielectric constant tensor:
#      x y z
#    x 3.125650 0.000000 0.000000 
#    y 0.000000 3.125650 0.000000 
#    z 0.000000 0.000000 2.347040 
# 
# From -- ./inp_files/3834.got.cif
#   From: 2010.05.17/outbox.cif.g08.bks.cpg/sg114_2_cif.got.tgz:3834.got - 2010.05.20 11:04:54.
