data_PCOD9555271
_publ_section_title
;
Structure prediction by ZEFSAII (Michael W. Deem and Ramdas Pophale) SiO2 
 PCOD9555271
Probable space group: P -4 2 C
;
_chemical_formula_sum "Si O2"
_cell_formula_units_Z 40
_cell_length_a 13.554667
_cell_length_b 13.554667
_cell_length_c 9.509218
_cell_angle_alpha 90.000000
_cell_angle_beta 90.000000
_cell_angle_gamma 90.000000
_cell_volume 1747.119090
_symmetry_space_group_name_H-M "P -4 2 C"
_symmetry_group_IT_number 112
_symmetry_cell_setting 'tetragonal'
loop_
_space_group_symop_operation_xyz
x,y,z
y,-x,-z
-x,-y,z
-y,x,-z
x,-y,1/2-z
-x,y,1/2-z
-y,-x,1/2+z
y,x,1/2+z
loop_
_atom_site_type_symbol
_atom_site_label
_atom_site_fract_x
_atom_site_fract_y
_atom_site_fract_z
Si Si1 0.000000 0.000000 0.000000
Si Si2 0.000000 0.500000 0.250000
Si Si3 0.213855 0.953915 0.601184
Si Si4 0.663715 0.600579 0.673432
Si Si5 0.374400 0.908613 0.003820
Si Si6 0.500000 0.500000 0.500000
Si Si7 0.500000 0.000000 0.250000
Si Si8 0.709446 0.265351 0.571319
O O1 0.965893 0.097556 0.080844
O O2 0.065768 0.435937 0.138967
O O3 0.245903 0.841160 0.598295
O O4 0.238405 0.000000 0.750000
O O5 0.279654 0.018017 0.494646
O O6 0.691055 0.500000 0.750000
O O7 0.560260 0.576757 0.595740
O O8 0.739247 0.629283 0.551500
O O9 0.664023 0.685068 0.790498
O O10 0.335280 0.797275 0.013417
O O11 0.436212 0.933878 0.142974
#
# Coordination Sequence:
#
# PCOD9555271 Si02
#       8
#     2   2   8   8   8   2   2   8
#     4  12  26  48  84 118 164 202 256 344 394 462
#     4  10  24  50  76 100 154 214 244 322 388 476
#     4  12  26  51  78 116 157 208 261 319 397 481
#     4  12  28  50  77 114 154 205 263 330 388 468
#     4  11  25  49  74 112 155 200 261 314 396 473
#     4  12  26  56  78 116 158 212 270 324 410 460
#     4  10  28  42  72 108 152 196 248 326 380 460
#     4  12  29  48  81 116 155 206 263 323 392 476
#
# _framework density 22.894832999999998
#
# number of rings (size 3 to 8) (size 9 to 14) (size 15 to 20)
#    0.000    0.400    5.000    1.800    4.200    1.600 
#    3.600    0.000    0.000    0.000    0.000    0.000 
#    0.000    0.000    0.000    0.000    0.000    0.000 
#
# Total GULP energy -224014.002955 kJ/mol
# GULP energy per Si atom -5600.350074 kJ/mol
# Density = 2.284272 g / cm^3
# Si number density = 22.894833 Si / 1000 Ang^3
#
#
#
# Elastic Constant Matrix: (Units=GPa)
#
#
# Indices 1 2 3 4 5 6 
#
# 1 125.7588 39.7204 65.1068 0.0000 0.0000 0.0000
# 2 39.7204 125.7588 65.1068 0.0000 0.0000 0.0000
# 3 65.1068 65.1068 164.7398 0.0000 0.0000 0.0000
# 4 0.0000 0.0000 0.0000 -94.2024 0.0000 0.0000
# 5 0.0000 0.0000 0.0000 0.0000 -94.2024 0.0000
# 6 0.0000 0.0000 0.0000 0.0000 0.0000 35.4253
#
#
#
# Elastic Compliance Matrix: (Units=1/GPa)
#
#
# Indices 1 2 3 4 5 6 
#
# 1 0.010197 -0.001426 -0.003466 0.000000 0.000000 0.000000
# 2 -0.001426 0.010197 -0.003466 0.000000 0.000000 0.000000
# 3 -0.003466 -0.003466 0.008810 0.000000 0.000000 0.000000
# 4 0.000000 0.000000 0.000000 -0.010615 0.000000 0.000000
# 5 0.000000 0.000000 0.000000 0.000000 -0.010615 0.000000
# 6 0.000000 0.000000 0.000000 0.000000 0.000000 0.028228
#
#
# Mechanical properties :
#
#
# Convention : Reuss Voigt Hill
#
# Bulk Modulus (GPa) = 80.08824 84.01394 82.05109
# Shear Modulus (GPa) = 87.59666 -14.17431 36.71117
#
# Velocity S-wave (km/s) = 6.19221 -2.49088 4.00868
# Velocity P-wave (km/s) = 9.28340 5.33878 7.57245
#
# Compressibility (1/GPa) = 0.01248623
#
# Stress axis : x y z
#
# Youngs Moduli (GPa) = 98.07148 98.07148 113.50813
#
# Poissons Ratio (x) = 0.13986 0.39344
# Poissons Ratio (y) = 0.13986 0.39344
# Poissons Ratio (z) = 0.33994 0.33994
#
# Static dielectric constant tensor:
#      x y z
#    x 1.907900 0.000000 0.000000 
#    y 0.000000 1.907900 0.000000 
#    z 0.000000 0.000000 1.914270 
# 
# From -- ./inp_files/1340.got.cif
#   From: 2010.05.17/outbox.cif.g08.bks.cpg/sg112_1_cif.got.tgz:1340.got - 2010.05.20 10:59:04.
