data_PCOD9555402
_publ_section_title
;
Structure prediction by ZEFSAII (Michael W. Deem and Ramdas Pophale) SiO2 
 PCOD9555402
Probable space group: P -4 2 C
;
_chemical_formula_sum "Si O2"
_cell_formula_units_Z 24
_cell_length_a 8.530982
_cell_length_b 8.530982
_cell_length_c 13.461135
_cell_angle_alpha 90.000000
_cell_angle_beta 90.000000
_cell_angle_gamma 90.000000
_cell_volume 979.669824
_symmetry_space_group_name_H-M "P -4 2 C"
_symmetry_group_IT_number 112
_symmetry_cell_setting 'tetragonal'
loop_
_space_group_symop_operation_xyz
x,y,z
y,-x,-z
-x,-y,z
-y,x,-z
x,-y,1/2-z
-x,y,1/2-z
-y,-x,1/2+z
y,x,1/2+z
loop_
_atom_site_type_symbol
_atom_site_label
_atom_site_fract_x
_atom_site_fract_y
_atom_site_fract_z
Si Si1 0.360358 0.624043 0.148134
Si Si2 0.148580 0.400432 0.037592
Si Si3 0.178823 0.167674 0.708443
O O1 0.500000 0.500000 0.152970
O O2 0.212006 0.516706 0.122235
O O3 0.312617 0.731047 0.240955
O O4 0.389638 0.734566 0.054256
O O5 0.150966 0.229523 0.092359
O O6 0.000000 0.500000 0.000125
O O7 0.000000 0.181273 0.750000
O O8 0.234372 0.000000 0.750000
#
# Coordination Sequence:
#
# PCOD9555402 Si02
#       3
#     8   8   8
#     4  12  26  48  74 110 149 200 258 310 381 461
#     4  12  25  48  74 108 152 199 252 314 390 456
#     4  11  27  47  76 114 152 201 254 318 392 457
#
# _framework density 24.498051
#
# number of rings (size 3 to 8) (size 9 to 14) (size 15 to 20)
#    0.000    0.333    6.667    1.000    4.667    4.000 
#    0.000    5.000    0.000    0.000    0.000    0.000 
#    0.000    0.000    0.000    0.000    0.000    0.000 
#
# Total GULP energy -134021.919389 kJ/mol
# GULP energy per Si atom -5584.246641 kJ/mol
# Density = 2.444229 g / cm^3
# Si number density = 24.498051 Si / 1000 Ang^3
#
#
#
# Elastic Constant Matrix: (Units=GPa)
#
#
# Indices 1 2 3 4 5 6 
#
# 1 130.6478 49.7077 52.1819 0.0000 0.0000 0.0000
# 2 49.7077 130.6478 52.1819 0.0000 0.0000 0.0000
# 3 52.1819 52.1819 140.1064 0.0000 0.0000 0.0000
# 4 0.0000 0.0000 0.0000 35.2178 0.0000 0.0000
# 5 0.0000 0.0000 0.0000 0.0000 35.2178 0.0000
# 6 0.0000 0.0000 0.0000 0.0000 0.0000 43.2290
#
#
#
# Elastic Compliance Matrix: (Units=1/GPa)
#
#
# Indices 1 2 3 4 5 6 
#
# 1 0.009711 -0.002643 -0.002632 0.000000 0.000000 0.000000
# 2 -0.002643 0.009711 -0.002632 0.000000 0.000000 0.000000
# 3 -0.002632 -0.002632 0.009098 0.000000 0.000000 0.000000
# 4 0.000000 0.000000 0.000000 0.028395 0.000000 0.000000
# 5 0.000000 0.000000 0.000000 0.000000 0.028395 0.000000
# 6 0.000000 0.000000 0.000000 0.000000 0.000000 0.023133
#
#
# Mechanical properties :
#
#
# Convention : Reuss Voigt Hill
#
# Bulk Modulus (GPa) = 78.71268 78.83833 78.77551
# Shear Modulus (GPa) = 38.91223 39.22163 39.06693
#
# Velocity S-wave (km/s) = 3.98977 4.00560 3.99770
# Velocity P-wave (km/s) = 7.30919 7.32424 7.31672
#
# Compressibility (1/GPa) = 0.01270443
#
# Stress axis : x y z
#
# Youngs Moduli (GPa) = 102.97252 102.97252 109.91108
#
# Poissons Ratio (x) = 0.27221 0.28933
# Poissons Ratio (y) = 0.27221 0.28933
# Poissons Ratio (z) = 0.27106 0.27106
#
# Static dielectric constant tensor:
#      x y z
#    x 2.053770 0.000000 0.000000 
#    y 0.000000 2.053770 0.000000 
#    z 0.000000 0.000000 1.977140 
# 
# From -- ./inp_files/2977.got.cif
#   From: 2010.05.17/outbox.cif.g08.bks.cpg/sg112_2_cif.got.tgz:2977.got - 2010.05.20 10:59:04.
