data_PCOD9555898
_publ_section_title
;
Structure prediction by ZEFSAII (Michael W. Deem and Ramdas Pophale) SiO2 
 PCOD9555898
Probable space group: P -4 21 C
;
_chemical_formula_sum "Si O2"
_cell_formula_units_Z 40
_cell_length_a 11.110814
_cell_length_b 11.110814
_cell_length_c 15.080565
_cell_angle_alpha 90.000000
_cell_angle_beta 90.000000
_cell_angle_gamma 90.000000
_cell_volume 1861.698581
_symmetry_space_group_name_H-M "P -4 21 C"
_symmetry_group_IT_number 114
_symmetry_cell_setting 'tetragonal'
loop_
_space_group_symop_operation_xyz
x,y,z
y,-x,-z
-x,-y,z
-y,x,-z
1/2+x,1/2-y,1/2-z
1/2-x,1/2+y,1/2-z
1/2-y,1/2-x,1/2+z
1/2+y,1/2+x,1/2+z
loop_
_atom_site_type_symbol
_atom_site_label
_atom_site_fract_x
_atom_site_fract_y
_atom_site_fract_z
Si Si1 0.357405 0.023798 0.408621
Si Si2 0.950810 0.836247 0.956161
Si Si3 0.267358 0.606328 0.684806
Si Si4 0.690349 0.163744 0.773833
Si Si5 0.077626 0.384828 0.418615
O O1 0.346076 0.161319 0.379817
O O2 0.500000 0.000000 0.416645
O O3 0.319398 0.931918 0.330954
O O4 0.309010 0.993306 0.506922
O O5 0.895976 0.872653 0.861554
O O6 0.931591 0.696724 0.968053
O O7 0.086671 0.875450 0.972526
O O8 0.255234 0.700128 0.767537
O O9 0.250246 0.462353 0.693846
O O10 0.673237 0.125501 0.670964
O O11 0.000000 0.500000 0.390140
#
# Coordination Sequence:
#
# PCOD9555898 Si02
#       5
#     8   8   8   8   8
#     4   9  18  37  59  85 122 161 216 256 300 393
#     4  10  20  36  56  97 127 149 202 270 333 367
#     4  10  21  41  61  89 130 163 215 269 322 391
#     4  10  21  40  60  96 122 171 214 263 324 387
#     4  10  19  36  62  88 122 171 214 249 315 392
#
# _framework density 21.485752999999999
#
# number of rings (size 3 to 8) (size 9 to 14) (size 15 to 20)
#    0.000    2.200    0.000    5.400    0.000    0.000 
#   43.200    0.000    0.000    0.000    0.000    0.000 
#    0.000    0.000    0.000    0.000    0.000    0.000 
#
# Total GULP energy -222697.150201 kJ/mol
# GULP energy per Si atom -5567.428755 kJ/mol
# Density = 2.143685 g / cm^3
# Si number density = 21.485753 Si / 1000 Ang^3
#
#
#
# Elastic Constant Matrix: (Units=GPa)
#
#
# Indices 1 2 3 4 5 6 
#
# 1 47.1347 15.1547 -1.3868 0.0000 0.0000 0.0000
# 2 15.1547 47.1347 -1.3868 0.0000 0.0000 0.0000
# 3 -1.3868 -1.3868 75.7449 0.0000 0.0000 0.0000
# 4 0.0000 0.0000 0.0000 29.9882 0.0000 0.0000
# 5 0.0000 0.0000 0.0000 0.0000 29.9882 0.0000
# 6 0.0000 0.0000 0.0000 0.0000 0.0000 8.1499
#
#
#
# Elastic Compliance Matrix: (Units=1/GPa)
#
#
# Indices 1 2 3 4 5 6 
#
# 1 0.023668 -0.007601 0.000294 0.000000 0.000000 0.000000
# 2 -0.007601 0.023668 0.000294 0.000000 0.000000 0.000000
# 3 0.000294 0.000294 0.013213 0.000000 0.000000 0.000000
# 4 0.000000 0.000000 0.000000 0.033346 0.000000 0.000000
# 5 0.000000 0.000000 0.000000 0.000000 0.033346 0.000000
# 6 0.000000 0.000000 0.000000 0.000000 0.000000 0.122701
#
#
# Mechanical properties :
#
#
# Convention : Reuss Voigt Hill
#
# Bulk Modulus (GPa) = 21.49424 21.64182 21.56803
# Shear Modulus (GPa) = 17.89052 24.13413 21.01233
#
# Velocity S-wave (km/s) = 2.88873 3.35515 3.13064
# Velocity P-wave (km/s) = 4.59913 5.01037 4.80915
#
# Compressibility (1/GPa) = 0.04652409
#
# Stress axis : x y z
#
# Youngs Moduli (GPa) = 42.25043 42.25043 75.68311
#
# Poissons Ratio (x) = 0.32115 -0.02226
# Poissons Ratio (y) = 0.32115 -0.02226
# Poissons Ratio (z) = -0.01243 -0.01243
#
# Static dielectric constant tensor:
#      x y z
#    x 1.813120 0.000000 0.000000 
#    y 0.000000 1.813120 0.000000 
#    z 0.000000 0.000000 1.910990 
# 
# From -- ./inp_files/2124.got.cif
#   From: 2010.05.17/outbox.cif.g08.bks.cpg/sg114_2_cif.got.tgz:2124.got - 2010.05.20 11:04:54.
