data_PCOD9555350
_publ_section_title
;
Structure prediction by ZEFSAII (Michael W. Deem and Ramdas Pophale) SiO2 
 PCOD9555350
Probable space group: P -4 2 C
;
_chemical_formula_sum "Si O2"
_cell_formula_units_Z 16
_cell_length_a 7.722989
_cell_length_b 7.722989
_cell_length_c 13.865667
_cell_angle_alpha 90.000000
_cell_angle_beta 90.000000
_cell_angle_gamma 90.000000
_cell_volume 827.011595
_symmetry_space_group_name_H-M "P -4 2 C"
_symmetry_group_IT_number 112
_symmetry_cell_setting 'tetragonal'
loop_
_space_group_symop_operation_xyz
x,y,z
y,-x,-z
-x,-y,z
-y,x,-z
x,-y,1/2-z
-x,y,1/2-z
-y,-x,1/2+z
y,x,1/2+z
loop_
_atom_site_type_symbol
_atom_site_label
_atom_site_fract_x
_atom_site_fract_y
_atom_site_fract_z
Si Si1 0.776969 0.168172 0.493858
Si Si2 0.481090 0.707799 0.860704
O O1 0.626715 0.207178 0.571033
O O2 0.749662 0.293526 0.403455
O O3 0.966870 0.217224 0.533932
O O4 0.500000 0.500000 0.866511
O O5 0.500000 0.762070 0.750000
#
# Coordination Sequence:
#
# PCOD9555350 Si02
#       2
#     8   8
#     4  11  23  40  64  92 123 161 204 248 300 361
#     4  11  23  41  65  91 123 162 203 250 304 360
#
# _framework density 19.346767
#
# number of rings (size 3 to 8) (size 9 to 14) (size 15 to 20)
#    0.000    1.000    5.000    1.500    0.000    6.000 
#    0.000   10.000    0.000    0.000    0.000    0.000 
#    0.000    0.000    0.000    0.000    0.000    0.000 
#
# Total GULP energy -89443.169103 kJ/mol
# GULP energy per Si atom -5590.198069 kJ/mol
# Density = 1.930273 g / cm^3
# Si number density = 19.346767 Si / 1000 Ang^3
#
#
#
# Elastic Constant Matrix: (Units=GPa)
#
#
# Indices 1 2 3 4 5 6 
#
# 1 66.1092 -18.9560 -1.9742 0.0000 0.0000 0.0000
# 2 -18.9560 66.1092 -1.9742 0.0000 0.0000 0.0000
# 3 -1.9742 -1.9742 84.1183 0.0000 0.0000 0.0000
# 4 0.0000 0.0000 0.0000 -0.8706 0.0000 0.0000
# 5 0.0000 0.0000 0.0000 0.0000 -0.8706 0.0000
# 6 0.0000 0.0000 0.0000 0.0000 0.0000 31.4916
#
#
#
# Elastic Compliance Matrix: (Units=1/GPa)
#
#
# Indices 1 2 3 4 5 6 
#
# 1 0.016502 0.004747 0.000499 0.000000 0.000000 0.000000
# 2 0.004747 0.016502 0.000499 0.000000 0.000000 0.000000
# 3 0.000499 0.000499 0.011911 0.000000 0.000000 0.000000
# 4 0.000000 0.000000 0.000000 -1.148683 0.000000 0.000000
# 5 0.000000 0.000000 0.000000 0.000000 -1.148683 0.000000
# 6 0.000000 0.000000 0.000000 0.000000 0.000000 0.031754
#
#
# Mechanical properties :
#
#
# Convention : Reuss Voigt Hill
#
# Bulk Modulus (GPa) = 17.72904 18.94756 18.33830
# Shear Modulus (GPa) = -2.25899 21.89951 9.82026
#
# Velocity S-wave (km/s) = -1.08174 3.36809 2.25542
# Velocity P-wave (km/s) = 2.76107 4.99403 4.03508
#
# Compressibility (1/GPa) = 0.05640463
#
# Stress axis : x y z
#
# Youngs Moduli (GPa) = 60.59710 60.59710 83.95295
#
# Poissons Ratio (x) = -0.28764 -0.04187
# Poissons Ratio (y) = -0.28764 -0.04187
# Poissons Ratio (z) = -0.03022 -0.03022
#
# Static dielectric constant tensor:
#      x y z
#    x 1.685800 0.000000 0.000000 
#    y 0.000000 1.685800 0.000000 
#    z 0.000000 0.000000 1.636730 
# 
# From -- ./inp_files/1681.got.cif
#   From: 2010.05.17/outbox.cif.g08.bks.cpg/sg112_1_cif.got.tgz:1681.got - 2010.05.20 10:59:04.
