data_PCOD9555144
_publ_section_title
;
Structure prediction by ZEFSAII (Michael W. Deem and Ramdas Pophale) SiO2 
 PCOD9555144
Probable space group: P -4 2 C
;
_chemical_formula_sum "Si O2"
_cell_formula_units_Z 34
_cell_length_a 7.423300
_cell_length_b 7.423300
_cell_length_c 27.898180
_cell_angle_alpha 90.000000
_cell_angle_beta 90.000000
_cell_angle_gamma 90.000000
_cell_volume 1537.339891
_symmetry_space_group_name_H-M "P -4 2 C"
_symmetry_group_IT_number 112
_symmetry_cell_setting 'tetragonal'
loop_
_space_group_symop_operation_xyz
x,y,z
y,-x,-z
-x,-y,z
-y,x,-z
x,-y,1/2-z
-x,y,1/2-z
-y,-x,1/2+z
y,x,1/2+z
loop_
_atom_site_type_symbol
_atom_site_label
_atom_site_fract_x
_atom_site_fract_y
_atom_site_fract_z
Si Si1 0.818967 0.746086 0.397208
Si Si2 0.000000 0.000000 0.250000
Si Si3 0.308490 0.943962 0.323231
Si Si4 0.337019 0.769756 0.893143
Si Si5 0.722306 0.295194 0.998375
O O1 0.723727 0.548705 0.395662
O O2 0.811287 0.789892 0.454401
O O3 0.021164 0.697912 0.381704
O O4 0.748994 0.900941 0.361920
O O5 0.854885 0.910116 0.213792
O O6 0.342298 0.764109 0.353398
O O7 0.500000 0.000000 0.301867
O O8 0.235468 0.752266 0.943981
O O9 0.509923 0.251058 0.000560
#
# Coordination Sequence:
#
# PCOD9555144 Si02
#       5
#     8   2   8   8   8
#     4  10  21  39  63  95 135 174 213 258 308 374
#     4  12  26  52  66 100 124 150 218 276 338 400
#     4  12  25  45  72  93 123 166 209 269 331 386
#     4  10  21  39  63  95 135 174 213 258 308 374
#     4   9  18  32  53  88 132 172 213 251 294 368
#
# _framework density 22.116123000000002
#
# number of rings (size 3 to 8) (size 9 to 14) (size 15 to 20)
#    0.000    1.647    2.353    1.765    3.294    2.824 
#    0.000    2.353    0.000    2.824    0.000    0.000 
#    0.000    0.000    0.000    0.000    0.000    0.000 
#
# Total GULP energy -189564.437288 kJ/mol
# GULP energy per Si atom -5575.424626 kJ/mol
# Density = 2.206579 g / cm^3
# Si number density = 22.116123 Si / 1000 Ang^3
#
#
#
# Elastic Constant Matrix: (Units=GPa)
#
#
# Indices 1 2 3 4 5 6 
#
# 1 52.7923 -19.4347 23.1801 0.0000 0.0000 0.0000
# 2 -19.4347 52.7923 23.1801 0.0000 0.0000 0.0000
# 3 23.1801 23.1801 122.7010 0.0000 0.0000 0.0000
# 4 0.0000 0.0000 0.0000 82.3906 0.0000 0.0000
# 5 0.0000 0.0000 0.0000 0.0000 82.3906 0.0000
# 6 0.0000 0.0000 0.0000 0.0000 0.0000 19.4179
#
#
#
# Elastic Compliance Matrix: (Units=1/GPa)
#
#
# Indices 1 2 3 4 5 6 
#
# 1 0.027248 0.013403 -0.007680 0.000000 0.000000 0.000000
# 2 0.013403 0.027248 -0.007680 0.000000 0.000000 0.000000
# 3 -0.007680 -0.007680 0.011052 0.000000 0.000000 0.000000
# 4 0.000000 0.000000 0.000000 0.012137 0.000000 0.000000
# 5 0.000000 0.000000 0.000000 0.000000 0.012137 0.000000
# 6 0.000000 0.000000 0.000000 0.000000 0.000000 0.051499
#
#
# Mechanical properties :
#
#
# Convention : Reuss Voigt Hill
#
# Bulk Modulus (GPa) = 16.22444 31.34853 23.78649
# Shear Modulus (GPa) = 30.16061 50.26382 40.21221
#
# Velocity S-wave (km/s) = 3.69689 4.77248 4.26870
# Velocity P-wave (km/s) = 5.05713 6.67638 5.92236
#
# Compressibility (1/GPa) = 0.06163539
#
# Stress axis : x y z
#
# Youngs Moduli (GPa) = 36.69962 36.69962 90.48538
#
# Poissons Ratio (x) = -0.49189 0.69490
# Poissons Ratio (y) = -0.49189 0.69490
# Poissons Ratio (z) = 0.28184 0.28184
#
# Static dielectric constant tensor:
#      x y z
#    x 1.839790 0.000000 0.000000 
#    y 0.000000 1.839790 0.000000 
#    z 0.000000 0.000000 1.835710 
# 
# From -- ./inp_files/5737.got.cif
#   From: 2010.05.17/outbox.cif.g08.bks.cpg/sg112_3_cif.got.tgz:5737.got - 2010.05.20 10:59:04.
