data_PCOD9555059
_publ_section_title
;
Structure prediction by ZEFSAII (Michael W. Deem and Ramdas Pophale) SiO2 
 PCOD9555059
Probable space group: P -4 2 C
;
_chemical_formula_sum "Si O2"
_cell_formula_units_Z 34
_cell_length_a 10.814174
_cell_length_b 10.814174
_cell_length_c 11.124625
_cell_angle_alpha 90.000000
_cell_angle_beta 90.000000
_cell_angle_gamma 90.000000
_cell_volume 1300.984392
_symmetry_space_group_name_H-M "P -4 2 C"
_symmetry_group_IT_number 112
_symmetry_cell_setting 'tetragonal'
loop_
_space_group_symop_operation_xyz
x,y,z
y,-x,-z
-x,-y,z
-y,x,-z
x,-y,1/2-z
-x,y,1/2-z
-y,-x,1/2+z
y,x,1/2+z
loop_
_atom_site_type_symbol
_atom_site_label
_atom_site_fract_x
_atom_site_fract_y
_atom_site_fract_z
Si Si1 0.125229 0.391360 0.152138
Si Si2 0.802242 0.037477 0.012099
Si Si3 0.000000 0.500000 0.750000
Si Si4 0.687584 0.461356 0.534940
Si Si5 0.690603 0.193918 0.233764
O O1 0.113401 0.500000 0.250000
O O2 0.020405 0.307714 0.085854
O O3 0.212037 0.282293 0.202995
O O4 0.188431 0.460055 0.040585
O O5 0.754835 0.107989 0.131372
O O6 0.909425 0.128841 0.961076
O O7 0.099941 0.401692 0.694443
O O8 0.592927 0.375752 0.459790
O O9 0.712077 0.395665 0.659410
#
# Coordination Sequence:
#
# PCOD9555059 Si02
#       5
#     8   8   2   8   8
#     4  11  22  42  70 107 143 186 245 308 372 446
#     4  10  24  47  73 100 141 195 246 303 372 444
#     4  12  24  40  66 102 134 188 236 306 358 456
#     4  10  20  36  60  92 136 185 225 283 359 439
#     4  11  23  41  65  99 138 180 237 298 366 436
#
# _framework density 26.134056999999999
#
# number of rings (size 3 to 8) (size 9 to 14) (size 15 to 20)
#    0.000    1.412    2.353    2.824    0.000    2.824 
#    0.000    3.529    0.000    0.000    0.000    0.000 
#    0.000    0.000    0.000    0.000    0.000    0.000 
#
# Total GULP energy -189936.433147 kJ/mol
# GULP energy per Si atom -5586.365681 kJ/mol
# Density = 2.607457 g / cm^3
# Si number density = 26.134057 Si / 1000 Ang^3
#
#
#
# Elastic Constant Matrix: (Units=GPa)
#
#
# Indices 1 2 3 4 5 6 
#
# 1 122.2530 67.7927 41.1957 0.0000 0.0000 0.0000
# 2 67.7927 122.2530 41.1957 0.0000 0.0000 0.0000
# 3 41.1957 41.1957 92.3443 0.0000 0.0000 0.0000
# 4 0.0000 0.0000 0.0000 40.4688 0.0000 0.0000
# 5 0.0000 0.0000 0.0000 0.0000 40.4688 0.0000
# 6 0.0000 0.0000 0.0000 0.0000 0.0000 57.8716
#
#
#
# Elastic Compliance Matrix: (Units=1/GPa)
#
#
# Indices 1 2 3 4 5 6 
#
# 1 0.012443 -0.005919 -0.002910 0.000000 0.000000 0.000000
# 2 -0.005919 0.012443 -0.002910 0.000000 0.000000 0.000000
# 3 -0.002910 -0.002910 0.013426 0.000000 0.000000 0.000000
# 4 0.000000 0.000000 0.000000 0.024710 0.000000 0.000000
# 5 0.000000 0.000000 0.000000 0.000000 0.024710 0.000000
# 6 0.000000 0.000000 0.000000 0.000000 0.000000 0.017280
#
#
# Mechanical properties :
#
#
# Convention : Reuss Voigt Hill
#
# Bulk Modulus (GPa) = 67.42257 70.80207 69.11232
# Shear Modulus (GPa) = 37.47145 40.20624 38.83884
#
# Velocity S-wave (km/s) = 3.79069 3.92658 3.85923
# Velocity P-wave (km/s) = 6.70923 6.90710 6.80889
#
# Compressibility (1/GPa) = 0.01483183
#
# Stress axis : x y z
#
# Youngs Moduli (GPa) = 80.36782 80.36782 74.48450
#
# Poissons Ratio (x) = 0.47571 0.21677
# Poissons Ratio (y) = 0.47571 0.21677
# Poissons Ratio (z) = 0.23389 0.23389
#
# Static dielectric constant tensor:
#      x y z
#    x 2.062220 0.000000 0.000000 
#    y 0.000000 2.062220 0.000000 
#    z 0.000000 0.000000 2.062630 
# 
# From -- ./inp_files/2252.got.cif
#   From: 2010.05.17/outbox.cif.g08.bks.cpg/sg112_2_cif.got.tgz:2252.got - 2010.05.20 10:59:04.
