data_PCOD9555921
_publ_section_title
;
Structure prediction by ZEFSAII (Michael W. Deem and Ramdas Pophale) SiO2 
 PCOD9555921
Probable space group: P -4 21 C
;
_chemical_formula_sum "Si O2"
_cell_formula_units_Z 52
_cell_length_a 16.494364
_cell_length_b 16.494364
_cell_length_c 8.849032
_cell_angle_alpha 90.000000
_cell_angle_beta 90.000000
_cell_angle_gamma 90.000000
_cell_volume 2407.503429
_symmetry_space_group_name_H-M "P -4 21 C"
_symmetry_group_IT_number 114
_symmetry_cell_setting 'tetragonal'
loop_
_space_group_symop_operation_xyz
x,y,z
y,-x,-z
-x,-y,z
-y,x,-z
1/2+x,1/2-y,1/2-z
1/2-x,1/2+y,1/2-z
1/2-y,1/2-x,1/2+z
1/2+y,1/2+x,1/2+z
loop_
_atom_site_type_symbol
_atom_site_label
_atom_site_fract_x
_atom_site_fract_y
_atom_site_fract_z
Si Si1 0.569612 0.759016 0.695172
Si Si2 0.050685 0.347507 0.345210
Si Si3 0.890342 0.924294 0.989882
Si Si4 0.213650 0.879007 0.202560
Si Si5 0.812081 0.665271 0.584969
Si Si6 0.000000 0.500000 0.176605
Si Si7 0.359077 0.101183 0.486476
O O1 0.593324 0.672251 0.625215
O O2 0.471074 0.749703 0.715744
O O3 0.601502 0.821414 0.567002
O O4 0.607434 0.793315 0.851546
O O5 0.103590 0.347656 0.496122
O O6 0.098078 0.299754 0.214635
O O7 0.048353 0.438503 0.282270
O O8 0.959472 0.323586 0.385735
O O9 0.874852 0.881171 0.828977
O O10 0.979635 0.893552 0.032421
O O11 0.248855 0.823174 0.333934
O O12 0.247848 0.843674 0.045745
O O13 0.064069 0.552790 0.083989
#
# Coordination Sequence:
#
# PCOD9555921 Si02
#       7
#     8   8   8   8   8   4   8
#     4  11  23  35  54  88 119 154 205 229 280 341
#     4  11  19  28  43  75 124 173 189 204 246 323
#     4   9  21  44  68  81  97 138 200 272 311 338
#     4  10  20  37  57  86 117 152 198 229 287 346
#     4  10  20  31  50  83 123 157 184 222 265 343
#     4  12  20  26  46  72 130 178 196 190 236 322
#     4  12  22  30  49  84 132 167 186 220 259 346
#
# _framework density 21.599138
#
# number of rings (size 3 to 8) (size 9 to 14) (size 15 to 20)
#    0.000    1.385    4.615    2.308    2.154    1.231 
#    0.000    0.000    0.000    0.000    0.000    0.000 
#    4.615    0.000    0.000    0.000    0.000    0.000 
#
# Total GULP energy -290331.897246 kJ/mol
# GULP energy per Si atom -5583.305716 kJ/mol
# Density = 2.154998 g / cm^3
# Si number density = 21.599138 Si / 1000 Ang^3
#
#
#
# Elastic Constant Matrix: (Units=GPa)
#
#
# Indices 1 2 3 4 5 6 
#
# 1 30.8992 7.5931 5.2288 0.0000 0.0000 0.0000
# 2 7.5931 30.8992 5.2288 0.0000 0.0000 0.0000
# 3 5.2288 5.2288 79.7005 0.0000 0.0000 0.0000
# 4 0.0000 0.0000 0.0000 -6.6239 0.0000 0.0000
# 5 0.0000 0.0000 0.0000 0.0000 -6.6239 0.0000
# 6 0.0000 0.0000 0.0000 0.0000 0.0000 14.1175
#
#
#
# Elastic Compliance Matrix: (Units=1/GPa)
#
#
# Indices 1 2 3 4 5 6 
#
# 1 0.034679 -0.008228 -0.001735 0.000000 0.000000 0.000000
# 2 -0.008228 0.034679 -0.001735 0.000000 0.000000 0.000000
# 3 -0.001735 -0.001735 0.012775 0.000000 0.000000 0.000000
# 4 0.000000 0.000000 0.000000 -0.150969 0.000000 0.000000
# 5 0.000000 0.000000 0.000000 0.000000 -0.150969 0.000000
# 6 0.000000 0.000000 0.000000 0.000000 0.000000 0.070834
#
#
# Mechanical properties :
#
#
# Convention : Reuss Voigt Hill
#
# Bulk Modulus (GPa) = 17.02571 19.73337 18.37954
# Shear Modulus (GPa) = -47.17203 8.40383 -19.38410
#
# Velocity S-wave (km/s) = -4.67837 1.97466 -2.99899
# Velocity P-wave (km/s) = 4.61337 3.78880 1.86121
#
# Compressibility (1/GPa) = 0.05873470
#
# Stress axis : x y z
#
# Youngs Moduli (GPa) = 28.83596 28.83596 78.27996
#
# Poissons Ratio (x) = 0.23727 0.13584
# Poissons Ratio (y) = 0.23727 0.13584
# Poissons Ratio (z) = 0.05004 0.05004
#
# Static dielectric constant tensor:
#      x y z
#    x 1.854380 0.000000 0.000000 
#    y 0.000000 1.854380 0.000000 
#    z 0.000000 0.000000 1.800110 
# 
# From -- ./inp_files/982.got.cif
#   From: 2010.05.17/outbox.cif.g08.bks.cpg/sg114_1_cif.got.tgz:982.got - 2010.05.20 11:04:54.
