data_PCOD9555446
_publ_section_title
;
Structure prediction by ZEFSAII (Michael W. Deem and Ramdas Pophale) SiO2 
 PCOD9555446
Probable space group: P -4 21 M 
;
_chemical_formula_sum "Si O2"
_cell_formula_units_Z 56
_cell_length_a 16.506715
_cell_length_b 16.506715
_cell_length_c 13.259282
_cell_angle_alpha 90.000000
_cell_angle_beta 90.000000
_cell_angle_gamma 90.000000
_cell_volume 3612.778313
_symmetry_space_group_name_H-M "P -4 21 M "
_symmetry_group_IT_number 113
_symmetry_cell_setting 'tetragonal'
loop_
_space_group_symop_operation_xyz
x,y,z
y,-x,-z
-x,-y,z
-y,x,-z
1/2+x,1/2-y,-z
1/2-x,1/2+y,-z
1/2-y,1/2-x,z
1/2+y,1/2+x,z
loop_
_atom_site_type_symbol
_atom_site_label
_atom_site_fract_x
_atom_site_fract_y
_atom_site_fract_z
Si Si1 0.487472 0.258179 0.343789
Si Si2 0.500146 0.863458 0.531888
Si Si3 0.612487 0.561961 0.527612
Si Si4 0.688636 0.675886 0.365778
Si Si5 0.636170 0.998310 0.166648
Si Si6 0.940367 0.698019 0.260788
Si Si7 0.635686 0.996450 0.937222
O O1 0.495852 0.200768 0.442069
O O2 0.536774 0.339765 0.371627
O O3 0.393710 0.281951 0.331907
O O4 0.511942 0.206358 0.247105
O O5 0.576840 0.923161 0.527428
O O6 0.494724 0.820569 0.640883
O O7 0.420616 0.920616 0.520746
O O8 0.599549 0.477547 0.465774
O O9 0.666513 0.624581 0.464922
O O10 0.758043 0.741958 0.385565
O O11 0.723404 0.612855 0.284295
O O12 0.583215 0.916786 0.188174
O O13 0.571252 0.071252 0.172500
O O14 0.667425 0.993001 0.051523
O O15 0.876766 0.623235 0.257697
O O16 0.985945 0.695906 0.154500
O O17 0.585068 0.914933 0.916824
O O18 0.568371 0.068371 0.938101
#
# Coordination Sequence:
#
# PCOD9555446 Si02
#       7
#     8   8   8   8   8   8   8
#     4  11  19  29  45  68  97 124 153 190 236 280
#     4  10  18  26  40  66  98 125 148 181 230 286
#     4   9  19  34  49  64  88 126 166 195 222 271
#     4  10  19  30  46  69  93 120 156 197 239 279
#     4   9  17  28  44  69  98 127 157 187 229 288
#     4   9  16  27  42  63  86 115 153 189 223 265
#     4   8  14  26  44  64  88 119 155 189 220 269
#
# _framework density 15.500537
#
# number of rings (size 3 to 8) (size 9 to 14) (size 15 to 20)
#    0.000    2.571    1.429    3.000    0.000    3.429 
#    0.000    0.000    0.000    1.714    0.000    2.000 
#    0.000    0.000    0.000    0.000    0.000    0.000 
#
# Total GULP energy -311868.748480 kJ/mol
# GULP energy per Si atom -5569.084794 kJ/mol
# Density = 1.546526 g / cm^3
# Si number density = 15.500537 Si / 1000 Ang^3
#
#
#
# Elastic Constant Matrix: (Units=GPa)
#
#
# Indices 1 2 3 4 5 6 
#
# 1 38.4300 13.0469 18.0713 0.0000 0.0000 0.0000
# 2 13.0469 38.4294 18.0709 0.0000 0.0000 0.0000
# 3 18.0713 18.0709 72.8967 0.0000 0.0000 0.0000
# 4 0.0000 0.0000 0.0000 7.6411 0.0000 0.0000
# 5 0.0000 0.0000 0.0000 0.0000 7.6406 0.0000
# 6 0.0000 0.0000 0.0000 0.0000 0.0000 16.5818
#
#
#
# Elastic Compliance Matrix: (Units=1/GPa)
#
#
# Indices 1 2 3 4 5 6 
#
# 1 0.031458 -0.007938 -0.005831 0.000000 0.000000 0.000000
# 2 -0.007938 0.031459 -0.005831 0.000000 0.000000 0.000000
# 3 -0.005831 -0.005831 0.016609 0.000000 0.000000 0.000000
# 4 0.000000 0.000000 0.000000 0.130872 0.000000 0.000000
# 5 0.000000 0.000000 0.000000 0.000000 0.130879 0.000000
# 6 0.000000 0.000000 0.000000 0.000000 0.000000 0.060307
#
#
# Mechanical properties :
#
#
# Convention : Reuss Voigt Hill
#
# Bulk Modulus (GPa) = 24.79764 27.57049 26.18406
# Shear Modulus (GPa) = 11.00775 13.07717 12.04246
#
# Velocity S-wave (km/s) = 2.66776 2.90773 2.79033
# Velocity P-wave (km/s) = 5.05192 5.39431 5.22592
#
# Compressibility (1/GPa) = 0.04032642
#
# Stress axis : x y z
#
# Youngs Moduli (GPa) = 31.78822 31.78781 60.20880
#
# Poissons Ratio (x) = 0.25234 0.35106
# Poissons Ratio (y) = 0.25235 0.35105
# Poissons Ratio (z) = 0.18535 0.18534
#
# Static dielectric constant tensor:
#      x y z
#    x 1.526640 0.000000 0.000000 
#    y 0.000000 1.526640 0.000000 
#    z 0.000000 0.000000 1.510850 
# 
# From -- ./inp_files/1984.got.cif
#   From: 2010.05.17/outbox.cif.g08.bks.cpg/sg113_cif.got.tgz:1984.got - 2010.05.20 11:03:00.
