data_PCOD9555854
_publ_section_title
;
Structure prediction by ZEFSAII (Michael W. Deem and Ramdas Pophale) SiO2 
 PCOD9555854
Probable space group: P -4 21 C
;
_chemical_formula_sum "Si O2"
_cell_formula_units_Z 64
_cell_length_a 24.565782
_cell_length_b 24.565782
_cell_length_c 5.234411
_cell_angle_alpha 90.000000
_cell_angle_beta 90.000000
_cell_angle_gamma 90.000000
_cell_volume 3158.850025
_symmetry_space_group_name_H-M "P -4 21 C"
_symmetry_group_IT_number 114
_symmetry_cell_setting 'tetragonal'
loop_
_space_group_symop_operation_xyz
x,y,z
y,-x,-z
-x,-y,z
-y,x,-z
1/2+x,1/2-y,1/2-z
1/2-x,1/2+y,1/2-z
1/2-y,1/2-x,1/2+z
1/2+y,1/2+x,1/2+z
loop_
_atom_site_type_symbol
_atom_site_label
_atom_site_fract_x
_atom_site_fract_y
_atom_site_fract_z
Si Si1 0.411244 0.862072 0.732689
Si Si2 0.474711 0.076086 0.724166
Si Si3 0.119379 0.664512 0.808530
Si Si4 0.718769 0.421227 0.167665
Si Si5 0.056650 0.068986 0.513353
Si Si6 0.052581 0.237361 0.685600
Si Si7 0.656521 0.427574 0.661390
Si Si8 0.326871 0.442607 0.683306
O O1 0.380100 0.873665 0.469142
O O2 0.464351 0.901456 0.733947
O O3 0.431024 0.799742 0.763316
O O4 0.458595 0.042831 0.470938
O O5 0.435563 0.129052 0.719189
O O6 0.160047 0.638100 0.601227
O O7 0.108019 0.725042 0.721598
O O8 0.730655 0.486529 0.177319
O O9 0.677904 0.406080 0.395245
O O10 0.692216 0.406543 0.898370
O O11 0.093949 0.079294 0.758883
O O12 0.069989 0.114083 0.303413
O O13 0.992439 0.070442 0.576532
O O14 0.071449 0.215435 0.410193
O O15 0.075054 0.198569 0.913060
O O16 0.668477 0.492015 0.656721
#
# Coordination Sequence:
#
# PCOD9555854 Si02
#       8
#     8   8   8   8   8   8   8   8
#     4  12  24  36  54  78 106 146 191 240 293 333
#     4  10  21  35  50  73 108 145 181 223 290 357
#     4  10  19  31  51  76 101 140 185 230 286 325
#     4  10  18  34  53  75 108 143 185 234 268 314
#     4   9  18  36  59  93 131 153 171 203 255 337
#     4  10  20  37  53  77 105 140 191 239 266 316
#     4   9  19  31  53  82 111 148 181 209 259 320
#     4   9  19  34  57  78 109 150 181 213 265 313
#
# _framework density 20.260538
#
# number of rings (size 3 to 8) (size 9 to 14) (size 15 to 20)
#    0.000    2.125    1.250    2.250    0.000    2.500 
#    0.000    3.750    0.000   10.500    0.000   17.500 
#    0.000    0.000    0.000    0.000    0.000    0.000 
#
# Total GULP energy -357546.380173 kJ/mol
# GULP energy per Si atom -5586.662190 kJ/mol
# Density = 2.021442 g / cm^3
# Si number density = 20.260538 Si / 1000 Ang^3
#
#
#
# Elastic Constant Matrix: (Units=GPa)
#
#
# Indices 1 2 3 4 5 6 
#
# 1 81.2365 9.9527 11.7017 0.0000 0.0000 0.0000
# 2 9.9527 81.2365 11.7017 0.0000 0.0000 0.0000
# 3 11.7017 11.7017 94.3269 0.0000 0.0000 0.0000
# 4 0.0000 0.0000 0.0000 16.6725 0.0000 0.0000
# 5 0.0000 0.0000 0.0000 0.0000 16.6725 0.0000
# 6 0.0000 0.0000 0.0000 0.0000 0.0000 8.0143
#
#
#
# Elastic Compliance Matrix: (Units=1/GPa)
#
#
# Indices 1 2 3 4 5 6 
#
# 1 0.012678 -0.001351 -0.001405 0.000000 0.000000 0.000000
# 2 -0.001351 0.012678 -0.001405 0.000000 0.000000 0.000000
# 3 -0.001405 -0.001405 0.010950 0.000000 0.000000 0.000000
# 4 0.000000 0.000000 0.000000 0.059979 0.000000 0.000000
# 5 0.000000 0.000000 0.000000 0.000000 0.059979 0.000000
# 6 0.000000 0.000000 0.000000 0.000000 0.000000 0.124777
#
#
# Mechanical properties :
#
#
# Convention : Reuss Voigt Hill
#
# Bulk Modulus (GPa) = 35.73580 35.94579 35.84079
# Shear Modulus (GPa) = 16.73974 23.16811 19.95393
#
# Velocity S-wave (km/s) = 2.87753 3.38525 3.14166
# Velocity P-wave (km/s) = 5.35879 5.74980 5.55773
#
# Compressibility (1/GPa) = 0.02798314
#
# Stress axis : x y z
#
# Youngs Moduli (GPa) = 78.87906 78.87906 91.32367
#
# Poissons Ratio (x) = 0.10655 0.12832
# Poissons Ratio (y) = 0.10655 0.12832
# Poissons Ratio (z) = 0.11084 0.11084
#
# Static dielectric constant tensor:
#      x y z
#    x 1.715960 0.000000 0.000000 
#    y 0.000000 1.715960 0.000000 
#    z 0.000000 0.000000 1.735420 
# 
# From -- ./inp_files/301.got.cif
#   From: 2010.05.17/outbox.cif.g08.bks.cpg/sg114_1_cif.got.tgz:301.got - 2010.05.20 11:04:54.
