data_PCOD9555634
_publ_section_title
;
Structure prediction by ZEFSAII (Michael W. Deem and Ramdas Pophale) SiO2 
 PCOD9555634
Probable space group: P -4 21 M 
;
_chemical_formula_sum "Si O2"
_cell_formula_units_Z 64
_cell_length_a 12.642525
_cell_length_b 12.642525
_cell_length_c 18.658512
_cell_angle_alpha 90.000000
_cell_angle_beta 90.000000
_cell_angle_gamma 90.000000
_cell_volume 2982.254128
_symmetry_space_group_name_H-M "P -4 21 M "
_symmetry_group_IT_number 113
_symmetry_cell_setting 'tetragonal'
loop_
_space_group_symop_operation_xyz
x,y,z
y,-x,-z
-x,-y,z
-y,x,-z
1/2+x,1/2-y,-z
1/2-x,1/2+y,-z
1/2-y,1/2-x,z
1/2+y,1/2+x,z
loop_
_atom_site_type_symbol
_atom_site_label
_atom_site_fract_x
_atom_site_fract_y
_atom_site_fract_z
Si Si1 0.493132 0.167555 0.028631
Si Si2 0.996359 0.667930 0.798458
Si Si3 0.326257 0.005690 0.404865
Si Si4 0.276853 0.601194 0.178219
Si Si5 0.280143 0.397986 0.091070
Si Si6 0.663085 0.471918 0.475851
Si Si7 0.666477 0.655979 0.661976
Si Si8 0.120610 0.000214 0.156494
O O1 0.376351 0.123650 0.010741
O O2 0.535264 0.262513 0.981189
O O3 0.575649 0.075649 0.006507
O O4 0.502301 0.169948 0.114412
O O5 0.086011 0.586011 0.775900
O O6 0.020270 0.789256 0.784699
O O7 0.884094 0.615907 0.775935
O O8 0.417386 0.917386 0.408619
O O9 0.234107 0.950798 0.356616
O O10 0.386251 0.113750 0.381820
O O11 0.273014 0.023431 0.482205
O O12 0.178318 0.678318 0.167337
O O13 0.252110 0.481515 0.154757
O O14 0.320596 0.619831 0.258942
O O15 0.379221 0.636038 0.131254
O O16 0.205067 0.294934 0.093819
O O17 0.402951 0.370870 0.101643
O O18 0.585845 0.392508 0.519570
O O19 0.664879 0.426229 0.396286
O O20 0.749879 0.750122 0.648414
O O21 0.000000 0.000000 0.183393
#
# Coordination Sequence:
#
# PCOD9555634 Si02
#       8
#     8   8   8   8   8   8   8   8
#     4   8  15  30  54  80 102 130 172 221 272 325
#     4   9  17  33  58  82 103 132 175 226 274 323
#     4   9  17  31  52  78 108 142 178 219 266 316
#     4  10  21  38  58  79 104 147 190 221 267 317
#     4  10  20  37  56  78 107 140 181 228 276 320
#     4   9  17  31  50  81 109 140 173 210 266 322
#     4   9  18  34  56  78 107 138 174 224 262 309
#     4  10  21  37  50  75 111 147 173 217 267 328
#
# _framework density 21.460277000000001
#
# number of rings (size 3 to 8) (size 9 to 14) (size 15 to 20)
#    0.000    2.750    0.000    2.250    0.000    1.250 
#   18.000    1.875    0.000    3.750    0.000    0.000 
#    0.000    0.000    0.000    0.000    0.000    0.000 
#
# Total GULP energy -356777.261443 kJ/mol
# GULP energy per Si atom -5574.644710 kJ/mol
# Density = 2.141143 g / cm^3
# Si number density = 21.460277 Si / 1000 Ang^3
#
#
#
# Elastic Constant Matrix: (Units=GPa)
#
#
# Indices 1 2 3 4 5 6 
#
# 1 88.5741 23.8488 32.8881 0.0000 0.0000 0.0000
# 2 23.8488 88.5732 32.8876 0.0000 0.0000 0.0000
# 3 32.8881 32.8876 89.7995 0.0000 0.0000 0.0000
# 4 0.0000 0.0000 0.0000 15.2649 0.0000 0.0000
# 5 0.0000 0.0000 0.0000 0.0000 15.2648 0.0000
# 6 0.0000 0.0000 0.0000 0.0000 0.0000 26.6230
#
#
#
# Elastic Compliance Matrix: (Units=1/GPa)
#
#
# Indices 1 2 3 4 5 6 
#
# 1 0.013385 -0.002065 -0.004146 0.000000 0.000000 0.000000
# 2 -0.002065 0.013385 -0.004146 0.000000 0.000000 0.000000
# 3 -0.004146 -0.004146 0.014173 0.000000 0.000000 0.000000
# 4 0.000000 0.000000 0.000000 0.065510 0.000000 0.000000
# 5 0.000000 0.000000 0.000000 0.000000 0.065510 0.000000
# 6 0.000000 0.000000 0.000000 0.000000 0.000000 0.037561
#
#
# Mechanical properties :
#
#
# Convention : Reuss Voigt Hill
#
# Bulk Modulus (GPa) = 49.43139 49.57731 49.50435
# Shear Modulus (GPa) = 21.09867 23.25204 22.17536
#
# Velocity S-wave (km/s) = 3.13892 3.29522 3.21802
# Velocity P-wave (km/s) = 6.01839 6.13433 6.07664
#
# Compressibility (1/GPa) = 0.02023006
#
# Stress axis : x y z
#
# Youngs Moduli (GPa) = 74.70847 74.70795 70.55762
#
# Poissons Ratio (x) = 0.15424 0.29254
# Poissons Ratio (y) = 0.15424 0.29254
# Poissons Ratio (z) = 0.30975 0.30974
#
# Static dielectric constant tensor:
#      x y z
#    x 1.834340 0.000000 0.000000 
#    y 0.000000 1.834340 0.000000 
#    z 0.000000 0.000000 1.799810 
# 
# From -- ./inp_files/2918.got.cif
#   From: 2010.05.17/outbox.cif.g08.bks.cpg/sg113_cif.got.tgz:2918.got - 2010.05.20 11:03:00.
