data_PCOD9555575
_publ_section_title
;
Structure prediction by ZEFSAII (Michael W. Deem and Ramdas Pophale) SiO2 
 PCOD9555575
Probable space group: P -4 21 M 
;
_chemical_formula_sum "Si O2"
_cell_formula_units_Z 64
_cell_length_a 12.520167
_cell_length_b 12.520167
_cell_length_c 22.284261
_cell_angle_alpha 90.000000
_cell_angle_beta 90.000000
_cell_angle_gamma 90.000000
_cell_volume 3493.160012
_symmetry_space_group_name_H-M "P -4 21 M "
_symmetry_group_IT_number 113
_symmetry_cell_setting 'tetragonal'
loop_
_space_group_symop_operation_xyz
x,y,z
y,-x,-z
-x,-y,z
-y,x,-z
1/2+x,1/2-y,-z
1/2-x,1/2+y,-z
1/2-y,1/2-x,z
1/2+y,1/2+x,z
loop_
_atom_site_type_symbol
_atom_site_label
_atom_site_fract_x
_atom_site_fract_y
_atom_site_fract_z
Si Si1 0.993317 0.872062 0.258304
Si Si2 0.379224 0.706434 0.199503
Si Si3 0.838049 0.056619 0.508434
Si Si4 0.336576 0.662124 0.636301
Si Si5 0.876402 0.201033 0.071667
Si Si6 0.175275 0.495021 0.595038
Si Si7 0.376983 0.300040 0.176165
Si Si8 0.875811 0.800988 0.054826
O O1 0.938181 0.844228 0.320789
O O2 0.908207 0.836224 0.208038
O O3 0.113404 0.837703 0.243916
O O4 0.000000 0.000000 0.253630
O O5 0.313808 0.813808 0.208955
O O6 0.355094 0.662625 0.132469
O O7 0.506032 0.722809 0.202089
O O8 0.817906 0.122073 0.568882
O O9 0.738183 0.043980 0.464235
O O10 0.937788 0.117498 0.477074
O O11 0.256123 0.756123 0.654696
O O12 0.266913 0.552063 0.635289
O O13 0.811795 0.311795 0.067231
O O14 0.002242 0.216154 0.071565
O O15 0.846151 0.135242 0.012075
O O16 0.103479 0.396522 0.619102
O O17 0.090746 0.590746 0.581442
O O18 0.296208 0.203792 0.187902
O O19 0.377937 0.323268 0.104968
O O20 0.807568 0.692433 0.057694
#
# Coordination Sequence:
#
# PCOD9555575 Si02
#       8
#     8   8   8   8   8   8   8   8
#     4  10  21  36  59  77 109 149 191 232 274 325
#     4  10  21  38  57  82 113 148 188 234 288 336
#     4   9  18  31  54  80 111 145 188 226 271 327
#     4  10  20  34  56  83 110 147 187 230 274 324
#     4  10  20  34  54  81 113 145 185 237 288 344
#     4   9  18  33  53  80 114 145 176 225 285 336
#     4  10  20  36  57  82 111 147 189 232 283 340
#     4  10  20  33  54  83 111 144 188 235 288 347
#
# _framework density 18.321518999999999
#
# number of rings (size 3 to 8) (size 9 to 14) (size 15 to 20)
#    0.000    2.250    1.250    1.500    3.500    2.250 
#    0.000    3.125    0.000    9.750    0.000    0.000 
#    0.000    0.000    0.000    0.000    0.000    0.000 
#
# Total GULP energy -356892.136126 kJ/mol
# GULP energy per Si atom -5576.439627 kJ/mol
# Density = 1.827982 g / cm^3
# Si number density = 18.321519 Si / 1000 Ang^3
#
#
#
# Elastic Constant Matrix: (Units=GPa)
#
#
# Indices 1 2 3 4 5 6 
#
# 1 75.2805 34.6621 11.3788 0.0000 0.0000 0.0000
# 2 34.6621 75.2789 11.3779 0.0000 0.0000 0.0000
# 3 11.3788 11.3779 48.2084 0.0000 0.0000 0.0000
# 4 0.0000 0.0000 0.0000 22.3131 0.0000 0.0000
# 5 0.0000 0.0000 0.0000 0.0000 22.3129 0.0000
# 6 0.0000 0.0000 0.0000 0.0000 0.0000 12.6202
#
#
#
# Elastic Compliance Matrix: (Units=1/GPa)
#
#
# Indices 1 2 3 4 5 6 
#
# 1 0.017091 -0.007528 -0.002257 0.000000 0.000000 0.000000
# 2 -0.007528 0.017092 -0.002257 0.000000 0.000000 0.000000
# 3 -0.002257 -0.002257 0.021809 0.000000 0.000000 0.000000
# 4 0.000000 0.000000 0.000000 0.044817 0.000000 0.000000
# 5 0.000000 0.000000 0.000000 0.000000 0.044817 0.000000
# 6 0.000000 0.000000 0.000000 0.000000 0.000000 0.079238
#
#
# Mechanical properties :
#
#
# Convention : Reuss Voigt Hill
#
# Bulk Modulus (GPa) = 31.34185 34.84506 33.09345
# Shear Modulus (GPa) = 19.26157 20.87249 20.06703
#
# Velocity S-wave (km/s) = 3.24591 3.37892 3.31308
# Velocity P-wave (km/s) = 5.58494 5.85514 5.72164
#
# Compressibility (1/GPa) = 0.03190622
#
# Stress axis : x y z
#
# Youngs Moduli (GPa) = 58.50943 58.50847 45.85320
#
# Poissons Ratio (x) = 0.44048 0.10350
# Poissons Ratio (y) = 0.44049 0.10349
# Poissons Ratio (z) = 0.13207 0.13205
#
# Static dielectric constant tensor:
#      x y z
#    x 1.622850 0.000000 0.000000 
#    y 0.000000 1.622850 0.000000 
#    z 0.000000 0.000000 1.650860 
# 
# From -- ./inp_files/2924.got.cif
#   From: 2010.05.17/outbox.cif.g08.bks.cpg/sg113_cif.got.tgz:2924.got - 2010.05.20 11:03:00.
