data_PCOD9555983
_publ_section_title
;
Structure prediction by ZEFSAII (Michael W. Deem and Ramdas Pophale) SiO2 
 PCOD9555983
Probable space group: P -4 21 C
;
_chemical_formula_sum "Si O2"
_cell_formula_units_Z 56
_cell_length_a 14.565562
_cell_length_b 14.565562
_cell_length_c 10.853768
_cell_angle_alpha 90.000000
_cell_angle_beta 90.000000
_cell_angle_gamma 90.000000
_cell_volume 2302.687623
_symmetry_space_group_name_H-M "P -4 21 C"
_symmetry_group_IT_number 114
_symmetry_cell_setting 'tetragonal'
loop_
_space_group_symop_operation_xyz
x,y,z
y,-x,-z
-x,-y,z
-y,x,-z
1/2+x,1/2-y,1/2-z
1/2-x,1/2+y,1/2-z
1/2-y,1/2-x,1/2+z
1/2+y,1/2+x,1/2+z
loop_
_atom_site_type_symbol
_atom_site_label
_atom_site_fract_x
_atom_site_fract_y
_atom_site_fract_z
Si Si1 0.989067 0.703359 0.082169
Si Si2 0.563360 0.130488 0.802968
Si Si3 0.187784 0.616639 0.347149
Si Si4 0.162963 0.149209 0.344687
Si Si5 0.168238 0.259847 0.896999
Si Si6 0.312058 0.448648 0.049857
Si Si7 0.805179 0.907490 0.717285
O O1 0.961967 0.604075 0.138737
O O2 0.012643 0.774887 0.188677
O O3 0.899620 0.738865 0.010339
O O4 0.069929 0.695398 0.980907
O O5 0.463185 0.143425 0.740974
O O6 0.633733 0.159215 0.694271
O O7 0.573544 0.208541 0.907816
O O8 0.287565 0.644292 0.288652
O O9 0.126523 0.707567 0.339427
O O10 0.223909 0.224438 0.417669
O O11 0.063765 0.177850 0.402544
O O12 0.172596 0.046977 0.392226
O O13 0.160407 0.168200 0.818655
O O14 0.385995 0.382877 0.115814
#
# Coordination Sequence:
#
# PCOD9555983 Si02
#       7
#     8   8   8   8   8   8   8
#     4  11  21  40  69  97 133 183 228 274 349 418
#     4   9  19  39  62  95 130 173 223 272 335 416
#     4   9  22  39  62  96 134 177 220 278 343 413
#     4  10  20  39  65  95 132 176 226 279 334 405
#     4   9  20  39  67  96 133 178 221 281 346 404
#     4  10  21  39  64  95 131 174 227 274 338 401
#     4  10  23  39  63  98 135 174 225 281 340 415
#
# _framework density 24.319407000000002
#
# number of rings (size 3 to 8) (size 9 to 14) (size 15 to 20)
#    0.000    2.286    1.429    0.857    4.000    3.143 
#    2.571    2.857    0.000    2.143    0.000    0.000 
#    0.000    0.000    0.000    0.000    0.000    0.000 
#
# Total GULP energy -312499.906997 kJ/mol
# GULP energy per Si atom -5580.355482 kJ/mol
# Density = 2.426405 g / cm^3
# Si number density = 24.319407 Si / 1000 Ang^3
#
#
#
# Elastic Constant Matrix: (Units=GPa)
#
#
# Indices 1 2 3 4 5 6 
#
# 1 80.4259 -0.7277 38.8298 0.0000 0.0000 0.0000
# 2 -0.7277 80.4259 38.8298 0.0000 0.0000 0.0000
# 3 38.8298 38.8298 141.6392 0.0000 0.0000 0.0000
# 4 0.0000 0.0000 0.0000 29.1132 0.0000 0.0000
# 5 0.0000 0.0000 0.0000 0.0000 29.1132 0.0000
# 6 0.0000 0.0000 0.0000 0.0000 0.0000 9.9825
#
#
#
# Elastic Compliance Matrix: (Units=1/GPa)
#
#
# Indices 1 2 3 4 5 6 
#
# 1 0.014722 0.002399 -0.004694 0.000000 0.000000 0.000000
# 2 0.002399 0.014722 -0.004694 0.000000 0.000000 0.000000
# 3 -0.004694 -0.004694 0.009634 0.000000 0.000000 0.000000
# 4 0.000000 0.000000 0.000000 0.034349 0.000000 0.000000
# 5 0.000000 0.000000 0.000000 0.000000 0.034349 0.000000
# 6 0.000000 0.000000 0.000000 0.000000 0.000000 0.100175
#
#
# Mechanical properties :
#
#
# Convention : Reuss Voigt Hill
#
# Bulk Modulus (GPa) = 39.83909 50.70611 45.27260
# Shear Modulus (GPa) = 21.71152 28.67905 25.19529
#
# Velocity S-wave (km/s) = 2.99116 3.43777 3.22221
# Velocity P-wave (km/s) = 5.32415 6.05417 5.70086
#
# Compressibility (1/GPa) = 0.02510097
#
# Stress axis : x y z
#
# Youngs Moduli (GPa) = 67.92735 67.92735 103.80258
#
# Poissons Ratio (x) = -0.16298 0.48721
# Poissons Ratio (y) = -0.16298 0.48721
# Poissons Ratio (z) = 0.31883 0.31883
#
# Static dielectric constant tensor:
#      x y z
#    x 2.034420 0.000000 0.000000 
#    y 0.000000 2.034420 0.000000 
#    z 0.000000 0.000000 1.974900 
# 
# From -- ./inp_files/1741.got.cif
#   From: 2010.05.17/outbox.cif.g08.bks.cpg/sg114_1_cif.got.tgz:1741.got - 2010.05.20 11:04:54.
