data_PCOD9555172
_publ_section_title
;
Structure prediction by ZEFSAII (Michael W. Deem and Ramdas Pophale) SiO2 
 PCOD9555172
Probable space group: P -4 2 C
;
_chemical_formula_sum "Si O2"
_cell_formula_units_Z 40
_cell_length_a 14.148727
_cell_length_b 14.148727
_cell_length_c 9.134718
_cell_angle_alpha 90.000000
_cell_angle_beta 90.000000
_cell_angle_gamma 90.000000
_cell_volume 1828.647003
_symmetry_space_group_name_H-M "P -4 2 C"
_symmetry_group_IT_number 112
_symmetry_cell_setting 'tetragonal'
loop_
_space_group_symop_operation_xyz
x,y,z
y,-x,-z
-x,-y,z
-y,x,-z
x,-y,1/2-z
-x,y,1/2-z
-y,-x,1/2+z
y,x,1/2+z
loop_
_atom_site_type_symbol
_atom_site_label
_atom_site_fract_x
_atom_site_fract_y
_atom_site_fract_z
Si Si1 0.721983 0.633914 0.864433
Si Si2 0.185122 0.792658 0.240381
Si Si3 0.072439 0.860910 0.995314
Si Si4 0.572559 0.249044 0.471906
Si Si5 0.606304 0.110526 0.709194
O O1 0.792098 0.724347 0.865826
O O2 0.727752 0.608967 0.691568
O O3 0.747834 0.540348 0.954221
O O4 0.621511 0.673665 0.921868
O O5 0.092324 0.803753 0.141034
O O6 0.185027 0.873686 0.359715
O O7 0.170835 0.685619 0.294857
O O8 0.962771 0.879688 0.973923
O O9 0.608545 0.149045 0.540307
O O10 0.500000 0.138214 0.750000
O O11 0.615413 0.000000 0.750000
#
# Coordination Sequence:
#
# PCOD9555172 Si02
#       5
#     8   8   8   8   8
#     4  10  23  41  66  97 134 175 226 291 356 425
#     4  11  22  39  64  91 127 172 218 272 338 404
#     4  11  23  39  62  94 131 170 220 279 339 408
#     4  10  23  41  66  98 133 175 228 288 355 425
#     4  10  22  38  64  95 128 177 231 279 339 423
#
# _framework density 21.874095000000001
#
# number of rings (size 3 to 8) (size 9 to 14) (size 15 to 20)
#    0.000    1.600    0.000    4.800    8.400    2.000 
#    0.000    2.000    0.000    4.800    0.000    0.000 
#    0.000    0.000    0.000    0.000    0.000    0.000 
#
# Total GULP energy -223043.513341 kJ/mol
# GULP energy per Si atom -5576.087834 kJ/mol
# Density = 2.182431 g / cm^3
# Si number density = 21.874095 Si / 1000 Ang^3
#
#
#
# Elastic Constant Matrix: (Units=GPa)
#
#
# Indices 1 2 3 4 5 6 
#
# 1 109.2967 44.0116 44.5397 0.0000 0.0000 0.0000
# 2 44.0116 109.2967 44.5397 0.0000 0.0000 0.0000
# 3 44.5397 44.5397 116.1974 0.0000 0.0000 0.0000
# 4 0.0000 0.0000 0.0000 36.9691 0.0000 0.0000
# 5 0.0000 0.0000 0.0000 0.0000 36.9691 0.0000
# 6 0.0000 0.0000 0.0000 0.0000 0.0000 24.5180
#
#
#
# Elastic Compliance Matrix: (Units=1/GPa)
#
#
# Indices 1 2 3 4 5 6 
#
# 1 0.011855 -0.003463 -0.003217 0.000000 0.000000 0.000000
# 2 -0.003463 0.011855 -0.003217 0.000000 0.000000 0.000000
# 3 -0.003217 -0.003217 0.011072 0.000000 0.000000 0.000000
# 4 0.000000 0.000000 0.000000 0.027050 0.000000 0.000000
# 5 0.000000 0.000000 0.000000 0.000000 0.027050 0.000000
# 6 0.000000 0.000000 0.000000 0.000000 0.000000 0.040786
#
#
# Mechanical properties :
#
#
# Convention : Reuss Voigt Hill
#
# Bulk Modulus (GPa) = 66.71564 66.77473 66.74518
# Shear Modulus (GPa) = 32.37178 33.13790 32.75484
#
# Velocity S-wave (km/s) = 3.85114 3.89644 3.87386
# Velocity P-wave (km/s) = 7.09514 7.12995 7.11257
#
# Compressibility (1/GPa) = 0.01498899
#
# Stress axis : x y z
#
# Youngs Moduli (GPa) = 84.35517 84.35517 90.31772
#
# Poissons Ratio (x) = 0.29210 0.29052
# Poissons Ratio (y) = 0.29210 0.29052
# Poissons Ratio (z) = 0.27134 0.27134
#
# Static dielectric constant tensor:
#      x y z
#    x 1.835040 0.000000 0.000000 
#    y 0.000000 1.835040 0.000000 
#    z 0.000000 0.000000 1.834450 
# 
# From -- ./inp_files/1225.got.cif
#   From: 2010.05.17/outbox.cif.g08.bks.cpg/sg112_1_cif.got.tgz:1225.got - 2010.05.20 10:59:04.
