data_PCOD9555650
_publ_section_title
;
Structure prediction by ZEFSAII (Michael W. Deem and Ramdas Pophale) SiO2 
 PCOD9555650
Probable space group: P -4 21 M 
;
_chemical_formula_sum "Si O2"
_cell_formula_units_Z 48
_cell_length_a 11.832509
_cell_length_b 11.832509
_cell_length_c 18.382463
_cell_angle_alpha 90.000000
_cell_angle_beta 90.000000
_cell_angle_gamma 90.000000
_cell_volume 2573.696829
_symmetry_space_group_name_H-M "P -4 21 M "
_symmetry_group_IT_number 113
_symmetry_cell_setting 'tetragonal'
loop_
_space_group_symop_operation_xyz
x,y,z
y,-x,-z
-x,-y,z
-y,x,-z
1/2+x,1/2-y,-z
1/2-x,1/2+y,-z
1/2-y,1/2-x,z
1/2+y,1/2+x,z
loop_
_atom_site_type_symbol
_atom_site_label
_atom_site_fract_x
_atom_site_fract_y
_atom_site_fract_z
Si Si1 0.509597 0.820043 0.612481
Si Si2 0.912787 0.102836 0.835504
Si Si3 0.315409 0.004667 0.899490
Si Si4 0.496648 0.814384 0.073127
Si Si5 0.597984 0.405558 0.672154
Si Si6 0.821233 0.969104 0.477242
O O1 0.413072 0.913072 0.618056
O O2 0.465430 0.710556 0.653564
O O3 0.526912 0.786829 0.528107
O O4 0.624795 0.875206 0.641316
O O5 0.795634 0.045195 0.861324
O O6 0.900762 0.146758 0.752806
O O7 0.965196 0.201900 0.885101
O O8 0.000000 0.000000 0.834669
O O9 0.413385 0.913385 0.885541
O O10 0.373124 0.126877 0.880721
O O11 0.293442 0.003330 0.986363
O O12 0.374882 0.874882 0.088622
O O13 0.590577 0.909424 0.089573
O O14 0.500000 0.500000 0.668514
O O15 0.684179 0.433080 0.606562
O O16 0.909199 0.881591 0.514707
#
# Coordination Sequence:
#
# PCOD9555650 Si02
#       6
#     8   8   8   8   8   8
#     4  10  21  35  56  88 115 139 183 241 288 327
#     4  11  24  35  58  89 122 151 192 240 296 352
#     4   9  20  39  61  84 113 154 200 245 295 348
#     4   9  20  40  61  81 112 156 201 243 290 346
#     4  10  20  40  55  79 115 156 190 222 277 351
#     4   9  15  33  60  75 101 145 187 219 268 326
#
# _framework density 18.650214999999999
#
# number of rings (size 3 to 8) (size 9 to 14) (size 15 to 20)
#    0.000    2.333    3.333    1.500    2.333    5.333 
#    0.000    5.000    0.000    2.000    0.000    0.000 
#    0.000    0.000    0.000    0.000    0.000    0.000 
#
# Total GULP energy -267431.584573 kJ/mol
# GULP energy per Si atom -5571.491345 kJ/mol
# Density = 1.860777 g / cm^3
# Si number density = 18.650215 Si / 1000 Ang^3
#
#
#
# Elastic Constant Matrix: (Units=GPa)
#
#
# Indices 1 2 3 4 5 6 
#
# 1 74.2330 21.7956 33.9506 0.0000 0.0000 0.0000
# 2 21.7956 74.2360 33.9502 0.0000 0.0000 0.0000
# 3 33.9506 33.9502 70.1119 0.0000 0.0000 0.0000
# 4 0.0000 0.0000 0.0000 150.4070 0.0000 0.0000
# 5 0.0000 0.0000 0.0000 0.0000 150.5098 0.0000
# 6 0.0000 0.0000 0.0000 0.0000 0.0000 13.5632
#
#
#
# Elastic Compliance Matrix: (Units=1/GPa)
#
#
# Indices 1 2 3 4 5 6 
#
# 1 0.017453 -0.001617 -0.007668 0.000000 0.000000 0.000000
# 2 -0.001617 0.017452 -0.007668 0.000000 0.000000 0.000000
# 3 -0.007668 -0.007668 0.021689 0.000000 0.000000 0.000000
# 4 0.000000 0.000000 0.000000 0.006649 0.000000 0.000000
# 5 0.000000 0.000000 0.000000 0.000000 0.006644 0.000000
# 6 0.000000 0.000000 0.000000 0.000000 0.000000 0.073729
#
#
# Mechanical properties :
#
#
# Convention : Reuss Voigt Hill
#
# Bulk Modulus (GPa) = 44.07660 44.21933 44.14796
# Shear Modulus (GPa) = 27.01472 71.48829 49.25150
#
# Velocity S-wave (km/s) = 3.81004 6.19793 5.14445
# Velocity P-wave (km/s) = 6.56047 8.65912 7.68180
#
# Compressibility (1/GPa) = 0.02268777
#
# Stress axis : x y z
#
# Youngs Moduli (GPa) = 57.29663 57.29998 46.10632
#
# Poissons Ratio (x) = 0.09267 0.35355
# Poissons Ratio (y) = 0.09267 0.35353
# Poissons Ratio (z) = 0.43936 0.43935
#
# Static dielectric constant tensor:
#      x y z
#    x 1.667580 0.000000 0.000000 
#    y 0.000000 1.667590 0.000000 
#    z 0.000000 0.000000 1.665890 
# 
# From -- ./inp_files/2450.got.cif
#   From: 2010.05.17/outbox.cif.g08.bks.cpg/sg113_cif.got.tgz:2450.got - 2010.05.20 11:03:00.
