data_PCOD9555302
_publ_section_title
;
Structure prediction by ZEFSAII (Michael W. Deem and Ramdas Pophale) SiO2 
 PCOD9555302
Probable space group: P -4 2 C
;
_chemical_formula_sum "Si O2"
_cell_formula_units_Z 56
_cell_length_a 12.184994
_cell_length_b 12.184994
_cell_length_c 22.666604
_cell_angle_alpha 90.000000
_cell_angle_beta 90.000000
_cell_angle_gamma 90.000000
_cell_volume 3365.403148
_symmetry_space_group_name_H-M "P -4 2 C"
_symmetry_group_IT_number 112
_symmetry_cell_setting 'tetragonal'
loop_
_space_group_symop_operation_xyz
x,y,z
y,-x,-z
-x,-y,z
-y,x,-z
x,-y,1/2-z
-x,y,1/2-z
-y,-x,1/2+z
y,x,1/2+z
loop_
_atom_site_type_symbol
_atom_site_label
_atom_site_fract_x
_atom_site_fract_y
_atom_site_fract_z
Si Si1 0.127163 0.869760 0.930035
Si Si2 0.128101 0.500000 0.679343
Si Si3 0.624883 0.624884 0.000000
Si Si4 0.869759 0.872837 0.430035
Si Si5 0.312012 0.272065 0.120779
Si Si6 0.687988 0.272065 0.120779
Si Si7 0.369446 0.500000 0.179090
O O1 0.211139 0.802858 0.889771
O O2 0.000000 0.837018 0.919044
O O3 0.135592 0.000000 0.920510
O O4 0.149114 0.850886 0.000000
O O5 0.136218 0.500000 0.750000
O O6 0.190962 0.394682 0.653926
O O7 0.190963 0.605317 0.653925
O O8 0.000000 0.500000 0.662669
O O9 0.644185 0.703286 0.054963
O O10 0.637845 0.500000 0.021374
O O11 0.703286 0.644186 0.945037
O O12 0.802858 0.788861 0.389770
O O13 0.315089 0.388942 0.154046
O O14 0.684911 0.388942 0.154046
O O15 0.500000 0.500000 0.162191
O O16 0.364534 0.500000 0.250000
#
# Coordination Sequence:
#
# PCOD9555302 Si02
#       7
#     8   8   8   8   8   8   8
#     4   9  19  36  57  82 114 151 187 225 278 342
#     4  11  24  38  55  83 115 148 193 248 290 327
#     4  11  20  32  50  83 118 150 176 219 288 350
#     4   9  19  36  57  82 114 151 187 225 278 342
#     4  12  20  35  58  83 115 148 187 232 284 345
#     4  12  20  35  58  83 115 148 187 232 284 345
#     4  11  22  37  57  81 111 153 190 222 275 340
#
# _framework density 16.639908999999999
#
# number of rings (size 3 to 8) (size 9 to 14) (size 15 to 20)
#    0.000    1.286    5.714    2.571    0.000    0.000 
#    0.000    0.714    0.000    4.286    0.000   10.000 
#    0.000    0.000    0.000    0.000    0.000    0.000 
#
# Total GULP energy -312467.286309 kJ/mol
# GULP energy per Si atom -5579.772970 kJ/mol
# Density = 1.660204 g / cm^3
# Si number density = 16.639909 Si / 1000 Ang^3
#
#
#
# Elastic Constant Matrix: (Units=GPa)
#
#
# Indices 1 2 3 4 5 6 
#
# 1 110.4032 67.3405 44.4127 0.0000 0.0000 0.0000
# 2 67.3405 110.4032 44.4127 0.0000 0.0000 0.0000
# 3 44.4127 44.4127 73.1194 0.0000 0.0000 0.0000
# 4 0.0000 0.0000 0.0000 23.6739 0.0000 0.0000
# 5 0.0000 0.0000 0.0000 0.0000 23.6739 0.0000
# 6 0.0000 0.0000 0.0000 0.0000 0.0000 32.2907
#
#
#
# Elastic Compliance Matrix: (Units=1/GPa)
#
#
# Indices 1 2 3 4 5 6 
#
# 1 0.015650 -0.007572 -0.004907 0.000000 0.000000 0.000000
# 2 -0.007572 0.015650 -0.004907 0.000000 0.000000 0.000000
# 3 -0.004907 -0.004907 0.019637 0.000000 0.000000 0.000000
# 4 0.000000 0.000000 0.000000 0.042241 0.000000 0.000000
# 5 0.000000 0.000000 0.000000 0.000000 0.042241 0.000000
# 6 0.000000 0.000000 0.000000 0.000000 0.000000 0.030969
#
#
# Mechanical properties :
#
#
# Convention : Reuss Voigt Hill
#
# Bulk Modulus (GPa) = 61.85632 67.36198 64.60915
# Shear Modulus (GPa) = 24.20769 25.11171 24.65970
#
# Velocity S-wave (km/s) = 3.81832 3.88896 3.85380
# Velocity P-wave (km/s) = 7.52951 7.79329 7.66254
#
# Compressibility (1/GPa) = 0.01616650
#
# Stress axis : x y z
#
# Youngs Moduli (GPa) = 63.89765 63.89765 50.92465
#
# Poissons Ratio (x) = 0.48383 0.24987
# Poissons Ratio (y) = 0.48383 0.24987
# Poissons Ratio (z) = 0.31352 0.31352
#
# Static dielectric constant tensor:
#      x y z
#    x 1.556380 0.000000 0.000000 
#    y 0.000000 1.556380 0.000000 
#    z 0.000000 0.000000 1.556790 
# 
# From -- ./inp_files/4933.got.cif
#   From: 2010.05.17/outbox.cif.g08.bks.cpg/sg112_3_cif.got.tgz:4933.got - 2010.05.20 10:59:04.
