data_PCOD9555502
_publ_section_title
;
Structure prediction by ZEFSAII (Michael W. Deem and Ramdas Pophale) SiO2 
 PCOD9555502
Probable space group: P -4 21 M 
;
_chemical_formula_sum "Si O2"
_cell_formula_units_Z 56
_cell_length_a 12.561937
_cell_length_b 12.561937
_cell_length_c 20.839405
_cell_angle_alpha 90.000000
_cell_angle_beta 90.000000
_cell_angle_gamma 90.000000
_cell_volume 3288.505231
_symmetry_space_group_name_H-M "P -4 21 M "
_symmetry_group_IT_number 113
_symmetry_cell_setting 'tetragonal'
loop_
_space_group_symop_operation_xyz
x,y,z
y,-x,-z
-x,-y,z
-y,x,-z
1/2+x,1/2-y,-z
1/2-x,1/2+y,-z
1/2-y,1/2-x,z
1/2+y,1/2+x,z
loop_
_atom_site_type_symbol
_atom_site_label
_atom_site_fract_x
_atom_site_fract_y
_atom_site_fract_z
Si Si1 0.077432 0.249756 0.993522
Si Si2 0.794666 0.881981 0.435393
Si Si3 0.999534 0.326594 0.121536
Si Si4 0.380628 0.454255 0.194682
Si Si5 0.889816 0.212998 0.909599
Si Si6 0.513453 0.372701 0.656366
Si Si7 0.635007 0.310913 0.423238
O O1 0.169942 0.330059 0.975605
O O2 0.132158 0.159265 0.037014
O O3 0.999860 0.306657 0.045166
O O4 0.010781 0.221531 0.931598
O O5 0.687278 0.812723 0.426826
O O6 0.887687 0.840309 0.388127
O O7 0.836204 0.862220 0.507698
O O8 0.784767 0.008748 0.422827
O O9 0.908200 0.408200 0.139800
O O10 0.113402 0.386599 0.134481
O O11 0.987661 0.214678 0.156798
O O12 0.500000 0.500000 0.186082
O O13 0.380244 0.339383 0.160254
O O14 0.352361 0.460463 0.269536
O O15 0.820388 0.320388 0.912591
O O16 0.500000 0.500000 0.649601
O O17 0.400230 0.333301 0.629394
O O18 0.706023 0.206023 0.415127
#
# Coordination Sequence:
#
# PCOD9555502 Si02
#       7
#     8   8   8   8   8   8   8
#     4   9  19  33  52  78 104 136 178 223 270 318
#     4  10  19  32  55  82 108 144 181 219 266 313
#     4   9  18  34  55  75 101 140 178 215 266 324
#     4  10  21  35  51  79 107 137 177 221 267 314
#     4  10  21  34  52  78 107 141 176 219 269 323
#     4   9  19  35  55  76 106 144 183 217 259 321
#     4  10  19  33  55  82 111 142 179 223 267 318
#
# _framework density 17.029014
#
# number of rings (size 3 to 8) (size 9 to 14) (size 15 to 20)
#    0.000    2.429    1.429    1.714    4.000    2.857 
#    0.000    0.000    0.000    3.857    0.000    6.000 
#    0.000    0.000    0.000    0.000    0.000    0.000 
#
# Total GULP energy -311864.333037 kJ/mol
# GULP energy per Si atom -5569.005947 kJ/mol
# Density = 1.699026 g / cm^3
# Si number density = 17.029014 Si / 1000 Ang^3
#
#
#
# Elastic Constant Matrix: (Units=GPa)
#
#
# Indices 1 2 3 4 5 6 
#
# 1 79.1389 30.4736 23.5514 0.0000 0.0000 0.0000
# 2 30.4736 79.1414 23.5544 0.0000 0.0000 0.0000
# 3 23.5514 23.5544 58.5929 0.0000 0.0000 0.0000
# 4 0.0000 0.0000 0.0000 16.3300 0.0000 0.0000
# 5 0.0000 0.0000 0.0000 0.0000 16.3299 0.0000
# 6 0.0000 0.0000 0.0000 0.0000 0.0000 11.6420
#
#
#
# Elastic Compliance Matrix: (Units=1/GPa)
#
#
# Indices 1 2 3 4 5 6 
#
# 1 0.015788 -0.004760 -0.004432 0.000000 0.000000 0.000000
# 2 -0.004760 0.015788 -0.004433 0.000000 0.000000 0.000000
# 3 -0.004432 -0.004433 0.020631 0.000000 0.000000 0.000000
# 4 0.000000 0.000000 0.000000 0.061237 0.000000 0.000000
# 5 0.000000 0.000000 0.000000 0.000000 0.061237 0.000000
# 6 0.000000 0.000000 0.000000 0.000000 0.000000 0.085896
#
#
# Mechanical properties :
#
#
# Convention : Reuss Voigt Hill
#
# Bulk Modulus (GPa) = 40.07233 41.33688 40.70461
# Shear Modulus (GPa) = 16.88351 18.14664 17.51508
#
# Velocity S-wave (km/s) = 3.15215 3.26794 3.21057
# Velocity P-wave (km/s) = 6.06885 6.21018 6.13992
#
# Compressibility (1/GPa) = 0.02495487
#
# Stress axis : x y z
#
# Youngs Moduli (GPa) = 63.33923 63.33930 48.47126
#
# Poissons Ratio (x) = 0.30150 0.21485
# Poissons Ratio (y) = 0.30150 0.21490
# Poissons Ratio (z) = 0.28075 0.28081
#
# Static dielectric constant tensor:
#      x y z
#    x 1.627310 0.000000 0.000000 
#    y 0.000000 1.627330 0.000000 
#    z 0.000000 0.000000 1.580480 
# 
# From -- ./inp_files/2729.got.cif
#   From: 2010.05.17/outbox.cif.g08.bks.cpg/sg113_cif.got.tgz:2729.got - 2010.05.20 11:03:00.
