data_PCOD9555276
_publ_section_title
;
Structure prediction by ZEFSAII (Michael W. Deem and Ramdas Pophale) SiO2 
 PCOD9555276
Probable space group: P -4 2 C
;
_chemical_formula_sum "Si O2"
_cell_formula_units_Z 38
_cell_length_a 9.039275
_cell_length_b 9.039275
_cell_length_c 24.588224
_cell_angle_alpha 90.000000
_cell_angle_beta 90.000000
_cell_angle_gamma 90.000000
_cell_volume 2009.066717
_symmetry_space_group_name_H-M "P -4 2 C"
_symmetry_group_IT_number 112
_symmetry_cell_setting 'tetragonal'
loop_
_space_group_symop_operation_xyz
x,y,z
y,-x,-z
-x,-y,z
-y,x,-z
x,-y,1/2-z
-x,y,1/2-z
-y,-x,1/2+z
y,x,1/2+z
loop_
_atom_site_type_symbol
_atom_site_label
_atom_site_fract_x
_atom_site_fract_y
_atom_site_fract_z
Si Si1 0.314418 0.347751 0.155069
Si Si2 0.165407 0.032455 0.686256
Si Si3 0.500000 0.500000 0.250000
Si Si4 0.500000 0.000000 0.521060
Si Si5 0.540893 0.164116 0.085210
Si Si6 0.651429 0.827881 0.888506
O O1 0.194651 0.225201 0.172134
O O2 0.401934 0.400965 0.208978
O O3 0.422877 0.276937 0.110331
O O4 0.238749 0.493041 0.128960
O O5 0.163046 0.000000 0.750000
O O6 0.282958 0.922483 0.660070
O O7 0.000000 0.000000 0.664770
O O8 0.537841 0.866716 0.479607
O O9 0.373865 0.936818 0.560444
O O10 0.698601 0.232332 0.099505
O O11 0.500000 0.000000 0.107943
#
# Coordination Sequence:
#
# PCOD9555276 Si02
#       6
#     8   8   2   4   8   8
#     4  12  23  44  69  99 136 176 228 282 340 414
#     4  11  25  43  69 100 137 176 223 281 345 412
#     4  12  24  40  72 106 136 180 228 280 362 396
#     4  10  26  40  69  97 132 180 228 276 348 384
#     4  10  25  43  65  96 136 173 227 276 342 397
#     4  12  22  46  68  99 134 176 230 279 337 417
#
# _framework density 18.914255000000001
#
# number of rings (size 3 to 8) (size 9 to 14) (size 15 to 20)
#    0.632    0.211    4.211    2.526    2.947    0.842 
#    0.000    0.000    0.000    0.000    0.000    0.000 
#    0.000    0.000    0.000    0.000    0.000    0.000 
#
# Total GULP energy -212020.412684 kJ/mol
# GULP energy per Si atom -5579.484544 kJ/mol
# Density = 1.887121 g / cm^3
# Si number density = 18.914255 Si / 1000 Ang^3
#
#
#
# Elastic Constant Matrix: (Units=GPa)
#
#
# Indices 1 2 3 4 5 6 
#
# 1 118.6544 53.9090 46.0395 0.0000 0.0000 0.0000
# 2 53.9090 118.6544 46.0395 0.0000 0.0000 0.0000
# 3 46.0395 46.0395 99.0003 0.0000 0.0000 0.0000
# 4 0.0000 0.0000 0.0000 48.8520 0.0000 0.0000
# 5 0.0000 0.0000 0.0000 0.0000 48.8520 0.0000
# 6 0.0000 0.0000 0.0000 0.0000 0.0000 40.3230
#
#
#
# Elastic Compliance Matrix: (Units=1/GPa)
#
#
# Indices 1 2 3 4 5 6 
#
# 1 0.011576 -0.003869 -0.003584 0.000000 0.000000 0.000000
# 2 -0.003869 0.011576 -0.003584 0.000000 0.000000 0.000000
# 3 -0.003584 -0.003584 0.013435 0.000000 0.000000 0.000000
# 4 0.000000 0.000000 0.000000 0.020470 0.000000 0.000000
# 5 0.000000 0.000000 0.000000 0.000000 0.020470 0.000000
# 6 0.000000 0.000000 0.000000 0.000000 0.000000 0.024800
#
#
# Mechanical properties :
#
#
# Convention : Reuss Voigt Hill
#
# Bulk Modulus (GPa) = 68.90636 69.80946 69.35791
# Shear Modulus (GPa) = 38.68782 40.29347 39.49065
#
# Velocity S-wave (km/s) = 4.52755 4.62055 4.57429
# Velocity P-wave (km/s) = 7.99010 8.09039 8.04040
#
# Compressibility (1/GPa) = 0.01451245
#
# Stress axis : x y z
#
# Youngs Moduli (GPa) = 86.38310 86.38310 74.43384
#
# Poissons Ratio (x) = 0.33420 0.26680
# Poissons Ratio (y) = 0.33420 0.26680
# Poissons Ratio (z) = 0.30963 0.30963
#
# Static dielectric constant tensor:
#      x y z
#    x 1.670090 0.000000 0.000000 
#    y 0.000000 1.670090 0.000000 
#    z 0.000000 0.000000 1.643050 
# 
# From -- ./inp_files/5399.got.cif
#   From: 2010.05.17/outbox.cif.g08.bks.cpg/sg112_3_cif.got.tgz:5399.got - 2010.05.20 10:59:04.
