data_PCOD9555170
_publ_section_title
;
Structure prediction by ZEFSAII (Michael W. Deem and Ramdas Pophale) SiO2 
 PCOD9555170
Probable space group: P -4 2 C
;
_chemical_formula_sum "Si O2"
_cell_formula_units_Z 48
_cell_length_a 8.534278
_cell_length_b 8.534278
_cell_length_c 32.483484
_cell_angle_alpha 90.000000
_cell_angle_beta 90.000000
_cell_angle_gamma 90.000000
_cell_volume 2365.898857
_symmetry_space_group_name_H-M "P -4 2 C"
_symmetry_group_IT_number 112
_symmetry_cell_setting 'tetragonal'
loop_
_space_group_symop_operation_xyz
x,y,z
y,-x,-z
-x,-y,z
-y,x,-z
x,-y,1/2-z
-x,y,1/2-z
-y,-x,1/2+z
y,x,1/2+z
loop_
_atom_site_type_symbol
_atom_site_label
_atom_site_fract_x
_atom_site_fract_y
_atom_site_fract_z
Si Si1 0.934330 0.749295 0.493197
Si Si2 0.540556 0.822126 0.201957
Si Si3 0.281906 0.809302 0.852522
Si Si4 0.406151 0.353890 0.857458
Si Si5 0.206804 0.884164 0.597532
Si Si6 0.337945 0.078094 0.080794
O O1 0.936294 0.710073 0.445002
O O2 0.890850 0.642429 0.532007
O O3 0.106626 0.814567 0.502423
O O4 0.500000 0.806098 0.250000
O O5 0.720266 0.794728 0.186801
O O6 0.431212 0.695400 0.178976
O O7 0.500000 0.000000 0.190163
O O8 0.466220 0.779144 0.846062
O O9 0.225688 0.703491 0.891308
O O10 0.230596 0.983596 0.867023
O O11 0.500000 0.500000 0.875472
O O12 0.290641 0.272871 0.888422
O O13 0.031825 0.818084 0.587932
O O14 0.500000 0.000000 0.094720
#
# Coordination Sequence:
#
# PCOD9555170 Si02
#       6
#     8   8   8   8   8   8
#     4   9  18  35  55  84 120 165 219 269 324 376
#     4  10  22  43  69  95 126 167 211 258 328 415
#     4  11  21  36  61  92 125 165 213 265 323 390
#     4  10  22  38  61  89 125 161 207 263 331 396
#     4  11  21  38  61  87 124 171 223 275 320 395
#     4  11  21  35  59  86 123 171 221 270 327 395
#
# _framework density 20.288270000000001
#
# number of rings (size 3 to 8) (size 9 to 14) (size 15 to 20)
#    0.000    1.667    1.667    4.500    0.000    4.333 
#    0.000    0.833    0.000    6.000    0.000    0.000 
#    0.000    0.000    0.000    0.000    0.000    0.000 
#
# Total GULP energy -267294.137236 kJ/mol
# GULP energy per Si atom -5568.627859 kJ/mol
# Density = 2.024209 g / cm^3
# Si number density = 20.288270 Si / 1000 Ang^3
#
#
#
# Elastic Constant Matrix: (Units=GPa)
#
#
# Indices 1 2 3 4 5 6 
#
# 1 79.6524 19.3754 34.5797 0.0000 0.0000 0.0000
# 2 19.3754 79.6524 34.5797 0.0000 0.0000 0.0000
# 3 34.5797 34.5797 114.8233 0.0000 0.0000 0.0000
# 4 0.0000 0.0000 0.0000-1476.2923 0.0000 0.0000
# 5 0.0000 0.0000 0.0000 0.0000-1476.2923 0.0000
# 6 0.0000 0.0000 0.0000 0.0000 0.0000 32.7608
#
#
#
# Elastic Compliance Matrix: (Units=1/GPa)
#
#
# Indices 1 2 3 4 5 6 
#
# 1 0.014689 -0.001901 -0.003851 0.000000 0.000000 0.000000
# 2 -0.001901 0.014689 -0.003851 0.000000 0.000000 0.000000
# 3 -0.003851 -0.003851 0.011029 0.000000 0.000000 0.000000
# 4 0.000000 0.000000 0.000000 -0.000677 0.000000 0.000000
# 5 0.000000 0.000000 0.000000 0.000000 -0.000677 0.000000
# 6 0.000000 0.000000 0.000000 0.000000 0.000000 0.030524
#
#
# Mechanical properties :
#
#
# Convention : Reuss Voigt Hill
#
# Bulk Modulus (GPa) = 47.17058 50.13306 48.65182
# Shear Modulus (GPa) = 52.16531 -571.59188 -259.71328
#
# Velocity S-wave (km/s) = 5.07621 -16.80318 -11.32649
# Velocity P-wave (km/s) = 7.59327 18.75362 12.12519
#
# Compressibility (1/GPa) = 0.02119965
#
# Stress axis : x y z
#
# Youngs Moduli (GPa) = 68.07869 68.07869 90.67344
#
# Poissons Ratio (x) = 0.12943 0.34919
# Poissons Ratio (y) = 0.12943 0.34919
# Poissons Ratio (z) = 0.26218 0.26218
#
# Static dielectric constant tensor:
#      x y z
#    x 1.976420 0.000000 0.000000 
#    y 0.000000 1.976420 0.000000 
#    z 0.000000 0.000000 1.736650 
# 
# From -- ./inp_files/6254.got.cif
#   From: 2010.05.17/outbox.cif.g08.bks.cpg/sg112_4_cif.got.tgz:6254.got - 2010.05.20 10:59:04.
