data_PCOD9555292
_publ_section_title
;
Structure prediction by ZEFSAII (Michael W. Deem and Ramdas Pophale) SiO2 
 PCOD9555292
Probable space group: P -4 2 C
;
_chemical_formula_sum "Si O2"
_cell_formula_units_Z 40
_cell_length_a 8.489955
_cell_length_b 8.489955
_cell_length_c 24.231300
_cell_angle_alpha 90.000000
_cell_angle_beta 90.000000
_cell_angle_gamma 90.000000
_cell_volume 1746.576012
_symmetry_space_group_name_H-M "P -4 2 C"
_symmetry_group_IT_number 112
_symmetry_cell_setting 'tetragonal'
loop_
_space_group_symop_operation_xyz
x,y,z
y,-x,-z
-x,-y,z
-y,x,-z
x,-y,1/2-z
-x,y,1/2-z
-y,-x,1/2+z
y,x,1/2+z
loop_
_atom_site_type_symbol
_atom_site_label
_atom_site_fract_x
_atom_site_fract_y
_atom_site_fract_z
Si Si1 0.288135 0.314399 0.413748
Si Si2 0.667629 0.586011 0.799765
Si Si3 0.825255 0.820235 0.733509
Si Si4 0.819109 0.948037 0.615905
Si Si5 0.396573 0.160087 0.525971
O O1 0.401265 0.280110 0.362190
O O2 0.345344 0.215155 0.465854
O O3 0.276606 0.491568 0.438253
O O4 0.114151 0.274463 0.389329
O O5 0.500000 0.500000 0.802894
O O6 0.761311 0.500000 0.750000
O O7 0.683500 0.755054 0.771201
O O8 0.791054 0.832079 0.668089
O O9 0.000000 0.755287 0.750000
O O10 0.836655 0.000000 0.750000
O O11 0.762639 0.862260 0.560750
O O12 0.000000 0.000000 0.617751
O O13 0.500000 0.000000 0.521770
#
# Coordination Sequence:
#
# PCOD9555292 Si02
#       5
#     8   8   8   8   8
#     4  11  25  48  68 105 146 194 243 301 374 447
#     4  11  27  45  69 107 144 194 245 291 379 453
#     4  11  21  47  74 109 142 186 243 319 383 433
#     4  11  23  43  79 107 142 184 249 315 371 446
#     4  10  27  44  71 108 144 195 240 303 376 437
#
# _framework density 22.901954
#
# number of rings (size 3 to 8) (size 9 to 14) (size 15 to 20)
#    0.000    1.200    4.000    0.000   14.000    0.400 
#    3.600    2.000    0.000    0.000    0.000    0.000 
#    0.000    0.000    0.000    0.000    0.000    0.000 
#
# Total GULP energy -222828.945575 kJ/mol
# GULP energy per Si atom -5570.723639 kJ/mol
# Density = 2.284983 g / cm^3
# Si number density = 22.901954 Si / 1000 Ang^3
#
#
#
# Elastic Constant Matrix: (Units=GPa)
#
#
# Indices 1 2 3 4 5 6 
#
# 1 55.2531 17.4611 43.8584 0.0000 0.0000 0.0000
# 2 17.4611 55.2531 43.8584 0.0000 0.0000 0.0000
# 3 43.8584 43.8584 262.3828 0.0000 0.0000 0.0000
# 4 0.0000 0.0000 0.0000 29.1814 0.0000 0.0000
# 5 0.0000 0.0000 0.0000 0.0000 29.1814 0.0000
# 6 0.0000 0.0000 0.0000 0.0000 0.0000 29.8979
#
#
#
# Elastic Compliance Matrix: (Units=1/GPa)
#
#
# Indices 1 2 3 4 5 6 
#
# 1 0.021843 -0.004617 -0.002879 0.000000 0.000000 0.000000
# 2 -0.004617 0.021843 -0.002879 0.000000 0.000000 0.000000
# 3 -0.002879 -0.002879 0.004774 0.000000 0.000000 0.000000
# 4 0.000000 0.000000 0.000000 0.034268 0.000000 0.000000
# 5 0.000000 0.000000 0.000000 0.000000 0.034268 0.000000
# 6 0.000000 0.000000 0.000000 0.000000 0.000000 0.033447
#
#
# Mechanical properties :
#
#
# Convention : Reuss Voigt Hill
#
# Bulk Modulus (GPa) = 36.09047 64.80499 50.44773
# Shear Modulus (GPa) = 27.71116 35.49955 31.60536
#
# Velocity S-wave (km/s) = 3.48227 3.94136 3.71890
# Velocity P-wave (km/s) = 5.65342 7.00504 6.36521
#
# Compressibility (1/GPa) = 0.02770815
#
# Stress axis : x y z
#
# Youngs Moduli (GPa) = 45.78063 45.78063 209.47542
#
# Poissons Ratio (x) = 0.21139 0.60316
# Poissons Ratio (y) = 0.21139 0.60316
# Poissons Ratio (z) = 0.13182 0.13182
#
# Static dielectric constant tensor:
#      x y z
#    x 1.954920 0.000000 0.000000 
#    y 0.000000 1.954920 0.000000 
#    z 0.000000 0.000000 1.722630 
# 
# From -- ./inp_files/5313.got.cif
#   From: 2010.05.17/outbox.cif.g08.bks.cpg/sg112_3_cif.got.tgz:5313.got - 2010.05.20 10:59:04.
