data_PCOD9555696
_publ_section_title
;
Structure prediction by ZEFSAII (Michael W. Deem and Ramdas Pophale) SiO2 
 PCOD9555696
Probable space group: P -4 21 M 
;
_chemical_formula_sum "Si O2"
_cell_formula_units_Z 40
_cell_length_a 11.120073
_cell_length_b 11.120073
_cell_length_c 16.275847
_cell_angle_alpha 90.000000
_cell_angle_beta 90.000000
_cell_angle_gamma 90.000000
_cell_volume 2012.606520
_symmetry_space_group_name_H-M "P -4 21 M "
_symmetry_group_IT_number 113
_symmetry_cell_setting 'tetragonal'
loop_
_space_group_symop_operation_xyz
x,y,z
y,-x,-z
-x,-y,z
-y,x,-z
1/2+x,1/2-y,-z
1/2-x,1/2+y,-z
1/2-y,1/2-x,z
1/2+y,1/2+x,z
loop_
_atom_site_type_symbol
_atom_site_label
_atom_site_fract_x
_atom_site_fract_y
_atom_site_fract_z
Si Si1 0.451815 0.761870 0.567579
Si Si2 0.696580 0.000130 0.004265
Si Si3 0.812769 0.124348 0.386368
Si Si4 0.894740 0.099264 0.879894
Si Si5 0.803919 0.883364 0.297934
O O1 0.397567 0.897567 0.569308
O O2 0.582471 0.721668 0.598530
O O3 0.436637 0.714148 0.474686
O O4 0.366455 0.687338 0.628074
O O5 0.610311 0.110311 0.030944
O O6 0.607569 0.892432 0.977418
O O7 0.783265 0.948977 0.075043
O O8 0.784390 0.047477 0.932856
O O9 0.695079 0.195079 0.361101
O O10 0.831059 0.021351 0.319682
O O11 0.854860 0.135814 0.788969
O O12 0.000000 0.000000 0.877968
O O13 0.666538 0.833463 0.295862
#
# Coordination Sequence:
#
# PCOD9555696 Si02
#       5
#     8   8   8   8   8
#     4  10  21  38  61  90 126 169 216 266 324 390
#     4  11  23  41  67  97 134 176 217 268 326 389
#     4  11  22  38  63  92 126 172 215 266 332 392
#     4  12  23  42  69  97 131 176 217 267 328 391
#     4  11  24  41  64  93 127 167 217 272 321 383
#
# _framework density 19.874724000000001
#
# number of rings (size 3 to 8) (size 9 to 14) (size 15 to 20)
#    0.000    1.000    4.000    3.600    0.000    1.600 
#    0.000    5.000    0.000    1.200    0.000    0.000 
#    0.000    0.000    0.000    0.000    0.000    0.000 
#
# Total GULP energy -223216.737274 kJ/mol
# GULP energy per Si atom -5580.418432 kJ/mol
# Density = 1.982949 g / cm^3
# Si number density = 19.874724 Si / 1000 Ang^3
#
#
#
# Elastic Constant Matrix: (Units=GPa)
#
#
# Indices 1 2 3 4 5 6 
#
# 1 102.0500 16.9190 3.5021 0.0000 0.0000 0.0000
# 2 16.9190 102.0530 3.5064 0.0000 0.0000 0.0000
# 3 3.5021 3.5064 42.1231 0.0000 0.0000 0.0000
# 4 0.0000 0.0000 0.0000 -2.1186 0.0000 0.0000
# 5 0.0000 0.0000 0.0000 0.0000 -2.1155 0.0000
# 6 0.0000 0.0000 0.0000 0.0000 0.0000 33.0967
#
#
#
# Elastic Compliance Matrix: (Units=1/GPa)
#
#
# Indices 1 2 3 4 5 6 
#
# 1 0.010097 -0.001650 -0.000702 0.000000 0.000000 0.000000
# 2 -0.001650 0.010097 -0.000703 0.000000 0.000000 0.000000
# 3 -0.000702 -0.000703 0.023857 0.000000 0.000000 0.000000
# 4 0.000000 0.000000 0.000000 -0.472015 0.000000 0.000000
# 5 0.000000 0.000000 0.000000 0.000000 -0.472707 0.000000
# 6 0.000000 0.000000 0.000000 0.000000 0.000000 0.030214
#
#
# Mechanical properties :
#
#
# Convention : Reuss Voigt Hill
#
# Bulk Modulus (GPa) = 26.35757 32.67565 29.51661
# Shear Modulus (GPa) = -5.87061 20.59244 7.36091
#
# Velocity S-wave (km/s) = -1.72053 3.22236 1.92658
# Velocity P-wave (km/s) = 3.05674 5.50648 4.45337
#
# Compressibility (1/GPa) = 0.03793976
#
# Stress axis : x y z
#
# Youngs Moduli (GPa) = 99.04195 99.04416 41.91670
#
# Poissons Ratio (x) = 0.16340 0.02943
# Poissons Ratio (y) = 0.16340 0.02948
# Poissons Ratio (z) = 0.06954 0.06966
#
# Static dielectric constant tensor:
#      x y z
#    x 1.719530 0.000000 0.000000 
#    y 0.000000 1.719530 0.000000 
#    z 0.000000 0.000000 1.643450 
# 
# From -- ./inp_files/2183.got.cif
#   From: 2010.05.17/outbox.cif.g08.bks.cpg/sg113_cif.got.tgz:2183.got - 2010.05.20 11:03:00.
