data_PCOD9555584
_publ_section_title
;
Structure prediction by ZEFSAII (Michael W. Deem and Ramdas Pophale) SiO2 
 PCOD9555584
Probable space group: P -4 21 M 
;
_chemical_formula_sum "Si O2"
_cell_formula_units_Z 56
_cell_length_a 11.314308
_cell_length_b 11.314308
_cell_length_c 21.431650
_cell_angle_alpha 90.000000
_cell_angle_beta 90.000000
_cell_angle_gamma 90.000000
_cell_volume 2743.541931
_symmetry_space_group_name_H-M "P -4 21 M "
_symmetry_group_IT_number 113
_symmetry_cell_setting 'tetragonal'
loop_
_space_group_symop_operation_xyz
x,y,z
y,-x,-z
-x,-y,z
-y,x,-z
1/2+x,1/2-y,-z
1/2-x,1/2+y,-z
1/2-y,1/2-x,z
1/2+y,1/2+x,z
loop_
_atom_site_type_symbol
_atom_site_label
_atom_site_fract_x
_atom_site_fract_y
_atom_site_fract_z
Si Si1 0.262604 0.049879 0.139071
Si Si2 0.997066 0.187908 0.478114
Si Si3 0.685377 0.992379 0.403343
Si Si4 0.596400 0.606087 0.784657
Si Si5 0.561968 0.242914 0.868359
Si Si6 0.512070 0.300895 0.003466
Si Si7 0.366003 0.332861 0.643324
O O1 0.382932 0.117069 0.155899
O O2 0.160150 0.151477 0.135394
O O3 0.215185 0.952528 0.187435
O O4 0.266279 0.999116 0.068763
O O5 0.000118 0.301612 0.521733
O O6 0.970806 0.195170 0.405047
O O7 0.113167 0.112521 0.493137
O O8 0.635841 0.864160 0.385614
O O9 0.587290 0.087290 0.383228
O O10 0.807396 0.040818 0.375488
O O11 0.500000 0.500000 0.783790
O O12 0.548229 0.707082 0.830571
O O13 0.605418 0.657567 0.715624
O O14 0.626002 0.126002 0.843623
O O15 0.530447 0.227302 0.940881
O O16 0.394648 0.380348 0.993063
O O17 0.267935 0.232066 0.632314
#
# Coordination Sequence:
#
# PCOD9555584 Si02
#       7
#     8   8   8   8   8   8   8
#     4   9  17  30  50  80 108 138 182 227 273 329
#     4   9  18  32  56  80 105 133 172 223 263 310
#     4   9  18  33  53  78 109 141 173 216 271 323
#     4  10  20  34  54  75 108 149 181 222 271 323
#     4   9  17  31  51  78 106 139 184 227 271 328
#     4   9  14  26  51  75  99 133 174 222 280 324
#     4  10  21  35  54  78 106 142 181 219 269 323
#
# _framework density 20.411569
#
# number of rings (size 3 to 8) (size 9 to 14) (size 15 to 20)
#    0.000    2.714    1.429    0.429    4.000    1.143 
#    0.000    2.143    0.000    3.429    0.000    0.000 
#    0.000    0.000    0.000    0.000    0.000    0.000 
#
# Total GULP energy -312225.177281 kJ/mol
# GULP energy per Si atom -5575.449594 kJ/mol
# Density = 2.036511 g / cm^3
# Si number density = 20.411569 Si / 1000 Ang^3
#
#
#
# Elastic Constant Matrix: (Units=GPa)
#
#
# Indices 1 2 3 4 5 6 
#
# 1 28.5713 17.7289 13.2373 0.0000 0.0000 0.0000
# 2 17.7289 28.5713 13.2368 0.0000 0.0000 0.0000
# 3 13.2373 13.2368 114.1421 0.0000 0.0000 0.0000
# 4 0.0000 0.0000 0.0000 5.1531 0.0000 0.0000
# 5 0.0000 0.0000 0.0000 0.0000 5.1527 0.0000
# 6 0.0000 0.0000 0.0000 0.0000 0.0000 9.5772
#
#
#
# Elastic Compliance Matrix: (Units=1/GPa)
#
#
# Indices 1 2 3 4 5 6 
#
# 1 0.057682 -0.034549 -0.002683 0.000000 0.000000 0.000000
# 2 -0.034549 0.057681 -0.002682 0.000000 0.000000 0.000000
# 3 -0.002683 -0.002682 0.009383 0.000000 0.000000 0.000000
# 4 0.000000 0.000000 0.000000 0.194057 0.000000 0.000000
# 5 0.000000 0.000000 0.000000 0.000000 0.194072 0.000000
# 6 0.000000 0.000000 0.000000 0.000000 0.000000 0.104415
#
#
# Mechanical properties :
#
#
# Convention : Reuss Voigt Hill
#
# Bulk Modulus (GPa) = 22.26336 28.85451 25.55894
# Shear Modulus (GPa) = 7.02158 12.44873 9.73515
#
# Velocity S-wave (km/s) = 1.85674 2.47227 2.18627
# Velocity P-wave (km/s) = 3.94050 4.72404 4.34994
#
# Compressibility (1/GPa) = 0.04491686
#
# Stress axis : x y z
#
# Youngs Moduli (GPa) = 17.33656 17.33669 106.57326
#
# Poissons Ratio (x) = 0.59897 0.28592
# Poissons Ratio (y) = 0.59897 0.28587
# Poissons Ratio (z) = 0.04651 0.04650
#
# Static dielectric constant tensor:
#      x y z
#    x 1.750530 0.000000 0.000000 
#    y 0.000000 1.750530 0.000000 
#    z 0.000000 0.000000 1.710150 
# 
# From -- ./inp_files/2690.got.cif
#   From: 2010.05.17/outbox.cif.g08.bks.cpg/sg113_cif.got.tgz:2690.got - 2010.05.20 11:03:00.
