data_PCOD9555995
_publ_section_title
;
Structure prediction by ZEFSAII (Michael W. Deem and Ramdas Pophale) SiO2 
 PCOD9555995
Probable space group: P -4 21 C
;
_chemical_formula_sum "Si O2"
_cell_formula_units_Z 36
_cell_length_a 8.283359
_cell_length_b 8.283359
_cell_length_c 23.134668
_cell_angle_alpha 90.000000
_cell_angle_beta 90.000000
_cell_angle_gamma 90.000000
_cell_volume 1587.362950
_symmetry_space_group_name_H-M "P -4 21 C"
_symmetry_group_IT_number 114
_symmetry_cell_setting 'tetragonal'
loop_
_space_group_symop_operation_xyz
x,y,z
y,-x,-z
-x,-y,z
-y,x,-z
1/2+x,1/2-y,1/2-z
1/2-x,1/2+y,1/2-z
1/2-y,1/2-x,1/2+z
1/2+y,1/2+x,1/2+z
loop_
_atom_site_type_symbol
_atom_site_label
_atom_site_fract_x
_atom_site_fract_y
_atom_site_fract_z
Si Si1 0.505891 0.739310 0.899629
Si Si2 0.308239 0.317739 0.210575
Si Si3 0.006240 0.753257 0.097798
Si Si4 0.000000 0.500000 0.256576
Si Si5 0.000000 0.000000 0.000000
Si Si6 0.000000 0.000000 0.500000
Si Si7 0.500000 0.500000 0.690547
O O1 0.409156 0.648141 0.848947
O O2 0.662027 0.836861 0.877228
O O3 0.377917 0.874622 0.919037
O O4 0.552605 0.638006 0.955519
O O5 0.122875 0.382966 0.221054
O O6 0.388472 0.401589 0.266316
O O7 0.383798 0.135125 0.211804
O O8 0.927448 0.872244 0.145027
O O9 0.052675 0.856438 0.042098
#
# Coordination Sequence:
#
# PCOD9555995 Si02
#       7
#     8   8   8   4   2   2   4
#     4  11  23  42  62  90 132 173 217 278 345 409
#     4  12  24  43  68 101 142 183 227 283 346 419
#     4  10  22  41  66  92 127 173 222 277 341 412
#     4  12  26  44  72 106 142 184 230 278 346 420
#     4  10  20  40  66  92 116 162 232 286 328 402
#     4  12  26  40  62  92 122 168 224 282 344 400
#     4  11  23  41  70 103 135 179 230 278 346 421
#
# _framework density 22.679124999999999
#
# number of rings (size 3 to 8) (size 9 to 14) (size 15 to 20)
#    0.000    0.889    0.000    8.667    0.000    1.778 
#    0.000    4.444    0.000    0.000    0.000    0.000 
#    0.000    0.000    0.000    0.000    0.000    0.000 
#
# Total GULP energy -200604.341130 kJ/mol
# GULP energy per Si atom -5572.342809 kJ/mol
# Density = 2.262751 g / cm^3
# Si number density = 22.679125 Si / 1000 Ang^3
#
#
#
# Elastic Constant Matrix: (Units=GPa)
#
#
# Indices 1 2 3 4 5 6 
#
# 1 101.9943 54.2479 35.1281 0.0000 0.0000 0.0000
# 2 54.2479 101.9943 35.1281 0.0000 0.0000 0.0000
# 3 35.1281 35.1281 114.9540 0.0000 0.0000 0.0000
# 4 0.0000 0.0000 0.0000 12.7624 0.0000 0.0000
# 5 0.0000 0.0000 0.0000 0.0000 12.7624 0.0000
# 6 0.0000 0.0000 0.0000 0.0000 0.0000 43.8570
#
#
#
# Elastic Compliance Matrix: (Units=1/GPa)
#
#
# Indices 1 2 3 4 5 6 
#
# 1 0.014182 -0.006762 -0.002267 0.000000 0.000000 0.000000
# 2 -0.006762 0.014182 -0.002267 0.000000 0.000000 0.000000
# 3 -0.002267 -0.002267 0.010085 0.000000 0.000000 0.000000
# 4 0.000000 0.000000 0.000000 0.078355 0.000000 0.000000
# 5 0.000000 0.000000 0.000000 0.000000 0.078355 0.000000
# 6 0.000000 0.000000 0.000000 0.000000 0.000000 0.022801
#
#
# Mechanical properties :
#
#
# Convention : Reuss Voigt Hill
#
# Bulk Modulus (GPa) = 63.07132 63.10565 63.08848
# Shear Modulus (GPa) = 20.33846 26.83891 23.58869
#
# Velocity S-wave (km/s) = 2.99790 3.44382 3.22857
# Velocity P-wave (km/s) = 6.31299 6.61052 6.46347
#
# Compressibility (1/GPa) = 0.01585507
#
# Stress axis : x y z
#
# Youngs Moduli (GPa) = 70.51224 70.51224 99.15824
#
# Poissons Ratio (x) = 0.47681 0.22483
# Poissons Ratio (y) = 0.47681 0.22483
# Poissons Ratio (z) = 0.15988 0.15988
#
# Static dielectric constant tensor:
#      x y z
#    x 2.033790 0.000000 0.000000 
#    y 0.000000 2.033790 0.000000 
#    z 0.000000 0.000000 1.795770 
# 
# From -- ./inp_files/3033.got.cif
#   From: 2010.05.17/outbox.cif.g08.bks.cpg/sg114_2_cif.got.tgz:3033.got - 2010.05.20 11:04:54.
