data_PCOD9555785
_publ_section_title
;
Structure prediction by ZEFSAII (Michael W. Deem and Ramdas Pophale) SiO2 
 PCOD9555785
Probable space group: P -4 21 M 
;
_chemical_formula_sum "Si O2"
_cell_formula_units_Z 24
_cell_length_a 13.047018
_cell_length_b 13.047018
_cell_length_c 6.646329
_cell_angle_alpha 90.000000
_cell_angle_beta 90.000000
_cell_angle_gamma 90.000000
_cell_volume 1131.369219
_symmetry_space_group_name_H-M "P -4 21 M "
_symmetry_group_IT_number 113
_symmetry_cell_setting 'tetragonal'
loop_
_space_group_symop_operation_xyz
x,y,z
y,-x,-z
-x,-y,z
-y,x,-z
1/2+x,1/2-y,-z
1/2-x,1/2+y,-z
1/2-y,1/2-x,z
1/2+y,1/2+x,z
loop_
_atom_site_type_symbol
_atom_site_label
_atom_site_fract_x
_atom_site_fract_y
_atom_site_fract_z
Si Si1 0.287934 0.212066 0.430912
Si Si2 0.500000 0.000000 0.229657
Si Si3 0.157834 0.657834 0.989385
Si Si4 0.865958 0.634043 0.459351
Si Si5 0.000000 0.000000 0.500000
Si Si6 0.467014 0.280151 0.687462
O O1 0.286263 0.213738 0.193240
O O2 0.213596 0.286405 0.555845
O O3 0.400853 0.242191 0.496838
O O4 0.425410 0.074591 0.098121
O O5 0.569565 0.069565 0.379742
O O6 0.242891 0.598438 0.121775
O O7 0.793196 0.564604 0.322582
O O8 0.009417 0.898727 0.358636
#
# Coordination Sequence:
#
# PCOD9555785 Si02
#       6
#     4   2   4   4   2   8
#     4  11  23  46  69 100 140 184 232 303 361 419
#     4  12  22  44  84 102 142 194 250 306 350 428
#     4  11  24  46  72 111 136 185 253 305 353 421
#     4  12  22  45  77  98 142 188 244 292 359 424
#     4  12  24  48  70 100 156 202 224 288 386 436
#     4  11  24  46  72 102 142 192 240 296 362 433
#
# _framework density 21.213234
#
# number of rings (size 3 to 8) (size 9 to 14) (size 15 to 20)
#    0.000    0.667    6.667    2.000    0.000    0.000 
#   18.000    1.667    0.000    0.000    0.000    0.000 
#    0.000    0.000    0.000    0.000    0.000    0.000 
#
# Total GULP energy -133895.980311 kJ/mol
# GULP energy per Si atom -5578.999180 kJ/mol
# Density = 2.116495 g / cm^3
# Si number density = 21.213234 Si / 1000 Ang^3
#
#
#
# Elastic Constant Matrix: (Units=GPa)
#
#
# Indices 1 2 3 4 5 6 
#
# 1 134.1124 92.2624 52.9914 0.0000 0.0000 0.0000
# 2 92.2624 134.1137 52.9932 0.0000 0.0000 0.0000
# 3 52.9914 52.9932 107.1729 0.0000 0.0000 0.0000
# 4 0.0000 0.0000 0.0000 62.1530 0.0000 0.0000
# 5 0.0000 0.0000 0.0000 0.0000 62.1155 0.0000
# 6 0.0000 0.0000 0.0000 0.0000 0.0000 52.8298
#
#
#
# Elastic Compliance Matrix: (Units=1/GPa)
#
#
# Indices 1 2 3 4 5 6 
#
# 1 0.014821 -0.009073 -0.002842 0.000000 0.000000 0.000000
# 2 -0.009073 0.014821 -0.002842 0.000000 0.000000 0.000000
# 3 -0.002842 -0.002842 0.012141 0.000000 0.000000 0.000000
# 4 0.000000 0.000000 0.000000 0.016089 0.000000 0.000000
# 5 0.000000 0.000000 0.000000 0.000000 0.016099 0.000000
# 6 0.000000 0.000000 0.000000 0.000000 0.000000 0.018929
#
#
# Mechanical properties :
#
#
# Convention : Reuss Voigt Hill
#
# Bulk Modulus (GPa) = 81.50722 85.76588 83.63655
# Shear Modulus (GPa) = 39.52386 47.22978 43.37682
#
# Velocity S-wave (km/s) = 4.32113 4.72362 4.52685
# Velocity P-wave (km/s) = 7.96256 8.38262 8.17529
#
# Compressibility (1/GPa) = 0.01226885
#
# Stress axis : x y z
#
# Youngs Moduli (GPa) = 67.47057 67.47028 82.36289
#
# Poissons Ratio (x) = 0.61217 0.23407
# Poissons Ratio (y) = 0.61217 0.23411
# Poissons Ratio (z) = 0.19175 0.19178
#
# Static dielectric constant tensor:
#      x y z
#    x 1.224920 0.000000 0.000000 
#    y 0.000000 1.225390 0.000000 
#    z 0.000000 0.000000 1.725790 
# 
# From -- ./inp_files/165.got.cif
#   From: 2010.05.17/outbox.cif.g08.bks.cpg/sg113_cif.got.tgz:165.got - 2010.05.20 11:03:00.
