data_PCOD9555046
_publ_section_title
;
Structure prediction by ZEFSAII (Michael W. Deem and Ramdas Pophale) SiO2 
 PCOD9555046
Probable space group: P -4 2 C
;
_chemical_formula_sum "Si O2"
_cell_formula_units_Z 44
_cell_length_a 14.364705
_cell_length_b 14.364705
_cell_length_c 11.038938
_cell_angle_alpha 90.000000
_cell_angle_beta 90.000000
_cell_angle_gamma 90.000000
_cell_volume 2277.826899
_symmetry_space_group_name_H-M "P -4 2 C"
_symmetry_group_IT_number 112
_symmetry_cell_setting 'tetragonal'
loop_
_space_group_symop_operation_xyz
x,y,z
y,-x,-z
-x,-y,z
-y,x,-z
x,-y,1/2-z
-x,y,1/2-z
-y,-x,1/2+z
y,x,1/2+z
loop_
_atom_site_type_symbol
_atom_site_label
_atom_site_fract_x
_atom_site_fract_y
_atom_site_fract_z
Si Si1 0.894479 0.399388 0.797630
Si Si2 0.254665 0.158327 0.373593
Si Si3 0.294187 0.880049 0.517822
Si Si4 0.323834 0.930100 0.883369
Si Si5 0.000000 0.000000 0.000000
Si Si6 0.132458 0.880314 0.329905
Si Si7 0.000000 0.500000 0.250000
O O1 0.872108 0.500000 0.750000
O O2 0.827152 0.325319 0.735222
O O3 0.882836 0.388572 0.941084
O O4 0.000000 0.379025 0.750000
O O5 0.213520 0.253031 0.427369
O O6 0.312630 0.104700 0.477175
O O7 0.167616 0.102132 0.308918
O O8 0.217201 0.907270 0.417764
O O9 0.299859 0.960626 0.614936
O O10 0.231779 0.879742 0.831077
O O11 0.428237 0.933854 0.827751
O O12 0.926524 0.046665 0.903810
#
# Coordination Sequence:
#
# PCOD9555046 Si02
#       7
#     8   8   8   8   2   8   2
#     4  10  20  35  60  85 107 152 203 251 298 357
#     4  10  22  37  56  78 119 155 198 247 307 355
#     4  10  20  36  57  78 119 155 193 257 296 349
#     4  11  22  41  54  87 114 161 209 257 314 366
#     4  12  20  40  62  92 126 178 228 256 306 360
#     4  10  22  39  57  85 123 169 209 262 295 363
#     4  12  28  36  64  76 116 160 210 284 326 370
#
# _framework density 19.316656999999999
#
# number of rings (size 3 to 8) (size 9 to 14) (size 15 to 20)
#    0.000    1.636    3.636    1.091    2.545    0.000 
#    0.000    7.273    0.000    0.000    0.000    0.000 
#    0.000    2.182    0.000    0.000    0.000    0.000 
#
# Total GULP energy -244952.409017 kJ/mol
# GULP energy per Si atom -5567.100205 kJ/mol
# Density = 1.927269 g / cm^3
# Si number density = 19.316657 Si / 1000 Ang^3
#
#
#
# Elastic Constant Matrix: (Units=GPa)
#
#
# Indices 1 2 3 4 5 6 
#
# 1 83.8018 33.3652 30.5252 0.0000 0.0000 0.0000
# 2 33.3652 83.8018 30.5252 0.0000 0.0000 0.0000
# 3 30.5252 30.5252 82.2040 0.0000 0.0000 0.0000
# 4 0.0000 0.0000 0.0000 38.9183 0.0000 0.0000
# 5 0.0000 0.0000 0.0000 0.0000 38.9183 0.0000
# 6 0.0000 0.0000 0.0000 0.0000 0.0000 14.7387
#
#
#
# Elastic Compliance Matrix: (Units=1/GPa)
#
#
# Indices 1 2 3 4 5 6 
#
# 1 0.015205 -0.004622 -0.003930 0.000000 0.000000 0.000000
# 2 -0.004622 0.015205 -0.003930 0.000000 0.000000 0.000000
# 3 -0.003930 -0.003930 0.015083 0.000000 0.000000 0.000000
# 4 0.000000 0.000000 0.000000 0.025695 0.000000 0.000000
# 5 0.000000 0.000000 0.000000 0.000000 0.025695 0.000000
# 6 0.000000 0.000000 0.000000 0.000000 0.000000 0.067849
#
#
# Mechanical properties :
#
#
# Convention : Reuss Voigt Hill
#
# Bulk Modulus (GPa) = 48.71023 48.73767 48.72395
# Shear Modulus (GPa) = 25.44051 28.87453 27.15752
#
# Velocity S-wave (km/s) = 3.63302 3.87046 3.75362
# Velocity P-wave (km/s) = 6.54751 6.72753 6.63813
#
# Compressibility (1/GPa) = 0.02052957
#
# Stress axis : x y z
#
# Youngs Moduli (GPa) = 65.76951 65.76951 66.29865
#
# Poissons Ratio (x) = 0.30400 0.26053
# Poissons Ratio (y) = 0.30400 0.26053
# Poissons Ratio (z) = 0.25845 0.25845
#
# Static dielectric constant tensor:
#      x y z
#    x 1.726800 0.000000 0.000000 
#    y 0.000000 1.726800 0.000000 
#    z 0.000000 0.000000 1.865200 
# 
# From -- ./inp_files/2531.got.cif
#   From: 2010.05.17/outbox.cif.g08.bks.cpg/sg112_2_cif.got.tgz:2531.got - 2010.05.20 10:59:04.
