data_PCOD9555247
_publ_section_title
;
Structure prediction by ZEFSAII (Michael W. Deem and Ramdas Pophale) SiO2 
 PCOD9555247
Probable space group: P -4 2 C
;
_chemical_formula_sum "Si O2"
_cell_formula_units_Z 28
_cell_length_a 12.957680
_cell_length_b 12.957680
_cell_length_c 8.351890
_cell_angle_alpha 90.000000
_cell_angle_beta 90.000000
_cell_angle_gamma 90.000000
_cell_volume 1402.294616
_symmetry_space_group_name_H-M "P -4 2 C"
_symmetry_group_IT_number 112
_symmetry_cell_setting 'tetragonal'
loop_
_space_group_symop_operation_xyz
x,y,z
y,-x,-z
-x,-y,z
-y,x,-z
x,-y,1/2-z
-x,y,1/2-z
-y,-x,1/2+z
y,x,1/2+z
loop_
_atom_site_type_symbol
_atom_site_label
_atom_site_fract_x
_atom_site_fract_y
_atom_site_fract_z
Si Si1 0.629283 0.870717 0.500000
Si Si2 0.000000 0.500000 0.250000
Si Si3 0.500000 0.000000 0.250000
Si Si4 0.453814 0.352913 0.429704
Si Si5 0.852913 0.046186 0.929704
O O1 0.603892 0.750701 0.480626
O O2 0.749299 0.896108 0.519374
O O3 0.572066 0.924756 0.647996
O O4 0.575244 0.927934 0.352005
O O5 0.377996 0.450165 0.452822
O O6 0.500000 0.346437 0.250000
O O7 0.846437 0.000000 0.750000
O O8 0.950165 0.122004 0.952822
#
# Coordination Sequence:
#
# PCOD9555247 Si02
#       5
#     8   2   2   8   8
#     4  11  24  44  70  99 138 184 224 283 350 398
#     4  10  24  42  64 106 144 166 228 294 332 418
#     4  10  24  42  64 106 144 166 228 294 332 418
#     4  11  25  45  70 101 137 180 233 281 337 413
#     4  11  25  45  70 101 137 180 233 281 337 413
#
# _framework density 19.967275000000001
#
# number of rings (size 3 to 8) (size 9 to 14) (size 15 to 20)
#    0.000    1.143    2.857    3.429    8.000    6.857 
#    0.000    0.000    0.000    0.000    0.000    0.000 
#    0.000    0.000    0.000    0.000    0.000    0.000 
#
# Total GULP energy -156524.128153 kJ/mol
# GULP energy per Si atom -5590.147434 kJ/mol
# Density = 1.992183 g / cm^3
# Si number density = 19.967275 Si / 1000 Ang^3
#
#
#
# Elastic Constant Matrix: (Units=GPa)
#
#
# Indices 1 2 3 4 5 6 
#
# 1 170.4407 106.2893 49.6984 0.0000 0.0000 0.0000
# 2 106.2893 170.4407 49.6984 0.0000 0.0000 0.0000
# 3 49.6984 49.6984 97.9197 0.0000 0.0000 0.0000
# 4 0.0000 0.0000 0.0000 42.6470 0.0000 0.0000
# 5 0.0000 0.0000 0.0000 0.0000 42.6470 0.0000
# 6 0.0000 0.0000 0.0000 0.0000 0.0000 54.5895
#
#
#
# Elastic Compliance Matrix: (Units=1/GPa)
#
#
# Indices 1 2 3 4 5 6 
#
# 1 0.010004 -0.005584 -0.002243 0.000000 0.000000 0.000000
# 2 -0.005584 0.010004 -0.002243 0.000000 0.000000 0.000000
# 3 -0.002243 -0.002243 0.012489 0.000000 0.000000 0.000000
# 4 0.000000 0.000000 0.000000 0.023448 0.000000 0.000000
# 5 0.000000 0.000000 0.000000 0.000000 0.023448 0.000000
# 6 0.000000 0.000000 0.000000 0.000000 0.000000 0.018319
#
#
# Mechanical properties :
#
#
# Convention : Reuss Voigt Hill
#
# Bulk Modulus (GPa) = 80.93286 94.46369 87.69828
# Shear Modulus (GPa) = 40.99329 43.51770 42.25549
#
# Velocity S-wave (km/s) = 4.53595 4.67352 4.60525
# Velocity P-wave (km/s) = 8.24947 8.74839 8.50259
#
# Compressibility (1/GPa) = 0.01235592
#
# Stress axis : x y z
#
# Youngs Moduli (GPa) = 99.96303 99.96303 80.06887
#
# Poissons Ratio (x) = 0.55824 0.17959
# Poissons Ratio (y) = 0.55824 0.17959
# Poissons Ratio (z) = 0.22421 0.22421
#
# Static dielectric constant tensor:
#      x y z
#    x 1.681620 0.000000 0.000000 
#    y 0.000000 1.681620 0.000000 
#    z 0.000000 0.000000 1.735130 
# 
# From -- ./inp_files/901.got.cif
#   From: 2010.05.17/outbox.cif.g08.bks.cpg/sg112_1_cif.got.tgz:901.got - 2010.05.20 10:59:04.
