data_PCOD9555592
_publ_section_title
;
Structure prediction by ZEFSAII (Michael W. Deem and Ramdas Pophale) SiO2 
 PCOD9555592
Probable space group: P -4 21 M 
;
_chemical_formula_sum "Si O2"
_cell_formula_units_Z 48
_cell_length_a 16.591099
_cell_length_b 16.591099
_cell_length_c 10.354713
_cell_angle_alpha 90.000000
_cell_angle_beta 90.000000
_cell_angle_gamma 90.000000
_cell_volume 2850.285580
_symmetry_space_group_name_H-M "P -4 21 M "
_symmetry_group_IT_number 113
_symmetry_cell_setting 'tetragonal'
loop_
_space_group_symop_operation_xyz
x,y,z
y,-x,-z
-x,-y,z
-y,x,-z
1/2+x,1/2-y,-z
1/2-x,1/2+y,-z
1/2-y,1/2-x,z
1/2+y,1/2+x,z
loop_
_atom_site_type_symbol
_atom_site_label
_atom_site_fract_x
_atom_site_fract_y
_atom_site_fract_z
Si Si1 0.684265 0.682834 0.295620
Si Si2 0.071839 0.707083 0.391491
Si Si3 0.750580 0.486770 0.676032
Si Si4 0.633617 0.996878 0.082814
Si Si5 0.699452 0.063527 0.825939
Si Si6 0.339246 0.706613 0.403207
O O1 0.731361 0.768640 0.283688
O O2 0.588984 0.694502 0.286594
O O3 0.723846 0.621354 0.195260
O O4 0.704346 0.652466 0.440777
O O5 0.130441 0.630441 0.387069
O O6 0.129025 0.784995 0.369566
O O7 0.035001 0.714801 0.534611
O O8 0.003512 0.700523 0.284593
O O9 0.819071 0.490774 0.783928
O O10 0.709253 0.573853 0.662197
O O11 0.585421 0.914580 0.054047
O O12 0.566768 0.066768 0.093227
O O13 0.691292 0.021799 0.964771
O O14 0.621902 0.121902 0.809092
O O15 0.285922 0.785922 0.371032
#
# Coordination Sequence:
#
# PCOD9555592 Si02
#       6
#     8   8   8   8   8   8
#     4   9  18  34  55  79 106 143 189 225 263 324
#     4  10  20  34  56  83 109 142 185 223 267 327
#     4  11  19  34  57  80 109 143 178 227 276 316
#     4  10  21  35  52  81 115 141 175 228 282 329
#     4  10  20  37  56  76 111 148 181 225 272 323
#     4   9  18  33  53  81 113 139 176 230 271 320
#
# _framework density 16.840416999999999
#
# number of rings (size 3 to 8) (size 9 to 14) (size 15 to 20)
#    0.000    2.167    1.667    3.500    0.000    1.667 
#    3.000    0.833    0.000    0.000    0.000    0.000 
#    0.000    0.000    0.000    0.000    0.000    0.000 
#
# Total GULP energy -267718.237358 kJ/mol
# GULP energy per Si atom -5577.463278 kJ/mol
# Density = 1.680209 g / cm^3
# Si number density = 16.840417 Si / 1000 Ang^3
#
#
#
# Elastic Constant Matrix: (Units=GPa)
#
#
# Indices 1 2 3 4 5 6 
#
# 1 97.4265 34.2129 49.9596 0.0000 0.0000 0.0000
# 2 34.2129 97.4281 49.9601 0.0000 0.0000 0.0000
# 3 49.9596 49.9601 71.8632 0.0000 0.0000 0.0000
# 4 0.0000 0.0000 0.0000 24.6945 0.0000 0.0000
# 5 0.0000 0.0000 0.0000 0.0000 24.6951 0.0000
# 6 0.0000 0.0000 0.0000 0.0000 0.0000 10.0270
#
#
#
# Elastic Compliance Matrix: (Units=1/GPa)
#
#
# Indices 1 2 3 4 5 6 
#
# 1 0.015951 0.000132 -0.011181 0.000000 0.000000 0.000000
# 2 0.000132 0.015951 -0.011181 0.000000 0.000000 0.000000
# 3 -0.011181 -0.011181 0.029462 0.000000 0.000000 0.000000
# 4 0.000000 0.000000 0.000000 0.040495 0.000000 0.000000
# 5 0.000000 0.000000 0.000000 0.000000 0.040494 0.000000
# 6 0.000000 0.000000 0.000000 0.000000 0.000000 0.099731
#
#
# Mechanical properties :
#
#
# Convention : Reuss Voigt Hill
#
# Bulk Modulus (GPa) = 59.15900 59.44256 59.30078
# Shear Modulus (GPa) = 17.11274 20.72234 18.91754
#
# Velocity S-wave (km/s) = 3.19120 3.51167 3.35526
# Velocity P-wave (km/s) = 6.98454 7.19838 7.09226
#
# Compressibility (1/GPa) = 0.01690360
#
# Stress axis : x y z
#
# Youngs Moduli (GPa) = 62.69005 62.69092 33.94184
#
# Poissons Ratio (x) = -0.00829 0.37952
# Poissons Ratio (y) = -0.00829 0.37952
# Poissons Ratio (z) = 0.70097 0.70097
#
# Static dielectric constant tensor:
#      x y z
#    x 1.566990 0.000000 0.000000 
#    y 0.000000 1.566990 0.000000 
#    z 0.000000 0.000000 1.548200 
# 
# From -- ./inp_files/1855.got.cif
#   From: 2010.05.17/outbox.cif.g08.bks.cpg/sg113_cif.got.tgz:1855.got - 2010.05.20 11:03:00.
