data_PCOD9555498
_publ_section_title
;
Structure prediction by ZEFSAII (Michael W. Deem and Ramdas Pophale) SiO2 
 PCOD9555498
Probable space group: P -4 21 M 
;
_chemical_formula_sum "Si O2"
_cell_formula_units_Z 64
_cell_length_a 12.715700
_cell_length_b 12.715700
_cell_length_c 22.315026
_cell_angle_alpha 90.000000
_cell_angle_beta 90.000000
_cell_angle_gamma 90.000000
_cell_volume 3608.094830
_symmetry_space_group_name_H-M "P -4 21 M "
_symmetry_group_IT_number 113
_symmetry_cell_setting 'tetragonal'
loop_
_space_group_symop_operation_xyz
x,y,z
y,-x,-z
-x,-y,z
-y,x,-z
1/2+x,1/2-y,-z
1/2-x,1/2+y,-z
1/2-y,1/2-x,z
1/2+y,1/2+x,z
loop_
_atom_site_type_symbol
_atom_site_label
_atom_site_fract_x
_atom_site_fract_y
_atom_site_fract_z
Si Si1 0.826845 0.503872 0.344325
Si Si2 0.575423 0.599346 0.688635
Si Si3 0.396402 0.720975 0.999187
Si Si4 0.807888 0.129646 0.189741
Si Si5 0.006570 0.672470 0.894892
Si Si6 0.968302 0.121240 0.091461
Si Si7 0.461657 0.210001 0.517119
Si Si8 0.867976 0.801793 0.569267
O O1 0.902472 0.402472 0.333002
O O2 0.712093 0.484687 0.316196
O O3 0.810959 0.507609 0.416496
O O4 0.893302 0.606699 0.325687
O O5 0.500000 0.500000 0.697522
O O6 0.656304 0.605229 0.743541
O O7 0.636708 0.586638 0.625856
O O8 0.295830 0.795830 0.998409
O O9 0.484857 0.780457 0.039279
O O10 0.375447 0.616260 0.037452
O O11 0.435619 0.688705 0.933771
O O12 0.722476 0.222476 0.188225
O O13 0.757392 0.030020 0.154365
O O14 0.909724 0.160609 0.150504
O O15 0.921079 0.578921 0.888514
O O16 0.120233 0.620233 0.888129
O O17 0.000000 0.000000 0.100041
O O18 0.389855 0.110146 0.500995
O O19 0.548018 0.236858 0.468337
O O20 0.385035 0.310112 0.525894
O O21 0.775609 0.724392 0.591448
#
# Coordination Sequence:
#
# PCOD9555498 Si02
#       8
#     8   8   8   8   8   8   8   8
#     4   9  18  36  62  85 110 149 196 242 287 344
#     4  11  23  39  57  82 111 152 190 238 290 348
#     4  10  19  32  53  81 114 147 178 222 282 338
#     4  10  21  38  59  77 106 149 195 238 285 339
#     4   8  16  31  52  78 105 139 182 223 266 324
#     4  11  19  36  54  80 110 147 183 227 275 335
#     4   9  19  33  54  84 115 149 185 229 286 345
#     4  10  21  35  55  82 113 146 185 231 282 341
#
# _framework density 17.737891999999999
#
# number of rings (size 3 to 8) (size 9 to 14) (size 15 to 20)
#    0.000    2.250    1.250    3.750    3.500    1.750 
#    0.000    1.875    0.000    2.250    0.000    0.000 
#    0.000    0.000    0.000    0.000    0.000    0.000 
#
# Total GULP energy -356973.265853 kJ/mol
# GULP energy per Si atom -5577.707279 kJ/mol
# Density = 1.769752 g / cm^3
# Si number density = 17.737892 Si / 1000 Ang^3
#
#
#
# Elastic Constant Matrix: (Units=GPa)
#
#
# Indices 1 2 3 4 5 6 
#
# 1 74.1703 31.5790 20.9076 0.0000 0.0000 0.0000
# 2 31.5790 74.1693 20.9077 0.0000 0.0000 0.0000
# 3 20.9076 20.9077 38.2427 0.0000 0.0000 0.0000
# 4 0.0000 0.0000 0.0000 16.7729 0.0000 0.0000
# 5 0.0000 0.0000 0.0000 0.0000 16.7728 0.0000
# 6 0.0000 0.0000 0.0000 0.0000 0.0000 34.6189
#
#
#
# Elastic Compliance Matrix: (Units=1/GPa)
#
#
# Indices 1 2 3 4 5 6 
#
# 1 0.017772 -0.005707 -0.006596 0.000000 0.000000 0.000000
# 2 -0.005707 0.017772 -0.006596 0.000000 0.000000 0.000000
# 3 -0.006596 -0.006596 0.033361 0.000000 0.000000 0.000000
# 4 0.000000 0.000000 0.000000 0.059620 0.000000 0.000000
# 5 0.000000 0.000000 0.000000 0.000000 0.059620 0.000000
# 6 0.000000 0.000000 0.000000 0.000000 0.000000 0.028886
#
#
# Mechanical properties :
#
#
# Convention : Reuss Voigt Hill
#
# Bulk Modulus (GPa) = 32.14749 37.04119 34.59434
# Shear Modulus (GPa) = 18.85390 21.17880 20.01635
#
# Velocity S-wave (km/s) = 3.26378 3.45916 3.36289
# Velocity P-wave (km/s) = 5.68911 6.07307 5.88422
#
# Compressibility (1/GPa) = 0.03110663
#
# Stress axis : x y z
#
# Youngs Moduli (GPa) = 56.26925 56.26824 29.97539
#
# Poissons Ratio (x) = 0.32114 0.19771
# Poissons Ratio (y) = 0.32115 0.19771
# Poissons Ratio (z) = 0.37113 0.37114
#
# Static dielectric constant tensor:
#      x y z
#    x 1.626550 0.000000 0.000000 
#    y 0.000000 1.626550 0.000000 
#    z 0.000000 0.000000 1.586090 
# 
# From -- ./inp_files/2862.got.cif
#   From: 2010.05.17/outbox.cif.g08.bks.cpg/sg113_cif.got.tgz:2862.got - 2010.05.20 11:03:00.
