data_PCOD9555556
_publ_section_title
;
Structure prediction by ZEFSAII (Michael W. Deem and Ramdas Pophale) SiO2 
 PCOD9555556
Probable space group: P -4 21 M 
;
_chemical_formula_sum "Si O2"
_cell_formula_units_Z 48
_cell_length_a 19.576431
_cell_length_b 19.576431
_cell_length_c 5.580179
_cell_angle_alpha 90.000000
_cell_angle_beta 90.000000
_cell_angle_gamma 90.000000
_cell_volume 2138.529110
_symmetry_space_group_name_H-M "P -4 21 M "
_symmetry_group_IT_number 113
_symmetry_cell_setting 'tetragonal'
loop_
_space_group_symop_operation_xyz
x,y,z
y,-x,-z
-x,-y,z
-y,x,-z
1/2+x,1/2-y,-z
1/2-x,1/2+y,-z
1/2-y,1/2-x,z
1/2+y,1/2+x,z
loop_
_atom_site_type_symbol
_atom_site_label
_atom_site_fract_x
_atom_site_fract_y
_atom_site_fract_z
Si Si1 0.423714 0.265245 0.530785
Si Si2 0.679695 0.025450 0.239857
Si Si3 0.365171 0.134830 0.748873
Si Si4 0.922027 0.422027 0.754624
Si Si5 0.870732 0.159378 0.864836
Si Si6 0.697687 0.517712 0.084299
Si Si7 0.229327 0.270674 0.031512
Si Si8 0.169310 0.330691 0.533346
O O1 0.456052 0.214945 0.335396
O O2 0.383795 0.213577 0.701895
O O3 0.376840 0.323111 0.417657
O O4 0.490862 0.296756 0.647250
O O5 0.681854 0.088567 0.421002
O O6 0.603442 0.999050 0.201233
O O7 0.727559 0.040392 0.011991
O O8 0.404801 0.095200 0.528605
O O9 0.384530 0.115471 0.018662
O O10 0.808882 0.208493 0.947078
O O11 0.849860 0.083052 0.932182
O O12 0.947687 0.172636 0.957854
O O13 0.194919 0.305081 0.273182
O O14 0.203861 0.296140 0.770080
#
# Coordination Sequence:
#
# PCOD9555556 Si02
#       8
#     8   8   4   4   8   8   4   4
#     4  10  22  39  68  94 141 182 242 296 364 430
#     4  10  22  41  65 101 140 193 235 303 361 445
#     4  10  19  37  64 103 127 184 229 295 338 421
#     4  10  20  35  66  97 142 182 240 276 352 428
#     4  11  26  43  69 106 136 195 241 313 366 460
#     4  11  23  44  68  95 145 183 250 296 385 428
#     4  12  27  47  74 110 144 187 252 305 374 440
#     4  12  26  43  76 100 149 188 241 304 378 436
#
# _framework density 22.445333999999999
#
# number of rings (size 3 to 8) (size 9 to 14) (size 15 to 20)
#    0.000    1.333    3.333    1.500    2.333    6.000 
#    0.000    0.000    0.000    2.000    0.000    0.000 
#    0.000    0.000    0.000    0.000    0.000    0.000 
#
# Total GULP energy -267460.397275 kJ/mol
# GULP energy per Si atom -5572.091610 kJ/mol
# Density = 2.239425 g / cm^3
# Si number density = 22.445334 Si / 1000 Ang^3
#
#
#
# Elastic Constant Matrix: (Units=GPa)
#
#
# Indices 1 2 3 4 5 6 
#
# 1 129.4022 72.0391 38.7119 0.0000 0.0000 0.0000
# 2 72.0391 129.4012 38.7118 0.0000 0.0000 0.0000
# 3 38.7119 38.7118 95.7064 0.0000 0.0000 0.0000
# 4 0.0000 0.0000 0.0000 29.8539 0.0000 0.0000
# 5 0.0000 0.0000 0.0000 0.0000 29.8537 0.0000
# 6 0.0000 0.0000 0.0000 0.0000 0.0000 37.9394
#
#
#
# Elastic Compliance Matrix: (Units=1/GPa)
#
#
# Indices 1 2 3 4 5 6 
#
# 1 0.011655 -0.005777 -0.002378 0.000000 0.000000 0.000000
# 2 -0.005777 0.011656 -0.002378 0.000000 0.000000 0.000000
# 3 -0.002378 -0.002378 0.012372 0.000000 0.000000 0.000000
# 4 0.000000 0.000000 0.000000 0.033496 0.000000 0.000000
# 5 0.000000 0.000000 0.000000 0.000000 0.033497 0.000000
# 6 0.000000 0.000000 0.000000 0.000000 0.000000 0.026358
#
#
# Mechanical properties :
#
#
# Convention : Reuss Voigt Hill
#
# Bulk Modulus (GPa) = 68.40981 72.60392 70.50687
# Shear Modulus (GPa) = 32.26392 33.19920 32.73156
#
# Velocity S-wave (km/s) = 3.79548 3.85010 3.82288
# Velocity P-wave (km/s) = 7.05352 7.22368 7.13911
#
# Compressibility (1/GPa) = 0.01461779
#
# Stress axis : x y z
#
# Youngs Moduli (GPa) = 85.79672 85.79595 80.82752
#
# Poissons Ratio (x) = 0.49568 0.19217
# Poissons Ratio (y) = 0.49569 0.19218
# Poissons Ratio (z) = 0.20399 0.20399
#
# Static dielectric constant tensor:
#      x y z
#    x 1.881080 0.000000 0.000000 
#    y 0.000000 1.881070 0.000000 
#    z 0.000000 0.000000 1.935250 
# 
# From -- ./inp_files/495.got.cif
#   From: 2010.05.17/outbox.cif.g08.bks.cpg/sg113_cif.got.tgz:495.got - 2010.05.20 11:03:00.
