data_PCOD9555508
_publ_section_title
;
Structure prediction by ZEFSAII (Michael W. Deem and Ramdas Pophale) SiO2 
 PCOD9555508
Probable space group: P -4 21 M 
;
_chemical_formula_sum "Si O2"
_cell_formula_units_Z 40
_cell_length_a 13.859333
_cell_length_b 13.859333
_cell_length_c 12.924698
_cell_angle_alpha 90.000000
_cell_angle_beta 90.000000
_cell_angle_gamma 90.000000
_cell_volume 2482.590354
_symmetry_space_group_name_H-M "P -4 21 M "
_symmetry_group_IT_number 113
_symmetry_cell_setting 'tetragonal'
loop_
_space_group_symop_operation_xyz
x,y,z
y,-x,-z
-x,-y,z
-y,x,-z
1/2+x,1/2-y,-z
1/2-x,1/2+y,-z
1/2-y,1/2-x,z
1/2+y,1/2+x,z
loop_
_atom_site_type_symbol
_atom_site_label
_atom_site_fract_x
_atom_site_fract_y
_atom_site_fract_z
Si Si1 0.530025 0.385157 0.262128
Si Si2 0.838794 0.501816 0.119607
Si Si3 0.843109 0.999134 0.030092
Si Si4 0.157765 0.025871 0.479122
Si Si5 0.251696 0.086510 0.680956
O O1 0.500000 0.500000 0.264508
O O2 0.502438 0.338304 0.153720
O O3 0.481603 0.327237 0.356715
O O4 0.644877 0.385747 0.279782
O O5 0.901099 0.598902 0.113578
O O6 0.793589 0.487337 0.234023
O O7 0.912855 0.412855 0.104037
O O8 0.754990 0.499032 0.034264
O O9 0.907539 0.906646 0.000471
O O10 0.238690 0.046110 0.564487
O O11 0.075557 0.106994 0.493260
O O12 0.322018 0.177983 0.679425
#
# Coordination Sequence:
#
# PCOD9555508 Si02
#       5
#     8   8   8   8   8
#     4  11  17  32  55  79 105 141 175 217 280 325
#     4  10  22  39  56  76 109 152 190 228 277 328
#     4  11  20  32  56  85 112 137 182 231 276 328
#     4   9  16  29  53  73  99 138 171 211 270 322
#     4  10  19  33  52  78 106 138 183 226 265 323
#
# _framework density 16.112203999999998
#
# number of rings (size 3 to 8) (size 9 to 14) (size 15 to 20)
#    0.000    1.800    8.000    0.000    0.000    1.600 
#    0.000    5.000    0.000    0.000    0.000    2.800 
#    0.000    0.000    0.000    0.000    0.000    0.000 
#
# Total GULP energy -222842.419005 kJ/mol
# GULP energy per Si atom -5571.060475 kJ/mol
# Density = 1.607553 g / cm^3
# Si number density = 16.112204 Si / 1000 Ang^3
#
#
#
# Elastic Constant Matrix: (Units=GPa)
#
#
# Indices 1 2 3 4 5 6 
#
# 1 69.1484 31.3180 54.6777 0.0000 0.0000 0.0000
# 2 31.3180 69.1460 54.6748 0.0000 0.0000 0.0000
# 3 54.6777 54.6748 187.2815 0.0000 0.0000 0.0000
# 4 0.0000 0.0000 0.0000 22.1476 0.0000 0.0000
# 5 0.0000 0.0000 0.0000 0.0000 22.1506 0.0000
# 6 0.0000 0.0000 0.0000 0.0000 0.0000 2.4000
#
#
#
# Elastic Compliance Matrix: (Units=1/GPa)
#
#
# Indices 1 2 3 4 5 6 
#
# 1 0.020512 -0.005922 -0.004260 0.000000 0.000000 0.000000
# 2 -0.005922 0.020512 -0.004259 0.000000 0.000000 0.000000
# 3 -0.004260 -0.004259 0.007827 0.000000 0.000000 0.000000
# 4 0.000000 0.000000 0.000000 0.045152 0.000000 0.000000
# 5 0.000000 0.000000 0.000000 0.000000 0.045146 0.000000
# 6 0.000000 0.000000 0.000000 0.000000 0.000000 0.416675
#
#
# Mechanical properties :
#
#
# Convention : Reuss Voigt Hill
#
# Bulk Modulus (GPa) = 50.07855 67.43522 58.75688
# Shear Modulus (GPa) = 8.45505 21.66666 15.06086
#
# Velocity S-wave (km/s) = 2.29325 3.67104 3.06068
# Velocity P-wave (km/s) = 6.17743 7.74036 7.00263
#
# Compressibility (1/GPa) = 0.01996863
#
# Stress axis : x y z
#
# Youngs Moduli (GPa) = 48.75159 48.75090 127.76852
#
# Poissons Ratio (x) = 0.28872 0.54425
# Poissons Ratio (y) = 0.28872 0.54421
# Poissons Ratio (z) = 0.20767 0.20765
#
# Static dielectric constant tensor:
#      x y z
#    x 1.524040 0.000000 0.000000 
#    y 0.000000 1.524040 0.000000 
#    z 0.000000 0.000000 1.591840 
# 
# From -- ./inp_files/1725.got.cif
#   From: 2010.05.17/outbox.cif.g08.bks.cpg/sg113_cif.got.tgz:1725.got - 2010.05.20 11:03:00.
