data_PCOD9555203
_publ_section_title
;
Structure prediction by ZEFSAII (Michael W. Deem and Ramdas Pophale) SiO2 
 PCOD9555203
Probable space group: P -4 2 C
;
_chemical_formula_sum "Si O2"
_cell_formula_units_Z 34
_cell_length_a 8.530307
_cell_length_b 8.530307
_cell_length_c 20.555984
_cell_angle_alpha 90.000000
_cell_angle_beta 90.000000
_cell_angle_gamma 90.000000
_cell_volume 1495.779558
_symmetry_space_group_name_H-M "P -4 2 C"
_symmetry_group_IT_number 112
_symmetry_cell_setting 'tetragonal'
loop_
_space_group_symop_operation_xyz
x,y,z
y,-x,-z
-x,-y,z
-y,x,-z
x,-y,1/2-z
-x,y,1/2-z
-y,-x,1/2+z
y,x,1/2+z
loop_
_atom_site_type_symbol
_atom_site_label
_atom_site_fract_x
_atom_site_fract_y
_atom_site_fract_z
Si Si1 0.816068 0.647103 0.365949
Si Si2 0.158676 0.906396 0.923753
Si Si3 0.308517 0.396538 0.030771
Si Si4 0.500000 0.000000 0.750000
Si Si5 0.684939 0.978702 0.325866
O O1 0.738213 0.504514 0.407197
O O2 0.718349 0.803809 0.351809
O O3 0.969769 0.710911 0.402434
O O4 0.883764 0.592541 0.297124
O O5 0.251489 0.808160 0.977915
O O6 0.104625 0.783001 0.868254
O O7 0.000000 0.000000 0.936739
O O8 0.319044 0.519117 0.971048
O O9 0.500000 0.000000 0.331051
O O10 0.731457 0.000000 0.250000
#
# Coordination Sequence:
#
# PCOD9555203 Si02
#       5
#     8   8   8   2   8
#     4  11  23  45  75 113 146 207 251 328 402 470
#     4  10  22  48  73 106 146 192 262 309 390 464
#     4  11  26  47  73 104 154 205 257 324 381 472
#     4  12  20  40  82 114 160 184 278 324 396 496
#     4  10  23  41  71 110 156 193 240 308 388 469
#
# _framework density 22.730620999999999
#
# number of rings (size 3 to 8) (size 9 to 14) (size 15 to 20)
#    0.000    1.412    2.353    1.412    6.588    3.294 
#   16.941    0.000    0.000    0.000    0.000    0.000 
#    0.000    0.000    0.000    0.000    0.000    0.000 
#
# Total GULP energy -189891.658667 kJ/mol
# GULP energy per Si atom -5585.048784 kJ/mol
# Density = 2.267888 g / cm^3
# Si number density = 22.730621 Si / 1000 Ang^3
#
#
#
# Elastic Constant Matrix: (Units=GPa)
#
#
# Indices 1 2 3 4 5 6 
#
# 1 116.9076 72.4713 54.6708 0.0000 0.0000 0.0000
# 2 72.4713 116.9076 54.6708 0.0000 0.0000 0.0000
# 3 54.6708 54.6708 110.2970 0.0000 0.0000 0.0000
# 4 0.0000 0.0000 0.0000 -20.1304 0.0000 0.0000
# 5 0.0000 0.0000 0.0000 0.0000 -20.1304 0.0000
# 6 0.0000 0.0000 0.0000 0.0000 0.0000 36.8593
#
#
#
# Elastic Compliance Matrix: (Units=1/GPa)
#
#
# Indices 1 2 3 4 5 6 
#
# 1 0.014951 -0.007553 -0.003667 0.000000 0.000000 0.000000
# 2 -0.007553 0.014951 -0.003667 0.000000 0.000000 0.000000
# 3 -0.003667 -0.003667 0.012701 0.000000 0.000000 0.000000
# 4 0.000000 0.000000 0.000000 -0.049676 0.000000 0.000000
# 5 0.000000 0.000000 0.000000 0.000000 -0.049676 0.000000
# 6 0.000000 0.000000 0.000000 0.000000 0.000000 0.027130
#
#
# Mechanical properties :
#
#
# Convention : Reuss Voigt Hill
#
# Bulk Modulus (GPa) = 77.94530 78.63756 78.29143
# Shear Modulus (GPa) = 1128.49638 10.13966 569.31802
#
# Velocity S-wave (km/s) = 22.30567 2.11435 15.84319
# Velocity P-wave (km/s) = 26.41507 6.37426 19.21441
#
# Compressibility (1/GPa) = 0.01282951
#
# Stress axis : x y z
#
# Youngs Moduli (GPa) = 66.88606 66.88606 78.73168
#
# Poissons Ratio (x) = 0.50521 0.28869
# Poissons Ratio (y) = 0.50521 0.28869
# Poissons Ratio (z) = 0.24525 0.24525
#
# Static dielectric constant tensor:
#      x y z
#    x 2.226290 0.000000 0.000000 
#    y 0.000000 2.226290 0.000000 
#    z 0.000000 0.000000 1.955210 
# 
# From -- ./inp_files/4647.got.cif
#   From: 2010.05.17/outbox.cif.g08.bks.cpg/sg112_3_cif.got.tgz:4647.got - 2010.05.20 10:59:04.
