data_PCOD9555680
_publ_section_title
;
Structure prediction by ZEFSAII (Michael W. Deem and Ramdas Pophale) SiO2 
 PCOD9555680
Probable space group: P -4 21 M 
;
_chemical_formula_sum "Si O2"
_cell_formula_units_Z 56
_cell_length_a 12.159975
_cell_length_b 12.159975
_cell_length_c 21.044687
_cell_angle_alpha 90.000000
_cell_angle_beta 90.000000
_cell_angle_gamma 90.000000
_cell_volume 3111.772475
_symmetry_space_group_name_H-M "P -4 21 M "
_symmetry_group_IT_number 113
_symmetry_cell_setting 'tetragonal'
loop_
_space_group_symop_operation_xyz
x,y,z
y,-x,-z
-x,-y,z
-y,x,-z
1/2+x,1/2-y,-z
1/2-x,1/2+y,-z
1/2-y,1/2-x,z
1/2+y,1/2+x,z
loop_
_atom_site_type_symbol
_atom_site_label
_atom_site_fract_x
_atom_site_fract_y
_atom_site_fract_z
Si Si1 0.125865 0.022483 0.891148
Si Si2 0.738423 0.059141 0.136683
Si Si3 0.898906 0.084842 0.651790
Si Si4 0.827348 0.853610 0.208765
Si Si5 0.000855 0.317296 0.007807
Si Si6 0.320630 0.005705 0.590005
Si Si7 0.030570 0.828493 0.522104
O O1 0.126905 0.147697 0.866773
O O2 0.150107 0.936531 0.834735
O O3 0.211846 0.005284 0.947462
O O4 0.000000 0.000000 0.912021
O O5 0.637798 0.137798 0.154333
O O6 0.757378 0.956471 0.182479
O O7 0.716444 0.013961 0.065595
O O8 0.875293 0.140909 0.718598
O O9 0.930846 0.168402 0.594692
O O10 0.789523 0.021474 0.628604
O O11 0.000000 0.000000 0.657527
O O12 0.756271 0.743730 0.202255
O O13 0.105810 0.394191 0.023775
O O14 0.893175 0.393175 0.015284
O O15 0.388608 0.111393 0.612893
O O16 0.282764 0.025531 0.517297
O O17 0.402029 0.902029 0.593521
O O18 0.911713 0.886520 0.514641
#
# Coordination Sequence:
#
# PCOD9555680 Si02
#       7
#     8   8   8   8   8   8   8
#     4  10  22  37  58  86 116 148 195 242 290 352
#     4  10  22  39  60  85 116 154 196 245 298 353
#     4  11  20  40  62  86 119 158 204 241 287 352
#     4  11  24  40  61  86 116 160 199 243 294 350
#     4  10  21  37  59  86 116 150 188 242 304 354
#     4  10  21  36  58  90 124 155 193 246 302 349
#     4   9  16  34  58  88 115 151 192 233 286 342
#
# _framework density 17.996175000000001
#
# number of rings (size 3 to 8) (size 9 to 14) (size 15 to 20)
#    0.000    1.857    2.857    3.000    4.000    3.714 
#    0.000    4.286    0.000    3.429    0.000    0.000 
#    0.000    0.000    0.000    0.000    0.000    0.000 
#
# Total GULP energy -312649.131587 kJ/mol
# GULP energy per Si atom -5583.020207 kJ/mol
# Density = 1.795521 g / cm^3
# Si number density = 17.996175 Si / 1000 Ang^3
#
#
#
# Elastic Constant Matrix: (Units=GPa)
#
#
# Indices 1 2 3 4 5 6 
#
# 1 85.8535 43.4755 54.4487 0.0000 0.0000 0.0000
# 2 43.4755 85.8566 54.4507 0.0000 0.0000 0.0000
# 3 54.4487 54.4507 116.4896 0.0000 0.0000 0.0000
# 4 0.0000 0.0000 0.0000 14.7437 0.0000 0.0000
# 5 0.0000 0.0000 0.0000 0.0000 14.7429 0.0000
# 6 0.0000 0.0000 0.0000 0.0000 0.0000 19.5123
#
#
#
# Elastic Compliance Matrix: (Units=1/GPa)
#
#
# Indices 1 2 3 4 5 6 
#
# 1 0.018174 -0.005423 -0.005960 0.000000 0.000000 0.000000
# 2 -0.005423 0.018173 -0.005960 0.000000 0.000000 0.000000
# 3 -0.005960 -0.005960 0.014156 0.000000 0.000000 0.000000
# 4 0.000000 0.000000 0.000000 0.067825 0.000000 0.000000
# 5 0.000000 0.000000 0.000000 0.000000 0.067829 0.000000
# 6 0.000000 0.000000 0.000000 0.000000 0.000000 0.051250
#
#
# Mechanical properties :
#
#
# Convention : Reuss Voigt Hill
#
# Bulk Modulus (GPa) = 63.22098 65.88327 64.55212
# Shear Modulus (GPa) = 18.02681 18.85479 18.44080
#
# Velocity S-wave (km/s) = 3.16840 3.24035 3.20458
# Velocity P-wave (km/s) = 6.97076 7.11961 7.04558
#
# Compressibility (1/GPa) = 0.01581754
#
# Stress axis : x y z
#
# Youngs Moduli (GPa) = 55.02506 55.02624 70.64166
#
# Poissons Ratio (x) = 0.29840 0.42100
# Poissons Ratio (y) = 0.29840 0.42102
# Poissons Ratio (z) = 0.32793 0.32795
#
# Static dielectric constant tensor:
#      x y z
#    x 1.619640 0.000000 0.000000 
#    y 0.000000 1.619640 0.000000 
#    z 0.000000 0.000000 1.597410 
# 
# From -- ./inp_files/2715.got.cif
#   From: 2010.05.17/outbox.cif.g08.bks.cpg/sg113_cif.got.tgz:2715.got - 2010.05.20 11:03:00.
