data_PCOD9555190
_publ_section_title
;
Structure prediction by ZEFSAII (Michael W. Deem and Ramdas Pophale) SiO2 
 PCOD9555190
Probable space group: P -4 2 C
;
_chemical_formula_sum "Si O2"
_cell_formula_units_Z 34
_cell_length_a 10.849321
_cell_length_b 10.849321
_cell_length_c 13.317140
_cell_angle_alpha 90.000000
_cell_angle_beta 90.000000
_cell_angle_gamma 90.000000
_cell_volume 1567.530801
_symmetry_space_group_name_H-M "P -4 2 C"
_symmetry_group_IT_number 112
_symmetry_cell_setting 'tetragonal'
loop_
_space_group_symop_operation_xyz
x,y,z
y,-x,-z
-x,-y,z
-y,x,-z
x,-y,1/2-z
-x,y,1/2-z
-y,-x,1/2+z
y,x,1/2+z
loop_
_atom_site_type_symbol
_atom_site_label
_atom_site_fract_x
_atom_site_fract_y
_atom_site_fract_z
Si Si1 0.646992 0.696635 0.766786
Si Si2 0.000000 0.000000 0.250000
Si Si3 0.558154 0.681409 0.455667
Si Si4 0.095853 0.212656 0.386031
Si Si5 0.178954 0.734216 0.427910
O O1 0.500000 0.697960 0.750000
O O2 0.676278 0.578759 0.837019
O O3 0.692915 0.810713 0.834579
O O4 0.718324 0.723710 0.662903
O O5 0.084187 0.913519 0.178608
O O6 0.646014 0.572937 0.500262
O O7 0.614292 0.804044 0.501956
O O8 0.148366 0.192928 0.498496
O O9 0.957742 0.262452 0.385416
#
# Coordination Sequence:
#
# PCOD9555190 Si02
#       5
#     8   2   8   8   8
#     4  11  22  42  66  94 124 168 215 270 330 387
#     4  12  20  42  62  92 128 180 224 264 324 398
#     4  10  22  41  64  95 126 167 217 270 327 393
#     4  11  24  38  65  92 128 170 215 269 323 391
#     4  11  22  41  60  95 129 166 214 272 318 393
#
# _framework density 21.690165
#
# number of rings (size 3 to 8) (size 9 to 14) (size 15 to 20)
#    0.000    1.176    4.706    1.412    0.000    2.824 
#    0.000    0.000    0.000    0.000    0.000    0.000 
#    0.000    0.000    0.000    0.000    0.000    0.000 
#
# Total GULP energy -189880.998375 kJ/mol
# GULP energy per Si atom -5584.735246 kJ/mol
# Density = 2.164080 g / cm^3
# Si number density = 21.690165 Si / 1000 Ang^3
#
#
#
# Elastic Constant Matrix: (Units=GPa)
#
#
# Indices 1 2 3 4 5 6 
#
# 1 36.9568 25.3905 38.2285 0.0000 0.0000 0.0000
# 2 25.3905 36.9568 38.2285 0.0000 0.0000 0.0000
# 3 38.2285 38.2285 175.8867 0.0000 0.0000 0.0000
# 4 0.0000 0.0000 0.0000 43.0398 0.0000 0.0000
# 5 0.0000 0.0000 0.0000 0.0000 43.0398 0.0000
# 6 0.0000 0.0000 0.0000 0.0000 0.0000 16.1952
#
#
#
# Elastic Compliance Matrix: (Units=1/GPa)
#
#
# Indices 1 2 3 4 5 6 
#
# 1 0.054163 -0.032295 -0.004753 0.000000 0.000000 0.000000
# 2 -0.032295 0.054163 -0.004753 0.000000 0.000000 0.000000
# 3 -0.004753 -0.004753 0.007752 0.000000 0.000000 0.000000
# 4 0.000000 0.000000 0.000000 0.023234 0.000000 0.000000
# 5 0.000000 0.000000 0.000000 0.000000 0.023234 0.000000
# 6 0.000000 0.000000 0.000000 0.000000 0.000000 0.061747
#
#
# Mechanical properties :
#
#
# Convention : Reuss Voigt Hill
#
# Bulk Modulus (GPa) = 30.79255 50.38837 40.59046
# Shear Modulus (GPa) = 15.68778 30.31847 23.00313
#
# Velocity S-wave (km/s) = 2.69228 3.74277 3.26011
# Velocity P-wave (km/s) = 4.88793 6.47759 5.73808
#
# Compressibility (1/GPa) = 0.03247539
#
# Stress axis : x y z
#
# Youngs Moduli (GPa) = 18.46286 18.46286 129.00673
#
# Poissons Ratio (x) = 0.59626 0.61315
# Poissons Ratio (y) = 0.59626 0.61315
# Poissons Ratio (z) = 0.08775 0.08775
#
# Static dielectric constant tensor:
#      x y z
#    x 1.789630 0.000000 0.000000 
#    y 0.000000 1.789630 0.000000 
#    z 0.000000 0.000000 1.892780 
# 
# From -- ./inp_files/2261.got.cif
#   From: 2010.05.17/outbox.cif.g08.bks.cpg/sg112_2_cif.got.tgz:2261.got - 2010.05.20 10:59:04.
