data_PCOD9555326
_publ_section_title
;
Structure prediction by ZEFSAII (Michael W. Deem and Ramdas Pophale) SiO2 
 PCOD9555326
Probable space group: P -4 2 C
;
_chemical_formula_sum "Si O2"
_cell_formula_units_Z 40
_cell_length_a 16.910942
_cell_length_b 16.910942
_cell_length_c 9.639796
_cell_angle_alpha 90.000000
_cell_angle_beta 90.000000
_cell_angle_gamma 90.000000
_cell_volume 2756.788468
_symmetry_space_group_name_H-M "P -4 2 C"
_symmetry_group_IT_number 112
_symmetry_cell_setting 'tetragonal'
loop_
_space_group_symop_operation_xyz
x,y,z
y,-x,-z
-x,-y,z
-y,x,-z
x,-y,1/2-z
-x,y,1/2-z
-y,-x,1/2+z
y,x,1/2+z
loop_
_atom_site_type_symbol
_atom_site_label
_atom_site_fract_x
_atom_site_fract_y
_atom_site_fract_z
Si Si1 0.911705 0.092000 0.287330
Si Si2 0.095962 0.499858 0.410729
Si Si3 0.163756 0.830960 0.537340
Si Si4 0.906565 0.326297 0.082123
Si Si5 0.093121 0.673482 0.419345
O O1 0.890256 0.110073 0.445070
O O2 0.848563 0.138607 0.194548
O O3 0.000000 0.121127 0.250000
O O4 0.907916 0.000000 0.250000
O O5 0.121614 0.500000 0.250000
O O6 0.118564 0.413956 0.468448
O O7 0.118288 0.585605 0.469243
O O8 0.000000 0.500000 0.409543
O O9 0.254662 0.855875 0.522660
O O10 0.142493 0.743643 0.487004
O O11 0.900701 0.324965 0.250992
O O12 0.999701 0.314659 0.049249
#
# Coordination Sequence:
#
# PCOD9555326 Si02
#       5
#     8   8   8   8   8
#     4  11  22  32  40  54  82 122 158 183 210 240
#     4   7  12  24  44  63  79 102 137 184 224 257
#     4  12  20  29  44  62  86 113 148 190 214 250
#     4   9  16  28  44  63  84 109 145 183 220 257
#     4   9  16  28  44  63  84 109 145 183 220 257
#
# _framework density 14.509636
#
# number of rings (size 3 to 8) (size 9 to 14) (size 15 to 20)
#    0.000    2.400    2.000    6.000    0.000    1.600 
#    0.000    0.000    0.000    1.200    0.000    5.600 
#    0.000    0.800    0.000    7.200    0.000    0.000 
#
# Total GULP energy -222757.436827 kJ/mol
# GULP energy per Si atom -5568.935921 kJ/mol
# Density = 1.447661 g / cm^3
# Si number density = 14.509636 Si / 1000 Ang^3
#
#
#
# Elastic Constant Matrix: (Units=GPa)
#
#
# Indices 1 2 3 4 5 6 
#
# 1 104.6236 43.0570 6.1335 0.0000 0.0000 0.0000
# 2 43.0570 104.6236 6.1335 0.0000 0.0000 0.0000
# 3 6.1335 6.1335 15.0387 0.0000 0.0000 0.0000
# 4 0.0000 0.0000 0.0000 15.0927 0.0000 0.0000
# 5 0.0000 0.0000 0.0000 0.0000 15.0927 0.0000
# 6 0.0000 0.0000 0.0000 0.0000 0.0000 12.9153
#
#
#
# Elastic Compliance Matrix: (Units=1/GPa)
#
#
# Indices 1 2 3 4 5 6 
#
# 1 0.011626 -0.004617 -0.002859 0.000000 0.000000 0.000000
# 2 -0.004617 0.011626 -0.002859 0.000000 0.000000 0.000000
# 3 -0.002859 -0.002859 0.068827 0.000000 0.000000 0.000000
# 4 0.000000 0.000000 0.000000 0.066257 0.000000 0.000000
# 5 0.000000 0.000000 0.000000 0.000000 0.066257 0.000000
# 6 0.000000 0.000000 0.000000 0.000000 0.000000 0.077427
#
#
# Mechanical properties :
#
#
# Convention : Reuss Voigt Hill
#
# Bulk Modulus (GPa) = 14.00361 37.21487 25.60924
# Shear Modulus (GPa) = 14.43040 19.88429 17.15734
#
# Velocity S-wave (km/s) = 3.15705 3.70593 3.44245
# Velocity P-wave (km/s) = 4.79182 6.63446 5.78695
#
# Compressibility (1/GPa) = 0.07141015
#
# Stress axis : x y z
#
# Youngs Moduli (GPa) = 86.01648 86.01648 14.52927
#
# Poissons Ratio (x) = 0.39713 0.04153
# Poissons Ratio (y) = 0.39713 0.04153
# Poissons Ratio (z) = 0.24588 0.24588
#
# Static dielectric constant tensor:
#      x y z
#    x 1.495020 0.000000 0.000000 
#    y 0.000000 1.495020 0.000000 
#    z 0.000000 0.000000 1.480780 
# 
# From -- ./inp_files/1371.got.cif
#   From: 2010.05.17/outbox.cif.g08.bks.cpg/sg112_1_cif.got.tgz:1371.got - 2010.05.20 10:59:04.
