data_PCOD9555664
_publ_section_title
;
Structure prediction by ZEFSAII (Michael W. Deem and Ramdas Pophale) SiO2 
 PCOD9555664
Probable space group: P -4 21 M 
;
_chemical_formula_sum "Si O2"
_cell_formula_units_Z 48
_cell_length_a 10.740963
_cell_length_b 10.740963
_cell_length_c 19.870901
_cell_angle_alpha 90.000000
_cell_angle_beta 90.000000
_cell_angle_gamma 90.000000
_cell_volume 2292.471793
_symmetry_space_group_name_H-M "P -4 21 M "
_symmetry_group_IT_number 113
_symmetry_cell_setting 'tetragonal'
loop_
_space_group_symop_operation_xyz
x,y,z
y,-x,-z
-x,-y,z
-y,x,-z
1/2+x,1/2-y,-z
1/2-x,1/2+y,-z
1/2-y,1/2-x,z
1/2+y,1/2+x,z
loop_
_atom_site_type_symbol
_atom_site_label
_atom_site_fract_x
_atom_site_fract_y
_atom_site_fract_z
Si Si1 0.451598 0.245315 0.074343
Si Si2 0.496319 0.202810 0.218026
Si Si3 0.548394 0.245308 0.925648
Si Si4 0.141095 0.858916 0.473179
Si Si5 0.643229 0.643217 0.686287
Si Si6 0.496318 0.797192 0.781960
O O1 0.391329 0.108672 0.070991
O O2 0.529555 0.249157 0.142581
O O3 0.344415 0.344421 0.086672
O O4 0.499987 0.272182 0.999994
O O5 0.359249 0.140752 0.217520
O O6 0.523616 0.305168 0.273950
O O7 0.590951 0.090951 0.232222
O O8 0.608667 0.108667 0.929005
O O9 0.470449 0.249148 0.857406
O O10 0.250006 0.750006 0.485711
O O11 0.126912 0.873110 0.392663
O O12 0.000005 0.826607 0.499997
O O13 0.750007 0.749994 0.693650
O O14 0.523621 0.694828 0.726041
O O15 0.590950 0.909051 0.767763
O O16 0.359247 0.859247 0.782466
#
# Coordination Sequence:
#
# PCOD9555664 Si02
#       6
#     8   8   8   8   8   8
#     4  10  21  35  50  73 106 145 193 244 297 357
#     4   9  18  34  56  82 113 152 200 252 305 360
#     4  10  21  35  50  73 106 145 193 244 297 357
#     4  10  23  45  70 105 143 179 225 272 331 408
#     4   9  19  37  63  90 119 156 202 252 308 379
#     4   9  18  34  56  82 113 152 200 252 305 360
#
# _framework density 20.938099999999999
#
# number of rings (size 3 to 8) (size 9 to 14) (size 15 to 20)
#    0.000    2.500    0.000    1.000    2.333    3.667 
#    6.000    3.333    0.000    0.000    0.000    0.000 
#    0.000    0.000    0.000    0.000    0.000    0.000 
#
# Total GULP energy -267242.715874 kJ/mol
# GULP energy per Si atom -5567.556581 kJ/mol
# Density = 2.089044 g / cm^3
# Si number density = 20.938100 Si / 1000 Ang^3
#
#
#
# Elastic Constant Matrix: (Units=GPa)
#
#
# Indices 1 2 3 4 5 6 
#
# 1 75.4312 58.3834 54.4317 0.0000 0.0000 0.0000
# 2 58.3834 75.4315 54.4316 0.0000 0.0000 0.0000
# 3 54.4317 54.4316 166.9736 0.0000 0.0000 0.0000
# 4 0.0000 0.0000 0.0000 38.9892 0.0000 0.0000
# 5 0.0000 0.0000 0.0000 0.0000 38.9884 0.0000
# 6 0.0000 0.0000 0.0000 0.0000 0.0000 32.9766
#
#
#
# Elastic Compliance Matrix: (Units=1/GPa)
#
#
# Indices 1 2 3 4 5 6 
#
# 1 0.034414 -0.024244 -0.003315 0.000000 0.000000 0.000000
# 2 -0.024244 0.034414 -0.003315 0.000000 0.000000 0.000000
# 3 -0.003315 -0.003315 0.008151 0.000000 0.000000 0.000000
# 4 0.000000 0.000000 0.000000 0.025648 0.000000 0.000000
# 5 0.000000 0.000000 0.000000 0.000000 0.025649 0.000000
# 6 0.000000 0.000000 0.000000 0.000000 0.000000 0.030324
#
#
# Mechanical properties :
#
#
# Convention : Reuss Voigt Hill
#
# Bulk Modulus (GPa) = 65.66238 72.48106 69.07172
# Shear Modulus (GPa) = 22.18026 32.23015 27.20521
#
# Velocity S-wave (km/s) = 3.25826 3.92766 3.60851
# Velocity P-wave (km/s) = 6.75154 7.43375 7.10084
#
# Compressibility (1/GPa) = 0.01522942
#
# Stress axis : x y z
#
# Youngs Moduli (GPa) = 29.05778 29.05800 122.69141
#
# Poissons Ratio (x) = 0.70448 0.40678
# Poissons Ratio (y) = 0.70447 0.40676
# Poissons Ratio (z) = 0.09634 0.09634
#
# Static dielectric constant tensor:
#      x y z
#    x 1.800690 0.000000 0.000000 
#    y 0.000000 1.800690 0.000000 
#    z 0.000000 0.000000 1.753630 
# 
# From -- ./inp_files/2505.got.cif
#   From: 2010.05.17/outbox.cif.g08.bks.cpg/sg113_cif.got.tgz:2505.got - 2010.05.20 11:03:00.
