data_PCOD9555821
_publ_section_title
;
Structure prediction by ZEFSAII (Michael W. Deem and Ramdas Pophale) SiO2 
 PCOD9555821
Probable space group: P -4 21 C
;
_chemical_formula_sum "Si O2"
_cell_formula_units_Z 18
_cell_length_a 10.686705
_cell_length_b 10.686705
_cell_length_c 5.130608
_cell_angle_alpha 90.000000
_cell_angle_beta 90.000000
_cell_angle_gamma 90.000000
_cell_volume 585.944492
_symmetry_space_group_name_H-M "P -4 21 C"
_symmetry_group_IT_number 114
_symmetry_cell_setting 'tetragonal'
loop_
_space_group_symop_operation_xyz
x,y,z
y,-x,-z
-x,-y,z
-y,x,-z
1/2+x,1/2-y,1/2-z
1/2-x,1/2+y,1/2-z
1/2-y,1/2-x,1/2+z
1/2+y,1/2+x,1/2+z
loop_
_atom_site_type_symbol
_atom_site_label
_atom_site_fract_x
_atom_site_fract_y
_atom_site_fract_z
Si Si1 0.096044 0.386740 0.517616
Si Si2 0.262649 0.628775 0.261801
Si Si3 0.500000 0.500000 0.500000
O O1 0.011967 0.304616 0.740201
O O2 0.093392 0.305640 0.253827
O O3 0.000000 0.500000 0.494881
O O4 0.198932 0.709437 0.499948
O O5 0.398150 0.571636 0.326045
#
# Coordination Sequence:
#
# PCOD9555821 Si02
#       3
#     8   8   2
#     4  10  16  34  70 111 146 208 279 322 414 503
#     4  12  26  51  78 113 170 221 265 360 418 495
#     4  12  36  54  84 142 168 222 308 342 432 538
#
# _framework density 30.719633000000002
#
# number of rings (size 3 to 8) (size 9 to 14) (size 15 to 20)
#    0.000    0.889    8.889    0.000    0.000    8.889 
#    0.000    0.000    0.000    0.000    0.000    0.000 
#    0.000    0.000    0.000    0.000    0.000    0.000 
#
# Total GULP energy -100235.959724 kJ/mol
# GULP energy per Si atom -5568.664429 kJ/mol
# Density = 3.064971 g / cm^3
# Si number density = 30.719633 Si / 1000 Ang^3
#
#
#
# Elastic Constant Matrix: (Units=GPa)
#
#
# Indices 1 2 3 4 5 6 
#
# 1 262.8452 68.5545 123.4153 0.0000 0.0000 0.0000
# 2 68.5545 262.8452 123.4153 0.0000 0.0000 0.0000
# 3 123.4153 123.4153 571.1962 0.0000 0.0000 0.0000
# 4 0.0000 0.0000 0.0000 66.7430 0.0000 0.0000
# 5 0.0000 0.0000 0.0000 0.0000 66.7430 0.0000
# 6 0.0000 0.0000 0.0000 0.0000 0.0000 8.4108
#
#
#
# Elastic Compliance Matrix: (Units=1/GPa)
#
#
# Indices 1 2 3 4 5 6 
#
# 1 0.004372 -0.000775 -0.000777 0.000000 0.000000 0.000000
# 2 -0.000775 0.004372 -0.000777 0.000000 0.000000 0.000000
# 3 -0.000777 -0.000777 0.002086 0.000000 0.000000 0.000000
# 4 0.000000 0.000000 0.000000 0.014983 0.000000 0.000000
# 5 0.000000 0.000000 0.000000 0.000000 0.014983 0.000000
# 6 0.000000 0.000000 0.000000 0.000000 0.000000 0.118894
#
#
# Mechanical properties :
#
#
# Convention : Reuss Voigt Hill
#
# Bulk Modulus (GPa) = 162.05140 191.96189 177.00665
# Shear Modulus (GPa) = 30.04715 80.47947 55.26331
#
# Velocity S-wave (km/s) = 3.13087 5.12396 4.24601
# Velocity P-wave (km/s) = 8.12010 9.88082 9.04341
#
# Compressibility (1/GPa) = 0.00617088
#
# Stress axis : x y z
#
# Youngs Moduli (GPa) = 228.75011 228.75011 479.27495
#
# Poissons Ratio (x) = 0.17736 0.37241
# Poissons Ratio (y) = 0.17736 0.37241
# Poissons Ratio (z) = 0.17774 0.17774
#
# Static dielectric constant tensor:
#      x y z
#    x 3.489550 0.000000 0.000000 
#    y 0.000000 3.489550 0.000000 
#    z 0.000000 0.000000 1.862920 
# 
# From -- ./inp_files/26.got.cif
#   From: 2010.05.17/outbox.cif.g08.bks.cpg/sg114_1_cif.got.tgz:26.got - 2010.05.20 11:04:54.
