data_PCOD9555783
_publ_section_title
;
Structure prediction by ZEFSAII (Michael W. Deem and Ramdas Pophale) SiO2 
 PCOD9555783
Probable space group: P -4 21 M 
;
_chemical_formula_sum "Si O2"
_cell_formula_units_Z 24
_cell_length_a 11.648902
_cell_length_b 11.648902
_cell_length_c 7.996783
_cell_angle_alpha 90.000000
_cell_angle_beta 90.000000
_cell_angle_gamma 90.000000
_cell_volume 1085.138805
_symmetry_space_group_name_H-M "P -4 21 M "
_symmetry_group_IT_number 113
_symmetry_cell_setting 'tetragonal'
loop_
_space_group_symop_operation_xyz
x,y,z
y,-x,-z
-x,-y,z
-y,x,-z
1/2+x,1/2-y,-z
1/2-x,1/2+y,-z
1/2-y,1/2-x,z
1/2+y,1/2+x,z
loop_
_atom_site_type_symbol
_atom_site_label
_atom_site_fract_x
_atom_site_fract_y
_atom_site_fract_z
Si Si1 0.407221 0.907221 0.156160
Si Si2 0.155421 0.994150 0.091125
Si Si3 0.405444 0.905444 0.560762
Si Si4 0.640791 0.555554 0.397310
O O1 0.450046 0.783662 0.095948
O O2 0.404515 0.904515 0.358246
O O3 0.500000 0.000000 0.101585
O O4 0.121504 0.075679 0.246915
O O5 0.117066 0.073939 0.934515
O O6 0.431586 0.775934 0.616484
O O7 0.500000 0.000000 0.613739
O O8 0.614429 0.421700 0.440369
#
# Coordination Sequence:
#
# PCOD9555783 Si02
#       4
#     4   8   4   8
#     4  11  26  47  75 109 152 192 245 316 369 435
#     4  11  25  46  73 109 147 199 246 296 376 450
#     4  11  26  45  77 117 146 188 253 316 369 431
#     4  11  23  43  74 105 146 195 248 304 364 436
#
# _framework density 22.116985
#
# number of rings (size 3 to 8) (size 9 to 14) (size 15 to 20)
#    0.000    1.000    3.333    4.000    7.000    0.000 
#    0.000    3.333    0.000    0.000    0.000    0.000 
#    0.000    0.000    0.000    0.000    0.000    0.000 
#
# Total GULP energy -133862.117925 kJ/mol
# GULP energy per Si atom -5577.588247 kJ/mol
# Density = 2.206665 g / cm^3
# Si number density = 22.116985 Si / 1000 Ang^3
#
#
#
# Elastic Constant Matrix: (Units=GPa)
#
#
# Indices 1 2 3 4 5 6 
#
# 1 215.3280 148.8074 46.6263 0.0000 0.0000 0.0000
# 2 148.8074 215.3280 46.6263 0.0000 0.0000 0.0000
# 3 46.6263 46.6263 80.5312 0.0000 0.0000 0.0000
# 4 0.0000 0.0000 0.0000 29.1888 0.0000 0.0000
# 5 0.0000 0.0000 0.0000 0.0000 29.1888 0.0000
# 6 0.0000 0.0000 0.0000 0.0000 0.0000 11.8299
#
#
#
# Elastic Compliance Matrix: (Units=1/GPa)
#
#
# Indices 1 2 3 4 5 6 
#
# 1 0.009129 -0.005904 -0.001867 0.000000 0.000000 0.000000
# 2 -0.005904 0.009129 -0.001867 0.000000 0.000000 0.000000
# 3 -0.001867 -0.001867 0.014579 0.000000 0.000000 0.000000
# 4 0.000000 0.000000 0.000000 0.034260 0.000000 0.000000
# 5 0.000000 0.000000 0.000000 0.000000 0.034260 0.000000
# 6 0.000000 0.000000 0.000000 0.000000 0.000000 0.084532
#
#
# Mechanical properties :
#
#
# Convention : Reuss Voigt Hill
#
# Bulk Modulus (GPa) = 73.74305 110.58968 92.16637
# Shear Modulus (GPa) = 23.84541 31.98331 27.91436
#
# Velocity S-wave (km/s) = 3.28708 3.80688 3.55649
# Velocity P-wave (km/s) = 6.91529 8.33270 7.65686
#
# Compressibility (1/GPa) = 0.01356060
#
# Stress axis : x y z
#
# Youngs Moduli (GPa) = 109.54552 109.54552 68.59052
#
# Poissons Ratio (x) = 0.64679 0.12805
# Poissons Ratio (y) = 0.64679 0.12805
# Poissons Ratio (z) = 0.20450 0.20450
#
# Static dielectric constant tensor:
#      x y z
#    x 1.802220 0.000000 0.000000 
#    y 0.000000 1.802220 0.000000 
#    z 0.000000 0.000000 1.985350 
# 
# From -- ./inp_files/715.got.cif
#   From: 2010.05.17/outbox.cif.g08.bks.cpg/sg113_cif.got.tgz:715.got - 2010.05.20 11:03:00.
