data_PCOD9555872
_publ_section_title
;
Structure prediction by ZEFSAII (Michael W. Deem and Ramdas Pophale) SiO2 
 PCOD9555872
Probable space group: P -4 21 C
;
_chemical_formula_sum "Si O2"
_cell_formula_units_Z 42
_cell_length_a 15.547494
_cell_length_b 15.547494
_cell_length_c 9.812688
_cell_angle_alpha 90.000000
_cell_angle_beta 90.000000
_cell_angle_gamma 90.000000
_cell_volume 2371.967784
_symmetry_space_group_name_H-M "P -4 21 C"
_symmetry_group_IT_number 114
_symmetry_cell_setting 'tetragonal'
loop_
_space_group_symop_operation_xyz
x,y,z
y,-x,-z
-x,-y,z
-y,x,-z
1/2+x,1/2-y,1/2-z
1/2-x,1/2+y,1/2-z
1/2-y,1/2-x,1/2+z
1/2+y,1/2+x,1/2+z
loop_
_atom_site_type_symbol
_atom_site_label
_atom_site_fract_x
_atom_site_fract_y
_atom_site_fract_z
Si Si1 0.964249 0.404737 0.076534
Si Si2 0.824126 0.462064 0.293997
Si Si3 0.500000 0.500000 0.000000
Si Si4 0.767574 0.133926 0.517947
Si Si5 0.180232 0.048846 0.404867
Si Si6 0.343515 0.863485 0.783673
O O1 0.888229 0.420716 0.183042
O O2 0.000000 0.500000 0.034359
O O3 0.042646 0.356478 0.150782
O O4 0.934882 0.352554 0.944081
O O5 0.728723 0.443514 0.238978
O O6 0.839962 0.564795 0.285221
O O7 0.476004 0.419948 0.904660
O O8 0.860117 0.179870 0.518014
O O9 0.727385 0.140036 0.667350
O O10 0.703897 0.171727 0.404878
O O11 0.776432 0.032168 0.481510
#
# Coordination Sequence:
#
# PCOD9555872 Si02
#       6
#     8   8   2   8   8   8
#     4  10  19  31  51  79 118 153 172 209 275 352
#     4  10  20  31  52  83 115 144 183 220 278 339
#     4   8  16  40  60  76  98 156 196 240 282 336
#     4  10  20  37  58  80 110 148 191 233 280 333
#     4   9  20  35  59  81 107 145 198 238 278 325
#     4  10  19  34  55  78 115 150 182 223 283 337
#
# _framework density 17.706817999999998
#
# number of rings (size 3 to 8) (size 9 to 14) (size 15 to 20)
#    0.000    2.286    1.905    1.714    5.333    1.524 
#    0.000    0.000    0.000    0.000    0.000    1.333 
#    0.000    0.000    0.000    0.000    0.000    0.000 
#
# Total GULP energy -234209.923154 kJ/mol
# GULP energy per Si atom -5576.426742 kJ/mol
# Density = 1.766652 g / cm^3
# Si number density = 17.706818 Si / 1000 Ang^3
#
#
#
# Elastic Constant Matrix: (Units=GPa)
#
#
# Indices 1 2 3 4 5 6 
#
# 1 42.9200 25.1169 26.5167 0.0000 0.0000 0.0000
# 2 25.1169 42.9200 26.5167 0.0000 0.0000 0.0000
# 3 26.5167 26.5167 84.4651 0.0000 0.0000 0.0000
# 4 0.0000 0.0000 0.0000 11.4698 0.0000 0.0000
# 5 0.0000 0.0000 0.0000 0.0000 11.4698 0.0000
# 6 0.0000 0.0000 0.0000 0.0000 0.0000 16.7101
#
#
#
# Elastic Compliance Matrix: (Units=1/GPa)
#
#
# Indices 1 2 3 4 5 6 
#
# 1 0.037815 -0.018355 -0.006109 0.000000 0.000000 0.000000
# 2 -0.018355 0.037815 -0.006109 0.000000 0.000000 0.000000
# 3 -0.006109 -0.006109 0.015675 0.000000 0.000000 0.000000
# 4 0.000000 0.000000 0.000000 0.087186 0.000000 0.000000
# 5 0.000000 0.000000 0.000000 0.000000 0.087186 0.000000
# 6 0.000000 0.000000 0.000000 0.000000 0.000000 0.059844
#
#
# Mechanical properties :
#
#
# Convention : Reuss Voigt Hill
#
# Bulk Modulus (GPa) = 33.15864 36.28952 34.72408
# Shear Modulus (GPa) = 12.60336 14.07359 13.33848
#
# Velocity S-wave (km/s) = 2.67082 2.82230 2.74760
# Velocity P-wave (km/s) = 5.31772 5.58208 5.45150
#
# Compressibility (1/GPa) = 0.03015805
#
# Stress axis : x y z
#
# Youngs Moduli (GPa) = 26.44460 26.44460 63.79592
#
# Poissons Ratio (x) = 0.48539 0.38974
# Poissons Ratio (y) = 0.48539 0.38974
# Poissons Ratio (z) = 0.16155 0.16155
#
# Static dielectric constant tensor:
#      x y z
#    x 1.616280 0.000000 0.000000 
#    y 0.000000 1.616280 0.000000 
#    z 0.000000 0.000000 1.575140 
# 
# From -- ./inp_files/798.got.cif
#   From: 2010.05.17/outbox.cif.g08.bks.cpg/sg114_1_cif.got.tgz:798.got - 2010.05.20 11:04:54.
