data_PCOD9555855
_publ_section_title
;
Structure prediction by ZEFSAII (Michael W. Deem and Ramdas Pophale) SiO2 
 PCOD9555855
Probable space group: P -4 21 C
;
_chemical_formula_sum "Si O2"
_cell_formula_units_Z 48
_cell_length_a 9.988120
_cell_length_b 9.988120
_cell_length_c 27.759612
_cell_angle_alpha 90.000000
_cell_angle_beta 90.000000
_cell_angle_gamma 90.000000
_cell_volume 2769.369434
_symmetry_space_group_name_H-M "P -4 21 C"
_symmetry_group_IT_number 114
_symmetry_cell_setting 'tetragonal'
loop_
_space_group_symop_operation_xyz
x,y,z
y,-x,-z
-x,-y,z
-y,x,-z
1/2+x,1/2-y,1/2-z
1/2-x,1/2+y,1/2-z
1/2-y,1/2-x,1/2+z
1/2+y,1/2+x,1/2+z
loop_
_atom_site_type_symbol
_atom_site_label
_atom_site_fract_x
_atom_site_fract_y
_atom_site_fract_z
Si Si1 0.337046 1.000000 0.719873
Si Si2 0.000000 0.160527 0.184214
Si Si3 0.784130 0.339625 0.358840
Si Si4 0.839610 0.344989 0.967275
Si Si5 0.339625 0.784130 0.641160
Si Si6 0.160390 0.344989 0.967275
O O1 0.297866 0.125863 0.686361
O O2 0.500000 0.000000 0.728010
O O3 0.252601 1.000000 0.768571
O O4 0.297866 0.874137 0.686361
O O5 0.131244 0.189881 0.153029
O O6 0.868756 0.189881 0.153029
O O7 0.000000 0.000000 0.196022
O O8 0.828336 0.293820 0.411580
O O9 0.801235 0.500000 0.360483
O O10 0.819710 0.500000 0.981396
O O11 1.000000 0.317308 0.969841
O O12 0.756200 0.243800 1.000000
O O13 0.293820 0.828336 0.588420
#
# Coordination Sequence:
#
# PCOD9555855 Si02
#       6
#     8   8   8   8   8   8
#     4  10  18  34  56  76 106 150 180 210 269 334
#     4  10  20  32  52  82 112 136 182 230 263 310
#     4   9  18  34  55  77 108 143 179 223 274 326
#     4  10  21  38  59  83 110 145 188 233 285 340
#     4   9  18  34  55  77 108 143 179 223 274 326
#     4  10  21  38  59  83 110 145 188 233 285 340
#
# _framework density 17.332464999999999
#
# number of rings (size 3 to 8) (size 9 to 14) (size 15 to 20)
#    0.000    2.333    1.667    1.000    2.333    0.667 
#    0.000    3.333    0.000    0.000    0.000    0.000 
#    0.000    0.000    0.000    0.000    0.000    0.000 
#
# Total GULP energy -267502.361636 kJ/mol
# GULP energy per Si atom -5572.965867 kJ/mol
# Density = 1.729302 g / cm^3
# Si number density = 17.332465 Si / 1000 Ang^3
#
#
#
# Elastic Constant Matrix: (Units=GPa)
#
#
# Indices 1 2 3 4 5 6 
#
# 1 74.7441 39.3058 32.9793 0.0000 0.0000 0.0000
# 2 39.3058 74.7441 32.9793 0.0000 0.0000 0.0000
# 3 32.9793 32.9793 77.5286 0.0000 0.0000 0.0000
# 4 0.0000 0.0000 0.0000 26.9538 0.0000 0.0000
# 5 0.0000 0.0000 0.0000 0.0000 26.9538 0.0000
# 6 0.0000 0.0000 0.0000 0.0000 0.0000 12.1363
#
#
#
# Elastic Compliance Matrix: (Units=1/GPa)
#
#
# Indices 1 2 3 4 5 6 
#
# 1 0.019924 -0.008295 -0.004947 0.000000 0.000000 0.000000
# 2 -0.008295 0.019924 -0.004947 0.000000 0.000000 0.000000
# 3 -0.004947 -0.004947 0.017107 0.000000 0.000000 0.000000
# 4 0.000000 0.000000 0.000000 0.037100 0.000000 0.000000
# 5 0.000000 0.000000 0.000000 0.000000 0.037100 0.000000
# 6 0.000000 0.000000 0.000000 0.000000 0.000000 0.082398
#
#
# Mechanical properties :
#
#
# Convention : Reuss Voigt Hill
#
# Bulk Modulus (GPa) = 48.59588 48.61620 48.60604
# Shear Modulus (GPa) = 19.47130 21.32560 20.39845
#
# Velocity S-wave (km/s) = 3.35535 3.51149 3.43431
# Velocity P-wave (km/s) = 6.56579 6.67464 6.62044
#
# Compressibility (1/GPa) = 0.02057788
#
# Stress axis : x y z
#
# Youngs Moduli (GPa) = 50.19194 50.19194 58.45559
#
# Poissons Ratio (x) = 0.41632 0.28917
# Poissons Ratio (y) = 0.41632 0.28917
# Poissons Ratio (z) = 0.24829 0.24829
#
# Static dielectric constant tensor:
#      x y z
#    x 1.602510 0.000000 0.000000 
#    y 0.000000 1.602510 0.000000 
#    z 0.000000 0.000000 1.573760 
# 
# From -- ./inp_files/3962.got.cif
#   From: 2010.05.17/outbox.cif.g08.bks.cpg/sg114_2_cif.got.tgz:3962.got - 2010.05.20 11:04:54.
