data_PCOD9555358
_publ_section_title
;
Structure prediction by ZEFSAII (Michael W. Deem and Ramdas Pophale) SiO2 
 PCOD9555358
Probable space group: P -4 2 C
;
_chemical_formula_sum "Si O2"
_cell_formula_units_Z 34
_cell_length_a 9.764245
_cell_length_b 9.764245
_cell_length_c 14.140464
_cell_angle_alpha 90.000000
_cell_angle_beta 90.000000
_cell_angle_gamma 90.000000
_cell_volume 1348.158631
_symmetry_space_group_name_H-M "P -4 2 C"
_symmetry_group_IT_number 112
_symmetry_cell_setting 'tetragonal'
loop_
_space_group_symop_operation_xyz
x,y,z
y,-x,-z
-x,-y,z
-y,x,-z
x,-y,1/2-z
-x,y,1/2-z
-y,-x,1/2+z
y,x,1/2+z
loop_
_atom_site_type_symbol
_atom_site_label
_atom_site_fract_x
_atom_site_fract_y
_atom_site_fract_z
Si Si1 0.000000 0.000000 0.000000
Si Si2 0.271738 0.618888 0.630867
Si Si3 0.020804 0.198426 0.852054
Si Si4 0.500000 0.220814 0.750000
Si Si5 0.205911 0.655548 0.955051
Si Si6 0.000000 0.500000 0.095574
O O1 0.916192 0.904863 0.928394
O O2 0.121670 0.673444 0.658309
O O3 0.385482 0.686140 0.698587
O O4 0.265415 0.542683 0.882957
O O5 0.297284 0.675210 0.524643
O O6 0.000000 0.139426 0.750000
O O7 0.873227 0.234422 0.893297
O O8 0.556490 0.117175 0.832073
O O9 0.086819 0.595131 0.024455
#
# Coordination Sequence:
#
# PCOD9555358 Si02
#       6
#     2   8   8   4   8   4
#     4  12  26  52  76 114 148 192 254 328 388 474
#     4  11  24  45  72 110 150 201 249 313 384 474
#     4  12  26  46  76 112 146 193 252 322 393 459
#     4   9  22  40  74 111 142 193 265 316 374 480
#     4  11  23  44  74 101 152 199 249 305 398 463
#     4   9  18  42  71 102 142 198 241 310 395 452
#
# _framework density 25.219583
#
# number of rings (size 3 to 8) (size 9 to 14) (size 15 to 20)
#    0.000    1.176    4.706    0.353    0.000    8.000 
#    8.471    2.353    0.000    0.000    0.000    0.000 
#    0.000    0.000    0.000    0.000    0.000    0.000 
#
# Total GULP energy -190325.521381 kJ/mol
# GULP energy per Si atom -5597.809452 kJ/mol
# Density = 2.516218 g / cm^3
# Si number density = 25.219583 Si / 1000 Ang^3
#
#
#
# Elastic Constant Matrix: (Units=GPa)
#
#
# Indices 1 2 3 4 5 6 
#
# 1 83.5666 23.8892 45.0773 0.0000 0.0000 0.0000
# 2 23.8892 83.5666 45.0773 0.0000 0.0000 0.0000
# 3 45.0773 45.0773 178.0153 0.0000 0.0000 0.0000
# 4 0.0000 0.0000 0.0000 41.4802 0.0000 0.0000
# 5 0.0000 0.0000 0.0000 0.0000 41.4802 0.0000
# 6 0.0000 0.0000 0.0000 0.0000 0.0000 25.2306
#
#
#
# Elastic Compliance Matrix: (Units=1/GPa)
#
#
# Indices 1 2 3 4 5 6 
#
# 1 0.014287 -0.002470 -0.002992 0.000000 0.000000 0.000000
# 2 -0.002470 0.014287 -0.002992 0.000000 0.000000 0.000000
# 3 -0.002992 -0.002992 0.007133 0.000000 0.000000 0.000000
# 4 0.000000 0.000000 0.000000 0.024108 0.000000 0.000000
# 5 0.000000 0.000000 0.000000 0.000000 0.024108 0.000000
# 6 0.000000 0.000000 0.000000 0.000000 0.000000 0.039634
#
#
# Mechanical properties :
#
#
# Convention : Reuss Voigt Hill
#
# Bulk Modulus (GPa) = 53.19936 63.69289 58.44613
# Shear Modulus (GPa) = 34.07592 37.04519 35.56056
#
# Velocity S-wave (km/s) = 3.67981 3.83679 3.75912
# Velocity P-wave (km/s) = 6.26059 6.70359 6.48587
#
# Compressibility (1/GPa) = 0.01879722
#
# Stress axis : x y z
#
# Youngs Moduli (GPa) = 69.99530 69.99530 140.19585
#
# Poissons Ratio (x) = 0.17289 0.41950
# Poissons Ratio (y) = 0.17289 0.41950
# Poissons Ratio (z) = 0.20944 0.20944
#
# Static dielectric constant tensor:
#      x y z
#    x 2.007310 0.000000 0.000000 
#    y 0.000000 2.007310 0.000000 
#    z 0.000000 0.000000 2.014560 
# 
# From -- ./inp_files/2370.got.cif
#   From: 2010.05.17/outbox.cif.g08.bks.cpg/sg112_2_cif.got.tgz:2370.got - 2010.05.20 10:59:04.
