data_PCOD9555395
_publ_section_title
;
Structure prediction by ZEFSAII (Michael W. Deem and Ramdas Pophale) SiO2 
 PCOD9555395
Probable space group: P -4 2 C
;
_chemical_formula_sum "Si O2"
_cell_formula_units_Z 48
_cell_length_a 8.799596
_cell_length_b 8.799596
_cell_length_c 26.037659
_cell_angle_alpha 90.000000
_cell_angle_beta 90.000000
_cell_angle_gamma 90.000000
_cell_volume 2016.171179
_symmetry_space_group_name_H-M "P -4 2 C"
_symmetry_group_IT_number 112
_symmetry_cell_setting 'tetragonal'
loop_
_space_group_symop_operation_xyz
x,y,z
y,-x,-z
-x,-y,z
-y,x,-z
x,-y,1/2-z
-x,y,1/2-z
-y,-x,1/2+z
y,x,1/2+z
loop_
_atom_site_type_symbol
_atom_site_label
_atom_site_fract_x
_atom_site_fract_y
_atom_site_fract_z
Si Si1 0.500000 0.500000 0.750000
Si Si2 0.894263 0.771216 0.496704
Si Si3 0.711087 0.248696 0.614548
Si Si4 0.173531 0.986079 0.188512
Si Si5 0.500000 0.500000 0.000000
Si Si6 0.312746 0.732994 0.818703
Si Si7 0.000000 0.500000 0.328299
Si Si8 0.283695 0.399200 0.576273
O O1 0.395974 0.606516 0.785393
O O2 0.828293 0.730259 0.441090
O O3 0.863836 0.653661 0.543870
O O4 0.071169 0.809415 0.489504
O O5 0.701893 0.429495 0.599568
O O6 0.846127 0.242177 0.657140
O O7 0.590996 0.133850 0.642172
O O8 0.277009 0.132332 0.180086
O O9 0.162070 0.000000 0.250000
O O10 0.000000 0.000000 0.168287
O O11 0.412669 0.619294 0.966408
O O12 0.372116 0.897559 0.800309
O O13 0.336405 0.709533 0.878793
#
# Coordination Sequence:
#
# PCOD9555395 Si02
#       8
#     2   8   8   8   2   8   4   8
#     4  12  30  50  78 126 152 226 260 348 420 496
#     4  11  26  45  75 108 156 212 272 330 408 497
#     4  12  26  49  81 114 156 211 277 327 422 495
#     4  11  27  51  81 114 153 207 272 342 403 484
#     4  12  22  48  68 106 156 204 258 320 416 482
#     4  12  28  49  78 111 168 194 278 328 410 486
#     4  12  26  47  84 110 152 214 260 335 400 500
#     4  12  26  48  72 114 159 209 261 347 405 501
#
# _framework density 23.807503000000001
#
# number of rings (size 3 to 8) (size 9 to 14) (size 15 to 20)
#    0.000    0.333    3.333    4.500    7.000    4.333 
#    0.000    0.000    0.000    0.000    0.000    0.000 
#    0.000    0.000    0.000    0.000    0.000    0.000 
#
# Total GULP energy -267758.809458 kJ/mol
# GULP energy per Si atom -5578.308530 kJ/mol
# Density = 2.375332 g / cm^3
# Si number density = 23.807503 Si / 1000 Ang^3
#
#
#
# Elastic Constant Matrix: (Units=GPa)
#
#
# Indices 1 2 3 4 5 6 
#
# 1 103.6727 45.4598 30.0039 0.0000 0.0000 0.0000
# 2 45.4598 103.6727 30.0039 0.0000 0.0000 0.0000
# 3 30.0039 30.0039 108.2614 0.0000 0.0000 0.0000
# 4 0.0000 0.0000 0.0000 13.2125 0.0000 0.0000
# 5 0.0000 0.0000 0.0000 0.0000 13.2125 0.0000
# 6 0.0000 0.0000 0.0000 0.0000 0.0000 27.8250
#
#
#
# Elastic Compliance Matrix: (Units=1/GPa)
#
#
# Indices 1 2 3 4 5 6 
#
# 1 0.012363 -0.004816 -0.002092 0.000000 0.000000 0.000000
# 2 -0.004816 0.012363 -0.002092 0.000000 0.000000 0.000000
# 3 -0.002092 -0.002092 0.010396 0.000000 0.000000 0.000000
# 4 0.000000 0.000000 0.000000 0.075686 0.000000 0.000000
# 5 0.000000 0.000000 0.000000 0.000000 0.075686 0.000000
# 6 0.000000 0.000000 0.000000 0.000000 0.000000 0.035939
#
#
# Mechanical properties :
#
#
# Convention : Reuss Voigt Hill
#
# Bulk Modulus (GPa) = 58.39785 58.50469 58.45127
# Shear Modulus (GPa) = 20.31384 24.85930 22.58657
#
# Velocity S-wave (km/s) = 2.92422 3.23488 3.08347
# Velocity P-wave (km/s) = 5.99865 6.21128 6.10589
#
# Compressibility (1/GPa) = 0.01712392
#
# Stress axis : x y z
#
# Youngs Moduli (GPa) = 80.88850 80.88850 96.18841
#
# Poissons Ratio (x) = 0.38953 0.20119
# Poissons Ratio (y) = 0.38953 0.20119
# Poissons Ratio (z) = 0.16919 0.16919
#
# Static dielectric constant tensor:
#      x y z
#    x 1.943750 0.000000 0.000000 
#    y 0.000000 1.943750 0.000000 
#    z 0.000000 0.000000 1.810430 
# 
# From -- ./inp_files/6400.got.cif
#   From: 2010.05.17/outbox.cif.g08.bks.cpg/sg112_4_cif.got.tgz:6400.got - 2010.05.20 10:59:04.
