data_PCOD9555494
_publ_section_title
;
Structure prediction by ZEFSAII (Michael W. Deem and Ramdas Pophale) SiO2 
 PCOD9555494
Probable space group: P -4 21 M 
;
_chemical_formula_sum "Si O2"
_cell_formula_units_Z 64
_cell_length_a 12.674134
_cell_length_b 12.674134
_cell_length_c 19.958543
_cell_angle_alpha 90.000000
_cell_angle_beta 90.000000
_cell_angle_gamma 90.000000
_cell_volume 3206.014063
_symmetry_space_group_name_H-M "P -4 21 M "
_symmetry_group_IT_number 113
_symmetry_cell_setting 'tetragonal'
loop_
_space_group_symop_operation_xyz
x,y,z
y,-x,-z
-x,-y,z
-y,x,-z
1/2+x,1/2-y,-z
1/2-x,1/2+y,-z
1/2-y,1/2-x,z
1/2+y,1/2+x,z
loop_
_atom_site_type_symbol
_atom_site_label
_atom_site_fract_x
_atom_site_fract_y
_atom_site_fract_z
Si Si1 0.614063 0.286259 0.206573
Si Si2 0.993528 0.325770 0.900377
Si Si3 0.473516 0.330301 0.581822
Si Si4 0.327278 0.511881 0.018699
Si Si5 0.326455 0.995373 0.863722
Si Si6 0.020736 0.822240 0.566045
Si Si7 0.739641 0.939434 0.725135
Si Si8 0.836928 0.499644 0.675756
O O1 0.719020 0.219020 0.187683
O O2 0.532995 0.271121 0.145941
O O3 0.655417 0.393901 0.238281
O O4 0.557220 0.227332 0.267279
O O5 0.086442 0.413559 0.899551
O O6 0.888118 0.388118 0.878874
O O7 0.978578 0.276520 0.973079
O O8 0.470942 0.275920 0.508877
O O9 0.575572 0.405154 0.573336
O O10 0.369042 0.404407 0.582756
O O11 0.480591 0.267140 0.651128
O O12 0.280902 0.507952 0.093925
O O13 0.406505 0.608100 0.002003
O O14 0.394220 0.894220 0.886524
O O15 0.401684 0.098317 0.873029
O O16 0.306897 0.987414 0.783678
O O17 0.049526 0.737586 0.620891
O O18 0.657037 0.842964 0.715568
O O19 0.912409 0.587592 0.642837
O O20 0.912911 0.412911 0.707234
#
# Coordination Sequence:
#
# PCOD9555494 Si02
#       8
#     8   8   8   8   8   8   8   8
#     4   9  17  31  53  82 112 142 182 229 278 338
#     4  10  20  35  58  86 113 146 187 231 283 339
#     4   9  18  34  55  78 107 147 197 243 282 336
#     4  11  24  41  59  85 117 152 194 238 281 333
#     4  10  22  41  63  87 118 154 191 236 290 344
#     4   9  18  34  53  77 109 148 192 240 292 339
#     4  10  19  34  59  85 110 152 198 233 280 344
#     4  10  19  32  51  78 113 146 178 226 290 350
#
# _framework density 19.962482000000001
#
# number of rings (size 3 to 8) (size 9 to 14) (size 15 to 20)
#    0.000    2.250    1.250    2.625    0.000    6.000 
#    2.250    4.375    0.000    1.500    0.000    0.000 
#    0.000    0.000    0.000    0.000    0.000    0.000 
#
# Total GULP energy -356609.483172 kJ/mol
# GULP energy per Si atom -5572.023175 kJ/mol
# Density = 1.991705 g / cm^3
# Si number density = 19.962482 Si / 1000 Ang^3
#
#
#
# Elastic Constant Matrix: (Units=GPa)
#
#
# Indices 1 2 3 4 5 6 
#
# 1 41.0405 11.2146 15.1822 0.0000 0.0000 0.0000
# 2 11.2146 41.0412 15.1829 0.0000 0.0000 0.0000
# 3 15.1822 15.1829 115.4026 0.0000 0.0000 0.0000
# 4 0.0000 0.0000 0.0000 27.3370 0.0000 0.0000
# 5 0.0000 0.0000 0.0000 0.0000 27.3369 0.0000
# 6 0.0000 0.0000 0.0000 0.0000 0.0000 16.1368
#
#
#
# Elastic Compliance Matrix: (Units=1/GPa)
#
#
# Indices 1 2 3 4 5 6 
#
# 1 0.027124 -0.006403 -0.002726 0.000000 0.000000 0.000000
# 2 -0.006403 0.027124 -0.002726 0.000000 0.000000 0.000000
# 3 -0.002726 -0.002726 0.009383 0.000000 0.000000 0.000000
# 4 0.000000 0.000000 0.000000 0.036580 0.000000 0.000000
# 5 0.000000 0.000000 0.000000 0.000000 0.036581 0.000000
# 6 0.000000 0.000000 0.000000 0.000000 0.000000 0.061970
#
#
# Mechanical properties :
#
#
# Convention : Reuss Voigt Hill
#
# Bulk Modulus (GPa) = 25.05008 31.18264 28.11636
# Shear Modulus (GPa) = 21.20623 24.55578 22.88101
#
# Velocity S-wave (km/s) = 3.26284 3.51108 3.38923
# Velocity P-wave (km/s) = 5.17403 5.66493 5.42504
#
# Compressibility (1/GPa) = 0.03992004
#
# Stress axis : x y z
#
# Youngs Moduli (GPa) = 36.86718 36.86770 106.58018
#
# Poissons Ratio (x) = 0.23608 0.29054
# Poissons Ratio (y) = 0.23607 0.29055
# Poissons Ratio (z) = 0.10050 0.10051
#
# Static dielectric constant tensor:
#      x y z
#    x 1.688060 0.000000 0.000000 
#    y 0.000000 1.688060 0.000000 
#    z 0.000000 0.000000 1.713850 
# 
# From -- ./inp_files/2887.got.cif
#   From: 2010.05.17/outbox.cif.g08.bks.cpg/sg113_cif.got.tgz:2887.got - 2010.05.20 11:03:00.
