data_PCOD9555286
_publ_section_title
;
Structure prediction by ZEFSAII (Michael W. Deem and Ramdas Pophale) SiO2 
 PCOD9555286
Probable space group: P -4 2 C
;
_chemical_formula_sum "Si O2"
_cell_formula_units_Z 20
_cell_length_a 5.091622
_cell_length_b 5.091622
_cell_length_c 32.686058
_cell_angle_alpha 90.000000
_cell_angle_beta 90.000000
_cell_angle_gamma 90.000000
_cell_volume 847.373456
_symmetry_space_group_name_H-M "P -4 2 C"
_symmetry_group_IT_number 112
_symmetry_cell_setting 'tetragonal'
loop_
_space_group_symop_operation_xyz
x,y,z
y,-x,-z
-x,-y,z
-y,x,-z
x,-y,1/2-z
-x,y,1/2-z
-y,-x,1/2+z
y,x,1/2+z
loop_
_atom_site_type_symbol
_atom_site_label
_atom_site_fract_x
_atom_site_fract_y
_atom_site_fract_z
Si Si1 0.500000 0.500000 0.111500
Si Si2 0.500000 0.000000 0.944141
Si Si3 0.749132 0.185280 0.821866
Si Si4 0.000000 0.000000 0.500000
Si Si5 0.500000 0.500000 0.750000
O O1 0.252386 0.570513 0.083372
O O2 0.398364 0.272241 0.142023
O O3 0.249809 0.933809 0.971976
O O4 0.686334 0.328510 0.779234
O O5 0.500000 0.000000 0.829258
O O6 0.000000 0.000000 0.821205
#
# Coordination Sequence:
#
# PCOD9555286 Si02
#       5
#     4   4   8   2   2
#     4  11  26  48  80 115 154 204 258 321 386 462
#     4  12  26  48  78 111 156 196 254 315 384 474
#     4  11  26  47  75 112 152 207 262 326 392 461
#     4  12  28  48  76 116 152 202 248 312 396 460
#     4  10  26  46  76 110 160 210 272 330 396 468
#
# _framework density 23.602342
#
# number of rings (size 3 to 8) (size 9 to 14) (size 15 to 20)
#    0.000    0.800    2.000    3.000    2.800   14.400 
#    0.000    0.000    4.400    0.000    0.000    0.000 
#    0.000    0.000    0.000    0.000    0.000    0.000 
#
# Total GULP energy -112146.705126 kJ/mol
# GULP energy per Si atom -5607.335256 kJ/mol
# Density = 2.354862 g / cm^3
# Si number density = 23.602342 Si / 1000 Ang^3
#
#
#
# Elastic Constant Matrix: (Units=GPa)
#
#
# Indices 1 2 3 4 5 6 
#
# 1 183.6130 66.2171 71.6071 0.0000 0.0000 0.0000
# 2 66.2171 183.6130 71.6071 0.0000 0.0000 0.0000
# 3 71.6071 71.6071 156.9196 0.0000 0.0000 0.0000
# 4 0.0000 0.0000 0.0000 1.0180 0.0000 0.0000
# 5 0.0000 0.0000 0.0000 0.0000 1.0180 0.0000
# 6 0.0000 0.0000 0.0000 0.0000 0.0000 54.5698
#
#
#
# Elastic Compliance Matrix: (Units=1/GPa)
#
#
# Indices 1 2 3 4 5 6 
#
# 1 0.006969 -0.001549 -0.002474 0.000000 0.000000 0.000000
# 2 -0.001549 0.006969 -0.002474 0.000000 0.000000 0.000000
# 3 -0.002474 -0.002474 0.008630 0.000000 0.000000 0.000000
# 4 0.000000 0.000000 0.000000 0.982323 0.000000 0.000000
# 5 0.000000 0.000000 0.000000 0.000000 0.982323 0.000000
# 6 0.000000 0.000000 0.000000 0.000000 0.000000 0.018325
#
#
# Mechanical properties :
#
#
# Convention : Reuss Voigt Hill
#
# Bulk Modulus (GPa) = 104.41492 104.77869 104.59680
# Shear Modulus (GPa) = 2.47314 32.30212 17.38763
#
# Velocity S-wave (km/s) = 1.02475 3.70347 2.71715
# Velocity P-wave (km/s) = 6.76280 7.92321 7.36589
#
# Compressibility (1/GPa) = 0.00957718
#
# Stress axis : x y z
#
# Youngs Moduli (GPa) = 143.48327 143.48327 115.87109
#
# Poissons Ratio (x) = 0.22222 0.28662
# Poissons Ratio (y) = 0.22222 0.28662
# Poissons Ratio (z) = 0.35493 0.35493
#
# Static dielectric constant tensor:
#      x y z
#    x 1.825070 0.000000 0.000000 
#    y 0.000000 1.825070 0.000000 
#    z 0.000000 0.000000 1.903450 
# 
# From -- ./inp_files/6034.got.cif
#   From: 2010.05.17/outbox.cif.g08.bks.cpg/sg112_4_cif.got.tgz:6034.got - 2010.05.20 10:59:04.
