data_PCOD9555082
_publ_section_title
;
Structure prediction by ZEFSAII (Michael W. Deem and Ramdas Pophale) SiO2 
 PCOD9555082
Probable space group: P -4 2 C
;
_chemical_formula_sum "Si O2"
_cell_formula_units_Z 24
_cell_length_a 7.829667
_cell_length_b 7.829667
_cell_length_c 19.431674
_cell_angle_alpha 90.000000
_cell_angle_beta 90.000000
_cell_angle_gamma 90.000000
_cell_volume 1191.233228
_symmetry_space_group_name_H-M "P -4 2 C"
_symmetry_group_IT_number 112
_symmetry_cell_setting 'tetragonal'
loop_
_space_group_symop_operation_xyz
x,y,z
y,-x,-z
-x,-y,z
-y,x,-z
x,-y,1/2-z
-x,y,1/2-z
-y,-x,1/2+z
y,x,1/2+z
loop_
_atom_site_type_symbol
_atom_site_label
_atom_site_fract_x
_atom_site_fract_y
_atom_site_fract_z
Si Si1 0.500000 0.500000 0.250000
Si Si2 0.000000 0.000000 0.250000
Si Si3 0.741402 0.110936 0.982896
Si Si4 0.500000 0.000000 0.087146
Si Si5 0.244518 0.748623 0.835680
O O1 0.630350 0.619043 0.204874
O O2 0.115906 0.866137 0.292464
O O3 0.688779 0.158819 0.905537
O O4 0.911052 0.209759 0.007677
O O5 0.592474 0.135786 0.037639
O O6 0.626693 0.901125 0.135243
#
# Coordination Sequence:
#
# PCOD9555082 Si02
#       5
#     2   2   8   4   8
#     4  12  28  40  58  96 140 164 188 258 324 372
#     4  12  24  44  70  84 120 180 220 242 276 388
#     4   9  19  37  63  89 113 153 212 266 304 357
#     4  10  20  39  64  87 120 162 208 262 312 362
#     4  11  24  41  62  91 126 165 210 250 310 370
#
# _framework density 20.147189000000001
#
# number of rings (size 3 to 8) (size 9 to 14) (size 15 to 20)
#    0.000    1.667    0.000    6.000    0.000    8.667 
#    0.000    0.000    0.000    0.000    0.000    0.000 
#    0.000    0.000    0.000    0.000    0.000    0.000 
#
# Total GULP energy -133770.967179 kJ/mol
# GULP energy per Si atom -5573.790299 kJ/mol
# Density = 2.010133 g / cm^3
# Si number density = 20.147189 Si / 1000 Ang^3
#
#
#
# Elastic Constant Matrix: (Units=GPa)
#
#
# Indices 1 2 3 4 5 6 
#
# 1 107.5341 47.0256 87.1721 0.0000 0.0000 0.0000
# 2 47.0256 107.5341 87.1721 0.0000 0.0000 0.0000
# 3 87.1721 87.1721 174.2861 0.0000 0.0000 0.0000
# 4 0.0000 0.0000 0.0000 113.7853 0.0000 0.0000
# 5 0.0000 0.0000 0.0000 0.0000 113.7853 0.0000
# 6 0.0000 0.0000 0.0000 0.0000 0.0000 31.2315
#
#
#
# Elastic Compliance Matrix: (Units=1/GPa)
#
#
# Indices 1 2 3 4 5 6 
#
# 1 0.015686 -0.000840 -0.007425 0.000000 0.000000 0.000000
# 2 -0.000840 0.015686 -0.007425 0.000000 0.000000 0.000000
# 3 -0.007425 -0.007425 0.013166 0.000000 0.000000 0.000000
# 4 0.000000 0.000000 0.000000 0.008788 0.000000 0.000000
# 5 0.000000 0.000000 0.000000 0.000000 0.008788 0.000000
# 6 0.000000 0.000000 0.000000 0.000000 0.000000 0.032019
#
#
# Mechanical properties :
#
#
# Convention : Reuss Voigt Hill
#
# Bulk Modulus (GPa) = 76.01262 92.45486 84.23374
# Shear Modulus (GPa) = 38.49066 62.95938 50.72502
#
# Velocity S-wave (km/s) = 4.37564 5.59621 5.02313
# Velocity P-wave (km/s) = 7.95857 9.36729 8.69152
#
# Compressibility (1/GPa) = 0.01315571
#
# Stress axis : x y z
#
# Youngs Moduli (GPa) = 63.75006 63.75006 75.95556
#
# Poissons Ratio (x) = 0.05357 0.56400
# Poissons Ratio (y) = 0.05357 0.56400
# Poissons Ratio (z) = 0.47337 0.47337
#
# Static dielectric constant tensor:
#      x y z
#    x 1.713360 0.000000 0.000000 
#    y 0.000000 1.713360 0.000000 
#    z 0.000000 0.000000 1.730050 
# 
# From -- ./inp_files/2931.got.cif
#   From: 2010.05.17/outbox.cif.g08.bks.cpg/sg112_2_cif.got.tgz:2931.got - 2010.05.20 10:59:04.
