data_PCOD9555283
_publ_section_title
;
Structure prediction by ZEFSAII (Michael W. Deem and Ramdas Pophale) SiO2 
 PCOD9555283
Probable space group: P -4 2 C
;
_chemical_formula_sum "Si O2"
_cell_formula_units_Z 14
_cell_length_a 6.590838
_cell_length_b 6.590838
_cell_length_c 15.994818
_cell_angle_alpha 90.000000
_cell_angle_beta 90.000000
_cell_angle_gamma 90.000000
_cell_volume 694.801227
_symmetry_space_group_name_H-M "P -4 2 C"
_symmetry_group_IT_number 112
_symmetry_cell_setting 'tetragonal'
loop_
_space_group_symop_operation_xyz
x,y,z
y,-x,-z
-x,-y,z
-y,x,-z
x,-y,1/2-z
-x,y,1/2-z
-y,-x,1/2+z
y,x,1/2+z
loop_
_atom_site_type_symbol
_atom_site_label
_atom_site_fract_x
_atom_site_fract_y
_atom_site_fract_z
Si Si1 0.500000 0.000000 0.035380
Si Si2 0.855945 0.201656 0.109871
Si Si3 0.000000 0.500000 0.250000
O O1 0.377715 0.851630 0.095334
O O2 0.672112 0.916331 0.973145
O O3 0.880967 0.349180 0.188418
O O4 0.000000 0.000000 0.117943
#
# Coordination Sequence:
#
# PCOD9555283 Si02
#       3
#     4   8   2
#     4  11  20  41  77  95 132 178 230 277 338 402
#     4  11  22  45  69 102 137 177 225 291 337 400
#     4  10  26  44  70  92 148 184 218 286 358 394
#
# _framework density 20.149645
#
# number of rings (size 3 to 8) (size 9 to 14) (size 15 to 20)
#    0.000    1.143    5.714    0.857    0.000    1.143 
#    0.000    8.571    0.000    0.000    0.000    0.000 
#    0.000    0.000    0.000    0.000    0.000    0.000 
#
# Total GULP energy -78086.467888 kJ/mol
# GULP energy per Si atom -5577.604849 kJ/mol
# Density = 2.010378 g / cm^3
# Si number density = 20.149645 Si / 1000 Ang^3
#
#
#
# Elastic Constant Matrix: (Units=GPa)
#
#
# Indices 1 2 3 4 5 6 
#
# 1 130.2364 62.4788 69.2760 0.0000 0.0000 0.0000
# 2 62.4788 130.2364 69.2760 0.0000 0.0000 0.0000
# 3 69.2760 69.2760 149.2035 0.0000 0.0000 0.0000
# 4 0.0000 0.0000 0.0000 7.3464 0.0000 0.0000
# 5 0.0000 0.0000 0.0000 0.0000 7.3464 0.0000
# 6 0.0000 0.0000 0.0000 0.0000 0.0000 35.3494
#
#
#
# Elastic Compliance Matrix: (Units=1/GPa)
#
#
# Indices 1 2 3 4 5 6 
#
# 1 0.011274 -0.003485 -0.003617 0.000000 0.000000 0.000000
# 2 -0.003485 0.011274 -0.003617 0.000000 0.000000 0.000000
# 3 -0.003617 -0.003617 0.010061 0.000000 0.000000 0.000000
# 4 0.000000 0.000000 0.000000 0.136120 0.000000 0.000000
# 5 0.000000 0.000000 0.000000 0.000000 0.136120 0.000000
# 6 0.000000 0.000000 0.000000 0.000000 0.000000 0.028289
#
#
# Mechanical properties :
#
#
# Convention : Reuss Voigt Hill
#
# Bulk Modulus (GPa) = 89.50384 90.19309 89.84846
# Shear Modulus (GPa) = 13.95488 23.91816 18.93652
#
# Velocity S-wave (km/s) = 2.63451 3.44906 3.06893
# Velocity P-wave (km/s) = 7.33282 7.79232 7.56606
#
# Compressibility (1/GPa) = 0.01117270
#
# Stress axis : x y z
#
# Youngs Moduli (GPa) = 88.70133 88.70133 99.39771
#
# Poissons Ratio (x) = 0.30910 0.35947
# Poissons Ratio (y) = 0.30910 0.35947
# Poissons Ratio (z) = 0.32079 0.32079
#
# Static dielectric constant tensor:
#      x y z
#    x 1.759670 0.000000 0.000000 
#    y 0.000000 1.759670 0.000000 
#    z 0.000000 0.000000 1.717350 
# 
# From -- ./inp_files/3515.got.cif
#   From: 2010.05.17/outbox.cif.g08.bks.cpg/sg112_2_cif.got.tgz:3515.got - 2010.05.20 10:59:04.
