data_PCOD9555168
_publ_section_title
;
Structure prediction by ZEFSAII (Michael W. Deem and Ramdas Pophale) SiO2 
 PCOD9555168
Probable space group: P -4 2 C
;
_chemical_formula_sum "Si O2"
_cell_formula_units_Z 56
_cell_length_a 11.412973
_cell_length_b 11.412973
_cell_length_c 23.950186
_cell_angle_alpha 90.000000
_cell_angle_beta 90.000000
_cell_angle_gamma 90.000000
_cell_volume 3119.654295
_symmetry_space_group_name_H-M "P -4 2 C"
_symmetry_group_IT_number 112
_symmetry_cell_setting 'tetragonal'
loop_
_space_group_symop_operation_xyz
x,y,z
y,-x,-z
-x,-y,z
-y,x,-z
x,-y,1/2-z
-x,y,1/2-z
-y,-x,1/2+z
y,x,1/2+z
loop_
_atom_site_type_symbol
_atom_site_label
_atom_site_fract_x
_atom_site_fract_y
_atom_site_fract_z
Si Si1 0.746815 0.444503 0.689033
Si Si2 0.401782 0.901782 0.515433
Si Si3 0.845250 0.009865 0.536327
Si Si4 0.246815 0.944503 0.189033
Si Si5 0.500000 0.500000 0.860331
Si Si6 0.000000 0.000000 0.360331
Si Si7 0.654750 0.509865 0.463673
Si Si8 0.598946 0.098946 0.390275
O O1 0.766935 0.500000 0.750000
O O2 0.822564 0.322564 0.684812
O O3 0.608193 0.448062 0.675175
O O4 0.800835 0.535280 0.644510
O O5 0.287535 0.955719 0.542917
O O6 0.455719 0.787535 0.542917
O O7 0.365706 0.865706 0.452297
O O8 0.500000 0.000000 0.513741
O O9 0.915581 0.123790 0.512093
O O10 0.898323 0.967581 0.594881
O O11 0.108193 0.948062 0.175175
O O12 0.266935 0.000000 0.250000
O O13 0.300835 0.035280 0.144510
O O14 0.532419 0.398323 0.905119
O O15 0.623790 0.415581 0.512093
O O16 0.500000 0.000000 0.396454
#
# Coordination Sequence:
#
# PCOD9555168 Si02
#       8
#     8   8   8   8   4   4   8   8
#     4  11  21  37  61  86 118 146 196 250 298 354
#     4  11  22  34  57  85 115 159 200 240 293 355
#     4   9  20  38  55  81 118 153 197 244 284 355
#     4  11  21  37  61  86 118 146 196 250 298 354
#     4  10  22  38  58  86 114 162 188 236 310 352
#     4  10  22  38  58  86 114 162 188 236 310 352
#     4   9  20  38  55  81 118 153 197 244 284 355
#     4   9  18  32  55  84 110 150 191 244 301 331
#
# _framework density 17.950704999999999
#
# number of rings (size 3 to 8) (size 9 to 14) (size 15 to 20)
#    0.000    2.286    1.429    3.857    4.000    0.000 
#    2.571    0.000    0.000    0.000    0.000    0.000 
#    0.000    0.000    0.000    0.000    0.000    0.000 
#
# Total GULP energy -311766.887277 kJ/mol
# GULP energy per Si atom -5567.265844 kJ/mol
# Density = 1.790985 g / cm^3
# Si number density = 17.950705 Si / 1000 Ang^3
#
#
#
# Elastic Constant Matrix: (Units=GPa)
#
#
# Indices 1 2 3 4 5 6 
#
# 1 99.9276 45.7995 21.8975 0.0000 0.0000 0.0000
# 2 45.7995 99.9276 21.8975 0.0000 0.0000 0.0000
# 3 21.8975 21.8975 63.3989 0.0000 0.0000 0.0000
# 4 0.0000 0.0000 0.0000 18.5924 0.0000 0.0000
# 5 0.0000 0.0000 0.0000 0.0000 18.5924 0.0000
# 6 0.0000 0.0000 0.0000 0.0000 0.0000 19.3482
#
#
#
# Elastic Compliance Matrix: (Units=1/GPa)
#
#
# Indices 1 2 3 4 5 6 
#
# 1 0.013066 -0.005409 -0.002645 0.000000 0.000000 0.000000
# 2 -0.005409 0.013066 -0.002645 0.000000 0.000000 0.000000
# 3 -0.002645 -0.002645 0.017600 0.000000 0.000000 0.000000
# 4 0.000000 0.000000 0.000000 0.053785 0.000000 0.000000
# 5 0.000000 0.000000 0.000000 0.000000 0.053785 0.000000
# 6 0.000000 0.000000 0.000000 0.000000 0.000000 0.051684
#
#
# Mechanical properties :
#
#
# Convention : Reuss Voigt Hill
#
# Bulk Modulus (GPa) = 44.77220 49.16036 46.96628
# Shear Modulus (GPa) = 21.56769 22.88391 22.22580
#
# Velocity S-wave (km/s) = 3.47002 3.57433 3.52256
# Velocity P-wave (km/s) = 6.40708 6.66935 6.53953
#
# Compressibility (1/GPa) = 0.02233529
#
# Stress axis : x y z
#
# Youngs Moduli (GPa) = 76.53556 76.53556 56.81813
#
# Poissons Ratio (x) = 0.41397 0.15026
# Poissons Ratio (y) = 0.41397 0.15026
# Poissons Ratio (z) = 0.20241 0.20241
#
# Static dielectric constant tensor:
#      x y z
#    x 1.643810 0.000000 0.000000 
#    y 0.000000 1.643810 0.000000 
#    z 0.000000 0.000000 1.630290 
# 
# From -- ./inp_files/5556.got.cif
#   From: 2010.05.17/outbox.cif.g08.bks.cpg/sg112_3_cif.got.tgz:5556.got - 2010.05.20 10:59:04.
