data_PCOD9555256
_publ_section_title
;
Structure prediction by ZEFSAII (Michael W. Deem and Ramdas Pophale) SiO2 
 PCOD9555256
Probable space group: P -4 2 C
;
_chemical_formula_sum "Si O2"
_cell_formula_units_Z 48
_cell_length_a 13.896129
_cell_length_b 13.896129
_cell_length_c 12.852728
_cell_angle_alpha 90.000000
_cell_angle_beta 90.000000
_cell_angle_gamma 90.000000
_cell_volume 2481.892639
_symmetry_space_group_name_H-M "P -4 2 C"
_symmetry_group_IT_number 112
_symmetry_cell_setting 'tetragonal'
loop_
_space_group_symop_operation_xyz
x,y,z
y,-x,-z
-x,-y,z
-y,x,-z
x,-y,1/2-z
-x,y,1/2-z
-y,-x,1/2+z
y,x,1/2+z
loop_
_atom_site_type_symbol
_atom_site_label
_atom_site_fract_x
_atom_site_fract_y
_atom_site_fract_z
Si Si1 0.007737 0.192904 0.374007
Si Si2 0.463047 0.150290 0.419501
Si Si3 0.690660 0.500000 0.750000
Si Si4 0.611125 0.712132 0.767111
Si Si5 0.161855 0.343547 0.461150
Si Si6 0.000000 0.000000 0.000000
Si Si7 0.000000 0.500000 0.750000
Si Si8 0.806924 0.713676 0.074673
O O1 0.082357 0.277149 0.405335
O O2 0.000000 0.181589 0.250000
O O3 0.029855 0.091179 0.428992
O O4 0.905010 0.228645 0.414453
O O5 0.495295 0.242567 0.352284
O O6 0.555851 0.123815 0.490849
O O7 0.443302 0.069427 0.330548
O O8 0.371049 0.175936 0.489740
O O9 0.633107 0.599620 0.751403
O O10 0.500000 0.728934 0.750000
O O11 0.635786 0.752747 0.879976
O O12 0.666963 0.775288 0.682776
O O13 0.211790 0.277010 0.546778
#
# Coordination Sequence:
#
# PCOD9555256 Si02
#       8
#     8   8   4   8   8   2   2   8
#     4  12  26  45  70 101 127 172 228 278 345 414
#     4  11  23  42  65  98 135 173 230 283 334 408
#     4  11  23  39  67  98 138 180 237 269 329 403
#     4  12  24  42  67 102 139 183 231 284 332 405
#     4  12  24  43  69  97 138 181 223 282 346 404
#     4  12  26  48  68  98 136 168 214 284 340 430
#     4  10  24  44  62  90 130 170 218 288 332 388
#     4  12  24  43  69  97 138 181 223 282 346 404
#
# _framework density 19.34008
#
# number of rings (size 3 to 8) (size 9 to 14) (size 15 to 20)
#    0.000    0.333    8.333    1.500    0.000    0.000 
#    0.000    1.667    0.000    0.000    0.000    0.000 
#    0.000    0.000    0.000    0.000    0.000    0.000 
#
# Total GULP energy -268135.090882 kJ/mol
# GULP energy per Si atom -5586.147727 kJ/mol
# Density = 1.929606 g / cm^3
# Si number density = 19.340080 Si / 1000 Ang^3
#
#
#
# Elastic Constant Matrix: (Units=GPa)
#
#
# Indices 1 2 3 4 5 6 
#
# 1 72.1785 0.5842 9.3616 0.0000 0.0000 0.0000
# 2 0.5842 72.1785 9.3616 0.0000 0.0000 0.0000
# 3 9.3616 9.3616 80.0181 0.0000 0.0000 0.0000
# 4 0.0000 0.0000 0.0000 25.3575 0.0000 0.0000
# 5 0.0000 0.0000 0.0000 0.0000 25.3575 0.0000
# 6 0.0000 0.0000 0.0000 0.0000 0.0000 309.0722
#
#
#
# Elastic Compliance Matrix: (Units=1/GPa)
#
#
# Indices 1 2 3 4 5 6 
#
# 1 0.014069 0.000101 -0.001658 0.000000 0.000000 0.000000
# 2 0.000101 0.014069 -0.001658 0.000000 0.000000 0.000000
# 3 -0.001658 -0.001658 0.012885 0.000000 0.000000 0.000000
# 4 0.000000 0.000000 0.000000 0.039436 0.000000 0.000000
# 5 0.000000 0.000000 0.000000 0.000000 0.039436 0.000000
# 6 0.000000 0.000000 0.000000 0.000000 0.000000 0.003235
#
#
# Mechanical properties :
#
#
# Convention : Reuss Voigt Hill
#
# Bulk Modulus (GPa) = 28.90699 29.22109 29.06404
# Shear Modulus (GPa) = 35.43830 85.62861 60.53346
#
# Velocity S-wave (km/s) = 4.28527 6.66118 5.60066
# Velocity P-wave (km/s) = 6.28203 8.61996 7.54213
#
# Compressibility (1/GPa) = 0.03459371
#
# Stress axis : x y z
#
# Youngs Moduli (GPa) = 71.07960 71.07960 77.60925
#
# Poissons Ratio (x) = -0.00719 0.12866
# Poissons Ratio (y) = -0.00719 0.12866
# Poissons Ratio (z) = 0.11783 0.11783
#
# Static dielectric constant tensor:
#      x y z
#    x 1.669890 0.000000 0.000000 
#    y 0.000000 1.669890 0.000000 
#    z 0.000000 0.000000 1.622250 
# 
# From -- ./inp_files/2623.got.cif
#   From: 2010.05.17/outbox.cif.g08.bks.cpg/sg112_2_cif.got.tgz:2623.got - 2010.05.20 10:59:04.
