data_PCOD9555616
_publ_section_title
;
Structure prediction by ZEFSAII (Michael W. Deem and Ramdas Pophale) SiO2 
 PCOD9555616
Probable space group: P -4 21 M 
;
_chemical_formula_sum "Si O2"
_cell_formula_units_Z 48
_cell_length_a 14.222547
_cell_length_b 14.222547
_cell_length_c 12.215303
_cell_angle_alpha 90.000000
_cell_angle_beta 90.000000
_cell_angle_gamma 90.000000
_cell_volume 2470.921790
_symmetry_space_group_name_H-M "P -4 21 M "
_symmetry_group_IT_number 113
_symmetry_cell_setting 'tetragonal'
loop_
_space_group_symop_operation_xyz
x,y,z
y,-x,-z
-x,-y,z
-y,x,-z
1/2+x,1/2-y,-z
1/2-x,1/2+y,-z
1/2-y,1/2-x,z
1/2+y,1/2+x,z
loop_
_atom_site_type_symbol
_atom_site_label
_atom_site_fract_x
_atom_site_fract_y
_atom_site_fract_z
Si Si1 0.859913 0.040232 0.028580
Si Si2 0.361208 0.295303 0.556473
Si Si3 0.107821 0.958524 0.268681
Si Si4 0.934069 0.717828 0.155803
Si Si5 0.152548 0.801643 0.692889
Si Si6 0.002882 0.347080 0.376043
O O1 0.866678 0.083177 0.149338
O O2 0.767556 0.035034 0.955472
O O3 0.936022 0.098296 0.958877
O O4 0.279264 0.220737 0.590563
O O5 0.377117 0.380664 0.638993
O O6 0.335380 0.328200 0.434513
O O7 0.460080 0.237506 0.553301
O O8 0.180353 0.044108 0.283601
O O9 0.000000 0.000000 0.271016
O O10 0.871466 0.628535 0.126150
O O11 0.868968 0.788795 0.226856
O O12 0.006372 0.684797 0.248950
O O13 0.197950 0.697950 0.705343
O O14 0.931573 0.431573 0.396450
O O15 0.107327 0.392674 0.391151
#
# Coordination Sequence:
#
# PCOD9555616 Si02
#       6
#     8   8   8   8   8   8
#     4  11  19  35  53  80 113 143 183 235 282 334
#     4  10  23  38  56  88 122 148 191 243 288 340
#     4  12  23  36  61  87 115 153 197 237 291 346
#     4  10  20  36  58  82 110 149 190 232 286 342
#     4  10  22  39  56  82 118 152 191 237 285 349
#     4   9  18  35  58  84 115 149 189 236 287 344
#
# _framework density 19.425947000000001
#
# number of rings (size 3 to 8) (size 9 to 14) (size 15 to 20)
#    0.000    1.667    3.333    2.000    4.667    0.667 
#    0.000    1.667    0.000    0.500    0.000    0.000 
#    0.000    0.000    0.000    0.000    0.000    0.000 
#
# Total GULP energy -267485.090388 kJ/mol
# GULP energy per Si atom -5572.606050 kJ/mol
# Density = 1.938173 g / cm^3
# Si number density = 19.425947 Si / 1000 Ang^3
#
#
#
# Elastic Constant Matrix: (Units=GPa)
#
#
# Indices 1 2 3 4 5 6 
#
# 1 59.7839 15.2267 13.0328 0.0000 0.0000 0.0000
# 2 15.2267 59.7856 13.0338 0.0000 0.0000 0.0000
# 3 13.0328 13.0338 74.5631 0.0000 0.0000 0.0000
# 4 0.0000 0.0000 0.0000 23.9085 0.0000 0.0000
# 5 0.0000 0.0000 0.0000 0.0000 23.9086 0.0000
# 6 0.0000 0.0000 0.0000 0.0000 0.0000 24.3132
#
#
#
# Elastic Compliance Matrix: (Units=1/GPa)
#
#
# Indices 1 2 3 4 5 6 
#
# 1 0.018318 -0.004125 -0.002481 0.000000 0.000000 0.000000
# 2 -0.004125 0.018318 -0.002481 0.000000 0.000000 0.000000
# 3 -0.002481 -0.002481 0.014279 0.000000 0.000000 0.000000
# 4 0.000000 0.000000 0.000000 0.041826 0.000000 0.000000
# 5 0.000000 0.000000 0.000000 0.000000 0.041826 0.000000
# 6 0.000000 0.000000 0.000000 0.000000 0.000000 0.041130
#
#
# Mechanical properties :
#
#
# Convention : Reuss Voigt Hill
#
# Bulk Modulus (GPa) = 30.54197 30.74659 30.64428
# Shear Modulus (GPa) = 24.41599 24.61534 24.51567
#
# Velocity S-wave (km/s) = 3.54909 3.56355 3.55633
# Velocity P-wave (km/s) = 5.70536 5.72659 5.71598
#
# Compressibility (1/GPa) = 0.03274183
#
# Stress axis : x y z
#
# Youngs Moduli (GPa) = 54.59031 54.59165 70.03395
#
# Poissons Ratio (x) = 0.22517 0.17374
# Poissons Ratio (y) = 0.22516 0.17376
# Poissons Ratio (z) = 0.13543 0.13545
#
# Static dielectric constant tensor:
#      x y z
#    x 1.725350 0.000000 0.000000 
#    y 0.000000 1.725350 0.000000 
#    z 0.000000 0.000000 1.699220 
# 
# From -- ./inp_files/1824.got.cif
#   From: 2010.05.17/outbox.cif.g08.bks.cpg/sg113_cif.got.tgz:1824.got - 2010.05.20 11:03:00.
