data_PCOD9555450
_publ_section_title
;
Structure prediction by ZEFSAII (Michael W. Deem and Ramdas Pophale) SiO2 
 PCOD9555450
Probable space group: P -4 21 M 
;
_chemical_formula_sum "Si O2"
_cell_formula_units_Z 64
_cell_length_a 17.015700
_cell_length_b 17.015700
_cell_length_c 12.867788
_cell_angle_alpha 90.000000
_cell_angle_beta 90.000000
_cell_angle_gamma 90.000000
_cell_volume 3725.662729
_symmetry_space_group_name_H-M "P -4 21 M "
_symmetry_group_IT_number 113
_symmetry_cell_setting 'tetragonal'
loop_
_space_group_symop_operation_xyz
x,y,z
y,-x,-z
-x,-y,z
-y,x,-z
1/2+x,1/2-y,-z
1/2-x,1/2+y,-z
1/2-y,1/2-x,z
1/2+y,1/2+x,z
loop_
_atom_site_type_symbol
_atom_site_label
_atom_site_fract_x
_atom_site_fract_y
_atom_site_fract_z
Si Si1 0.503062 0.131466 0.911151
Si Si2 0.130644 0.498410 0.489623
Si Si3 0.119231 0.964551 0.007332
Si Si4 0.443480 0.811426 0.288513
Si Si5 0.261970 0.040346 0.104470
Si Si6 0.680803 0.311490 0.222629
Si Si7 0.316393 0.694521 0.970545
Si Si8 0.797345 0.433162 0.290021
O O1 0.433539 0.066462 0.916479
O O2 0.487782 0.180994 0.807411
O O3 0.583713 0.083713 0.909023
O O4 0.494041 0.185625 0.011448
O O5 0.072879 0.427122 0.455996
O O6 0.173008 0.472134 0.595120
O O7 0.189545 0.522110 0.397888
O O8 0.072233 0.572233 0.510141
O O9 0.177355 0.997489 0.094567
O O10 0.170279 0.904345 0.938255
O O11 0.042874 0.916034 0.045208
O O12 0.383337 0.883337 0.260668
O O13 0.516651 0.804847 0.209941
O O14 0.395116 0.730630 0.270851
O O15 0.242151 0.130286 0.078461
O O16 0.748634 0.248634 0.246157
O O17 0.679812 0.315908 0.096483
O O18 0.713456 0.392180 0.270231
O O19 0.279895 0.779895 0.950103
O O20 0.864436 0.364436 0.289207
#
# Coordination Sequence:
#
# PCOD9555450 Si02
#       8
#     8   8   8   8   8   8   8   8
#     4  10  19  28  42  71 109 143 173 207 255 310
#     4   9  18  32  50  73 101 133 169 211 262 320
#     4   9  19  33  49  69  95 132 176 216 250 297
#     4  10  20  32  48  74 106 142 175 207 253 315
#     4  11  19  29  47  72 105 138 172 211 255 309
#     4   9  16  29  49  74  96 123 173 221 254 292
#     4  10  18  30  49  73 101 130 169 217 258 300
#     4   9  16  30  51  72  95 129 174 220 259 297
#
# _framework density 17.178152000000001
#
# number of rings (size 3 to 8) (size 9 to 14) (size 15 to 20)
#    0.000    2.375    2.500    1.125    0.000    3.000 
#    0.000    1.250    0.000    3.000    0.000    5.250 
#    0.000    0.000    0.000    0.000    0.000    0.000 
#
# Total GULP energy -356317.377457 kJ/mol
# GULP energy per Si atom -5567.459023 kJ/mol
# Density = 1.713905 g / cm^3
# Si number density = 17.178152 Si / 1000 Ang^3
#
#
#
# Elastic Constant Matrix: (Units=GPa)
#
#
# Indices 1 2 3 4 5 6 
#
# 1 59.2324 28.6062 17.6771 0.0000 0.0000 0.0000
# 2 28.6062 59.2320 17.6766 0.0000 0.0000 0.0000
# 3 17.6771 17.6766 69.0188 0.0000 0.0000 0.0000
# 4 0.0000 0.0000 0.0000 16.9705 0.0000 0.0000
# 5 0.0000 0.0000 0.0000 0.0000 16.9705 0.0000
# 6 0.0000 0.0000 0.0000 0.0000 0.0000 28.5965
#
#
#
# Elastic Compliance Matrix: (Units=1/GPa)
#
#
# Indices 1 2 3 4 5 6 
#
# 1 0.022672 -0.009980 -0.003251 0.000000 0.000000 0.000000
# 2 -0.009980 0.022673 -0.003251 0.000000 0.000000 0.000000
# 3 -0.003251 -0.003251 0.016154 0.000000 0.000000 0.000000
# 4 0.000000 0.000000 0.000000 0.058926 0.000000 0.000000
# 5 0.000000 0.000000 0.000000 0.000000 0.058926 0.000000
# 6 0.000000 0.000000 0.000000 0.000000 0.000000 0.034969
#
#
# Mechanical properties :
#
#
# Convention : Reuss Voigt Hill
#
# Bulk Modulus (GPa) = 35.04292 35.04479 35.04385
# Shear Modulus (GPa) = 19.47080 20.74238 20.10659
#
# Velocity S-wave (km/s) = 3.37035 3.47866 3.42493
# Velocity P-wave (km/s) = 5.96571 6.04813 6.00706
#
# Compressibility (1/GPa) = 0.02853644
#
# Stress axis : x y z
#
# Youngs Moduli (GPa) = 44.10633 44.10625 61.90414
#
# Poissons Ratio (x) = 0.44016 0.20125
# Poissons Ratio (y) = 0.44016 0.20124
# Poissons Ratio (z) = 0.14339 0.14338
#
# Static dielectric constant tensor:
#      x y z
#    x 1.636170 0.000000 0.000000 
#    y 0.000000 1.636170 0.000000 
#    z 0.000000 0.000000 1.541750 
# 
# From -- ./inp_files/2037.got.cif
#   From: 2010.05.17/outbox.cif.g08.bks.cpg/sg113_cif.got.tgz:2037.got - 2010.05.20 11:03:00.
