data_PCOD9555723
_publ_section_title
;
Structure prediction by ZEFSAII (Michael W. Deem and Ramdas Pophale) SiO2 
 PCOD9555723
Probable space group: P -4 21 M 
;
_chemical_formula_sum "Si O2"
_cell_formula_units_Z 40
_cell_length_a 15.518826
_cell_length_b 15.518826
_cell_length_c 8.574057
_cell_angle_alpha 90.000000
_cell_angle_beta 90.000000
_cell_angle_gamma 90.000000
_cell_volume 2064.924104
_symmetry_space_group_name_H-M "P -4 21 M "
_symmetry_group_IT_number 113
_symmetry_cell_setting 'tetragonal'
loop_
_space_group_symop_operation_xyz
x,y,z
y,-x,-z
-x,-y,z
-y,x,-z
1/2+x,1/2-y,-z
1/2-x,1/2+y,-z
1/2-y,1/2-x,z
1/2+y,1/2+x,z
loop_
_atom_site_type_symbol
_atom_site_label
_atom_site_fract_x
_atom_site_fract_y
_atom_site_fract_z
Si Si1 0.794840 0.560868 0.759642
Si Si2 0.505366 0.685105 0.976970
Si Si3 0.701911 0.342629 0.240463
Si Si4 0.423886 0.561819 0.742228
Si Si5 0.253259 0.103372 0.429635
O O1 0.877502 0.622499 0.755973
O O2 0.711183 0.617595 0.707617
O O3 0.801732 0.477665 0.648877
O O4 0.769208 0.530673 0.935391
O O5 0.601938 0.693549 0.914618
O O6 0.458371 0.647579 0.826236
O O7 0.506620 0.614722 0.114277
O O8 0.769295 0.269295 0.202798
O O9 0.739300 0.397086 0.384575
O O10 0.500000 0.500000 0.676916
O O11 0.343722 0.591488 0.637558
O O12 0.309227 0.190774 0.395458
#
# Coordination Sequence:
#
# PCOD9555723 Si02
#       5
#     8   8   8   8   8
#     4  10  22  40  62  89 121 161 209 258 306 377
#     4  11  18  35  59  84 122 159 196 253 310 365
#     4  10  22  41  60  88 126 164 204 251 311 378
#     4  11  19  35  57  91 126 158 199 252 312 371
#     4  10  24  41  60  88 124 168 206 251 318 379
#
# _framework density 19.371172999999999
#
# number of rings (size 3 to 8) (size 9 to 14) (size 15 to 20)
#    0.000    1.600    4.000    1.200    2.800    4.400 
#    0.000    2.000    0.000    1.200    0.000    0.000 
#    0.000    0.000    0.000    0.000    0.000    0.000 
#
# Total GULP energy -222800.533004 kJ/mol
# GULP energy per Si atom -5570.013325 kJ/mol
# Density = 1.932708 g / cm^3
# Si number density = 19.371173 Si / 1000 Ang^3
#
#
#
# Elastic Constant Matrix: (Units=GPa)
#
#
# Indices 1 2 3 4 5 6 
#
# 1 94.9254 41.9243 37.3231 0.0000 0.0000 0.0000
# 2 41.9243 94.9228 37.3225 0.0000 0.0000 0.0000
# 3 37.3231 37.3225 48.6751 0.0000 0.0000 0.0000
# 4 0.0000 0.0000 0.0000 20.9777 0.0000 0.0000
# 5 0.0000 0.0000 0.0000 0.0000 20.9778 0.0000
# 6 0.0000 0.0000 0.0000 0.0000 0.0000 31.2908
#
#
#
# Elastic Compliance Matrix: (Units=1/GPa)
#
#
# Indices 1 2 3 4 5 6 
#
# 1 0.015714 -0.003154 -0.009631 0.000000 0.000000 0.000000
# 2 -0.003154 0.015715 -0.009631 0.000000 0.000000 0.000000
# 3 -0.009631 -0.009631 0.035315 0.000000 0.000000 0.000000
# 4 0.000000 0.000000 0.000000 0.047670 0.000000 0.000000
# 5 0.000000 0.000000 0.000000 0.000000 0.047669 0.000000
# 6 0.000000 0.000000 0.000000 0.000000 0.000000 0.031958
#
#
# Mechanical properties :
#
#
# Convention : Reuss Voigt Hill
#
# Bulk Modulus (GPa) = 45.63943 52.40701 49.02322
# Shear Modulus (GPa) = 20.31057 22.77947 21.54502
#
# Velocity S-wave (km/s) = 3.24156 3.43293 3.33862
# Velocity P-wave (km/s) = 6.13367 6.54417 6.34224
#
# Compressibility (1/GPa) = 0.02191088
#
# Stress axis : x y z
#
# Youngs Moduli (GPa) = 63.63647 63.63489 28.31693
#
# Poissons Ratio (x) = 0.20068 0.27273
# Poissons Ratio (y) = 0.20068 0.27273
# Poissons Ratio (z) = 0.61291 0.61289
#
# Static dielectric constant tensor:
#      x y z
#    x 1.729570 0.000000 0.000000 
#    y 0.000000 1.729570 0.000000 
#    z 0.000000 0.000000 1.670250 
# 
# From -- ./inp_files/1011.got.cif
#   From: 2010.05.17/outbox.cif.g08.bks.cpg/sg113_cif.got.tgz:1011.got - 2010.05.20 11:03:00.
