data_PCOD9555816
_publ_section_title
;
Structure prediction by ZEFSAII (Michael W. Deem and Ramdas Pophale) SiO2 
 PCOD9555816
Probable space group: P -4 21 C
;
_chemical_formula_sum "Si O2"
_cell_formula_units_Z 56
_cell_length_a 23.470611
_cell_length_b 23.470611
_cell_length_c 5.533150
_cell_angle_alpha 90.000000
_cell_angle_beta 90.000000
_cell_angle_gamma 90.000000
_cell_volume 3048.044021
_symmetry_space_group_name_H-M "P -4 21 C"
_symmetry_group_IT_number 114
_symmetry_cell_setting 'tetragonal'
loop_
_space_group_symop_operation_xyz
x,y,z
y,-x,-z
-x,-y,z
-y,x,-z
1/2+x,1/2-y,1/2-z
1/2-x,1/2+y,1/2-z
1/2-y,1/2-x,1/2+z
1/2+y,1/2+x,1/2+z
loop_
_atom_site_type_symbol
_atom_site_label
_atom_site_fract_x
_atom_site_fract_y
_atom_site_fract_z
Si Si1 0.288522 0.229467 0.424058
Si Si2 0.651089 0.648975 0.435003
Si Si3 0.546674 0.272827 0.052087
Si Si4 0.788457 0.668349 0.931696
Si Si5 0.986858 0.082275 0.889745
Si Si6 0.790908 0.027361 0.052776
Si Si7 0.606530 0.392527 0.060234
O O1 0.301988 0.199130 0.674888
O O2 0.317815 0.291133 0.421022
O O3 0.220066 0.242389 0.428288
O O4 0.695796 0.595865 0.436932
O O5 0.621116 0.642933 0.696094
O O6 0.614097 0.640347 0.190251
O O7 0.607787 0.242186 0.055465
O O8 0.515573 0.260107 0.302342
O O9 0.560143 0.341261 0.050449
O O10 0.514129 0.260729 0.804445
O O11 0.821558 0.675843 0.677762
O O12 0.998543 0.147404 0.951174
O O13 0.952850 0.079822 0.637816
O O14 0.948525 0.047593 0.082488
#
# Coordination Sequence:
#
# PCOD9555816 Si02
#       7
#     8   8   8   8   8   8   8
#     4  10  16  24  42  67  84 100 118 136 166 248
#     4  10  18  32  45  61  83 102 118 148 214 256
#     4  10  18  32  45  61  83 102 118 148 214 256
#     4  10  16  24  42  67  84 100 118 136 166 248
#     4  11  22  38  50  62  74  96 152 202 232 264
#     4  10  19  33  45  57  75 103 123 168 221 254
#     4  10  19  33  45  57  75 103 123 168 221 254
#
# _framework density 18.372440000000001
#
# number of rings (size 3 to 8) (size 9 to 14) (size 15 to 20)
#    0.000    1.857    2.857    8.571    0.000    1.143 
#    0.000    0.000    0.000    0.000    0.000    0.000 
#    0.000    0.000    0.000    0.000    0.000    0.000 
#
# Total GULP energy -312457.836294 kJ/mol
# GULP energy per Si atom -5579.604220 kJ/mol
# Density = 1.833062 g / cm^3
# Si number density = 18.372440 Si / 1000 Ang^3
#
#
#
# Elastic Constant Matrix: (Units=GPa)
#
#
# Indices 1 2 3 4 5 6 
#
# 1 13.5026 13.2210 20.6148 0.0000 0.0000 0.0000
# 2 13.2210 13.5026 20.6148 0.0000 0.0000 0.0000
# 3 20.6148 20.6148 203.3008 0.0000 0.0000 0.0000
# 4 0.0000 0.0000 0.0000 21.3096 0.0000 0.0000
# 5 0.0000 0.0000 0.0000 0.0000 21.3096 0.0000
# 6 0.0000 0.0000 0.0000 0.0000 0.0000 20.1756
#
#
#
# Elastic Compliance Matrix: (Units=1/GPa)
#
#
# Indices 1 2 3 4 5 6 
#
# 1 1.798198 -1.753839 -0.004498 0.000000 0.000000 0.000000
# 2 -1.753839 1.798198 -0.004498 0.000000 0.000000 0.000000
# 3 -0.004498 -0.004498 0.005831 0.000000 0.000000 0.000000
# 4 0.000000 0.000000 0.000000 0.046927 0.000000 0.000000
# 5 0.000000 0.000000 0.000000 0.000000 0.046927 0.000000
# 6 0.000000 0.000000 0.000000 0.000000 0.000000 0.049565
#
#
# Mechanical properties :
#
#
# Convention : Reuss Voigt Hill
#
# Bulk Modulus (GPa) = 13.06194 37.68969 25.37581
# Shear Modulus (GPa) = 0.68523 24.28263 12.48393
#
# Velocity S-wave (km/s) = 0.61137 3.63945 2.60954
# Velocity P-wave (km/s) = 2.76104 6.18220 4.78763
#
# Compressibility (1/GPa) = 0.07655832
#
# Stress axis : x y z
#
# Youngs Moduli (GPa) = 0.55611 0.55611 171.49589
#
# Poissons Ratio (x) = 0.97533 0.77141
# Poissons Ratio (y) = 0.97533 0.77141
# Poissons Ratio (z) = 0.00250 0.00250
#
# Static dielectric constant tensor:
#      x y z
#    x 1.649360 0.000000 0.000000 
#    y 0.000000 1.649360 0.000000 
#    z 0.000000 0.000000 1.801630 
# 
# From -- ./inp_files/274.got.cif
#   From: 2010.05.17/outbox.cif.g08.bks.cpg/sg114_1_cif.got.tgz:274.got - 2010.05.20 11:04:54.
