data_PCOD9555600
_publ_section_title
;
Structure prediction by ZEFSAII (Michael W. Deem and Ramdas Pophale) SiO2 
 PCOD9555600
Probable space group: P -4 21 M 
;
_chemical_formula_sum "Si O2"
_cell_formula_units_Z 18
_cell_length_a 9.487469
_cell_length_b 9.487469
_cell_length_c 11.147220
_cell_angle_alpha 90.000000
_cell_angle_beta 90.000000
_cell_angle_gamma 90.000000
_cell_volume 1003.384325
_symmetry_space_group_name_H-M "P -4 21 M "
_symmetry_group_IT_number 113
_symmetry_cell_setting 'tetragonal'
loop_
_space_group_symop_operation_xyz
x,y,z
y,-x,-z
-x,-y,z
-y,x,-z
1/2+x,1/2-y,-z
1/2-x,1/2+y,-z
1/2-y,1/2-x,z
1/2+y,1/2+x,z
loop_
_atom_site_type_symbol
_atom_site_label
_atom_site_fract_x
_atom_site_fract_y
_atom_site_fract_z
Si Si1 0.000000 0.000000 0.000000
Si Si2 0.765072 0.499811 0.824306
Si Si3 0.701754 0.429134 0.550410
O O1 0.136911 0.994167 0.084259
O O2 0.869521 0.369521 0.852331
O O3 0.711704 0.476241 0.688452
O O4 0.859914 0.640087 0.828203
O O5 0.567330 0.328236 0.528485
O O6 0.842688 0.342688 0.520339
#
# Coordination Sequence:
#
# PCOD9555600 Si02
#       3
#     2   8   8
#     4  12  20  36  62  80 100 140 192 222 252 320
#     4  10  22  38  55  79 111 142 174 221 273 312
#     4  10  20  35  55  80 109 141 177 217 265 318
#
# _framework density 17.939288999999999
#
# number of rings (size 3 to 8) (size 9 to 14) (size 15 to 20)
#    0.000    1.778    0.000    5.333    0.000    2.667 
#    0.000    2.222    0.000    5.333    0.000    0.000 
#    0.000    0.000    0.000    0.000    0.000    0.000 
#
# Total GULP energy -100543.235297 kJ/mol
# GULP energy per Si atom -5585.735294 kJ/mol
# Density = 1.789846 g / cm^3
# Si number density = 17.939289 Si / 1000 Ang^3
#
#
#
# Elastic Constant Matrix: (Units=GPa)
#
#
# Indices 1 2 3 4 5 6 
#
# 1 132.7613 79.0859 96.7952 0.0000 0.0000 0.0000
# 2 79.0859 132.7602 96.7949 0.0000 0.0000 0.0000
# 3 96.7952 96.7949 114.0186 0.0000 0.0000 0.0000
# 4 0.0000 0.0000 0.0000 16.2514 0.0000 0.0000
# 5 0.0000 0.0000 0.0000 0.0000 16.2222 0.0000
# 6 0.0000 0.0000 0.0000 0.0000 0.0000 35.1003
#
#
#
# Elastic Compliance Matrix: (Units=1/GPa)
#
#
# Indices 1 2 3 4 5 6 
#
# 1 0.019842 0.001211 -0.017872 0.000000 0.000000 0.000000
# 2 0.001211 0.019842 -0.017872 0.000000 0.000000 0.000000
# 3 -0.017872 -0.017872 0.039116 0.000000 0.000000 0.000000
# 4 0.000000 0.000000 0.000000 0.061533 0.000000 0.000000
# 5 0.000000 0.000000 0.000000 0.000000 0.061644 0.000000
# 6 0.000000 0.000000 0.000000 0.000000 0.000000 0.028490
#
#
# Mechanical properties :
#
#
# Convention : Reuss Voigt Hill
#
# Bulk Modulus (GPa) = 102.76128 102.76578 102.76353
# Shear Modulus (GPa) = 16.51379 20.63906 18.57642
#
# Velocity S-wave (km/s) = 3.03733 3.39557 3.22143
# Velocity P-wave (km/s) = 8.34911 8.53129 8.44069
#
# Compressibility (1/GPa) = 0.00973129
#
# Stress axis : x y z
#
# Youngs Moduli (GPa) = 50.39941 50.39872 25.56520
#
# Poissons Ratio (x) = -0.06103 0.45691
# Poissons Ratio (y) = -0.06103 0.45691
# Poissons Ratio (z) = 0.90075 0.90075
#
# Static dielectric constant tensor:
#      x y z
#    x 1.619950 0.000000 0.000000 
#    y 0.000000 1.619960 0.000000 
#    z 0.000000 0.000000 1.571760 
# 
# From -- ./inp_files/1419.got.cif
#   From: 2010.05.17/outbox.cif.g08.bks.cpg/sg113_cif.got.tgz:1419.got - 2010.05.20 11:03:00.
