data_PCOD9555930
_publ_section_title
;
Structure prediction by ZEFSAII (Michael W. Deem and Ramdas Pophale) SiO2 
 PCOD9555930
Probable space group: P -4 21 C
;
_chemical_formula_sum "Si O2"
_cell_formula_units_Z 48
_cell_length_a 8.824098
_cell_length_b 8.824098
_cell_length_c 30.201921
_cell_angle_alpha 90.000000
_cell_angle_beta 90.000000
_cell_angle_gamma 90.000000
_cell_volume 2351.663685
_symmetry_space_group_name_H-M "P -4 21 C"
_symmetry_group_IT_number 114
_symmetry_cell_setting 'tetragonal'
loop_
_space_group_symop_operation_xyz
x,y,z
y,-x,-z
-x,-y,z
-y,x,-z
1/2+x,1/2-y,1/2-z
1/2-x,1/2+y,1/2-z
1/2-y,1/2-x,1/2+z
1/2+y,1/2+x,1/2+z
loop_
_atom_site_type_symbol
_atom_site_label
_atom_site_fract_x
_atom_site_fract_y
_atom_site_fract_z
Si Si1 0.000000 0.500000 0.928694
Si Si2 0.500000 0.500000 0.190021
Si Si3 0.246970 0.210801 0.273208
Si Si4 0.723410 0.068041 0.146429
Si Si5 0.500000 0.000000 0.815475
Si Si6 0.500000 0.500000 0.602311
Si Si7 0.785144 0.758570 0.670460
Si Si8 0.066637 0.795048 0.975141
O O1 0.906119 0.605232 0.893674
O O2 0.917220 0.379116 0.961080
O O3 0.613266 0.409384 0.221305
O O4 0.592574 0.617735 0.160332
O O5 0.202884 0.341814 0.308318
O O6 0.255504 0.271743 0.223942
O O7 0.397726 0.117785 0.287012
O O8 0.893213 0.106735 0.130818
O O9 0.729391 0.886819 0.154444
O O10 0.608128 0.116682 0.841834
O O11 0.588746 0.612444 0.570187
O O12 0.891474 0.829896 0.990670
#
# Coordination Sequence:
#
# PCOD9555930 Si02
#       8
#     4   4   8   8   4   4   8   8
#     4  10  20  33  62  95 114 140 184 236 288 331
#     4  10  22  35  46  66 101 132 177 240 300 332
#     4  11  22  36  52  74 105 151 199 243 288 331
#     4  11  20  34  58  83 111 145 197 246 275 326
#     4  10  22  35  50  69  98 140 190 238 286 337
#     4   8  17  31  54  86 105 130 178 232 273 302
#     4  11  22  36  52  74 105 151 199 243 288 331
#     4   8  16  35  62  86 113 139 169 216 273 348
#
# _framework density 20.411079999999998
#
# number of rings (size 3 to 8) (size 9 to 14) (size 15 to 20)
#    0.000    2.167    0.000    5.000    0.000    2.667 
#    0.000    0.000    0.000   70.500    0.000    0.000 
#    0.000    0.000    0.000    0.000    0.000    0.000 
#
# Total GULP energy -267456.125123 kJ/mol
# GULP energy per Si atom -5572.002607 kJ/mol
# Density = 2.036462 g / cm^3
# Si number density = 20.411080 Si / 1000 Ang^3
#
#
#
# Elastic Constant Matrix: (Units=GPa)
#
#
# Indices 1 2 3 4 5 6 
#
# 1 121.8837 31.8231 22.8634 0.0000 0.0000 0.0000
# 2 31.8231 121.8837 22.8634 0.0000 0.0000 0.0000
# 3 22.8634 22.8634 76.7647 0.0000 0.0000 0.0000
# 4 0.0000 0.0000 0.0000 9.8005 0.0000 0.0000
# 5 0.0000 0.0000 0.0000 0.0000 9.8005 0.0000
# 6 0.0000 0.0000 0.0000 0.0000 0.0000 34.5377
#
#
#
# Elastic Compliance Matrix: (Units=1/GPa)
#
#
# Indices 1 2 3 4 5 6 
#
# 1 0.009121 -0.001983 -0.002126 0.000000 0.000000 0.000000
# 2 -0.001983 0.009121 -0.002126 0.000000 0.000000 0.000000
# 3 -0.002126 -0.002126 0.014293 0.000000 0.000000 0.000000
# 4 0.000000 0.000000 0.000000 0.102035 0.000000 0.000000
# 5 0.000000 0.000000 0.000000 0.000000 0.102035 0.000000
# 6 0.000000 0.000000 0.000000 0.000000 0.000000 0.028954
#
#
# Mechanical properties :
#
#
# Convention : Reuss Voigt Hill
#
# Bulk Modulus (GPa) = 49.83621 52.84798 51.34210
# Shear Modulus (GPa) = 17.56124 27.02656 22.29390
#
# Velocity S-wave (km/s) = 2.93640 3.64278 3.30850
# Velocity P-wave (km/s) = 5.99716 6.60615 6.30900
#
# Compressibility (1/GPa) = 0.02006573
#
# Stress axis : x y z
#
# Youngs Moduli (GPa) = 109.63693 109.63693 69.96299
#
# Poissons Ratio (x) = 0.21737 0.14875
# Poissons Ratio (y) = 0.21737 0.14875
# Poissons Ratio (z) = 0.23310 0.23310
#
# Static dielectric constant tensor:
#      x y z
#    x 1.812710 0.000000 0.000000 
#    y 0.000000 1.812710 0.000000 
#    z 0.000000 0.000000 1.742090 
# 
# From -- ./inp_files/4051.got.cif
#   From: 2010.05.17/outbox.cif.g08.bks.cpg/sg114_3_cif.got.tgz:4051.got - 2010.05.20 11:04:54.
