data_PCOD9555428
_publ_section_title
;
Structure prediction by ZEFSAII (Michael W. Deem and Ramdas Pophale) SiO2 
 PCOD9555428
Probable space group: P -4 2 C
;
_chemical_formula_sum "Si O2"
_cell_formula_units_Z 40
_cell_length_a 7.688877
_cell_length_b 7.688877
_cell_length_c 31.445860
_cell_angle_alpha 90.000000
_cell_angle_beta 90.000000
_cell_angle_gamma 90.000000
_cell_volume 1859.042436
_symmetry_space_group_name_H-M "P -4 2 C"
_symmetry_group_IT_number 112
_symmetry_cell_setting 'tetragonal'
loop_
_space_group_symop_operation_xyz
x,y,z
y,-x,-z
-x,-y,z
-y,x,-z
x,-y,1/2-z
-x,y,1/2-z
-y,-x,1/2+z
y,x,1/2+z
loop_
_atom_site_type_symbol
_atom_site_label
_atom_site_fract_x
_atom_site_fract_y
_atom_site_fract_z
Si Si1 0.793952 0.693729 0.546419
Si Si2 0.799372 0.286513 0.862443
Si Si3 0.713487 0.799373 0.362443
Si Si4 0.500000 0.712598 0.798635
Si Si5 0.306271 0.206048 0.453581
O O1 0.732751 0.775000 0.590913
O O2 0.773040 0.773039 0.500000
O O3 0.718781 0.500000 0.543310
O O4 0.000000 0.681628 0.553489
O O5 0.798032 0.500000 0.864539
O O6 0.669929 0.233637 0.825199
O O7 1.000000 0.233786 0.855359
O O8 0.766363 0.669929 0.325199
O O9 0.775000 0.732751 0.409087
O O10 0.500000 0.500000 0.798080
O O11 0.500000 0.771755 0.750000
#
# Coordination Sequence:
#
# PCOD9555428 Si02
#       5
#     8   8   8   8   8
#     4   9  18  30  44  65  91 121 156 192 235 291
#     4   8  15  27  39  56  88 120 151 200 249 292
#     4   8  15  27  39  56  88 120 151 200 249 292
#     4   9  16  24  38  60  85 121 167 203 239 298
#     4   9  18  30  44  65  91 121 156 192 235 291
#
# _framework density 21.516454
#
# number of rings (size 3 to 8) (size 9 to 14) (size 15 to 20)
#    0.000    3.400    0.000    2.400    2.800    1.600 
#    0.000    4.000    0.000    0.000    0.000    0.000 
#    0.000    3.200    0.000    8.800    0.000    8.800 
#
# Total GULP energy -222796.346257 kJ/mol
# GULP energy per Si atom -5569.908656 kJ/mol
# Density = 2.146748 g / cm^3
# Si number density = 21.516454 Si / 1000 Ang^3
#
#
#
# Elastic Constant Matrix: (Units=GPa)
#
#
# Indices 1 2 3 4 5 6 
#
# 1 59.4179 9.8825 54.4311 0.0000 0.0000 0.0000
# 2 9.8825 59.4179 54.4311 0.0000 0.0000 0.0000
# 3 54.4311 54.4311 259.8818 0.0000 0.0000 0.0000
# 4 0.0000 0.0000 0.0000 67.4541 0.0000 0.0000
# 5 0.0000 0.0000 0.0000 0.0000 67.4541 0.0000
# 6 0.0000 0.0000 0.0000 0.0000 0.0000 83.4785
#
#
#
# Elastic Compliance Matrix: (Units=1/GPa)
#
#
# Indices 1 2 3 4 5 6 
#
# 1 0.020847 0.000659 -0.004504 0.000000 0.000000 0.000000
# 2 0.000659 0.020847 -0.004504 0.000000 0.000000 0.000000
# 3 -0.004504 -0.004504 0.005735 0.000000 0.000000 0.000000
# 4 0.000000 0.000000 0.000000 0.014825 0.000000 0.000000
# 5 0.000000 0.000000 0.000000 0.000000 0.014825 0.000000
# 6 0.000000 0.000000 0.000000 0.000000 0.000000 0.011979
#
#
# Mechanical properties :
#
#
# Convention : Reuss Voigt Hill
#
# Bulk Modulus (GPa) = 32.54279 68.46745 50.50512
# Shear Modulus (GPa) = 43.10395 61.00887 52.05641
#
# Velocity S-wave (km/s) = 4.48068 5.33067 4.92405
# Velocity P-wave (km/s) = 6.47504 8.35333 7.47343
#
# Compressibility (1/GPa) = 0.03072877
#
# Stress axis : x y z
#
# Youngs Moduli (GPa) = 47.96956 47.96956 174.37744
#
# Poissons Ratio (x) = -0.03161 0.78544
# Poissons Ratio (y) = -0.03161 0.78544
# Poissons Ratio (z) = 0.21607 0.21607
#
# Static dielectric constant tensor:
#      x y z
#    x 1.869290 0.000000 0.000000 
#    y 0.000000 1.869290 0.000000 
#    z 0.000000 0.000000 1.808130 
# 
# From -- ./inp_files/6130.got.cif
#   From: 2010.05.17/outbox.cif.g08.bks.cpg/sg112_4_cif.got.tgz:6130.got - 2010.05.20 10:59:04.
