data_PCOD9555258
_publ_section_title
;
Structure prediction by ZEFSAII (Michael W. Deem and Ramdas Pophale) SiO2 
 PCOD9555258
Probable space group: P -4 2 C
;
_chemical_formula_sum "Si O2"
_cell_formula_units_Z 48
_cell_length_a 8.296491
_cell_length_b 8.296491
_cell_length_c 30.812557
_cell_angle_alpha 90.000000
_cell_angle_beta 90.000000
_cell_angle_gamma 90.000000
_cell_volume 2120.882618
_symmetry_space_group_name_H-M "P -4 2 C"
_symmetry_group_IT_number 112
_symmetry_cell_setting 'tetragonal'
loop_
_space_group_symop_operation_xyz
x,y,z
y,-x,-z
-x,-y,z
-y,x,-z
x,-y,1/2-z
-x,y,1/2-z
-y,-x,1/2+z
y,x,1/2+z
loop_
_atom_site_type_symbol
_atom_site_label
_atom_site_fract_x
_atom_site_fract_y
_atom_site_fract_z
Si Si1 0.431066 0.325670 0.379060
Si Si2 0.000000 0.500000 0.750000
Si Si3 0.122805 0.264694 0.613772
Si Si4 0.829926 0.279529 0.546833
Si Si5 0.732619 0.237153 0.202087
Si Si6 0.328031 0.937304 0.950948
Si Si7 0.000000 0.000000 0.682331
Si Si8 0.500000 0.500000 0.750000
O O1 0.500000 0.500000 0.369603
O O2 0.570512 0.196789 0.368606
O O3 0.376903 0.309590 0.428732
O O4 0.281244 0.282473 0.348467
O O5 0.901858 0.616325 0.781162
O O6 0.980466 0.298248 0.579384
O O7 0.070555 0.140802 0.651137
O O8 0.259187 0.183373 0.584186
O O9 0.789081 0.090961 0.544541
O O10 0.862276 0.341661 0.498820
O O11 0.909696 0.150785 0.206771
O O12 0.632165 0.387330 0.224420
O O13 0.500000 0.000000 0.936510
#
# Coordination Sequence:
#
# PCOD9555258 Si02
#       8
#     8   2   8   8   8   8   4   2
#     4  12  25  45  72 103 142 189 239 296 364 440
#     4  10  24  44  80 106 144 192 236 278 364 456
#     4  12  23  41  69 101 140 189 245 296 358 418
#     4  12  24  42  65  98 134 193 248 298 360 425
#     4  11  23  46  78 111 145 189 238 293 363 449
#     4  12  24  41  61  93 141 186 244 314 360 412
#     4  12  24  41  79 114 148 188 250 300 356 434
#     4  10  24  50  84 112 148 198 236 298 392 452
#
# _framework density 22.632085
#
# number of rings (size 3 to 8) (size 9 to 14) (size 15 to 20)
#    0.000    0.333    5.833    3.500    0.000    0.333 
#    0.000    0.000    3.667    0.000    0.000    0.000 
#    0.000    0.000    0.000    0.000    0.000    0.000 
#
# Total GULP energy -268112.348790 kJ/mol
# GULP energy per Si atom -5585.673933 kJ/mol
# Density = 2.258057 g / cm^3
# Si number density = 22.632085 Si / 1000 Ang^3
#
#
#
# Elastic Constant Matrix: (Units=GPa)
#
#
# Indices 1 2 3 4 5 6 
#
# 1 93.4186 20.2488 37.6412 0.0000 0.0000 0.0000
# 2 20.2488 93.4186 37.6412 0.0000 0.0000 0.0000
# 3 37.6412 37.6412 82.9156 0.0000 0.0000 0.0000
# 4 0.0000 0.0000 0.0000 2.8777 0.0000 0.0000
# 5 0.0000 0.0000 0.0000 0.0000 2.8777 0.0000
# 6 0.0000 0.0000 0.0000 0.0000 0.0000 41.2825
#
#
#
# Elastic Compliance Matrix: (Units=1/GPa)
#
#
# Indices 1 2 3 4 5 6 
#
# 1 0.013123 -0.000543 -0.005711 0.000000 0.000000 0.000000
# 2 -0.000543 0.013123 -0.005711 0.000000 0.000000 0.000000
# 3 -0.005711 -0.005711 0.017246 0.000000 0.000000 0.000000
# 4 0.000000 0.000000 0.000000 0.347500 0.000000 0.000000
# 5 0.000000 0.000000 0.000000 0.000000 0.347500 0.000000
# 6 0.000000 0.000000 0.000000 0.000000 0.000000 0.024223
#
#
# Mechanical properties :
#
#
# Convention : Reuss Voigt Hill
#
# Bulk Modulus (GPa) = 51.11987 51.20168 51.16078
# Shear Modulus (GPa) = 6.30384 21.02236 13.66310
#
# Velocity S-wave (km/s) = 1.67075 3.05105 2.45971
# Velocity P-wave (km/s) = 5.13403 5.92322 5.54269
#
# Compressibility (1/GPa) = 0.01956186
#
# Stress axis : x y z
#
# Youngs Moduli (GPa) = 76.19977 76.19977 57.98576
#
# Poissons Ratio (x) = 0.04141 0.33115
# Poissons Ratio (y) = 0.04141 0.33115
# Poissons Ratio (z) = 0.43517 0.43517
#
# Static dielectric constant tensor:
#      x y z
#    x 1.906850 0.000000 0.000000 
#    y 0.000000 1.906850 0.000000 
#    z 0.000000 0.000000 1.843820 
# 
# From -- ./inp_files/6379.got.cif
#   From: 2010.05.17/outbox.cif.g08.bks.cpg/sg112_4_cif.got.tgz:6379.got - 2010.05.20 10:59:04.
