data_PCOD9555364
_publ_section_title
;
Structure prediction by ZEFSAII (Michael W. Deem and Ramdas Pophale) SiO2 
 PCOD9555364
Probable space group: P -4 2 C
;
_chemical_formula_sum "Si O2"
_cell_formula_units_Z 18
_cell_length_a 8.299821
_cell_length_b 8.299821
_cell_length_c 10.192702
_cell_angle_alpha 90.000000
_cell_angle_beta 90.000000
_cell_angle_gamma 90.000000
_cell_volume 702.144955
_symmetry_space_group_name_H-M "P -4 2 C"
_symmetry_group_IT_number 112
_symmetry_cell_setting 'tetragonal'
loop_
_space_group_symop_operation_xyz
x,y,z
y,-x,-z
-x,-y,z
-y,x,-z
x,-y,1/2-z
-x,y,1/2-z
-y,-x,1/2+z
y,x,1/2+z
loop_
_atom_site_type_symbol
_atom_site_label
_atom_site_fract_x
_atom_site_fract_y
_atom_site_fract_z
Si Si1 0.180859 0.315549 0.797753
Si Si2 0.400043 0.834989 0.908090
Si Si3 0.500000 0.500000 0.500000
O O1 0.223813 0.500000 0.750000
O O2 0.290514 0.191514 0.718249
O O3 0.000000 0.291652 0.750000
O O4 0.169415 0.304263 0.954484
O O5 0.499682 0.666409 0.919204
O O6 0.500000 0.000000 0.908482
#
# Coordination Sequence:
#
# PCOD9555364 Si02
#       3
#     8   8   2
#     4  11  23  51  82 126 184 232 303 392 452 555
#     4  12  25  48  87 129 172 242 300 369 472 539
#     4  12  24  46  80 118 176 218 296 374 428 534
#
# _framework density 25.635729999999999
#
# number of rings (size 3 to 8) (size 9 to 14) (size 15 to 20)
#    0.000    0.444    8.889    0.000    0.000    3.556 
#    8.000    4.444    0.000   56.000    0.000    0.000 
#    0.000    0.000    0.000    0.000    0.000    0.000 
#
# Total GULP energy -100884.341716 kJ/mol
# GULP energy per Si atom -5604.685651 kJ/mol
# Density = 2.557738 g / cm^3
# Si number density = 25.635730 Si / 1000 Ang^3
#
#
#
# Elastic Constant Matrix: (Units=GPa)
#
#
# Indices 1 2 3 4 5 6 
#
# 1 180.4201 88.3149 74.9790 0.0000 0.0000 0.0000
# 2 88.3149 180.4201 74.9790 0.0000 0.0000 0.0000
# 3 74.9790 74.9790 258.7804 0.0000 0.0000 0.0000
# 4 0.0000 0.0000 0.0000 44.9626 0.0000 0.0000
# 5 0.0000 0.0000 0.0000 0.0000 44.9626 0.0000
# 6 0.0000 0.0000 0.0000 0.0000 0.0000 52.3604
#
#
#
# Elastic Compliance Matrix: (Units=1/GPa)
#
#
# Indices 1 2 3 4 5 6 
#
# 1 0.007648 -0.003209 -0.001286 0.000000 0.000000 0.000000
# 2 -0.003209 0.007648 -0.001286 0.000000 0.000000 0.000000
# 3 -0.001286 -0.001286 0.004610 0.000000 0.000000 0.000000
# 4 0.000000 0.000000 0.000000 0.022241 0.000000 0.000000
# 5 0.000000 0.000000 0.000000 0.000000 0.022241 0.000000
# 6 0.000000 0.000000 0.000000 0.000000 0.000000 0.019098
#
#
# Mechanical properties :
#
#
# Convention : Reuss Voigt Hill
#
# Bulk Modulus (GPa) = 119.86445 121.79625 120.83035
# Shear Modulus (GPa) = 51.10961 53.88031 52.49496
#
# Velocity S-wave (km/s) = 4.46992 4.58948 4.53009
# Velocity P-wave (km/s) = 8.57313 8.70045 8.63702
#
# Compressibility (1/GPa) = 0.00834276
#
# Stress axis : x y z
#
# Youngs Moduli (GPa) = 130.75351 130.75351 216.94114
#
# Poissons Ratio (x) = 0.41961 0.27901
# Poissons Ratio (y) = 0.41961 0.27901
# Poissons Ratio (z) = 0.16816 0.16816
#
# Static dielectric constant tensor:
#      x y z
#    x 2.049360 0.000000 0.000000 
#    y 0.000000 2.049360 0.000000 
#    z 0.000000 0.000000 2.001400 
# 
# From -- ./inp_files/1774.got.cif
#   From: 2010.05.17/outbox.cif.g08.bks.cpg/sg112_1_cif.got.tgz:1774.got - 2010.05.20 10:59:04.
