data_PCOD9555444
_publ_section_title
;
Structure prediction by ZEFSAII (Michael W. Deem and Ramdas Pophale) SiO2 
 PCOD9555444
Probable space group: P -4 21 M 
;
_chemical_formula_sum "Si O2"
_cell_formula_units_Z 48
_cell_length_a 11.865553
_cell_length_b 11.865553
_cell_length_c 17.581374
_cell_angle_alpha 90.000000
_cell_angle_beta 90.000000
_cell_angle_gamma 90.000000
_cell_volume 2475.305345
_symmetry_space_group_name_H-M "P -4 21 M "
_symmetry_group_IT_number 113
_symmetry_cell_setting 'tetragonal'
loop_
_space_group_symop_operation_xyz
x,y,z
y,-x,-z
-x,-y,z
-y,x,-z
1/2+x,1/2-y,-z
1/2-x,1/2+y,-z
1/2-y,1/2-x,z
1/2+y,1/2+x,z
loop_
_atom_site_type_symbol
_atom_site_label
_atom_site_fract_x
_atom_site_fract_y
_atom_site_fract_z
Si Si1 0.041882 0.721881 0.338279
Si Si2 0.654634 0.334966 0.933208
Si Si3 0.378206 0.439613 0.898459
Si Si4 0.277381 0.044130 0.837583
Si Si5 0.390901 0.709462 0.406105
Si Si6 0.846995 0.165627 0.579616
O O1 0.106925 0.606925 0.365797
O O2 0.012774 0.704798 0.250012
O O3 0.135915 0.819022 0.347082
O O4 0.934285 0.773536 0.381537
O O5 0.760705 0.260705 0.948216
O O6 0.694712 0.448424 0.890200
O O7 0.562601 0.261612 0.887011
O O8 0.604652 0.364509 0.015860
O O9 0.500000 0.500000 0.889827
O O10 0.374146 0.332114 0.844902
O O11 0.386733 0.113267 0.864561
O O12 0.336016 0.836016 0.404851
O O13 0.523528 0.685143 0.396052
O O14 0.359806 0.659309 0.489440
O O15 0.780193 0.280193 0.594086
#
# Coordination Sequence:
#
# PCOD9555444 Si02
#       6
#     8   8   8   8   8   8
#     4  10  22  39  60  87 117 154 200 246 295 351
#     4  11  20  32  54  82 112 146 188 233 283 342
#     4  10  17  34  55  79 107 148 192 229 274 333
#     4  10  21  38  59  83 114 151 189 234 287 344
#     4  10  21  37  58  87 118 154 201 246 294 357
#     4  11  22  36  59  87 119 160 197 241 303 359
#
# _framework density 19.391548
#
# number of rings (size 3 to 8) (size 9 to 14) (size 15 to 20)
#    0.000    1.667    5.000    1.000    0.000    5.667 
#    0.000    3.333    0.000    1.500    0.000    2.333 
#    0.000    0.000    0.000    0.000    0.000    0.000 
#
# Total GULP energy -267202.738866 kJ/mol
# GULP energy per Si atom -5566.723726 kJ/mol
# Density = 1.934741 g / cm^3
# Si number density = 19.391548 Si / 1000 Ang^3
#
#
#
# Elastic Constant Matrix: (Units=GPa)
#
#
# Indices 1 2 3 4 5 6 
#
# 1 41.6629 40.7892 -7.4099 0.0000 0.0000 0.0000
# 2 40.7892 41.6650 -7.4109 0.0000 0.0000 0.0000
# 3 -7.4099 -7.4109 38.4939 0.0000 0.0000 0.0000
# 4 0.0000 0.0000 0.0000 -0.1279 0.0000 0.0000
# 5 0.0000 0.0000 0.0000 0.0000 -0.1299 0.0000
# 6 0.0000 0.0000 0.0000 0.0000 0.0000 32.0547
#
#
#
# Elastic Compliance Matrix: (Units=1/GPa)
#
#
# Indices 1 2 3 4 5 6 
#
# 1 0.577883 -0.565308 0.002405 0.000000 0.000000 0.000000
# 2 -0.565308 0.577858 0.002432 0.000000 0.000000 0.000000
# 3 0.002405 0.002432 0.026909 0.000000 0.000000 0.000000
# 4 0.000000 0.000000 0.000000 -7.818575 0.000000 0.000000
# 5 0.000000 0.000000 0.000000 0.000000 -7.697272 0.000000
# 6 0.000000 0.000000 0.000000 0.000000 0.000000 0.031197
#
#
# Mechanical properties :
#
#
# Convention : Reuss Voigt Hill
#
# Bulk Modulus (GPa) = 16.20517 19.30651 17.75584
# Shear Modulus (GPa) = -0.37993 12.74961 6.18484
#
# Velocity S-wave (km/s) = -0.44311 2.56692 1.78784
# Velocity P-wave (km/s) = 2.84836 4.33165 3.66581
#
# Compressibility (1/GPa) = 0.06170870
#
# Stress axis : x y z
#
# Youngs Moduli (GPa) = 1.73045 1.73053 37.16187
#
# Poissons Ratio (x) = 0.97828 -0.08938
# Poissons Ratio (y) = 0.97824 -0.09037
# Poissons Ratio (z) = -0.00416 -0.00421
#
# Static dielectric constant tensor:
#      x y z
#    x 1.755840 0.000000 0.000000 
#    y 0.000000 1.755840 0.000000 
#    z 0.000000 0.000000 1.659660 
# 
# From -- ./inp_files/2493.got.cif
#   From: 2010.05.17/outbox.cif.g08.bks.cpg/sg113_cif.got.tgz:2493.got - 2010.05.20 11:03:00.
