data_PCOD9555341
_publ_section_title
;
Structure prediction by ZEFSAII (Michael W. Deem and Ramdas Pophale) SiO2 
 PCOD9555341
Probable space group: P -4 2 C
;
_chemical_formula_sum "Si O2"
_cell_formula_units_Z 48
_cell_length_a 9.293427
_cell_length_b 9.293427
_cell_length_c 28.175294
_cell_angle_alpha 90.000000
_cell_angle_beta 90.000000
_cell_angle_gamma 90.000000
_cell_volume 2433.437746
_symmetry_space_group_name_H-M "P -4 2 C"
_symmetry_group_IT_number 112
_symmetry_cell_setting 'tetragonal'
loop_
_space_group_symop_operation_xyz
x,y,z
y,-x,-z
-x,-y,z
-y,x,-z
x,-y,1/2-z
-x,y,1/2-z
-y,-x,1/2+z
y,x,1/2+z
loop_
_atom_site_type_symbol
_atom_site_label
_atom_site_fract_x
_atom_site_fract_y
_atom_site_fract_z
Si Si1 0.972292 0.671214 0.802403
Si Si2 0.834776 0.533815 0.194616
Si Si3 0.330732 0.835905 0.957417
Si Si4 0.311448 0.239774 0.140148
Si Si5 0.821493 0.326215 0.043563
Si Si6 0.303372 0.653603 0.641454
O O1 0.813526 0.701910 0.819921
O O2 0.000000 0.500000 0.797503
O O3 0.000000 0.734021 0.750000
O O4 0.072823 0.704549 0.847365
O O5 0.822442 0.500000 0.250000
O O6 0.782200 0.692808 0.182976
O O7 0.719030 0.448001 0.163103
O O8 0.000000 0.500000 0.179835
O O9 0.284058 0.759394 0.908954
O O10 0.501439 0.808000 0.964562
O O11 0.302776 0.006766 0.952459
O O12 0.243446 0.764751 0.000387
O O13 0.480003 0.287604 0.139171
O O14 0.730607 0.286285 0.090668
#
# Coordination Sequence:
#
# PCOD9555341 Si02
#       6
#     8   8   8   8   8   8
#     4   9  20  38  61  93 131 167 209 261 314 377
#     4  11  23  39  61  93 135 175 215 265 320 373
#     4  11  25  44  66  93 127 165 210 266 327 388
#     4  11  22  39  66  95 127 167 216 266 321 384
#     4  11  25  44  66  93 127 165 210 266 327 388
#     4  11  22  39  66  95 127 167 216 266 321 384
#
# _framework density 19.725180000000002
#
# number of rings (size 3 to 8) (size 9 to 14) (size 15 to 20)
#    0.000    1.333    1.667    3.500    2.333    4.667 
#    0.000    2.500    0.000    6.000    0.000    0.000 
#    0.000    0.000    0.000    0.000    0.000    0.000 
#
# Total GULP energy -267729.996937 kJ/mol
# GULP energy per Si atom -5577.708270 kJ/mol
# Density = 1.968028 g / cm^3
# Si number density = 19.725180 Si / 1000 Ang^3
#
#
#
# Elastic Constant Matrix: (Units=GPa)
#
#
# Indices 1 2 3 4 5 6 
#
# 1 73.6036 18.3414 40.0211 0.0000 0.0000 0.0000
# 2 18.3414 73.6036 40.0211 0.0000 0.0000 0.0000
# 3 40.0211 40.0211 122.9487 0.0000 0.0000 0.0000
# 4 0.0000 0.0000 0.0000 190.0769 0.0000 0.0000
# 5 0.0000 0.0000 0.0000 0.0000 190.0769 0.0000
# 6 0.0000 0.0000 0.0000 0.0000 0.0000 6.5868
#
#
#
# Elastic Compliance Matrix: (Units=1/GPa)
#
#
# Indices 1 2 3 4 5 6 
#
# 1 0.016636 -0.001459 -0.004940 0.000000 0.000000 0.000000
# 2 -0.001459 0.016636 -0.004940 0.000000 0.000000 0.000000
# 3 -0.004940 -0.004940 0.011350 0.000000 0.000000 0.000000
# 4 0.000000 0.000000 0.000000 0.005261 0.000000 0.000000
# 5 0.000000 0.000000 0.000000 0.000000 0.005261 0.000000
# 6 0.000000 0.000000 0.000000 0.000000 0.000000 0.151818
#
#
# Mechanical properties :
#
#
# Convention : Reuss Voigt Hill
#
# Bulk Modulus (GPa) = 45.57402 51.88035 48.72719
# Shear Modulus (GPa) = 21.10100 88.79964 54.95032
#
# Velocity S-wave (km/s) = 3.27425 6.71686 5.28379
# Velocity P-wave (km/s) = 6.11955 9.30127 7.87282
#
# Compressibility (1/GPa) = 0.02194232
#
# Stress axis : x y z
#
# Youngs Moduli (GPa) = 60.11017 60.11017 88.10859
#
# Poissons Ratio (x) = 0.08773 0.43527
# Poissons Ratio (y) = 0.08773 0.43527
# Poissons Ratio (z) = 0.29695 0.29695
#
# Static dielectric constant tensor:
#      x y z
#    x 1.666910 0.000000 0.000000 
#    y 0.000000 1.666910 0.000000 
#    z 0.000000 0.000000 1.667660 
# 
# From -- ./inp_files/6292.got.cif
#   From: 2010.05.17/outbox.cif.g08.bks.cpg/sg112_4_cif.got.tgz:6292.got - 2010.05.20 10:59:04.
