data_PCOD9555516
_publ_section_title
;
Structure prediction by ZEFSAII (Michael W. Deem and Ramdas Pophale) SiO2 
 PCOD9555516
Probable space group: P -4 21 M 
;
_chemical_formula_sum "Si O2"
_cell_formula_units_Z 56
_cell_length_a 15.261536
_cell_length_b 15.261536
_cell_length_c 12.662680
_cell_angle_alpha 90.000000
_cell_angle_beta 90.000000
_cell_angle_gamma 90.000000
_cell_volume 2949.321541
_symmetry_space_group_name_H-M "P -4 21 M "
_symmetry_group_IT_number 113
_symmetry_cell_setting 'tetragonal'
loop_
_space_group_symop_operation_xyz
x,y,z
y,-x,-z
-x,-y,z
-y,x,-z
1/2+x,1/2-y,-z
1/2-x,1/2+y,-z
1/2-y,1/2-x,z
1/2+y,1/2+x,z
loop_
_atom_site_type_symbol
_atom_site_label
_atom_site_fract_x
_atom_site_fract_y
_atom_site_fract_z
Si Si1 0.167967 0.817898 0.565332
Si Si2 0.766122 0.122995 0.794883
Si Si3 0.648380 0.293255 0.193135
Si Si4 0.205998 0.563940 0.252578
Si Si5 0.119293 0.916406 0.985595
Si Si6 0.504631 0.136980 0.539649
Si Si7 0.462134 0.718366 0.395537
O O1 0.231469 0.731469 0.543384
O O2 0.206009 0.859528 0.673689
O O3 0.172767 0.889909 0.471867
O O4 0.064837 0.802086 0.586832
O O5 0.699927 0.199927 0.825709
O O6 0.719629 0.028482 0.803584
O O7 0.848562 0.118790 0.872975
O O8 0.704076 0.204076 0.198678
O O9 0.715278 0.370544 0.227452
O O10 0.616069 0.315137 0.076243
O O11 0.569533 0.292865 0.276645
O O12 0.116203 0.616203 0.228689
O O13 0.201580 0.539689 0.376724
O O14 0.021782 0.884284 0.013576
O O15 0.581791 0.081791 0.595769
O O16 0.543184 0.183262 0.438764
O O17 0.431105 0.068896 0.507067
#
# Coordination Sequence:
#
# PCOD9555516 Si02
#       7
#     8   8   8   8   8   8   8
#     4  11  25  42  62  92 126 167 211 255 312 371
#     4  11  22  41  64  88 121 160 208 261 312 366
#     4  11  23  40  62  89 121 160 204 251 308 372
#     4  10  20  37  60  89 122 155 203 261 309 360
#     4  11  23  41  63  89 121 159 206 254 308 376
#     4  10  19  33  57  87 120 162 207 251 302 359
#     4  12  23  39  59  89 130 166 203 251 305 372
#
# _framework density 18.987418000000002
#
# number of rings (size 3 to 8) (size 9 to 14) (size 15 to 20)
#    0.000    1.143    2.857    4.286    0.000    2.286 
#    0.000    0.000    0.000    0.857    0.000    0.000 
#    0.000    0.000    0.000    0.000    0.000    0.000 
#
# Total GULP energy -312474.946358 kJ/mol
# GULP energy per Si atom -5579.909756 kJ/mol
# Density = 1.894420 g / cm^3
# Si number density = 18.987418 Si / 1000 Ang^3
#
#
#
# Elastic Constant Matrix: (Units=GPa)
#
#
# Indices 1 2 3 4 5 6 
#
# 1 80.3406 35.2221 4.0936 0.0000 0.0000 0.0000
# 2 35.2221 80.3409 4.0949 0.0000 0.0000 0.0000
# 3 4.0936 4.0949 49.5937 0.0000 0.0000 0.0000
# 4 0.0000 0.0000 0.0000 28.5203 0.0000 0.0000
# 5 0.0000 0.0000 0.0000 0.0000 28.5201 0.0000
# 6 0.0000 0.0000 0.0000 0.0000 0.0000 23.5638
#
#
#
# Elastic Compliance Matrix: (Units=1/GPa)
#
#
# Indices 1 2 3 4 5 6 
#
# 1 0.015434 -0.006730 -0.000718 0.000000 0.000000 0.000000
# 2 -0.006730 0.015434 -0.000719 0.000000 0.000000 0.000000
# 3 -0.000718 -0.000719 0.020283 0.000000 0.000000 0.000000
# 4 0.000000 0.000000 0.000000 0.035063 0.000000 0.000000
# 5 0.000000 0.000000 0.000000 0.000000 0.035063 0.000000
# 6 0.000000 0.000000 0.000000 0.000000 0.000000 0.042438
#
#
# Mechanical properties :
#
#
# Convention : Reuss Voigt Hill
#
# Bulk Modulus (GPa) = 28.72193 33.01072 30.86632
# Shear Modulus (GPa) = 26.08874 27.24516 26.66695
#
# Velocity S-wave (km/s) = 3.71077 3.79212 3.75167
# Velocity P-wave (km/s) = 5.78960 6.04954 5.92100
#
# Compressibility (1/GPa) = 0.03481660
#
# Stress axis : x y z
#
# Youngs Moduli (GPa) = 64.79204 64.79210 49.30357
#
# Poissons Ratio (x) = 0.43604 0.03541
# Poissons Ratio (y) = 0.43604 0.03544
# Poissons Ratio (z) = 0.04654 0.04658
#
# Static dielectric constant tensor:
#      x y z
#    x 1.690580 0.000000 0.000000 
#    y 0.000000 1.690570 0.000000 
#    z 0.000000 0.000000 1.652270 
# 
# From -- ./inp_files/1933.got.cif
#   From: 2010.05.17/outbox.cif.g08.bks.cpg/sg113_cif.got.tgz:1933.got - 2010.05.20 11:03:00.
