data_PCOD9555436
_publ_section_title
;
Structure prediction by ZEFSAII (Michael W. Deem and Ramdas Pophale) SiO2 
 PCOD9555436
Probable space group: P -4 2 C
;
_chemical_formula_sum "Si O2"
_cell_formula_units_Z 40
_cell_length_a 15.000000
_cell_length_b 15.000000
_cell_length_c 9.000000
_cell_angle_alpha 90.000000
_cell_angle_beta 90.000000
_cell_angle_gamma 90.000000
_cell_volume 2025.000000
_symmetry_space_group_name_H-M "P -4 2 C"
_symmetry_group_IT_number 112
_symmetry_cell_setting 'tetragonal'
loop_
_space_group_symop_operation_xyz
x,y,z
y,-x,-z
-x,-y,z
-y,x,-z
x,-y,1/2-z
-x,y,1/2-z
-y,-x,1/2+z
y,x,1/2+z
loop_
_atom_site_type_symbol
_atom_site_label
_atom_site_fract_x
_atom_site_fract_y
_atom_site_fract_z
Si Si1 0.085091 0.592614 0.637101
Si Si2 0.827287 0.408703 0.924555
Si Si3 0.769697 0.883195 0.904838
Si Si4 0.628803 0.526319 0.575453
Si Si5 0.238348 0.914811 0.941877
O O1 0.165965 0.615884 0.749418
O O2 0.108531 0.495988 0.569278
O O3 0.078585 0.662934 0.507946
O O4 0.000000 0.599077 0.750000
O O5 0.727798 0.439919 0.957269
O O6 0.858165 0.325035 0.020813
O O7 0.761081 0.882862 0.727586
O O8 0.796486 0.983989 0.948965
O O9 0.845646 0.817366 0.961556
O O10 0.601540 0.441997 0.473759
O O11 0.620687 0.500000 0.750000
#
# Coordination Sequence:
#
# PCOD9555436 Si02
#       5
#     8   8   8   8   8
#     4  11  22  43  72  98 138 178 216 280 349 403
#     4  11  23  41  69 101 128 178 225 278 341 408
#     4  11  26  45  69 103 140 178 236 280 348 408
#     4  11  24  44  61  89 129 172 222 274 334 403
#     4  11  26  45  69 103 139 183 226 292 339 417
#
# _framework density 19.753086
#
# number of rings (size 3 to 8) (size 9 to 14) (size 15 to 20)
#    0.000    1.000    4.000    3.600    2.800    2.800 
#    3.600    4.000    0.000    0.000    0.000    0.000 
#    0.000    0.000    0.000    0.000    0.000    0.000 
#
# Total GULP energy -223331.003499 kJ/mol
# GULP energy per Si atom -5583.275087 kJ/mol
# Density = 1.970813 g / cm^3
# Si number density = 19.753086 Si / 1000 Ang^3
#
#
#
# Elastic Constant Matrix: (Units=GPa)
#
#
# Indices 1 2 3 4 5 6 
#
# 1 123.8560 69.6701 60.3181 0.0000 0.0000 0.0000
# 2 69.6701 123.8560 60.3181 0.0000 0.0000 0.0000
# 3 60.3181 60.3181 77.2145 0.0000 0.0000 0.0000
# 4 0.0000 0.0000 0.0000 28.6561 0.0000 0.0000
# 5 0.0000 0.0000 0.0000 0.0000 28.6561 0.0000
# 6 0.0000 0.0000 0.0000 0.0000 0.0000 24.0789
#
#
#
# Elastic Compliance Matrix: (Units=1/GPa)
#
#
# Indices 1 2 3 4 5 6 
#
# 1 0.014263 -0.004192 -0.007868 0.000000 0.000000 0.000000
# 2 -0.004192 0.014263 -0.007868 0.000000 0.000000 0.000000
# 3 -0.007868 -0.007868 0.025243 0.000000 0.000000 0.000000
# 4 0.000000 0.000000 0.000000 0.034897 0.000000 0.000000
# 5 0.000000 0.000000 0.000000 0.000000 0.034897 0.000000
# 6 0.000000 0.000000 0.000000 0.000000 0.000000 0.041530
#
#
# Mechanical properties :
#
#
# Convention : Reuss Voigt Hill
#
# Bulk Modulus (GPa) = 71.86242 78.39324 75.12783
# Shear Modulus (GPa) = 23.85654 25.25290 24.55472
#
# Velocity S-wave (km/s) = 3.47902 3.57939 3.52956
# Velocity P-wave (km/s) = 7.25241 7.54026 7.39773
#
# Compressibility (1/GPa) = 0.01391548
#
# Stress axis : x y z
#
# Youngs Moduli (GPa) = 70.10974 70.10974 39.61465
#
# Poissons Ratio (x) = 0.29387 0.31168
# Poissons Ratio (y) = 0.29387 0.31168
# Poissons Ratio (z) = 0.55161 0.55161
#
# Static dielectric constant tensor:
#      x y z
#    x 1.718640 0.000000 0.000000 
#    y 0.000000 1.718640 0.000000 
#    z 0.000000 0.000000 1.682300 
# 
# From -- ./inp_files/1260.got.cif
#   From: 2010.05.17/outbox.ucp.g08.bks.cvg/sg112_1_cif.got.tgz:1260.got - 2010.06.11 11:33:06.
