data_PCOD9555718
_publ_section_title
;
Structure prediction by ZEFSAII (Michael W. Deem and Ramdas Pophale) SiO2 
 PCOD9555718
Probable space group: P -4 21 M 
;
_chemical_formula_sum "Si O2"
_cell_formula_units_Z 40
_cell_length_a 10.572526
_cell_length_b 10.572526
_cell_length_c 16.244683
_cell_angle_alpha 90.000000
_cell_angle_beta 90.000000
_cell_angle_gamma 90.000000
_cell_volume 1815.803148
_symmetry_space_group_name_H-M "P -4 21 M "
_symmetry_group_IT_number 113
_symmetry_cell_setting 'tetragonal'
loop_
_space_group_symop_operation_xyz
x,y,z
y,-x,-z
-x,-y,z
-y,x,-z
1/2+x,1/2-y,-z
1/2-x,1/2+y,-z
1/2-y,1/2-x,z
1/2+y,1/2+x,z
loop_
_atom_site_type_symbol
_atom_site_label
_atom_site_fract_x
_atom_site_fract_y
_atom_site_fract_z
Si Si1 0.376913 0.683302 0.708209
Si Si2 0.109682 0.805738 0.198231
Si Si3 0.260699 0.039199 0.147257
Si Si4 0.004662 0.289669 0.036633
Si Si5 0.877723 0.166011 0.526199
O O1 0.328490 0.828490 0.703057
O O2 0.523984 0.663237 0.723982
O O3 0.314009 0.627635 0.790019
O O4 0.329618 0.618150 0.625629
O O5 0.169832 0.669832 0.211862
O O6 0.025494 0.796075 0.115132
O O7 0.220292 0.904532 0.182341
O O8 0.402086 0.097915 0.147971
O O9 0.226302 0.028361 0.050656
O O10 0.904126 0.404126 0.043186
O O11 0.143410 0.356590 0.035428
O O12 0.777649 0.277649 0.500195
O O13 0.023161 0.173001 0.494554
#
# Coordination Sequence:
#
# PCOD9555718 Si02
#       5
#     8   8   8   8   8
#     4  10  23  44  65  92 131 170 214 269 331 397
#     4  11  23  36  61  94 125 171 224 272 327 386
#     4  10  22  39  61  87 125 171 217 269 326 392
#     4   9  19  36  55  82 124 173 224 275 322 374
#     4  10  24  46  76 108 143 183 225 285 354 428
#
# _framework density 22.028821000000001
#
# number of rings (size 3 to 8) (size 9 to 14) (size 15 to 20)
#    0.000    2.000    0.000    1.800    8.400    3.600 
#    0.000    3.000    0.000    7.200    0.000    0.000 
#    0.000    0.000    0.000    0.000    0.000    0.000 
#
# Total GULP energy -222877.836329 kJ/mol
# GULP energy per Si atom -5571.945908 kJ/mol
# Density = 2.197868 g / cm^3
# Si number density = 22.028821 Si / 1000 Ang^3
#
#
#
# Elastic Constant Matrix: (Units=GPa)
#
#
# Indices 1 2 3 4 5 6 
#
# 1 74.4527 37.6872 21.7865 0.0000 0.0000 0.0000
# 2 37.6872 74.4535 21.7862 0.0000 0.0000 0.0000
# 3 21.7865 21.7862 45.4223 0.0000 0.0000 0.0000
# 4 0.0000 0.0000 0.0000 9.2033 0.0000 0.0000
# 5 0.0000 0.0000 0.0000 0.0000 9.2073 0.0000
# 6 0.0000 0.0000 0.0000 0.0000 0.0000 32.9443
#
#
#
# Elastic Compliance Matrix: (Units=1/GPa)
#
#
# Indices 1 2 3 4 5 6 
#
# 1 0.019080 -0.008120 -0.005257 0.000000 0.000000 0.000000
# 2 -0.008120 0.019079 -0.005257 0.000000 0.000000 0.000000
# 3 -0.005257 -0.005257 0.027058 0.000000 0.000000 0.000000
# 4 0.000000 0.000000 0.000000 0.108657 0.000000 0.000000
# 5 0.000000 0.000000 0.000000 0.000000 0.108610 0.000000
# 6 0.000000 0.000000 0.000000 0.000000 0.000000 0.030354
#
#
# Mechanical properties :
#
#
# Convention : Reuss Voigt Hill
#
# Bulk Modulus (GPa) = 35.77693 39.64983 37.71338
# Shear Modulus (GPa) = 13.91124 17.80888 15.86006
#
# Velocity S-wave (km/s) = 2.51570 2.84638 2.68613
# Velocity P-wave (km/s) = 4.97137 5.37035 5.17471
#
# Compressibility (1/GPa) = 0.02795097
#
# Stress axis : x y z
#
# Youngs Moduli (GPa) = 52.41176 52.41266 36.95703
#
# Poissons Ratio (x) = 0.42557 0.19428
# Poissons Ratio (y) = 0.42556 0.19427
# Poissons Ratio (z) = 0.27553 0.27552
#
# Static dielectric constant tensor:
#      x y z
#    x 1.912530 0.000000 0.000000 
#    y 0.000000 1.912510 0.000000 
#    z 0.000000 0.000000 1.768900 
# 
# From -- ./inp_files/2169.got.cif
#   From: 2010.05.17/outbox.cif.g08.bks.cpg/sg113_cif.got.tgz:2169.got - 2010.05.20 11:03:00.
