data_PCOD9555943
_publ_section_title
;
Structure prediction by ZEFSAII (Michael W. Deem and Ramdas Pophale) SiO2 
 PCOD9555943
Probable space group: P -4 21 C
;
_chemical_formula_sum "Si O2"
_cell_formula_units_Z 48
_cell_length_a 9.197412
_cell_length_b 9.197412
_cell_length_c 28.646421
_cell_angle_alpha 90.000000
_cell_angle_beta 90.000000
_cell_angle_gamma 90.000000
_cell_volume 2423.269146
_symmetry_space_group_name_H-M "P -4 21 C"
_symmetry_group_IT_number 114
_symmetry_cell_setting 'tetragonal'
loop_
_space_group_symop_operation_xyz
x,y,z
y,-x,-z
-x,-y,z
-y,x,-z
1/2+x,1/2-y,1/2-z
1/2-x,1/2+y,1/2-z
1/2-y,1/2-x,1/2+z
1/2+y,1/2+x,1/2+z
loop_
_atom_site_type_symbol
_atom_site_label
_atom_site_fract_x
_atom_site_fract_y
_atom_site_fract_z
Si Si1 0.841533 0.433836 0.003863
Si Si2 0.671595 0.011778 0.720847
Si Si3 0.230668 0.822000 0.431634
Si Si4 0.647301 0.588004 0.169696
Si Si5 0.319691 0.183626 0.307721
Si Si6 0.454488 0.172768 0.406876
O O1 0.745891 0.560360 0.026834
O O2 0.857607 0.318120 0.046419
O O3 0.000000 0.500000 0.998409
O O4 0.793048 0.374307 0.954648
O O5 0.729916 0.173870 0.708330
O O6 0.500000 0.000000 0.713354
O O7 0.754862 0.889380 0.690084
O O8 0.706574 0.954652 0.773078
O O9 0.173421 0.897817 0.385208
O O10 0.388769 0.758520 0.417802
O O11 0.500000 0.500000 0.178557
O O12 0.773241 0.487846 0.191694
O O13 0.371479 0.218880 0.360355
O O14 0.500000 0.000000 0.401138
#
# Coordination Sequence:
#
# PCOD9555943 Si02
#       6
#     8   8   8   8   8   8
#     4   9  20  35  57  95 122 160 205 265 322 378
#     4  11  25  38  63  94 129 171 216 273 323 380
#     4  10  20  34  63  92 124 162 211 263 323 375
#     4  10  22  38  59  94 126 165 214 263 326 379
#     4  11  21  42  67  92 126 171 221 266 325 390
#     4   9  18  37  63  88 120 168 206 258 320 387
#
# _framework density 19.807953999999999
#
# number of rings (size 3 to 8) (size 9 to 14) (size 15 to 20)
#    0.000    2.333    3.333    1.500    4.667    0.667 
#    0.000    1.667    0.000   16.000    0.000    0.000 
#    0.000    0.000    0.000    0.000    0.000    0.000 
#
# Total GULP energy -267493.686701 kJ/mol
# GULP energy per Si atom -5572.785140 kJ/mol
# Density = 1.976287 g / cm^3
# Si number density = 19.807954 Si / 1000 Ang^3
#
#
#
# Elastic Constant Matrix: (Units=GPa)
#
#
# Indices 1 2 3 4 5 6 
#
# 1 63.7786 10.1438 28.1516 0.0000 0.0000 0.0000
# 2 10.1438 63.7786 28.1516 0.0000 0.0000 0.0000
# 3 28.1516 28.1516 65.7389 0.0000 0.0000 0.0000
# 4 0.0000 0.0000 0.0000 25.1563 0.0000 0.0000
# 5 0.0000 0.0000 0.0000 0.0000 25.1563 0.0000
# 6 0.0000 0.0000 0.0000 0.0000 0.0000 19.3600
#
#
#
# Elastic Compliance Matrix: (Units=1/GPa)
#
#
# Indices 1 2 3 4 5 6 
#
# 1 0.019360 0.000716 -0.008597 0.000000 0.000000 0.000000
# 2 0.000716 0.019360 -0.008597 0.000000 0.000000 0.000000
# 3 -0.008597 -0.008597 0.022575 0.000000 0.000000 0.000000
# 4 0.000000 0.000000 0.000000 0.039751 0.000000 0.000000
# 5 0.000000 0.000000 0.000000 0.000000 0.039751 0.000000
# 6 0.000000 0.000000 0.000000 0.000000 0.000000 0.051653
#
#
# Mechanical properties :
#
#
# Convention : Reuss Voigt Hill
#
# Bulk Modulus (GPa) = 35.28846 36.24332 35.76589
# Shear Modulus (GPa) = 21.28981 22.39113 21.84047
#
# Velocity S-wave (km/s) = 3.28199 3.36581 3.32416
# Velocity P-wave (km/s) = 5.67591 5.78290 5.72965
#
# Compressibility (1/GPa) = 0.02833788
#
# Stress axis : x y z
#
# Youngs Moduli (GPa) = 51.65248 51.65248 44.29722
#
# Poissons Ratio (x) = -0.03696 0.38083
# Poissons Ratio (y) = -0.03696 0.38083
# Poissons Ratio (z) = 0.44406 0.44406
#
# Static dielectric constant tensor:
#      x y z
#    x 1.751120 0.000000 0.000000 
#    y 0.000000 1.751120 0.000000 
#    z 0.000000 0.000000 1.874270 
# 
# From -- ./inp_files/3951.got.cif
#   From: 2010.05.17/outbox.cif.g08.bks.cpg/sg114_2_cif.got.tgz:3951.got - 2010.05.20 11:04:54.
