data_PCOD9555558
_publ_section_title
;
Structure prediction by ZEFSAII (Michael W. Deem and Ramdas Pophale) SiO2 
 PCOD9555558
Probable space group: P -4 21 M 
;
_chemical_formula_sum "Si O2"
_cell_formula_units_Z 48
_cell_length_a 9.864656
_cell_length_b 9.864656
_cell_length_c 21.636524
_cell_angle_alpha 90.000000
_cell_angle_beta 90.000000
_cell_angle_gamma 90.000000
_cell_volume 2105.481264
_symmetry_space_group_name_H-M "P -4 21 M "
_symmetry_group_IT_number 113
_symmetry_cell_setting 'tetragonal'
loop_
_space_group_symop_operation_xyz
x,y,z
y,-x,-z
-x,-y,z
-y,x,-z
1/2+x,1/2-y,-z
1/2-x,1/2+y,-z
1/2-y,1/2-x,z
1/2+y,1/2+x,z
loop_
_atom_site_type_symbol
_atom_site_label
_atom_site_fract_x
_atom_site_fract_y
_atom_site_fract_z
Si Si1 0.506480 0.777012 0.958159
Si Si2 0.699870 0.590030 0.518656
Si Si3 0.590171 0.368753 0.345009
Si Si4 0.785029 0.487907 0.257481
Si Si5 0.076330 0.810056 0.907922
Si Si6 0.433275 0.296061 0.225243
O O1 0.652071 0.847930 0.947292
O O2 0.453816 0.652674 0.917098
O O3 0.396055 0.896055 0.950180
O O4 0.499679 0.726186 0.029155
O O5 0.673622 0.439165 0.493898
O O6 0.826637 0.673364 0.492117
O O7 0.714373 0.584135 0.592730
O O8 0.500000 0.500000 0.358465
O O9 0.731089 0.430763 0.322250
O O10 0.531191 0.296626 0.283907
O O11 0.895848 0.604153 0.265831
O O12 0.657508 0.565892 0.228013
O O13 0.863895 0.363895 0.224349
O O14 0.197321 0.697321 0.904526
O O15 0.001935 0.795294 0.842689
O O16 0.329054 0.170947 0.230896
#
# Coordination Sequence:
#
# PCOD9555558 Si02
#       6
#     8   8   8   8   8   8
#     4   9  18  34  55  78 110 150 192 244 298 350
#     4  11  24  44  68  98 133 172 216 265 315 376
#     4  10  19  38  60  88 123 160 200 251 308 364
#     4   9  18  33  55  84 115 150 196 248 299 354
#     4   9  18  35  55  81 112 148 197 244 294 356
#     4   9  19  35  59  86 117 157 198 246 308 367
#
# _framework density 22.797640000000001
#
# number of rings (size 3 to 8) (size 9 to 14) (size 15 to 20)
#    0.000    2.500    1.667    0.500    0.000    2.667 
#    9.000    5.000    0.000    3.500    0.000    0.000 
#    0.000    0.000    0.000    0.000    0.000    0.000 
#
# Total GULP energy -267876.462227 kJ/mol
# GULP energy per Si atom -5580.759630 kJ/mol
# Density = 2.274575 g / cm^3
# Si number density = 22.797640 Si / 1000 Ang^3
#
#
#
# Elastic Constant Matrix: (Units=GPa)
#
#
# Indices 1 2 3 4 5 6 
#
# 1 36.0404 19.8446 10.1803 0.0000 0.0000 0.0000
# 2 19.8446 36.0426 10.1798 0.0000 0.0000 0.0000
# 3 10.1803 10.1798 123.8121 0.0000 0.0000 0.0000
# 4 0.0000 0.0000 0.0000 -32.7365 0.0000 0.0000
# 5 0.0000 0.0000 0.0000 0.0000 -32.7370 0.0000
# 6 0.0000 0.0000 0.0000 0.0000 0.0000 24.9579
#
#
#
# Elastic Compliance Matrix: (Units=1/GPa)
#
#
# Indices 1 2 3 4 5 6 
#
# 1 0.040094 -0.021647 -0.001517 0.000000 0.000000 0.000000
# 2 -0.021647 0.040092 -0.001516 0.000000 0.000000 0.000000
# 3 -0.001517 -0.001516 0.008326 0.000000 0.000000 0.000000
# 4 0.000000 0.000000 0.000000 -0.030547 0.000000 0.000000
# 5 0.000000 0.000000 0.000000 0.000000 -0.030546 0.000000
# 6 0.000000 0.000000 0.000000 0.000000 0.000000 0.040067
#
#
# Mechanical properties :
#
#
# Convention : Reuss Voigt Hill
#
# Bulk Modulus (GPa) = 25.54169 30.70049 28.12109
# Shear Modulus (GPa) = 38.49185 2.27625 20.38405
#
# Velocity S-wave (km/s) = 4.11349 1.00031 2.99344
# Velocity P-wave (km/s) = 5.81283 3.85096 4.93046
#
# Compressibility (1/GPa) = 0.03915168
#
# Stress axis : x y z
#
# Youngs Moduli (GPa) = 24.94116 24.94272 120.10339
#
# Poissons Ratio (x) = 0.53994 0.18218
# Poissons Ratio (y) = 0.53990 0.18213
# Poissons Ratio (z) = 0.03783 0.03782
#
# Static dielectric constant tensor:
#      x y z
#    x 1.910670 0.000000 0.000000 
#    y 0.000000 1.910670 0.000000 
#    z 0.000000 0.000000 1.824410 
# 
# From -- ./inp_files/2641.got.cif
#   From: 2010.05.17/outbox.cif.g08.bks.cpg/sg113_cif.got.tgz:2641.got - 2010.05.20 11:03:00.
