data_PCOD9555462
_publ_section_title
;
Structure prediction by ZEFSAII (Michael W. Deem and Ramdas Pophale) SiO2 
 PCOD9555462
Probable space group: P -4 21 M 
;
_chemical_formula_sum "Si O2"
_cell_formula_units_Z 40
_cell_length_a 16.370499
_cell_length_b 16.370499
_cell_length_c 7.505165
_cell_angle_alpha 90.000000
_cell_angle_beta 90.000000
_cell_angle_gamma 90.000000
_cell_volume 2011.333466
_symmetry_space_group_name_H-M "P -4 21 M "
_symmetry_group_IT_number 113
_symmetry_cell_setting 'tetragonal'
loop_
_space_group_symop_operation_xyz
x,y,z
y,-x,-z
-x,-y,z
-y,x,-z
1/2+x,1/2-y,-z
1/2-x,1/2+y,-z
1/2-y,1/2-x,z
1/2+y,1/2+x,z
loop_
_atom_site_type_symbol
_atom_site_label
_atom_site_fract_x
_atom_site_fract_y
_atom_site_fract_z
Si Si1 0.500001 0.867832 0.956205
Si Si2 0.622433 0.591352 0.790801
Si Si3 0.999999 0.275167 0.703146
Si Si4 0.224829 0.000001 0.682481
Si Si5 0.622432 0.408648 0.790799
O O1 0.579061 0.920940 0.907832
O O2 0.500002 0.851364 0.167779
O O3 0.420943 0.920943 0.907836
O O4 0.499999 0.781740 0.855505
O O5 0.718258 0.578333 0.754166
O O6 0.577003 0.663220 0.687956
O O7 0.590510 0.500000 0.744737
O O8 0.606117 0.606116 0.000001
O O9 0.999999 0.281137 0.491499
O O10 0.921666 0.218257 0.754166
O O11 0.163220 0.922998 0.687952
#
# Coordination Sequence:
#
# PCOD9555462 Si02
#       5
#     8   8   8   8   8
#     4  11  26  47  68  85 111 164 225 274 315 355
#     4  10  18  32  59  96 133 165 194 230 301 379
#     4  10  23  36  61  92 133 163 199 252 312 374
#     4  12  20  38  62  99 130 161 201 253 307 379
#     4  10  18  32  59  96 133 165 194 230 301 379
#
# _framework density 19.887302999999999
#
# number of rings (size 3 to 8) (size 9 to 14) (size 15 to 20)
#    1.200    0.200    6.000    1.800    0.000    1.600 
#    3.600    6.000    0.000    4.800    0.000    0.000 
#    0.000    0.000    0.000    0.000    0.000    0.000 
#
# Total GULP energy -222884.298715 kJ/mol
# GULP energy per Si atom -5572.107468 kJ/mol
# Density = 1.984204 g / cm^3
# Si number density = 19.887303 Si / 1000 Ang^3
#
#
#
# Elastic Constant Matrix: (Units=GPa)
#
#
# Indices 1 2 3 4 5 6 
#
# 1 46.4554 13.3211 5.8557 0.0000 0.0000 0.0000
# 2 13.3211 46.4578 5.8566 0.0000 0.0000 0.0000
# 3 5.8557 5.8566 83.4199 0.0000 0.0000 0.0000
# 4 0.0000 0.0000 0.0000 13.3182 0.0000 0.0000
# 5 0.0000 0.0000 0.0000 0.0000 13.3207 0.0000
# 6 0.0000 0.0000 0.0000 0.0000 0.0000 67.9296
#
#
#
# Elastic Compliance Matrix: (Units=1/GPa)
#
#
# Indices 1 2 3 4 5 6 
#
# 1 0.023571 -0.006609 -0.001191 0.000000 0.000000 0.000000
# 2 -0.006609 0.023570 -0.001191 0.000000 0.000000 0.000000
# 3 -0.001191 -0.001191 0.012155 0.000000 0.000000 0.000000
# 4 0.000000 0.000000 0.000000 0.075085 0.000000 0.000000
# 5 0.000000 0.000000 0.000000 0.000000 0.075071 0.000000
# 6 0.000000 0.000000 0.000000 0.000000 0.000000 0.014721
#
#
# Mechanical properties :
#
#
# Convention : Reuss Voigt Hill
#
# Bulk Modulus (GPa) = 24.20390 25.15555 24.67972
# Shear Modulus (GPa) = 19.53697 29.00034 24.26866
#
# Velocity S-wave (km/s) = 3.13770 3.82283 3.49708
# Velocity P-wave (km/s) = 5.03228 5.67114 5.36123
#
# Compressibility (1/GPa) = 0.04131566
#
# Stress axis : x y z
#
# Youngs Moduli (GPa) = 42.42481 42.42691 82.27252
#
# Poissons Ratio (x) = 0.28038 0.09796
# Poissons Ratio (y) = 0.28037 0.09798
# Poissons Ratio (z) = 0.05051 0.05052
#
# Static dielectric constant tensor:
#      x y z
#    x 1.705100 0.000000 0.000000 
#    y 0.000000 1.705100 0.000000 
#    z 0.000000 0.000000 1.724620 
# 
# From -- ./inp_files/1123.got.cif
#   From: 2010.05.17/outbox.cif.g08.bks.cpg/sg113_cif.got.tgz:1123.got - 2010.05.20 11:03:00.
