data_PCOD9555644
_publ_section_title
;
Structure prediction by ZEFSAII (Michael W. Deem and Ramdas Pophale) SiO2 
 PCOD9555644
Probable space group: P -4 21 M 
;
_chemical_formula_sum "Si O2"
_cell_formula_units_Z 56
_cell_length_a 15.973616
_cell_length_b 15.973616
_cell_length_c 11.005538
_cell_angle_alpha 90.000000
_cell_angle_beta 90.000000
_cell_angle_gamma 90.000000
_cell_volume 2808.133545
_symmetry_space_group_name_H-M "P -4 21 M "
_symmetry_group_IT_number 113
_symmetry_cell_setting 'tetragonal'
loop_
_space_group_symop_operation_xyz
x,y,z
y,-x,-z
-x,-y,z
-y,x,-z
1/2+x,1/2-y,-z
1/2-x,1/2+y,-z
1/2-y,1/2-x,z
1/2+y,1/2+x,z
loop_
_atom_site_type_symbol
_atom_site_label
_atom_site_fract_x
_atom_site_fract_y
_atom_site_fract_z
Si Si1 0.924996 0.290433 0.179523
Si Si2 0.505855 0.862838 0.281057
Si Si3 0.323036 0.686089 0.005181
Si Si4 0.068238 0.068926 0.177762
Si Si5 0.333071 0.550797 0.367104
Si Si6 0.028376 0.181551 0.629787
Si Si7 0.680197 0.044379 0.030905
O O1 0.877609 0.377609 0.174504
O O2 0.938332 0.259728 0.315522
O O3 0.868360 0.223021 0.106945
O O4 0.006601 0.296053 0.097515
O O5 0.430018 0.930018 0.280841
O O6 0.478820 0.780452 0.351963
O O7 0.519373 0.833768 0.140805
O O8 0.588084 0.911917 0.324568
O O9 0.250621 0.750621 0.952527
O O10 0.376939 0.624796 0.916465
O O11 0.390944 0.747177 0.066298
O O12 0.011547 0.124900 0.268404
O O13 0.134799 0.021601 0.262960
O O14 0.000000 0.000000 0.130249
O O15 0.380594 0.639399 0.367246
O O16 0.340090 0.512035 0.499860
O O17 0.595389 0.095389 0.016428
#
# Coordination Sequence:
#
# PCOD9555644 Si02
#       7
#     8   8   8   8   8   8   8
#     4  11  23  38  59  90 126 161 202 251 308 373
#     4  10  22  41  64  90 119 157 208 257 302 360
#     4  10  21  39  60  89 129 164 200 253 312 376
#     4  10  21  38  61  91 123 158 203 256 309 367
#     4  11  22  40  61  88 124 158 203 250 314 362
#     4  11  22  39  66  87 117 162 205 254 304 365
#     4  10  20  38  62  86 120 162 201 244 305 370
#
# _framework density 19.942070999999999
#
# number of rings (size 3 to 8) (size 9 to 14) (size 15 to 20)
#    0.000    1.571    2.857    2.143    0.000    6.000 
#    0.000    1.429    0.000    0.000    0.000    0.000 
#    0.000    0.000    0.000    0.000    0.000    0.000 
#
# Total GULP energy -312527.289005 kJ/mol
# GULP energy per Si atom -5580.844447 kJ/mol
# Density = 1.989668 g / cm^3
# Si number density = 19.942071 Si / 1000 Ang^3
#
#
#
# Elastic Constant Matrix: (Units=GPa)
#
#
# Indices 1 2 3 4 5 6 
#
# 1 64.3262 11.1029 15.7441 0.0000 0.0000 0.0000
# 2 11.1029 64.3275 15.7444 0.0000 0.0000 0.0000
# 3 15.7441 15.7444 55.7489 0.0000 0.0000 0.0000
# 4 0.0000 0.0000 0.0000 20.2872 0.0000 0.0000
# 5 0.0000 0.0000 0.0000 0.0000 20.2871 0.0000
# 6 0.0000 0.0000 0.0000 0.0000 0.0000 32.0188
#
#
#
# Elastic Compliance Matrix: (Units=1/GPa)
#
#
# Indices 1 2 3 4 5 6 
#
# 1 0.016909 -0.001880 -0.004244 0.000000 0.000000 0.000000
# 2 -0.001880 0.016909 -0.004244 0.000000 0.000000 0.000000
# 3 -0.004244 -0.004244 0.020335 0.000000 0.000000 0.000000
# 4 0.000000 0.000000 0.000000 0.049292 0.000000 0.000000
# 5 0.000000 0.000000 0.000000 0.000000 0.049292 0.000000
# 6 0.000000 0.000000 0.000000 0.000000 0.000000 0.031232
#
#
# Mechanical properties :
#
#
# Convention : Reuss Voigt Hill
#
# Bulk Modulus (GPa) = 29.92613 29.95391 29.94002
# Shear Modulus (GPa) = 23.16482 23.97270 23.56876
#
# Velocity S-wave (km/s) = 3.41193 3.47092 3.44155
# Velocity P-wave (km/s) = 5.52818 5.57818 5.55324
#
# Compressibility (1/GPa) = 0.03341562
#
# Stress axis : x y z
#
# Youngs Moduli (GPa) = 59.13993 59.14107 49.17643
#
# Poissons Ratio (x) = 0.11116 0.20873
# Poissons Ratio (y) = 0.11116 0.20873
# Poissons Ratio (z) = 0.25102 0.25102
#
# Static dielectric constant tensor:
#      x y z
#    x 1.725930 0.000000 0.000000 
#    y 0.000000 1.725930 0.000000 
#    z 0.000000 0.000000 1.685080 
# 
# From -- ./inp_files/1917.got.cif
#   From: 2010.05.17/outbox.cif.g08.bks.cpg/sg113_cif.got.tgz:1917.got - 2010.05.20 11:03:00.
