data_PCOD9555736
_publ_section_title
;
Structure prediction by ZEFSAII (Michael W. Deem and Ramdas Pophale) SiO2 
 PCOD9555736
Probable space group: P -4 21 M 
;
_chemical_formula_sum "Si O2"
_cell_formula_units_Z 32
_cell_length_a 10.010529
_cell_length_b 10.010529
_cell_length_c 13.010594
_cell_angle_alpha 90.000000
_cell_angle_beta 90.000000
_cell_angle_gamma 90.000000
_cell_volume 1303.800613
_symmetry_space_group_name_H-M "P -4 21 M "
_symmetry_group_IT_number 113
_symmetry_cell_setting 'tetragonal'
loop_
_space_group_symop_operation_xyz
x,y,z
y,-x,-z
-x,-y,z
-y,x,-z
1/2+x,1/2-y,-z
1/2-x,1/2+y,-z
1/2-y,1/2-x,z
1/2+y,1/2+x,z
loop_
_atom_site_type_symbol
_atom_site_label
_atom_site_fract_x
_atom_site_fract_y
_atom_site_fract_z
Si Si1 0.415299 0.691325 0.034676
Si Si2 0.196538 0.921850 0.267274
Si Si3 0.987197 0.217580 0.518586
Si Si4 0.493926 0.794422 0.703507
O O1 0.314228 0.814228 0.009716
O O2 0.468196 0.711463 0.151064
O O3 0.550441 0.666975 0.969312
O O4 0.297446 0.797446 0.280162
O O5 0.241880 0.018506 0.359803
O O6 0.047809 0.855042 0.276982
O O7 0.997204 0.309440 0.420126
O O8 0.864905 0.123179 0.491774
O O9 0.348724 0.848724 0.736072
O O10 0.602008 0.897992 0.749388
#
# Coordination Sequence:
#
# PCOD9555736 Si02
#       4
#     8   8   8   8
#     4  10  23  42  64  89 119 156 201 255 310 360
#     4   9  18  34  53  74 104 140 177 225 283 338
#     4   9  17  28  46  72 102 134 169 208 260 326
#     4   9  17  29  47  73 103 135 172 213 262 329
#
# _framework density 24.543631000000001
#
# number of rings (size 3 to 8) (size 9 to 14) (size 15 to 20)
#    0.000    2.750    0.000    0.750    0.000   10.500 
#    0.000    3.750    0.000    1.500    0.000    0.000 
#    0.000    0.000    0.000    0.000    0.000    0.000 
#
# Total GULP energy -178205.439198 kJ/mol
# GULP energy per Si atom -5568.919975 kJ/mol
# Density = 2.448777 g / cm^3
# Si number density = 24.543631 Si / 1000 Ang^3
#
#
#
# Elastic Constant Matrix: (Units=GPa)
#
#
# Indices 1 2 3 4 5 6 
#
# 1 45.6362 15.8436 -4.8588 0.0000 0.0000 0.0000
# 2 15.8436 45.6364 -4.8587 0.0000 0.0000 0.0000
# 3 -4.8588 -4.8587 114.2888 0.0000 0.0000 0.0000
# 4 0.0000 0.0000 0.0000 -33.3337 0.0000 0.0000
# 5 0.0000 0.0000 0.0000 0.0000 -33.3107 0.0000
# 6 0.0000 0.0000 0.0000 0.0000 0.0000 170.5072
#
#
#
# Elastic Compliance Matrix: (Units=1/GPa)
#
#
# Indices 1 2 3 4 5 6 
#
# 1 0.024970 -0.008595 0.000696 0.000000 0.000000 0.000000
# 2 -0.008595 0.024970 0.000696 0.000000 0.000000 0.000000
# 3 0.000696 0.000696 0.008809 0.000000 0.000000 0.000000
# 4 0.000000 0.000000 0.000000 -0.030000 0.000000 0.000000
# 5 0.000000 0.000000 0.000000 0.000000 -0.030020 0.000000
# 6 0.000000 0.000000 0.000000 0.000000 0.000000 0.005865
#
#
# Mechanical properties :
#
#
# Convention : Reuss Voigt Hill
#
# Bulk Modulus (GPa) = 22.55062 24.20150 23.37606
# Shear Modulus (GPa) = 148.01131 34.06825 91.03978
#
# Velocity S-wave (km/s) = 7.77408 3.72972 6.09701
# Velocity P-wave (km/s) = 9.47574 5.33196 7.68828
#
# Compressibility (1/GPa) = 0.04434468
#
# Stress axis : x y z
#
# Youngs Moduli (GPa) = 40.04733 40.04750 113.52085
#
# Poissons Ratio (x) = 0.34420 -0.07903
# Poissons Ratio (y) = 0.34420 -0.07903
# Poissons Ratio (z) = -0.02788 -0.02788
#
# Static dielectric constant tensor:
#      x y z
#    x 2.108870 0.000000 0.000000 
#    y 0.000000 2.108820 0.000000 
#    z 0.000000 0.000000 1.799680 
# 
# From -- ./inp_files/1539.got.cif
#   From: 2010.05.17/outbox.cif.g08.bks.cpg/sg113_cif.got.tgz:1539.got - 2010.05.20 11:03:00.
