data_PCOD9555962
_publ_section_title
;
Structure prediction by ZEFSAII (Michael W. Deem and Ramdas Pophale) SiO2 
 PCOD9555962
Probable space group: P -4 21 C
;
_chemical_formula_sum "Si O2"
_cell_formula_units_Z 42
_cell_length_a 7.768912
_cell_length_b 7.768912
_cell_length_c 28.869730
_cell_angle_alpha 90.000000
_cell_angle_beta 90.000000
_cell_angle_gamma 90.000000
_cell_volume 1742.461241
_symmetry_space_group_name_H-M "P -4 21 C"
_symmetry_group_IT_number 114
_symmetry_cell_setting 'tetragonal'
loop_
_space_group_symop_operation_xyz
x,y,z
y,-x,-z
-x,-y,z
-y,x,-z
1/2+x,1/2-y,1/2-z
1/2-x,1/2+y,1/2-z
1/2-y,1/2-x,1/2+z
1/2+y,1/2+x,1/2+z
loop_
_atom_site_type_symbol
_atom_site_label
_atom_site_fract_x
_atom_site_fract_y
_atom_site_fract_z
Si Si1 0.813066 0.274337 0.438559
Si Si2 0.373269 0.802635 0.590594
Si Si3 0.000000 0.000000 0.500000
Si Si4 0.492130 0.292242 0.872903
Si Si5 0.818819 0.029023 0.183673
Si Si6 0.324486 0.100178 0.272361
O O1 0.732396 0.467970 0.441267
O O2 0.853608 0.122814 0.475882
O O3 0.009347 0.324484 0.426842
O O4 0.726085 0.165541 0.397087
O O5 0.182002 0.723917 0.601394
O O6 0.451567 0.812990 0.642356
O O7 0.500000 0.500000 0.878394
O O8 0.486435 0.255376 0.818368
O O9 0.839657 0.205205 0.211643
O O10 0.777156 0.897751 0.224215
O O11 0.000000 0.000000 0.159441
O O12 0.500000 0.000000 0.262255
#
# Coordination Sequence:
#
# PCOD9555962 Si02
#       6
#     8   8   2   8   8   8
#     4  10  20  36  70  92 124 157 211 267 336 402
#     4   9  20  38  62  90 123 173 196 257 334 390
#     4  12  20  40  72 104 116 152 216 284 320 432
#     4   9  18  38  60  89 125 164 213 262 319 386
#     4  11  24  40  59  88 131 175 227 274 323 384
#     4  11  24  36  59  90 127 174 231 271 319 377
#
# _framework density 24.103839000000001
#
# number of rings (size 3 to 8) (size 9 to 14) (size 15 to 20)
#    0.000    1.905    2.857    1.714    8.000    1.524 
#    0.000    0.000   12.571    0.000    0.000    0.000 
#    0.000    0.000    0.000    0.000    0.000    0.000 
#
# Total GULP energy -233805.248234 kJ/mol
# GULP energy per Si atom -5566.791625 kJ/mol
# Density = 2.404898 g / cm^3
# Si number density = 24.103839 Si / 1000 Ang^3
#
#
#
# Elastic Constant Matrix: (Units=GPa)
#
#
# Indices 1 2 3 4 5 6 
#
# 1 86.6302 1.7347 10.8030 0.0000 0.0000 0.0000
# 2 1.7347 86.6302 10.8030 0.0000 0.0000 0.0000
# 3 10.8030 10.8030 34.0775 0.0000 0.0000 0.0000
# 4 0.0000 0.0000 0.0000 15.1398 0.0000 0.0000
# 5 0.0000 0.0000 0.0000 0.0000 15.1398 0.0000
# 6 0.0000 0.0000 0.0000 0.0000 0.0000 12.8174
#
#
#
# Elastic Compliance Matrix: (Units=1/GPa)
#
#
# Indices 1 2 3 4 5 6 
#
# 1 0.012023 0.000244 -0.003889 0.000000 0.000000 0.000000
# 2 0.000244 0.012023 -0.003889 0.000000 0.000000 0.000000
# 3 -0.003889 -0.003889 0.031811 0.000000 0.000000 0.000000
# 4 0.000000 0.000000 0.000000 0.066051 0.000000 0.000000
# 5 0.000000 0.000000 0.000000 0.000000 0.066051 0.000000
# 6 0.000000 0.000000 0.000000 0.000000 0.000000 0.078019
#
#
# Mechanical properties :
#
#
# Convention : Reuss Voigt Hill
#
# Bulk Modulus (GPa) = 24.51591 28.22438 26.37014
# Shear Modulus (GPa) = 16.96968 20.88586 18.92777
#
# Velocity S-wave (km/s) = 2.65622 2.94682 2.80529
# Velocity P-wave (km/s) = 4.42723 4.82838 4.63215
#
# Compressibility (1/GPa) = 0.04078985
#
# Stress axis : x y z
#
# Youngs Moduli (GPa) = 83.17123 83.17123 31.43605
#
# Poissons Ratio (x) = -0.02031 0.12225
# Poissons Ratio (y) = -0.02031 0.12225
# Poissons Ratio (z) = 0.32345 0.32345
#
# Static dielectric constant tensor:
#      x y z
#    x 2.009980 0.000000 0.000000 
#    y 0.000000 2.009980 0.000000 
#    z 0.000000 0.000000 1.992770 
# 
# From -- ./inp_files/3671.got.cif
#   From: 2010.05.17/outbox.cif.g08.bks.cpg/sg114_2_cif.got.tgz:3671.got - 2010.05.20 11:04:54.
