data_PCOD9555407
_publ_section_title
;
Structure prediction by ZEFSAII (Michael W. Deem and Ramdas Pophale) SiO2 
 PCOD9555407
Probable space group: P -4 2 C
;
_chemical_formula_sum "Si O2"
_cell_formula_units_Z 48
_cell_length_a 13.922295
_cell_length_b 13.922295
_cell_length_c 16.346706
_cell_angle_alpha 90.000000
_cell_angle_beta 90.000000
_cell_angle_gamma 90.000000
_cell_volume 3168.486896
_symmetry_space_group_name_H-M "P -4 2 C"
_symmetry_group_IT_number 112
_symmetry_cell_setting 'tetragonal'
loop_
_space_group_symop_operation_xyz
x,y,z
y,-x,-z
-x,-y,z
-y,x,-z
x,-y,1/2-z
-x,y,1/2-z
-y,-x,1/2+z
y,x,1/2+z
loop_
_atom_site_type_symbol
_atom_site_label
_atom_site_fract_x
_atom_site_fract_y
_atom_site_fract_z
Si Si1 0.609606 0.116404 0.250000
Si Si2 0.386517 0.384603 0.341341
Si Si3 0.615397 0.613483 0.658659
Si Si4 0.291218 0.291218 1.000000
Si Si5 0.384304 0.885842 0.067561
Si Si6 0.615696 0.885842 0.067561
O O1 0.500000 0.151494 0.250000
O O2 0.648200 0.140641 0.160548
O O3 0.648200 0.140641 0.339452
O O4 0.605795 0.000000 0.250000
O O5 0.500000 0.363631 0.348746
O O6 0.376089 0.500000 0.343690
O O7 0.355526 0.352095 0.250000
O O8 0.333620 0.340622 0.418687
O O9 0.659378 0.666380 0.581312
O O10 0.322066 0.180454 0.008386
O O11 0.180454 0.322066 0.991614
O O12 0.500000 0.866936 0.060696
O O13 0.371930 1.000000 0.055837
#
# Coordination Sequence:
#
# PCOD9555407 Si02
#       6
#     8   8   8   8   8   8
#     4   7  12  26  46  66  90 117 144 186 246 291
#     4   9  18  30  42  63  97 128 154 188 229 279
#     4   9  18  30  42  63  97 128 154 188 229 279
#     4  12  20  27  48  71  90 124 168 196 234 290
#     4   9  18  31  47  70  98 124 155 201 248 287
#     4   9  18  31  47  70  98 124 155 201 248 287
#
# _framework density 15.149187
#
# number of rings (size 3 to 8) (size 9 to 14) (size 15 to 20)
#    0.000    2.833    0.000    6.000    2.333    1.333 
#    0.000    0.000    0.000    1.500    0.000    4.667 
#    0.000    4.000    0.000    0.000    0.000    0.000 
#
# Total GULP energy -267306.979626 kJ/mol
# GULP energy per Si atom -5568.895409 kJ/mol
# Density = 1.511471 g / cm^3
# Si number density = 15.149187 Si / 1000 Ang^3
#
#
#
# Elastic Constant Matrix: (Units=GPa)
#
#
# Indices 1 2 3 4 5 6 
#
# 1 64.4406 35.6918 41.9612 0.0000 0.0000 0.0000
# 2 35.6918 64.4406 41.9612 0.0000 0.0000 0.0000
# 3 41.9612 41.9612 104.2113 0.0000 0.0000 0.0000
# 4 0.0000 0.0000 0.0000 21.4057 0.0000 0.0000
# 5 0.0000 0.0000 0.0000 0.0000 21.4057 0.0000
# 6 0.0000 0.0000 0.0000 0.0000 0.0000 16.2439
#
#
#
# Elastic Compliance Matrix: (Units=1/GPa)
#
#
# Indices 1 2 3 4 5 6 
#
# 1 0.024929 -0.009855 -0.006070 0.000000 0.000000 0.000000
# 2 -0.009855 0.024929 -0.006070 0.000000 0.000000 0.000000
# 3 -0.006070 -0.006070 0.014484 0.000000 0.000000 0.000000
# 4 0.000000 0.000000 0.000000 0.046717 0.000000 0.000000
# 5 0.000000 0.000000 0.000000 0.000000 0.046717 0.000000
# 6 0.000000 0.000000 0.000000 0.000000 0.000000 0.061562
#
#
# Mechanical properties :
#
#
# Convention : Reuss Voigt Hill
#
# Bulk Modulus (GPa) = 49.13246 52.48007 50.80626
# Shear Modulus (GPa) = 18.51104 19.37627 18.94366
#
# Velocity S-wave (km/s) = 3.49938 3.58023 3.54004
# Velocity P-wave (km/s) = 6.98788 7.19779 7.09361
#
# Compressibility (1/GPa) = 0.02035314
#
# Stress axis : x y z
#
# Youngs Moduli (GPa) = 40.11410 40.11410 69.04308
#
# Poissons Ratio (x) = 0.39533 0.41906
# Poissons Ratio (y) = 0.39533 0.41906
# Poissons Ratio (z) = 0.24347 0.24347
#
# Static dielectric constant tensor:
#      x y z
#    x 1.517960 0.000000 0.000000 
#    y 0.000000 1.517960 0.000000 
#    z 0.000000 0.000000 1.531390 
# 
# From -- ./inp_files/3406.got.cif
#   From: 2010.05.17/outbox.cif.g08.bks.cpg/sg112_2_cif.got.tgz:3406.got - 2010.05.20 10:59:04.
