data_PCOD9555968
_publ_section_title
;
Structure prediction by ZEFSAII (Michael W. Deem and Ramdas Pophale) SiO2 
 PCOD9555968
Probable space group: P -4 21 C
;
_chemical_formula_sum "Si O2"
_cell_formula_units_Z 24
_cell_length_a 12.956951
_cell_length_b 12.956951
_cell_length_c 5.010975
_cell_angle_alpha 90.000000
_cell_angle_beta 90.000000
_cell_angle_gamma 90.000000
_cell_volume 841.255407
_symmetry_space_group_name_H-M "P -4 21 C"
_symmetry_group_IT_number 114
_symmetry_cell_setting 'tetragonal'
loop_
_space_group_symop_operation_xyz
x,y,z
y,-x,-z
-x,-y,z
-y,x,-z
1/2+x,1/2-y,1/2-z
1/2-x,1/2+y,1/2-z
1/2-y,1/2-x,1/2+z
1/2+y,1/2+x,1/2+z
loop_
_atom_site_type_symbol
_atom_site_label
_atom_site_fract_x
_atom_site_fract_y
_atom_site_fract_z
Si Si1 0.688241 0.346262 0.292349
Si Si2 0.431929 0.718342 0.773393
Si Si3 0.429278 0.124165 0.104844
O O1 0.666364 0.466555 0.361357
O O2 0.642546 0.270469 0.517604
O O3 0.813599 0.338057 0.298051
O O4 0.633650 0.337355 0.004679
O O5 0.488074 0.806410 0.951757
O O6 0.468028 0.098187 0.401298
#
# Coordination Sequence:
#
# PCOD9555968 Si02
#       3
#     8   8   8
#     4  11  22  36  57  87 128 175 215 266 337 406
#     4  11  22  36  57  87 128 175 215 266 337 406
#     4  10  20  38  58  82 126 170 224 278 322 388
#
# _framework density 28.528796
#
# number of rings (size 3 to 8) (size 9 to 14) (size 15 to 20)
#    0.000    1.333    0.000   10.000    0.000    4.000 
#    0.000    0.000    0.000    0.000    0.000    0.000 
#    0.000 1493.333    0.000    0.000    0.000    0.000 
#
# Total GULP energy -133676.615321 kJ/mol
# GULP energy per Si atom -5569.858972 kJ/mol
# Density = 2.846386 g / cm^3
# Si number density = 28.528796 Si / 1000 Ang^3
#
#
#
# Elastic Constant Matrix: (Units=GPa)
#
#
# Indices 1 2 3 4 5 6 
#
# 1 133.7115 46.4861 6.9130 0.0000 0.0000 0.0000
# 2 46.4861 133.7115 6.9130 0.0000 0.0000 0.0000
# 3 6.9130 6.9130 171.2301 0.0000 0.0000 0.0000
# 4 0.0000 0.0000 0.0000 22.5371 0.0000 0.0000
# 5 0.0000 0.0000 0.0000 0.0000 22.5371 0.0000
# 6 0.0000 0.0000 0.0000 0.0000 0.0000 41.3701
#
#
#
# Elastic Compliance Matrix: (Units=1/GPa)
#
#
# Indices 1 2 3 4 5 6 
#
# 1 0.008516 -0.002949 -0.000225 0.000000 0.000000 0.000000
# 2 -0.002949 0.008516 -0.000225 0.000000 0.000000 0.000000
# 3 -0.000225 -0.000225 0.005858 0.000000 0.000000 0.000000
# 4 0.000000 0.000000 0.000000 0.044371 0.000000 0.000000
# 5 0.000000 0.000000 0.000000 0.000000 0.044371 0.000000
# 6 0.000000 0.000000 0.000000 0.000000 0.000000 0.024172
#
#
# Mechanical properties :
#
#
# Convention : Reuss Voigt Hill
#
# Bulk Modulus (GPa) = 62.14003 62.14192 62.14098
# Shear Modulus (GPa) = 33.79169 42.51157 38.15163
#
# Velocity S-wave (km/s) = 3.44536 3.86441 3.66088
# Velocity P-wave (km/s) = 6.13646 6.46073 6.30068
#
# Compressibility (1/GPa) = 0.01609269
#
# Stress axis : x y z
#
# Youngs Moduli (GPa) = 117.43118 117.43118 170.69973
#
# Poissons Ratio (x) = 0.34629 0.03836
# Poissons Ratio (y) = 0.34629 0.03836
# Poissons Ratio (z) = 0.02639 0.02639
#
# Static dielectric constant tensor:
#      x y z
#    x 2.544260 0.000000 0.000000 
#    y 0.000000 2.544260 0.000000 
#    z 0.000000 0.000000 2.567350 
# 
# From -- ./inp_files/75.got.cif
#   From: 2010.05.17/outbox.cif.g08.bks.cpg/sg114_1_cif.got.tgz:75.got - 2010.05.20 11:04:54.
