data_PCOD9555119
_publ_section_title
;
Structure prediction by ZEFSAII (Michael W. Deem and Ramdas Pophale) SiO2 
 PCOD9555119
Probable space group: P -4 2 C
;
_chemical_formula_sum "Si O2"
_cell_formula_units_Z 56
_cell_length_a 14.657470
_cell_length_b 14.657470
_cell_length_c 13.351586
_cell_angle_alpha 90.000000
_cell_angle_beta 90.000000
_cell_angle_gamma 90.000000
_cell_volume 2868.473786
_symmetry_space_group_name_H-M "P -4 2 C"
_symmetry_group_IT_number 112
_symmetry_cell_setting 'tetragonal'
loop_
_space_group_symop_operation_xyz
x,y,z
y,-x,-z
-x,-y,z
-y,x,-z
x,-y,1/2-z
-x,y,1/2-z
-y,-x,1/2+z
y,x,1/2+z
loop_
_atom_site_type_symbol
_atom_site_label
_atom_site_fract_x
_atom_site_fract_y
_atom_site_fract_z
Si Si1 0.936345 0.586172 0.880360
Si Si2 0.381442 0.726256 0.571705
Si Si3 0.397109 0.172101 0.731184
Si Si4 0.247163 0.897648 0.260303
Si Si5 0.908694 0.704429 0.518312
Si Si6 0.780479 0.916418 0.810762
Si Si7 0.242130 0.577539 0.490280
O O1 0.903987 0.652215 0.789679
O O2 0.845468 0.559569 0.939691
O O3 0.000000 0.500000 0.855059
O O4 0.002510 0.646764 0.950845
O O5 0.386028 0.743709 0.690896
O O6 0.353271 0.824748 0.526045
O O7 0.307866 0.652047 0.539463
O O8 0.482390 0.706749 0.530923
O O9 0.500000 0.136445 0.750000
O O10 0.319281 0.101302 0.762102
O O11 0.388868 0.204355 0.617256
O O12 0.252583 0.875060 0.377419
O O13 0.179440 0.831253 0.203687
O O14 0.209826 0.000000 0.250000
O O15 0.935450 0.771364 0.428331
O O16 0.823598 0.000000 0.750000
#
# Coordination Sequence:
#
# PCOD9555119 Si02
#       7
#     8   8   8   8   8   8   8
#     4  11  21  39  64  92 118 160 209 264 315 373
#     4  10  21  37  58  87 119 163 201 247 306 367
#     4   9  20  37  57  84 121 157 198 261 308 346
#     4  10  24  40  59  88 125 163 200 261 309 367
#     4  10  21  39  61  89 122 154 210 255 315 359
#     4  11  22  38  62  91 121 165 210 249 308 378
#     4  11  21  38  60  85 124 159 202 252 304 367
#
# _framework density 19.522576999999998
#
# number of rings (size 3 to 8) (size 9 to 14) (size 15 to 20)
#    0.000    1.714    1.429    3.429    0.000    5.714 
#    0.000    2.143    0.000    6.000    0.000    0.000 
#    0.000    0.000    0.000    0.000    0.000    0.000 
#
# Total GULP energy -312586.290038 kJ/mol
# GULP energy per Si atom -5581.898036 kJ/mol
# Density = 1.947814 g / cm^3
# Si number density = 19.522577 Si / 1000 Ang^3
#
#
#
# Elastic Constant Matrix: (Units=GPa)
#
#
# Indices 1 2 3 4 5 6 
#
# 1 65.6439 29.1377 30.5595 0.0000 0.0000 0.0000
# 2 29.1377 65.6439 30.5595 0.0000 0.0000 0.0000
# 3 30.5595 30.5595 137.8749 0.0000 0.0000 0.0000
# 4 0.0000 0.0000 0.0000 17.9830 0.0000 0.0000
# 5 0.0000 0.0000 0.0000 0.0000 17.9830 0.0000
# 6 0.0000 0.0000 0.0000 0.0000 0.0000 32.0537
#
#
#
# Elastic Compliance Matrix: (Units=1/GPa)
#
#
# Indices 1 2 3 4 5 6 
#
# 1 0.019851 -0.007541 -0.002728 0.000000 0.000000 0.000000
# 2 -0.007541 0.019851 -0.002728 0.000000 0.000000 0.000000
# 3 -0.002728 -0.002728 0.008462 0.000000 0.000000 0.000000
# 4 0.000000 0.000000 0.000000 0.055608 0.000000 0.000000
# 5 0.000000 0.000000 0.000000 0.000000 0.055608 0.000000
# 6 0.000000 0.000000 0.000000 0.000000 0.000000 0.031198
#
#
# Mechanical properties :
#
#
# Convention : Reuss Voigt Hill
#
# Bulk Modulus (GPa) = 45.10890 49.96404 47.53647
# Shear Modulus (GPa) = 22.32492 25.53100 23.92796
#
# Velocity S-wave (km/s) = 3.38530 3.62023 3.50473
# Velocity P-wave (km/s) = 6.19972 6.56683 6.38591
#
# Compressibility (1/GPa) = 0.02216857
#
# Stress axis : x y z
#
# Youngs Moduli (GPa) = 50.37452 50.37452 118.16889
#
# Poissons Ratio (x) = 0.37989 0.32242
# Poissons Ratio (y) = 0.37989 0.32242
# Poissons Ratio (z) = 0.13745 0.13745
#
# Static dielectric constant tensor:
#      x y z
#    x 1.682180 0.000000 0.000000 
#    y 0.000000 1.682180 0.000000 
#    z 0.000000 0.000000 1.712290 
# 
# From -- ./inp_files/2640.got.cif
#   From: 2010.05.17/outbox.cif.g08.bks.cpg/sg112_2_cif.got.tgz:2640.got - 2010.05.20 10:59:04.
