data_PCOD9555376
_publ_section_title
;
Structure prediction by ZEFSAII (Michael W. Deem and Ramdas Pophale) SiO2 
 PCOD9555376
Probable space group: P -4 2 C
;
_chemical_formula_sum "Si O2"
_cell_formula_units_Z 60
_cell_length_a 18.752398
_cell_length_b 18.752398
_cell_length_c 8.724074
_cell_angle_alpha 90.000000
_cell_angle_beta 90.000000
_cell_angle_gamma 90.000000
_cell_volume 3067.841828
_symmetry_space_group_name_H-M "P -4 2 C"
_symmetry_group_IT_number 112
_symmetry_cell_setting 'tetragonal'
loop_
_space_group_symop_operation_xyz
x,y,z
y,-x,-z
-x,-y,z
-y,x,-z
x,-y,1/2-z
-x,y,1/2-z
-y,-x,1/2+z
y,x,1/2+z
loop_
_atom_site_type_symbol
_atom_site_label
_atom_site_fract_x
_atom_site_fract_y
_atom_site_fract_z
Si Si1 0.793337 0.345652 0.755208
Si Si2 0.163608 0.110470 0.639227
Si Si3 0.414858 0.152643 0.764878
Si Si4 0.956352 0.186792 0.030581
Si Si5 0.345445 0.074717 0.050972
Si Si6 0.835234 0.500000 0.750000
Si Si7 0.052551 0.439564 0.997101
Si Si8 0.776206 0.707396 0.092466
O O1 0.787290 0.430601 0.778424
O O2 0.744874 0.298241 0.866104
O O3 0.780338 0.321456 0.580948
O O4 0.875251 0.331787 0.803779
O O5 0.163425 0.080898 0.811147
O O6 0.090754 0.151128 0.601122
O O7 0.231046 0.163555 0.615879
O O8 0.169722 0.039845 0.534405
O O9 0.500000 0.169712 0.750000
O O10 0.390242 0.122285 0.928377
O O11 0.402959 0.091008 0.638443
O O12 0.358992 0.211791 0.707956
O O13 0.946204 0.271195 0.022938
O O14 0.387253 0.002499 0.083509
O O15 0.888831 0.525694 0.885203
O O16 0.000000 0.500000 0.060098
#
# Coordination Sequence:
#
# PCOD9555376 Si02
#       8
#     8   8   8   8   8   4   8   8
#     4  12  26  43  66  93 136 175 219 270 326 405
#     4  11  24  45  63  90 119 163 225 287 346 400
#     4  12  23  40  64  97 137 180 224 266 328 410
#     4  11  25  43  65  87 121 162 225 289 342 406
#     4  12  24  39  62  95 132 179 218 269 331 414
#     4  12  25  44  60 106 143 174 220 284 329 410
#     4  12  23  37  63  95 145 182 216 261 336 401
#     4  12  24  45  66  93 132 179 222 271 336 403
#
# _framework density 19.557721999999998
#
# number of rings (size 3 to 8) (size 9 to 14) (size 15 to 20)
#    0.000    0.267    6.667    3.000    1.867    0.800 
#    0.000    1.333    0.000    0.000    0.000    0.467 
#    0.000    0.000    0.000    0.000    0.000    0.000 
#
# Total GULP energy -335528.504796 kJ/mol
# GULP energy per Si atom -5592.141747 kJ/mol
# Density = 1.951321 g / cm^3
# Si number density = 19.557722 Si / 1000 Ang^3
#
#
#
# Elastic Constant Matrix: (Units=GPa)
#
#
# Indices 1 2 3 4 5 6 
#
# 1 119.4418 58.4883 31.6524 0.0000 0.0000 0.0000
# 2 58.4883 119.4418 31.6524 0.0000 0.0000 0.0000
# 3 31.6524 31.6524 90.5642 0.0000 0.0000 0.0000
# 4 0.0000 0.0000 0.0000 29.7389 0.0000 0.0000
# 5 0.0000 0.0000 0.0000 0.0000 29.7389 0.0000
# 6 0.0000 0.0000 0.0000 0.0000 0.0000 39.7790
#
#
#
# Elastic Compliance Matrix: (Units=1/GPa)
#
#
# Indices 1 2 3 4 5 6 
#
# 1 0.011412 -0.004994 -0.002243 0.000000 0.000000 0.000000
# 2 -0.004994 0.011412 -0.002243 0.000000 0.000000 0.000000
# 3 -0.002243 -0.002243 0.012610 0.000000 0.000000 0.000000
# 4 0.000000 0.000000 0.000000 0.033626 0.000000 0.000000
# 5 0.000000 0.000000 0.000000 0.000000 0.033626 0.000000
# 6 0.000000 0.000000 0.000000 0.000000 0.000000 0.025139
#
#
# Mechanical properties :
#
#
# Convention : Reuss Voigt Hill
#
# Bulk Modulus (GPa) = 60.70304 63.67047 62.18675
# Shear Modulus (GPa) = 32.83497 33.69502 33.26499
#
# Velocity S-wave (km/s) = 4.10185 4.15523 4.12863
# Velocity P-wave (km/s) = 7.31703 7.45969 7.38870
#
# Compressibility (1/GPa) = 0.01647364
#
# Stress axis : x y z
#
# Youngs Moduli (GPa) = 87.62617 87.62617 79.30280
#
# Poissons Ratio (x) = 0.43759 0.17789
# Poissons Ratio (y) = 0.43759 0.17789
# Poissons Ratio (z) = 0.19656 0.19656
#
# Static dielectric constant tensor:
#      x y z
#    x 1.697820 0.000000 0.000000 
#    y 0.000000 1.697820 0.000000 
#    z 0.000000 0.000000 1.743620 
# 
# From -- ./inp_files/1519.got.cif
#   From: 2010.05.17/outbox.cif.g08.bks.cpg/sg112_1_cif.got.tgz:1519.got - 2010.05.20 10:59:04.
