data_PCOD9555067
_publ_section_title
;
Structure prediction by ZEFSAII (Michael W. Deem and Ramdas Pophale) SiO2 
 PCOD9555067
Probable space group: P -4 2 C
;
_chemical_formula_sum "Si O2"
_cell_formula_units_Z 58
_cell_length_a 17.998846
_cell_length_b 17.998846
_cell_length_c 9.332595
_cell_angle_alpha 90.000000
_cell_angle_beta 90.000000
_cell_angle_gamma 90.000000
_cell_volume 3023.373079
_symmetry_space_group_name_H-M "P -4 2 C"
_symmetry_group_IT_number 112
_symmetry_cell_setting 'tetragonal'
loop_
_space_group_symop_operation_xyz
x,y,z
y,-x,-z
-x,-y,z
-y,x,-z
x,-y,1/2-z
-x,y,1/2-z
-y,-x,1/2+z
y,x,1/2+z
loop_
_atom_site_type_symbol
_atom_site_label
_atom_site_fract_x
_atom_site_fract_y
_atom_site_fract_z
Si Si1 0.183499 0.834565 0.930012
Si Si2 0.466812 0.924073 0.589053
Si Si3 0.468143 0.775507 0.027922
Si Si4 0.856580 0.680344 0.464507
Si Si5 0.391127 0.747716 0.328876
Si Si6 0.925146 0.131797 0.672809
Si Si7 0.000000 0.000000 0.500000
Si Si8 0.241476 0.333339 0.183420
O O1 0.139810 0.865565 0.791883
O O2 0.264813 0.801263 0.896098
O O3 0.135198 0.767557 0.003373
O O4 0.185693 0.899009 0.046738
O O5 0.500000 0.915319 0.750000
O O6 0.498111 0.856656 0.496820
O O7 0.376929 0.920799 0.582973
O O8 0.500000 0.000000 0.532520
O O9 0.422943 0.766591 0.173934
O O10 0.542485 0.727455 0.060590
O O11 0.411764 0.764343 0.897048
O O12 0.820416 0.649508 0.609664
O O13 0.794950 0.668270 0.340234
O O14 0.327704 0.686982 0.313836
O O15 0.000000 0.156965 0.750000
O O16 0.947540 0.052940 0.597933
#
# Coordination Sequence:
#
# PCOD9555067 Si02
#       8
#     8   8   8   8   8   8   2   8
#     4  11  24  41  62  93 124 156 209 267 323 382
#     4  10  20  38  60  87 123 165 208 257 319 392
#     4  10  20  37  59  91 124 167 205 256 318 375
#     4  10  20  38  60  90 123 159 208 257 313 379
#     4   9  20  34  58  91 127 158 208 252 307 380
#     4  12  25  43  65  89 119 158 207 266 328 393
#     4  12  26  44  70  84 114 164 214 268 342 404
#     4  11  20  38  65  91 126 167 207 265 310 378
#
# _framework density 19.183872000000001
#
# number of rings (size 3 to 8) (size 9 to 14) (size 15 to 20)
#    0.000    1.517    4.138    1.862    1.931    0.000 
#    2.483    5.517    6.069    0.414    0.000    1.931 
#    0.000    0.000    0.000    0.000    0.000    0.000 
#
# Total GULP energy -323190.853194 kJ/mol
# GULP energy per Si atom -5572.256090 kJ/mol
# Density = 1.914021 g / cm^3
# Si number density = 19.183872 Si / 1000 Ang^3
#
#
#
# Elastic Constant Matrix: (Units=GPa)
#
#
# Indices 1 2 3 4 5 6 
#
# 1 87.2275 28.3884 24.0629 0.0000 0.0000 0.0000
# 2 28.3884 87.2275 24.0629 0.0000 0.0000 0.0000
# 3 24.0629 24.0629 66.2521 0.0000 0.0000 0.0000
# 4 0.0000 0.0000 0.0000 18.8304 0.0000 0.0000
# 5 0.0000 0.0000 0.0000 0.0000 18.8304 0.0000
# 6 0.0000 0.0000 0.0000 0.0000 0.0000 -25.5006
#
#
#
# Elastic Compliance Matrix: (Units=1/GPa)
#
#
# Indices 1 2 3 4 5 6 
#
# 1 0.013593 -0.003403 -0.003701 0.000000 0.000000 0.000000
# 2 -0.003403 0.013593 -0.003701 0.000000 0.000000 0.000000
# 3 -0.003701 -0.003701 0.017782 0.000000 0.000000 0.000000
# 4 0.000000 0.000000 0.000000 0.053106 0.000000 0.000000
# 5 0.000000 0.000000 0.000000 0.000000 0.053106 0.000000
# 6 0.000000 0.000000 0.000000 0.000000 0.000000 -0.039215
#
#
# Mechanical properties :
#
#
# Convention : Reuss Voigt Hill
#
# Bulk Modulus (GPa) = 42.81170 43.74838 43.28004
# Shear Modulus (GPa) = 35.37078 13.37824 24.37451
#
# Velocity S-wave (km/s) = 4.29858 2.64364 3.56838
# Velocity P-wave (km/s) = 6.85580 5.67210 6.29185
#
# Compressibility (1/GPa) = 0.02335810
#
# Stress axis : x y z
#
# Youngs Moduli (GPa) = 73.56896 73.56896 56.23582
#
# Poissons Ratio (x) = 0.25034 0.20813
# Poissons Ratio (y) = 0.25034 0.20813
# Poissons Ratio (z) = 0.27228 0.27228
#
# Static dielectric constant tensor:
#      x y z
#    x 1.709090 0.000000 0.000000 
#    y 0.000000 1.709090 0.000000 
#    z 0.000000 0.000000 1.823190 
# 
# From -- ./inp_files/1535.got.cif
#   From: 2010.05.17/outbox.cif.g08.bks.cpg/sg112_1_cif.got.tgz:1535.got - 2010.05.20 10:59:04.
