data_PCOD9555610
_publ_section_title
;
Structure prediction by ZEFSAII (Michael W. Deem and Ramdas Pophale) SiO2 
 PCOD9555610
Probable space group: P -4 21 M 
;
_chemical_formula_sum "Si O2"
_cell_formula_units_Z 34
_cell_length_a 10.566371
_cell_length_b 10.566371
_cell_length_c 13.182731
_cell_angle_alpha 90.000000
_cell_angle_beta 90.000000
_cell_angle_gamma 90.000000
_cell_volume 1471.828136
_symmetry_space_group_name_H-M "P -4 21 M "
_symmetry_group_IT_number 113
_symmetry_cell_setting 'tetragonal'
loop_
_space_group_symop_operation_xyz
x,y,z
y,-x,-z
-x,-y,z
-y,x,-z
1/2+x,1/2-y,-z
1/2-x,1/2+y,-z
1/2-y,1/2-x,z
1/2+y,1/2+x,z
loop_
_atom_site_type_symbol
_atom_site_label
_atom_site_fract_x
_atom_site_fract_y
_atom_site_fract_z
Si Si1 0.059654 0.249735 0.402852
Si Si2 0.969047 0.268181 0.630717
Si Si3 0.500000 0.000000 0.013958
Si Si4 0.800155 0.978802 0.969756
Si Si5 0.097644 0.881116 0.245312
O O1 0.120405 0.379596 0.364300
O O2 0.161691 0.139881 0.381872
O O3 0.036678 0.262584 0.522053
O O4 0.938929 0.205888 0.340818
O O5 0.899405 0.399405 0.645347
O O6 0.056077 0.229796 0.724622
O O7 0.658491 0.998434 0.008025
O O8 0.804033 0.920465 0.856742
O O9 0.889078 0.879998 0.031850
O O10 0.000000 0.000000 0.239509
#
# Coordination Sequence:
#
# PCOD9555610 Si02
#       5
#     8   8   2   8   8
#     4  10  20  35  62  97 131 185 233 290 356 426
#     4  10  20  37  62  99 137 186 241 297 353 426
#     4  12  28  48  80 112 152 174 248 320 388 440
#     4  11  24  51  78 110 145 198 245 309 386 464
#     4  10  20  40  70 100 135 188 246 297 360 445
#
# _framework density 23.100525000000001
#
# number of rings (size 3 to 8) (size 9 to 14) (size 15 to 20)
#    0.000    1.647    4.706    0.706    1.647    0.471 
#    6.353    0.000    0.000    0.000    0.000    0.000 
#    0.000    0.000    0.000    0.000    0.000    0.000 
#
# Total GULP energy -189480.180511 kJ/mol
# GULP energy per Si atom -5572.946486 kJ/mol
# Density = 2.304795 g / cm^3
# Si number density = 23.100525 Si / 1000 Ang^3
#
#
#
# Elastic Constant Matrix: (Units=GPa)
#
#
# Indices 1 2 3 4 5 6 
#
# 1 112.1476 81.7634 16.8166 0.0000 0.0000 0.0000
# 2 81.7634 112.1457 16.8167 0.0000 0.0000 0.0000
# 3 16.8166 16.8167 75.4113 0.0000 0.0000 0.0000
# 4 0.0000 0.0000 0.0000 -2.9113 0.0000 0.0000
# 5 0.0000 0.0000 0.0000 0.0000 -2.9108 0.0000
# 6 0.0000 0.0000 0.0000 0.0000 0.0000 36.3766
#
#
#
# Elastic Compliance Matrix: (Units=1/GPa)
#
#
# Indices 1 2 3 4 5 6 
#
# 1 0.019139 -0.013774 -0.001196 0.000000 0.000000 0.000000
# 2 -0.013774 0.019139 -0.001196 0.000000 0.000000 0.000000
# 3 -0.001196 -0.001196 0.013794 0.000000 0.000000 0.000000
# 4 0.000000 0.000000 0.000000 -0.343490 0.000000 0.000000
# 5 0.000000 0.000000 0.000000 0.000000 -0.343550 0.000000
# 6 0.000000 0.000000 0.000000 0.000000 0.000000 0.027490
#
#
# Mechanical properties :
#
#
# Convention : Reuss Voigt Hill
#
# Bulk Modulus (GPa) = 50.66350 58.94419 54.80385
# Shear Modulus (GPa) = -8.79407 18.39810 4.80201
#
# Velocity S-wave (km/s) = -1.95324 2.82518 1.44335
# Velocity P-wave (km/s) = 4.11005 6.01781 5.15298
#
# Compressibility (1/GPa) = 0.01973808
#
# Stress axis : x y z
#
# Youngs Moduli (GPa) = 52.25064 52.24970 72.49445
#
# Poissons Ratio (x) = 0.71970 0.08672
# Poissons Ratio (y) = 0.71971 0.08673
# Poissons Ratio (z) = 0.06250 0.06251
#
# Static dielectric constant tensor:
#      x y z
#    x 1.896770 0.000000 0.000000 
#    y 0.000000 1.896770 0.000000 
#    z 0.000000 0.000000 1.845320 
# 
# From -- ./inp_files/1669.got.cif
#   From: 2010.05.17/outbox.cif.g08.bks.cpg/sg113_cif.got.tgz:1669.got - 2010.05.20 11:03:00.
