data_PCOD9555382
_publ_section_title
;
Structure prediction by ZEFSAII (Michael W. Deem and Ramdas Pophale) SiO2 
 PCOD9555382
Probable space group: P -4 2 C
;
_chemical_formula_sum "Si O2"
_cell_formula_units_Z 32
_cell_length_a 8.996230
_cell_length_b 8.996230
_cell_length_c 17.104217
_cell_angle_alpha 90.000000
_cell_angle_beta 90.000000
_cell_angle_gamma 90.000000
_cell_volume 1384.281128
_symmetry_space_group_name_H-M "P -4 2 C"
_symmetry_group_IT_number 112
_symmetry_cell_setting 'tetragonal'
loop_
_space_group_symop_operation_xyz
x,y,z
y,-x,-z
-x,-y,z
-y,x,-z
x,-y,1/2-z
-x,y,1/2-z
-y,-x,1/2+z
y,x,1/2+z
loop_
_atom_site_type_symbol
_atom_site_label
_atom_site_fract_x
_atom_site_fract_y
_atom_site_fract_z
Si Si1 0.042631 0.335192 0.340250
Si Si2 0.538256 0.328230 0.340365
Si Si3 0.169952 0.206228 0.588138
Si Si4 0.175527 0.286231 0.914580
O O1 0.962542 0.202494 0.387291
O O2 0.000000 0.500000 0.370551
O O3 0.000000 0.330210 0.250000
O O4 0.212210 0.290053 0.352933
O O5 0.500000 0.500000 0.357429
O O6 0.500000 0.298251 0.250000
O O7 0.707918 0.285057 0.355802
O O8 0.457210 0.215750 0.400561
O O9 0.225611 0.220356 0.499432
O O10 0.998776 0.252865 0.598356
#
# Coordination Sequence:
#
# PCOD9555382 Si02
#       4
#     8   8   8   8
#     4  11  25  45  71 101 140 189 238 291 358 425
#     4  11  27  49  73 105 144 187 242 301 364 435
#     4  12  26  43  71 106 145 190 239 296 358 432
#     4  12  26  43  71 106 145 190 239 296 358 432
#
# _framework density 23.116693000000001
#
# number of rings (size 3 to 8) (size 9 to 14) (size 15 to 20)
#    0.000    0.500    2.500    4.500    7.000   10.000 
#    0.000    0.000    0.000    0.000    0.000    0.000 
#    0.000    0.000    0.000    0.000    0.000    0.000 
#
# Total GULP energy -178925.722240 kJ/mol
# GULP energy per Si atom -5591.428820 kJ/mol
# Density = 2.306408 g / cm^3
# Si number density = 23.116693 Si / 1000 Ang^3
#
#
#
# Elastic Constant Matrix: (Units=GPa)
#
#
# Indices 1 2 3 4 5 6 
#
# 1 90.4574 16.6006 22.6944 0.0000 0.0000 0.0000
# 2 16.6006 90.4574 22.6944 0.0000 0.0000 0.0000
# 3 22.6944 22.6944 86.8399 0.0000 0.0000 0.0000
# 4 0.0000 0.0000 0.0000 32.7209 0.0000 0.0000
# 5 0.0000 0.0000 0.0000 0.0000 32.7209 0.0000
# 6 0.0000 0.0000 0.0000 0.0000 0.0000 45.5969
#
#
#
# Elastic Compliance Matrix: (Units=1/GPa)
#
#
# Indices 1 2 3 4 5 6 
#
# 1 0.012022 -0.001518 -0.002745 0.000000 0.000000 0.000000
# 2 -0.001518 0.012022 -0.002745 0.000000 0.000000 0.000000
# 3 -0.002745 -0.002745 0.012950 0.000000 0.000000 0.000000
# 4 0.000000 0.000000 0.000000 0.030562 0.000000 0.000000
# 5 0.000000 0.000000 0.000000 0.000000 0.030562 0.000000
# 6 0.000000 0.000000 0.000000 0.000000 0.000000 0.021931
#
#
# Mechanical properties :
#
#
# Convention : Reuss Voigt Hill
#
# Bulk Modulus (GPa) = 43.51875 43.52592 43.52234
# Shear Modulus (GPa) = 35.27971 35.92543 35.60257
#
# Velocity S-wave (km/s) = 3.91084 3.94647 3.92870
# Velocity P-wave (km/s) = 6.26574 6.29570 6.28074
#
# Compressibility (1/GPa) = 0.02297860
#
# Stress axis : x y z
#
# Youngs Moduli (GPa) = 83.17975 83.17975 77.21831
#
# Poissons Ratio (x) = 0.12623 0.21198
# Poissons Ratio (y) = 0.12623 0.21198
# Poissons Ratio (z) = 0.22835 0.22835
#
# Static dielectric constant tensor:
#      x y z
#    x 1.807670 0.000000 0.000000 
#    y 0.000000 1.807670 0.000000 
#    z 0.000000 0.000000 1.811830 
# 
# From -- ./inp_files/4495.got.cif
#   From: 2010.05.17/outbox.cif.g08.bks.cpg/sg112_3_cif.got.tgz:4495.got - 2010.05.20 10:59:04.
