data_PCOD9555701
_publ_section_title
;
Structure prediction by ZEFSAII (Michael W. Deem and Ramdas Pophale) SiO2 
 PCOD9555701
Probable space group: P -4 21 M 
;
_chemical_formula_sum "Si O2"
_cell_formula_units_Z 64
_cell_length_a 14.605710
_cell_length_b 14.605710
_cell_length_c 14.508780
_cell_angle_alpha 90.000000
_cell_angle_beta 90.000000
_cell_angle_gamma 90.000000
_cell_volume 3095.111096
_symmetry_space_group_name_H-M "P -4 21 M "
_symmetry_group_IT_number 113
_symmetry_cell_setting 'tetragonal'
loop_
_space_group_symop_operation_xyz
x,y,z
y,-x,-z
-x,-y,z
-y,x,-z
1/2+x,1/2-y,-z
1/2-x,1/2+y,-z
1/2-y,1/2-x,z
1/2+y,1/2+x,z
loop_
_atom_site_type_symbol
_atom_site_label
_atom_site_fract_x
_atom_site_fract_y
_atom_site_fract_z
Si Si1 0.000514 0.350585 0.948712
Si Si2 0.643843 0.002846 0.590196
Si Si3 0.408974 0.467032 0.784026
Si Si4 0.501685 0.351267 0.027190
Si Si5 0.605806 0.298968 0.491585
Si Si6 0.147128 0.496144 0.724349
Si Si7 0.832330 0.943100 0.380565
Si Si8 0.636641 0.719003 0.685264
O O1 0.091038 0.408963 0.972090
O O2 0.998256 0.254266 0.002565
O O3 0.912679 0.412679 0.972655
O O4 0.000028 0.345526 0.835782
O O5 0.576926 0.923075 0.550136
O O6 0.717873 0.947614 0.650850
O O7 0.574846 0.074846 0.638297
O O8 0.701274 0.063328 0.518111
O O9 0.500000 0.500000 0.834295
O O10 0.337854 0.487428 0.863157
O O11 0.404174 0.536236 0.698753
O O12 0.396816 0.364220 0.748891
O O13 0.410905 0.409846 0.003425
O O14 0.658611 0.342758 0.578132
O O15 0.512015 0.351206 0.464868
O O16 0.670305 0.316008 0.403700
O O17 0.071864 0.571864 0.698675
O O18 0.238598 0.523229 0.668826
O O19 0.103267 0.396734 0.701182
O O20 0.713038 0.786963 0.726795
#
# Coordination Sequence:
#
# PCOD9555701 Si02
#       8
#     8   8   8   8   8   8   8   8
#     4   9  19  39  66  96 129 162 201 252 312 384
#     4  10  21  39  59  80 114 162 211 262 315 361
#     4  11  22  39  61  84 119 159 199 254 313 372
#     4  11  22  40  65  97 130 162 204 255 319 387
#     4  11  22  38  54  84 122 157 207 260 306 363
#     4   9  19  37  60  87 119 155 198 250 309 369
#     4  11  23  35  58  83 115 162 207 253 306 366
#     4  10  22  39  60  88 122 162 213 259 304 368
#
# _framework density 20.677772000000001
#
# number of rings (size 3 to 8) (size 9 to 14) (size 15 to 20)
#    0.000    1.750    3.750    1.875    1.750    5.000 
#    0.000    1.250    0.000    0.750    0.000    1.750 
#    0.000    0.000    0.000    0.000    0.000    0.000 
#
# Total GULP energy -356395.257750 kJ/mol
# GULP energy per Si atom -5568.675902 kJ/mol
# Density = 2.063071 g / cm^3
# Si number density = 20.677772 Si / 1000 Ang^3
#
#
#
# Elastic Constant Matrix: (Units=GPa)
#
#
# Indices 1 2 3 4 5 6 
#
# 1 99.3446 46.7153 12.5369 0.0000 0.0000 0.0000
# 2 46.7153 99.3465 12.5370 0.0000 0.0000 0.0000
# 3 12.5369 12.5370 31.6857 0.0000 0.0000 0.0000
# 4 0.0000 0.0000 0.0000 10.3064 0.0000 0.0000
# 5 0.0000 0.0000 0.0000 0.0000 10.3065 0.0000
# 6 0.0000 0.0000 0.0000 0.0000 0.0000 32.6485
#
#
#
# Elastic Compliance Matrix: (Units=1/GPa)
#
#
# Indices 1 2 3 4 5 6 
#
# 1 0.013173 -0.005828 -0.002906 0.000000 0.000000 0.000000
# 2 -0.005828 0.013173 -0.002906 0.000000 0.000000 0.000000
# 3 -0.002906 -0.002906 0.033860 0.000000 0.000000 0.000000
# 4 0.000000 0.000000 0.000000 0.097027 0.000000 0.000000
# 5 0.000000 0.000000 0.000000 0.000000 0.097026 0.000000
# 6 0.000000 0.000000 0.000000 0.000000 0.000000 0.030629
#
#
# Mechanical properties :
#
#
# Convention : Reuss Voigt Hill
#
# Bulk Modulus (GPa) = 27.08168 41.55057 34.31613
# Shear Modulus (GPa) = 15.60172 21.22478 18.41325
#
# Velocity S-wave (km/s) = 2.74983 3.20731 2.98734
# Velocity P-wave (km/s) = 4.81742 5.81839 5.34140
#
# Compressibility (1/GPa) = 0.03692533
#
# Stress axis : x y z
#
# Youngs Moduli (GPa) = 75.91260 75.91410 29.53353
#
# Poissons Ratio (x) = 0.44239 0.08583
# Poissons Ratio (y) = 0.44238 0.08583
# Poissons Ratio (z) = 0.22063 0.22063
#
# Static dielectric constant tensor:
#      x y z
#    x 1.813810 0.000000 0.000000 
#    y 0.000000 1.813800 0.000000 
#    z 0.000000 0.000000 1.724190 
# 
# From -- ./inp_files/2597.got.cif
#   From: 2010.05.17/outbox.cif.g08.bks.cpg/sg113_cif.got.tgz:2597.got - 2010.05.20 11:03:00.
