data_PCOD9555750
_publ_section_title
;
Structure prediction by ZEFSAII (Michael W. Deem and Ramdas Pophale) SiO2 
 PCOD9555750
Probable space group: P -4 21 M 
;
_chemical_formula_sum "Si O2"
_cell_formula_units_Z 60
_cell_length_a 10.693931
_cell_length_b 10.693931
_cell_length_c 23.359193
_cell_angle_alpha 90.000000
_cell_angle_beta 90.000000
_cell_angle_gamma 90.000000
_cell_volume 2671.361054
_symmetry_space_group_name_H-M "P -4 21 M "
_symmetry_group_IT_number 113
_symmetry_cell_setting 'tetragonal'
loop_
_space_group_symop_operation_xyz
x,y,z
y,-x,-z
-x,-y,z
-y,x,-z
1/2+x,1/2-y,-z
1/2-x,1/2+y,-z
1/2-y,1/2-x,z
1/2+y,1/2+x,z
loop_
_atom_site_type_symbol
_atom_site_label
_atom_site_fract_x
_atom_site_fract_y
_atom_site_fract_z
Si Si1 0.632769 0.867232 0.923990
Si Si2 0.348366 0.651515 0.651430
Si Si3 0.621802 0.662735 0.480321
Si Si4 0.049144 0.753579 0.868527
Si Si5 0.934749 0.236361 0.280969
Si Si6 0.991113 0.796307 0.988496
Si Si7 0.774135 0.534776 0.741125
Si Si8 0.255115 0.451573 0.159441
O O1 0.575494 0.770400 0.875720
O O2 0.684889 0.970901 0.970556
O O3 0.289058 0.789058 0.652317
O O4 0.329108 0.600529 0.588091
O O5 0.491552 0.668948 0.668465
O O6 0.276255 0.572446 0.699667
O O7 0.671022 0.519520 0.492879
O O8 0.727247 0.772754 0.494817
O O9 0.157592 0.657592 0.886850
O O10 0.959986 0.761588 0.923202
O O11 0.115042 0.886136 0.855629
O O12 0.001981 0.709350 0.807084
O O13 0.863656 0.363656 0.296677
O O14 0.832425 0.139185 0.259331
O O15 0.025290 0.255090 0.227039
O O16 0.881251 0.882927 0.012608
O O17 0.899403 0.600598 0.719149
O O18 0.142384 0.357617 0.143554
#
# Coordination Sequence:
#
# PCOD9555750 Si02
#       8
#     4   8   8   8   8   8   8   8
#     4  12  23  42  64  91 120 164 224 270 337 428
#     4  11  24  45  70 102 146 191 231 286 354 422
#     4  10  25  47  77 113 157 209 261 315 373 441
#     4  11  23  42  63  88 124 170 213 275 346 411
#     4  11  24  39  65 104 136 176 224 286 349 414
#     4  11  25  41  64  86 116 160 212 277 343 414
#     4  11  26  42  67 101 135 177 229 284 348 423
#     4  11  23  39  63  90 125 163 213 275 341 408
#
# _framework density 22.460463000000001
#
# number of rings (size 3 to 8) (size 9 to 14) (size 15 to 20)
#    0.000    1.067    4.000    1.400    5.600    3.200 
#    1.200    2.667    0.000    0.000    0.000    0.000 
#    0.000    0.000    0.000    0.000    0.000    0.000 
#
# Total GULP energy -334311.419583 kJ/mol
# GULP energy per Si atom -5571.856993 kJ/mol
# Density = 2.240934 g / cm^3
# Si number density = 22.460463 Si / 1000 Ang^3
#
#
#
# Elastic Constant Matrix: (Units=GPa)
#
#
# Indices 1 2 3 4 5 6 
#
# 1 64.3825 40.0197 12.2464 0.0000 0.0000 0.0000
# 2 40.0197 64.3824 12.2469 0.0000 0.0000 0.0000
# 3 12.2464 12.2469 98.0062 0.0000 0.0000 0.0000
# 4 0.0000 0.0000 0.0000 17.9248 0.0000 0.0000
# 5 0.0000 0.0000 0.0000 0.0000 17.9243 0.0000
# 6 0.0000 0.0000 0.0000 0.0000 0.0000 43.6654
#
#
#
# Elastic Compliance Matrix: (Units=1/GPa)
#
#
# Indices 1 2 3 4 5 6 
#
# 1 0.025457 -0.015589 -0.001233 0.000000 0.000000 0.000000
# 2 -0.015589 0.025457 -0.001233 0.000000 0.000000 0.000000
# 3 -0.001233 -0.001233 0.010512 0.000000 0.000000 0.000000
# 4 0.000000 0.000000 0.000000 0.055789 0.000000 0.000000
# 5 0.000000 0.000000 0.000000 0.000000 0.055790 0.000000
# 6 0.000000 0.000000 0.000000 0.000000 0.000000 0.022901
#
#
# Mechanical properties :
#
#
# Convention : Reuss Voigt Hill
#
# Bulk Modulus (GPa) = 39.50277 39.53302 39.51790
# Shear Modulus (GPa) = 20.79393 26.72010 23.75701
#
# Velocity S-wave (km/s) = 3.04600 3.45287 3.25580
# Velocity P-wave (km/s) = 5.47692 5.79101 5.63616
#
# Compressibility (1/GPa) = 0.02531468
#
# Stress axis : x y z
#
# Youngs Moduli (GPa) = 39.28208 39.28195 95.13306
#
# Poissons Ratio (x) = 0.61238 0.11729
# Poissons Ratio (y) = 0.61238 0.11731
# Poissons Ratio (z) = 0.04843 0.04844
#
# Static dielectric constant tensor:
#      x y z
#    x 1.867240 0.000000 0.000000 
#    y 0.000000 1.867240 0.000000 
#    z 0.000000 0.000000 1.799550 
# 
# From -- ./inp_files/2763.got.cif
#   From: 2010.05.17/outbox.cif.g08.bks.cpg/sg113_cif.got.tgz:2763.got - 2010.05.20 11:03:00.
