data_PCOD9555711
_publ_section_title
;
Structure prediction by ZEFSAII (Michael W. Deem and Ramdas Pophale) SiO2 
 PCOD9555711
Probable space group: P -4 21 M 
;
_chemical_formula_sum "Si O2"
_cell_formula_units_Z 40
_cell_length_a 14.731803
_cell_length_b 14.731803
_cell_length_c 9.725081
_cell_angle_alpha 90.000000
_cell_angle_beta 90.000000
_cell_angle_gamma 90.000000
_cell_volume 2110.595620
_symmetry_space_group_name_H-M "P -4 21 M "
_symmetry_group_IT_number 113
_symmetry_cell_setting 'tetragonal'
loop_
_space_group_symop_operation_xyz
x,y,z
y,-x,-z
-x,-y,z
-y,x,-z
1/2+x,1/2-y,-z
1/2-x,1/2+y,-z
1/2-y,1/2-x,z
1/2+y,1/2+x,z
loop_
_atom_site_type_symbol
_atom_site_label
_atom_site_fract_x
_atom_site_fract_y
_atom_site_fract_z
Si Si1 0.200711 0.852616 0.555769
Si Si2 0.985792 0.222267 0.658043
Si Si3 0.017152 0.144397 0.957533
Si Si4 0.422278 0.077723 0.689209
Si Si5 0.422977 0.077024 0.364378
Si Si6 0.791295 0.556741 0.179539
O O1 0.265507 0.765507 0.536730
O O2 0.097147 0.822045 0.573129
O O3 0.231374 0.900271 0.698194
O O4 0.218232 0.924136 0.434507
O O5 0.000460 0.168664 0.799465
O O6 0.957266 0.326234 0.690708
O O7 0.097350 0.071819 0.977963
O O8 0.040583 0.232822 0.045164
O O9 0.407758 0.092243 0.527875
O O10 0.464365 0.164674 0.762737
O O11 0.500000 0.000000 0.696047
O O12 0.500000 0.000000 0.346724
O O13 0.872304 0.627697 0.152562
#
# Coordination Sequence:
#
# PCOD9555711 Si02
#       6
#     8   8   8   4   4   8
#     4  11  24  43  67 103 137 173 227 281 339 406
#     4  12  25  41  72  99 135 182 223 282 342 400
#     4  11  26  45  64  91 134 180 221 273 335 407
#     4   9  18  37  67  97 127 171 209 267 334 387
#     4  11  22  41  69 103 135 170 221 285 340 386
#     4  10  21  42  67  94 134 173 217 273 333 403
#
# _framework density 18.951996000000001
#
# number of rings (size 3 to 8) (size 9 to 14) (size 15 to 20)
#    0.000    1.200    5.000    0.600    2.800    2.800 
#    1.800    1.000    0.000    0.000    0.000    0.000 
#    0.000    0.000    0.000    0.000    0.000    0.000 
#
# Total GULP energy -223580.252472 kJ/mol
# GULP energy per Si atom -5589.506312 kJ/mol
# Density = 1.890886 g / cm^3
# Si number density = 18.951996 Si / 1000 Ang^3
#
#
#
# Elastic Constant Matrix: (Units=GPa)
#
#
# Indices 1 2 3 4 5 6 
#
# 1 62.6168 22.6058 36.2182 0.0000 0.0000 0.0000
# 2 22.6058 62.6140 36.2173 0.0000 0.0000 0.0000
# 3 36.2182 36.2173 84.5758 0.0000 0.0000 0.0000
# 4 0.0000 0.0000 0.0000 28.9609 0.0000 0.0000
# 5 0.0000 0.0000 0.0000 0.0000 28.9599 0.0000
# 6 0.0000 0.0000 0.0000 0.0000 0.0000 23.1180
#
#
#
# Elastic Compliance Matrix: (Units=1/GPa)
#
#
# Indices 1 2 3 4 5 6 
#
# 1 0.021721 -0.003272 -0.007900 0.000000 0.000000 0.000000
# 2 -0.003272 0.021722 -0.007901 0.000000 0.000000 0.000000
# 3 -0.007900 -0.007901 0.018590 0.000000 0.000000 0.000000
# 4 0.000000 0.000000 0.000000 0.034529 0.000000 0.000000
# 5 0.000000 0.000000 0.000000 0.000000 0.034530 0.000000
# 6 0.000000 0.000000 0.000000 0.000000 0.000000 0.043256
#
#
# Mechanical properties :
#
#
# Convention : Reuss Voigt Hill
#
# Bulk Modulus (GPa) = 41.86415 44.43212 43.14813
# Shear Modulus (GPa) = 22.67997 23.85879 23.26938
#
# Velocity S-wave (km/s) = 3.46310 3.55196 3.50781
# Velocity P-wave (km/s) = 6.17481 6.34959 6.26281
#
# Compressibility (1/GPa) = 0.02388679
#
# Stress axis : x y z
#
# Youngs Moduli (GPa) = 46.03784 46.03585 53.79177
#
# Poissons Ratio (x) = 0.15064 0.42498
# Poissons Ratio (y) = 0.15065 0.42499
# Poissons Ratio (z) = 0.36372 0.36371
#
# Static dielectric constant tensor:
#      x y z
#    x 1.666820 0.000000 0.000000 
#    y 0.000000 1.666820 0.000000 
#    z 0.000000 0.000000 1.609040 
# 
# From -- ./inp_files/1035.got.cif
#   From: 2010.05.17/outbox.cif.g08.bks.cpg/sg113_cif.got.tgz:1035.got - 2010.05.20 11:03:00.
