data_PCOD9555588
_publ_section_title
;
Structure prediction by ZEFSAII (Michael W. Deem and Ramdas Pophale) SiO2 
 PCOD9555588
Probable space group: P -4 21 M 
;
_chemical_formula_sum "Si O2"
_cell_formula_units_Z 56
_cell_length_a 15.992168
_cell_length_b 15.992168
_cell_length_c 10.024760
_cell_angle_alpha 90.000000
_cell_angle_beta 90.000000
_cell_angle_gamma 90.000000
_cell_volume 2563.826729
_symmetry_space_group_name_H-M "P -4 21 M "
_symmetry_group_IT_number 113
_symmetry_cell_setting 'tetragonal'
loop_
_space_group_symop_operation_xyz
x,y,z
y,-x,-z
-x,-y,z
-y,x,-z
1/2+x,1/2-y,-z
1/2-x,1/2+y,-z
1/2-y,1/2-x,z
1/2+y,1/2+x,z
loop_
_atom_site_type_symbol
_atom_site_label
_atom_site_fract_x
_atom_site_fract_y
_atom_site_fract_z
Si Si1 0.090138 0.094796 0.951012
Si Si2 0.820217 0.818615 0.161028
Si Si3 0.694109 0.948450 0.191643
Si Si4 0.562057 0.194824 0.444666
Si Si5 0.953669 0.686952 0.087591
Si Si6 0.935504 0.307221 0.331600
Si Si7 0.833044 0.801561 0.738067
O O1 0.092598 0.147970 0.815508
O O2 0.170156 0.138848 0.016941
O O3 0.004760 0.104052 0.037467
O O4 0.751458 0.748543 0.172476
O O5 0.778941 0.897731 0.236154
O O6 0.906024 0.765449 0.160256
O O7 0.620815 0.879186 0.171524
O O8 0.672131 0.010399 0.311700
O O9 0.703838 0.002064 0.054841
O O10 0.615484 0.115484 0.492158
O O11 0.502126 0.223132 0.561647
O O12 0.626364 0.265199 0.395832
O O13 0.884152 0.615849 0.066318
O O14 0.021124 0.661361 0.196838
O O15 0.882434 0.382434 0.394777
O O16 0.871570 0.235069 0.291529
O O17 0.779728 0.720273 0.796454
#
# Coordination Sequence:
#
# PCOD9555588 Si02
#       7
#     8   8   8   8   8   8   8
#     4  11  21  34  57  89 124 159 198 250 308 362
#     4  10  20  34  54  81 114 153 197 242 293 357
#     4  11  23  38  60  89 122 161 205 259 320 383
#     4  11  24  42  65  91 123 164 209 262 319 377
#     4  11  23  38  60  89 122 161 205 259 320 383
#     4  11  24  42  65  91 123 164 209 262 319 377
#     4  10  22  42  65  88 121 169 217 256 309 384
#
# _framework density 21.84235
#
# number of rings (size 3 to 8) (size 9 to 14) (size 15 to 20)
#    0.000    1.286    0.000    6.429    0.000    9.143 
#    0.000    7.143    0.000    0.000    0.000    0.000 
#    0.000    0.000    0.000    0.000    0.000    0.000 
#
# Total GULP energy -311816.737349 kJ/mol
# GULP energy per Si atom -5568.156024 kJ/mol
# Density = 2.179264 g / cm^3
# Si number density = 21.842350 Si / 1000 Ang^3
#
#
#
# Elastic Constant Matrix: (Units=GPa)
#
#
# Indices 1 2 3 4 5 6 
#
# 1 76.2469 41.6154 16.3757 0.0000 0.0000 0.0000
# 2 41.6154 76.2532 16.3753 0.0000 0.0000 0.0000
# 3 16.3757 16.3753 60.4127 0.0000 0.0000 0.0000
# 4 0.0000 0.0000 0.0000 27.5520 0.0000 0.0000
# 5 0.0000 0.0000 0.0000 0.0000 27.5520 0.0000
# 6 0.0000 0.0000 0.0000 0.0000 0.0000 14.4411
#
#
#
# Elastic Compliance Matrix: (Units=1/GPa)
#
#
# Indices 1 2 3 4 5 6 
#
# 1 0.019025 -0.009849 -0.002487 0.000000 0.000000 0.000000
# 2 -0.009849 0.019023 -0.002487 0.000000 0.000000 0.000000
# 3 -0.002487 -0.002487 0.017901 0.000000 0.000000 0.000000
# 4 0.000000 0.000000 0.000000 0.036295 0.000000 0.000000
# 5 0.000000 0.000000 0.000000 0.000000 0.036295 0.000000
# 6 0.000000 0.000000 0.000000 0.000000 0.000000 0.069247
#
#
# Mechanical properties :
#
#
# Convention : Reuss Voigt Hill
#
# Bulk Modulus (GPa) = 38.01777 40.18283 39.10030
# Shear Modulus (GPa) = 21.16853 23.14545 22.15699
#
# Velocity S-wave (km/s) = 3.11650 3.25877 3.18843
# Velocity P-wave (km/s) = 5.51302 5.70930 5.61202
#
# Compressibility (1/GPa) = 0.02630349
#
# Stress axis : x y z
#
# Youngs Moduli (GPa) = 52.56263 52.56739 55.86246
#
# Poissons Ratio (x) = 0.51772 0.13895
# Poissons Ratio (y) = 0.51768 0.13891
# Poissons Ratio (z) = 0.13074 0.13072
#
# Static dielectric constant tensor:
#      x y z
#    x 1.885850 0.000000 0.000000 
#    y 0.000000 1.885870 0.000000 
#    z 0.000000 0.000000 1.817080 
# 
# From -- ./inp_files/1942.got.cif
#   From: 2010.05.17/outbox.cif.g08.bks.cpg/sg113_cif.got.tgz:1942.got - 2010.05.20 11:03:00.
