data_PCOD9555092
_publ_section_title
;
Structure prediction by ZEFSAII (Michael W. Deem and Ramdas Pophale) SiO2 
 PCOD9555092
Probable space group: P -4 2 C
;
_chemical_formula_sum "Si O2"
_cell_formula_units_Z 48
_cell_length_a 9.122445
_cell_length_b 9.122445
_cell_length_c 27.186072
_cell_angle_alpha 90.000000
_cell_angle_beta 90.000000
_cell_angle_gamma 90.000000
_cell_volume 2262.397801
_symmetry_space_group_name_H-M "P -4 2 C"
_symmetry_group_IT_number 112
_symmetry_cell_setting 'tetragonal'
loop_
_space_group_symop_operation_xyz
x,y,z
y,-x,-z
-x,-y,z
-y,x,-z
x,-y,1/2-z
-x,y,1/2-z
-y,-x,1/2+z
y,x,1/2+z
loop_
_atom_site_type_symbol
_atom_site_label
_atom_site_fract_x
_atom_site_fract_y
_atom_site_fract_z
Si Si1 0.500000 0.500000 0.250000
Si Si2 0.500000 0.000000 0.563245
Si Si3 0.673951 0.514666 0.577242
Si Si4 0.141835 0.062975 0.129782
Si Si5 0.250761 0.368454 0.683210
Si Si6 0.179760 0.768126 0.468423
Si Si7 0.227809 0.806766 0.574175
Si Si8 0.000000 0.500000 0.750000
O O1 0.397010 0.606709 0.283031
O O2 0.608519 0.896443 0.532572
O O3 0.377591 0.894129 0.589937
O O4 0.500000 0.500000 0.573208
O O5 0.719332 0.538137 0.634131
O O6 0.740058 0.651093 0.547629
O O7 0.730314 0.358741 0.561373
O O8 0.216020 0.191823 0.160912
O O9 0.111192 0.141591 0.077494
O O10 0.210953 0.907464 0.112224
O O11 0.000000 0.000000 0.156485
O O12 0.110074 0.414444 0.714729
O O13 0.177993 0.855039 0.519395
#
# Coordination Sequence:
#
# PCOD9555092 Si02
#       8
#     2   4   8   8   8   8   8   2
#     4  10  20  42  76 106 140 166 232 296 372 458
#     4  12  22  38  57  88 116 179 236 279 337 392
#     4  11  22  38  61  95 132 167 226 286 341 388
#     4  11  24  42  64  97 141 185 229 283 340 419
#     4  10  22  41  69 105 130 172 217 292 361 426
#     4  11  24  39  61  88 133 186 243 275 332 392
#     4  12  24  38  63  89 138 188 236 281 330 400
#     4  10  20  42  72 102 124 154 224 280 362 426
#
# _framework density 21.216426999999999
#
# number of rings (size 3 to 8) (size 9 to 14) (size 15 to 20)
#    0.000    1.000    4.167    3.000    0.000    3.333 
#    0.000    0.417    0.000    0.000    4.333    0.000 
#    0.000    0.000    0.000    0.000    0.000    0.000 
#
# Total GULP energy -267365.107954 kJ/mol
# GULP energy per Si atom -5570.106416 kJ/mol
# Density = 2.116814 g / cm^3
# Si number density = 21.216427 Si / 1000 Ang^3
#
#
#
# Elastic Constant Matrix: (Units=GPa)
#
#
# Indices 1 2 3 4 5 6 
#
# 1 112.2369 40.4361 28.1239 0.0000 0.0000 0.0000
# 2 40.4361 112.2369 28.1239 0.0000 0.0000 0.0000
# 3 28.1239 28.1239 73.4427 0.0000 0.0000 0.0000
# 4 0.0000 0.0000 0.0000 6.8291 0.0000 0.0000
# 5 0.0000 0.0000 0.0000 0.0000 6.8291 0.0000
# 6 0.0000 0.0000 0.0000 0.0000 0.0000 49.6680
#
#
#
# Elastic Compliance Matrix: (Units=1/GPa)
#
#
# Indices 1 2 3 4 5 6 
#
# 1 0.010777 -0.003151 -0.002920 0.000000 0.000000 0.000000
# 2 -0.003151 0.010777 -0.002920 0.000000 0.000000 0.000000
# 3 -0.002920 -0.002920 0.015853 0.000000 0.000000 0.000000
# 4 0.000000 0.000000 0.000000 0.146432 0.000000 0.000000
# 5 0.000000 0.000000 0.000000 0.000000 0.146432 0.000000
# 6 0.000000 0.000000 0.000000 0.000000 0.000000 0.020134
#
#
# Mechanical properties :
#
#
# Convention : Reuss Voigt Hill
#
# Bulk Modulus (GPa) = 51.48438 54.58715 53.03576
# Shear Modulus (GPa) = 13.33831 26.08076 19.70954
#
# Velocity S-wave (km/s) = 2.51007 3.50990 3.05122
# Velocity P-wave (km/s) = 5.72010 6.49696 6.12087
#
# Compressibility (1/GPa) = 0.01942337
#
# Stress axis : x y z
#
# Youngs Moduli (GPa) = 92.79355 92.79355 63.08129
#
# Poissons Ratio (x) = 0.29237 0.18421
# Poissons Ratio (y) = 0.29237 0.18421
# Poissons Ratio (z) = 0.27098 0.27098
#
# Static dielectric constant tensor:
#      x y z
#    x 1.895070 0.000000 0.000000 
#    y 0.000000 1.895070 0.000000 
#    z 0.000000 0.000000 1.786310 
# 
# From -- ./inp_files/6381.got.cif
#   From: 2010.05.17/outbox.cif.g08.bks.cpg/sg112_4_cif.got.tgz:6381.got - 2010.05.20 10:59:04.
