data_PCOD9555257
_publ_section_title
;
Structure prediction by ZEFSAII (Michael W. Deem and Ramdas Pophale) SiO2 
 PCOD9555257
Probable space group: P -4 2 C
;
_chemical_formula_sum "Si O2"
_cell_formula_units_Z 24
_cell_length_a 11.143392
_cell_length_b 11.143392
_cell_length_c 8.950337
_cell_angle_alpha 90.000000
_cell_angle_beta 90.000000
_cell_angle_gamma 90.000000
_cell_volume 1111.409755
_symmetry_space_group_name_H-M "P -4 2 C"
_symmetry_group_IT_number 112
_symmetry_cell_setting 'tetragonal'
loop_
_space_group_symop_operation_xyz
x,y,z
y,-x,-z
-x,-y,z
-y,x,-z
x,-y,1/2-z
-x,y,1/2-z
-y,-x,1/2+z
y,x,1/2+z
loop_
_atom_site_type_symbol
_atom_site_label
_atom_site_fract_x
_atom_site_fract_y
_atom_site_fract_z
Si Si1 0.000000 0.500000 0.250000
Si Si2 0.693484 0.126984 0.189560
Si Si3 0.500000 0.500000 0.000000
Si Si4 0.259955 0.897734 0.861401
Si Si5 0.685969 0.500000 0.750000
O O1 0.916009 0.594742 0.160517
O O2 0.778867 0.196453 0.304316
O O3 0.591000 0.225054 0.167402
O O4 0.648035 0.000000 0.250000
O O5 0.760922 0.094882 0.036618
O O6 0.452332 0.399070 0.115757
O O7 0.211271 0.000000 0.750000
#
# Coordination Sequence:
#
# PCOD9555257 Si02
#       5
#     2   8   2   8   4
#     4   8  24  44  72  94 132 184 222 278 338 392
#     4  12  25  41  70 103 140 180 234 278 354 411
#     4  10  24  46  64  98 136 190 240 290 360 390
#     4  10  24  44  69 101 139 183 227 286 337 410
#     4  11  25  42  68 100 139 183 230 296 338 427
#
# _framework density 21.594194000000002
#
# number of rings (size 3 to 8) (size 9 to 14) (size 15 to 20)
#    1.000    0.333    0.000    4.500    4.667    6.000 
#    0.000    3.333    0.000    0.000    0.000    0.000 
#    0.000    0.000    0.000    0.000    0.000    0.000 
#
# Total GULP energy -133606.722599 kJ/mol
# GULP energy per Si atom -5566.946775 kJ/mol
# Density = 2.154504 g / cm^3
# Si number density = 21.594194 Si / 1000 Ang^3
#
#
#
# Elastic Constant Matrix: (Units=GPa)
#
#
# Indices 1 2 3 4 5 6 
#
# 1 67.2950 17.9081 9.7143 0.0000 0.0000 0.0000
# 2 17.9081 67.2950 9.7143 0.0000 0.0000 0.0000
# 3 9.7143 9.7143 128.8826 0.0000 0.0000 0.0000
# 4 0.0000 0.0000 0.0000 18.4699 0.0000 0.0000
# 5 0.0000 0.0000 0.0000 0.0000 18.4699 0.0000
# 6 0.0000 0.0000 0.0000 0.0000 0.0000 -442.6163
#
#
#
# Elastic Compliance Matrix: (Units=1/GPa)
#
#
# Indices 1 2 3 4 5 6 
#
# 1 0.016095 -0.004153 -0.000900 0.000000 0.000000 0.000000
# 2 -0.004153 0.016095 -0.000900 0.000000 0.000000 0.000000
# 3 -0.000900 -0.000900 0.007895 0.000000 0.000000 0.000000
# 4 0.000000 0.000000 0.000000 0.054142 0.000000 0.000000
# 5 0.000000 0.000000 0.000000 0.000000 0.054142 0.000000
# 6 0.000000 0.000000 0.000000 0.000000 0.000000 -0.002259
#
#
# Mechanical properties :
#
#
# Convention : Reuss Voigt Hill
#
# Bulk Modulus (GPa) = 35.48855 37.57178 36.53016
# Shear Modulus (GPa) = 29.86695 -66.05957 -18.09631
#
# Velocity S-wave (km/s) = 3.72304 -5.53695 -2.89799
# Velocity P-wave (km/s) = 5.91197 4.84151 2.39908
#
# Compressibility (1/GPa) = 0.02817811
#
# Stress axis : x y z
#
# Youngs Moduli (GPa) = 62.13071 62.13071 126.66752
#
# Poissons Ratio (x) = 0.25804 0.11401
# Poissons Ratio (y) = 0.25804 0.11401
# Poissons Ratio (z) = 0.05592 0.05592
#
# Static dielectric constant tensor:
#      x y z
#    x 1.828880 0.000000 0.000000 
#    y 0.000000 1.828880 0.000000 
#    z 0.000000 0.000000 1.893640 
# 
# From -- ./inp_files/888.got.cif
#   From: 2010.05.17/outbox.cif.g08.bks.cpg/sg112_1_cif.got.tgz:888.got - 2010.05.20 10:59:04.
