data_PCOD9555832
_publ_section_title
;
Structure prediction by ZEFSAII (Michael W. Deem and Ramdas Pophale) SiO2 
 PCOD9555832
Probable space group: P -4 21 C
;
_chemical_formula_sum "Si O2"
_cell_formula_units_Z 56
_cell_length_a 11.982476
_cell_length_b 11.982476
_cell_length_c 22.056505
_cell_angle_alpha 90.000000
_cell_angle_beta 90.000000
_cell_angle_gamma 90.000000
_cell_volume 3166.867057
_symmetry_space_group_name_H-M "P -4 21 C"
_symmetry_group_IT_number 114
_symmetry_cell_setting 'tetragonal'
loop_
_space_group_symop_operation_xyz
x,y,z
y,-x,-z
-x,-y,z
-y,x,-z
1/2+x,1/2-y,1/2-z
1/2-x,1/2+y,1/2-z
1/2-y,1/2-x,1/2+z
1/2+y,1/2+x,1/2+z
loop_
_atom_site_type_symbol
_atom_site_label
_atom_site_fract_x
_atom_site_fract_y
_atom_site_fract_z
Si Si1 0.883092 0.560112 0.071413
Si Si2 0.597311 0.262791 0.155725
Si Si3 0.880575 0.961189 0.753862
Si Si4 0.322560 0.455777 0.982534
Si Si5 0.942770 0.722877 0.167349
Si Si6 0.098526 0.678283 0.683291
Si Si7 0.096452 0.300585 0.768251
O O1 0.908758 0.681092 0.101065
O O2 0.833359 0.487519 0.127279
O O3 0.000000 0.500000 0.054209
O O4 0.790516 0.562352 0.020094
O O5 0.496755 0.295696 0.200806
O O6 0.564875 0.294549 0.087828
O O7 0.708092 0.333402 0.174478
O O8 0.636921 0.136986 0.171217
O O9 0.882200 0.831220 0.768815
O O10 0.849247 0.034615 0.813122
O O11 0.000000 0.000000 0.730560
O O12 0.371753 0.579491 0.995398
O O13 0.854753 0.672625 0.215062
O O14 0.064098 0.667820 0.180302
O O15 0.028902 0.680387 0.745436
#
# Coordination Sequence:
#
# PCOD9555832 Si02
#       7
#     8   8   8   8   8   8   8
#     4   9  19  38  62  77 105 154 202 228 273 351
#     4  11  22  34  54  89 119 148 182 242 287 345
#     4  11  21  32  55  86 119 144 183 232 298 343
#     4  11  24  36  60  91 117 151 193 248 299 335
#     4   9  20  35  57  81 105 159 196 225 277 353
#     4  10  17  36  57  79 111 152 192 224 282 350
#     4  10  20  33  54  81 115 146 184 233 279 341
#
# _framework density 17.68309
#
# number of rings (size 3 to 8) (size 9 to 14) (size 15 to 20)
#    0.000    1.857    4.286    1.286    6.000    0.000 
#    0.000    2.857    3.143    0.000    0.000    0.000 
#    0.000    0.000    0.000    0.000    0.000    0.000 
#
# Total GULP energy -312033.701821 kJ/mol
# GULP energy per Si atom -5572.030390 kJ/mol
# Density = 1.764284 g / cm^3
# Si number density = 17.683090 Si / 1000 Ang^3
#
#
#
# Elastic Constant Matrix: (Units=GPa)
#
#
# Indices 1 2 3 4 5 6 
#
# 1 47.5753 1.3737 34.6155 0.0000 0.0000 0.0000
# 2 1.3737 47.5753 34.6155 0.0000 0.0000 0.0000
# 3 34.6155 34.6155 96.7734 0.0000 0.0000 0.0000
# 4 0.0000 0.0000 0.0000 24.7043 0.0000 0.0000
# 5 0.0000 0.0000 0.0000 0.0000 24.7043 0.0000
# 6 0.0000 0.0000 0.0000 0.0000 0.0000 14.0151
#
#
#
# Elastic Compliance Matrix: (Units=1/GPa)
#
#
# Indices 1 2 3 4 5 6 
#
# 1 0.031496 0.009852 -0.014790 0.000000 0.000000 0.000000
# 2 0.009852 0.031496 -0.014790 0.000000 0.000000 0.000000
# 3 -0.014790 -0.014790 0.020914 0.000000 0.000000 0.000000
# 4 0.000000 0.000000 0.000000 0.040479 0.000000 0.000000
# 5 0.000000 0.000000 0.000000 0.000000 0.040479 0.000000
# 6 0.000000 0.000000 0.000000 0.000000 0.000000 0.071352
#
#
# Mechanical properties :
#
#
# Convention : Reuss Voigt Hill
#
# Bulk Modulus (GPa) = 22.49745 37.01481 29.75613
# Shear Modulus (GPa) = 17.21245 20.77271 18.99258
#
# Velocity S-wave (km/s) = 3.12330 3.43114 3.28083
# Velocity P-wave (km/s) = 5.07512 6.05597 5.58711
#
# Compressibility (1/GPa) = 0.04444949
#
# Stress axis : x y z
#
# Youngs Moduli (GPa) = 31.75024 31.75024 47.81499
#
# Poissons Ratio (x) = -0.31279 0.70717
# Poissons Ratio (y) = -0.31279 0.70717
# Poissons Ratio (z) = 0.46958 0.46958
#
# Static dielectric constant tensor:
#      x y z
#    x 1.641190 0.000000 0.000000 
#    y 0.000000 1.641190 0.000000 
#    z 0.000000 0.000000 1.595500 
# 
# From -- ./inp_files/3131.got.cif
#   From: 2010.05.17/outbox.cif.g08.bks.cpg/sg114_2_cif.got.tgz:3131.got - 2010.05.20 11:04:54.
