data_PCOD9555755
_publ_section_title
;
Structure prediction by ZEFSAII (Michael W. Deem and Ramdas Pophale) SiO2 
 PCOD9555755
Probable space group: P -4 21 M 
;
_chemical_formula_sum "Si O2"
_cell_formula_units_Z 56
_cell_length_a 15.561397
_cell_length_b 15.561397
_cell_length_c 12.576984
_cell_angle_alpha 90.000000
_cell_angle_beta 90.000000
_cell_angle_gamma 90.000000
_cell_volume 3045.605678
_symmetry_space_group_name_H-M "P -4 21 M "
_symmetry_group_IT_number 113
_symmetry_cell_setting 'tetragonal'
loop_
_space_group_symop_operation_xyz
x,y,z
y,-x,-z
-x,-y,z
-y,x,-z
1/2+x,1/2-y,-z
1/2-x,1/2+y,-z
1/2-y,1/2-x,z
1/2+y,1/2+x,z
loop_
_atom_site_type_symbol
_atom_site_label
_atom_site_fract_x
_atom_site_fract_y
_atom_site_fract_z
Si Si1 0.493423 0.859134 0.036206
Si Si2 0.894442 0.911611 0.791721
Si Si3 0.640491 0.007027 0.284511
Si Si4 0.607734 0.415328 0.461161
Si Si5 0.624158 0.731898 0.363534
Si Si6 0.627782 0.728224 0.966527
Si Si7 0.387759 0.592193 0.834076
O O1 0.564859 0.935142 0.033848
O O2 0.484154 0.834247 0.160490
O O3 0.404325 0.904325 0.000710
O O4 0.537892 0.781512 0.974000
O O5 0.891011 0.903359 0.664829
O O6 0.820319 0.863217 0.855252
O O7 0.988547 0.883245 0.830293
O O8 0.885974 0.012145 0.822810
O O9 0.565380 0.934621 0.286516
O O10 0.717655 0.966616 0.350738
O O11 0.595348 0.095348 0.319959
O O12 0.516410 0.386642 0.509560
O O13 0.683810 0.370311 0.524903
O O14 0.698876 0.801125 0.349667
O O15 0.626290 0.663545 0.268204
O O16 0.703735 0.796266 0.984794
O O17 0.625252 0.657670 0.059743
#
# Coordination Sequence:
#
# PCOD9555755 Si02
#       7
#     8   8   8   8   8   8   8
#     4   8  14  27  49  75 106 149 191 222 268 341
#     4  11  23  39  63  83 114 158 203 242 293 362
#     4   8  14  27  49  78 110 145 186 229 279 341
#     4  11  20  40  63  84 110 152 203 249 294 350
#     4  11  20  33  61  91 117 150 195 254 305 346
#     4  11  22  36  57  88 128 156 186 245 303 351
#     4  11  20  40  62  86 110 155 204 242 288 356
#
# _framework density 18.387148
#
# number of rings (size 3 to 8) (size 9 to 14) (size 15 to 20)
#    0.000    1.857    4.286    3.000    0.000    1.714 
#    0.000    5.000    0.000    0.000    0.000    4.000 
#    0.000    0.000    0.000    0.000    0.000    0.000 
#
# Total GULP energy -312528.212882 kJ/mol
# GULP energy per Si atom -5580.860944 kJ/mol
# Density = 1.834530 g / cm^3
# Si number density = 18.387148 Si / 1000 Ang^3
#
#
#
# Elastic Constant Matrix: (Units=GPa)
#
#
# Indices 1 2 3 4 5 6 
#
# 1 62.1292 18.3099 25.7311 0.0000 0.0000 0.0000
# 2 18.3099 62.1285 25.7307 0.0000 0.0000 0.0000
# 3 25.7311 25.7307 99.7593 0.0000 0.0000 0.0000
# 4 0.0000 0.0000 0.0000 17.9638 0.0000 0.0000
# 5 0.0000 0.0000 0.0000 0.0000 17.9637 0.0000
# 6 0.0000 0.0000 0.0000 0.0000 0.0000 16.7969
#
#
#
# Elastic Compliance Matrix: (Units=1/GPa)
#
#
# Indices 1 2 3 4 5 6 
#
# 1 0.018855 -0.003966 -0.003840 0.000000 0.000000 0.000000
# 2 -0.003966 0.018855 -0.003840 0.000000 0.000000 0.000000
# 3 -0.003840 -0.003840 0.012005 0.000000 0.000000 0.000000
# 4 0.000000 0.000000 0.000000 0.055668 0.000000 0.000000
# 5 0.000000 0.000000 0.000000 0.000000 0.055668 0.000000
# 6 0.000000 0.000000 0.000000 0.000000 0.000000 0.059535
#
#
# Mechanical properties :
#
#
# Convention : Reuss Voigt Hill
#
# Bulk Modulus (GPa) = 37.84792 40.39562 39.12177
# Shear Modulus (GPa) = 19.78740 20.82788 20.30764
#
# Velocity S-wave (km/s) = 3.28404 3.36927 3.32693
# Velocity P-wave (km/s) = 5.91679 6.09534 6.00673
#
# Compressibility (1/GPa) = 0.02642153
#
# Stress axis : x y z
#
# Youngs Moduli (GPa) = 53.03681 53.03634 83.29766
#
# Poissons Ratio (x) = 0.21036 0.31988
# Poissons Ratio (y) = 0.21036 0.31988
# Poissons Ratio (z) = 0.20367 0.20367
#
# Static dielectric constant tensor:
#      x y z
#    x 1.662380 0.000000 0.000000 
#    y 0.000000 1.662380 0.000000 
#    z 0.000000 0.000000 1.605030 
# 
# From -- ./inp_files/1911.got.cif
#   From: 2010.05.17/outbox.cif.g08.bks.cpg/sg113_cif.got.tgz:1911.got - 2010.05.20 11:03:00.
