data_PCOD9555222
_publ_section_title
;
Structure prediction by ZEFSAII (Michael W. Deem and Ramdas Pophale) SiO2 
 PCOD9555222
Probable space group: P -4 2 C
;
_chemical_formula_sum "Si O2"
_cell_formula_units_Z 56
_cell_length_a 15.718348
_cell_length_b 15.718348
_cell_length_c 8.912844
_cell_angle_alpha 90.000000
_cell_angle_beta 90.000000
_cell_angle_gamma 90.000000
_cell_volume 2202.064850
_symmetry_space_group_name_H-M "P -4 2 C"
_symmetry_group_IT_number 112
_symmetry_cell_setting 'tetragonal'
loop_
_space_group_symop_operation_xyz
x,y,z
y,-x,-z
-x,-y,z
-y,x,-z
x,-y,1/2-z
-x,y,1/2-z
-y,-x,1/2+z
y,x,1/2+z
loop_
_atom_site_type_symbol
_atom_site_label
_atom_site_fract_x
_atom_site_fract_y
_atom_site_fract_z
Si Si1 0.262734 0.667203 0.889421
Si Si2 0.015093 0.218866 0.071394
Si Si3 0.242286 0.208397 0.840568
Si Si4 0.137313 0.914700 0.335494
Si Si5 0.378204 0.557759 0.495242
Si Si6 0.492257 0.807890 0.077782
Si Si7 0.910040 0.377100 0.340002
O O1 0.157364 0.500000 0.750000
O O2 0.231834 0.746786 0.987381
O O3 0.210401 0.590395 0.958522
O O4 0.362715 0.647007 0.891917
O O5 0.000000 0.228079 0.250000
O O6 0.063704 0.129870 0.070169
O O7 0.063308 0.305581 0.038031
O O8 0.940590 0.210206 0.953173
O O9 0.155570 0.166309 0.784566
O O10 0.240582 0.303311 0.774007
O O11 0.322500 0.154939 0.768373
O O12 0.111872 0.000000 0.250000
O O13 0.593091 0.534215 0.429049
O O14 0.290457 0.541542 0.583544
O O15 0.448372 0.861622 0.942084
O O16 0.000000 0.401367 0.250000
#
# Coordination Sequence:
#
# PCOD9555222 Si02
#       7
#     8   8   8   8   8   8   8
#     4  11  24  43  75 112 153 208 258 317 390 465
#     4  10  23  42  70 105 145 189 247 317 396 474
#     4  11  26  45  74 107 150 206 257 322 394 477
#     4  11  25  40  70 105 145 191 246 321 399 473
#     4   9  19  40  68 113 162 197 242 307 387 471
#     4  11  23  45  77 118 157 205 265 329 391 470
#     4  10  24  47  78 105 155 206 269 319 393 482
#
# _framework density 25.430678
#
# number of rings (size 3 to 8) (size 9 to 14) (size 15 to 20)
#    0.000    1.571    1.429    1.714   10.000    2.286 
#    0.000   11.429    0.000    2.571    0.000    0.000 
#    0.000    0.000    0.000    0.000    0.000    0.000 
#
# Total GULP energy -312223.774293 kJ/mol
# GULP energy per Si atom -5575.424541 kJ/mol
# Density = 2.537280 g / cm^3
# Si number density = 25.430678 Si / 1000 Ang^3
#
#
#
# Elastic Constant Matrix: (Units=GPa)
#
#
# Indices 1 2 3 4 5 6 
#
# 1 131.3959 53.4793 34.4733 0.0000 0.0000 0.0000
# 2 53.4793 131.3959 34.4733 0.0000 0.0000 0.0000
# 3 34.4733 34.4733 95.8080 0.0000 0.0000 0.0000
# 4 0.0000 0.0000 0.0000 33.2153 0.0000 0.0000
# 5 0.0000 0.0000 0.0000 0.0000 33.2153 0.0000
# 6 0.0000 0.0000 0.0000 0.0000 0.0000 43.2990
#
#
#
# Elastic Compliance Matrix: (Units=1/GPa)
#
#
# Indices 1 2 3 4 5 6 
#
# 1 0.009541 -0.003293 -0.002248 0.000000 0.000000 0.000000
# 2 -0.003293 0.009541 -0.002248 0.000000 0.000000 0.000000
# 3 -0.002248 -0.002248 0.012055 0.000000 0.000000 0.000000
# 4 0.000000 0.000000 0.000000 0.030107 0.000000 0.000000
# 5 0.000000 0.000000 0.000000 0.000000 0.030107 0.000000
# 6 0.000000 0.000000 0.000000 0.000000 0.000000 0.023095
#
#
# Mechanical properties :
#
#
# Convention : Reuss Voigt Hill
#
# Bulk Modulus (GPa) = 64.27426 67.05020 65.66223
# Shear Modulus (GPa) = 36.97956 37.69085 37.33521
#
# Velocity S-wave (km/s) = 3.81745 3.85398 3.83576
# Velocity P-wave (km/s) = 6.69027 6.79907 6.74489
#
# Compressibility (1/GPa) = 0.01555833
#
# Stress axis : x y z
#
# Youngs Moduli (GPa) = 104.81291 104.81291 82.95160
#
# Poissons Ratio (x) = 0.34519 0.18647
# Poissons Ratio (y) = 0.34519 0.18647
# Poissons Ratio (z) = 0.23561 0.23561
#
# Static dielectric constant tensor:
#      x y z
#    x 2.104600 0.000000 0.000000 
#    y 0.000000 2.104600 0.000000 
#    z 0.000000 0.000000 1.996230 
# 
# From -- ./inp_files/2659.got.cif
#   From: 2010.05.17/outbox.cif.g08.bks.cpg/sg112_2_cif.got.tgz:2659.got - 2010.05.20 10:59:04.
