data_PCOD9555952
_publ_section_title
;
Structure prediction by ZEFSAII (Michael W. Deem and Ramdas Pophale) SiO2 
 PCOD9555952
Probable space group: P -4 21 C
;
_chemical_formula_sum "Si O2"
_cell_formula_units_Z 48
_cell_length_a 12.302944
_cell_length_b 12.302944
_cell_length_c 14.077634
_cell_angle_alpha 90.000000
_cell_angle_beta 90.000000
_cell_angle_gamma 90.000000
_cell_volume 2130.824906
_symmetry_space_group_name_H-M "P -4 21 C"
_symmetry_group_IT_number 114
_symmetry_cell_setting 'tetragonal'
loop_
_space_group_symop_operation_xyz
x,y,z
y,-x,-z
-x,-y,z
-y,x,-z
1/2+x,1/2-y,1/2-z
1/2-x,1/2+y,1/2-z
1/2-y,1/2-x,1/2+z
1/2+y,1/2+x,1/2+z
loop_
_atom_site_type_symbol
_atom_site_label
_atom_site_fract_x
_atom_site_fract_y
_atom_site_fract_z
Si Si1 0.794544 0.778021 0.997700
Si Si2 0.414815 0.916570 0.430879
Si Si3 0.425714 0.241617 0.317418
Si Si4 0.234934 0.566184 0.204702
Si Si5 0.414461 0.583384 0.343042
Si Si6 0.854434 0.896665 0.480038
O O1 0.857538 0.662732 0.994036
O O2 0.855922 0.847612 0.076298
O O3 0.786585 0.849110 0.902785
O O4 0.674952 0.737714 0.031244
O O5 0.489820 0.841484 0.365200
O O6 0.500000 0.000000 0.476823
O O7 0.333087 0.979606 0.358558
O O8 0.345035 0.162287 0.259382
O O9 0.504514 0.337559 0.281491
O O10 0.316879 0.526477 0.285338
O O11 0.318075 0.616642 0.128285
O O12 0.500000 0.500000 0.385217
O O13 0.976152 0.855414 0.496334
#
# Coordination Sequence:
#
# PCOD9555952 Si02
#       6
#     8   8   8   8   8   8
#     4  10  21  40  63  91 125 173 214 261 323 396
#     4   9  18  37  65  86 125 163 209 265 319 377
#     4   9  22  40  64  85 124 174 213 259 320 392
#     4  10  21  40  60  94 121 168 211 262 340 366
#     4  11  26  37  61  92 131 167 212 272 318 396
#     4  10  20  35  64  97 125 159 210 271 318 392
#
# _framework density 22.526485999999998
#
# number of rings (size 3 to 8) (size 9 to 14) (size 15 to 20)
#    0.000    2.167    1.667    0.000    7.000    4.000 
#    0.000    0.000    0.000    9.000    0.000    0.000 
#    0.000    0.000    0.000    0.000    0.000    0.000 
#
# Total GULP energy -267407.361694 kJ/mol
# GULP energy per Si atom -5570.986702 kJ/mol
# Density = 2.247522 g / cm^3
# Si number density = 22.526486 Si / 1000 Ang^3
#
#
#
# Elastic Constant Matrix: (Units=GPa)
#
#
# Indices 1 2 3 4 5 6 
#
# 1 114.2483 70.8751 33.7979 0.0000 0.0000 0.0000
# 2 70.8751 114.2483 33.7979 0.0000 0.0000 0.0000
# 3 33.7979 33.7979 27.9709 0.0000 0.0000 0.0000
# 4 0.0000 0.0000 0.0000 15.3592 0.0000 0.0000
# 5 0.0000 0.0000 0.0000 0.0000 15.3592 0.0000
# 6 0.0000 0.0000 0.0000 0.0000 0.0000 60.9129
#
#
#
# Elastic Compliance Matrix: (Units=1/GPa)
#
#
# Indices 1 2 3 4 5 6 
#
# 1 0.016361 -0.006694 -0.011681 0.000000 0.000000 0.000000
# 2 -0.006694 0.016361 -0.011681 0.000000 0.000000 0.000000
# 3 -0.011681 -0.011681 0.063980 0.000000 0.000000 0.000000
# 4 0.000000 0.000000 0.000000 0.065108 0.000000 0.000000
# 5 0.000000 0.000000 0.000000 0.000000 0.065108 0.000000
# 6 0.000000 0.000000 0.000000 0.000000 0.000000 0.016417
#
#
# Mechanical properties :
#
#
# Convention : Reuss Voigt Hill
#
# Bulk Modulus (GPa) = 27.32947 59.26770 43.29858
# Shear Modulus (GPa) = 15.84068 26.19270 21.01669
#
# Velocity S-wave (km/s) = 2.65467 3.41361 3.05778
# Velocity P-wave (km/s) = 4.64272 6.47336 5.63290
#
# Compressibility (1/GPa) = 0.03659054
#
# Stress axis : x y z
#
# Youngs Moduli (GPa) = 61.11972 61.11972 15.62995
#
# Poissons Ratio (x) = 0.40916 0.18257
# Poissons Ratio (y) = 0.40916 0.18257
# Poissons Ratio (z) = 0.71392 0.71392
#
# Static dielectric constant tensor:
#      x y z
#    x 1.899210 0.000000 0.000000 
#    y 0.000000 1.899210 0.000000 
#    z 0.000000 0.000000 1.806920 
# 
# From -- ./inp_files/2647.got.cif
#   From: 2010.05.17/outbox.cif.g08.bks.cpg/sg114_2_cif.got.tgz:2647.got - 2010.05.20 11:04:54.
