data_PCOD9555996
_publ_section_title
;
Structure prediction by ZEFSAII (Michael W. Deem and Ramdas Pophale) SiO2 
 PCOD9555996
Probable space group: P -4 21 C
;
_chemical_formula_sum "Si O2"
_cell_formula_units_Z 48
_cell_length_a 8.388462
_cell_length_b 8.388462
_cell_length_c 30.394618
_cell_angle_alpha 90.000000
_cell_angle_beta 90.000000
_cell_angle_gamma 90.000000
_cell_volume 2138.756648
_symmetry_space_group_name_H-M "P -4 21 C"
_symmetry_group_IT_number 114
_symmetry_cell_setting 'tetragonal'
loop_
_space_group_symop_operation_xyz
x,y,z
y,-x,-z
-x,-y,z
-y,x,-z
1/2+x,1/2-y,1/2-z
1/2-x,1/2+y,1/2-z
1/2-y,1/2-x,1/2+z
1/2+y,1/2+x,1/2+z
loop_
_atom_site_type_symbol
_atom_site_label
_atom_site_fract_x
_atom_site_fract_y
_atom_site_fract_z
Si Si1 0.305364 0.357352 0.896268
Si Si2 0.624539 0.265033 0.007000
Si Si3 0.951250 0.178462 0.269457
Si Si4 0.397043 0.844803 0.915932
Si Si5 0.810064 0.309324 0.850298
Si Si6 0.248284 0.338527 0.313644
O O1 0.219122 0.331792 0.943173
O O2 0.488547 0.313544 0.909483
O O3 0.238603 0.524109 0.875425
O O4 0.276773 0.241417 0.855232
O O5 0.433835 0.295122 0.005834
O O6 0.659470 0.149828 0.966524
O O7 0.812065 0.220594 0.303628
O O8 0.895163 0.178088 0.219373
O O9 0.095478 0.293470 0.283331
O O10 0.000000 0.000000 0.280637
O O11 0.252871 0.824883 0.882673
O O12 0.500000 0.000000 0.907501
O O13 0.991359 0.284925 0.836007
#
# Coordination Sequence:
#
# PCOD9555996 Si02
#       6
#     8   8   8   8   8   8
#     4  10  20  40  66  93 127 176 223 274 332 414
#     4   9  17  35  64  93 124 168 221 274 321 390
#     4  11  23  42  65  92 130 168 222 276 335 412
#     4  11  23  37  61 100 135 171 221 281 347 398
#     4  11  22  42  65  94 131 169 226 278 332 406
#     4  11  25  42  67  98 128 176 221 283 347 409
#
# _framework density 22.442945000000002
#
# number of rings (size 3 to 8) (size 9 to 14) (size 15 to 20)
#    0.000    1.500    1.667    5.500    0.000    4.000 
#    0.000    3.333    0.000    0.000    0.000    0.000 
#    0.000    0.000    0.000    0.000    0.000    0.000 
#
# Total GULP energy -267807.867992 kJ/mol
# GULP energy per Si atom -5579.330583 kJ/mol
# Density = 2.239186 g / cm^3
# Si number density = 22.442945 Si / 1000 Ang^3
#
#
#
# Elastic Constant Matrix: (Units=GPa)
#
#
# Indices 1 2 3 4 5 6 
#
# 1 50.5377 13.1368 36.9011 0.0000 0.0000 0.0000
# 2 13.1368 50.5377 36.9011 0.0000 0.0000 0.0000
# 3 36.9011 36.9011 157.3776 0.0000 0.0000 0.0000
# 4 0.0000 0.0000 0.0000 20.2938 0.0000 0.0000
# 5 0.0000 0.0000 0.0000 0.0000 20.2938 0.0000
# 6 0.0000 0.0000 0.0000 0.0000 0.0000 15.5358
#
#
#
# Elastic Compliance Matrix: (Units=1/GPa)
#
#
# Indices 1 2 3 4 5 6 
#
# 1 0.024152 -0.002586 -0.005057 0.000000 0.000000 0.000000
# 2 -0.002586 0.024152 -0.005057 0.000000 0.000000 0.000000
# 3 -0.005057 -0.005057 0.008725 0.000000 0.000000 0.000000
# 4 0.000000 0.000000 0.000000 0.049276 0.000000 0.000000
# 5 0.000000 0.000000 0.000000 0.000000 0.049276 0.000000
# 6 0.000000 0.000000 0.000000 0.000000 0.000000 0.064368
#
#
# Mechanical properties :
#
#
# Convention : Reuss Voigt Hill
#
# Bulk Modulus (GPa) = 31.61504 48.03677 39.82590
# Shear Modulus (GPa) = 19.53964 22.65893 21.09929
#
# Velocity S-wave (km/s) = 2.95386 3.18091 3.06948
# Velocity P-wave (km/s) = 5.07456 5.91112 5.50874
#
# Compressibility (1/GPa) = 0.03163052
#
# Stress axis : x y z
#
# Youngs Moduli (GPa) = 41.40517 41.40517 114.60712
#
# Poissons Ratio (x) = 0.10706 0.57953
# Poissons Ratio (y) = 0.10706 0.57953
# Poissons Ratio (z) = 0.20937 0.20937
#
# Static dielectric constant tensor:
#      x y z
#    x 1.814020 0.000000 0.000000 
#    y 0.000000 1.814020 0.000000 
#    z 0.000000 0.000000 1.834170 
# 
# From -- ./inp_files/3934.got.cif
#   From: 2010.05.17/outbox.cif.g08.bks.cpg/sg114_2_cif.got.tgz:3934.got - 2010.05.20 11:04:54.
