data_PCOD9555098
_publ_section_title
;
Structure prediction by ZEFSAII (Michael W. Deem and Ramdas Pophale) SiO2 
 PCOD9555098
Probable space group: P -4 2 C
;
_chemical_formula_sum "Si O2"
_cell_formula_units_Z 56
_cell_length_a 10.810602
_cell_length_b 10.810602
_cell_length_c 24.265625
_cell_angle_alpha 90.000000
_cell_angle_beta 90.000000
_cell_angle_gamma 90.000000
_cell_volume 2835.902133
_symmetry_space_group_name_H-M "P -4 2 C"
_symmetry_group_IT_number 112
_symmetry_cell_setting 'tetragonal'
loop_
_space_group_symop_operation_xyz
x,y,z
y,-x,-z
-x,-y,z
-y,x,-z
x,-y,1/2-z
-x,y,1/2-z
-y,-x,1/2+z
y,x,1/2+z
loop_
_atom_site_type_symbol
_atom_site_label
_atom_site_fract_x
_atom_site_fract_y
_atom_site_fract_z
Si Si1 0.452941 0.364332 0.881941
Si Si2 0.349650 0.005020 0.982874
Si Si3 0.367123 0.262669 0.780183
Si Si4 0.645384 0.745511 0.468652
Si Si5 0.752249 0.296841 0.334422
Si Si6 0.228750 0.364119 0.559601
Si Si7 0.648215 0.022698 0.645222
O O1 0.500000 0.500000 0.898229
O O2 0.379016 0.373087 0.824006
O O3 0.360500 0.305020 0.926791
O O4 0.568813 0.281872 0.861794
O O5 0.500000 0.000000 0.981753
O O6 0.311773 0.021294 0.919193
O O7 0.305029 0.881160 0.014454
O O8 0.315496 0.122859 0.019032
O O9 0.500000 0.236312 0.750000
O O10 0.284595 0.294739 0.727569
O O11 0.329829 0.143534 0.817130
O O12 0.511179 0.770775 0.442700
O O13 0.645831 0.679500 0.528363
O O14 0.691124 0.211158 0.380332
O O15 0.899684 0.289962 0.330553
O O16 0.500000 0.000000 0.646173
#
# Coordination Sequence:
#
# PCOD9555098 Si02
#       7
#     8   8   8   8   8   8   8
#     4  11  21  33  49  76 113 148 178 215 268 337
#     4   9  21  34  53  74 108 143 186 224 261 328
#     4  10  21  31  51  77 114 148 180 224 273 329
#     4  11  21  34  53  79 108 151 179 221 279 334
#     4  11  21  32  50  82 110 145 178 222 273 328
#     4  11  21  35  51  78 111 141 186 224 276 330
#     4  11  17  32  50  77 107 142 180 223 267 323
#
# _framework density 19.746804000000001
#
# number of rings (size 3 to 8) (size 9 to 14) (size 15 to 20)
#    0.000    1.429    5.714    2.143    2.000    2.571 
#    0.000    0.000    0.000    1.286    0.000    3.000 
#    0.000    7.714    0.000    0.000    0.000    0.000 
#
# Total GULP energy -311847.274314 kJ/mol
# GULP energy per Si atom -5568.701327 kJ/mol
# Density = 1.970186 g / cm^3
# Si number density = 19.746804 Si / 1000 Ang^3
#
#
#
# Elastic Constant Matrix: (Units=GPa)
#
#
# Indices 1 2 3 4 5 6 
#
# 1 41.9779 4.8359 15.0525 0.0000 0.0000 0.0000
# 2 4.8359 41.9779 15.0525 0.0000 0.0000 0.0000
# 3 15.0525 15.0525 153.1571 0.0000 0.0000 0.0000
# 4 0.0000 0.0000 0.0000 24.2868 0.0000 0.0000
# 5 0.0000 0.0000 0.0000 0.0000 24.2868 0.0000
# 6 0.0000 0.0000 0.0000 0.0000 0.0000 7.8426
#
#
#
# Elastic Compliance Matrix: (Units=1/GPa)
#
#
# Indices 1 2 3 4 5 6 
#
# 1 0.024863 -0.002061 -0.002241 0.000000 0.000000 0.000000
# 2 -0.002061 0.024863 -0.002241 0.000000 0.000000 0.000000
# 3 -0.002241 -0.002241 0.006970 0.000000 0.000000 0.000000
# 4 0.000000 0.000000 0.000000 0.041175 0.000000 0.000000
# 5 0.000000 0.000000 0.000000 0.000000 0.041175 0.000000
# 6 0.000000 0.000000 0.000000 0.000000 0.000000 0.127508
#
#
# Mechanical properties :
#
#
# Convention : Reuss Voigt Hill
#
# Bulk Modulus (GPa) = 22.93032 34.11052 28.52042
# Shear Modulus (GPa) = 16.99666 24.76138 20.87902
#
# Velocity S-wave (km/s) = 2.93700 3.54495 3.25520
# Velocity P-wave (km/s) = 4.81027 5.83669 5.34816
#
# Compressibility (1/GPa) = 0.04361038
#
# Stress axis : x y z
#
# Youngs Moduli (GPa) = 40.22031 40.22031 143.47708
#
# Poissons Ratio (x) = 0.08288 0.32154
# Poissons Ratio (y) = 0.08288 0.32154
# Poissons Ratio (z) = 0.09014 0.09014
#
# Static dielectric constant tensor:
#      x y z
#    x 1.754950 0.000000 0.000000 
#    y 0.000000 1.754950 0.000000 
#    z 0.000000 0.000000 1.755390 
# 
# From -- ./inp_files/5532.got.cif
#   From: 2010.05.17/outbox.cif.g08.bks.cpg/sg112_3_cif.got.tgz:5532.got - 2010.05.20 10:59:04.
