data_PCOD9555069
_publ_section_title
;
Structure prediction by ZEFSAII (Michael W. Deem and Ramdas Pophale) SiO2 
 PCOD9555069
Probable space group: P -4 2 C
;
_chemical_formula_sum "Si O2"
_cell_formula_units_Z 48
_cell_length_a 12.078891
_cell_length_b 12.078891
_cell_length_c 15.693113
_cell_angle_alpha 90.000000
_cell_angle_beta 90.000000
_cell_angle_gamma 90.000000
_cell_volume 2289.619032
_symmetry_space_group_name_H-M "P -4 2 C"
_symmetry_group_IT_number 112
_symmetry_cell_setting 'tetragonal'
loop_
_space_group_symop_operation_xyz
x,y,z
y,-x,-z
-x,-y,z
-y,x,-z
x,-y,1/2-z
-x,y,1/2-z
-y,-x,1/2+z
y,x,1/2+z
loop_
_atom_site_type_symbol
_atom_site_label
_atom_site_fract_x
_atom_site_fract_y
_atom_site_fract_z
Si Si1 0.616213 0.089434 0.325587
Si Si2 0.220909 0.697146 0.068094
Si Si3 0.384046 0.110250 0.419674
Si Si4 0.380403 0.974404 0.892040
Si Si5 0.273499 0.246676 0.625583
Si Si6 0.369577 0.500238 0.146691
O O1 0.498088 0.128326 0.366087
O O2 0.693702 0.192004 0.308185
O O3 0.609546 0.000000 0.250000
O O4 0.664520 0.009108 0.397006
O O5 0.292784 0.800307 0.101689
O O6 0.297188 0.594077 0.099212
O O7 0.093992 0.676852 0.095858
O O8 0.222049 0.726790 0.967328
O O9 0.410780 0.092082 0.519303
O O10 0.301123 0.880561 0.851969
O O11 0.500000 0.000000 0.851143
O O12 0.385995 0.314257 0.621657
O O13 0.500000 0.500000 0.123884
O O14 0.361805 0.500000 0.250000
#
# Coordination Sequence:
#
# PCOD9555069 Si02
#       6
#     8   8   8   8   8   8
#     4  11  22  39  65  97 131 173 223 291 352 409
#     4  11  23  40  68  94 135 183 231 287 341 418
#     4  10  20  37  63  94 130 168 231 277 348 402
#     4  11  19  40  64  97 132 172 230 282 322 420
#     4  11  24  40  68  98 135 181 239 278 347 430
#     4  11  26  41  60 101 142 170 221 288 359 427
#
# _framework density 20.964186999999999
#
# number of rings (size 3 to 8) (size 9 to 14) (size 15 to 20)
#    0.000    1.167    5.000    2.000    7.000    0.000 
#    3.000    2.500    0.000    2.000    0.000    0.000 
#    0.000    0.000    0.000    0.000    0.000    0.000 
#
# Total GULP energy -267345.514435 kJ/mol
# GULP energy per Si atom -5569.698217 kJ/mol
# Density = 2.091647 g / cm^3
# Si number density = 20.964187 Si / 1000 Ang^3
#
#
#
# Elastic Constant Matrix: (Units=GPa)
#
#
# Indices 1 2 3 4 5 6 
#
# 1 174.3445 115.1591 16.8378 0.0000 0.0000 0.0000
# 2 115.1591 174.3445 16.8378 0.0000 0.0000 0.0000
# 3 16.8378 16.8378 47.8292 0.0000 0.0000 0.0000
# 4 0.0000 0.0000 0.0000 -23.0425 0.0000 0.0000
# 5 0.0000 0.0000 0.0000 0.0000 -23.0425 0.0000
# 6 0.0000 0.0000 0.0000 0.0000 0.0000 25.1826
#
#
#
# Elastic Compliance Matrix: (Units=1/GPa)
#
#
# Indices 1 2 3 4 5 6 
#
# 1 0.010249 -0.006647 -0.001268 0.000000 0.000000 0.000000
# 2 -0.006647 0.010249 -0.001268 0.000000 0.000000 0.000000
# 3 -0.001268 -0.001268 0.021800 0.000000 0.000000 0.000000
# 4 0.000000 0.000000 0.000000 -0.043398 0.000000 0.000000
# 5 0.000000 0.000000 0.000000 0.000000 -0.043398 0.000000
# 6 0.000000 0.000000 0.000000 0.000000 0.000000 0.039710
#
#
# Mechanical properties :
#
#
# Convention : Reuss Voigt Hill
#
# Bulk Modulus (GPa) = 41.78491 77.13195 59.45843
# Shear Modulus (GPa) = 231.96155 12.33178 122.14667
#
# Velocity S-wave (km/s) = 10.53028 2.42798 7.64140
# Velocity P-wave (km/s) = 12.95469 6.68821 10.30912
#
# Compressibility (1/GPa) = 0.02393208
#
# Stress axis : x y z
#
# Youngs Moduli (GPa) = 97.57182 97.57182 45.87059
#
# Poissons Ratio (x) = 0.64858 0.05816
# Poissons Ratio (y) = 0.64858 0.05816
# Poissons Ratio (z) = 0.12371 0.12371
#
# Static dielectric constant tensor:
#      x y z
#    x 1.779160 0.000000 0.000000 
#    y 0.000000 1.779160 0.000000 
#    z 0.000000 0.000000 1.985310 
# 
# From -- ./inp_files/4136.got.cif
#   From: 2010.05.17/outbox.cif.g08.bks.cpg/sg112_3_cif.got.tgz:4136.got - 2010.05.20 10:59:04.
