data_PCOD9555875
_publ_section_title
;
Structure prediction by ZEFSAII (Michael W. Deem and Ramdas Pophale) SiO2 
 PCOD9555875
Probable space group: P -4 21 C
;
_chemical_formula_sum "Si O2"
_cell_formula_units_Z 16
_cell_length_a 10.748096
_cell_length_b 10.748096
_cell_length_c 4.806206
_cell_angle_alpha 90.000000
_cell_angle_beta 90.000000
_cell_angle_gamma 90.000000
_cell_volume 555.220451
_symmetry_space_group_name_H-M "P -4 21 C"
_symmetry_group_IT_number 114
_symmetry_cell_setting 'tetragonal'
loop_
_space_group_symop_operation_xyz
x,y,z
y,-x,-z
-x,-y,z
-y,x,-z
1/2+x,1/2-y,1/2-z
1/2-x,1/2+y,1/2-z
1/2-y,1/2-x,1/2+z
1/2+y,1/2+x,1/2+z
loop_
_atom_site_type_symbol
_atom_site_label
_atom_site_fract_x
_atom_site_fract_y
_atom_site_fract_z
Si Si1 0.171110 0.557310 0.801036
Si Si2 0.161400 0.897391 0.023259
O O1 0.116887 0.565246 0.105012
O O2 0.224376 0.429258 0.678299
O O3 0.787952 0.848227 0.752898
O O4 0.034819 0.865718 0.849089
#
# Coordination Sequence:
#
# PCOD9555875 Si02
#       2
#     8   8
#     4  10  19  32  55  78 102 134 172 214 257 298
#     4   7  16  38  50  81 100 135 176 220 242 305
#
# _framework density 28.81738
#
# number of rings (size 3 to 8) (size 9 to 14) (size 15 to 20)
#    3.000    0.500    0.000    0.000    0.000    4.000 
#    0.000    5.000    0.000    9.000    0.000    0.000 
#    0.000    0.000    0.000    0.000    0.000    0.000 
#
# Total GULP energy -89229.559346 kJ/mol
# GULP energy per Si atom -5576.847459 kJ/mol
# Density = 2.875179 g / cm^3
# Si number density = 28.817380 Si / 1000 Ang^3
#
#
#
# Elastic Constant Matrix: (Units=GPa)
#
#
# Indices 1 2 3 4 5 6 
#
# 1 163.3979 6.9815 15.1300 0.0000 0.0000 0.0000
# 2 6.9815 163.3979 15.1300 0.0000 0.0000 0.0000
# 3 15.1300 15.1300 71.4595 0.0000 0.0000 0.0000
# 4 0.0000 0.0000 0.0000 19.9153 0.0000 0.0000
# 5 0.0000 0.0000 0.0000 0.0000 19.9153 0.0000
# 6 0.0000 0.0000 0.0000 0.0000 0.0000 35.3146
#
#
#
# Elastic Compliance Matrix: (Units=1/GPa)
#
#
# Indices 1 2 3 4 5 6 
#
# 1 0.006246 -0.000147 -0.001291 0.000000 0.000000 0.000000
# 2 -0.000147 0.006246 -0.001291 0.000000 0.000000 0.000000
# 3 -0.001291 -0.001291 0.014541 0.000000 0.000000 0.000000
# 4 0.000000 0.000000 0.000000 0.050213 0.000000 0.000000
# 5 0.000000 0.000000 0.000000 0.000000 0.050213 0.000000
# 6 0.000000 0.000000 0.000000 0.000000 0.000000 0.028317
#
#
# Mechanical properties :
#
#
# Convention : Reuss Voigt Hill
#
# Bulk Modulus (GPa) = 46.35440 52.52647 49.44043
# Shear Modulus (GPa) = 29.68672 39.09661 34.39167
#
# Velocity S-wave (km/s) = 3.21310 3.68734 3.45836
# Velocity P-wave (km/s) = 5.46680 6.03287 5.75680
#
# Compressibility (1/GPa) = 0.02157293
#
# Stress axis : x y z
#
# Youngs Moduli (GPa) = 160.10536 160.10536 68.77233
#
# Poissons Ratio (x) = 0.02358 0.08880
# Poissons Ratio (y) = 0.02358 0.08880
# Poissons Ratio (z) = 0.20673 0.20673
#
# Static dielectric constant tensor:
#      x y z
#    x 2.342110 0.000000 0.000000 
#    y 0.000000 2.342110 0.000000 
#    z 0.000000 0.000000 2.135860 
# 
# From -- ./inp_files/22.got.cif
#   From: 2010.05.17/outbox.cif.g08.bks.cpg/sg114_1_cif.got.tgz:22.got - 2010.05.20 11:04:54.
