data_PCOD9555116
_publ_section_title
;
Structure prediction by ZEFSAII (Michael W. Deem and Ramdas Pophale) SiO2 
 PCOD9555116
Probable space group: P -4 2 C
;
_chemical_formula_sum "Si O2"
_cell_formula_units_Z 40
_cell_length_a 14.487663
_cell_length_b 14.487663
_cell_length_c 9.281845
_cell_angle_alpha 90.000000
_cell_angle_beta 90.000000
_cell_angle_gamma 90.000000
_cell_volume 1948.188530
_symmetry_space_group_name_H-M "P -4 2 C"
_symmetry_group_IT_number 112
_symmetry_cell_setting 'tetragonal'
loop_
_space_group_symop_operation_xyz
x,y,z
y,-x,-z
-x,-y,z
-y,x,-z
x,-y,1/2-z
-x,y,1/2-z
-y,-x,1/2+z
y,x,1/2+z
loop_
_atom_site_type_symbol
_atom_site_label
_atom_site_fract_x
_atom_site_fract_y
_atom_site_fract_z
Si Si1 0.227465 0.322786 0.974109
Si Si2 0.819617 0.208839 0.252478
Si Si3 0.400912 0.038503 0.453718
Si Si4 0.000000 0.242234 0.750000
Si Si5 0.453043 0.383291 0.588666
Si Si6 0.000000 0.683570 0.250000
O O1 0.190277 0.244375 0.083904
O O2 0.145162 0.387016 0.916010
O O3 0.296503 0.388325 0.059419
O O4 0.257720 0.262533 0.837607
O O5 0.811267 0.097533 0.236553
O O6 0.916636 0.250214 0.202473
O O7 0.500000 0.000000 0.414472
O O8 0.314395 0.987802 0.380760
O O9 0.382617 0.031709 0.622596
O O10 0.389957 0.470514 0.540047
O O11 0.500000 0.386269 0.750000
#
# Coordination Sequence:
#
# PCOD9555116 Si02
#       6
#     8   8   8   4   8   4
#     4  10  22  38  59  83 115 154 193 243 296 351
#     4  10  21  38  58  86 117 151 192 237 291 349
#     4  10  21  37  57  83 113 149 193 239 288 344
#     4  10  21  37  58  84 118 150 188 237 285 346
#     4  11  23  39  58  83 115 153 198 246 298 357
#     4  10  21  37  60  86 116 150 190 237 285 348
#
# _framework density 20.531893
#
# number of rings (size 3 to 8) (size 9 to 14) (size 15 to 20)
#    0.000    1.800    0.000    4.200    0.000    6.800 
#    0.000    4.000    0.000    7.200    0.000    0.000 
#    0.000    0.000    0.000    0.000    0.000    0.000 
#
# Total GULP energy -222833.176006 kJ/mol
# GULP energy per Si atom -5570.829400 kJ/mol
# Density = 2.048516 g / cm^3
# Si number density = 20.531893 Si / 1000 Ang^3
#
#
#
# Elastic Constant Matrix: (Units=GPa)
#
#
# Indices 1 2 3 4 5 6 
#
# 1 91.5209 65.5058 13.5638 0.0000 0.0000 0.0000
# 2 65.5058 91.5209 13.5638 0.0000 0.0000 0.0000
# 3 13.5638 13.5638 74.2602 0.0000 0.0000 0.0000
# 4 0.0000 0.0000 0.0000 40.5626 0.0000 0.0000
# 5 0.0000 0.0000 0.0000 0.0000 40.5626 0.0000
# 6 0.0000 0.0000 0.0000 0.0000 0.0000 9.9575
#
#
#
# Elastic Compliance Matrix: (Units=1/GPa)
#
#
# Indices 1 2 3 4 5 6 
#
# 1 0.022508 -0.015932 -0.001201 0.000000 0.000000 0.000000
# 2 -0.015932 0.022508 -0.001201 0.000000 0.000000 0.000000
# 3 -0.001201 -0.001201 0.013905 0.000000 0.000000 0.000000
# 4 0.000000 0.000000 0.000000 0.024653 0.000000 0.000000
# 5 0.000000 0.000000 0.000000 0.000000 0.024653 0.000000
# 6 0.000000 0.000000 0.000000 0.000000 0.000000 0.100427
#
#
# Mechanical properties :
#
#
# Convention : Reuss Voigt Hill
#
# Bulk Modulus (GPa) = 44.93930 49.17432 47.05681
# Shear Modulus (GPa) = 19.78330 29.19445 24.48888
#
# Velocity S-wave (km/s) = 3.10746 3.77491 3.45733
# Velocity P-wave (km/s) = 5.90001 6.55760 6.23748
#
# Compressibility (1/GPa) = 0.02225224
#
# Stress axis : x y z
#
# Youngs Moduli (GPa) = 44.42953 44.42953 71.91696
#
# Poissons Ratio (x) = 0.70784 0.08638
# Poissons Ratio (y) = 0.70784 0.08638
# Poissons Ratio (z) = 0.05336 0.05336
#
# Static dielectric constant tensor:
#      x y z
#    x 1.742010 0.000000 0.000000 
#    y 0.000000 1.742010 0.000000 
#    z 0.000000 0.000000 2.177240 
# 
# From -- ./inp_files/1268.got.cif
#   From: 2010.05.17/outbox.cif.g08.bks.cpg/sg112_1_cif.got.tgz:1268.got - 2010.05.20 10:59:04.
