data_PCOD9555956
_publ_section_title
;
Structure prediction by ZEFSAII (Michael W. Deem and Ramdas Pophale) SiO2 
 PCOD9555956
Probable space group: P -4 21 C
;
_chemical_formula_sum "Si O2"
_cell_formula_units_Z 48
_cell_length_a 16.688593
_cell_length_b 16.688593
_cell_length_c 8.672317
_cell_angle_alpha 90.000000
_cell_angle_beta 90.000000
_cell_angle_gamma 90.000000
_cell_volume 2415.319518
_symmetry_space_group_name_H-M "P -4 21 C"
_symmetry_group_IT_number 114
_symmetry_cell_setting 'tetragonal'
loop_
_space_group_symop_operation_xyz
x,y,z
y,-x,-z
-x,-y,z
-y,x,-z
1/2+x,1/2-y,1/2-z
1/2-x,1/2+y,1/2-z
1/2-y,1/2-x,1/2+z
1/2+y,1/2+x,1/2+z
loop_
_atom_site_type_symbol
_atom_site_label
_atom_site_fract_x
_atom_site_fract_y
_atom_site_fract_z
Si Si1 0.784721 0.903380 0.785417
Si Si2 0.216721 0.911172 0.270888
Si Si3 0.619323 0.480107 0.461524
Si Si4 0.110963 0.533250 0.695882
Si Si5 0.461979 0.888298 0.652085
Si Si6 0.127764 0.988731 0.532936
O O1 0.821010 0.816415 0.747005
O O2 0.691004 0.917057 0.773293
O O3 0.832057 0.964207 0.673173
O O4 0.812086 0.929594 0.956121
O O5 0.304078 0.924886 0.202773
O O6 0.199130 0.945236 0.440009
O O7 0.155752 0.966026 0.171151
O O8 0.546278 0.420938 0.424861
O O9 0.111493 0.496305 0.522539
O O10 0.100953 0.459493 0.815532
O O11 0.034810 0.588984 0.732382
O O12 0.059498 0.920988 0.557707
#
# Coordination Sequence:
#
# PCOD9555956 Si02
#       6
#     8   8   8   8   8   8
#     4  10  20  36  59  90 124 157 202 256 307 355
#     4  10  20  36  59  90 124 157 202 256 307 355
#     4   9  16  30  54  83 118 160 202 243 294 362
#     4  11  24  43  67  90 117 164 210 249 298 368
#     4  11  24  43  67  90 117 164 210 249 298 368
#     4   9  18  32  54  87 126 170 208 245 302 368
#
# _framework density 19.873146999999999
#
# number of rings (size 3 to 8) (size 9 to 14) (size 15 to 20)
#    0.000    2.000    1.667    3.000    4.667    4.000 
#    0.000    5.000    0.000    0.000    0.000    0.000 
#    0.000    0.000    0.000    0.000    0.000    0.000 
#
# Total GULP energy -267577.230846 kJ/mol
# GULP energy per Si atom -5574.525643 kJ/mol
# Density = 1.982791 g / cm^3
# Si number density = 19.873147 Si / 1000 Ang^3
#
#
#
# Elastic Constant Matrix: (Units=GPa)
#
#
# Indices 1 2 3 4 5 6 
#
# 1 93.9242 37.8775 21.5817 0.0000 0.0000 0.0000
# 2 37.8775 93.9242 21.5817 0.0000 0.0000 0.0000
# 3 21.5817 21.5817 59.4183 0.0000 0.0000 0.0000
# 4 0.0000 0.0000 0.0000 19.9940 0.0000 0.0000
# 5 0.0000 0.0000 0.0000 0.0000 19.9940 0.0000
# 6 0.0000 0.0000 0.0000 0.0000 0.0000 21.8034
#
#
#
# Elastic Compliance Matrix: (Units=1/GPa)
#
#
# Indices 1 2 3 4 5 6 
#
# 1 0.013227 -0.004615 -0.003128 0.000000 0.000000 0.000000
# 2 -0.004615 0.013227 -0.003128 0.000000 0.000000 0.000000
# 3 -0.003128 -0.003128 0.019102 0.000000 0.000000 0.000000
# 4 0.000000 0.000000 0.000000 0.050015 0.000000 0.000000
# 5 0.000000 0.000000 0.000000 0.000000 0.050015 0.000000
# 6 0.000000 0.000000 0.000000 0.000000 0.000000 0.045864
#
#
# Mechanical properties :
#
#
# Convention : Reuss Voigt Hill
#
# Bulk Modulus (GPa) = 41.99274 45.48315 43.73795
# Shear Modulus (GPa) = 22.61112 23.44000 23.02556
#
# Velocity S-wave (km/s) = 3.37675 3.43808 3.40755
# Velocity P-wave (km/s) = 6.03154 6.22069 6.12685
#
# Compressibility (1/GPa) = 0.02381364
#
# Stress axis : x y z
#
# Youngs Moduli (GPa) = 75.60363 75.60363 52.35058
#
# Poissons Ratio (x) = 0.34894 0.16374
# Poissons Ratio (y) = 0.34894 0.16374
# Poissons Ratio (z) = 0.23648 0.23648
#
# Static dielectric constant tensor:
#      x y z
#    x 1.698350 0.000000 0.000000 
#    y 0.000000 1.698350 0.000000 
#    z 0.000000 0.000000 1.734500 
# 
# From -- ./inp_files/933.got.cif
#   From: 2010.05.17/outbox.cif.g08.bks.cpg/sg114_1_cif.got.tgz:933.got - 2010.05.20 11:04:54.
