data_PCOD9555973
_publ_section_title
;
Structure prediction by ZEFSAII (Michael W. Deem and Ramdas Pophale) SiO2 
 PCOD9555973
Probable space group: P -4 21 C
;
_chemical_formula_sum "Si O2"
_cell_formula_units_Z 48
_cell_length_a 8.412418
_cell_length_b 8.412418
_cell_length_c 32.105743
_cell_angle_alpha 90.000000
_cell_angle_beta 90.000000
_cell_angle_gamma 90.000000
_cell_volume 2272.084154
_symmetry_space_group_name_H-M "P -4 21 C"
_symmetry_group_IT_number 114
_symmetry_cell_setting 'tetragonal'
loop_
_space_group_symop_operation_xyz
x,y,z
y,-x,-z
-x,-y,z
-y,x,-z
1/2+x,1/2-y,1/2-z
1/2-x,1/2+y,1/2-z
1/2-y,1/2-x,1/2+z
1/2+y,1/2+x,1/2+z
loop_
_atom_site_type_symbol
_atom_site_label
_atom_site_fract_x
_atom_site_fract_y
_atom_site_fract_z
Si Si1 0.002884 0.256036 0.356791
Si Si2 0.492858 0.246812 0.859474
Si Si3 0.000000 0.500000 0.707075
Si Si4 0.000000 0.000000 0.755096
Si Si5 0.500000 0.000000 0.429862
Si Si6 0.317874 0.193031 0.222857
Si Si7 0.500000 0.000000 0.072135
Si Si8 0.756240 0.503332 0.499339
O O1 0.909270 0.346905 0.320097
O O2 0.045672 0.360210 0.396434
O O3 0.159330 0.160454 0.341897
O O4 0.876380 0.123292 0.370896
O O5 0.568994 0.128630 0.825355
O O6 0.449459 0.142397 0.899448
O O7 0.111702 0.596937 0.737736
O O8 0.117166 0.862999 0.776607
O O9 0.876509 0.882701 0.730568
O O10 0.448610 0.862121 0.461312
O O11 0.640581 0.956441 0.040616
O O12 0.647655 0.356922 0.512594
#
# Coordination Sequence:
#
# PCOD9555973 Si02
#       8
#     8   8   4   4   4   8   4   8
#     4  11  22  39  59  88 126 160 205 264 319 371
#     4  10  22  39  61  87 121 165 209 258 316 382
#     4  11  23  41  65  92 126 174 227 271 329 393
#     4  12  26  44  68  96 128 178 234 278 334 394
#     4  10  20  38  62  86 114 156 202 242 300 380
#     4  12  24  42  65  93 131 175 223 279 333 390
#     4  11  23  37  61  92 118 154 201 249 305 375
#     4  10  21  39  61  87 120 153 190 243 307 373
#
# _framework density 21.125978
#
# number of rings (size 3 to 8) (size 9 to 14) (size 15 to 20)
#    0.000    1.167    0.000    7.500    0.000    1.333 
#    0.000    3.333    0.000    8.000    0.000    0.000 
#    0.000    0.000    0.000    0.000    0.000    0.000 
#
# Total GULP energy -267391.967503 kJ/mol
# GULP energy per Si atom -5570.665990 kJ/mol
# Density = 2.107789 g / cm^3
# Si number density = 21.125978 Si / 1000 Ang^3
#
#
#
# Elastic Constant Matrix: (Units=GPa)
#
#
# Indices 1 2 3 4 5 6 
#
# 1 87.5211 31.8551 21.9663 0.0000 0.0000 0.0000
# 2 31.8551 87.5211 21.9663 0.0000 0.0000 0.0000
# 3 21.9663 21.9663 97.1957 0.0000 0.0000 0.0000
# 4 0.0000 0.0000 0.0000 24.1618 0.0000 0.0000
# 5 0.0000 0.0000 0.0000 0.0000 24.1618 0.0000
# 6 0.0000 0.0000 0.0000 0.0000 0.0000 15.8476
#
#
#
# Elastic Compliance Matrix: (Units=1/GPa)
#
#
# Indices 1 2 3 4 5 6 
#
# 1 0.013551 -0.004414 -0.002065 0.000000 0.000000 0.000000
# 2 -0.004414 0.013551 -0.002065 0.000000 0.000000 0.000000
# 3 -0.002065 -0.002065 0.011222 0.000000 0.000000 0.000000
# 4 0.000000 0.000000 0.000000 0.041388 0.000000 0.000000
# 5 0.000000 0.000000 0.000000 0.000000 0.041388 0.000000
# 6 0.000000 0.000000 0.000000 0.000000 0.000000 0.063101
#
#
# Mechanical properties :
#
#
# Convention : Reuss Voigt Hill
#
# Bulk Modulus (GPa) = 47.09030 47.09035 47.09033
# Shear Modulus (GPa) = 23.99635 25.93093 24.96364
#
# Velocity S-wave (km/s) = 3.37392 3.50729 3.44125
# Velocity P-wave (km/s) = 6.12507 6.22415 6.17481
#
# Compressibility (1/GPa) = 0.02123579
#
# Stress axis : x y z
#
# Youngs Moduli (GPa) = 73.79775 73.79775 89.11170
#
# Poissons Ratio (x) = 0.32572 0.18401
# Poissons Ratio (y) = 0.32572 0.18401
# Poissons Ratio (z) = 0.15239 0.15239
#
# Static dielectric constant tensor:
#      x y z
#    x 1.860820 0.000000 0.000000 
#    y 0.000000 1.860820 0.000000 
#    z 0.000000 0.000000 1.772180 
# 
# From -- ./inp_files/4045.got.cif
#   From: 2010.05.17/outbox.cif.g08.bks.cpg/sg114_3_cif.got.tgz:4045.got - 2010.05.20 11:04:54.
