data_PCOD9555224
_publ_section_title
;
Structure prediction by ZEFSAII (Michael W. Deem and Ramdas Pophale) SiO2 
 PCOD9555224
Probable space group: P -4 2 C
;
_chemical_formula_sum "Si O2"
_cell_formula_units_Z 48
_cell_length_a 9.196548
_cell_length_b 9.196548
_cell_length_c 27.671318
_cell_angle_alpha 90.000000
_cell_angle_beta 90.000000
_cell_angle_gamma 90.000000
_cell_volume 2340.343092
_symmetry_space_group_name_H-M "P -4 2 C"
_symmetry_group_IT_number 112
_symmetry_cell_setting 'tetragonal'
loop_
_space_group_symop_operation_xyz
x,y,z
y,-x,-z
-x,-y,z
-y,x,-z
x,-y,1/2-z
-x,y,1/2-z
-y,-x,1/2+z
y,x,1/2+z
loop_
_atom_site_type_symbol
_atom_site_label
_atom_site_fract_x
_atom_site_fract_y
_atom_site_fract_z
Si Si1 0.830444 0.788189 0.848951
Si Si2 0.962981 0.334474 0.306359
Si Si3 0.537384 0.334674 0.193560
Si Si4 0.285504 0.168327 0.152557
Si Si5 0.669558 0.172225 0.043837
Si Si6 0.172832 0.669144 0.956666
O O1 0.713347 0.701712 0.816300
O O2 0.803496 0.746466 0.904630
O O3 0.999218 0.751342 0.837234
O O4 0.786909 0.952400 0.837520
O O5 0.798470 0.286738 0.315395
O O6 0.000000 0.500000 0.321206
O O7 0.000000 0.320805 0.250000
O O8 0.500000 0.500000 0.177542
O O9 0.500000 0.325420 0.250000
O O10 0.451151 0.209305 0.164453
O O11 0.259951 0.197181 0.095851
O O12 0.500369 0.213416 0.047238
O O13 0.677284 0.999741 0.034251
O O14 0.743617 0.256098 0.000115
#
# Coordination Sequence:
#
# PCOD9555224 Si02
#       6
#     8   8   8   8   8   8
#     4  11  23  42  65  92 126 167 217 267 319 386
#     4  11  25  43  63  93 133 171 213 265 324 387
#     4  11  23  39  63  95 131 169 209 259 320 379
#     4  11  23  42  65  92 126 167 217 267 319 386
#     4  10  23  43  64  92 126 162 207 261 317 378
#     4  10  23  43  64  92 126 162 207 261 317 378
#
# _framework density 20.509812
#
# number of rings (size 3 to 8) (size 9 to 14) (size 15 to 20)
#    0.000    1.333    1.667    3.000    2.333   10.000 
#    0.000    0.000    0.000    0.000    0.000    0.000 
#    0.000    0.000    0.000    0.000    0.000    0.000 
#
# Total GULP energy -268141.200203 kJ/mol
# GULP energy per Si atom -5586.275004 kJ/mol
# Density = 2.046313 g / cm^3
# Si number density = 20.509812 Si / 1000 Ang^3
#
#
#
# Elastic Constant Matrix: (Units=GPa)
#
#
# Indices 1 2 3 4 5 6 
#
# 1 56.7655 11.7305 28.9823 0.0000 0.0000 0.0000
# 2 11.7305 56.7655 28.9823 0.0000 0.0000 0.0000
# 3 28.9823 28.9823 88.3166 0.0000 0.0000 0.0000
# 4 0.0000 0.0000 0.0000 35.9172 0.0000 0.0000
# 5 0.0000 0.0000 0.0000 0.0000 35.9172 0.0000
# 6 0.0000 0.0000 0.0000 0.0000 0.0000 37.9174
#
#
#
# Elastic Compliance Matrix: (Units=1/GPa)
#
#
# Indices 1 2 3 4 5 6 
#
# 1 0.021209 -0.000996 -0.006633 0.000000 0.000000 0.000000
# 2 -0.000996 0.021209 -0.006633 0.000000 0.000000 0.000000
# 3 -0.006633 -0.006633 0.015676 0.000000 0.000000 0.000000
# 4 0.000000 0.000000 0.000000 0.027842 0.000000 0.000000
# 5 0.000000 0.000000 0.000000 0.000000 0.027842 0.000000
# 6 0.000000 0.000000 0.000000 0.000000 0.000000 0.026373
#
#
# Mechanical properties :
#
#
# Convention : Reuss Voigt Hill
#
# Bulk Modulus (GPa) = 33.81877 37.91528 35.86702
# Shear Modulus (GPa) = 28.00626 30.76053 29.38339
#
# Velocity S-wave (km/s) = 3.69928 3.87692 3.78914
# Velocity P-wave (km/s) = 5.89670 6.21025 6.05551
#
# Compressibility (1/GPa) = 0.02956938
#
# Stress axis : x y z
#
# Youngs Moduli (GPa) = 47.15035 47.15035 63.79043
#
# Poissons Ratio (x) = 0.04697 0.42312
# Poissons Ratio (y) = 0.04697 0.42312
# Poissons Ratio (z) = 0.31275 0.31275
#
# Static dielectric constant tensor:
#      x y z
#    x 1.703010 0.000000 0.000000 
#    y 0.000000 1.703010 0.000000 
#    z 0.000000 0.000000 1.683120 
# 
# From -- ./inp_files/6296.got.cif
#   From: 2010.05.17/outbox.cif.g08.bks.cpg/sg112_4_cif.got.tgz:6296.got - 2010.05.20 10:59:04.
