data_PCOD9555868
_publ_section_title
;
Structure prediction by ZEFSAII (Michael W. Deem and Ramdas Pophale) SiO2 
 PCOD9555868
Probable space group: P -4 21 C
;
_chemical_formula_sum "Si O2"
_cell_formula_units_Z 48
_cell_length_a 17.395533
_cell_length_b 17.395533
_cell_length_c 5.626076
_cell_angle_alpha 90.000000
_cell_angle_beta 90.000000
_cell_angle_gamma 90.000000
_cell_volume 1702.476300
_symmetry_space_group_name_H-M "P -4 21 C"
_symmetry_group_IT_number 114
_symmetry_cell_setting 'tetragonal'
loop_
_space_group_symop_operation_xyz
x,y,z
y,-x,-z
-x,-y,z
-y,x,-z
1/2+x,1/2-y,1/2-z
1/2-x,1/2+y,1/2-z
1/2-y,1/2-x,1/2+z
1/2+y,1/2+x,1/2+z
loop_
_atom_site_type_symbol
_atom_site_label
_atom_site_fract_x
_atom_site_fract_y
_atom_site_fract_z
Si Si1 0.057793 0.131308 0.912180
Si Si2 0.599170 0.051722 0.575381
Si Si3 0.727207 0.404655 0.464278
Si Si4 0.820439 0.732304 0.398246
Si Si5 0.641947 0.543373 0.905039
Si Si6 0.422573 0.220943 0.045163
O O1 0.996918 0.203447 0.929091
O O2 0.047466 0.099585 0.651754
O O3 0.040570 0.093746 0.164961
O O4 0.149607 0.138635 0.948735
O O5 0.545875 0.068442 0.346172
O O6 0.657654 0.123865 0.594211
O O7 0.648797 0.977562 0.507867
O O8 0.785092 0.392852 0.682755
O O9 0.759529 0.382196 0.205472
O O10 0.775605 0.726540 0.650183
O O11 0.880540 0.803319 0.402414
O O12 0.702065 0.474351 0.919945
#
# Coordination Sequence:
#
# PCOD9555868 Si02
#       6
#     8   8   8   8   8   8
#     4  10  19  30  42  54  70  95 128 167 208 239
#     4   9  15  23  37  56  75  93 111 134 174 229
#     4  10  19  30  42  54  70  95 128 167 208 239
#     4   9  15  23  37  56  75  93 111 134 174 229
#     4   9  17  28  40  55  74  93 116 150 193 236
#     4   9  17  28  40  55  74  93 116 150 193 236
#
# _framework density 28.194227000000001
#
# number of rings (size 3 to 8) (size 9 to 14) (size 15 to 20)
#    0.000    2.667    0.000    3.000    0.000    8.333 
#    0.000    0.000    0.000    6.000    0.000    0.000 
#    0.000    0.000    0.000    0.000    0.000    0.000 
#
# Total GULP energy -268089.121544 kJ/mol
# GULP energy per Si atom -5585.190032 kJ/mol
# Density = 2.813006 g / cm^3
# Si number density = 28.194227 Si / 1000 Ang^3
#
#
#
# Elastic Constant Matrix: (Units=GPa)
#
#
# Indices 1 2 3 4 5 6 
#
# 1 -1942.3317 2050.9807 36.3112 0.0000 0.0000 0.0000
# 2 2050.9807-1942.3317 36.3112 0.0000 0.0000 0.0000
# 3 36.3112 36.3112 352.1248 0.0000 0.0000 0.0000
# 4 0.0000 0.0000 0.0000 210.9687 0.0000 0.0000
# 5 0.0000 0.0000 0.0000 0.0000 210.9687 0.0000
# 6 0.0000 0.0000 0.0000 0.0000 0.0000 54.9564
#
#
#
# Elastic Compliance Matrix: (Units=1/GPa)
#
#
# Indices 1 2 3 4 5 6 
#
# 1 0.004817 0.005068 -0.001019 0.000000 0.000000 0.000000
# 2 0.005068 0.004817 -0.001019 0.000000 0.000000 0.000000
# 3 -0.001019 -0.001019 0.003050 0.000000 0.000000 0.000000
# 4 0.000000 0.000000 0.000000 0.004740 0.000000 0.000000
# 5 0.000000 0.000000 0.000000 0.000000 0.004740 0.000000
# 6 0.000000 0.000000 0.000000 0.000000 0.000000 0.018196
#
#
# Mechanical properties :
#
#
# Convention : Reuss Voigt Hill
#
# Bulk Modulus (GPa) = 53.35250 79.40751 66.38000
# Shear Modulus (GPa) = 123.30187 -281.69735 -79.19774
#
# Velocity S-wave (km/s) = 6.62027 -10.00650 -5.30576
# Velocity P-wave (km/s) = 8.79782 10.26066 3.73360
#
# Compressibility (1/GPa) = 0.01874326
#
# Stress axis : x y z
#
# Youngs Moduli (GPa) = 207.57877 207.57877 327.85391
#
# Poissons Ratio (x) = -1.05198 0.33421
# Poissons Ratio (y) = -1.05198 0.33421
# Poissons Ratio (z) = 0.21160 0.21160
#
# Static dielectric constant tensor:
#      x y z
#    x 2.172670 0.000000 0.000000 
#    y 0.000000 2.172670 0.000000 
#    z 0.000000 0.000000 2.212150 
# 
# From -- ./inp_files/226.got.cif
#   From: 2010.05.17/outbox.cif.g08.bks.cpg/sg114_1_cif.got.tgz:226.got - 2010.05.20 11:04:54.
