data_PCOD9555457
_publ_section_title
;
Structure prediction by ZEFSAII (Michael W. Deem and Ramdas Pophale) SiO2 
 PCOD9555457
Probable space group: P -4 21 M 
;
_chemical_formula_sum "Si O2"
_cell_formula_units_Z 48
_cell_length_a 16.829238
_cell_length_b 16.829238
_cell_length_c 10.460540
_cell_angle_alpha 90.000000
_cell_angle_beta 90.000000
_cell_angle_gamma 90.000000
_cell_volume 2962.668153
_symmetry_space_group_name_H-M "P -4 21 M "
_symmetry_group_IT_number 113
_symmetry_cell_setting 'tetragonal'
loop_
_space_group_symop_operation_xyz
x,y,z
y,-x,-z
-x,-y,z
-y,x,-z
1/2+x,1/2-y,-z
1/2-x,1/2+y,-z
1/2-y,1/2-x,z
1/2+y,1/2+x,z
loop_
_atom_site_type_symbol
_atom_site_label
_atom_site_fract_x
_atom_site_fract_y
_atom_site_fract_z
Si Si1 0.081342 0.284071 0.213919
Si Si2 0.597275 0.766560 0.866078
Si Si3 0.908777 0.273805 0.619901
Si Si4 0.331701 0.304454 0.616725
Si Si5 0.289518 0.922736 0.479177
Si Si6 0.206491 0.157371 0.130671
O O1 0.140055 0.359946 0.192408
O O2 0.072612 0.275306 0.367930
O O3 0.125969 0.206397 0.157366
O O4 0.993996 0.292424 0.153381
O O5 0.656946 0.843055 0.864374
O O6 0.621808 0.710535 0.747176
O O7 0.613704 0.718513 0.996297
O O8 0.843576 0.343576 0.621839
O O9 0.885934 0.215269 0.504440
O O10 0.901012 0.227217 0.752624
O O11 0.993682 0.308442 0.584264
O O12 0.261842 0.238159 0.615371
O O13 0.287451 0.386742 0.591542
O O14 0.361365 0.861365 0.461872
O O15 0.274060 0.225941 0.133920
#
# Coordination Sequence:
#
# PCOD9555457 Si02
#       6
#     8   8   8   8   8   8
#     4  10  19  33  55  80 105 135 172 215 262 310
#     4  10  20  34  54  81 107 136 172 214 261 310
#     4  10  18  32  53  75 103 137 170 212 260 306
#     4   9  17  31  50  73 101 134 174 209 245 302
#     4  10  19  31  53  82 106 133 174 221 261 302
#     4   9  19  35  53  73 102 143 180 203 247 316
#
# _framework density 16.201612000000001
#
# number of rings (size 3 to 8) (size 9 to 14) (size 15 to 20)
#    0.000    2.333    3.333    0.000    0.000    2.000 
#    0.000    4.167    0.000    9.000    0.000    0.000 
#    0.000    0.000    0.000    0.000    0.000    0.000 
#
# Total GULP energy -267340.229709 kJ/mol
# GULP energy per Si atom -5569.588119 kJ/mol
# Density = 1.616474 g / cm^3
# Si number density = 16.201612 Si / 1000 Ang^3
#
#
#
# Elastic Constant Matrix: (Units=GPa)
#
#
# Indices 1 2 3 4 5 6 
#
# 1 45.3055 56.4043 46.7256 0.0000 0.0000 0.0000
# 2 56.4043 45.2979 46.7259 0.0000 0.0000 0.0000
# 3 46.7256 46.7259 135.8147 0.0000 0.0000 0.0000
# 4 0.0000 0.0000 0.0000 19.6323 0.0000 0.0000
# 5 0.0000 0.0000 0.0000 0.0000 19.6325 0.0000
# 6 0.0000 0.0000 0.0000 0.0000 0.0000 11.5260
#
#
#
# Elastic Compliance Matrix: (Units=1/GPa)
#
#
# Indices 1 2 3 4 5 6 
#
# 1 -0.037841 0.052223 -0.004948 0.000000 0.000000 0.000000
# 2 0.052223 -0.037851 -0.004944 0.000000 0.000000 0.000000
# 3 -0.004948 -0.004944 0.010766 0.000000 0.000000 0.000000
# 4 0.000000 0.000000 0.000000 0.050937 0.000000 0.000000
# 5 0.000000 0.000000 0.000000 0.000000 0.050936 0.000000
# 6 0.000000 0.000000 0.000000 0.000000 0.000000 0.086761
#
#
# Mechanical properties :
#
#
# Convention : Reuss Voigt Hill
#
# Bulk Modulus (GPa) = 50.67026 58.45885 54.56455
# Shear Modulus (GPa) = 109.58930 15.26230 62.42580
#
# Velocity S-wave (km/s) = 8.23334 3.07257 6.21404
# Velocity P-wave (km/s) = 11.03297 6.98198 9.23240
#
# Compressibility (1/GPa) = 0.01973544
#
# Stress axis : x y z
#
# Youngs Moduli (GPa) = -26.42633 -26.41933 92.88125
#
# Poissons Ratio (x) = 1.37970 0.45959
# Poissons Ratio (y) = 1.38007 0.45925
# Poissons Ratio (z) = -0.13076 -0.13063
#
# Static dielectric constant tensor:
#      x y z
#    x 1.543960 0.000000 0.000000 
#    y 0.000000 1.543960 0.000000 
#    z 0.000000 0.000000 1.544340 
# 
# From -- ./inp_files/1195.got.cif
#   From: 2010.05.17/outbox.cif.g08.bks.cpg/sg113_cif.got.tgz:1195.got - 2010.05.20 11:03:00.
