data_PCOD9555534
_publ_section_title
;
Structure prediction by ZEFSAII (Michael W. Deem and Ramdas Pophale) SiO2 
 PCOD9555534
Probable space group: P -4 21 M 
;
_chemical_formula_sum "Si O2"
_cell_formula_units_Z 56
_cell_length_a 14.435171
_cell_length_b 14.435171
_cell_length_c 14.541546
_cell_angle_alpha 90.000000
_cell_angle_beta 90.000000
_cell_angle_gamma 90.000000
_cell_volume 3030.082459
_symmetry_space_group_name_H-M "P -4 21 M "
_symmetry_group_IT_number 113
_symmetry_cell_setting 'tetragonal'
loop_
_space_group_symop_operation_xyz
x,y,z
y,-x,-z
-x,-y,z
-y,x,-z
1/2+x,1/2-y,-z
1/2-x,1/2+y,-z
1/2-y,1/2-x,z
1/2+y,1/2+x,z
loop_
_atom_site_type_symbol
_atom_site_label
_atom_site_fract_x
_atom_site_fract_y
_atom_site_fract_z
Si Si1 0.937808 0.797429 0.593962
Si Si2 0.749211 0.398292 0.882415
Si Si3 0.898265 0.952294 0.749173
Si Si4 0.871784 0.940537 0.960177
Si Si5 0.782667 0.135177 0.739314
Si Si6 0.355085 0.288552 0.452270
Si Si7 0.150757 0.497142 0.737728
O O1 0.910192 0.875461 0.669858
O O2 0.856933 0.800172 0.519698
O O3 0.957346 0.703118 0.649256
O O4 0.035978 0.811121 0.541502
O O5 0.844068 0.344068 0.885601
O O6 0.675693 0.333609 0.829327
O O7 0.771012 0.482297 0.813805
O O8 0.720622 0.418739 0.985501
O O9 0.878900 0.917427 0.853205
O O10 0.816545 0.028427 0.730822
O O11 0.000000 0.000000 0.753734
O O12 0.952043 0.891076 0.019137
O O13 0.676970 0.176970 0.741255
O O14 0.829595 0.185362 0.652219
O O15 0.314751 0.185250 0.469395
O O16 0.078407 0.421594 0.772675
O O17 0.089578 0.589578 0.715989
#
# Coordination Sequence:
#
# PCOD9555534 Si02
#       7
#     8   8   8   8   8   8   8
#     4  12  23  36  57  85 119 152 197 250 301 359
#     4  10  19  36  56  79 110 148 191 232 280 346
#     4  12  20  34  54  83 115 152 191 237 295 354
#     4  11  19  31  52  80 112 145 179 230 287 340
#     4  10  19  35  55  77 111 150 189 229 285 356
#     4  11  23  37  56  83 118 154 195 248 306 363
#     4  10  20  37  60  82 112 156 199 244 300 357
#
# _framework density 18.481347
#
# number of rings (size 3 to 8) (size 9 to 14) (size 15 to 20)
#    0.000    1.143    5.714    2.571    0.000    0.000 
#    0.000    4.286    0.000    0.000    0.000    0.000 
#    0.000    4.000    0.000    0.000    0.000    0.000 
#
# Total GULP energy -311862.155076 kJ/mol
# GULP energy per Si atom -5568.967055 kJ/mol
# Density = 1.843928 g / cm^3
# Si number density = 18.481347 Si / 1000 Ang^3
#
#
#
# Elastic Constant Matrix: (Units=GPa)
#
#
# Indices 1 2 3 4 5 6 
#
# 1 86.1529 13.3099 20.1785 0.0000 0.0000 0.0000
# 2 13.3099 86.1572 20.1808 0.0000 0.0000 0.0000
# 3 20.1785 20.1808 55.7631 0.0000 0.0000 0.0000
# 4 0.0000 0.0000 0.0000 2.2432 0.0000 0.0000
# 5 0.0000 0.0000 0.0000 0.0000 2.2437 0.0000
# 6 0.0000 0.0000 0.0000 0.0000 0.0000 -83.4420
#
#
#
# Elastic Compliance Matrix: (Units=1/GPa)
#
#
# Indices 1 2 3 4 5 6 
#
# 1 0.012756 -0.000972 -0.004264 0.000000 0.000000 0.000000
# 2 -0.000972 0.012756 -0.004265 0.000000 0.000000 0.000000
# 3 -0.004264 -0.004265 0.021019 0.000000 0.000000 0.000000
# 4 0.000000 0.000000 0.000000 0.445790 0.000000 0.000000
# 5 0.000000 0.000000 0.000000 0.000000 0.445689 0.000000
# 6 0.000000 0.000000 0.000000 0.000000 0.000000 -0.011984
#
#
# Mechanical properties :
#
#
# Convention : Reuss Voigt Hill
#
# Bulk Modulus (GPa) = 36.32411 37.26793 36.79602
# Shear Modulus (GPa) = 5.23997 -4.16408 0.53794
#
# Velocity S-wave (km/s) = 1.68565 -1.50267 0.54010
# Velocity P-wave (km/s) = 4.84621 4.14708 4.51021
#
# Compressibility (1/GPa) = 0.02752993
#
# Stress axis : x y z
#
# Youngs Moduli (GPa) = 78.39344 78.39605 47.57493
#
# Poissons Ratio (x) = 0.07618 0.20287
# Poissons Ratio (y) = 0.07618 0.20289
# Poissons Ratio (z) = 0.33429 0.33433
#
# Static dielectric constant tensor:
#      x y z
#    x 1.700130 0.000000 0.000000 
#    y 0.000000 1.700130 0.000000 
#    z 0.000000 0.000000 1.629410 
# 
# From -- ./inp_files/2306.got.cif
#   From: 2010.05.17/outbox.cif.g08.bks.cpg/sg113_cif.got.tgz:2306.got - 2010.05.20 11:03:00.
