data_PCOD9555431
_publ_section_title
;
Structure prediction by ZEFSAII (Michael W. Deem and Ramdas Pophale) SiO2 
 PCOD9555431
Probable space group: P -4 2 C
;
_chemical_formula_sum "Si O2"
_cell_formula_units_Z 48
_cell_length_a 9.000000
_cell_length_b 9.000000
_cell_length_c 30.000000
_cell_angle_alpha 90.000000
_cell_angle_beta 90.000000
_cell_angle_gamma 90.000000
_cell_volume 2430.000000
_symmetry_space_group_name_H-M "P -4 2 C"
_symmetry_group_IT_number 112
_symmetry_cell_setting 'tetragonal'
loop_
_space_group_symop_operation_xyz
x,y,z
y,-x,-z
-x,-y,z
-y,x,-z
x,-y,1/2-z
-x,y,1/2-z
-y,-x,1/2+z
y,x,1/2+z
loop_
_atom_site_type_symbol
_atom_site_label
_atom_site_fract_x
_atom_site_fract_y
_atom_site_fract_z
Si Si1 0.167450 0.671007 0.653999
Si Si2 0.679454 0.165237 0.903708
Si Si3 0.821363 0.836401 0.759053
Si Si4 0.858419 0.801069 0.509579
Si Si5 0.814268 0.660147 0.674158
Si Si6 0.344995 0.814197 0.578474
O O1 0.217946 0.787485 0.691417
O O2 0.229419 0.508126 0.664377
O O3 0.225195 0.722130 0.606316
O O4 0.989703 0.667471 0.661499
O O5 0.790624 0.221930 0.942034
O O6 0.736520 0.220054 0.856785
O O7 0.513673 0.224692 0.910753
O O8 0.677359 0.987308 0.908500
O O9 0.779988 0.708158 0.724358
O O10 0.000000 0.845480 0.750000
O O11 0.760227 0.000000 0.750000
O O12 0.803784 0.682206 0.474017
O O13 0.036867 0.806512 0.508187
#
# Coordination Sequence:
#
# PCOD9555431 Si02
#       6
#     8   8   8   8   8   8
#     4  10  20  34  54  80 109 140 175 216 262 313
#     4  10  21  36  54  78 108 140 175 216 262 313
#     4   9  17  31  54  81 106 135 174 220 266 311
#     4   9  18  34  56  79 104 138 180 223 264 309
#     4  10  20  34  54  80 109 140 175 216 262 313
#     4  10  21  36  54  78 108 140 175 216 262 313
#
# _framework density 19.753086
#
# number of rings (size 3 to 8) (size 9 to 14) (size 15 to 20)
#    0.000    2.333    0.000    2.500    0.000    7.333 
#    0.000    4.167    0.000    5.000    0.000    0.000 
#    0.000    0.000    0.000    0.000    0.000    0.000 
#
# Total GULP energy -267642.854841 kJ/mol
# GULP energy per Si atom -5575.892809 kJ/mol
# Density = 1.970813 g / cm^3
# Si number density = 19.753086 Si / 1000 Ang^3
#
#
#
# Elastic Constant Matrix: (Units=GPa)
#
#
# Indices 1 2 3 4 5 6 
#
# 1 17.3210 -5.5987 -10.1627 0.0000 0.0000 0.0000
# 2 -5.5987 17.3210 -10.1627 0.0000 0.0000 0.0000
# 3 -10.1627 -10.1627 19.9511 0.0000 0.0000 0.0000
# 4 0.0000 0.0000 0.0000 -6.9108 0.0000 0.0000
# 5 0.0000 0.0000 0.0000 0.0000 -6.9108 0.0000
# 6 0.0000 0.0000 0.0000 0.0000 0.0000 7.4476
#
#
#
# Elastic Compliance Matrix: (Units=1/GPa)
#
#
# Indices 1 2 3 4 5 6 
#
# 1 0.387063 0.343432 0.372100 0.000000 0.000000 0.000000
# 2 0.343432 0.387063 0.372100 0.000000 0.000000 0.000000
# 3 0.372100 0.372100 0.429203 0.000000 0.000000 0.000000
# 4 0.000000 0.000000 0.000000 -0.144701 0.000000 0.000000
# 5 0.000000 0.000000 0.000000 0.000000 -0.144701 0.000000
# 6 0.000000 0.000000 0.000000 0.000000 0.000000 0.134271
#
#
# Mechanical properties :
#
#
# Convention : Reuss Voigt Hill
#
# Bulk Modulus (GPa) = 0.29598 0.30499 0.30048
# Shear Modulus (GPa) = -5752.26689 4.09302 -2874.08693
#
# Velocity S-wave (km/s) = -54.02228 1.44104 -38.18593
# Velocity P-wave (km/s) = 62.37835 1.70983 44.09158
#
# Compressibility (1/GPa) = 3.37859105
#
# Stress axis : x y z
#
# Youngs Moduli (GPa) = 2.58356 2.58356 2.32990
#
# Poissons Ratio (x) = -0.88728 -0.86695
# Poissons Ratio (y) = -0.88728 -0.86695
# Poissons Ratio (z) = -0.96134 -0.96134
#
# Static dielectric constant tensor:
#      x y z
#    x 1.697020 0.000000 0.000000 
#    y 0.000000 1.697020 0.000000 
#    z 0.000000 0.000000 1.653540 
# 
# From -- ./inp_files/6268.got.cif
#   From: 2010.05.17/outbox.ucp.g08.bks.cvg/sg112_4_cif.got.tgz:6268.got - 2010.06.11 11:33:06.
