data_PCOD9555958
_publ_section_title
;
Structure prediction by ZEFSAII (Michael W. Deem and Ramdas Pophale) SiO2 
 PCOD9555958
Probable space group: P -4 21 C
;
_chemical_formula_sum "Si O2"
_cell_formula_units_Z 44
_cell_length_a 9.091363
_cell_length_b 9.091363
_cell_length_c 28.075334
_cell_angle_alpha 90.000000
_cell_angle_beta 90.000000
_cell_angle_gamma 90.000000
_cell_volume 2320.507246
_symmetry_space_group_name_H-M "P -4 21 C"
_symmetry_group_IT_number 114
_symmetry_cell_setting 'tetragonal'
loop_
_space_group_symop_operation_xyz
x,y,z
y,-x,-z
-x,-y,z
-y,x,-z
1/2+x,1/2-y,1/2-z
1/2-x,1/2+y,1/2-z
1/2-y,1/2-x,1/2+z
1/2+y,1/2+x,1/2+z
loop_
_atom_site_type_symbol
_atom_site_label
_atom_site_fract_x
_atom_site_fract_y
_atom_site_fract_z
Si Si1 0.500000 0.500000 0.751127
Si Si2 0.534371 0.755747 0.828041
Si Si3 0.853782 0.790725 0.071726
Si Si4 0.486220 0.329997 0.933993
Si Si5 0.530075 0.247627 0.326822
Si Si6 0.415823 0.154501 0.497446
O O1 0.516837 0.638947 0.786127
O O2 0.360916 0.482141 0.716171
O O3 0.561770 0.676885 0.878774
O O4 0.384591 0.851297 0.824160
O O5 0.665590 0.873668 0.826993
O O6 0.758906 0.639552 0.069757
O O7 0.918741 0.823299 0.123647
O O8 0.991478 0.756178 0.038029
O O9 0.742868 0.902341 0.046524
O O10 0.500000 0.500000 0.947409
O O11 0.384469 0.238118 0.970708
O O12 0.500000 0.000000 0.503794
#
# Coordination Sequence:
#
# PCOD9555958 Si02
#       6
#     4   8   8   8   8   8
#     4  12  22  36  64  95 115 160 218 258 308 370
#     4  10  20  41  62  86 120 163 204 256 313 377
#     4  10  22  39  60  84 128 169 197 257 325 381
#     4  10  20  36  62  91 115 157 215 267 305 367
#     4  10  22  40  61  87 127 161 204 249 322 384
#     4  10  22  38  60  92 122 161 213 255 315 384
#
# _framework density 18.961369999999999
#
# number of rings (size 3 to 8) (size 9 to 14) (size 15 to 20)
#    0.000    1.818    2.727    1.091    5.091    1.818 
#    0.000    0.000    8.000    0.000    0.000    0.000 
#    0.000    0.000    0.000    0.000    0.000    0.000 
#
# Total GULP energy -245277.319006 kJ/mol
# GULP energy per Si atom -5574.484523 kJ/mol
# Density = 1.891821 g / cm^3
# Si number density = 18.961370 Si / 1000 Ang^3
#
#
#
# Elastic Constant Matrix: (Units=GPa)
#
#
# Indices 1 2 3 4 5 6 
#
# 1 86.9001 27.3498 57.3498 0.0000 0.0000 0.0000
# 2 27.3498 86.9001 57.3498 0.0000 0.0000 0.0000
# 3 57.3498 57.3498 151.7026 0.0000 0.0000 0.0000
# 4 0.0000 0.0000 0.0000 104.6478 0.0000 0.0000
# 5 0.0000 0.0000 0.0000 0.0000 104.6478 0.0000
# 6 0.0000 0.0000 0.0000 0.0000 0.0000 12.4902
#
#
#
# Elastic Compliance Matrix: (Units=1/GPa)
#
#
# Indices 1 2 3 4 5 6 
#
# 1 0.015450 -0.001343 -0.005333 0.000000 0.000000 0.000000
# 2 -0.001343 0.015450 -0.005333 0.000000 0.000000 0.000000
# 3 -0.005333 -0.005333 0.010624 0.000000 0.000000 0.000000
# 4 0.000000 0.000000 0.000000 0.009556 0.000000 0.000000
# 5 0.000000 0.000000 0.000000 0.000000 0.009556 0.000000
# 6 0.000000 0.000000 0.000000 0.000000 0.000000 0.080063
#
#
# Mechanical properties :
#
#
# Convention : Reuss Voigt Hill
#
# Bulk Modulus (GPa) = 57.12445 67.73352 62.42898
# Shear Modulus (GPa) = 29.31684 56.58740 42.95212
#
# Velocity S-wave (km/s) = 3.93636 5.46885 4.76462
# Velocity P-wave (km/s) = 7.13106 8.69926 7.95390
#
# Compressibility (1/GPa) = 0.01750564
#
# Stress axis : x y z
#
# Youngs Moduli (GPa) = 64.72675 64.72675 94.12708
#
# Poissons Ratio (x) = 0.08693 0.50197
# Poissons Ratio (y) = 0.08693 0.50197
# Poissons Ratio (z) = 0.34518 0.34518
#
# Static dielectric constant tensor:
#      x y z
#    x 1.645760 0.000000 0.000000 
#    y 0.000000 1.645760 0.000000 
#    z 0.000000 0.000000 1.672150 
# 
# From -- ./inp_files/3833.got.cif
#   From: 2010.05.17/outbox.cif.g08.bks.cpg/sg114_2_cif.got.tgz:3833.got - 2010.05.20 11:04:54.
