data_PCOD9555479
_publ_section_title
;
Structure prediction by ZEFSAII (Michael W. Deem and Ramdas Pophale) SiO2 
 PCOD9555479
Probable space group: P -4 21 M 
;
_chemical_formula_sum "Si O2"
_cell_formula_units_Z 56
_cell_length_a 12.697323
_cell_length_b 12.697323
_cell_length_c 21.796828
_cell_angle_alpha 90.000000
_cell_angle_beta 90.000000
_cell_angle_gamma 90.000000
_cell_volume 3514.128452
_symmetry_space_group_name_H-M "P -4 21 M "
_symmetry_group_IT_number 113
_symmetry_cell_setting 'tetragonal'
loop_
_space_group_symop_operation_xyz
x,y,z
y,-x,-z
-x,-y,z
-y,x,-z
1/2+x,1/2-y,-z
1/2-x,1/2+y,-z
1/2-y,1/2-x,z
1/2+y,1/2+x,z
loop_
_atom_site_type_symbol
_atom_site_label
_atom_site_fract_x
_atom_site_fract_y
_atom_site_fract_z
Si Si1 0.874855 0.208124 0.866095
Si Si2 0.208125 0.874855 0.133905
Si Si3 0.373858 0.301203 0.432524
Si Si4 0.376863 0.376864 0.000000
Si Si5 0.198800 0.873860 0.432524
Si Si6 0.499999 0.372503 0.651458
Si Si7 0.000000 0.871900 0.208109
O O1 0.808717 0.308717 0.846335
O O2 0.855183 0.186143 0.938196
O O3 0.840810 0.105083 0.828173
O O4 1.000000 0.222054 0.858072
O O5 0.308717 0.808717 0.153665
O O6 0.105083 0.840811 0.171827
O O7 0.186143 0.855183 0.061804
O O8 0.302857 0.197144 0.422794
O O9 0.346277 0.346279 0.500001
O O10 0.499999 0.282117 0.428222
O O11 0.343158 0.393823 0.384882
O O12 0.362396 0.500000 0.015411
O O13 0.302861 0.802861 0.422794
O O14 0.106182 0.843159 0.384881
O O15 0.500000 0.500000 0.652452
O O16 0.500000 0.335357 0.721635
O O17 0.000000 0.000000 0.208129
#
# Coordination Sequence:
#
# PCOD9555479 Si02
#       7
#     8   8   8   8   8   8   8
#     4  10  19  31  50  74 102 132 168 211 258 304
#     4  10  19  31  50  74 102 132 168 211 258 304
#     4  10  19  32  52  78 106 136 171 211 256 302
#     4   9  15  28  50  74  96 126 170 216 254 296
#     4  10  19  32  52  78 106 136 171 211 256 302
#     4   9  18  32  54  73  99 131 171 212 242 294
#     4   9  18  34  50  73  97 131 175 206 240 296
#
# _framework density 15.935670999999999
#
# number of rings (size 3 to 8) (size 9 to 14) (size 15 to 20)
#    0.000    2.429    2.857    0.429    0.000    1.714 
#    0.000    0.000    0.000    0.857    0.000   10.000 
#    0.000    0.000    0.000    0.000    0.000    0.000 
#
# Total GULP energy -311931.947505 kJ/mol
# GULP energy per Si atom -5570.213348 kJ/mol
# Density = 1.589940 g / cm^3
# Si number density = 15.935671 Si / 1000 Ang^3
#
#
#
# Elastic Constant Matrix: (Units=GPa)
#
#
# Indices 1 2 3 4 5 6 
#
# 1 134.5156 26.0035 44.4886 0.0000 0.0000 0.0000
# 2 26.0035 134.5172 44.4892 0.0000 0.0000 0.0000
# 3 44.4886 44.4892 94.8878 0.0000 0.0000 0.0000
# 4 0.0000 0.0000 0.0000 6.2497 0.0000 0.0000
# 5 0.0000 0.0000 0.0000 0.0000 6.2501 0.0000
# 6 0.0000 0.0000 0.0000 0.0000 0.0000 26.6708
#
#
#
# Elastic Compliance Matrix: (Units=1/GPa)
#
#
# Indices 1 2 3 4 5 6 
#
# 1 0.008816 -0.000399 -0.003947 0.000000 0.000000 0.000000
# 2 -0.000399 0.008816 -0.003947 0.000000 0.000000 0.000000
# 3 -0.003947 -0.003947 0.014239 0.000000 0.000000 0.000000
# 4 0.000000 0.000000 0.000000 0.160007 0.000000 0.000000
# 5 0.000000 0.000000 0.000000 0.000000 0.159997 0.000000
# 6 0.000000 0.000000 0.000000 0.000000 0.000000 0.037494
#
#
# Mechanical properties :
#
#
# Convention : Reuss Voigt Hill
#
# Bulk Modulus (GPa) = 65.41060 65.98702 65.69881
# Shear Modulus (GPa) = 12.16395 24.43008 18.29701
#
# Velocity S-wave (km/s) = 2.76581 3.91966 3.39216
# Velocity P-wave (km/s) = 7.16487 7.87294 7.52724
#
# Compressibility (1/GPa) = 0.01528804
#
# Stress axis : x y z
#
# Youngs Moduli (GPa) = 113.42405 113.42505 70.22719
#
# Poissons Ratio (x) = 0.04526 0.27715
# Poissons Ratio (y) = 0.04526 0.27716
# Poissons Ratio (z) = 0.44763 0.44764
#
# Static dielectric constant tensor:
#      x y z
#    x 1.520620 0.000000 0.000000 
#    y 0.000000 1.520620 0.000000 
#    z 0.000000 0.000000 1.543450 
# 
# From -- ./inp_files/2668.got.cif
#   From: 2010.05.17/outbox.cif.g08.bks.cpg/sg113_cif.got.tgz:2668.got - 2010.05.20 11:03:00.
