data_PCOD9555175
_publ_section_title
;
Structure prediction by ZEFSAII (Michael W. Deem and Ramdas Pophale) SiO2 
 PCOD9555175
Probable space group: P -4 2 C
;
_chemical_formula_sum "Si O2"
_cell_formula_units_Z 56
_cell_length_a 15.220105
_cell_length_b 15.220105
_cell_length_c 10.351652
_cell_angle_alpha 90.000000
_cell_angle_beta 90.000000
_cell_angle_gamma 90.000000
_cell_volume 2397.976709
_symmetry_space_group_name_H-M "P -4 2 C"
_symmetry_group_IT_number 112
_symmetry_cell_setting 'tetragonal'
loop_
_space_group_symop_operation_xyz
x,y,z
y,-x,-z
-x,-y,z
-y,x,-z
x,-y,1/2-z
-x,y,1/2-z
-y,-x,1/2+z
y,x,1/2+z
loop_
_atom_site_type_symbol
_atom_site_label
_atom_site_fract_x
_atom_site_fract_y
_atom_site_fract_z
Si Si1 0.401906 0.252687 0.207259
Si Si2 0.839760 0.808416 0.477098
Si Si3 0.925319 0.568995 0.592117
Si Si4 0.243498 0.992582 0.094654
Si Si5 0.533778 0.809278 0.618792
Si Si6 0.633655 0.538752 0.486227
Si Si7 0.219455 0.722857 0.278118
O O1 0.500000 0.272273 0.250000
O O2 0.401030 0.146893 0.197240
O O3 0.317284 0.285163 0.283419
O O4 0.397560 0.309023 0.076120
O O5 0.939982 0.820786 0.520755
O O6 0.796183 0.771966 0.609701
O O7 0.837250 0.748846 0.347057
O O8 0.785077 0.895150 0.442787
O O9 0.975374 0.658578 0.552730
O O10 0.863100 0.514294 0.493459
O O11 0.000000 0.500000 0.624575
O O12 0.238803 0.000000 0.250000
O O13 0.500000 0.850649 0.750000
O O14 0.501206 0.708040 0.606569
O O15 0.637556 0.808977 0.641641
O O16 0.591647 0.452625 0.557721
#
# Coordination Sequence:
#
# PCOD9555175 Si02
#       7
#     8   8   8   8   8   8   8
#     4  11  25  39  66 104 143 204 261 326 390 467
#     4  12  27  50  83 115 158 206 257 339 404 499
#     4  11  25  44  69 107 148 191 262 324 391 462
#     4  12  26  52  80 123 158 207 266 323 414 488
#     4  11  25  41  67 100 143 204 253 324 385 472
#     4  10  22  39  58  91 139 194 261 319 380 440
#     4  12  26  48  75 111 160 212 266 324 411 474
#
# _framework density 23.353020000000001
#
# number of rings (size 3 to 8) (size 9 to 14) (size 15 to 20)
#    0.000    0.714    4.286    1.714   12.000    1.143 
#    0.000    5.000    0.000    0.000    0.000    0.000 
#    0.000    0.000    0.000    0.000    0.000    0.000 
#
# Total GULP energy -312488.750688 kJ/mol
# GULP energy per Si atom -5580.156262 kJ/mol
# Density = 2.329987 g / cm^3
# Si number density = 23.353020 Si / 1000 Ang^3
#
#
#
# Elastic Constant Matrix: (Units=GPa)
#
#
# Indices 1 2 3 4 5 6 
#
# 1 120.0421 37.1620 30.2928 0.0000 0.0000 0.0000
# 2 37.1620 120.0421 30.2928 0.0000 0.0000 0.0000
# 3 30.2928 30.2928 93.0211 0.0000 0.0000 0.0000
# 4 0.0000 0.0000 0.0000 20.2124 0.0000 0.0000
# 5 0.0000 0.0000 0.0000 0.0000 20.2124 0.0000
# 6 0.0000 0.0000 0.0000 0.0000 0.0000 47.2417
#
#
#
# Elastic Compliance Matrix: (Units=1/GPa)
#
#
# Indices 1 2 3 4 5 6 
#
# 1 0.009670 -0.002396 -0.002369 0.000000 0.000000 0.000000
# 2 -0.002396 0.009670 -0.002369 0.000000 0.000000 0.000000
# 3 -0.002369 -0.002369 0.012293 0.000000 0.000000 0.000000
# 4 0.000000 0.000000 0.000000 0.049475 0.000000 0.000000
# 5 0.000000 0.000000 0.000000 0.000000 0.049475 0.000000
# 6 0.000000 0.000000 0.000000 0.000000 0.000000 0.021168
#
#
# Mechanical properties :
#
#
# Convention : Reuss Voigt Hill
#
# Bulk Modulus (GPa) = 57.58409 58.73340 58.15874
# Shear Modulus (GPa) = 29.10272 33.22381 31.16327
#
# Velocity S-wave (km/s) = 3.53400 3.77593 3.65697
# Velocity P-wave (km/s) = 6.43147 6.64944 6.54136
#
# Compressibility (1/GPa) = 0.01736591
#
# Stress axis : x y z
#
# Youngs Moduli (GPa) = 103.41406 103.41406 81.34636
#
# Poissons Ratio (x) = 0.24776 0.19270
# Poissons Ratio (y) = 0.24776 0.19270
# Poissons Ratio (z) = 0.24497 0.24497
#
# Static dielectric constant tensor:
#      x y z
#    x 2.061620 0.000000 0.000000 
#    y 0.000000 2.061620 0.000000 
#    z 0.000000 0.000000 1.913320 
# 
# From -- ./inp_files/2649.got.cif
#   From: 2010.05.17/outbox.cif.g08.bks.cpg/sg112_2_cif.got.tgz:2649.got - 2010.05.20 10:59:04.
