data_PCOD9555490
_publ_section_title
;
Structure prediction by ZEFSAII (Michael W. Deem and Ramdas Pophale) SiO2 
 PCOD9555490
Probable space group: P -4 21 M 
;
_chemical_formula_sum "Si O2"
_cell_formula_units_Z 48
_cell_length_a 15.900246
_cell_length_b 15.900246
_cell_length_c 12.262217
_cell_angle_alpha 90.000000
_cell_angle_beta 90.000000
_cell_angle_gamma 90.000000
_cell_volume 3100.107005
_symmetry_space_group_name_H-M "P -4 21 M "
_symmetry_group_IT_number 113
_symmetry_cell_setting 'tetragonal'
loop_
_space_group_symop_operation_xyz
x,y,z
y,-x,-z
-x,-y,z
-y,x,-z
1/2+x,1/2-y,-z
1/2-x,1/2+y,-z
1/2-y,1/2-x,z
1/2+y,1/2+x,z
loop_
_atom_site_type_symbol
_atom_site_label
_atom_site_fract_x
_atom_site_fract_y
_atom_site_fract_z
Si Si1 0.932524 0.567477 0.055542
Si Si2 0.624156 0.563527 0.499525
Si Si3 0.752584 0.016775 0.682902
Si Si4 0.067169 0.432832 0.320509
Si Si5 0.241585 0.975092 0.942105
Si Si6 0.812677 0.830930 0.941083
Si Si7 0.172451 0.810547 0.317801
O O1 0.934653 0.565348 0.187934
O O2 0.958412 0.661635 0.024029
O O3 0.000000 0.500000 0.015290
O O4 0.605810 0.465833 0.524025
O O5 0.680544 0.563901 0.391926
O O6 0.666566 0.610461 0.601435
O O7 0.660349 0.043153 0.646716
O O8 0.763935 0.035221 0.810955
O O9 0.763183 0.916744 0.668989
O O10 0.000000 0.500000 0.360600
O O11 0.215872 0.072399 0.964388
O O12 0.189316 0.899665 0.997118
O O13 0.737769 0.762232 0.966154
O O14 0.830094 0.822747 0.811119
O O15 0.248887 0.748887 0.345911
#
# Coordination Sequence:
#
# PCOD9555490 Si02
#       7
#     4   8   8   4   8   8   8
#     4   9  16  30  50  71  95 132 170 200 248 301
#     4   9  18  32  48  68  95 127 165 202 237 289
#     4   9  18  30  48  73  97 124 159 204 247 294
#     4   9  16  26  46  73  99 119 149 203 255 287
#     4  10  19  32  51  74 104 131 163 213 258 296
#     4  10  20  34  50  74 104 134 170 209 251 306
#     4   9  18  32  50  69  96 131 164 197 241 299
#
# _framework density 15.483337000000001
#
# number of rings (size 3 to 8) (size 9 to 14) (size 15 to 20)
#    0.000    2.667    0.833    1.000    1.167    5.667 
#    0.000    3.333    0.000    0.000    0.000    4.667 
#    0.000    0.000    0.000    0.000    0.000    0.000 
#
# Total GULP energy -267252.012324 kJ/mol
# GULP energy per Si atom -5567.750257 kJ/mol
# Density = 1.544810 g / cm^3
# Si number density = 15.483337 Si / 1000 Ang^3
#
#
#
# Elastic Constant Matrix: (Units=GPa)
#
#
# Indices 1 2 3 4 5 6 
#
# 1 109.2632 80.1595 53.1737 0.0000 0.0000 0.0000
# 2 80.1595 109.2639 53.1738 0.0000 0.0000 0.0000
# 3 53.1737 53.1738 47.8994 0.0000 0.0000 0.0000
# 4 0.0000 0.0000 0.0000 22.5710 0.0000 0.0000
# 5 0.0000 0.0000 0.0000 0.0000 22.5712 0.0000
# 6 0.0000 0.0000 0.0000 0.0000 0.0000 25.8496
#
#
#
# Elastic Compliance Matrix: (Units=1/GPa)
#
#
# Indices 1 2 3 4 5 6 
#
# 1 0.024186 -0.010174 -0.015555 0.000000 0.000000 0.000000
# 2 -0.010174 0.024186 -0.015555 0.000000 0.000000 0.000000
# 3 -0.015555 -0.015555 0.055413 0.000000 0.000000 0.000000
# 4 0.000000 0.000000 0.000000 0.044305 0.000000 0.000000
# 5 0.000000 0.000000 0.000000 0.000000 0.044304 0.000000
# 6 0.000000 0.000000 0.000000 0.000000 0.000000 0.038685
#
#
# Mechanical properties :
#
#
# Convention : Reuss Voigt Hill
#
# Bulk Modulus (GPa) = 47.13229 71.04896 59.09063
# Shear Modulus (GPa) = 15.58991 19.52634 17.55812
#
# Velocity S-wave (km/s) = 3.17658 3.55508 3.37115
# Velocity P-wave (km/s) = 6.63031 7.92707 7.30751
#
# Compressibility (1/GPa) = 0.02121688
#
# Stress axis : x y z
#
# Youngs Moduli (GPa) = 41.34611 41.34648 18.04615
#
# Poissons Ratio (x) = 0.42064 0.28072
# Poissons Ratio (y) = 0.42064 0.28071
# Poissons Ratio (z) = 0.64316 0.64316
#
# Static dielectric constant tensor:
#      x y z
#    x 1.514430 0.000000 0.000000 
#    y 0.000000 1.514430 0.000000 
#    z 0.000000 0.000000 1.497510 
# 
# From -- ./inp_files/1864.got.cif
#   From: 2010.05.17/outbox.cif.g08.bks.cpg/sg113_cif.got.tgz:1864.got - 2010.05.20 11:03:00.
