data_PCOD9555114
_publ_section_title
;
Structure prediction by ZEFSAII (Michael W. Deem and Ramdas Pophale) SiO2 
 PCOD9555114
Probable space group: P -4 2 C
;
_chemical_formula_sum "Si O2"
_cell_formula_units_Z 58
_cell_length_a 16.934003
_cell_length_b 16.934003
_cell_length_c 9.370258
_cell_angle_alpha 90.000000
_cell_angle_beta 90.000000
_cell_angle_gamma 90.000000
_cell_volume 2687.019472
_symmetry_space_group_name_H-M "P -4 2 C"
_symmetry_group_IT_number 112
_symmetry_cell_setting 'tetragonal'
loop_
_space_group_symop_operation_xyz
x,y,z
y,-x,-z
-x,-y,z
-y,x,-z
x,-y,1/2-z
-x,y,1/2-z
-y,-x,1/2+z
y,x,1/2+z
loop_
_atom_site_type_symbol
_atom_site_label
_atom_site_fract_x
_atom_site_fract_y
_atom_site_fract_z
Si Si1 0.500000 0.500000 0.500000
Si Si2 0.110117 0.928011 0.472921
Si Si3 0.343278 0.542954 0.117816
Si Si4 0.906181 0.186515 0.245483
Si Si5 0.561065 0.785645 0.120411
Si Si6 0.712280 0.314343 0.687197
Si Si7 0.488212 0.907379 0.919368
Si Si8 0.817262 0.676851 0.094151
O O1 0.421655 0.507080 0.408279
O O2 0.122303 0.895200 0.315751
O O3 0.176309 0.891280 0.577449
O O4 0.022428 0.896556 0.516195
O O5 0.301244 0.500000 0.250000
O O6 0.364470 0.634259 0.147908
O O7 0.289044 0.541418 0.978965
O O8 0.873867 0.254436 0.347345
O O9 0.000000 0.191194 0.250000
O O10 0.500000 0.793844 0.250000
O O11 0.643783 0.767838 0.196483
O O12 0.550786 0.859132 0.014654
O O13 0.672315 0.240176 0.767244
O O14 0.763644 0.302499 0.544302
O O15 0.500000 0.899652 0.750000
O O16 0.401982 0.867019 0.943267
O O17 0.500000 0.000000 0.953931
#
# Coordination Sequence:
#
# PCOD9555114 Si02
#       8
#     2   8   8   8   8   8   8   8
#     4  12  26  40  64 102 142 172 224 294 342 432
#     4   9  17  34  59  94 134 175 214 263 341 421
#     4  12  25  44  65 100 138 185 227 282 356 438
#     4  10  21  36  62  93 131 173 220 282 331 413
#     4  12  23  44  71 100 138 181 237 295 363 430
#     4  12  25  44  69 101 139 183 228 294 362 433
#     4  11  27  49  75 101 135 188 248 308 357 434
#     4  12  25  46  68 102 137 181 240 291 369 424
#
# _framework density 21.585255
#
# number of rings (size 3 to 8) (size 9 to 14) (size 15 to 20)
#    0.000    0.828    2.759    5.172    1.931    1.931 
#    0.000    0.000    0.000    0.000    0.000    0.000 
#    0.000    0.000    0.000    0.000    0.000    0.000 
#
# Total GULP energy -323741.367179 kJ/mol
# GULP energy per Si atom -5581.747710 kJ/mol
# Density = 2.153613 g / cm^3
# Si number density = 21.585255 Si / 1000 Ang^3
#
#
#
# Elastic Constant Matrix: (Units=GPa)
#
#
# Indices 1 2 3 4 5 6 
#
# 1 74.8015 30.2696 37.0241 0.0000 0.0000 0.0000
# 2 30.2696 74.8015 37.0241 0.0000 0.0000 0.0000
# 3 37.0241 37.0241 122.0556 0.0000 0.0000 0.0000
# 4 0.0000 0.0000 0.0000 25.8132 0.0000 0.0000
# 5 0.0000 0.0000 0.0000 0.0000 25.8132 0.0000
# 6 0.0000 0.0000 0.0000 0.0000 0.0000 21.5865
#
#
#
# Elastic Compliance Matrix: (Units=1/GPa)
#
#
# Indices 1 2 3 4 5 6 
#
# 1 0.017280 -0.005175 -0.003672 0.000000 0.000000 0.000000
# 2 -0.005175 0.017280 -0.003672 0.000000 0.000000 0.000000
# 3 -0.003672 -0.003672 0.010421 0.000000 0.000000 0.000000
# 4 0.000000 0.000000 0.000000 0.038740 0.000000 0.000000
# 5 0.000000 0.000000 0.000000 0.000000 0.038740 0.000000
# 6 0.000000 0.000000 0.000000 0.000000 0.000000 0.046325
#
#
# Mechanical properties :
#
#
# Convention : Reuss Voigt Hill
#
# Bulk Modulus (GPa) = 50.14249 53.36603 51.75426
# Shear Modulus (GPa) = 24.94102 25.79862 25.36982
#
# Velocity S-wave (km/s) = 3.40290 3.46091 3.43203
# Velocity P-wave (km/s) = 6.22254 6.38338 6.30348
#
# Compressibility (1/GPa) = 0.01994317
#
# Stress axis : x y z
#
# Youngs Moduli (GPa) = 57.86872 57.86872 95.96302
#
# Poissons Ratio (x) = 0.29949 0.35237
# Poissons Ratio (y) = 0.29949 0.35237
# Poissons Ratio (z) = 0.21249 0.21249
#
# Static dielectric constant tensor:
#      x y z
#    x 1.844250 0.000000 0.000000 
#    y 0.000000 1.844250 0.000000 
#    z 0.000000 0.000000 1.813910 
# 
# From -- ./inp_files/1520.got.cif
#   From: 2010.05.17/outbox.cif.g08.bks.cpg/sg112_1_cif.got.tgz:1520.got - 2010.05.20 10:59:04.
