data_PCOD9555668
_publ_section_title
;
Structure prediction by ZEFSAII (Michael W. Deem and Ramdas Pophale) SiO2 
 PCOD9555668
Probable space group: P -4 21 M 
;
_chemical_formula_sum "Si O2"
_cell_formula_units_Z 56
_cell_length_a 14.467679
_cell_length_b 14.467679
_cell_length_c 14.815349
_cell_angle_alpha 90.000000
_cell_angle_beta 90.000000
_cell_angle_gamma 90.000000
_cell_volume 3101.056044
_symmetry_space_group_name_H-M "P -4 21 M "
_symmetry_group_IT_number 113
_symmetry_cell_setting 'tetragonal'
loop_
_space_group_symop_operation_xyz
x,y,z
y,-x,-z
-x,-y,z
-y,x,-z
1/2+x,1/2-y,-z
1/2-x,1/2+y,-z
1/2-y,1/2-x,z
1/2+y,1/2+x,z
loop_
_atom_site_type_symbol
_atom_site_label
_atom_site_fract_x
_atom_site_fract_y
_atom_site_fract_z
Si Si1 0.085738 0.744053 0.721765
Si Si2 0.133208 0.219467 0.164564
Si Si3 0.549037 0.353843 0.007607
Si Si4 0.696667 0.049941 0.654418
Si Si5 0.608391 0.265350 0.197105
Si Si6 0.791014 0.860036 0.649369
Si Si7 0.177734 0.165519 0.453259
O O1 0.155600 0.655600 0.722479
O O2 0.129331 0.819157 0.791142
O O3 0.092138 0.792043 0.623097
O O4 0.982152 0.724161 0.753068
O O5 0.217427 0.282573 0.131648
O O6 0.065619 0.205040 0.082028
O O7 0.084524 0.270807 0.247467
O O8 0.444098 0.387767 0.008011
O O9 0.578722 0.304053 0.099636
O O10 0.596376 0.096376 0.636934
O O11 0.769140 0.097340 0.585418
O O12 0.715976 0.941757 0.652973
O O13 0.688037 0.188037 0.186634
O O14 0.645260 0.348419 0.262427
O O15 0.736283 0.763718 0.646466
O O16 0.842215 0.870568 0.553338
O O17 0.266877 0.233124 0.458500
#
# Coordination Sequence:
#
# PCOD9555668 Si02
#       7
#     8   8   8   8   8   8   8
#     4   9  18  36  59  79 103 143 190 228 264 324
#     4   9  17  34  56  74  98 135 178 222 265 318
#     4  11  21  34  54  80 109 140 180 227 270 328
#     4   9  18  34  57  77  99 141 189 223 263 330
#     4  11  23  37  55  82 118 149 178 227 292 338
#     4  10  21  35  52  80 117 146 176 228 283 333
#     4   8  17  34  55  77 106 145 183 220 271 328
#
# _framework density 18.058364000000001
#
# number of rings (size 3 to 8) (size 9 to 14) (size 15 to 20)
#    0.000    2.429    1.429    3.000    2.000    0.571 
#    0.000    0.000    0.000    2.571    0.000    2.000 
#    0.000    0.000    0.000    0.000    0.000    0.000 
#
# Total GULP energy -311851.362140 kJ/mol
# GULP energy per Si atom -5568.774324 kJ/mol
# Density = 1.801726 g / cm^3
# Si number density = 18.058364 Si / 1000 Ang^3
#
#
#
# Elastic Constant Matrix: (Units=GPa)
#
#
# Indices 1 2 3 4 5 6 
#
# 1 53.2246 -16.4300 20.0598 0.0000 0.0000 0.0000
# 2 -16.4300 53.2323 20.0602 0.0000 0.0000 0.0000
# 3 20.0598 20.0602 80.0995 0.0000 0.0000 0.0000
# 4 0.0000 0.0000 0.0000 18.5352 0.0000 0.0000
# 5 0.0000 0.0000 0.0000 0.0000 18.5348 0.0000
# 6 0.0000 0.0000 0.0000 0.0000 0.0000 12.9931
#
#
#
# Elastic Compliance Matrix: (Units=1/GPa)
#
#
# Indices 1 2 3 4 5 6 
#
# 1 0.025871 0.011513 -0.009362 0.000000 0.000000 0.000000
# 2 0.011513 0.025867 -0.009361 0.000000 0.000000 0.000000
# 3 -0.009362 -0.009361 0.017174 0.000000 0.000000 0.000000
# 4 0.000000 0.000000 0.000000 0.053951 0.000000 0.000000
# 5 0.000000 0.000000 0.000000 0.000000 0.053953 0.000000
# 6 0.000000 0.000000 0.000000 0.000000 0.000000 0.076964
#
#
# Mechanical properties :
#
#
# Convention : Reuss Voigt Hill
#
# Bulk Modulus (GPa) = 18.35195 25.99294 22.17245
# Shear Modulus (GPa) = 17.46028 20.87038 19.16533
#
# Velocity S-wave (km/s) = 3.11284 3.40327 3.26129
# Velocity P-wave (km/s) = 4.80670 5.46517 5.14648
#
# Compressibility (1/GPa) = 0.05449011
#
# Stress axis : x y z
#
# Youngs Moduli (GPa) = 38.65341 38.65943 58.22874
#
# Poissons Ratio (x) = -0.44509 0.54516
# Poissons Ratio (y) = -0.44502 0.54511
# Poissons Ratio (z) = 0.36189 0.36191
#
# Static dielectric constant tensor:
#      x y z
#    x 1.626860 0.000000 0.000000 
#    y 0.000000 1.626860 0.000000 
#    z 0.000000 0.000000 1.650010 
# 
# From -- ./inp_files/2318.got.cif
#   From: 2010.05.17/outbox.cif.g08.bks.cpg/sg113_cif.got.tgz:2318.got - 2010.05.20 11:03:00.
