data_PCOD9555760
_publ_section_title
;
Structure prediction by ZEFSAII (Michael W. Deem and Ramdas Pophale) SiO2 
 PCOD9555760
Probable space group: P -4 21 M 
;
_chemical_formula_sum "Si O2"
_cell_formula_units_Z 48
_cell_length_a 14.653786
_cell_length_b 14.653786
_cell_length_c 12.494643
_cell_angle_alpha 90.000000
_cell_angle_beta 90.000000
_cell_angle_gamma 90.000000
_cell_volume 2683.017725
_symmetry_space_group_name_H-M "P -4 21 M "
_symmetry_group_IT_number 113
_symmetry_cell_setting 'tetragonal'
loop_
_space_group_symop_operation_xyz
x,y,z
y,-x,-z
-x,-y,z
-y,x,-z
1/2+x,1/2-y,-z
1/2-x,1/2+y,-z
1/2-y,1/2-x,z
1/2+y,1/2+x,z
loop_
_atom_site_type_symbol
_atom_site_label
_atom_site_fract_x
_atom_site_fract_y
_atom_site_fract_z
Si Si1 0.578289 0.921712 0.282708
Si Si2 0.937092 0.717001 0.637585
Si Si3 0.434915 0.781134 0.967750
Si Si4 0.353732 0.449946 0.833922
Si Si5 0.140095 0.958372 0.538191
Si Si6 0.548355 0.361942 0.793478
Si Si7 0.421779 0.078222 0.035696
O O1 0.531677 0.836540 0.340586
O O2 0.600733 0.899268 0.159293
O O3 0.500000 0.000000 0.279418
O O4 0.856087 0.643914 0.646065
O O5 0.928268 0.792151 0.730662
O O6 0.937060 0.767662 0.524566
O O7 0.354067 0.854067 0.983138
O O8 0.427145 0.729715 0.855539
O O9 0.432165 0.705566 0.060949
O O10 0.530255 0.836074 0.979908
O O11 0.446731 0.392279 0.829309
O O12 0.385071 0.555333 0.826674
O O13 0.146147 0.950573 0.665492
O O14 0.059704 0.892650 0.495269
O O15 0.500000 0.000000 0.038629
#
# Coordination Sequence:
#
# PCOD9555760 Si02
#       7
#     4   8   8   8   8   8   4
#     4   9  18  36  61  87 119 157 198 246 303 353
#     4  11  21  37  63  94 123 155 205 260 306 359
#     4  11  23  40  60  91 127 160 201 250 308 368
#     4  11  20  41  63  88 118 164 204 251 302 366
#     4  11  20  41  63  86 118 164 206 251 309 361
#     4  11  23  40  63  87 127 162 202 250 314 367
#     4   9  18  36  61  81 117 165 194 236 303 367
#
# _framework density 17.890301999999998
#
# number of rings (size 3 to 8) (size 9 to 14) (size 15 to 20)
#    0.000    1.333    5.000    2.500    0.000    2.000 
#   10.500    0.833    0.000    3.000    0.000    0.000 
#    0.000    0.000    0.000    0.000    0.000    0.000 
#
# Total GULP energy -268098.334021 kJ/mol
# GULP energy per Si atom -5585.381959 kJ/mol
# Density = 1.784958 g / cm^3
# Si number density = 17.890302 Si / 1000 Ang^3
#
#
#
# Elastic Constant Matrix: (Units=GPa)
#
#
# Indices 1 2 3 4 5 6 
#
# 1 87.6172 39.2983 44.3573 0.0000 0.0000 0.0000
# 2 39.2983 87.6171 44.3574 0.0000 0.0000 0.0000
# 3 44.3573 44.3574 128.0513 0.0000 0.0000 0.0000
# 4 0.0000 0.0000 0.0000 26.4776 0.0000 0.0000
# 5 0.0000 0.0000 0.0000 0.0000 26.4792 0.0000
# 6 0.0000 0.0000 0.0000 0.0000 0.0000 13.1866
#
#
#
# Elastic Compliance Matrix: (Units=1/GPa)
#
#
# Indices 1 2 3 4 5 6 
#
# 1 0.015546 -0.005150 -0.003601 0.000000 0.000000 0.000000
# 2 -0.005150 0.015546 -0.003601 0.000000 0.000000 0.000000
# 3 -0.003601 -0.003601 0.010304 0.000000 0.000000 0.000000
# 4 0.000000 0.000000 0.000000 0.037768 0.000000 0.000000
# 5 0.000000 0.000000 0.000000 0.000000 0.037765 0.000000
# 6 0.000000 0.000000 0.000000 0.000000 0.000000 0.075834
#
#
# Mechanical properties :
#
#
# Convention : Reuss Voigt Hill
#
# Bulk Modulus (GPa) = 59.90865 62.14573 61.02719
# Shear Modulus (GPa) = 22.41814 24.91353 23.66583
#
# Velocity S-wave (km/s) = 3.54374 3.73577 3.64102
# Velocity P-wave (km/s) = 7.09249 7.30893 7.20153
#
# Compressibility (1/GPa) = 0.01669208
#
# Stress axis : x y z
#
# Youngs Moduli (GPa) = 64.32411 64.32392 97.04520
#
# Poissons Ratio (x) = 0.33124 0.34950
# Poissons Ratio (y) = 0.33124 0.34951
# Poissons Ratio (z) = 0.23166 0.23166
#
# Static dielectric constant tensor:
#      x y z
#    x 1.611100 0.000000 0.000000 
#    y 0.000000 1.611100 0.000000 
#    z 0.000000 0.000000 1.597090 
# 
# From -- ./inp_files/1881.got.cif
#   From: 2010.05.17/outbox.cif.g08.bks.cpg/sg113_cif.got.tgz:1881.got - 2010.05.20 11:03:00.
