data_PCOD9555685
_publ_section_title
;
Structure prediction by ZEFSAII (Michael W. Deem and Ramdas Pophale) SiO2 
 PCOD9555685
Probable space group: P -4 21 M 
;
_chemical_formula_sum "Si O2"
_cell_formula_units_Z 40
_cell_length_a 10.881749
_cell_length_b 10.881749
_cell_length_c 16.142330
_cell_angle_alpha 90.000000
_cell_angle_beta 90.000000
_cell_angle_gamma 90.000000
_cell_volume 1911.453026
_symmetry_space_group_name_H-M "P -4 21 M "
_symmetry_group_IT_number 113
_symmetry_cell_setting 'tetragonal'
loop_
_space_group_symop_operation_xyz
x,y,z
y,-x,-z
-x,-y,z
-y,x,-z
1/2+x,1/2-y,-z
1/2-x,1/2+y,-z
1/2-y,1/2-x,z
1/2+y,1/2+x,z
loop_
_atom_site_type_symbol
_atom_site_label
_atom_site_fract_x
_atom_site_fract_y
_atom_site_fract_z
Si Si1 0.355135 0.338336 0.287211
Si Si2 0.008276 0.699907 0.974238
Si Si3 0.498973 0.647908 0.867184
Si Si4 0.664171 0.621746 0.474961
Si Si5 0.767222 0.077554 0.200220
O O1 0.296239 0.203762 0.284894
O O2 0.308582 0.412005 0.206944
O O3 0.323862 0.393510 0.375564
O O4 0.500589 0.327363 0.273214
O O5 0.137030 0.637030 0.995452
O O6 0.903536 0.596465 0.978272
O O7 0.009601 0.740468 0.878914
O O8 0.974252 0.799324 0.042705
O O9 0.500000 0.500000 0.871049
O O10 0.636223 0.673977 0.836206
O O11 0.669150 0.478843 0.509210
O O12 0.772952 0.727049 0.497692
O O13 0.643733 0.143733 0.225929
#
# Coordination Sequence:
#
# PCOD9555685 Si02
#       5
#     8   8   8   8   8
#     4  10  22  41  62  87 120 158 200 249 310 375
#     4  10  21  37  54  77 114 161 208 252 297 346
#     4  10  22  34  56  83 113 153 198 251 300 360
#     4  10  24  45  74 105 138 177 218 274 341 412
#     4  10  22  35  55  85 117 158 206 254 300 359
#
# _framework density 20.926487999999999
#
# number of rings (size 3 to 8) (size 9 to 14) (size 15 to 20)
#    0.000    2.000    0.000    1.800   14.000    2.400 
#    0.000    3.000    0.000    2.400    0.000    0.000 
#    0.000    0.000    0.000    0.000    0.000    0.000 
#
# Total GULP energy -222765.780492 kJ/mol
# GULP energy per Si atom -5569.144512 kJ/mol
# Density = 2.087886 g / cm^3
# Si number density = 20.926488 Si / 1000 Ang^3
#
#
#
# Elastic Constant Matrix: (Units=GPa)
#
#
# Indices 1 2 3 4 5 6 
#
# 1 73.7348 21.0648 11.0727 0.0000 0.0000 0.0000
# 2 21.0648 73.7382 11.0748 0.0000 0.0000 0.0000
# 3 11.0727 11.0748 47.9048 0.0000 0.0000 0.0000
# 4 0.0000 0.0000 0.0000 24.5299 0.0000 0.0000
# 5 0.0000 0.0000 0.0000 0.0000 24.5292 0.0000
# 6 0.0000 0.0000 0.0000 0.0000 0.0000 26.0503
#
#
#
# Elastic Compliance Matrix: (Units=1/GPa)
#
#
# Indices 1 2 3 4 5 6 
#
# 1 0.015068 -0.003917 -0.002577 0.000000 0.000000 0.000000
# 2 -0.003917 0.015068 -0.002578 0.000000 0.000000 0.000000
# 3 -0.002577 -0.002578 0.022066 0.000000 0.000000 0.000000
# 4 0.000000 0.000000 0.000000 0.040767 0.000000 0.000000
# 5 0.000000 0.000000 0.000000 0.000000 0.040768 0.000000
# 6 0.000000 0.000000 0.000000 0.000000 0.000000 0.038387
#
#
# Mechanical properties :
#
#
# Convention : Reuss Voigt Hill
#
# Bulk Modulus (GPa) = 29.36238 31.31139 30.33689
# Shear Modulus (GPa) = 24.79890 25.16624 24.98257
#
# Velocity S-wave (km/s) = 3.44619 3.47162 3.45893
# Velocity P-wave (km/s) = 5.46778 5.57356 5.52092
#
# Compressibility (1/GPa) = 0.03405718
#
# Stress axis : x y z
#
# Youngs Moduli (GPa) = 66.36448 66.36679 45.31773
#
# Poissons Ratio (x) = 0.25999 0.11679
# Poissons Ratio (y) = 0.25998 0.11683
# Poissons Ratio (z) = 0.17104 0.17109
#
# Static dielectric constant tensor:
#      x y z
#    x 1.834510 0.000000 0.000000 
#    y 0.000000 1.834510 0.000000 
#    z 0.000000 0.000000 1.717900 
# 
# From -- ./inp_files/2190.got.cif
#   From: 2010.05.17/outbox.cif.g08.bks.cpg/sg113_cif.got.tgz:2190.got - 2010.05.20 11:03:00.
