data_PCOD9555945
_publ_section_title
;
Structure prediction by ZEFSAII (Michael W. Deem and Ramdas Pophale) SiO2 
 PCOD9555945
Probable space group: P -4 21 C
;
_chemical_formula_sum "Si O2"
_cell_formula_units_Z 48
_cell_length_a 18.353157
_cell_length_b 18.353157
_cell_length_c 5.681702
_cell_angle_alpha 90.000000
_cell_angle_beta 90.000000
_cell_angle_gamma 90.000000
_cell_volume 1913.815251
_symmetry_space_group_name_H-M "P -4 21 C"
_symmetry_group_IT_number 114
_symmetry_cell_setting 'tetragonal'
loop_
_space_group_symop_operation_xyz
x,y,z
y,-x,-z
-x,-y,z
-y,x,-z
1/2+x,1/2-y,1/2-z
1/2-x,1/2+y,1/2-z
1/2-y,1/2-x,1/2+z
1/2+y,1/2+x,1/2+z
loop_
_atom_site_type_symbol
_atom_site_label
_atom_site_fract_x
_atom_site_fract_y
_atom_site_fract_z
Si Si1 0.905388 0.725437 0.210261
Si Si2 0.878417 0.866636 0.951032
Si Si3 0.270482 0.054089 0.010114
Si Si4 0.258866 0.276970 0.209959
Si Si5 0.774163 0.462243 0.992873
Si Si6 0.106503 0.000628 0.406818
O O1 0.954140 0.703492 0.433990
O O2 0.887882 0.810944 0.167583
O O3 0.805832 0.675189 0.703684
O O4 0.966816 0.715812 0.008676
O O5 0.841572 0.815125 0.748619
O O6 0.951096 0.893973 0.827084
O O7 0.814993 0.923760 0.011508
O O8 0.300953 0.072299 0.265579
O O9 0.293771 0.079327 0.748888
O O10 0.261771 0.232548 0.457658
O O11 0.686410 0.472777 0.016175
O O12 0.068629 0.948082 0.601052
#
# Coordination Sequence:
#
# PCOD9555945 Si02
#       6
#     8   8   8   8   8   8
#     4   9  21  35  53  72 105 135 179 229 284 327
#     4  11  21  37  53  81 102 144 194 241 274 326
#     4  10  22  34  55  71 104 132 182 234 278 317
#     4  10  22  35  56  76 101 136 184 234 276 336
#     4  10  20  35  51  68  95 133 177 225 277 324
#     4  11  20  32  49  68 103 142 186 232 279 307
#
# _framework density 25.080787999999998
#
# number of rings (size 3 to 8) (size 9 to 14) (size 15 to 20)
#    1.000    0.833    3.333    1.000    4.667    2.667 
#    0.000    0.000    0.000    0.000    0.000    0.000 
#    0.000    0.000    0.000    0.000    0.000  221.667 
#
# Total GULP energy -267464.585604 kJ/mol
# GULP energy per Si atom -5572.178867 kJ/mol
# Density = 2.502370 g / cm^3
# Si number density = 25.080788 Si / 1000 Ang^3
#
#
#
# Elastic Constant Matrix: (Units=GPa)
#
#
# Indices 1 2 3 4 5 6 
#
# 1 61.0102 22.3303 18.3712 0.0000 0.0000 0.0000
# 2 22.3303 61.0102 18.3712 0.0000 0.0000 0.0000
# 3 18.3712 18.3712 201.6229 0.0000 0.0000 0.0000
# 4 0.0000 0.0000 0.0000 26.8815 0.0000 0.0000
# 5 0.0000 0.0000 0.0000 0.0000 26.8815 0.0000
# 6 0.0000 0.0000 0.0000 0.0000 0.0000 36.0094
#
#
#
# Elastic Compliance Matrix: (Units=1/GPa)
#
#
# Indices 1 2 3 4 5 6 
#
# 1 0.019177 -0.006676 -0.001139 0.000000 0.000000 0.000000
# 2 -0.006676 0.019177 -0.001139 0.000000 0.000000 0.000000
# 3 -0.001139 -0.001139 0.005167 0.000000 0.000000 0.000000
# 4 0.000000 0.000000 0.000000 0.037200 0.000000 0.000000
# 5 0.000000 0.000000 0.000000 0.000000 0.037200 0.000000
# 6 0.000000 0.000000 0.000000 0.000000 0.000000 0.027771
#
#
# Mechanical properties :
#
#
# Convention : Reuss Voigt Hill
#
# Bulk Modulus (GPa) = 39.04207 49.08760 44.06484
# Shear Modulus (GPa) = 29.04629 35.59251 32.31940
#
# Velocity S-wave (km/s) = 3.40679 3.77120 3.59362
# Velocity P-wave (km/s) = 5.57452 6.21103 5.90136
#
# Compressibility (1/GPa) = 0.02561340
#
# Stress axis : x y z
#
# Youngs Moduli (GPa) = 52.14527 52.14527 193.52356
#
# Poissons Ratio (x) = 0.34812 0.22044
# Poissons Ratio (y) = 0.34812 0.22044
# Poissons Ratio (z) = 0.05940 0.05940
#
# Static dielectric constant tensor:
#      x y z
#    x 1.996220 0.000000 0.000000 
#    y 0.000000 1.996220 0.000000 
#    z 0.000000 0.000000 2.161300 
# 
# From -- ./inp_files/224.got.cif
#   From: 2010.05.17/outbox.cif.g08.bks.cpg/sg114_1_cif.got.tgz:224.got - 2010.05.20 11:04:54.
