data_PCOD9555078
_publ_section_title
;
Structure prediction by ZEFSAII (Michael W. Deem and Ramdas Pophale) SiO2 
 PCOD9555078
Probable space group: P -4 2 C
;
_chemical_formula_sum "Si O2"
_cell_formula_units_Z 48
_cell_length_a 14.312382
_cell_length_b 14.312382
_cell_length_c 11.423521
_cell_angle_alpha 90.000000
_cell_angle_beta 90.000000
_cell_angle_gamma 90.000000
_cell_volume 2340.042917
_symmetry_space_group_name_H-M "P -4 2 C"
_symmetry_group_IT_number 112
_symmetry_cell_setting 'tetragonal'
loop_
_space_group_symop_operation_xyz
x,y,z
y,-x,-z
-x,-y,z
-y,x,-z
x,-y,1/2-z
-x,y,1/2-z
-y,-x,1/2+z
y,x,1/2+z
loop_
_atom_site_type_symbol
_atom_site_label
_atom_site_fract_x
_atom_site_fract_y
_atom_site_fract_z
Si Si1 0.150524 0.963231 0.015542
Si Si2 0.500000 0.139361 0.750000
Si Si3 0.603402 0.260868 0.096281
Si Si4 0.303913 0.808029 0.327900
Si Si5 0.000000 0.235152 0.750000
Si Si6 0.130424 0.683864 0.388754
Si Si7 0.585035 0.743614 0.962817
O O1 0.176968 0.948919 0.150092
O O2 0.239922 0.944856 0.933001
O O3 0.067330 0.891373 0.988525
O O4 0.407841 0.096021 0.683731
O O5 0.454593 0.201568 0.852290
O O6 0.626070 0.227594 0.227043
O O7 0.652887 0.360239 0.078686
O O8 0.646643 0.184240 0.005504
O O9 0.498351 0.273240 0.053573
O O10 0.291446 0.917466 0.308852
O O11 0.209967 0.744213 0.319831
O O12 0.339808 0.798346 0.459790
#
# Coordination Sequence:
#
# PCOD9555078 Si02
#       7
#     8   4   8   8   4   8   8
#     4  11  24  42  65 103 140 177 234 291 357 423
#     4  10  20  40  70  96 132 178 236 278 353 428
#     4  10  20  38  64  93 130 173 225 281 347 413
#     4  11  21  40  65  96 131 178 228 281 354 415
#     4  12  24  43  69  98 128 182 232 286 337 427
#     4  10  20  39  67  99 132 177 224 286 347 414
#     4  10  22  37  64  96 129 175 225 285 346 427
#
# _framework density 20.512446000000001
#
# number of rings (size 3 to 8) (size 9 to 14) (size 15 to 20)
#    0.000    1.500    5.000    0.500    0.000    1.667 
#    0.000    1.667    0.000    1.000    0.000    0.000 
#    0.000    0.000    0.000    0.000    0.000    0.000 
#
# Total GULP energy -267705.174807 kJ/mol
# GULP energy per Si atom -5577.191142 kJ/mol
# Density = 2.046576 g / cm^3
# Si number density = 20.512446 Si / 1000 Ang^3
#
#
#
# Elastic Constant Matrix: (Units=GPa)
#
#
# Indices 1 2 3 4 5 6 
#
# 1 86.5577 22.7418 18.6544 0.0000 0.0000 0.0000
# 2 22.7418 86.5577 18.6544 0.0000 0.0000 0.0000
# 3 18.6544 18.6544 92.4795 0.0000 0.0000 0.0000
# 4 0.0000 0.0000 0.0000 18.9768 0.0000 0.0000
# 5 0.0000 0.0000 0.0000 0.0000 18.9768 0.0000
# 6 0.0000 0.0000 0.0000 0.0000 0.0000 10.7354
#
#
#
# Elastic Compliance Matrix: (Units=1/GPa)
#
#
# Indices 1 2 3 4 5 6 
#
# 1 0.012748 -0.002922 -0.001982 0.000000 0.000000 0.000000
# 2 -0.002922 0.012748 -0.001982 0.000000 0.000000 0.000000
# 3 -0.001982 -0.001982 0.011613 0.000000 0.000000 0.000000
# 4 0.000000 0.000000 0.000000 0.052696 0.000000 0.000000
# 5 0.000000 0.000000 0.000000 0.000000 0.052696 0.000000
# 6 0.000000 0.000000 0.000000 0.000000 0.000000 0.093150
#
#
# Mechanical properties :
#
#
# Convention : Reuss Voigt Hill
#
# Bulk Modulus (GPa) = 42.85172 42.85513 42.85343
# Shear Modulus (GPa) = 19.44000 23.44074 21.44037
#
# Velocity S-wave (km/s) = 3.08184 3.38414 3.23652
# Velocity P-wave (km/s) = 5.79652 6.01726 5.90792
#
# Compressibility (1/GPa) = 0.02333628
#
# Stress axis : x y z
#
# Youngs Moduli (GPa) = 78.44430 78.44430 86.11190
#
# Poissons Ratio (x) = 0.22923 0.17067
# Poissons Ratio (y) = 0.22923 0.17067
# Poissons Ratio (z) = 0.15548 0.15548
#
# Static dielectric constant tensor:
#      x y z
#    x 1.734430 0.000000 0.000000 
#    y 0.000000 1.734430 0.000000 
#    z 0.000000 0.000000 1.698440 
# 
# From -- ./inp_files/2611.got.cif
#   From: 2010.05.17/outbox.cif.g08.bks.cpg/sg112_2_cif.got.tgz:2611.got - 2010.05.20 10:59:04.
