data_PCOD9555838
_publ_section_title
;
Structure prediction by ZEFSAII (Michael W. Deem and Ramdas Pophale) SiO2 
 PCOD9555838
Probable space group: P -4 21 C
;
_chemical_formula_sum "Si O2"
_cell_formula_units_Z 64
_cell_length_a 25.110540
_cell_length_b 25.110540
_cell_length_c 5.367329
_cell_angle_alpha 90.000000
_cell_angle_beta 90.000000
_cell_angle_gamma 90.000000
_cell_volume 3384.311436
_symmetry_space_group_name_H-M "P -4 21 C"
_symmetry_group_IT_number 114
_symmetry_cell_setting 'tetragonal'
loop_
_space_group_symop_operation_xyz
x,y,z
y,-x,-z
-x,-y,z
-y,x,-z
1/2+x,1/2-y,1/2-z
1/2-x,1/2+y,1/2-z
1/2-y,1/2-x,1/2+z
1/2+y,1/2+x,1/2+z
loop_
_atom_site_type_symbol
_atom_site_label
_atom_site_fract_x
_atom_site_fract_y
_atom_site_fract_z
Si Si1 0.786206 0.002948 0.455394
Si Si2 0.685883 0.776495 0.916659
Si Si3 0.892840 0.368719 0.068293
Si Si4 0.091981 0.163438 0.824038
Si Si5 0.049726 0.743603 0.057738
Si Si6 0.884127 0.930652 0.460626
Si Si7 0.574814 0.531838 0.593973
Si Si8 0.137709 0.815830 0.902772
O O1 0.754954 0.989299 0.709454
O O2 0.845815 0.980032 0.511515
O O3 0.795555 0.062903 0.358533
O O4 0.759829 0.973877 0.213518
O O5 0.727152 0.790481 0.693001
O O6 0.647572 0.829023 0.925895
O O7 0.657671 0.724335 0.810426
O O8 0.902185 0.399634 0.320961
O O9 0.928538 0.316184 0.057706
O O10 0.115514 0.115396 0.661621
O O11 0.046859 0.133700 0.993990
O O12 0.143585 0.180775 0.982073
O O13 0.103421 0.779100 0.088871
O O14 0.943549 0.938249 0.361913
O O15 0.855944 0.904289 0.219500
O O16 0.561387 0.469860 0.576856
#
# Coordination Sequence:
#
# PCOD9555838 Si02
#       8
#     8   8   8   8   8   8   8   8
#     4  11  24  36  49  65  91 120 159 194 242 295
#     4  10  20  30  50  73  99 112 139 172 240 308
#     4  10  18  29  51  75  98 112 141 171 239 309
#     4  11  23  34  48  63  85 123 158 202 242 301
#     4  11  21  35  51  70  93 122 144 192 243 305
#     4  10  22  31  49  59  84 109 155 190 252 286
#     4  10  21  34  44  58  77 102 147 206 262 295
#     4  10  21  33  49  68  92 117 148 191 242 301
#
# _framework density 18.910791
#
# number of rings (size 3 to 8) (size 9 to 14) (size 15 to 20)
#    0.000    1.625    5.000    0.750   12.250    0.000 
#    0.000    1.250    0.000    0.000    0.000    0.000 
#    0.000    0.000    0.000    0.000    0.000    0.000 
#
# Total GULP energy -356989.602372 kJ/mol
# GULP energy per Si atom -5577.962537 kJ/mol
# Density = 1.886775 g / cm^3
# Si number density = 18.910791 Si / 1000 Ang^3
#
#
#
# Elastic Constant Matrix: (Units=GPa)
#
#
# Indices 1 2 3 4 5 6 
#
# 1 11.9959 -3.8220 -3.0063 0.0000 0.0000 0.0000
# 2 -3.8220 11.9959 -3.0063 0.0000 0.0000 0.0000
# 3 -3.0063 -3.0063 93.2492 0.0000 0.0000 0.0000
# 4 0.0000 0.0000 0.0000 23.5261 0.0000 0.0000
# 5 0.0000 0.0000 0.0000 0.0000 23.5261 0.0000
# 6 0.0000 0.0000 0.0000 0.0000 0.0000 13.6515
#
#
#
# Elastic Compliance Matrix: (Units=1/GPa)
#
#
# Indices 1 2 3 4 5 6 
#
# 1 0.094266 0.031047 0.004040 0.000000 0.000000 0.000000
# 2 0.031047 0.094266 0.004040 0.000000 0.000000 0.000000
# 3 0.004040 0.004040 0.010984 0.000000 0.000000 0.000000
# 4 0.000000 0.000000 0.000000 0.042506 0.000000 0.000000
# 5 0.000000 0.000000 0.000000 0.000000 0.042506 0.000000
# 6 0.000000 0.000000 0.000000 0.000000 0.000000 0.073252
#
#
# Mechanical properties :
#
#
# Convention : Reuss Voigt Hill
#
# Bulk Modulus (GPa) = 3.60010 10.84129 7.22069
# Shear Modulus (GPa) = 13.43662 20.61245 17.02454
#
# Velocity S-wave (km/s) = 2.66846 3.30507 3.00368
# Velocity P-wave (km/s) = 3.37670 4.50666 3.98196
#
# Compressibility (1/GPa) = 0.27777004
#
# Stress axis : x y z
#
# Youngs Moduli (GPa) = 10.60827 10.60827 91.03773
#
# Poissons Ratio (x) = -0.32935 -0.36780
# Poissons Ratio (y) = -0.32935 -0.36780
# Poissons Ratio (z) = -0.04286 -0.04286
#
# Static dielectric constant tensor:
#      x y z
#    x 1.683470 0.000000 0.000000 
#    y 0.000000 1.683470 0.000000 
#    z 0.000000 0.000000 1.847640 
# 
# From -- ./inp_files/317.got.cif
#   From: 2010.05.17/outbox.cif.g08.bks.cpg/sg114_1_cif.got.tgz:317.got - 2010.05.20 11:04:54.
