data_PCOD9555561
_publ_section_title
;
Structure prediction by ZEFSAII (Michael W. Deem and Ramdas Pophale) SiO2 
 PCOD9555561
Probable space group: P -4 21 M 
;
_chemical_formula_sum "Si O2"
_cell_formula_units_Z 40
_cell_length_a 15.025973
_cell_length_b 15.025973
_cell_length_c 7.844092
_cell_angle_alpha 90.000000
_cell_angle_beta 90.000000
_cell_angle_gamma 90.000000
_cell_volume 1771.038030
_symmetry_space_group_name_H-M "P -4 21 M "
_symmetry_group_IT_number 113
_symmetry_cell_setting 'tetragonal'
loop_
_space_group_symop_operation_xyz
x,y,z
y,-x,-z
-x,-y,z
-y,x,-z
1/2+x,1/2-y,-z
1/2-x,1/2+y,-z
1/2-y,1/2-x,z
1/2+y,1/2+x,z
loop_
_atom_site_type_symbol
_atom_site_label
_atom_site_fract_x
_atom_site_fract_y
_atom_site_fract_z
Si Si1 0.575974 0.924027 0.676229
Si Si2 0.206726 0.436248 0.339134
Si Si3 0.835894 0.182210 0.163247
Si Si4 0.074600 0.574600 0.921091
Si Si5 0.744760 0.005443 0.031560
Si Si6 0.088818 0.108175 0.507186
O O1 0.528229 0.838566 0.596709
O O2 0.594879 0.905122 0.876874
O O3 0.500000 0.000000 0.676122
O O4 0.144278 0.355723 0.397472
O O5 0.202068 0.447418 0.135499
O O6 0.307255 0.415660 0.385565
O O7 0.760233 0.260233 0.157485
O O8 0.919724 0.202510 0.040215
O O9 0.874417 0.163338 0.351375
O O10 0.795522 0.086266 0.116933
O O11 0.034895 0.666085 0.852949
O O12 0.000000 0.500000 0.910491
O O13 0.987420 0.103477 0.580300
#
# Coordination Sequence:
#
# PCOD9555561 Si02
#       6
#     4   8   8   4   8   8
#     4   7  14  28  59  91 113 149 212 267 317 385
#     4  10  19  39  66  93 123 168 225 280 335 394
#     4  12  26  45  69 103 138 177 231 284 337 404
#     4   9  16  36  63  95 127 166 218 273 339 394
#     4  11  23  40  69  98 134 179 221 282 340 406
#     4  11  25  43  63  92 135 182 224 274 334 398
#
# _framework density 22.585625
#
# number of rings (size 3 to 8) (size 9 to 14) (size 15 to 20)
#    0.000    1.600    3.000    3.600    2.800    0.400 
#    1.800    1.000    0.000    1.200    0.000    0.000 
#    0.000    0.000    0.000    0.000    0.000    0.000 
#
# Total GULP energy -223160.172288 kJ/mol
# GULP energy per Si atom -5579.004307 kJ/mol
# Density = 2.253422 g / cm^3
# Si number density = 22.585625 Si / 1000 Ang^3
#
#
#
# Elastic Constant Matrix: (Units=GPa)
#
#
# Indices 1 2 3 4 5 6 
#
# 1 141.1236 66.7530 13.2472 0.0000 0.0000 0.0000
# 2 66.7530 141.1240 13.2478 0.0000 0.0000 0.0000
# 3 13.2472 13.2478 20.7990 0.0000 0.0000 0.0000
# 4 0.0000 0.0000 0.0000 19.2952 0.0000 0.0000
# 5 0.0000 0.0000 0.0000 0.0000 19.2954 0.0000
# 6 0.0000 0.0000 0.0000 0.0000 0.0000 55.1129
#
#
#
# Elastic Compliance Matrix: (Units=1/GPa)
#
#
# Indices 1 2 3 4 5 6 
#
# 1 0.009341 -0.004105 -0.003334 0.000000 0.000000 0.000000
# 2 -0.004105 0.009341 -0.003335 0.000000 0.000000 0.000000
# 3 -0.003334 -0.003335 0.052327 0.000000 0.000000 0.000000
# 4 0.000000 0.000000 0.000000 0.051826 0.000000 0.000000
# 5 0.000000 0.000000 0.000000 0.000000 0.051826 0.000000
# 6 0.000000 0.000000 0.000000 0.000000 0.000000 0.018145
#
#
# Mechanical properties :
#
#
# Convention : Reuss Voigt Hill
#
# Bulk Modulus (GPa) = 20.21853 54.39363 37.30608
# Shear Modulus (GPa) = 21.65988 32.72728 27.19358
#
# Velocity S-wave (km/s) = 3.10015 3.81074 3.47367
# Velocity P-wave (km/s) = 4.66754 6.59530 5.71331
#
# Compressibility (1/GPa) = 0.04945957
#
# Stress axis : x y z
#
# Youngs Moduli (GPa) = 107.05686 107.05653 19.11051
#
# Poissons Ratio (x) = 0.43950 0.06372
# Poissons Ratio (y) = 0.43950 0.06373
# Poissons Ratio (z) = 0.35698 0.35702
#
# Static dielectric constant tensor:
#      x y z
#    x 1.896700 0.000000 0.000000 
#    y 0.000000 1.896700 0.000000 
#    z 0.000000 0.000000 1.838040 
# 
# From -- ./inp_files/1067.got.cif
#   From: 2010.05.17/outbox.cif.g08.bks.cpg/sg113_cif.got.tgz:1067.got - 2010.05.20 11:03:00.
