data_PCOD9555010
_publ_section_title
;
Structure prediction by ZEFSAII (Michael W. Deem and Ramdas Pophale) SiO2 
 PCOD9555010
Probable space group: P -4 2 C
;
_chemical_formula_sum "Si O2"
_cell_formula_units_Z 36
_cell_length_a 9.760105
_cell_length_b 9.760105
_cell_length_c 17.261769
_cell_angle_alpha 90.000000
_cell_angle_beta 90.000000
_cell_angle_gamma 90.000000
_cell_volume 1644.350067
_symmetry_space_group_name_H-M "P -4 2 C"
_symmetry_group_IT_number 112
_symmetry_cell_setting 'tetragonal'
loop_
_space_group_symop_operation_xyz
x,y,z
y,-x,-z
-x,-y,z
-y,x,-z
x,-y,1/2-z
-x,y,1/2-z
-y,-x,1/2+z
y,x,1/2+z
loop_
_atom_site_type_symbol
_atom_site_label
_atom_site_fract_x
_atom_site_fract_y
_atom_site_fract_z
Si Si1 0.149090 0.692875 0.631866
Si Si2 0.500000 0.000000 0.250000
Si Si3 0.500000 0.500000 0.750000
Si Si4 0.238060 0.573544 0.173283
Si Si5 0.812586 0.078509 0.468137
Si Si6 0.516834 0.838002 0.993480
O O1 0.269067 0.796171 0.656899
O O2 0.015548 0.776879 0.604844
O O3 0.196649 0.590637 0.561429
O O4 0.096155 0.594186 0.698169
O O5 0.583832 0.601920 0.803606
O O6 0.176634 0.500000 0.250000
O O7 0.224832 0.495858 0.091749
O O8 0.838029 0.954542 0.531031
O O9 0.677691 0.170536 0.482187
O O10 0.500000 0.000000 0.982621
#
# Coordination Sequence:
#
# PCOD9555010 Si02
#       6
#     8   2   2   8   8   8
#     4  11  22  40  65  95 126 173 219 266 341 398
#     4  12  22  40  66  86 134 166 220 266 330 408
#     4   8  22  40  56  94 124 172 200 262 330 382
#     4  10  22  43  62  91 136 164 217 273 327 402
#     4  10  19  38  67  93 125 161 219 275 313 394
#     4  10  21  40  65  97 124 176 215 265 339 393
#
# _framework density 21.893149000000001
#
# number of rings (size 3 to 8) (size 9 to 14) (size 15 to 20)
#    0.667    1.111    5.556    0.667    0.000    2.222 
#    8.000    0.000    0.000    2.667    0.000    0.000 
#    0.000    0.000    0.000    0.000    0.000    0.000 
#
# Total GULP energy -200401.669640 kJ/mol
# GULP energy per Si atom -5566.713046 kJ/mol
# Density = 2.184332 g / cm^3
# Si number density = 21.893149 Si / 1000 Ang^3
#
#
#
# Elastic Constant Matrix: (Units=GPa)
#
#
# Indices 1 2 3 4 5 6 
#
# 1 72.3684 2.1217 30.8160 0.0000 0.0000 0.0000
# 2 2.1217 72.3684 30.8160 0.0000 0.0000 0.0000
# 3 30.8160 30.8160 141.9198 0.0000 0.0000 0.0000
# 4 0.0000 0.0000 0.0000 34.0941 0.0000 0.0000
# 5 0.0000 0.0000 0.0000 0.0000 34.0941 0.0000
# 6 0.0000 0.0000 0.0000 0.0000 0.0000 22.7857
#
#
#
# Elastic Compliance Matrix: (Units=1/GPa)
#
#
# Indices 1 2 3 4 5 6 
#
# 1 0.015300 0.001065 -0.003553 0.000000 0.000000 0.000000
# 2 0.001065 0.015300 -0.003553 0.000000 0.000000 0.000000
# 3 -0.003553 -0.003553 0.008589 0.000000 0.000000 0.000000
# 4 0.000000 0.000000 0.000000 0.029331 0.000000 0.000000
# 5 0.000000 0.000000 0.000000 0.000000 0.029331 0.000000
# 6 0.000000 0.000000 0.000000 0.000000 0.000000 0.043887
#
#
# Mechanical properties :
#
#
# Convention : Reuss Voigt Hill
#
# Bulk Modulus (GPa) = 36.89335 46.01820 41.45577
# Shear Modulus (GPa) = 30.70174 33.05498 31.87836
#
# Velocity S-wave (km/s) = 3.74885 3.88987 3.82001
# Velocity P-wave (km/s) = 5.96881 6.42183 6.19946
#
# Compressibility (1/GPa) = 0.02710516
#
# Stress axis : x y z
#
# Youngs Moduli (GPa) = 65.35916 65.35916 116.42312
#
# Poissons Ratio (x) = -0.06958 0.41369
# Poissons Ratio (y) = -0.06958 0.41369
# Poissons Ratio (z) = 0.23224 0.23224
#
# Static dielectric constant tensor:
#      x y z
#    x 1.875440 0.000000 0.000000 
#    y 0.000000 1.875440 0.000000 
#    z 0.000000 0.000000 1.845130 
# 
# From -- ./inp_files/3242.got.cif
#   From: 2010.05.17/outbox.cif.g08.bks.cpg/sg112_2_cif.got.tgz:3242.got - 2010.05.20 10:59:04.
