data_PCOD9555779
_publ_section_title
;
Structure prediction by ZEFSAII (Michael W. Deem and Ramdas Pophale) SiO2 
 PCOD9555779
Probable space group: P -4 21 M 
;
_chemical_formula_sum "Si O2"
_cell_formula_units_Z 40
_cell_length_a 15.759974
_cell_length_b 15.759974
_cell_length_c 7.703255
_cell_angle_alpha 90.000000
_cell_angle_beta 90.000000
_cell_angle_gamma 90.000000
_cell_volume 1913.309676
_symmetry_space_group_name_H-M "P -4 21 M "
_symmetry_group_IT_number 113
_symmetry_cell_setting 'tetragonal'
loop_
_space_group_symop_operation_xyz
x,y,z
y,-x,-z
-x,-y,z
-y,x,-z
1/2+x,1/2-y,-z
1/2-x,1/2+y,-z
1/2-y,1/2-x,z
1/2+y,1/2+x,z
loop_
_atom_site_type_symbol
_atom_site_label
_atom_site_fract_x
_atom_site_fract_y
_atom_site_fract_z
Si Si1 0.315950 0.669692 0.895582
Si Si2 0.311427 0.333501 0.512459
Si Si3 0.037517 0.323516 0.635603
Si Si4 0.208490 0.574028 0.328520
Si Si5 0.486665 0.756063 0.002481
O O1 0.238688 0.738688 0.916370
O O2 0.337669 0.664757 0.689942
O O3 0.399606 0.703240 0.994005
O O4 0.291375 0.575838 0.960013
O O5 0.241506 0.258495 0.524864
O O6 0.264716 0.416136 0.583494
O O7 0.388666 0.301392 0.630789
O O8 0.100519 0.399482 0.591499
O O9 0.956574 0.325516 0.513814
O O10 0.020452 0.321665 0.839601
O O11 0.148659 0.648659 0.259597
O O12 0.206519 0.499202 0.189739
#
# Coordination Sequence:
#
# PCOD9555779 Si02
#       5
#     8   8   8   8   8
#     4  11  23  42  69  99 133 179 228 274 335 400
#     4   9  19  41  67  89 123 172 221 268 327 394
#     4  11  23  40  64  94 129 173 222 276 335 401
#     4  11  23  40  64  94 129 173 222 276 335 401
#     4  12  24  41  70  99 134 172 226 279 334 397
#
# _framework density 20.906182000000001
#
# number of rings (size 3 to 8) (size 9 to 14) (size 15 to 20)
#    0.000    1.200    4.000    2.400    0.000    4.000 
#    0.000    0.000    0.000    6.000    0.000    0.000 
#    0.000    0.000    0.000    0.000    0.000    0.000 
#
# Total GULP energy -223380.562824 kJ/mol
# GULP energy per Si atom -5584.514071 kJ/mol
# Density = 2.085860 g / cm^3
# Si number density = 20.906182 Si / 1000 Ang^3
#
#
#
# Elastic Constant Matrix: (Units=GPa)
#
#
# Indices 1 2 3 4 5 6 
#
# 1 170.4491 -76.4240 7.2615 0.0000 0.0000 0.0000
# 2 -76.4240 170.4894 7.3077 0.0000 0.0000 0.0000
# 3 7.2615 7.3077 91.8232 0.0000 0.0000 0.0000
# 4 0.0000 0.0000 0.0000 32.8635 0.0000 0.0000
# 5 0.0000 0.0000 0.0000 0.0000 32.8630 0.0000
# 6 0.0000 0.0000 0.0000 0.0000 0.0000 24.0089
#
#
#
# Elastic Compliance Matrix: (Units=1/GPa)
#
#
# Indices 1 2 3 4 5 6 
#
# 1 0.007409 0.003358 -0.000853 0.000000 0.000000 0.000000
# 2 0.003358 0.007407 -0.000855 0.000000 0.000000 0.000000
# 3 -0.000853 -0.000855 0.011026 0.000000 0.000000 0.000000
# 4 0.000000 0.000000 0.000000 0.030429 0.000000 0.000000
# 5 0.000000 0.000000 0.000000 0.000000 0.030429 0.000000
# 6 0.000000 0.000000 0.000000 0.000000 0.000000 0.041651
#
#
# Mechanical properties :
#
#
# Convention : Reuss Voigt Hill
#
# Bulk Modulus (GPa) = 34.31617 34.33909 34.32763
# Shear Modulus (GPa) = 37.10138 50.92153 44.01145
#
# Velocity S-wave (km/s) = 4.21724 4.94065 4.59321
# Velocity P-wave (km/s) = 6.33747 7.00055 6.67725
#
# Compressibility (1/GPa) = 0.02914078
#
# Stress axis : x y z
#
# Youngs Moduli (GPa) = 134.97766 135.00385 90.69471
#
# Poissons Ratio (x) = -0.45329 0.07737
# Poissons Ratio (y) = -0.45320 0.07755
# Poissons Ratio (z) = 0.11515 0.11543
#
# Static dielectric constant tensor:
#      x y z
#    x 1.757650 0.000000 0.000000 
#    y 0.000000 1.757650 0.000000 
#    z 0.000000 0.000000 1.786840 
# 
# From -- ./inp_files/1032.got.cif
#   From: 2010.05.17/outbox.cif.g08.bks.cpg/sg113_cif.got.tgz:1032.got - 2010.05.20 11:03:00.
