data_PCOD9555037
_publ_section_title
;
Structure prediction by ZEFSAII (Michael W. Deem and Ramdas Pophale) SiO2 
 PCOD9555037
Probable space group: P -4 2 C
;
_chemical_formula_sum "Si O2"
_cell_formula_units_Z 48
_cell_length_a 11.371301
_cell_length_b 11.371301
_cell_length_c 19.269938
_cell_angle_alpha 90.000000
_cell_angle_beta 90.000000
_cell_angle_gamma 90.000000
_cell_volume 2491.727977
_symmetry_space_group_name_H-M "P -4 2 C"
_symmetry_group_IT_number 112
_symmetry_cell_setting 'tetragonal'
loop_
_space_group_symop_operation_xyz
x,y,z
y,-x,-z
-x,-y,z
-y,x,-z
x,-y,1/2-z
-x,y,1/2-z
-y,-x,1/2+z
y,x,1/2+z
loop_
_atom_site_type_symbol
_atom_site_label
_atom_site_fract_x
_atom_site_fract_y
_atom_site_fract_z
Si Si1 0.227734 0.032225 0.323691
Si Si2 0.396689 0.820538 0.343198
Si Si3 0.719213 0.689763 0.031365
Si Si4 0.637318 0.460935 0.092953
Si Si5 0.840479 0.072130 0.026274
Si Si6 0.264279 0.347886 0.803821
O O1 0.171158 0.013416 0.398180
O O2 0.248405 0.171595 0.323045
O O3 0.169257 0.000000 0.250000
O O4 0.345695 0.949633 0.325060
O O5 0.343407 0.782218 0.416652
O O6 0.354692 0.738242 0.279246
O O7 0.535544 0.797757 0.337311
O O8 0.720674 0.570814 0.076666
O O9 0.633413 0.658742 0.967799
O O10 0.840355 0.738404 0.999604
O O11 0.500000 0.500000 0.091966
O O12 0.661656 0.391908 0.163715
O O13 0.961468 0.144949 0.024494
#
# Coordination Sequence:
#
# PCOD9555037 Si02
#       6
#     8   8   8   8   8   8
#     4  10  20  38  63  88 120 158 205 264 320 369
#     4  10  20  34  57  91 120 165 206 254 307 363
#     4  12  21  37  58  87 127 161 207 251 308 378
#     4  12  21  35  56  88 127 171 204 242 307 384
#     4  11  24  43  65  89 119 153 211 273 324 384
#     4  10  20  35  57  86 130 161 207 252 303 371
#
# _framework density 19.263739999999999
#
# number of rings (size 3 to 8) (size 9 to 14) (size 15 to 20)
#    0.000    1.167    6.667    0.500    0.000    2.667 
#    0.000    2.500    0.000    0.000    0.000    0.000 
#    5.000    0.000    0.000    0.000    0.000    0.000 
#
# Total GULP energy -267517.361909 kJ/mol
# GULP energy per Si atom -5573.278373 kJ/mol
# Density = 1.921989 g / cm^3
# Si number density = 19.263740 Si / 1000 Ang^3
#
#
#
# Elastic Constant Matrix: (Units=GPa)
#
#
# Indices 1 2 3 4 5 6 
#
# 1 73.3581 25.8814 20.5944 0.0000 0.0000 0.0000
# 2 25.8814 73.3581 20.5944 0.0000 0.0000 0.0000
# 3 20.5944 20.5944 94.5700 0.0000 0.0000 0.0000
# 4 0.0000 0.0000 0.0000 22.3477 0.0000 0.0000
# 5 0.0000 0.0000 0.0000 0.0000 22.3477 0.0000
# 6 0.0000 0.0000 0.0000 0.0000 0.0000 31.8267
#
#
#
# Elastic Compliance Matrix: (Units=1/GPa)
#
#
# Indices 1 2 3 4 5 6 
#
# 1 0.016070 -0.004993 -0.002412 0.000000 0.000000 0.000000
# 2 -0.004993 0.016070 -0.002412 0.000000 0.000000 0.000000
# 3 -0.002412 -0.002412 0.011625 0.000000 0.000000 0.000000
# 4 0.000000 0.000000 0.000000 0.044747 0.000000 0.000000
# 5 0.000000 0.000000 0.000000 0.000000 0.044747 0.000000
# 6 0.000000 0.000000 0.000000 0.000000 0.000000 0.031420
#
#
# Mechanical properties :
#
#
# Convention : Reuss Voigt Hill
#
# Bulk Modulus (GPa) = 41.44051 41.71408 41.57730
# Shear Modulus (GPa) = 25.99306 26.91882 26.45594
#
# Velocity S-wave (km/s) = 3.67730 3.74221 3.70990
# Velocity P-wave (km/s) = 6.29198 6.35401 6.32307
#
# Compressibility (1/GPa) = 0.02413098
#
# Stress axis : x y z
#
# Youngs Moduli (GPa) = 62.22612 62.22612 86.02241
#
# Poissons Ratio (x) = 0.31067 0.20752
# Poissons Ratio (y) = 0.31067 0.20752
# Poissons Ratio (z) = 0.15012 0.15012
#
# Static dielectric constant tensor:
#      x y z
#    x 1.691610 0.000000 0.000000 
#    y 0.000000 1.691610 0.000000 
#    z 0.000000 0.000000 1.752230 
# 
# From -- ./inp_files/4137.got.cif
#   From: 2010.05.17/outbox.cif.g08.bks.cpg/sg112_3_cif.got.tgz:4137.got - 2010.05.20 10:59:04.
