data_PCOD9555501
_publ_section_title
;
Structure prediction by ZEFSAII (Michael W. Deem and Ramdas Pophale) SiO2 
 PCOD9555501
Probable space group: P -4 21 M 
;
_chemical_formula_sum "Si O2"
_cell_formula_units_Z 56
_cell_length_a 16.213308
_cell_length_b 16.213308
_cell_length_c 11.566379
_cell_angle_alpha 90.000000
_cell_angle_beta 90.000000
_cell_angle_gamma 90.000000
_cell_volume 3040.469735
_symmetry_space_group_name_H-M "P -4 21 M "
_symmetry_group_IT_number 113
_symmetry_cell_setting 'tetragonal'
loop_
_space_group_symop_operation_xyz
x,y,z
y,-x,-z
-x,-y,z
-y,x,-z
1/2+x,1/2-y,-z
1/2-x,1/2+y,-z
1/2-y,1/2-x,z
1/2+y,1/2+x,z
loop_
_atom_site_type_symbol
_atom_site_label
_atom_site_fract_x
_atom_site_fract_y
_atom_site_fract_z
Si Si1 0.477487 0.705359 0.241089
Si Si2 0.366921 0.000789 0.332216
Si Si3 0.927970 0.293559 0.431724
Si Si4 0.093103 0.277007 0.321372
Si Si5 0.097371 0.915296 0.027897
Si Si6 0.290908 0.343597 0.565626
Si Si7 0.198630 0.162895 0.163501
O O1 0.470461 0.804612 0.234313
O O2 0.439596 0.650162 0.139708
O O3 0.421234 0.688050 0.353420
O O4 0.577396 0.696636 0.237451
O O5 0.422772 0.077229 0.293448
O O6 0.317368 0.029500 0.446158
O O7 0.428120 0.928120 0.367751
O O8 0.870381 0.370381 0.401108
O O9 0.869333 0.215399 0.445736
O O10 0.995968 0.278512 0.334922
O O11 0.131896 0.368105 0.316294
O O12 0.126576 0.236083 0.439573
O O13 0.132155 0.224614 0.218913
O O14 0.135238 0.837335 0.960631
O O15 0.999769 0.900302 0.049208
O O16 0.214965 0.285036 0.610126
O O17 0.285139 0.214862 0.163215
#
# Coordination Sequence:
#
# PCOD9555501 Si02
#       7
#     8   8   8   8   8   8   8
#     4  11  20  35  59  83 112 144 187 242 282 334
#     4  10  19  32  54  84 117 153 190 232 288 346
#     4  10  20  34  52  76 114 152 185 222 275 342
#     4  10  20  35  55  79 113 147 185 228 272 336
#     4   9  21  40  60  81 108 147 191 236 284 338
#     4  10  21  34  51  83 115 146 181 229 286 329
#     4  10  22  39  60  83 111 151 190 229 283 342
#
# _framework density 18.418205
#
# number of rings (size 3 to 8) (size 9 to 14) (size 15 to 20)
#    0.000    2.000    1.429    2.143    2.000    4.286 
#    0.000    0.000    0.000    0.857    0.000    0.000 
#    0.000    0.000    0.000    0.000    0.000    0.000 
#
# Total GULP energy -311965.626135 kJ/mol
# GULP energy per Si atom -5570.814752 kJ/mol
# Density = 1.837628 g / cm^3
# Si number density = 18.418205 Si / 1000 Ang^3
#
#
#
# Elastic Constant Matrix: (Units=GPa)
#
#
# Indices 1 2 3 4 5 6 
#
# 1 79.0995 26.7458 2.6647 0.0000 0.0000 0.0000
# 2 26.7458 79.0949 2.6626 0.0000 0.0000 0.0000
# 3 2.6647 2.6626 11.0949 0.0000 0.0000 0.0000
# 4 0.0000 0.0000 0.0000 22.1502 0.0000 0.0000
# 5 0.0000 0.0000 0.0000 0.0000 22.1503 0.0000
# 6 0.0000 0.0000 0.0000 0.0000 0.0000 32.2732
#
#
#
# Elastic Compliance Matrix: (Units=1/GPa)
#
#
# Indices 1 2 3 4 5 6 
#
# 1 0.014332 -0.004769 -0.002298 0.000000 0.000000 0.000000
# 2 -0.004769 0.014333 -0.002294 0.000000 0.000000 0.000000
# 3 -0.002298 -0.002294 0.091234 0.000000 0.000000 0.000000
# 4 0.000000 0.000000 0.000000 0.045146 0.000000 0.000000
# 5 0.000000 0.000000 0.000000 0.000000 0.045146 0.000000
# 6 0.000000 0.000000 0.000000 0.000000 0.000000 0.030985
#
#
# Mechanical properties :
#
#
# Convention : Reuss Voigt Hill
#
# Bulk Modulus (GPa) = 9.88370 25.93730 17.91050
# Shear Modulus (GPa) = 17.02855 24.46249 20.74552
#
# Velocity S-wave (km/s) = 3.04394 3.64836 3.35977
# Velocity P-wave (km/s) = 4.21094 5.64450 4.97958
#
# Compressibility (1/GPa) = 0.10117667
#
# Stress axis : x y z
#
# Youngs Moduli (GPa) = 69.77260 69.76932 10.96087
#
# Poissons Ratio (x) = 0.33274 0.02518
# Poissons Ratio (y) = 0.33275 0.02515
# Poissons Ratio (z) = 0.16032 0.16007
#
# Static dielectric constant tensor:
#      x y z
#    x 1.663690 0.000000 0.000000 
#    y 0.000000 1.663690 0.000000 
#    z 0.000000 0.000000 1.626730 
# 
# From -- ./inp_files/1931.got.cif
#   From: 2010.05.17/outbox.cif.g08.bks.cpg/sg113_cif.got.tgz:1931.got - 2010.05.20 11:03:00.
