data_PCOD9555777
_publ_section_title
;
Structure prediction by ZEFSAII (Michael W. Deem and Ramdas Pophale) SiO2 
 PCOD9555777
Probable space group: P -4 21 M 
;
_chemical_formula_sum "Si O2"
_cell_formula_units_Z 48
_cell_length_a 11.161762
_cell_length_b 11.161762
_cell_length_c 18.402343
_cell_angle_alpha 90.000000
_cell_angle_beta 90.000000
_cell_angle_gamma 90.000000
_cell_volume 2292.654632
_symmetry_space_group_name_H-M "P -4 21 M "
_symmetry_group_IT_number 113
_symmetry_cell_setting 'tetragonal'
loop_
_space_group_symop_operation_xyz
x,y,z
y,-x,-z
-x,-y,z
-y,x,-z
1/2+x,1/2-y,-z
1/2-x,1/2+y,-z
1/2-y,1/2-x,z
1/2+y,1/2+x,z
loop_
_atom_site_type_symbol
_atom_site_label
_atom_site_fract_x
_atom_site_fract_y
_atom_site_fract_z
Si Si1 0.506596 0.811838 0.620804
Si Si2 0.854056 0.157921 0.829367
Si Si3 0.239884 0.071353 0.906510
Si Si4 0.458482 0.770252 0.061035
Si Si5 0.673238 0.378018 0.668096
Si Si6 0.806943 0.998321 0.478037
O O1 0.636770 0.863230 0.641278
O O2 0.454119 0.686202 0.649446
O O3 0.498990 0.802738 0.533146
O O4 0.410329 0.910329 0.645905
O O5 0.729534 0.229534 0.822306
O O6 0.917669 0.165876 0.751241
O O7 0.933138 0.226167 0.889031
O O8 0.821727 0.023887 0.853429
O O9 0.350086 0.149915 0.876047
O O10 0.139618 0.164797 0.933563
O O11 0.282626 0.001133 0.978291
O O12 0.391429 0.891429 0.084857
O O13 0.776046 0.276046 0.661128
O O14 0.705307 0.475405 0.607239
O O15 0.884491 0.885339 0.506866
#
# Coordination Sequence:
#
# PCOD9555777 Si02
#       6
#     8   8   8   8   8   8
#     4   9  17  31  53  79 107 143 186 232 281 332
#     4  11  23  39  60  89 123 160 198 239 304 361
#     4  11  23  40  63  90 119 156 203 248 295 352
#     4  11  23  41  63  89 119 156 204 247 293 353
#     4   9  19  35  55  79 112 149 183 230 283 341
#     4   9  17  32  52  78 106 138 187 228 276 329
#
# _framework density 20.936426999999998
#
# number of rings (size 3 to 8) (size 9 to 14) (size 15 to 20)
#    0.000    2.000    1.667    2.000    0.000    3.667 
#   12.000    2.500    0.000    1.000    0.000    0.000 
#    0.000    0.000    0.000    0.000    0.000    0.000 
#
# Total GULP energy -267848.751717 kJ/mol
# GULP energy per Si atom -5580.182327 kJ/mol
# Density = 2.088877 g / cm^3
# Si number density = 20.936427 Si / 1000 Ang^3
#
#
#
# Elastic Constant Matrix: (Units=GPa)
#
#
# Indices 1 2 3 4 5 6 
#
# 1 15.1899 35.6954 -5.0979 0.0000 0.0000 0.0000
# 2 35.6954 15.1929 -5.0977 0.0000 0.0000 0.0000
# 3 -5.0979 -5.0977 84.2553 0.0000 0.0000 0.0000
# 4 0.0000 0.0000 0.0000 17.0327 0.0000 0.0000
# 5 0.0000 0.0000 0.0000 0.0000 17.0335 0.0000
# 6 0.0000 0.0000 0.0000 0.0000 0.0000 9.9565
#
#
#
# Elastic Compliance Matrix: (Units=1/GPa)
#
#
# Indices 1 2 3 4 5 6 
#
# 1 -0.014441 0.034332 0.001203 0.000000 0.000000 0.000000
# 2 0.034332 -0.014438 0.001204 0.000000 0.000000 0.000000
# 3 0.001203 0.001204 0.012014 0.000000 0.000000 0.000000
# 4 0.000000 0.000000 0.000000 0.058711 0.000000 0.000000
# 5 0.000000 0.000000 0.000000 0.000000 0.058708 0.000000
# 6 0.000000 0.000000 0.000000 0.000000 0.000000 0.100437
#
#
# Mechanical properties :
#
#
# Convention : Reuss Voigt Hill
#
# Bulk Modulus (GPa) = 17.66351 18.40419 18.03385
# Shear Modulus (GPa) = 34.15651 14.74708 24.45179
#
# Velocity S-wave (km/s) = 4.04349 2.65688 3.42117
# Velocity P-wave (km/s) = 5.50044 4.26868 4.92323
#
# Compressibility (1/GPa) = 0.05661390
#
# Stress axis : x y z
#
# Youngs Moduli (GPa) = -69.24919 -69.26340 83.23388
#
# Poissons Ratio (x) = 2.37793 -0.10017
# Poissons Ratio (y) = 2.37744 -0.10019
# Poissons Ratio (z) = 0.08334 0.08337
#
# Static dielectric constant tensor:
#      x y z
#    x 1.774070 0.000000 0.000000 
#    y 0.000000 1.774070 0.000000 
#    z 0.000000 0.000000 1.752580 
# 
# From -- ./inp_files/2448.got.cif
#   From: 2010.05.17/outbox.cif.g08.bks.cpg/sg113_cif.got.tgz:2448.got - 2010.05.20 11:03:00.
