data_PCOD9555695
_publ_section_title
;
Structure prediction by ZEFSAII (Michael W. Deem and Ramdas Pophale) SiO2 
 PCOD9555695
Probable space group: P -4 21 M 
;
_chemical_formula_sum "Si O2"
_cell_formula_units_Z 56
_cell_length_a 14.261635
_cell_length_b 14.261635
_cell_length_c 12.307114
_cell_angle_alpha 90.000000
_cell_angle_beta 90.000000
_cell_angle_gamma 90.000000
_cell_volume 2503.196011
_symmetry_space_group_name_H-M "P -4 21 M "
_symmetry_group_IT_number 113
_symmetry_cell_setting 'tetragonal'
loop_
_space_group_symop_operation_xyz
x,y,z
y,-x,-z
-x,-y,z
-y,x,-z
1/2+x,1/2-y,-z
1/2-x,1/2+y,-z
1/2-y,1/2-x,z
1/2+y,1/2+x,z
loop_
_atom_site_type_symbol
_atom_site_label
_atom_site_fract_x
_atom_site_fract_y
_atom_site_fract_z
Si Si1 0.716276 0.547220 0.682550
Si Si2 0.170131 0.818003 0.694167
Si Si3 0.547211 0.247222 0.077327
Si Si4 0.650174 0.007699 0.860498
Si Si5 0.108724 0.762915 0.300482
Si Si6 0.303075 0.656053 0.939145
Si Si7 0.949604 0.697773 0.449559
O O1 0.677377 0.440969 0.676805
O O2 0.773664 0.554197 0.795723
O O3 0.637132 0.628679 0.686681
O O4 0.777946 0.559423 0.575761
O O5 0.213640 0.713640 0.677745
O O6 0.188535 0.840101 0.821397
O O7 0.227542 0.885108 0.615415
O O8 0.454725 0.310118 0.063737
O O9 0.527477 0.169787 0.986527
O O10 0.638814 0.299997 0.036073
O O11 0.571769 0.928232 0.849067
O O12 0.738358 0.961463 0.799062
O O13 0.602519 0.102519 0.814318
O O14 0.204478 0.704478 0.285594
O O15 0.052704 0.718642 0.402884
O O16 0.197522 0.697522 0.946767
O O17 0.904736 0.595265 0.430672
#
# Coordination Sequence:
#
# PCOD9555695 Si02
#       7
#     8   8   8   8   8   8   8
#     4  11  24  39  63  94 127 167 205 254 324 384
#     4   9  21  43  66  89 120 161 212 260 304 368
#     4  11  22  37  59  90 126 160 201 252 309 377
#     4  10  21  38  62  90 122 165 213 261 312 365
#     4  11  24  43  65  92 127 165 213 266 308 365
#     4  10  21  38  61  86 117 161 204 248 305 363
#     4  11  23  41  66  93 122 162 210 260 317 375
#
# _framework density 22.371400999999999
#
# number of rings (size 3 to 8) (size 9 to 14) (size 15 to 20)
#    0.000    1.571    0.000    4.286    0.000    8.571 
#    0.000    4.286    0.000    1.286    0.000    0.000 
#    0.000    0.000    0.000    0.000    0.000    0.000 
#
# Total GULP energy -312795.538288 kJ/mol
# GULP energy per Si atom -5585.634612 kJ/mol
# Density = 2.232048 g / cm^3
# Si number density = 22.371401 Si / 1000 Ang^3
#
#
#
# Elastic Constant Matrix: (Units=GPa)
#
#
# Indices 1 2 3 4 5 6 
#
# 1 131.1733 -2.7995 9.9823 0.0000 0.0000 0.0000
# 2 -2.7995 131.1745 9.9795 0.0000 0.0000 0.0000
# 3 9.9823 9.9795 136.8625 0.0000 0.0000 0.0000
# 4 0.0000 0.0000 0.0000 24.2500 0.0000 0.0000
# 5 0.0000 0.0000 0.0000 0.0000 24.2519 0.0000
# 6 0.0000 0.0000 0.0000 0.0000 0.0000 22.9798
#
#
#
# Elastic Compliance Matrix: (Units=1/GPa)
#
#
# Indices 1 2 3 4 5 6 
#
# 1 0.007672 0.000207 -0.000575 0.000000 0.000000 0.000000
# 2 0.000207 0.007672 -0.000575 0.000000 0.000000 0.000000
# 3 -0.000575 -0.000575 0.007390 0.000000 0.000000 0.000000
# 4 0.000000 0.000000 0.000000 0.041237 0.000000 0.000000
# 5 0.000000 0.000000 0.000000 0.000000 0.041234 0.000000
# 6 0.000000 0.000000 0.000000 0.000000 0.000000 0.043516
#
#
# Mechanical properties :
#
#
# Convention : Reuss Voigt Hill
#
# Bulk Modulus (GPa) = 47.96124 48.17053 48.06588
# Shear Modulus (GPa) = 31.73505 39.76622 35.75063
#
# Velocity S-wave (km/s) = 3.77046 4.22067 4.00190
# Velocity P-wave (km/s) = 6.35927 6.73283 6.54871
#
# Compressibility (1/GPa) = 0.02085017
#
# Stress axis : x y z
#
# Youngs Moduli (GPa) = 130.34980 130.35145 135.31046
#
# Poissons Ratio (x) = -0.02704 0.07776
# Poissons Ratio (y) = -0.02704 0.07774
# Poissons Ratio (z) = 0.07491 0.07489
#
# Static dielectric constant tensor:
#      x y z
#    x 1.845480 0.000000 0.000000 
#    y 0.000000 1.845480 0.000000 
#    z 0.000000 0.000000 1.855000 
# 
# From -- ./inp_files/1909.got.cif
#   From: 2010.05.17/outbox.cif.g08.bks.cpg/sg113_cif.got.tgz:1909.got - 2010.05.20 11:03:00.
