data_PCOD9555867
_publ_section_title
;
Structure prediction by ZEFSAII (Michael W. Deem and Ramdas Pophale) SiO2 
 PCOD9555867
Probable space group: P -4 21 C
;
_chemical_formula_sum "Si O2"
_cell_formula_units_Z 56
_cell_length_a 20.963294
_cell_length_b 20.963294
_cell_length_c 5.581293
_cell_angle_alpha 90.000000
_cell_angle_beta 90.000000
_cell_angle_gamma 90.000000
_cell_volume 2452.753321
_symmetry_space_group_name_H-M "P -4 21 C"
_symmetry_group_IT_number 114
_symmetry_cell_setting 'tetragonal'
loop_
_space_group_symop_operation_xyz
x,y,z
y,-x,-z
-x,-y,z
-y,x,-z
1/2+x,1/2-y,1/2-z
1/2-x,1/2+y,1/2-z
1/2-y,1/2-x,1/2+z
1/2+y,1/2+x,1/2+z
loop_
_atom_site_type_symbol
_atom_site_label
_atom_site_fract_x
_atom_site_fract_y
_atom_site_fract_z
Si Si1 0.432472 0.789058 0.215872
Si Si2 0.127354 0.037498 0.711035
Si Si3 0.596645 0.600214 0.711822
Si Si4 0.397901 0.256562 0.714036
Si Si5 0.044886 0.267348 0.783759
Si Si6 0.271710 0.082341 0.713841
Si Si7 0.436924 0.913801 0.715310
O O1 0.417811 0.756872 0.469973
O O2 0.510110 0.799050 0.216552
O O3 0.403108 0.859752 0.212203
O O4 0.419194 0.754538 0.964488
O O5 0.137864 0.962729 0.749511
O O6 0.098461 0.051285 0.448933
O O7 0.195409 0.071649 0.710591
O O8 0.092884 0.063805 0.950036
O O9 0.627746 0.670977 0.714431
O O10 0.476055 0.265985 0.712208
O O11 0.384841 0.218717 0.469494
O O12 0.385460 0.217948 0.957317
O O13 0.031987 0.343986 0.781083
O O14 0.449383 0.948166 0.464505
#
# Coordination Sequence:
#
# PCOD9555867 Si02
#       7
#     8   8   8   8   8   8   8
#     4   8  12  18  27  38  51  64  76  88 102 122
#     4  10  19  28  36  44  52  62  77  98 125 154
#     4  10  19  28  36  44  52  62  77  98 125 154
#     4   8  14  23  32  40  50  63  76  90 110 137
#     4   8  12  18  27  38  51  64  76  88 102 122
#     4   8  14  23  32  40  50  63  76  90 110 137
#     4   8  12  16  24  38  52  64  76  88 100 116
#
# _framework density 22.831485000000001
#
# number of rings (size 3 to 8) (size 9 to 14) (size 15 to 20)
#    0.000    3.429    0.000    0.857    0.000    1.714 
#    0.000    0.000    0.000    0.000    0.000    0.000 
#    0.000    0.000    0.000    0.000    0.000    0.000 
#
# Total GULP energy -311783.122991 kJ/mol
# GULP energy per Si atom -5567.555768 kJ/mol
# Density = 2.277952 g / cm^3
# Si number density = 22.831485 Si / 1000 Ang^3
#
#
#
# Elastic Constant Matrix: (Units=GPa)
#
#
# Indices 1 2 3 4 5 6 
#
# 1 144.4050 -115.6307 15.8860 0.0000 0.0000 0.0000
# 2 -115.6307 144.4050 15.8860 0.0000 0.0000 0.0000
# 3 15.8860 15.8860 261.7866 0.0000 0.0000 0.0000
# 4 0.0000 0.0000 0.0000 66.8145 0.0000 0.0000
# 5 0.0000 0.0000 0.0000 0.0000 66.8145 0.0000
# 6 0.0000 0.0000 0.0000 0.0000 0.0000 23.4921
#
#
#
# Elastic Compliance Matrix: (Units=1/GPa)
#
#
# Indices 1 2 3 4 5 6 
#
# 1 0.020547 0.016702 -0.002260 0.000000 0.000000 0.000000
# 2 0.016702 0.020547 -0.002260 0.000000 0.000000 0.000000
# 3 -0.002260 -0.002260 0.004094 0.000000 0.000000 0.000000
# 4 0.000000 0.000000 0.000000 0.014967 0.000000 0.000000
# 5 0.000000 0.000000 0.000000 0.000000 0.014967 0.000000
# 6 0.000000 0.000000 0.000000 0.000000 0.000000 0.042568
#
#
# Mechanical properties :
#
#
# Convention : Reuss Voigt Hill
#
# Bulk Modulus (GPa) = 14.37794 42.54214 28.46004
# Shear Modulus (GPa) = 42.91406 73.72121 58.31764
#
# Velocity S-wave (km/s) = 4.34014 5.68853 5.05946
# Velocity P-wave (km/s) = 5.60596 7.86253 6.82811
#
# Compressibility (1/GPa) = 0.06955099
#
# Stress axis : x y z
#
# Youngs Moduli (GPa) = 48.66797 48.66797 244.24545
#
# Poissons Ratio (x) = -0.81284 0.55209
# Poissons Ratio (y) = -0.81284 0.55209
# Poissons Ratio (z) = 0.11001 0.11001
#
# Static dielectric constant tensor:
#      x y z
#    x 1.782890 0.000000 0.000000 
#    y 0.000000 1.782890 0.000000 
#    z 0.000000 0.000000 2.060440 
# 
# From -- ./inp_files/277.got.cif
#   From: 2010.05.17/outbox.cif.g08.bks.cpg/sg114_1_cif.got.tgz:277.got - 2010.05.20 11:04:54.
