data_PCOD9555009
_publ_section_title
;
Structure prediction by ZEFSAII (Michael W. Deem and Ramdas Pophale) SiO2 
 PCOD9555009
Probable space group: P -4 2 C
;
_chemical_formula_sum "Si O2"
_cell_formula_units_Z 44
_cell_length_a 13.639449
_cell_length_b 13.639449
_cell_length_c 11.180817
_cell_angle_alpha 90.000000
_cell_angle_beta 90.000000
_cell_angle_gamma 90.000000
_cell_volume 2080.018472
_symmetry_space_group_name_H-M "P -4 2 C"
_symmetry_group_IT_number 112
_symmetry_cell_setting 'tetragonal'
loop_
_space_group_symop_operation_xyz
x,y,z
y,-x,-z
-x,-y,z
-y,x,-z
x,-y,1/2-z
-x,y,1/2-z
-y,-x,1/2+z
y,x,1/2+z
loop_
_atom_site_type_symbol
_atom_site_label
_atom_site_fract_x
_atom_site_fract_y
_atom_site_fract_z
Si Si1 0.377216 0.102956 0.180841
Si Si2 0.117088 0.230490 0.465213
Si Si3 0.733777 0.716235 0.276131
Si Si4 0.749294 0.500000 0.250000
Si Si5 0.530545 0.891229 0.525170
Si Si6 0.905678 0.249830 0.418144
O O1 0.289872 0.090802 0.084360
O O2 0.345002 0.198591 0.255444
O O3 0.527973 0.124241 0.401955
O O4 0.386504 0.000000 0.250000
O O5 0.211888 0.278973 0.403448
O O6 0.156904 0.124378 0.501450
O O7 0.019491 0.237151 0.386671
O O8 0.696450 0.605668 0.253256
O O9 0.824829 0.739634 0.186010
O O10 0.816650 0.496556 0.369155
O O11 0.647227 0.893297 0.513004
O O12 0.500000 0.000000 0.567254
#
# Coordination Sequence:
#
# PCOD9555009 Si02
#       6
#     8   8   8   4   8   8
#     4  11  23  38  58  93 134 165 204 272 341 396
#     4  11  20  40  54  84 123 165 210 258 317 391
#     4  10  21  36  62  89 125 168 220 266 323 392
#     4  10  19  38  66  92 125 168 222 277 322 396
#     4  11  20  37  61  93 124 160 212 271 331 384
#     4  10  22  35  59  86 121 167 211 258 321 393
#
# _framework density 21.153656000000002
#
# number of rings (size 3 to 8) (size 9 to 14) (size 15 to 20)
#    0.000    1.455    3.636    1.909    0.000    3.636 
#    0.000    0.000    0.000    3.273    0.000    2.545 
#   16.364    0.000    0.000    0.000    0.000    0.000 
#
# Total GULP energy -245562.760151 kJ/mol
# GULP energy per Si atom -5580.971822 kJ/mol
# Density = 2.110551 g / cm^3
# Si number density = 21.153656 Si / 1000 Ang^3
#
#
#
# Elastic Constant Matrix: (Units=GPa)
#
#
# Indices 1 2 3 4 5 6 
#
# 1 106.3079 65.0622 39.5083 0.0000 0.0000 0.0000
# 2 65.0622 106.3079 39.5083 0.0000 0.0000 0.0000
# 3 39.5083 39.5083 85.7532 0.0000 0.0000 0.0000
# 4 0.0000 0.0000 0.0000 26.8667 0.0000 0.0000
# 5 0.0000 0.0000 0.0000 0.0000 26.8667 0.0000
# 6 0.0000 0.0000 0.0000 0.0000 0.0000 25.4992
#
#
#
# Elastic Compliance Matrix: (Units=1/GPa)
#
#
# Indices 1 2 3 4 5 6 
#
# 1 0.015827 -0.008418 -0.003414 0.000000 0.000000 0.000000
# 2 -0.008418 0.015827 -0.003414 0.000000 0.000000 0.000000
# 3 -0.003414 -0.003414 0.014807 0.000000 0.000000 0.000000
# 4 0.000000 0.000000 0.000000 0.037221 0.000000 0.000000
# 5 0.000000 0.000000 0.000000 0.000000 0.037221 0.000000
# 6 0.000000 0.000000 0.000000 0.000000 0.000000 0.039217
#
#
# Mechanical properties :
#
#
# Convention : Reuss Voigt Hill
#
# Bulk Modulus (GPa) = 62.61373 65.16965 63.89169
# Shear Modulus (GPa) = 25.51886 26.13252 25.82569
#
# Velocity S-wave (km/s) = 3.47703 3.51859 3.49787
# Velocity P-wave (km/s) = 6.76634 6.88345 6.82515
#
# Compressibility (1/GPa) = 0.01597094
#
# Stress axis : x y z
#
# Youngs Moduli (GPa) = 63.18262 63.18262 67.53643
#
# Poissons Ratio (x) = 0.53186 0.23054
# Poissons Ratio (y) = 0.53186 0.23054
# Poissons Ratio (z) = 0.21568 0.21568
#
# Static dielectric constant tensor:
#      x y z
#    x 1.763800 0.000000 0.000000 
#    y 0.000000 1.763800 0.000000 
#    z 0.000000 0.000000 1.855670 
# 
# From -- ./inp_files/2508.got.cif
#   From: 2010.05.17/outbox.cif.g08.bks.cpg/sg112_2_cif.got.tgz:2508.got - 2010.05.20 10:59:04.
