data_PCOD9555554
_publ_section_title
;
Structure prediction by ZEFSAII (Michael W. Deem and Ramdas Pophale) SiO2 
 PCOD9555554
Probable space group: P -4 21 M 
;
_chemical_formula_sum "Si O2"
_cell_formula_units_Z 56
_cell_length_a 14.678514
_cell_length_b 14.678514
_cell_length_c 13.739224
_cell_angle_alpha 90.000000
_cell_angle_beta 90.000000
_cell_angle_gamma 90.000000
_cell_volume 2960.236348
_symmetry_space_group_name_H-M "P -4 21 M "
_symmetry_group_IT_number 113
_symmetry_cell_setting 'tetragonal'
loop_
_space_group_symop_operation_xyz
x,y,z
y,-x,-z
-x,-y,z
-y,x,-z
1/2+x,1/2-y,-z
1/2-x,1/2+y,-z
1/2-y,1/2-x,z
1/2+y,1/2+x,z
loop_
_atom_site_type_symbol
_atom_site_label
_atom_site_fract_x
_atom_site_fract_y
_atom_site_fract_z
Si Si1 0.617771 0.730980 0.213385
Si Si2 0.600366 0.752029 0.828605
Si Si3 0.963069 0.688961 0.650189
Si Si4 0.670965 0.680834 0.623304
Si Si5 0.908300 0.737191 0.269696
Si Si6 0.634863 0.430035 0.987505
Si Si7 0.684196 0.964625 0.557257
O O1 0.695061 0.804940 0.188317
O O2 0.539158 0.784934 0.271220
O O3 0.669913 0.650855 0.274337
O O4 0.580797 0.683146 0.116303
O O5 0.651079 0.848922 0.835370
O O6 0.644256 0.701465 0.735198
O O7 0.494138 0.756457 0.801794
O O8 0.612024 0.696501 0.927325
O O9 0.885190 0.614811 0.681264
O O10 0.917523 0.785760 0.620599
O O11 0.006790 0.655620 0.549748
O O12 0.754146 0.745855 0.594244
O O13 0.588751 0.719029 0.559184
O O14 0.839062 0.660939 0.233252
O O15 0.951244 0.701989 0.371147
O O16 0.536182 0.382692 0.988986
O O17 0.607318 0.892683 0.595818
#
# Coordination Sequence:
#
# PCOD9555554 Si02
#       7
#     8   8   8   8   8   8   8
#     4  11  24  41  61  89 128 165 204 257 316 375
#     4  10  19  37  62  85 115 152 197 252 312 373
#     4  11  23  39  62  89 124 169 212 253 308 372
#     4   8  18  36  57  84 115 152 196 249 305 362
#     4  10  21  38  60  88 121 157 199 254 311 365
#     4  11  22  39  63  89 118 156 206 257 308 377
#     4  10  21  37  61  89 121 161 209 254 302 366
#
# _framework density 18.917407999999998
#
# number of rings (size 3 to 8) (size 9 to 14) (size 15 to 20)
#    0.000    1.857    1.429    3.429    2.000    2.857 
#    0.000    1.429    0.000    1.714    0.000    0.000 
#    0.000    0.000    0.000    0.000    0.000    0.000 
#
# Total GULP energy -312128.603554 kJ/mol
# GULP energy per Si atom -5573.725063 kJ/mol
# Density = 1.887435 g / cm^3
# Si number density = 18.917408 Si / 1000 Ang^3
#
#
#
# Elastic Constant Matrix: (Units=GPa)
#
#
# Indices 1 2 3 4 5 6 
#
# 1 94.6815 43.6690 35.4336 0.0000 0.0000 0.0000
# 2 43.6690 94.6815 35.4318 0.0000 0.0000 0.0000
# 3 35.4336 35.4318 67.2215 0.0000 0.0000 0.0000
# 4 0.0000 0.0000 0.0000 15.4432 0.0000 0.0000
# 5 0.0000 0.0000 0.0000 0.0000 15.4439 0.0000
# 6 0.0000 0.0000 0.0000 0.0000 0.0000 40.0164
#
#
#
# Elastic Compliance Matrix: (Units=1/GPa)
#
#
# Indices 1 2 3 4 5 6 
#
# 1 0.014752 -0.004851 -0.005219 0.000000 0.000000 0.000000
# 2 -0.004851 0.014752 -0.005219 0.000000 0.000000 0.000000
# 3 -0.005219 -0.005219 0.020378 0.000000 0.000000 0.000000
# 4 0.000000 0.000000 0.000000 0.064753 0.000000 0.000000
# 5 0.000000 0.000000 0.000000 0.000000 0.064750 0.000000
# 6 0.000000 0.000000 0.000000 0.000000 0.000000 0.024990
#
#
# Mechanical properties :
#
#
# Convention : Reuss Voigt Hill
#
# Bulk Modulus (GPa) = 51.80098 53.96148 52.88123
# Shear Modulus (GPa) = 20.71350 23.65073 22.18211
#
# Velocity S-wave (km/s) = 3.31258 3.53967 3.42801
# Velocity P-wave (km/s) = 6.48638 6.72996 6.60929
#
# Compressibility (1/GPa) = 0.01930465
#
# Stress axis : x y z
#
# Youngs Moduli (GPa) = 67.78582 67.78751 49.07233
#
# Poissons Ratio (x) = 0.32883 0.25613
# Poissons Ratio (y) = 0.32882 0.25609
# Poissons Ratio (z) = 0.35380 0.35376
#
# Static dielectric constant tensor:
#      x y z
#    x 1.682360 0.000000 0.000000 
#    y 0.000000 1.682360 0.000000 
#    z 0.000000 0.000000 1.653900 
# 
# From -- ./inp_files/1929.got.cif
#   From: 2010.05.17/outbox.cif.g08.bks.cpg/sg113_cif.got.tgz:1929.got - 2010.05.20 11:03:00.
