data_PCOD9555820
_publ_section_title
;
Structure prediction by ZEFSAII (Michael W. Deem and Ramdas Pophale) SiO2 
 PCOD9555820
Probable space group: P -4 21 C
;
_chemical_formula_sum "Si O2"
_cell_formula_units_Z 46
_cell_length_a 8.612912
_cell_length_b 8.612912
_cell_length_c 26.218526
_cell_angle_alpha 90.000000
_cell_angle_beta 90.000000
_cell_angle_gamma 90.000000
_cell_volume 1944.949332
_symmetry_space_group_name_H-M "P -4 21 C"
_symmetry_group_IT_number 114
_symmetry_cell_setting 'tetragonal'
loop_
_space_group_symop_operation_xyz
x,y,z
y,-x,-z
-x,-y,z
-y,x,-z
1/2+x,1/2-y,1/2-z
1/2-x,1/2+y,1/2-z
1/2-y,1/2-x,1/2+z
1/2+y,1/2+x,1/2+z
loop_
_atom_site_type_symbol
_atom_site_label
_atom_site_fract_x
_atom_site_fract_y
_atom_site_fract_z
Si Si1 0.497032 0.669450 0.822316
Si Si2 0.583199 0.265201 0.992124
Si Si3 0.161035 0.799806 0.915437
Si Si4 0.000000 0.000000 0.000000
Si Si5 0.000000 0.000000 0.835953
Si Si6 0.169356 0.764790 0.231996
Si Si7 0.000000 0.500000 0.930045
Si Si8 0.500000 0.000000 0.816995
O O1 0.500000 0.500000 0.847966
O O2 0.653584 0.689691 0.787198
O O3 0.342506 0.675133 0.787215
O O4 0.496978 0.839456 0.848005
O O5 0.672220 0.224376 0.940502
O O6 0.408777 0.323355 0.983359
O O7 0.573945 0.127588 0.032448
O O8 0.086756 0.635412 0.899741
O O9 0.131605 0.922903 0.871374
O O10 0.064100 0.866419 0.963557
O O11 0.086765 0.131750 0.803614
O O12 0.027727 0.645713 0.220684
#
# Coordination Sequence:
#
# PCOD9555820 Si02
#       8
#     8   8   8   2   4   8   4   4
#     4  10  19  36  65  93 118 157 219 267 313 389
#     4   9  18  32  56  88 117 150 207 269 302 359
#     4  10  20  35  58  86 121 166 204 262 313 380
#     4  10  16  32  56  88 104 156 216 240 296 372
#     4  11  24  39  58  92 138 166 208 268 346 391
#     4  10  21  39  60  91 128 160 210 272 325 406
#     4  10  18  34  60  86 116 150 222 262 296 376
#     4   8  22  34  62  96 118 160 206 268 322 382
#
# _framework density 23.651
#
# number of rings (size 3 to 8) (size 9 to 14) (size 15 to 20)
#    1.043    1.217    2.609    1.043    0.000    0.000 
#    0.000    5.217    0.000    0.000    0.000    2.435 
#    0.000    0.000    0.000    0.000    0.000    0.000 
#
# Total GULP energy -256455.553631 kJ/mol
# GULP energy per Si atom -5575.120731 kJ/mol
# Density = 2.359717 g / cm^3
# Si number density = 23.651000 Si / 1000 Ang^3
#
#
#
# Elastic Constant Matrix: (Units=GPa)
#
#
# Indices 1 2 3 4 5 6 
#
# 1 122.5963 17.8018 20.0047 0.0000 0.0000 0.0000
# 2 17.8018 122.5963 20.0047 0.0000 0.0000 0.0000
# 3 20.0047 20.0047 25.3859 0.0000 0.0000 0.0000
# 4 0.0000 0.0000 0.0000 128.8731 0.0000 0.0000
# 5 0.0000 0.0000 0.0000 0.0000 128.8731 0.0000
# 6 0.0000 0.0000 0.0000 0.0000 0.0000 31.5633
#
#
#
# Elastic Compliance Matrix: (Units=1/GPa)
#
#
# Indices 1 2 3 4 5 6 
#
# 1 0.009364 -0.000179 -0.007238 0.000000 0.000000 0.000000
# 2 -0.000179 0.009364 -0.007238 0.000000 0.000000 0.000000
# 3 -0.007238 -0.007238 0.050800 0.000000 0.000000 0.000000
# 4 0.000000 0.000000 0.000000 0.007760 0.000000 0.000000
# 5 0.000000 0.000000 0.000000 0.000000 0.007760 0.000000
# 6 0.000000 0.000000 0.000000 0.000000 0.000000 0.031682
#
#
# Mechanical properties :
#
#
# Convention : Reuss Voigt Hill
#
# Bulk Modulus (GPa) = 24.86486 42.91121 33.88803
# Shear Modulus (GPa) = 31.35884 72.04641 51.70263
#
# Velocity S-wave (km/s) = 3.64524 5.52525 4.68061
# Velocity P-wave (km/s) = 5.31536 7.67382 6.60078
#
# Compressibility (1/GPa) = 0.04021740
#
# Stress axis : x y z
#
# Youngs Moduli (GPa) = 106.79337 106.79337 19.68518
#
# Poissons Ratio (x) = 0.01907 0.14249
# Poissons Ratio (y) = 0.01907 0.14249
# Poissons Ratio (z) = 0.77299 0.77299
#
# Static dielectric constant tensor:
#      x y z
#    x 1.202750 0.000000 0.000000 
#    y 0.000000 1.202750 0.000000 
#    z 0.000000 0.000000 1.849740 
# 
# From -- ./inp_files/3894.got.cif
#   From: 2010.05.17/outbox.cif.g08.bks.cpg/sg114_2_cif.got.tgz:3894.got - 2010.05.20 11:04:54.
