data_PCOD9555844
_publ_section_title
;
Structure prediction by ZEFSAII (Michael W. Deem and Ramdas Pophale) SiO2 
 PCOD9555844
Probable space group: P -4 21 C
;
_chemical_formula_sum "Si O2"
_cell_formula_units_Z 54
_cell_length_a 11.890563
_cell_length_b 11.890563
_cell_length_c 14.433908
_cell_angle_alpha 90.000000
_cell_angle_beta 90.000000
_cell_angle_gamma 90.000000
_cell_volume 2040.745133
_symmetry_space_group_name_H-M "P -4 21 C"
_symmetry_group_IT_number 114
_symmetry_cell_setting 'tetragonal'
loop_
_space_group_symop_operation_xyz
x,y,z
y,-x,-z
-x,-y,z
-y,x,-z
1/2+x,1/2-y,1/2-z
1/2-x,1/2+y,1/2-z
1/2-y,1/2-x,1/2+z
1/2+y,1/2+x,1/2+z
loop_
_atom_site_type_symbol
_atom_site_label
_atom_site_fract_x
_atom_site_fract_y
_atom_site_fract_z
Si Si1 0.500000 0.500000 0.776633
Si Si2 0.403436 0.090384 0.288572
Si Si3 0.500000 0.500000 0.500000
Si Si4 0.300130 0.908690 0.519454
Si Si5 0.239172 0.987703 0.018841
Si Si6 0.706459 0.849303 0.482116
Si Si7 0.244702 0.910125 0.304001
Si Si8 0.232301 0.922501 0.799697
O O1 0.564553 0.387385 0.816083
O O2 0.605041 0.561603 0.729123
O O3 0.350251 0.134937 0.383036
O O4 0.478980 0.192499 0.251152
O O5 0.500000 0.000000 0.311562
O O6 0.304954 0.011675 0.246648
O O7 0.612960 0.535058 0.445239
O O8 0.409606 0.841273 0.552987
O O9 0.195185 0.829660 0.540087
O O10 0.295127 0.914782 0.407716
O O11 0.292958 0.038435 0.542502
O O12 0.234679 0.952079 0.909694
O O13 0.265491 0.119147 0.031314
O O14 0.301999 0.790926 0.274016
#
# Coordination Sequence:
#
# PCOD9555844 Si02
#       8
#     4   8   2   8   8   8   8   8
#     4  12  23  34  62  84 104 154 187 242 292 344
#     4   8  16  36  60  79 104 145 186 230 272 341
#     4  12  18  28  60  84 104 132 174 228 284 326
#     4  10  20  34  52  80 113 148 180 220 264 339
#     4  10  19  35  53  81 110 138 179 234 282 328
#     4  10  18  31  54  78 106 148 181 211 270 331
#     4   9  21  37  55  81 112 142 186 236 286 332
#     4   9  20  37  57  81 108 140 191 238 277 340
#
# _framework density 26.460925
#
# number of rings (size 3 to 8) (size 9 to 14) (size 15 to 20)
#    0.000    2.370    1.481    3.556    2.074    2.667 
#    0.000    0.000    0.000    0.000    0.000    0.000 
#    0.000    0.000    0.000    0.000    0.000    0.000 
#
# Total GULP energy -301180.324801 kJ/mol
# GULP energy per Si atom -5577.413422 kJ/mol
# Density = 2.640070 g / cm^3
# Si number density = 26.460925 Si / 1000 Ang^3
#
#
#
# Elastic Constant Matrix: (Units=GPa)
#
#
# Indices 1 2 3 4 5 6 
#
# 1 180.9633 71.9378 11.7628 0.0000 0.0000 0.0000
# 2 71.9378 180.9633 11.7628 0.0000 0.0000 0.0000
# 3 11.7628 11.7628 61.5444 0.0000 0.0000 0.0000
# 4 0.0000 0.0000 0.0000 -2.2863 0.0000 0.0000
# 5 0.0000 0.0000 0.0000 0.0000 -2.2863 0.0000
# 6 0.0000 0.0000 0.0000 0.0000 0.0000 33.7460
#
#
#
# Elastic Compliance Matrix: (Units=1/GPa)
#
#
# Indices 1 2 3 4 5 6 
#
# 1 0.006599 -0.002573 -0.000769 0.000000 0.000000 0.000000
# 2 -0.002573 0.006599 -0.000769 0.000000 0.000000 0.000000
# 3 -0.000769 -0.000769 0.016543 0.000000 0.000000 0.000000
# 4 0.000000 0.000000 0.000000 -0.437380 0.000000 0.000000
# 5 0.000000 0.000000 0.000000 0.000000 -0.437380 0.000000
# 6 0.000000 0.000000 0.000000 0.000000 0.000000 0.029633
#
#
# Mechanical properties :
#
#
# Convention : Reuss Voigt Hill
#
# Bulk Modulus (GPa) = 46.47650 68.26640 57.37145
# Shear Modulus (GPa) = -6.25007 27.70184 10.72588
#
# Velocity S-wave (km/s) = -1.53855 3.23909 2.01551
# Velocity P-wave (km/s) = 3.80081 6.31220 5.21009
#
# Compressibility (1/GPa) = 0.02151625
#
# Stress axis : x y z
#
# Youngs Moduli (GPa) = 151.53977 151.53977 60.45021
#
# Poissons Ratio (x) = 0.38995 0.04651
# Poissons Ratio (y) = 0.38995 0.04651
# Poissons Ratio (z) = 0.11660 0.11660
#
# Static dielectric constant tensor:
#      x y z
#    x 2.146310 0.000000 0.000000 
#    y 0.000000 2.146310 0.000000 
#    z 0.000000 0.000000 2.142460 
# 
# From -- ./inp_files/3196.got.cif
#   From: 2010.05.17/outbox.cif.g08.bks.cpg/sg114_2_cif.got.tgz:3196.got - 2010.05.20 11:04:54.
