data_PCOD9555139
_publ_section_title
;
Structure prediction by ZEFSAII (Michael W. Deem and Ramdas Pophale) SiO2 
 PCOD9555139
Probable space group: P -4 2 C
;
_chemical_formula_sum "Si O2"
_cell_formula_units_Z 34
_cell_length_a 13.891141
_cell_length_b 13.891141
_cell_length_c 9.062502
_cell_angle_alpha 90.000000
_cell_angle_beta 90.000000
_cell_angle_gamma 90.000000
_cell_volume 1748.734808
_symmetry_space_group_name_H-M "P -4 2 C"
_symmetry_group_IT_number 112
_symmetry_cell_setting 'tetragonal'
loop_
_space_group_symop_operation_xyz
x,y,z
y,-x,-z
-x,-y,z
-y,x,-z
x,-y,1/2-z
-x,y,1/2-z
-y,-x,1/2+z
y,x,1/2+z
loop_
_atom_site_type_symbol
_atom_site_label
_atom_site_fract_x
_atom_site_fract_y
_atom_site_fract_z
Si Si1 0.487737 0.356411 0.574389
Si Si2 0.145422 0.995490 0.572090
Si Si3 0.994378 0.367409 0.504799
Si Si4 0.487756 0.836949 0.090537
Si Si5 0.000000 0.500000 0.250000
O O1 0.399806 0.419378 0.510275
O O2 0.500000 0.368194 0.750000
O O3 0.475289 0.245978 0.528668
O O4 0.256759 0.991841 0.527441
O O5 0.094595 0.087471 0.496002
O O6 0.135201 0.000000 0.750000
O O7 0.909713 0.397320 0.614978
O O8 0.952445 0.423767 0.360260
O O9 0.092615 0.422843 0.547311
O O10 0.500000 0.788771 0.250000
#
# Coordination Sequence:
#
# PCOD9555139 Si02
#       5
#     8   8   8   8   2
#     4  11  23  40  63  86 123 161 202 255 313 377
#     4  11  24  41  62  89 126 169 212 259 316 375
#     4  10  21  38  66  87 122 163 207 255 315 366
#     4  10  22  38  62  92 122 157 205 257 316 375
#     4   8  16  36  62  86 112 154 210 244 320 370
#
# _framework density 19.442629
#
# number of rings (size 3 to 8) (size 9 to 14) (size 15 to 20)
#    0.000    1.882    1.176    5.647    6.588    5.647 
#    0.000    0.000    0.000    0.000    0.000    0.000 
#    0.000    0.000    0.000    0.000    0.000    0.000 
#
# Total GULP energy -189354.059325 kJ/mol
# GULP energy per Si atom -5569.237039 kJ/mol
# Density = 1.939838 g / cm^3
# Si number density = 19.442629 Si / 1000 Ang^3
#
#
#
# Elastic Constant Matrix: (Units=GPa)
#
#
# Indices 1 2 3 4 5 6 
#
# 1 138.5026 38.6828 30.2011 0.0000 0.0000 0.0000
# 2 38.6828 138.5026 30.2011 0.0000 0.0000 0.0000
# 3 30.2011 30.2011 117.8221 0.0000 0.0000 0.0000
# 4 0.0000 0.0000 0.0000 21.3564 0.0000 0.0000
# 5 0.0000 0.0000 0.0000 0.0000 21.3564 0.0000
# 6 0.0000 0.0000 0.0000 0.0000 0.0000 0.3306
#
#
#
# Elastic Compliance Matrix: (Units=1/GPa)
#
#
# Indices 1 2 3 4 5 6 
#
# 1 0.008101 -0.001917 -0.001585 0.000000 0.000000 0.000000
# 2 -0.001917 0.008101 -0.001585 0.000000 0.000000 0.000000
# 3 -0.001585 -0.001585 0.009300 0.000000 0.000000 0.000000
# 4 0.000000 0.000000 0.000000 0.046824 0.000000 0.000000
# 5 0.000000 0.000000 0.000000 0.000000 0.046824 0.000000
# 6 0.000000 0.000000 0.000000 0.000000 0.000000 3.024647
#
#
# Mechanical properties :
#
#
# Convention : Reuss Voigt Hill
#
# Bulk Modulus (GPa) = 65.24144 65.88860 65.56502
# Shear Modulus (GPa) = 1.58274 28.32485 14.95379
#
# Velocity S-wave (km/s) = 0.90323 3.82100 2.77632
# Velocity P-wave (km/s) = 5.89207 7.30952 6.63873
#
# Compressibility (1/GPa) = 0.01532768
#
# Stress axis : x y z
#
# Youngs Moduli (GPa) = 123.43965 123.43965 107.52662
#
# Poissons Ratio (x) = 0.23663 0.17045
# Poissons Ratio (y) = 0.23663 0.17045
# Poissons Ratio (z) = 0.19567 0.19567
#
# Static dielectric constant tensor:
#      x y z
#    x 1.691690 0.000000 0.000000 
#    y 0.000000 1.691690 0.000000 
#    z 0.000000 0.000000 1.829770 
# 
# From -- ./inp_files/1076.got.cif
#   From: 2010.05.17/outbox.cif.g08.bks.cpg/sg112_1_cif.got.tgz:1076.got - 2010.05.20 10:59:04.
