data_PCOD9555019
_publ_section_title
;
Structure prediction by ZEFSAII (Michael W. Deem and Ramdas Pophale) SiO2 
 PCOD9555019
Probable space group: P -4 2 C
;
_chemical_formula_sum "Si O2"
_cell_formula_units_Z 56
_cell_length_a 15.174642
_cell_length_b 15.174642
_cell_length_c 13.459742
_cell_angle_alpha 90.000000
_cell_angle_beta 90.000000
_cell_angle_gamma 90.000000
_cell_volume 3099.371558
_symmetry_space_group_name_H-M "P -4 2 C"
_symmetry_group_IT_number 112
_symmetry_cell_setting 'tetragonal'
loop_
_space_group_symop_operation_xyz
x,y,z
y,-x,-z
-x,-y,z
-y,x,-z
x,-y,1/2-z
-x,y,1/2-z
-y,-x,1/2+z
y,x,1/2+z
loop_
_atom_site_type_symbol
_atom_site_label
_atom_site_fract_x
_atom_site_fract_y
_atom_site_fract_z
Si Si1 0.676887 0.125491 0.555942
Si Si2 0.548655 0.272189 0.649619
Si Si3 0.402128 0.702380 0.207168
Si Si4 0.731759 0.776894 0.129711
Si Si5 0.232335 0.596786 0.486329
Si Si6 0.901313 0.757579 0.250539
Si Si7 0.590351 0.050279 0.877636
O O1 0.607665 0.196758 0.598734
O O2 0.700274 0.147835 0.444130
O O3 0.755053 0.132160 0.636676
O O4 0.644211 0.025849 0.566519
O O5 0.500000 0.239233 0.750000
O O6 0.610999 0.352394 0.681274
O O7 0.474035 0.294320 0.569262
O O8 0.500000 0.690066 0.250000
O O9 0.339675 0.751247 0.287071
O O10 0.406559 0.755235 0.103521
O O11 0.825539 0.795945 0.181253
O O12 0.744592 0.691900 0.058453
O O13 0.133789 0.574630 0.448477
O O14 0.914139 0.655570 0.209786
O O15 0.000000 0.795665 0.250000
O O16 0.500000 0.000000 0.851190
#
# Coordination Sequence:
#
# PCOD9555019 Si02
#       7
#     8   8   8   8   8   8   8
#     4  11  20  34  57  83 116 153 187 245 314 359
#     4  12  21  37  57  78 110 149 208 254 295 331
#     4  12  26  39  56  78 114 164 206 240 292 356
#     4  11  20  40  57  81 117 159 195 244 304 361
#     4  11  22  39  59  82 113 150 198 256 303 358
#     4   9  19  33  56  90 114 146 198 252 306 363
#     4  10  20  32  57  88 116 143 195 253 308 362
#
# _framework density 18.068179000000001
#
# number of rings (size 3 to 8) (size 9 to 14) (size 15 to 20)
#    0.000    1.143    5.714    1.714    0.000    2.286 
#    0.000    0.714    0.000    0.000    0.000    0.000 
#    0.000  120.571    0.000    0.000    0.000    0.000 
#
# Total GULP energy -312450.277836 kJ/mol
# GULP energy per Si atom -5579.469247 kJ/mol
# Density = 1.802706 g / cm^3
# Si number density = 18.068179 Si / 1000 Ang^3
#
#
#
# Elastic Constant Matrix: (Units=GPa)
#
#
# Indices 1 2 3 4 5 6 
#
# 1 65.6298 22.0567 43.8848 0.0000 0.0000 0.0000
# 2 22.0567 65.6298 43.8848 0.0000 0.0000 0.0000
# 3 43.8848 43.8848 131.6751 0.0000 0.0000 0.0000
# 4 0.0000 0.0000 0.0000 27.5157 0.0000 0.0000
# 5 0.0000 0.0000 0.0000 0.0000 27.5157 0.0000
# 6 0.0000 0.0000 0.0000 0.0000 0.0000 14.3899
#
#
#
# Elastic Compliance Matrix: (Units=1/GPa)
#
#
# Indices 1 2 3 4 5 6 
#
# 1 0.020032 -0.002918 -0.005704 0.000000 0.000000 0.000000
# 2 -0.002918 0.020032 -0.005704 0.000000 0.000000 0.000000
# 3 -0.005704 -0.005704 0.011396 0.000000 0.000000 0.000000
# 4 0.000000 0.000000 0.000000 0.036343 0.000000 0.000000
# 5 0.000000 0.000000 0.000000 0.000000 0.036343 0.000000
# 6 0.000000 0.000000 0.000000 0.000000 0.000000 0.069493
#
#
# Mechanical properties :
#
#
# Convention : Reuss Voigt Hill
#
# Bulk Modulus (GPa) = 43.84323 53.62083 48.73203
# Shear Modulus (GPa) = 21.74936 24.09147 22.92042
#
# Velocity S-wave (km/s) = 3.47326 3.65549 3.56554
# Velocity P-wave (km/s) = 6.35632 6.89624 6.63178
#
# Compressibility (1/GPa) = 0.02280854
#
# Stress axis : x y z
#
# Youngs Moduli (GPa) = 49.92117 49.92117 87.74859
#
# Poissons Ratio (x) = 0.14569 0.50047
# Poissons Ratio (y) = 0.14569 0.50047
# Poissons Ratio (z) = 0.28473 0.28473
#
# Static dielectric constant tensor:
#      x y z
#    x 1.644560 0.000000 0.000000 
#    y 0.000000 1.644560 0.000000 
#    z 0.000000 0.000000 1.627480 
# 
# From -- ./inp_files/2653.got.cif
#   From: 2010.05.17/outbox.cif.g08.bks.cpg/sg112_2_cif.got.tgz:2653.got - 2010.05.20 10:59:04.
