data_PCOD9555024
_publ_section_title
;
Structure prediction by ZEFSAII (Michael W. Deem and Ramdas Pophale) SiO2 
 PCOD9555024
Probable space group: P -4 2 C
;
_chemical_formula_sum "Si O2"
_cell_formula_units_Z 48
_cell_length_a 9.077237
_cell_length_b 9.077237
_cell_length_c 32.698269
_cell_angle_alpha 90.000000
_cell_angle_beta 90.000000
_cell_angle_gamma 90.000000
_cell_volume 2694.214144
_symmetry_space_group_name_H-M "P -4 2 C"
_symmetry_group_IT_number 112
_symmetry_cell_setting 'tetragonal'
loop_
_space_group_symop_operation_xyz
x,y,z
y,-x,-z
-x,-y,z
-y,x,-z
x,-y,1/2-z
-x,y,1/2-z
-y,-x,1/2+z
y,x,1/2+z
loop_
_atom_site_type_symbol
_atom_site_label
_atom_site_fract_x
_atom_site_fract_y
_atom_site_fract_z
Si Si1 0.320447 0.328038 0.911196
Si Si2 0.320447 0.328039 0.588804
Si Si3 0.676796 0.676797 1.000000
Si Si4 0.826313 0.323169 0.327655
Si Si5 0.325616 0.174897 0.250000
Si Si6 0.826313 0.323169 0.172345
O O1 0.278417 0.500000 0.906861
O O2 0.500000 0.324671 0.912345
O O3 0.269467 0.269055 0.955695
O O4 0.274173 0.238256 0.871439
O O5 0.269465 0.269056 0.544305
O O6 0.274173 0.238257 0.628561
O O7 0.699391 0.500001 0.998654
O O8 0.745457 0.245713 0.290242
O O9 0.803983 0.500000 0.324430
O O10 1.000000 0.294703 0.325711
O O11 0.500000 0.203031 0.250000
O O12 0.254543 0.245713 0.290241
O O13 0.300839 0.000000 0.250000
#
# Coordination Sequence:
#
# PCOD9555024 Si02
#       6
#     8   8   8   8   8   8
#     4   8  13  23  42  68  96 126 161 201 241 278
#     4   8  13  23  42  68  96 126 161 201 241 278
#     4   7  10  18  36  64  94 123 158 198 238 277
#     4  10  20  33  51  76 103 130 162 199 241 292
#     4  11  24  39  54  72  94 123 162 205 248 296
#     4  10  20  33  51  76 103 130 162 199 241 292
#
# _framework density 17.815954000000001
#
# number of rings (size 3 to 8) (size 9 to 14) (size 15 to 20)
#    0.000    3.000    0.000    4.000    0.000    5.333 
#    0.000    0.000    0.000    2.000    0.000    9.333 
#    0.000    0.000    0.000    0.000    0.000    0.000 
#
# Total GULP energy -267347.077341 kJ/mol
# GULP energy per Si atom -5569.730778 kJ/mol
# Density = 1.777540 g / cm^3
# Si number density = 17.815954 Si / 1000 Ang^3
#
#
#
# Elastic Constant Matrix: (Units=GPa)
#
#
# Indices 1 2 3 4 5 6 
#
# 1 45.2999 47.4336 73.2756 0.0000 0.0000 0.0000
# 2 47.4336 45.2999 73.2756 0.0000 0.0000 0.0000
# 3 73.2756 73.2756 243.3762 0.0000 0.0000 0.0000
# 4 0.0000 0.0000 0.0000 -10.0511 0.0000 0.0000
# 5 0.0000 0.0000 0.0000 0.0000 -10.0511 0.0000
# 6 0.0000 0.0000 0.0000 0.0000 0.0000 14.2584
#
#
#
# Elastic Compliance Matrix: (Units=1/GPa)
#
#
# Indices 1 2 3 4 5 6 
#
# 1 -0.224047 0.244618 -0.006194 0.000000 0.000000 0.000000
# 2 0.244618 -0.224047 -0.006194 0.000000 0.000000 0.000000
# 3 -0.006194 -0.006194 0.007839 0.000000 0.000000 0.000000
# 4 0.000000 0.000000 0.000000 -0.099492 0.000000 0.000000
# 5 0.000000 0.000000 0.000000 0.000000 -0.099492 0.000000
# 6 0.000000 0.000000 0.000000 0.000000 0.000000 0.070134
#
#
# Mechanical properties :
#
#
# Convention : Reuss Voigt Hill
#
# Bulk Modulus (GPa) = 41.31001 80.21619 60.76310
# Shear Modulus (GPa) = -4.87568 8.16400 1.64416
#
# Velocity S-wave (km/s) = -1.65609 2.14298 0.96170
# Velocity P-wave (km/s) = 4.42499 7.15862 5.95090
#
# Compressibility (1/GPa) = 0.02420721
#
# Stress axis : x y z
#
# Youngs Moduli (GPa) = -4.46336 -4.46336 127.57532
#
# Poissons Ratio (x) = 1.09182 0.79017
# Poissons Ratio (y) = 1.09182 0.79017
# Poissons Ratio (z) = -0.02765 -0.02765
#
# Static dielectric constant tensor:
#      x y z
#    x 1.586560 0.000000 0.000000 
#    y 0.000000 1.586560 0.000000 
#    z 0.000000 0.000000 1.640070 
# 
# From -- ./inp_files/6317.got.cif
#   From: 2010.05.17/outbox.cif.g08.bks.cpg/sg112_4_cif.got.tgz:6317.got - 2010.05.20 10:59:04.
