data_PCOD9555077
_publ_section_title
;
Structure prediction by ZEFSAII (Michael W. Deem and Ramdas Pophale) SiO2 
 PCOD9555077
Probable space group: P -4 2 C
;
_chemical_formula_sum "Si O2"
_cell_formula_units_Z 48
_cell_length_a 8.489794
_cell_length_b 8.489794
_cell_length_c 28.723530
_cell_angle_alpha 90.000000
_cell_angle_beta 90.000000
_cell_angle_gamma 90.000000
_cell_volume 2070.294445
_symmetry_space_group_name_H-M "P -4 2 C"
_symmetry_group_IT_number 112
_symmetry_cell_setting 'tetragonal'
loop_
_space_group_symop_operation_xyz
x,y,z
y,-x,-z
-x,-y,z
-y,x,-z
x,-y,1/2-z
-x,y,1/2-z
-y,-x,1/2+z
y,x,1/2+z
loop_
_atom_site_type_symbol
_atom_site_label
_atom_site_fract_x
_atom_site_fract_y
_atom_site_fract_z
Si Si1 0.843906 0.608095 0.591776
Si Si2 0.815260 0.970834 0.349188
Si Si3 0.000000 0.256252 0.750000
Si Si4 0.000000 0.739527 0.250000
Si Si5 0.924863 0.249291 0.003368
Si Si6 0.000000 0.500000 0.332649
Si Si7 0.190372 0.356633 0.407001
Si Si8 0.500000 0.500000 0.413565
O O1 0.850037 0.641913 0.536476
O O2 0.671797 0.549598 0.608307
O O3 0.000000 0.500000 0.601003
O O4 0.887606 0.770812 0.616659
O O5 0.695932 0.984416 0.304583
O O6 0.794285 0.808321 0.378208
O O7 0.000000 0.000000 0.335395
O O8 0.156602 0.153754 0.748498
O O9 0.001522 0.642871 0.297183
O O10 0.937909 0.328697 0.053494
O O11 0.095947 0.185540 0.988708
O O12 0.145529 0.479343 0.367016
O O13 0.338635 0.431402 0.434681
#
# Coordination Sequence:
#
# PCOD9555077 Si02
#       8
#     8   8   4   4   8   4   8   4
#     4  12  27  49  70 100 155 197 244 306 370 456
#     4  12  22  45  75 106 139 186 244 312 369 440
#     4  11  20  38  71 106 133 182 241 300 381 432
#     4  10  20  38  64 104 144 170 234 310 366 420
#     4  11  24  44  73 108 141 188 246 309 369 440
#     4  11  24  40  68 104 140 184 236 305 356 438
#     4  12  26  44  69 106 144 191 243 298 378 439
#     4  12  30  47  68 103 148 202 240 295 376 459
#
# _framework density 23.185105
#
# number of rings (size 3 to 8) (size 9 to 14) (size 15 to 20)
#    0.000    0.500    6.667    1.000    8.167    2.000 
#    0.000    0.417    0.000    7.000    0.000    0.000 
#    0.000    0.000    0.000    0.000    0.000    0.000 
#
# Total GULP energy -267232.658652 kJ/mol
# GULP energy per Si atom -5567.347055 kJ/mol
# Density = 2.313233 g / cm^3
# Si number density = 23.185105 Si / 1000 Ang^3
#
#
#
# Elastic Constant Matrix: (Units=GPa)
#
#
# Indices 1 2 3 4 5 6 
#
# 1 96.2907 32.4990 22.4329 0.0000 0.0000 0.0000
# 2 32.4990 96.2907 22.4329 0.0000 0.0000 0.0000
# 3 22.4329 22.4329 151.0058 0.0000 0.0000 0.0000
# 4 0.0000 0.0000 0.0000 -3.1702 0.0000 0.0000
# 5 0.0000 0.0000 0.0000 0.0000 -3.1702 0.0000
# 6 0.0000 0.0000 0.0000 0.0000 0.0000 23.7338
#
#
#
# Elastic Compliance Matrix: (Units=1/GPa)
#
#
# Indices 1 2 3 4 5 6 
#
# 1 0.011932 -0.003744 -0.001216 0.000000 0.000000 0.000000
# 2 -0.003744 0.011932 -0.001216 0.000000 0.000000 0.000000
# 3 -0.001216 -0.001216 0.006984 0.000000 0.000000 0.000000
# 4 0.000000 0.000000 0.000000 -0.315434 0.000000 0.000000
# 5 0.000000 0.000000 0.000000 0.000000 -0.315434 0.000000
# 6 0.000000 0.000000 0.000000 0.000000 0.000000 0.042134
#
#
# Mechanical properties :
#
#
# Convention : Reuss Voigt Hill
#
# Bulk Modulus (GPa) = 54.06963 55.36851 54.71907
# Shear Modulus (GPa) = -9.27012 21.22682 5.97835
#
# Velocity S-wave (km/s) = -2.00175 3.02907 1.60752
# Velocity P-wave (km/s) = 4.24604 6.01387 5.20554
#
# Compressibility (1/GPa) = 0.01849467
#
# Stress axis : x y z
#
# Youngs Moduli (GPa) = 83.80691 83.80691 143.19101
#
# Poissons Ratio (x) = 0.31376 0.17418
# Poissons Ratio (y) = 0.31376 0.17418
# Poissons Ratio (z) = 0.10195 0.10195
#
# Static dielectric constant tensor:
#      x y z
#    x 1.909770 0.000000 0.000000 
#    y 0.000000 1.909770 0.000000 
#    z 0.000000 0.000000 1.882060 
# 
# From -- ./inp_files/6375.got.cif
#   From: 2010.05.17/outbox.cif.g08.bks.cpg/sg112_4_cif.got.tgz:6375.got - 2010.05.20 10:59:04.
