data_PCOD9555142
_publ_section_title
;
Structure prediction by ZEFSAII (Michael W. Deem and Ramdas Pophale) SiO2 
 PCOD9555142
Probable space group: P -4 2 C
;
_chemical_formula_sum "Si O2"
_cell_formula_units_Z 40
_cell_length_a 14.591265
_cell_length_b 14.591265
_cell_length_c 9.680404
_cell_angle_alpha 90.000000
_cell_angle_beta 90.000000
_cell_angle_gamma 90.000000
_cell_volume 2061.006552
_symmetry_space_group_name_H-M "P -4 2 C"
_symmetry_group_IT_number 112
_symmetry_cell_setting 'tetragonal'
loop_
_space_group_symop_operation_xyz
x,y,z
y,-x,-z
-x,-y,z
-y,x,-z
x,-y,1/2-z
-x,y,1/2-z
-y,-x,1/2+z
y,x,1/2+z
loop_
_atom_site_type_symbol
_atom_site_label
_atom_site_fract_x
_atom_site_fract_y
_atom_site_fract_z
Si Si1 0.228817 0.349263 0.190729
Si Si2 0.622464 0.910490 0.490532
Si Si3 0.113862 0.408543 0.453268
Si Si4 0.472337 0.619342 0.908740
Si Si5 0.217199 0.604926 0.767176
O O1 0.164309 0.380234 0.314489
O O2 0.280803 0.431142 0.109180
O O3 0.313317 0.289919 0.249713
O O4 0.157682 0.312287 0.077038
O O5 0.517715 0.902771 0.545802
O O6 0.617114 0.868736 0.336924
O O7 0.641552 0.017259 0.514822
O O8 0.180419 0.386855 0.579089
O O9 0.500000 0.594554 0.750000
O O10 0.556349 0.603620 0.014173
O O11 0.252758 0.500000 0.750000
#
# Coordination Sequence:
#
# PCOD9555142 Si02
#       5
#     8   8   8   8   8
#     4  12  24  37  59  88 118 156 209 254 306 356
#     4  10  21  39  63  81 115 159 204 262 307 357
#     4  10  21  41  59  85 113 157 209 256 311 357
#     4  11  26  41  54  75 118 174 223 254 291 350
#     4  10  23  37  60  87 123 158 197 248 308 371
#
# _framework density 19.407992
#
# number of rings (size 3 to 8) (size 9 to 14) (size 15 to 20)
#    0.000    1.400    0.000    5.400   11.200    5.600 
#    0.000    0.000    0.000    0.000    0.000    0.000 
#    0.000   56.000    0.000    0.000    0.000    0.000 
#
# Total GULP energy -223290.810421 kJ/mol
# GULP energy per Si atom -5582.270261 kJ/mol
# Density = 1.936382 g / cm^3
# Si number density = 19.407992 Si / 1000 Ang^3
#
#
#
# Elastic Constant Matrix: (Units=GPa)
#
#
# Indices 1 2 3 4 5 6 
#
# 1 50.9686 -11.2998 4.1411 0.0000 0.0000 0.0000
# 2 -11.2998 50.9686 4.1411 0.0000 0.0000 0.0000
# 3 4.1411 4.1411 111.8848 0.0000 0.0000 0.0000
# 4 0.0000 0.0000 0.0000 19.8468 0.0000 0.0000
# 5 0.0000 0.0000 0.0000 0.0000 19.8468 0.0000
# 6 0.0000 0.0000 0.0000 0.0000 0.0000 11.1181
#
#
#
# Elastic Compliance Matrix: (Units=1/GPa)
#
#
# Indices 1 2 3 4 5 6 
#
# 1 0.020732 0.004673 -0.000940 0.000000 0.000000 0.000000
# 2 0.004673 0.020732 -0.000940 0.000000 0.000000 0.000000
# 3 -0.000940 -0.000940 0.009007 0.000000 0.000000 0.000000
# 4 0.000000 0.000000 0.000000 0.050386 0.000000 0.000000
# 5 0.000000 0.000000 0.000000 0.000000 0.050386 0.000000
# 6 0.000000 0.000000 0.000000 0.000000 0.000000 0.089943
#
#
# Mechanical properties :
#
#
# Convention : Reuss Voigt Hill
#
# Bulk Modulus (GPa) = 17.83921 23.08742 20.46331
# Shear Modulus (GPa) = 19.66274 24.61832 22.14053
#
# Velocity S-wave (km/s) = 3.18642 3.56541 3.38123
# Velocity P-wave (km/s) = 4.76962 5.37319 5.08038
#
# Compressibility (1/GPa) = 0.05605630
#
# Stress axis : x y z
#
# Youngs Moduli (GPa) = 48.23395 48.23395 111.02023
#
# Poissons Ratio (x) = -0.22539 0.10439
# Poissons Ratio (y) = -0.22539 0.10439
# Poissons Ratio (z) = 0.04535 0.04535
#
# Static dielectric constant tensor:
#      x y z
#    x 1.751710 0.000000 0.000000 
#    y 0.000000 1.751710 0.000000 
#    z 0.000000 0.000000 1.706830 
# 
# From -- ./inp_files/1230.got.cif
#   From: 2010.05.17/outbox.cif.g08.bks.cpg/sg112_1_cif.got.tgz:1230.got - 2010.05.20 10:59:04.
