data_PCOD9555370
_publ_section_title
;
Structure prediction by ZEFSAII (Michael W. Deem and Ramdas Pophale) SiO2 
 PCOD9555370
Probable space group: P -4 2 C
;
_chemical_formula_sum "Si O2"
_cell_formula_units_Z 24
_cell_length_a 10.077414
_cell_length_b 10.077414
_cell_length_c 10.409679
_cell_angle_alpha 90.000000
_cell_angle_beta 90.000000
_cell_angle_gamma 90.000000
_cell_volume 1057.147382
_symmetry_space_group_name_H-M "P -4 2 C"
_symmetry_group_IT_number 112
_symmetry_cell_setting 'tetragonal'
loop_
_space_group_symop_operation_xyz
x,y,z
y,-x,-z
-x,-y,z
-y,x,-z
x,-y,1/2-z
-x,y,1/2-z
-y,-x,1/2+z
y,x,1/2+z
loop_
_atom_site_type_symbol
_atom_site_label
_atom_site_fract_x
_atom_site_fract_y
_atom_site_fract_z
Si Si1 0.189111 0.590735 0.126944
Si Si2 0.212193 0.000000 0.000000
Si Si3 0.810888 0.590736 0.873056
O O1 0.170437 0.500000 0.250000
O O2 0.321442 0.678558 0.140470
O O3 0.197632 0.499999 0.000000
O O4 0.069249 0.693319 0.103126
O O5 0.306681 0.930751 0.103127
O O6 0.115769 0.884231 0.947557
O O7 0.829563 0.500000 0.750000
#
# Coordination Sequence:
#
# PCOD9555370 Si02
#       3
#     8   8   8
#     4  11  24  43  69 101 138 180 225 277 336 401
#     4   9  21  44  72 102 135 175 226 282 340 399
#     4  11  24  43  69 101 138 180 225 277 336 401
#
# _framework density 22.702605999999999
#
# number of rings (size 3 to 8) (size 9 to 14) (size 15 to 20)
#    0.000    1.667    0.000    3.000    0.000    9.333 
#    0.000   10.000    0.000   28.000    0.000    0.000 
#    0.000    0.000    0.000    0.000    0.000    0.000 
#
# Total GULP energy -134500.208540 kJ/mol
# GULP energy per Si atom -5604.175356 kJ/mol
# Density = 2.265093 g / cm^3
# Si number density = 22.702606 Si / 1000 Ang^3
#
#
#
# Elastic Constant Matrix: (Units=GPa)
#
#
# Indices 1 2 3 4 5 6 
#
# 1 191.2933 111.5051 101.7361 0.0000 0.0000 0.0000
# 2 111.5051 191.2933 101.7361 0.0000 0.0000 0.0000
# 3 101.7361 101.7361 176.9151 0.0000 0.0000 0.0000
# 4 0.0000 0.0000 0.0000 24.5025 0.0000 0.0000
# 5 0.0000 0.0000 0.0000 0.0000 24.5025 0.0000
# 6 0.0000 0.0000 0.0000 0.0000 0.0000 29.6454
#
#
#
# Elastic Compliance Matrix: (Units=1/GPa)
#
#
# Indices 1 2 3 4 5 6 
#
# 1 0.008958 -0.003575 -0.003095 0.000000 0.000000 0.000000
# 2 -0.003575 0.008958 -0.003095 0.000000 0.000000 0.000000
# 3 -0.003095 -0.003095 0.009212 0.000000 0.000000 0.000000
# 4 0.000000 0.000000 0.000000 0.040812 0.000000 0.000000
# 5 0.000000 0.000000 0.000000 0.000000 0.040812 0.000000
# 6 0.000000 0.000000 0.000000 0.000000 0.000000 0.033732
#
#
# Mechanical properties :
#
#
# Convention : Reuss Voigt Hill
#
# Bulk Modulus (GPa) = 131.64285 132.16181 131.90233
# Shear Modulus (GPa) = 30.38628 32.03169 31.20898
#
# Velocity S-wave (km/s) = 3.66245 3.76030 3.71170
# Velocity P-wave (km/s) = 8.71759 8.78601 8.75187
#
# Compressibility (1/GPa) = 0.00759631
#
# Stress axis : x y z
#
# Youngs Moduli (GPa) = 111.63472 111.63472 108.55121
#
# Poissons Ratio (x) = 0.39914 0.33599
# Poissons Ratio (y) = 0.39914 0.33599
# Poissons Ratio (z) = 0.34553 0.34553
#
# Static dielectric constant tensor:
#      x y z
#    x 1.848700 0.000000 0.000000 
#    y 0.000000 1.848700 0.000000 
#    z 0.000000 0.000000 1.778330 
# 
# From -- ./inp_files/786.got.cif
#   From: 2010.05.17/outbox.cif.g08.bks.cpg/sg112_1_cif.got.tgz:786.got - 2010.05.20 10:59:04.
