data_PCOD9555744
_publ_section_title
;
Structure prediction by ZEFSAII (Michael W. Deem and Ramdas Pophale) SiO2 
 PCOD9555744
Probable space group: P -4 21 M 
;
_chemical_formula_sum "Si O2"
_cell_formula_units_Z 52
_cell_length_a 22.368756
_cell_length_b 22.368756
_cell_length_c 5.032272
_cell_angle_alpha 90.000000
_cell_angle_beta 90.000000
_cell_angle_gamma 90.000000
_cell_volume 2517.953883
_symmetry_space_group_name_H-M "P -4 21 M "
_symmetry_group_IT_number 113
_symmetry_cell_setting 'tetragonal'
loop_
_space_group_symop_operation_xyz
x,y,z
y,-x,-z
-x,-y,z
-y,x,-z
1/2+x,1/2-y,-z
1/2-x,1/2+y,-z
1/2-y,1/2-x,z
1/2+y,1/2+x,z
loop_
_atom_site_type_symbol
_atom_site_label
_atom_site_fract_x
_atom_site_fract_y
_atom_site_fract_z
Si Si1 0.269394 0.095762 0.740424
Si Si2 0.554938 0.147931 0.248810
Si Si3 0.386659 0.018833 0.745218
Si Si4 0.640649 0.316155 0.882496
Si Si5 0.270086 0.229915 0.989803
Si Si6 0.937713 0.197938 0.769779
Si Si7 0.565748 0.286732 0.384021
O O1 0.335455 0.069457 0.753875
O O2 0.263747 0.163145 0.844700
O O3 0.245690 0.088480 0.442266
O O4 0.229248 0.056989 0.943207
O O5 0.620875 0.120875 0.279059
O O6 0.511572 0.115627 0.458564
O O7 0.553509 0.217793 0.309493
O O8 0.530102 0.132009 0.960259
O O9 0.448975 0.051026 0.801309
O O10 0.649940 0.385343 0.802078
O O11 0.592656 0.289708 0.677313
O O12 0.703721 0.280877 0.872266
O O13 0.614912 0.311066 0.178903
O O14 0.002572 0.180220 0.661642
#
# Coordination Sequence:
#
# PCOD9555744 Si02
#       7
#     8   8   8   8   4   8   8
#     4  11  20  39  64  94 125 177 206 279 332 409
#     4  12  27  43  64  92 137 186 228 281 336 411
#     4  12  23  42  66  95 125 178 242 279 332 374
#     4  11  26  40  67 102 130 177 215 287 344 407
#     4  10  24  40  64 102 145 158 221 288 358 406
#     4  11  23  43  66  92 134 166 228 263 340 415
#     4  12  24  45  68  94 135 181 223 268 351 430
#
# _framework density 20.651691
#
# number of rings (size 3 to 8) (size 9 to 14) (size 15 to 20)
#    0.000    0.615    3.846    4.615    2.154    6.769 
#    0.000    0.000    0.000    2.769    0.000    0.000 
#    0.000    0.000    0.000    0.000    0.000    0.000 
#
# Total GULP energy -289774.855333 kJ/mol
# GULP energy per Si atom -5572.593372 kJ/mol
# Density = 2.060469 g / cm^3
# Si number density = 20.651691 Si / 1000 Ang^3
#
#
#
# Elastic Constant Matrix: (Units=GPa)
#
#
# Indices 1 2 3 4 5 6 
#
# 1 -432.3537 521.8544 -7.3556 0.0000 0.0000 0.0000
# 2 521.8544 -432.1676 -7.1857 0.0000 0.0000 0.0000
# 3 -7.3556 -7.1857 51.8730 0.0000 0.0000 0.0000
# 4 0.0000 0.0000 0.0000 45.5934 0.0000 0.0000
# 5 0.0000 0.0000 0.0000 0.0000 45.5533 0.0000
# 6 0.0000 0.0000 0.0000 0.0000 0.0000 28.1799
#
#
#
# Elastic Compliance Matrix: (Units=1/GPa)
#
#
# Indices 1 2 3 4 5 6 
#
# 1 0.005185 0.006235 0.001599 0.000000 0.000000 0.000000
# 2 0.006235 0.005188 0.001603 0.000000 0.000000 0.000000
# 3 0.001599 0.001603 0.019727 0.000000 0.000000 0.000000
# 4 0.000000 0.000000 0.000000 0.021933 0.000000 0.000000
# 5 0.000000 0.000000 0.000000 0.000000 0.021952 0.000000
# 6 0.000000 0.000000 0.000000 0.000000 0.000000 0.035486
#
#
# Mechanical properties :
#
#
# Convention : Reuss Voigt Hill
#
# Bulk Modulus (GPa) = 20.41960 22.44199 21.43079
# Shear Modulus (GPa) = 46.76270 -64.13210 -8.68470
#
# Velocity S-wave (km/s) = 4.76368 -5.57867 -2.05291
# Velocity P-wave (km/s) = 6.33766 5.53217 2.18644
#
# Compressibility (1/GPa) = 0.04897255
#
# Stress axis : x y z
#
# Youngs Moduli (GPa) = 192.85609 192.75208 50.69302
#
# Poissons Ratio (x) = -1.20175 -0.08105
# Poissons Ratio (y) = -1.20240 -0.08125
# Poissons Ratio (z) = -0.30836 -0.30893
#
# Static dielectric constant tensor:
#      x y z
#    x 1.722970 0.000000 0.000000 
#    y 0.000000 1.723060 0.000000 
#    z 0.000000 0.000000 1.714280 
# 
# From -- ./inp_files/511.got.cif
#   From: 2010.05.17/outbox.cif.g08.bks.cpg/sg113_cif.got.tgz:511.got - 2010.05.20 11:03:00.
