data_PCOD9555559
_publ_section_title
;
Structure prediction by ZEFSAII (Michael W. Deem and Ramdas Pophale) SiO2 
 PCOD9555559
Probable space group: P -4 21 M 
;
_chemical_formula_sum "Si O2"
_cell_formula_units_Z 46
_cell_length_a 18.615058
_cell_length_b 18.615058
_cell_length_c 6.953338
_cell_angle_alpha 90.000000
_cell_angle_beta 90.000000
_cell_angle_gamma 90.000000
_cell_volume 2409.473356
_symmetry_space_group_name_H-M "P -4 21 M "
_symmetry_group_IT_number 113
_symmetry_cell_setting 'tetragonal'
loop_
_space_group_symop_operation_xyz
x,y,z
y,-x,-z
-x,-y,z
-y,x,-z
1/2+x,1/2-y,-z
1/2-x,1/2+y,-z
1/2-y,1/2-x,z
1/2+y,1/2+x,z
loop_
_atom_site_type_symbol
_atom_site_label
_atom_site_fract_x
_atom_site_fract_y
_atom_site_fract_z
Si Si1 0.827514 0.506008 0.159307
Si Si2 0.267857 0.232144 0.435248
Si Si3 0.000016 0.797226 0.850636
Si Si4 0.764885 0.927721 0.537673
Si Si5 0.331052 0.831052 0.815254
Si Si6 0.500000 0.000000 0.895675
Si Si7 0.150787 0.122554 0.893193
Si Si8 0.738748 0.238748 0.130137
O O1 0.800733 0.452903 0.326768
O O2 0.814008 0.587216 0.233022
O O3 0.910922 0.499846 0.110835
O O4 0.776324 0.495866 0.974336
O O5 0.252962 0.147486 0.434889
O O6 0.223936 0.276065 0.279508
O O7 0.239260 0.260741 0.640378
O O8 0.015642 0.782815 0.627645
O O9 0.923533 0.834837 0.882311
O O10 0.062876 0.846285 0.942021
O O11 0.829343 0.914199 0.689276
O O12 0.317540 0.817540 0.041807
O O13 0.213421 0.181715 0.927919
#
# Coordination Sequence:
#
# PCOD9555559 Si02
#       8
#     8   4   8   8   4   2   8   4
#     4  10  23  39  63  93 130 168 206 260 319 375
#     4  10  22  36  61  90 117 162 204 252 308 366
#     4  11  23  41  64  92 127 164 217 258 313 382
#     4  10  23  38  62  92 128 165 205 264 310 375
#     4  11  20  34  63  91 116 162 213 251 306 369
#     4  10  22  46  64  92 140 166 202 268 322 382
#     4  10  23  40  63  91 126 163 209 263 316 370
#     4  10  19  38  61  86 121 152 202 253 308 356
#
# _framework density 19.091308000000001
#
# number of rings (size 3 to 8) (size 9 to 14) (size 15 to 20)
#    0.000    1.739    1.739    1.565    4.870    4.522 
#    0.000    3.478    0.000    0.000    0.000    0.000 
#    0.000    0.000    0.000    0.000    0.000    0.000 
#
# Total GULP energy -256237.909968 kJ/mol
# GULP energy per Si atom -5570.389347 kJ/mol
# Density = 1.904786 g / cm^3
# Si number density = 19.091308 Si / 1000 Ang^3
#
#
#
# Elastic Constant Matrix: (Units=GPa)
#
#
# Indices 1 2 3 4 5 6 
#
# 1 91.3583 63.3764 33.9833 0.0000 0.0000 0.0000
# 2 63.3764 91.3572 33.9847 0.0000 0.0000 0.0000
# 3 33.9833 33.9847 56.9370 0.0000 0.0000 0.0000
# 4 0.0000 0.0000 0.0000 19.0800 0.0000 0.0000
# 5 0.0000 0.0000 0.0000 0.0000 19.0804 0.0000
# 6 0.0000 0.0000 0.0000 0.0000 0.0000 35.5246
#
#
#
# Elastic Compliance Matrix: (Units=1/GPa)
#
#
# Indices 1 2 3 4 5 6 
#
# 1 0.022248 -0.013489 -0.005227 0.000000 0.000000 0.000000
# 2 -0.013489 0.022249 -0.005229 0.000000 0.000000 0.000000
# 3 -0.005227 -0.005229 0.023804 0.000000 0.000000 0.000000
# 4 0.000000 0.000000 0.000000 0.052411 0.000000 0.000000
# 5 0.000000 0.000000 0.000000 0.000000 0.052410 0.000000
# 6 0.000000 0.000000 0.000000 0.000000 0.000000 0.028149
#
#
# Mechanical properties :
#
#
# Convention : Reuss Voigt Hill
#
# Bulk Modulus (GPa) = 48.99500 55.81571 52.40535
# Shear Modulus (GPa) = 19.53381 21.95754 20.74567
#
# Velocity S-wave (km/s) = 3.20219 3.39504 3.30002
# Velocity P-wave (km/s) = 6.27624 6.68342 6.48303
#
# Compressibility (1/GPa) = 0.02041024
#
# Stress axis : x y z
#
# Youngs Moduli (GPa) = 44.94746 44.94572 42.00925
#
# Poissons Ratio (x) = 0.60629 0.21960
# Poissons Ratio (y) = 0.60632 0.21966
# Poissons Ratio (z) = 0.23496 0.23501
#
# Static dielectric constant tensor:
#      x y z
#    x 1.664440 0.000000 0.000000 
#    y 0.000000 1.664450 0.000000 
#    z 0.000000 0.000000 1.676870 
# 
# From -- ./inp_files/1235.got.cif
#   From: 2010.05.17/outbox.cif.g08.bks.cpg/sg113_cif.got.tgz:1235.got - 2010.05.20 11:03:00.
