data_PCOD9555065
_publ_section_title
;
Structure prediction by ZEFSAII (Michael W. Deem and Ramdas Pophale) SiO2 
 PCOD9555065
Probable space group: P -4 2 C
;
_chemical_formula_sum "Si O2"
_cell_formula_units_Z 58
_cell_length_a 18.866108
_cell_length_b 18.866108
_cell_length_c 9.115024
_cell_angle_alpha 90.000000
_cell_angle_beta 90.000000
_cell_angle_gamma 90.000000
_cell_volume 3244.310776
_symmetry_space_group_name_H-M "P -4 2 C"
_symmetry_group_IT_number 112
_symmetry_cell_setting 'tetragonal'
loop_
_space_group_symop_operation_xyz
x,y,z
y,-x,-z
-x,-y,z
-y,x,-z
x,-y,1/2-z
-x,y,1/2-z
-y,-x,1/2+z
y,x,1/2+z
loop_
_atom_site_type_symbol
_atom_site_label
_atom_site_fract_x
_atom_site_fract_y
_atom_site_fract_z
Si Si1 0.308923 0.423833 0.322479
Si Si2 0.000000 0.000000 0.500000
Si Si3 0.097465 0.083286 0.297233
Si Si4 0.425787 0.324814 0.168742
Si Si5 0.678407 0.797827 0.200516
Si Si6 0.206689 0.299139 0.357222
Si Si7 0.238607 0.074561 0.679926
Si Si8 0.260676 0.072188 0.342920
O O1 0.299502 0.500000 0.250000
O O2 0.368467 0.379906 0.233498
O O3 0.331813 0.430821 0.492883
O O4 0.237023 0.377160 0.320862
O O5 0.964648 0.931553 0.417404
O O6 0.081945 0.152282 0.196810
O O7 0.178796 0.098565 0.335844
O O8 0.099138 0.000000 0.250000
O O9 0.500000 0.334713 0.250000
O O10 0.394262 0.246138 0.199220
O O11 0.731812 0.752543 0.300418
O O12 0.683478 0.875077 0.269006
O O13 0.705768 0.801098 0.032693
O O14 0.136972 0.275193 0.271936
O O15 0.269006 0.070174 0.516645
O O16 0.255752 0.000000 0.750000
O O17 0.263364 0.000000 0.250000
#
# Coordination Sequence:
#
# PCOD9555065 Si02
#       8
#     8   2   8   8   8   8   8   8
#     4  10  21  38  61  90 124 157 187 224 267 327
#     4  12  22  36  48  70 106 148 192 250 294 356
#     4  11  22  34  49  71 105 144 192 236 293 341
#     4  10  21  37  61  92 123 156 189 224 268 325
#     4  10  20  37  57  80 112 147 188 233 279 333
#     4  10  21  36  57  82 110 146 189 231 281 332
#     4  12  23  35  54  77 107 145 192 245 295 343
#     4  11  23  36  54  75 105 146 190 240 292 342
#
# _framework density 17.87745
#
# number of rings (size 3 to 8) (size 9 to 14) (size 15 to 20)
#    0.000    1.379    1.379    5.172    0.000    5.793 
#    0.000    1.379    0.000    0.828    0.000    5.793 
#    0.000    0.000    0.000    0.000    0.000    0.000 
#
# Total GULP energy -323144.689524 kJ/mol
# GULP energy per Si atom -5571.460164 kJ/mol
# Density = 1.783676 g / cm^3
# Si number density = 17.877450 Si / 1000 Ang^3
#
#
#
# Elastic Constant Matrix: (Units=GPa)
#
#
# Indices 1 2 3 4 5 6 
#
# 1 75.0682 27.1939 35.4980 0.0000 0.0000 0.0000
# 2 27.1939 75.0682 35.4980 0.0000 0.0000 0.0000
# 3 35.4980 35.4980 112.5374 0.0000 0.0000 0.0000
# 4 0.0000 0.0000 0.0000 26.9163 0.0000 0.0000
# 5 0.0000 0.0000 0.0000 0.0000 26.9163 0.0000
# 6 0.0000 0.0000 0.0000 0.0000 0.0000 11.0910
#
#
#
# Elastic Compliance Matrix: (Units=1/GPa)
#
#
# Indices 1 2 3 4 5 6 
#
# 1 0.016704 -0.004184 -0.003949 0.000000 0.000000 0.000000
# 2 -0.004184 0.016704 -0.003949 0.000000 0.000000 0.000000
# 3 -0.003949 -0.003949 0.011378 0.000000 0.000000 0.000000
# 4 0.000000 0.000000 0.000000 0.037152 0.000000 0.000000
# 5 0.000000 0.000000 0.000000 0.000000 0.037152 0.000000
# 6 0.000000 0.000000 0.000000 0.000000 0.000000 0.090163
#
#
# Mechanical properties :
#
#
# Convention : Reuss Voigt Hill
#
# Bulk Modulus (GPa) = 48.49388 51.00595 49.74991
# Shear Modulus (GPa) = 20.80795 23.95033 22.37914
#
# Velocity S-wave (km/s) = 3.41533 3.66416 3.54193
# Velocity P-wave (km/s) = 6.53737 6.81867 6.67950
#
# Compressibility (1/GPa) = 0.02062116
#
# Stress axis : x y z
#
# Youngs Moduli (GPa) = 59.86459 59.86459 87.89269
#
# Poissons Ratio (x) = 0.25045 0.34713
# Poissons Ratio (y) = 0.25045 0.34713
# Poissons Ratio (z) = 0.23643 0.23643
#
# Static dielectric constant tensor:
#      x y z
#    x 1.606880 0.000000 0.000000 
#    y 0.000000 1.606880 0.000000 
#    z 0.000000 0.000000 1.706400 
# 
# From -- ./inp_files/1539.got.cif
#   From: 2010.05.17/outbox.cif.g08.bks.cpg/sg112_1_cif.got.tgz:1539.got - 2010.05.20 10:59:04.
