data_PCOD9555146
_publ_section_title
;
Structure prediction by ZEFSAII (Michael W. Deem and Ramdas Pophale) SiO2 
 PCOD9555146
Probable space group: P -4 2 C
;
_chemical_formula_sum "Si O2"
_cell_formula_units_Z 40
_cell_length_a 9.794452
_cell_length_b 9.794452
_cell_length_c 19.445334
_cell_angle_alpha 90.000000
_cell_angle_beta 90.000000
_cell_angle_gamma 90.000000
_cell_volume 1865.415975
_symmetry_space_group_name_H-M "P -4 2 C"
_symmetry_group_IT_number 112
_symmetry_cell_setting 'tetragonal'
loop_
_space_group_symop_operation_xyz
x,y,z
y,-x,-z
-x,-y,z
-y,x,-z
x,-y,1/2-z
-x,y,1/2-z
-y,-x,1/2+z
y,x,1/2+z
loop_
_atom_site_type_symbol
_atom_site_label
_atom_site_fract_x
_atom_site_fract_y
_atom_site_fract_z
Si Si1 0.997357 0.656256 0.831964
Si Si2 0.804760 0.085250 0.682045
Si Si3 0.849859 0.463884 0.133480
Si Si4 0.340134 0.643653 0.014000
Si Si5 0.818334 0.754042 0.106840
O O1 0.884166 0.777607 0.839246
O O2 0.000000 0.500000 0.859610
O O3 0.000000 0.643549 0.750000
O O4 0.131418 0.723163 0.862672
O O5 0.645982 0.124833 0.692309
O O6 0.850705 0.000000 0.750000
O O7 0.802206 0.973279 0.620725
O O8 0.793771 0.613159 0.148385
O O9 0.000000 0.500000 0.102593
O O10 0.751044 0.390771 0.079424
O O11 0.282588 0.769540 0.969959
O O12 0.500721 0.666017 0.029154
#
# Coordination Sequence:
#
# PCOD9555146 Si02
#       5
#     8   8   8   8   8
#     4  11  24  41  62  92 128 171 219 270 331 397
#     4  11  22  42  66  91 131 170 212 272 330 395
#     4   9  21  39  63  95 127 166 218 268 326 393
#     4   9  19  38  63  91 130 170 214 273 333 393
#     4  10  21  39  66  93 122 174 215 257 339 398
#
# _framework density 21.44294
#
# number of rings (size 3 to 8) (size 9 to 14) (size 15 to 20)
#    0.000    2.000    2.000    0.600    2.800    4.400 
#    7.200    0.000    0.000    2.400    0.000    0.000 
#    0.000    0.000    0.000    0.000    0.000    0.000 
#
# Total GULP energy -222759.664459 kJ/mol
# GULP energy per Si atom -5568.991611 kJ/mol
# Density = 2.139413 g / cm^3
# Si number density = 21.442940 Si / 1000 Ang^3
#
#
#
# Elastic Constant Matrix: (Units=GPa)
#
#
# Indices 1 2 3 4 5 6 
#
# 1 153.8949 66.3061 20.8657 0.0000 0.0000 0.0000
# 2 66.3061 153.8949 20.8657 0.0000 0.0000 0.0000
# 3 20.8657 20.8657 30.9395 0.0000 0.0000 0.0000
# 4 0.0000 0.0000 0.0000 26.9809 0.0000 0.0000
# 5 0.0000 0.0000 0.0000 0.0000 26.9809 0.0000
# 6 0.0000 0.0000 0.0000 0.0000 0.0000 31.1284
#
#
#
# Elastic Compliance Matrix: (Units=1/GPa)
#
#
# Indices 1 2 3 4 5 6 
#
# 1 0.008312 -0.003105 -0.003511 0.000000 0.000000 0.000000
# 2 -0.003105 0.008312 -0.003511 0.000000 0.000000 0.000000
# 3 -0.003511 -0.003511 0.037057 0.000000 0.000000 0.000000
# 4 0.000000 0.000000 0.000000 0.037063 0.000000 0.000000
# 5 0.000000 0.000000 0.000000 0.000000 0.037063 0.000000
# 6 0.000000 0.000000 0.000000 0.000000 0.000000 0.032125
#
#
# Mechanical properties :
#
#
# Convention : Reuss Voigt Hill
#
# Bulk Modulus (GPa) = 29.91759 61.64491 45.78125
# Shear Modulus (GPa) = 26.13279 32.39750 29.26514
#
# Velocity S-wave (km/s) = 3.49479 3.89121 3.69832
# Velocity P-wave (km/s) = 5.50157 6.99996 6.29550
#
# Compressibility (1/GPa) = 0.03342515
#
# Stress axis : x y z
#
# Youngs Moduli (GPa) = 120.30974 120.30974 26.98513
#
# Poissons Ratio (x) = 0.37357 0.09476
# Poissons Ratio (y) = 0.37357 0.09476
# Poissons Ratio (z) = 0.42246 0.42246
#
# Static dielectric constant tensor:
#      x y z
#    x 1.828270 0.000000 0.000000 
#    y 0.000000 1.828270 0.000000 
#    z 0.000000 0.000000 1.731340 
# 
# From -- ./inp_files/5298.got.cif
#   From: 2010.05.17/outbox.cif.g08.bks.cpg/sg112_3_cif.got.tgz:5298.got - 2010.05.20 10:59:04.
