data_PCOD9555483
_publ_section_title
;
Structure prediction by ZEFSAII (Michael W. Deem and Ramdas Pophale) SiO2 
 PCOD9555483
Probable space group: P -4 21 M 
;
_chemical_formula_sum "Si O2"
_cell_formula_units_Z 40
_cell_length_a 13.507397
_cell_length_b 13.507397
_cell_length_c 12.679232
_cell_angle_alpha 90.000000
_cell_angle_beta 90.000000
_cell_angle_gamma 90.000000
_cell_volume 2313.323009
_symmetry_space_group_name_H-M "P -4 21 M "
_symmetry_group_IT_number 113
_symmetry_cell_setting 'tetragonal'
loop_
_space_group_symop_operation_xyz
x,y,z
y,-x,-z
-x,-y,z
-y,x,-z
1/2+x,1/2-y,-z
1/2-x,1/2+y,-z
1/2-y,1/2-x,z
1/2+y,1/2+x,z
loop_
_atom_site_type_symbol
_atom_site_label
_atom_site_fract_x
_atom_site_fract_y
_atom_site_fract_z
Si Si1 0.297812 0.632513 0.569236
Si Si2 0.750275 0.088759 0.393906
Si Si3 0.551124 0.389785 0.759118
Si Si4 0.382684 0.385124 0.017879
Si Si5 0.686015 0.341125 0.204706
O O1 0.215764 0.715764 0.596232
O O2 0.249749 0.523642 0.567411
O O3 0.349959 0.668714 0.461719
O O4 0.385994 0.622244 0.654252
O O5 0.647138 0.147138 0.406408
O O6 0.785700 0.100842 0.272589
O O7 0.500000 0.500000 0.770674
O O8 0.622961 0.364713 0.857737
O O9 0.455946 0.319032 0.765545
O O10 0.365564 0.501003 0.996097
O O11 0.331589 0.329983 0.920965
O O12 0.786674 0.286674 0.235456
#
# Coordination Sequence:
#
# PCOD9555483 Si02
#       5
#     8   8   8   8   8
#     4  11  23  36  56  85 111 145 192 232 278 338
#     4  10  21  36  54  80 114 147 186 231 280 333
#     4  11  18  33  57  80 109 142 182 236 280 322
#     4   9  14  27  48  73 100 137 175 223 273 319
#     4  10  19  31  51  81 109 142 182 226 283 335
#
# _framework density 17.291143999999999
#
# number of rings (size 3 to 8) (size 9 to 14) (size 15 to 20)
#    0.000    1.800    6.000    1.200    0.000    1.200 
#    0.000    0.000    0.000    1.800    0.000    0.000 
#    0.000    0.000    0.000    0.000    0.000    0.000 
#
# Total GULP energy -222705.194306 kJ/mol
# GULP energy per Si atom -5567.629858 kJ/mol
# Density = 1.725179 g / cm^3
# Si number density = 17.291144 Si / 1000 Ang^3
#
#
#
# Elastic Constant Matrix: (Units=GPa)
#
#
# Indices 1 2 3 4 5 6 
#
# 1 71.4148 36.2737 20.2793 0.0000 0.0000 0.0000
# 2 36.2737 71.4148 20.2793 0.0000 0.0000 0.0000
# 3 20.2793 20.2793 78.6376 0.0000 0.0000 0.0000
# 4 0.0000 0.0000 0.0000 20.6182 0.0000 0.0000
# 5 0.0000 0.0000 0.0000 0.0000 20.6182 0.0000
# 6 0.0000 0.0000 0.0000 0.0000 0.0000 27.6220
#
#
#
# Elastic Compliance Matrix: (Units=1/GPa)
#
#
# Indices 1 2 3 4 5 6 
#
# 1 0.019371 -0.009086 -0.002652 0.000000 0.000000 0.000000
# 2 -0.009086 0.019371 -0.002652 0.000000 0.000000 0.000000
# 3 -0.002652 -0.002652 0.014085 0.000000 0.000000 0.000000
# 4 0.000000 0.000000 0.000000 0.048501 0.000000 0.000000
# 5 0.000000 0.000000 0.000000 0.000000 0.048501 0.000000
# 6 0.000000 0.000000 0.000000 0.000000 0.000000 0.036203
#
#
# Mechanical properties :
#
#
# Convention : Reuss Voigt Hill
#
# Bulk Modulus (GPa) = 41.58834 41.68134 41.63484
# Shear Modulus (GPa) = 22.43895 23.41402 22.92649
#
# Velocity S-wave (km/s) = 3.60629 3.68381 3.64525
# Velocity P-wave (km/s) = 6.43774 6.50014 6.46901
#
# Compressibility (1/GPa) = 0.02404520
#
# Stress axis : x y z
#
# Youngs Moduli (GPa) = 51.62403 51.62403 70.99984
#
# Poissons Ratio (x) = 0.46905 0.18831
# Poissons Ratio (y) = 0.46905 0.18831
# Poissons Ratio (z) = 0.13692 0.13692
#
# Static dielectric constant tensor:
#      x y z
#    x 1.576390 0.000000 0.000000 
#    y 0.000000 1.576390 0.000000 
#    z 0.000000 0.000000 1.636030 
# 
# From -- ./inp_files/1727.got.cif
#   From: 2010.05.17/outbox.cif.g08.bks.cpg/sg113_cif.got.tgz:1727.got - 2010.05.20 11:03:00.
