data_PCOD9555871
_publ_section_title
;
Structure prediction by ZEFSAII (Michael W. Deem and Ramdas Pophale) SiO2 
 PCOD9555871
Probable space group: P -4 21 C
;
_chemical_formula_sum "Si O2"
_cell_formula_units_Z 48
_cell_length_a 13.228791
_cell_length_b 13.228791
_cell_length_c 11.007905
_cell_angle_alpha 90.000000
_cell_angle_beta 90.000000
_cell_angle_gamma 90.000000
_cell_volume 1926.393407
_symmetry_space_group_name_H-M "P -4 21 C"
_symmetry_group_IT_number 114
_symmetry_cell_setting 'tetragonal'
loop_
_space_group_symop_operation_xyz
x,y,z
y,-x,-z
-x,-y,z
-y,x,-z
1/2+x,1/2-y,1/2-z
1/2-x,1/2+y,1/2-z
1/2-y,1/2-x,1/2+z
1/2+y,1/2+x,1/2+z
loop_
_atom_site_type_symbol
_atom_site_label
_atom_site_fract_x
_atom_site_fract_y
_atom_site_fract_z
Si Si1 0.220695 0.860452 0.779590
Si Si2 0.482001 0.138403 0.244327
Si Si3 0.347325 0.327779 0.230067
Si Si4 0.086788 0.238958 0.966975
Si Si5 0.694255 0.670898 0.975321
Si Si6 0.399879 0.114533 0.493571
O O1 0.241598 0.740679 0.779830
O O2 0.165260 0.878701 0.652175
O O3 0.336880 0.902478 0.771845
O O4 0.177044 0.896256 0.907825
O O5 0.442127 0.255094 0.250038
O O6 0.430525 0.081511 0.356930
O O7 0.458835 0.100223 0.109982
O O8 0.324345 0.397058 0.345011
O O9 0.342482 0.380579 0.099070
O O10 0.183634 0.315823 0.972506
O O11 0.981945 0.298879 0.974209
O O12 0.652655 0.785341 0.980845
#
# Coordination Sequence:
#
# PCOD9555871 Si02
#       6
#     8   8   8   8   8   8
#     4   9  17  30  51  77 103 139 179 215 271 324
#     4  10  19  31  51  80 105 137 183 218 267 329
#     4   9  17  32  51  71 104 136 175 219 263 323
#     4   9  17  30  51  76 101 142 174 219 269 320
#     4   9  17  32  51  70 103 142 171 218 269 319
#     4  10  19  31  51  79 107 137 182 221 266 331
#
# _framework density 24.917027999999998
#
# number of rings (size 3 to 8) (size 9 to 14) (size 15 to 20)
#    0.000    2.667    3.333    0.000    0.000    1.333 
#    0.000    3.333    0.000   18.500    0.000    0.000 
#    0.000    0.000    0.000    0.000    0.000    0.000 
#
# Total GULP energy -267880.420667 kJ/mol
# GULP energy per Si atom -5580.842097 kJ/mol
# Density = 2.486032 g / cm^3
# Si number density = 24.917028 Si / 1000 Ang^3
#
#
#
# Elastic Constant Matrix: (Units=GPa)
#
#
# Indices 1 2 3 4 5 6 
#
# 1 45.6316 29.8626 24.4388 0.0000 0.0000 0.0000
# 2 29.8626 45.6316 24.4388 0.0000 0.0000 0.0000
# 3 24.4388 24.4388 246.4709 0.0000 0.0000 0.0000
# 4 0.0000 0.0000 0.0000 -33.0537 0.0000 0.0000
# 5 0.0000 0.0000 0.0000 0.0000 -33.0537 0.0000
# 6 0.0000 0.0000 0.0000 0.0000 0.0000 18.9903
#
#
#
# Elastic Compliance Matrix: (Units=1/GPa)
#
#
# Indices 1 2 3 4 5 6 
#
# 1 0.038785 -0.024630 -0.001404 0.000000 0.000000 0.000000
# 2 -0.024630 0.038785 -0.001404 0.000000 0.000000 0.000000
# 3 -0.001404 -0.001404 0.004336 0.000000 0.000000 0.000000
# 4 0.000000 0.000000 0.000000 -0.030254 0.000000 0.000000
# 5 0.000000 0.000000 0.000000 0.000000 -0.030254 0.000000
# 6 0.000000 0.000000 0.000000 0.000000 0.000000 0.052659
#
#
# Mechanical properties :
#
#
# Convention : Reuss Voigt Hill
#
# Bulk Modulus (GPa) = 36.99452 55.02382 46.00917
# Shear Modulus (GPa) = 36.24709 7.84283 22.04496
#
# Velocity S-wave (km/s) = 3.81821 1.77607 2.97768
# Velocity P-wave (km/s) = 5.85812 5.13192 5.50701
#
# Compressibility (1/GPa) = 0.02703103
#
# Stress axis : x y z
#
# Youngs Moduli (GPa) = 25.78307 25.78307 230.64844
#
# Poissons Ratio (x) = 0.63505 0.32372
# Poissons Ratio (y) = 0.63505 0.32372
# Poissons Ratio (z) = 0.03619 0.03619
#
# Static dielectric constant tensor:
#      x y z
#    x 1.947920 0.000000 0.000000 
#    y 0.000000 1.947920 0.000000 
#    z 0.000000 0.000000 2.111690 
# 
# From -- ./inp_files/1658.got.cif
#   From: 2010.05.17/outbox.cif.g08.bks.cpg/sg114_1_cif.got.tgz:1658.got - 2010.05.20 11:04:54.
