data_PCOD9555870
_publ_section_title
;
Structure prediction by ZEFSAII (Michael W. Deem and Ramdas Pophale) SiO2 
 PCOD9555870
Probable space group: P -4 21 C
;
_chemical_formula_sum "Si O2"
_cell_formula_units_Z 48
_cell_length_a 13.981384
_cell_length_b 13.981384
_cell_length_c 9.265565
_cell_angle_alpha 90.000000
_cell_angle_beta 90.000000
_cell_angle_gamma 90.000000
_cell_volume 1811.224294
_symmetry_space_group_name_H-M "P -4 21 C"
_symmetry_group_IT_number 114
_symmetry_cell_setting 'tetragonal'
loop_
_space_group_symop_operation_xyz
x,y,z
y,-x,-z
-x,-y,z
-y,x,-z
1/2+x,1/2-y,1/2-z
1/2-x,1/2+y,1/2-z
1/2-y,1/2-x,1/2+z
1/2+y,1/2+x,1/2+z
loop_
_atom_site_type_symbol
_atom_site_label
_atom_site_fract_x
_atom_site_fract_y
_atom_site_fract_z
Si Si1 0.570343 0.825173 0.185200
Si Si2 0.221929 0.189921 0.241104
Si Si3 0.500000 0.000000 0.528856
Si Si4 0.861054 0.625618 0.662364
Si Si5 0.175293 0.948422 0.558005
Si Si6 0.197670 0.965916 0.223665
Si Si7 0.500000 0.500000 0.731619
O O1 0.666053 0.793491 0.263374
O O2 0.476814 0.824793 0.282998
O O3 0.539255 0.746231 0.069600
O O4 0.570290 0.932960 0.122488
O O5 0.179952 0.262870 0.121489
O O6 0.151861 0.210313 0.375261
O O7 0.218475 0.078166 0.203388
O O8 0.583729 0.056778 0.442877
O O9 0.908091 0.701584 0.776720
O O10 0.166456 0.939774 0.388124
O O11 0.085277 0.967533 0.660533
O O12 0.093168 0.958276 0.147450
#
# Coordination Sequence:
#
# PCOD9555870 Si02
#       7
#     8   8   4   8   8   8   4
#     4  11  23  41  64  95 133 177 228 286 347 421
#     4  10  23  38  63  97 135 166 230 289 338 419
#     4  12  22  42  66  90 138 194 220 280 362 430
#     4  11  24  42  65  99 137 179 235 290 355 430
#     4  10  20  36  60  92 125 173 214 277 347 410
#     4  11  19  38  60  93 132 172 222 278 351 418
#     4  10  19  30  58  86 122 157 214 273 326 406
#
# _framework density 26.501411999999998
#
# number of rings (size 3 to 8) (size 9 to 14) (size 15 to 20)
#    0.000    1.333    1.667    6.000    0.000    0.000 
#    0.000    0.000    0.000    2.000    0.000    0.000 
#    0.000    0.000    0.000    0.000    0.000    0.000 
#
# Total GULP energy -267514.648027 kJ/mol
# GULP energy per Si atom -5573.221834 kJ/mol
# Density = 2.644109 g / cm^3
# Si number density = 26.501412 Si / 1000 Ang^3
#
#
#
# Elastic Constant Matrix: (Units=GPa)
#
#
# Indices 1 2 3 4 5 6 
#
# 1 201.2787 61.1683 23.4372 0.0000 0.0000 0.0000
# 2 61.1683 201.2787 23.4372 0.0000 0.0000 0.0000
# 3 23.4372 23.4372 13.0213 0.0000 0.0000 0.0000
# 4 0.0000 0.0000 0.0000 27.5346 0.0000 0.0000
# 5 0.0000 0.0000 0.0000 0.0000 27.5346 0.0000
# 6 0.0000 0.0000 0.0000 0.0000 0.0000 60.3773
#
#
#
# Elastic Compliance Matrix: (Units=1/GPa)
#
#
# Indices 1 2 3 4 5 6 
#
# 1 0.006376 -0.000761 -0.010107 0.000000 0.000000 0.000000
# 2 -0.000761 0.006376 -0.010107 0.000000 0.000000 0.000000
# 3 -0.010107 -0.010107 0.113182 0.000000 0.000000 0.000000
# 4 0.000000 0.000000 0.000000 0.036318 0.000000 0.000000
# 5 0.000000 0.000000 0.000000 0.000000 0.036318 0.000000
# 6 0.000000 0.000000 0.000000 0.000000 0.000000 0.016563
#
#
# Mechanical properties :
#
#
# Convention : Reuss Voigt Hill
#
# Bulk Modulus (GPa) = 11.90715 70.18489 41.04602
# Shear Modulus (GPa) = 17.53902 43.59173 30.56537
#
# Velocity S-wave (km/s) = 2.57537 4.06012 3.39978
# Velocity P-wave (km/s) = 3.65324 6.96565 5.56177
#
# Compressibility (1/GPa) = 0.08398313
#
# Stress axis : x y z
#
# Youngs Moduli (GPa) = 156.82880 156.82880 8.83535
#
# Poissons Ratio (x) = 0.11932 0.08930
# Poissons Ratio (y) = 0.11932 0.08930
# Poissons Ratio (z) = 1.58514 1.58514
#
# Static dielectric constant tensor:
#      x y z
#    x 2.251710 0.000000 0.000000 
#    y 0.000000 2.251710 0.000000 
#    z 0.000000 0.000000 2.181240 
# 
# From -- ./inp_files/1707.got.cif
#   From: 2010.05.17/outbox.cif.g08.bks.cpg/sg114_1_cif.got.tgz:1707.got - 2010.05.20 11:04:54.
