data_PCOD9555423
_publ_section_title
;
Structure prediction by ZEFSAII (Michael W. Deem and Ramdas Pophale) SiO2 
 PCOD9555423
Probable space group: P -4 2 C
;
_chemical_formula_sum "Si O2"
_cell_formula_units_Z 20
_cell_length_a 5.373991
_cell_length_b 5.373991
_cell_length_c 28.069324
_cell_angle_alpha 90.000000
_cell_angle_beta 90.000000
_cell_angle_gamma 90.000000
_cell_volume 810.635881
_symmetry_space_group_name_H-M "P -4 2 C"
_symmetry_group_IT_number 112
_symmetry_cell_setting 'tetragonal'
loop_
_space_group_symop_operation_xyz
x,y,z
y,-x,-z
-x,-y,z
-y,x,-z
x,-y,1/2-z
-x,y,1/2-z
-y,-x,1/2+z
y,x,1/2+z
loop_
_atom_site_type_symbol
_atom_site_label
_atom_site_fract_x
_atom_site_fract_y
_atom_site_fract_z
Si Si1 0.500000 0.500000 0.500000
Si Si2 0.000000 0.500000 0.250000
Si Si3 0.758616 0.152005 0.567830
Si Si4 0.344438 0.754081 0.174212
O O1 0.710023 0.389333 0.534584
O O2 0.842923 0.320632 0.215805
O O3 0.800465 0.223451 0.622835
O O4 0.500000 0.000000 0.565528
O O5 0.000000 0.000000 0.552691
O O6 0.500000 0.500000 0.168035
O O7 0.500000 0.000000 0.186481
#
# Coordination Sequence:
#
# PCOD9555423 Si02
#       4
#     2   2   8   8
#     4  12  32  52  84 122 164 216 288 360 416 526
#     4  12  30  54  80 128 164 226 278 358 436 506
#     4  12  29  54  85 122 169 223 280 356 438 518
#     4  12  28  54  83 119 168 219 282 349 427 520
#
# _framework density 24.671987999999999
#
# number of rings (size 3 to 8) (size 9 to 14) (size 15 to 20)
#    0.000    0.000    4.000    3.000    5.600    4.800 
#    0.000    0.000    0.000    0.000    0.000    0.000 
#    0.000    0.000    0.000    0.000    0.000    0.000 
#
# Total GULP energy -112332.768596 kJ/mol
# GULP energy per Si atom -5616.638430 kJ/mol
# Density = 2.461583 g / cm^3
# Si number density = 24.671988 Si / 1000 Ang^3
#
#
#
# Elastic Constant Matrix: (Units=GPa)
#
#
# Indices 1 2 3 4 5 6 
#
# 1 170.2058 96.5761 78.2920 0.0000 0.0000 0.0000
# 2 96.5761 170.2058 78.2920 0.0000 0.0000 0.0000
# 3 78.2920 78.2920 228.9757 0.0000 0.0000 0.0000
# 4 0.0000 0.0000 0.0000 -8.2652 0.0000 0.0000
# 5 0.0000 0.0000 0.0000 0.0000 -8.2652 0.0000
# 6 0.0000 0.0000 0.0000 0.0000 0.0000 50.5841
#
#
#
# Elastic Compliance Matrix: (Units=1/GPa)
#
#
# Indices 1 2 3 4 5 6 
#
# 1 0.009135 -0.004446 -0.001603 0.000000 0.000000 0.000000
# 2 -0.004446 0.009135 -0.001603 0.000000 0.000000 0.000000
# 3 -0.001603 -0.001603 0.005464 0.000000 0.000000 0.000000
# 4 0.000000 0.000000 0.000000 -0.120989 0.000000 0.000000
# 5 0.000000 0.000000 0.000000 0.000000 -0.120989 0.000000
# 6 0.000000 0.000000 0.000000 0.000000 0.000000 0.019769
#
#
# Mechanical properties :
#
#
# Convention : Reuss Voigt Hill
#
# Bulk Modulus (GPa) = 118.63806 119.52308 119.08057
# Shear Modulus (GPa) = -27.72241 27.89256 0.08507
#
# Velocity S-wave (km/s) = -3.35571 3.36599 0.18589
# Velocity P-wave (km/s) = 5.75987 7.97851 6.95819
#
# Compressibility (1/GPa) = 0.00842900
#
# Stress axis : x y z
#
# Youngs Moduli (GPa) = 109.46320 109.46320 183.02327
#
# Poissons Ratio (x) = 0.48667 0.29347
# Poissons Ratio (y) = 0.48667 0.29347
# Poissons Ratio (z) = 0.17552 0.17552
#
# Static dielectric constant tensor:
#      x y z
#    x 1.949350 0.000000 0.000000 
#    y 0.000000 1.949350 0.000000 
#    z 0.000000 0.000000 1.966990 
# 
# From -- ./inp_files/5649.got.cif
#   From: 2010.05.17/outbox.cif.g08.bks.cpg/sg112_3_cif.got.tgz:5649.got - 2010.05.20 10:59:04.
