data_PCOD9555038
_publ_section_title
;
Structure prediction by ZEFSAII (Michael W. Deem and Ramdas Pophale) SiO2 
 PCOD9555038
Probable space group: P -4 2 C
;
_chemical_formula_sum "Si O2"
_cell_formula_units_Z 52
_cell_length_a 22.417036
_cell_length_b 22.417036
_cell_length_c 5.706469
_cell_angle_alpha 90.000000
_cell_angle_beta 90.000000
_cell_angle_gamma 90.000000
_cell_volume 2867.634792
_symmetry_space_group_name_H-M "P -4 2 C"
_symmetry_group_IT_number 112
_symmetry_cell_setting 'tetragonal'
loop_
_space_group_symop_operation_xyz
x,y,z
y,-x,-z
-x,-y,z
-y,x,-z
x,-y,1/2-z
-x,y,1/2-z
-y,-x,1/2+z
y,x,1/2+z
loop_
_atom_site_type_symbol
_atom_site_label
_atom_site_fract_x
_atom_site_fract_y
_atom_site_fract_z
Si Si1 0.384296 0.866823 0.492127
Si Si2 0.717886 0.069338 0.224932
Si Si3 0.557278 0.226277 0.133009
Si Si4 0.500000 0.860799 0.750000
Si Si5 0.836964 0.857637 0.195312
Si Si6 0.159419 0.282571 0.150984
Si Si7 0.676834 0.723835 0.440983
O O1 0.344036 0.913881 0.351522
O O2 0.410599 0.816177 0.322992
O O3 0.443327 0.892369 0.624295
O O4 0.335044 0.836263 0.660574
O O5 0.774484 0.107038 0.321612
O O6 0.729871 0.000000 0.250000
O O7 0.713231 0.093670 0.959999
O O8 0.500000 0.255854 0.250000
O O9 0.532841 0.181885 0.935662
O O10 0.605798 0.271799 0.042133
O O11 0.865359 0.872541 0.450659
O O12 0.828828 0.785694 0.219598
O O13 0.208521 0.298357 0.956542
O O14 0.694428 0.699619 0.184073
#
# Coordination Sequence:
#
# PCOD9555038 Si02
#       7
#     8   8   8   4   8   8   8
#     4  11  19  38  55  82 109 157 208 246 298 354
#     4  11  23  36  55  84 121 156 202 257 305 355
#     4  10  22  35  56  81 117 162 199 241 295 360
#     4  10  20  34  60  77 110 158 209 242 294 358
#     4  10  20  36  57  84 116 157 187 237 309 377
#     4  11  21  35  57  83 118 154 190 249 307 371
#     4  12  23  34  58  93 121 149 196 245 302 369
#
# _framework density 18.133410999999999
#
# number of rings (size 3 to 8) (size 9 to 14) (size 15 to 20)
#    0.000    1.231    4.615    2.769    2.154    0.615 
#    0.000    0.000    0.000   18.923    0.000    0.000 
#    0.000   31.385    0.000    0.000    0.000    0.000 
#
# Total GULP energy -289741.160774 kJ/mol
# GULP energy per Si atom -5571.945400 kJ/mol
# Density = 1.809214 g / cm^3
# Si number density = 18.133411 Si / 1000 Ang^3
#
#
#
# Elastic Constant Matrix: (Units=GPa)
#
#
# Indices 1 2 3 4 5 6 
#
# 1 76.8365 48.8488 37.4512 0.0000 0.0000 0.0000
# 2 48.8488 76.8365 37.4512 0.0000 0.0000 0.0000
# 3 37.4512 37.4512 102.5585 0.0000 0.0000 0.0000
# 4 0.0000 0.0000 0.0000 12.3136 0.0000 0.0000
# 5 0.0000 0.0000 0.0000 0.0000 12.3136 0.0000
# 6 0.0000 0.0000 0.0000 0.0000 0.0000 8.7650
#
#
#
# Elastic Compliance Matrix: (Units=1/GPa)
#
#
# Indices 1 2 3 4 5 6 
#
# 1 0.022950 -0.012780 -0.003714 0.000000 0.000000 0.000000
# 2 -0.012780 0.022950 -0.003714 0.000000 0.000000 0.000000
# 3 -0.003714 -0.003714 0.012463 0.000000 0.000000 0.000000
# 4 0.000000 0.000000 0.000000 0.081211 0.000000 0.000000
# 5 0.000000 0.000000 0.000000 0.000000 0.081211 0.000000
# 6 0.000000 0.000000 0.000000 0.000000 0.000000 0.114090
#
#
# Mechanical properties :
#
#
# Convention : Reuss Voigt Hill
#
# Bulk Modulus (GPa) = 55.71849 55.97041 55.84445
# Shear Modulus (GPa) = 13.11399 15.51045 14.31222
#
# Velocity S-wave (km/s) = 2.69215 2.92781 2.81245
# Velocity P-wave (km/s) = 6.36060 6.50864 6.43504
#
# Compressibility (1/GPa) = 0.01794736
#
# Stress axis : x y z
#
# Youngs Moduli (GPa) = 43.57337 43.57337 80.23945
#
# Poissons Ratio (x) = 0.55688 0.29798
# Poissons Ratio (y) = 0.55688 0.29798
# Poissons Ratio (z) = 0.16181 0.16181
#
# Static dielectric constant tensor:
#      x y z
#    x 1.622050 0.000000 0.000000 
#    y 0.000000 1.622050 0.000000 
#    z 0.000000 0.000000 1.757030 
# 
# From -- ./inp_files/406.got.cif
#   From: 2010.05.17/outbox.cif.g08.bks.cpg/sg112_1_cif.got.tgz:406.got - 2010.05.20 10:59:04.
