data_PCOD9555509
_publ_section_title
;
Structure prediction by ZEFSAII (Michael W. Deem and Ramdas Pophale) SiO2 
 PCOD9555509
Probable space group: P -4 21 M 
;
_chemical_formula_sum "Si O2"
_cell_formula_units_Z 48
_cell_length_a 10.863977
_cell_length_b 10.863977
_cell_length_c 17.884699
_cell_angle_alpha 90.000000
_cell_angle_beta 90.000000
_cell_angle_gamma 90.000000
_cell_volume 2110.859417
_symmetry_space_group_name_H-M "P -4 21 M "
_symmetry_group_IT_number 113
_symmetry_cell_setting 'tetragonal'
loop_
_space_group_symop_operation_xyz
x,y,z
y,-x,-z
-x,-y,z
-y,x,-z
1/2+x,1/2-y,-z
1/2-x,1/2+y,-z
1/2-y,1/2-x,z
1/2+y,1/2+x,z
loop_
_atom_site_type_symbol
_atom_site_label
_atom_site_fract_x
_atom_site_fract_y
_atom_site_fract_z
Si Si1 0.006462 0.704746 0.640681
Si Si2 0.438439 0.632334 0.806285
Si Si3 0.448129 0.239498 0.095857
Si Si4 0.194658 0.120158 0.929578
Si Si5 0.186979 0.101814 0.674844
Si Si6 0.203187 0.494071 0.467305
O O1 0.136541 0.636541 0.659854
O O2 0.008873 0.742546 0.553161
O O3 0.904523 0.595478 0.646214
O O4 0.941685 0.821203 0.680988
O O5 0.500000 0.500000 0.798236
O O6 0.298988 0.610127 0.829603
O O7 0.497629 0.680715 0.883069
O O8 0.494427 0.703608 0.736260
O O9 0.400161 0.099840 0.092945
O O10 0.588659 0.283218 0.093485
O O11 0.399484 0.300160 0.018199
O O12 0.322611 0.177390 0.906091
O O13 0.295503 0.204498 0.681837
O O14 0.199527 0.034676 0.594736
O O15 0.092228 0.592228 0.458509
O O16 0.140590 0.359411 0.457037
#
# Coordination Sequence:
#
# PCOD9555509 Si02
#       6
#     8   8   8   8   8   8
#     4   8  15  31  54  78 106 143 188 237 285 338
#     4  10  21  36  54  77 112 145 184 228 285 341
#     4  10  20  35  58  83 111 149 187 228 283 339
#     4  10  19  35  59  82 107 145 189 232 277 334
#     4  10  19  33  54  81 109 146 188 229 291 357
#     4   8  15  30  52  76 106 144 183 225 276 338
#
# _framework density 22.739554999999999
#
# number of rings (size 3 to 8) (size 9 to 14) (size 15 to 20)
#    0.000    2.667    1.667    1.500    0.000    1.000 
#    3.000    3.333    0.000    5.500    0.000    0.000 
#    0.000    0.000    0.000    0.000    0.000    0.000 
#
# Total GULP energy -267336.703325 kJ/mol
# GULP energy per Si atom -5569.514653 kJ/mol
# Density = 2.268780 g / cm^3
# Si number density = 22.739555 Si / 1000 Ang^3
#
#
#
# Elastic Constant Matrix: (Units=GPa)
#
#
# Indices 1 2 3 4 5 6 
#
# 1 3.2750 47.0125 26.4757 0.0000 0.0000 0.0000
# 2 47.0125 3.2811 26.4779 0.0000 0.0000 0.0000
# 3 26.4757 26.4779 81.1132 0.0000 0.0000 0.0000
# 4 0.0000 0.0000 0.0000 17.6597 0.0000 0.0000
# 5 0.0000 0.0000 0.0000 0.0000 17.6594 0.0000
# 6 0.0000 0.0000 0.0000 0.0000 0.0000 25.7536
#
#
#
# Elastic Compliance Matrix: (Units=1/GPa)
#
#
# Indices 1 2 3 4 5 6 
#
# 1 0.003715 0.026582 -0.009890 0.000000 0.000000 0.000000
# 2 0.026582 0.003718 -0.009890 0.000000 0.000000 0.000000
# 3 -0.009890 -0.009890 0.018785 0.000000 0.000000 0.000000
# 4 0.000000 0.000000 0.000000 0.056626 0.000000 0.000000
# 5 0.000000 0.000000 0.000000 0.000000 0.056627 0.000000
# 6 0.000000 0.000000 0.000000 0.000000 0.000000 0.038830
#
#
# Mechanical properties :
#
#
# Convention : Reuss Voigt Hill
#
# Bulk Modulus (GPa) = 25.11204 31.95573 28.53388
# Shear Modulus (GPa) = 28.09462 11.39475 19.74468
#
# Velocity S-wave (km/s) = 3.51877 2.24095 2.94988
# Velocity P-wave (km/s) = 5.25132 4.55843 4.91709
#
# Compressibility (1/GPa) = 0.03982154
#
# Stress axis : x y z
#
# Youngs Moduli (GPa) = 269.20024 268.96932 53.23442
#
# Poissons Ratio (x) = -7.14963 0.52647
# Poissons Ratio (y) = -7.15577 0.52649
# Poissons Ratio (z) = 2.66227 2.66010
#
# Static dielectric constant tensor:
#      x y z
#    x 1.861250 0.000000 0.000000 
#    y 0.000000 1.861240 0.000000 
#    z 0.000000 0.000000 1.870860 
# 
# From -- ./inp_files/2483.got.cif
#   From: 2010.05.17/outbox.cif.g08.bks.cpg/sg113_cif.got.tgz:2483.got - 2010.05.20 11:03:00.
