data_PCOD9555788
_publ_section_title
;
Structure prediction by ZEFSAII (Michael W. Deem and Ramdas Pophale) SiO2 
 PCOD9555788
Probable space group: P -4 21 M 
;
_chemical_formula_sum "Si O2"
_cell_formula_units_Z 24
_cell_length_a 14.047499
_cell_length_b 14.047499
_cell_length_c 5.131128
_cell_angle_alpha 90.000000
_cell_angle_beta 90.000000
_cell_angle_gamma 90.000000
_cell_volume 1012.536921
_symmetry_space_group_name_H-M "P -4 21 M "
_symmetry_group_IT_number 113
_symmetry_cell_setting 'tetragonal'
loop_
_space_group_symop_operation_xyz
x,y,z
y,-x,-z
-x,-y,z
-y,x,-z
1/2+x,1/2-y,-z
1/2-x,1/2+y,-z
1/2-y,1/2-x,z
1/2+y,1/2+x,z
loop_
_atom_site_type_symbol
_atom_site_label
_atom_site_fract_x
_atom_site_fract_y
_atom_site_fract_z
Si Si1 0.583761 0.385723 0.599995
Si Si2 0.468067 0.812594 0.558275
Si Si3 0.260582 0.089393 0.066738
O O1 0.469024 0.392306 0.605901
O O2 0.602055 0.278031 0.513215
O O3 0.649596 0.404806 0.849288
O O4 0.408419 0.908419 0.571691
O O5 0.541085 0.808174 0.320820
O O6 0.523299 0.790638 0.826096
O O7 0.307355 0.192646 0.025917
#
# Coordination Sequence:
#
# PCOD9555788 Si02
#       3
#     8   8   8
#     4   9  21  42  66  94 127 165 216 270 328 387
#     4  11  24  42  67  98 134 177 222 273 331 395
#     4  11  24  42  67  98 134 177 222 273 331 395
#
# _framework density 23.702839000000001
#
# number of rings (size 3 to 8) (size 9 to 14) (size 15 to 20)
#    0.000    1.667    0.000    3.000    0.000   17.333 
#    0.000   16.667    0.000    0.000    0.000    0.000 
#    0.000    0.000    0.000    0.000    0.000    0.000 
#
# Total GULP energy -133987.516013 kJ/mol
# GULP energy per Si atom -5582.813167 kJ/mol
# Density = 2.364889 g / cm^3
# Si number density = 23.702839 Si / 1000 Ang^3
#
#
#
# Elastic Constant Matrix: (Units=GPa)
#
#
# Indices 1 2 3 4 5 6 
#
# 1 73.1313 43.5270 37.8224 0.0000 0.0000 0.0000
# 2 43.5270 73.1254 37.8215 0.0000 0.0000 0.0000
# 3 37.8224 37.8215 130.7225 0.0000 0.0000 0.0000
# 4 0.0000 0.0000 0.0000 4.9449 0.0000 0.0000
# 5 0.0000 0.0000 0.0000 0.0000 4.9499 0.0000
# 6 0.0000 0.0000 0.0000 0.0000 0.0000 30.8238
#
#
#
# Elastic Compliance Matrix: (Units=1/GPa)
#
#
# Indices 1 2 3 4 5 6 
#
# 1 0.022166 -0.011615 -0.003053 0.000000 0.000000 0.000000
# 2 -0.011615 0.022168 -0.003053 0.000000 0.000000 0.000000
# 3 -0.003053 -0.003053 0.009416 0.000000 0.000000 0.000000
# 4 0.000000 0.000000 0.000000 0.202228 0.000000 0.000000
# 5 0.000000 0.000000 0.000000 0.000000 0.202025 0.000000
# 6 0.000000 0.000000 0.000000 0.000000 0.000000 0.032442
#
#
# Mechanical properties :
#
#
# Convention : Reuss Voigt Hill
#
# Bulk Modulus (GPa) = 54.61992 57.25791 55.93891
# Shear Modulus (GPa) = 9.39865 18.66427 14.03146
#
# Velocity S-wave (km/s) = 1.99344 2.80916 2.43569
# Velocity P-wave (km/s) = 5.32842 5.89329 5.61796
#
# Compressibility (1/GPa) = 0.01830834
#
# Stress axis : x y z
#
# Youngs Moduli (GPa) = 45.11387 45.10995 106.19723
#
# Poissons Ratio (x) = 0.52396 0.32420
# Poissons Ratio (y) = 0.52400 0.32424
# Poissons Ratio (z) = 0.13773 0.13773
#
# Static dielectric constant tensor:
#      x y z
#    x 1.961160 0.000000 0.000000 
#    y 0.000000 1.961160 0.000000 
#    z 0.000000 0.000000 1.867770 
# 
# From -- ./inp_files/120.got.cif
#   From: 2010.05.17/outbox.cif.g08.bks.cpg/sg113_cif.got.tgz:120.got - 2010.05.20 11:03:00.
