data_PCOD9555882
_publ_section_title
;
Structure prediction by ZEFSAII (Michael W. Deem and Ramdas Pophale) SiO2 
 PCOD9555882
Probable space group: P -4 21 C
;
_chemical_formula_sum "Si O2"
_cell_formula_units_Z 26
_cell_length_a 7.910242
_cell_length_b 7.910242
_cell_length_c 21.306971
_cell_angle_alpha 90.000000
_cell_angle_beta 90.000000
_cell_angle_gamma 90.000000
_cell_volume 1333.218266
_symmetry_space_group_name_H-M "P -4 21 C"
_symmetry_group_IT_number 114
_symmetry_cell_setting 'tetragonal'
loop_
_space_group_symop_operation_xyz
x,y,z
y,-x,-z
-x,-y,z
-y,x,-z
1/2+x,1/2-y,1/2-z
1/2-x,1/2+y,1/2-z
1/2-y,1/2-x,1/2+z
1/2+y,1/2+x,1/2+z
loop_
_atom_site_type_symbol
_atom_site_label
_atom_site_fract_x
_atom_site_fract_y
_atom_site_fract_z
Si Si1 0.685815 0.571691 0.181639
Si Si2 0.793009 0.833937 0.820064
Si Si3 0.625223 0.691397 0.616621
Si Si4 0.000000 0.000000 0.000000
O O1 0.500000 0.500000 0.186528
O O2 0.797723 0.404684 0.169503
O O3 0.715217 0.661568 0.248864
O O4 0.691359 0.715892 0.128867
O O5 0.940858 0.743995 0.861155
O O6 0.826108 0.029359 0.839030
O O7 0.603263 0.621005 0.546733
#
# Coordination Sequence:
#
# PCOD9555882 Si02
#       4
#     8   8   8   2
#     4  12  20  32  57  96 129 149 195 257 316 366
#     4  10  19  34  56  90 123 161 195 244 311 371
#     4  10  21  39  63  84 116 171 211 240 303 381
#     4   8  20  44  68  72 108 172 220 234 284 376
#
# _framework density 19.501683
#
# number of rings (size 3 to 8) (size 9 to 14) (size 15 to 20)
#    0.000    1.846    6.154    0.923    0.000    1.231 
#    0.000    0.000   54.154    0.000    0.000    0.000 
#    0.000    0.000    0.000    0.000    0.000    0.000 
#
# Total GULP energy -144820.992587 kJ/mol
# GULP energy per Si atom -5570.038176 kJ/mol
# Density = 1.945730 g / cm^3
# Si number density = 19.501683 Si / 1000 Ang^3
#
#
#
# Elastic Constant Matrix: (Units=GPa)
#
#
# Indices 1 2 3 4 5 6 
#
# 1 43.5862 -4.0735 26.0585 0.0000 0.0000 0.0000
# 2 -4.0735 43.5862 26.0585 0.0000 0.0000 0.0000
# 3 26.0585 26.0585 125.3780 0.0000 0.0000 0.0000
# 4 0.0000 0.0000 0.0000 23.3708 0.0000 0.0000
# 5 0.0000 0.0000 0.0000 0.0000 23.3708 0.0000
# 6 0.0000 0.0000 0.0000 0.0000 0.0000 22.0436
#
#
#
# Elastic Compliance Matrix: (Units=1/GPa)
#
#
# Indices 1 2 3 4 5 6 
#
# 1 0.027924 0.006942 -0.007247 0.000000 0.000000 0.000000
# 2 0.006942 0.027924 -0.007247 0.000000 0.000000 0.000000
# 3 -0.007247 -0.007247 0.010988 0.000000 0.000000 0.000000
# 4 0.000000 0.000000 0.000000 0.042788 0.000000 0.000000
# 5 0.000000 0.000000 0.000000 0.000000 0.042788 0.000000
# 6 0.000000 0.000000 0.000000 0.000000 0.000000 0.045365
#
#
# Mechanical properties :
#
#
# Convention : Reuss Voigt Hill
#
# Bulk Modulus (GPa) = 19.32939 34.29306 26.81122
# Shear Modulus (GPa) = 21.72729 24.72417 23.22573
#
# Velocity S-wave (km/s) = 3.34147 3.56448 3.45477
# Velocity P-wave (km/s) = 4.98201 5.87907 5.44903
#
# Compressibility (1/GPa) = 0.05173470
#
# Stress axis : x y z
#
# Youngs Moduli (GPa) = 35.81106 35.81106 91.00696
#
# Poissons Ratio (x) = -0.24861 0.65950
# Poissons Ratio (y) = -0.24861 0.65950
# Poissons Ratio (z) = 0.25951 0.25951
#
# Static dielectric constant tensor:
#      x y z
#    x 1.802290 0.000000 0.000000 
#    y 0.000000 1.802290 0.000000 
#    z 0.000000 0.000000 1.656300 
# 
# From -- ./inp_files/2390.got.cif
#   From: 2010.05.17/outbox.cif.g08.bks.cpg/sg114_2_cif.got.tgz:2390.got - 2010.05.20 11:04:54.
