data_PCOD9555607
_publ_section_title
;
Structure prediction by ZEFSAII (Michael W. Deem and Ramdas Pophale) SiO2 
 PCOD9555607
Probable space group: P -4 21 M 
;
_chemical_formula_sum "Si O2"
_cell_formula_units_Z 26
_cell_length_a 11.622797
_cell_length_b 11.622797
_cell_length_c 7.646358
_cell_angle_alpha 90.000000
_cell_angle_beta 90.000000
_cell_angle_gamma 90.000000
_cell_volume 1032.941992
_symmetry_space_group_name_H-M "P -4 21 M "
_symmetry_group_IT_number 113
_symmetry_cell_setting 'tetragonal'
loop_
_space_group_symop_operation_xyz
x,y,z
y,-x,-z
-x,-y,z
-y,x,-z
1/2+x,1/2-y,-z
1/2-x,1/2+y,-z
1/2-y,1/2-x,z
1/2+y,1/2+x,z
loop_
_atom_site_type_symbol
_atom_site_label
_atom_site_fract_x
_atom_site_fract_y
_atom_site_fract_z
Si Si1 0.597392 0.097392 0.842704
Si Si2 0.000000 0.000000 0.000000
Si Si3 0.585644 0.732218 0.866086
Si Si4 0.182530 0.009356 0.497208
Si Si5 0.402404 0.902404 0.436869
O O1 0.529571 0.201242 0.931047
O O2 0.627244 0.127244 0.641548
O O3 0.500000 0.000000 0.826730
O O4 0.070522 0.901633 0.100005
O O5 0.698169 0.801832 0.928037
O O6 0.575443 0.743659 0.656060
O O7 0.281005 0.955011 0.375249
O O8 0.102754 0.906977 0.576124
O O9 0.500000 0.000000 0.421517
#
# Coordination Sequence:
#
# PCOD9555607 Si02
#       5
#     4   2   8   8   4
#     4   7  14  34  58  77 107 156 199 240 289 351
#     4  12  24  36  66  96 116 164 208 254 316 348
#     4  10  22  40  62  89 124 159 207 254 301 365
#     4  10  20  35  59  87 120 159 197 245 298 363
#     4   9  18  30  52  80 112 155 196 230 293 351
#
# _framework density 25.170825000000001
#
# number of rings (size 3 to 8) (size 9 to 14) (size 15 to 20)
#    0.000    2.462    0.000    4.615    6.462    0.000 
#    0.000    0.000    0.000    0.000    0.000    0.000 
#    0.000    0.000    0.000    0.000    0.000    0.000 
#
# Total GULP energy -145009.883075 kJ/mol
# GULP energy per Si atom -5577.303195 kJ/mol
# Density = 2.511353 g / cm^3
# Si number density = 25.170825 Si / 1000 Ang^3
#
#
#
# Elastic Constant Matrix: (Units=GPa)
#
#
# Indices 1 2 3 4 5 6 
#
# 1 176.8946 74.2541 14.1506 0.0000 0.0000 0.0000
# 2 74.2541 176.8950 14.1508 0.0000 0.0000 0.0000
# 3 14.1506 14.1508 31.4508 0.0000 0.0000 0.0000
# 4 0.0000 0.0000 0.0000 12.2161 0.0000 0.0000
# 5 0.0000 0.0000 0.0000 0.0000 12.2167 0.0000
# 6 0.0000 0.0000 0.0000 0.0000 0.0000 51.2442
#
#
#
# Elastic Compliance Matrix: (Units=1/GPa)
#
#
# Indices 1 2 3 4 5 6 
#
# 1 0.006969 -0.002774 -0.001887 0.000000 0.000000 0.000000
# 2 -0.002774 0.006969 -0.001887 0.000000 0.000000 0.000000
# 3 -0.001887 -0.001887 0.033494 0.000000 0.000000 0.000000
# 4 0.000000 0.000000 0.000000 0.081859 0.000000 0.000000
# 5 0.000000 0.000000 0.000000 0.000000 0.081855 0.000000
# 6 0.000000 0.000000 0.000000 0.000000 0.000000 0.019514
#
#
# Mechanical properties :
#
#
# Convention : Reuss Voigt Hill
#
# Bulk Modulus (GPa) = 29.12569 65.59460 47.36015
# Shear Modulus (GPa) = 19.59233 33.98104 26.78669
#
# Velocity S-wave (km/s) = 2.79296 3.67824 3.26574
# Velocity P-wave (km/s) = 4.69012 6.64497 5.75121
#
# Compressibility (1/GPa) = 0.03433395
#
# Stress axis : x y z
#
# Youngs Moduli (GPa) = 143.50193 143.50209 29.85615
#
# Poissons Ratio (x) = 0.39810 0.05634
# Poissons Ratio (y) = 0.39810 0.05634
# Poissons Ratio (z) = 0.27081 0.27082
#
# Static dielectric constant tensor:
#      x y z
#    x 2.058500 0.000000 0.000000 
#    y 0.000000 2.058500 0.000000 
#    z 0.000000 0.000000 2.011990 
# 
# From -- ./inp_files/740.got.cif
#   From: 2010.05.17/outbox.cif.g08.bks.cpg/sg113_cif.got.tgz:740.got - 2010.05.20 11:03:00.
