data_PCOD9555911
_publ_section_title
;
Structure prediction by ZEFSAII (Michael W. Deem and Ramdas Pophale) SiO2 
 PCOD9555911
Probable space group: P -4 21 C
;
_chemical_formula_sum "Si O2"
_cell_formula_units_Z 64
_cell_length_a 17.829774
_cell_length_b 17.829774
_cell_length_c 8.948946
_cell_angle_alpha 90.000000
_cell_angle_beta 90.000000
_cell_angle_gamma 90.000000
_cell_volume 2844.877458
_symmetry_space_group_name_H-M "P -4 21 C"
_symmetry_group_IT_number 114
_symmetry_cell_setting 'tetragonal'
loop_
_space_group_symop_operation_xyz
x,y,z
y,-x,-z
-x,-y,z
-y,x,-z
1/2+x,1/2-y,1/2-z
1/2-x,1/2+y,1/2-z
1/2-y,1/2-x,1/2+z
1/2+y,1/2+x,1/2+z
loop_
_atom_site_type_symbol
_atom_site_label
_atom_site_fract_x
_atom_site_fract_y
_atom_site_fract_z
Si Si1 0.179841 0.273941 0.636291
Si Si2 0.040408 0.343223 0.719317
Si Si3 0.058998 0.280665 0.152323
Si Si4 0.405586 0.974271 0.594831
Si Si5 0.349125 0.205128 0.180174
Si Si6 0.324465 0.404948 0.896147
Si Si7 0.076923 0.648734 0.018581
Si Si8 0.713297 0.450639 0.070014
O O1 0.112519 0.292738 0.750682
O O2 0.216185 0.354350 0.608118
O O3 0.235851 0.215424 0.712509
O O4 0.147406 0.236785 0.483810
O O5 0.062677 0.380185 0.558724
O O6 0.834375 0.388848 0.680980
O O7 0.976367 0.282801 0.676146
O O8 0.035469 0.339321 0.285264
O O9 0.056864 0.202820 0.242340
O O10 0.001559 0.306116 0.022972
O O11 0.464939 0.918841 0.680274
O O12 0.420079 0.059207 0.526812
O O13 0.313989 0.136993 0.088709
O O14 0.407658 0.246845 0.069411
O O15 0.394254 0.349976 0.871195
O O16 0.328568 0.474740 0.010877
#
# Coordination Sequence:
#
# PCOD9555911 Si02
#       8
#     8   8   8   8   8   8   8   8
#     4   9  22  37  64  95 131 188 233 286 350 431
#     4  10  20  42  65  97 143 182 231 281 356 431
#     4  11  21  43  65  94 137 185 235 289 361 434
#     4  11  22  43  64  91 139 187 227 284 351 424
#     4  11  23  39  71 100 138 182 243 292 354 423
#     4  10  19  38  67  97 138 187 236 304 351 421
#     4  12  22  44  65  98 140 181 233 293 359 425
#     4  10  19  40  66 105 143 187 239 298 355 423
#
# _framework density 22.496576000000001
#
# number of rings (size 3 to 8) (size 9 to 14) (size 15 to 20)
#    0.000    1.500    6.250    0.000    3.500    0.250 
#    6.750    2.500    0.000    0.000    0.000    0.000 
#    0.000    0.000    0.000    0.000    0.000    0.000 
#
# Total GULP energy -356455.239551 kJ/mol
# GULP energy per Si atom -5569.613118 kJ/mol
# Density = 2.244537 g / cm^3
# Si number density = 22.496576 Si / 1000 Ang^3
#
#
#
# Elastic Constant Matrix: (Units=GPa)
#
#
# Indices 1 2 3 4 5 6 
#
# 1 122.9054 69.5409 30.3221 0.0000 0.0000 0.0000
# 2 69.5409 122.9054 30.3221 0.0000 0.0000 0.0000
# 3 30.3221 30.3221 59.1143 0.0000 0.0000 0.0000
# 4 0.0000 0.0000 0.0000 32.1020 0.0000 0.0000
# 5 0.0000 0.0000 0.0000 0.0000 32.1020 0.0000
# 6 0.0000 0.0000 0.0000 0.0000 0.0000 36.4082
#
#
#
# Elastic Compliance Matrix: (Units=1/GPa)
#
#
# Indices 1 2 3 4 5 6 
#
# 1 0.012469 -0.006270 -0.003179 0.000000 0.000000 0.000000
# 2 -0.006270 0.012469 -0.003179 0.000000 0.000000 0.000000
# 3 -0.003179 -0.003179 0.020178 0.000000 0.000000 0.000000
# 4 0.000000 0.000000 0.000000 0.031151 0.000000 0.000000
# 5 0.000000 0.000000 0.000000 0.000000 0.031151 0.000000
# 6 0.000000 0.000000 0.000000 0.000000 0.000000 0.027466
#
#
# Mechanical properties :
#
#
# Convention : Reuss Voigt Hill
#
# Bulk Modulus (GPa) = 50.35983 62.81058 56.58520
# Shear Modulus (GPa) = 29.98324 31.77177 30.87751
#
# Velocity S-wave (km/s) = 3.65470 3.76213 3.70880
# Velocity P-wave (km/s) = 6.34376 6.84486 6.59907
#
# Compressibility (1/GPa) = 0.01985710
#
# Stress axis : x y z
#
# Youngs Moduli (GPa) = 80.20161 80.20161 49.55914
#
# Poissons Ratio (x) = 0.50290 0.15756
# Poissons Ratio (y) = 0.50290 0.15756
# Poissons Ratio (z) = 0.25498 0.25498
#
# Static dielectric constant tensor:
#      x y z
#    x 1.909100 0.000000 0.000000 
#    y 0.000000 1.909100 0.000000 
#    z 0.000000 0.000000 1.956800 
# 
# From -- ./inp_files/1818.got.cif
#   From: 2010.05.17/outbox.cif.g08.bks.cpg/sg114_1_cif.got.tgz:1818.got - 2010.05.20 11:04:54.
