data_PCOD9555831
_publ_section_title
;
Structure prediction by ZEFSAII (Michael W. Deem and Ramdas Pophale) SiO2 
 PCOD9555831
Probable space group: P -4 21 C
;
_chemical_formula_sum "Si O2"
_cell_formula_units_Z 32
_cell_length_a 11.993773
_cell_length_b 11.993773
_cell_length_c 8.480830
_cell_angle_alpha 90.000000
_cell_angle_beta 90.000000
_cell_angle_gamma 90.000000
_cell_volume 1219.972406
_symmetry_space_group_name_H-M "P -4 21 C"
_symmetry_group_IT_number 114
_symmetry_cell_setting 'tetragonal'
loop_
_space_group_symop_operation_xyz
x,y,z
y,-x,-z
-x,-y,z
-y,x,-z
1/2+x,1/2-y,1/2-z
1/2-x,1/2+y,1/2-z
1/2-y,1/2-x,1/2+z
1/2+y,1/2+x,1/2+z
loop_
_atom_site_type_symbol
_atom_site_label
_atom_site_fract_x
_atom_site_fract_y
_atom_site_fract_z
Si Si1 0.434455 0.647040 0.921173
Si Si2 0.100012 0.657519 0.148778
Si Si3 0.864323 0.565236 0.931430
Si Si4 0.758323 0.954123 0.135424
O O1 0.485553 0.653459 0.746757
O O2 0.539753 0.637203 0.041253
O O3 0.379336 0.760499 0.979006
O O4 0.109522 0.542221 0.045563
O O5 0.094532 0.766724 0.039549
O O6 0.993170 0.654884 0.262407
O O7 0.207352 0.645967 0.259596
O O8 0.955264 0.659687 0.896483
#
# Coordination Sequence:
#
# PCOD9555831 Si02
#       4
#     8   8   8   8
#     4  10  23  43  56  73 121 172 192 226 297 355
#     4   9  16  29  57  91 117 139 170 242 310 335
#     4  10  17  32  58  88 115 142 190 241 289 342
#     4  10  17  32  58  88 115 142 190 241 289 342
#
# _framework density 26.230103
#
# number of rings (size 3 to 8) (size 9 to 14) (size 15 to 20)
#    0.000    2.250    0.000    7.500    0.000    0.000 
#   18.000    2.500    0.000    3.000    0.000    0.000 
#    0.000    0.000    0.000    0.000    0.000    0.000 
#
# Total GULP energy -178700.886575 kJ/mol
# GULP energy per Si atom -5584.402705 kJ/mol
# Density = 2.617040 g / cm^3
# Si number density = 26.230103 Si / 1000 Ang^3
#
#
#
# Elastic Constant Matrix: (Units=GPa)
#
#
# Indices 1 2 3 4 5 6 
#
# 1 65.7159 4.7841 20.6434 0.0000 0.0000 0.0000
# 2 4.7841 65.7159 20.6434 0.0000 0.0000 0.0000
# 3 20.6434 20.6434 112.2567 0.0000 0.0000 0.0000
# 4 0.0000 0.0000 0.0000 35.9027 0.0000 0.0000
# 5 0.0000 0.0000 0.0000 0.0000 35.9027 0.0000
# 6 0.0000 0.0000 0.0000 0.0000 0.0000 11.6109
#
#
#
# Elastic Compliance Matrix: (Units=1/GPa)
#
#
# Indices 1 2 3 4 5 6 
#
# 1 0.016154 -0.000258 -0.002923 0.000000 0.000000 0.000000
# 2 -0.000258 0.016154 -0.002923 0.000000 0.000000 0.000000
# 3 -0.002923 -0.002923 0.009983 0.000000 0.000000 0.000000
# 4 0.000000 0.000000 0.000000 0.027853 0.000000 0.000000
# 5 0.000000 0.000000 0.000000 0.000000 0.027853 0.000000
# 6 0.000000 0.000000 0.000000 0.000000 0.000000 0.086126
#
#
# Mechanical properties :
#
#
# Convention : Reuss Voigt Hill
#
# Bulk Modulus (GPa) = 33.24140 37.31448 35.27794
# Shear Modulus (GPa) = 24.22957 29.85776 27.04366
#
# Velocity S-wave (km/s) = 3.04259 3.37753 3.21443
# Velocity P-wave (km/s) = 5.00436 5.42835 5.22066
#
# Compressibility (1/GPa) = 0.03008297
#
# Stress axis : x y z
#
# Youngs Moduli (GPa) = 61.90386 61.90386 100.16722
#
# Poissons Ratio (x) = 0.01595 0.29282
# Poissons Ratio (y) = 0.01595 0.29282
# Poissons Ratio (z) = 0.18096 0.18096
#
# Static dielectric constant tensor:
#      x y z
#    x 2.161780 0.000000 0.000000 
#    y 0.000000 2.161780 0.000000 
#    z 0.000000 0.000000 2.194300 
# 
# From -- ./inp_files/629.got.cif
#   From: 2010.05.17/outbox.cif.g08.bks.cpg/sg114_1_cif.got.tgz:629.got - 2010.05.20 11:04:54.
