data_PCOD9555657
_publ_section_title
;
Structure prediction by ZEFSAII (Michael W. Deem and Ramdas Pophale) SiO2 
 PCOD9555657
Probable space group: P -4 21 M 
;
_chemical_formula_sum "Si O2"
_cell_formula_units_Z 56
_cell_length_a 14.808991
_cell_length_b 14.808991
_cell_length_c 11.402577
_cell_angle_alpha 90.000000
_cell_angle_beta 90.000000
_cell_angle_gamma 90.000000
_cell_volume 2500.655997
_symmetry_space_group_name_H-M "P -4 21 M "
_symmetry_group_IT_number 113
_symmetry_cell_setting 'tetragonal'
loop_
_space_group_symop_operation_xyz
x,y,z
y,-x,-z
-x,-y,z
-y,x,-z
1/2+x,1/2-y,-z
1/2-x,1/2+y,-z
1/2-y,1/2-x,z
1/2+y,1/2+x,z
loop_
_atom_site_type_symbol
_atom_site_label
_atom_site_fract_x
_atom_site_fract_y
_atom_site_fract_z
Si Si1 0.138538 0.499479 0.283419
Si Si2 0.141552 0.496416 0.715592
Si Si3 0.593045 0.551303 0.357945
Si Si4 0.955141 0.197064 0.141133
Si Si5 0.783980 0.134947 0.003539
Si Si6 0.271704 0.631028 0.776710
Si Si7 0.595825 0.239361 0.501891
O O1 0.071225 0.571225 0.340088
O O2 0.203110 0.549777 0.194408
O O3 0.193130 0.447935 0.383268
O O4 0.076650 0.423351 0.222157
O O5 0.082393 0.417608 0.770472
O O6 0.203642 0.550284 0.804679
O O7 0.200114 0.454087 0.611628
O O8 0.070182 0.570182 0.666898
O O9 0.500000 0.500000 0.377574
O O10 0.640079 0.495255 0.250884
O O11 0.589762 0.651760 0.304613
O O12 0.656797 0.570552 0.471654
O O13 0.029905 0.206905 0.036839
O O14 0.859283 0.156975 0.101854
O O15 0.688595 0.188595 0.025729
O O16 0.824394 0.183620 0.888156
O O17 0.210518 0.710518 0.719377
O O18 0.698353 0.198353 0.494756
#
# Coordination Sequence:
#
# PCOD9555657 Si02
#       7
#     8   8   8   8   8   8   8
#     4   9  16  29  51  79 109 137 170 222 280 329
#     4   9  17  33  59  85 108 142 189 233 275 332
#     4  10  21  36  55  79 111 148 189 230 283 338
#     4  10  21  33  56  76 108 142 187 225 279 337
#     4  10  21  36  56  81 108 144 188 233 280 340
#     4   9  19  37  57  77 109 148 188 230 281 340
#     4   9  17  32  55  84 112 143 183 229 279 334
#
# _framework density 22.394124999999999
#
# number of rings (size 3 to 8) (size 9 to 14) (size 15 to 20)
#    0.000    2.571    0.000    1.714    4.000    5.143 
#    2.571    1.429    0.000    4.286    0.000    0.000 
#    0.000    0.000    0.000    0.000    0.000    0.000 
#
# Total GULP energy -312083.714177 kJ/mol
# GULP energy per Si atom -5572.923467 kJ/mol
# Density = 2.234315 g / cm^3
# Si number density = 22.394125 Si / 1000 Ang^3
#
#
#
# Elastic Constant Matrix: (Units=GPa)
#
#
# Indices 1 2 3 4 5 6 
#
# 1 -17.7469 150.2840 18.9094 0.0000 0.0000 0.0000
# 2 150.2840 -17.7421 18.9141 0.0000 0.0000 0.0000
# 3 18.9094 18.9141 36.7105 0.0000 0.0000 0.0000
# 4 0.0000 0.0000 0.0000 112.3187 0.0000 0.0000
# 5 0.0000 0.0000 0.0000 0.0000 112.4564 0.0000
# 6 0.0000 0.0000 0.0000 0.0000 0.0000 36.3338
#
#
#
# Elastic Compliance Matrix: (Units=1/GPa)
#
#
# Indices 1 2 3 4 5 6 
#
# 1 0.001447 0.007398 -0.004557 0.000000 0.000000 0.000000
# 2 0.007398 0.001447 -0.004556 0.000000 0.000000 0.000000
# 3 -0.004557 -0.004556 0.031935 0.000000 0.000000 0.000000
# 4 0.000000 0.000000 0.000000 0.008903 0.000000 0.000000
# 5 0.000000 0.000000 0.000000 0.000000 0.008892 0.000000
# 6 0.000000 0.000000 0.000000 0.000000 0.000000 0.027523
#
#
# Mechanical properties :
#
#
# Convention : Reuss Voigt Hill
#
# Bulk Modulus (GPa) = 31.84847 41.93739 36.89293
# Shear Modulus (GPa) = 53.16687 39.76271 46.46479
#
# Velocity S-wave (km/s) = 4.87780 4.21834 4.56001
# Velocity P-wave (km/s) = 6.78061 6.51870 6.65095
#
# Compressibility (1/GPa) = 0.03139868
#
# Stress axis : x y z
#
# Youngs Moduli (GPa) = 691.10303 691.10212 31.31361
#
# Poissons Ratio (x) = -5.11300 0.14270
# Poissons Ratio (y) = -5.11301 0.14268
# Poissons Ratio (z) = 3.14943 3.14890
#
# Static dielectric constant tensor:
#      x y z
#    x 1.828280 0.000000 0.000000 
#    y 0.000000 1.828180 0.000000 
#    z 0.000000 0.000000 1.805790 
# 
# From -- ./inp_files/1945.got.cif
#   From: 2010.05.17/outbox.cif.g08.bks.cpg/sg113_cif.got.tgz:1945.got - 2010.05.20 11:03:00.
