data_PCOD9555569
_publ_section_title
;
Structure prediction by ZEFSAII (Michael W. Deem and Ramdas Pophale) SiO2 
 PCOD9555569
Probable space group: P -4 21 M 
;
_chemical_formula_sum "Si O2"
_cell_formula_units_Z 40
_cell_length_a 16.859071
_cell_length_b 16.859071
_cell_length_c 6.622830
_cell_angle_alpha 90.000000
_cell_angle_beta 90.000000
_cell_angle_gamma 90.000000
_cell_volume 1882.395546
_symmetry_space_group_name_H-M "P -4 21 M "
_symmetry_group_IT_number 113
_symmetry_cell_setting 'tetragonal'
loop_
_space_group_symop_operation_xyz
x,y,z
y,-x,-z
-x,-y,z
-y,x,-z
1/2+x,1/2-y,-z
1/2-x,1/2+y,-z
1/2-y,1/2-x,z
1/2+y,1/2+x,z
loop_
_atom_site_type_symbol
_atom_site_label
_atom_site_fract_x
_atom_site_fract_y
_atom_site_fract_z
Si Si1 0.347482 0.617347 0.546597
Si Si2 0.247128 0.515015 0.224627
Si Si3 0.917665 0.712558 0.576716
Si Si4 0.459539 0.599361 0.886314
Si Si5 0.705141 0.920467 0.182546
O O1 0.303445 0.563465 0.381033
O O2 0.380593 0.699341 0.455607
O O3 0.418765 0.576473 0.674938
O O4 0.279632 0.626273 0.719673
O O5 0.191952 0.461511 0.364111
O O6 0.306663 0.455334 0.108548
O O7 0.211139 0.572173 0.058603
O O8 0.848960 0.651041 0.625436
O O9 0.990296 0.709563 0.732616
O O10 0.420201 0.551451 0.069344
O O11 0.626067 0.873934 0.242433
#
# Coordination Sequence:
#
# PCOD9555569 Si02
#       5
#     8   8   8   8   8
#     4  10  22  42  67  95 134 174 217 267 331 400
#     4  10  23  40  65  94 135 171 221 271 333 396
#     4  10  24  43  66  97 131 172 225 277 329 395
#     4  10  20  32  60  92 134 174 207 252 322 394
#     4  11  24  43  67  94 128 174 225 278 337 394
#
# _framework density 21.249521000000001
#
# number of rings (size 3 to 8) (size 9 to 14) (size 15 to 20)
#    0.000    1.800    2.000    0.600    2.800   10.000 
#    0.000    0.000    0.000    0.000    0.000    0.000 
#    0.000    0.000    0.000    0.000    0.000    0.000 
#
# Total GULP energy -222903.579535 kJ/mol
# GULP energy per Si atom -5572.589488 kJ/mol
# Density = 2.120116 g / cm^3
# Si number density = 21.249521 Si / 1000 Ang^3
#
#
#
# Elastic Constant Matrix: (Units=GPa)
#
#
# Indices 1 2 3 4 5 6 
#
# 1 76.4377 53.8571 41.5254 0.0000 0.0000 0.0000
# 2 53.8571 76.4345 41.5252 0.0000 0.0000 0.0000
# 3 41.5254 41.5252 81.0166 0.0000 0.0000 0.0000
# 4 0.0000 0.0000 0.0000 19.4932 0.0000 0.0000
# 5 0.0000 0.0000 0.0000 0.0000 19.4937 0.0000
# 6 0.0000 0.0000 0.0000 0.0000 0.0000 37.0319
#
#
#
# Elastic Compliance Matrix: (Units=1/GPa)
#
#
# Indices 1 2 3 4 5 6 
#
# 1 0.027843 -0.016445 -0.005842 0.000000 0.000000 0.000000
# 2 -0.016445 0.027845 -0.005843 0.000000 0.000000 0.000000
# 3 -0.005842 -0.005843 0.018333 0.000000 0.000000 0.000000
# 4 0.000000 0.000000 0.000000 0.051300 0.000000 0.000000
# 5 0.000000 0.000000 0.000000 0.000000 0.051299 0.000000
# 6 0.000000 0.000000 0.000000 0.000000 0.000000 0.027004
#
#
# Mechanical properties :
#
#
# Convention : Reuss Voigt Hill
#
# Bulk Modulus (GPa) = 56.30578 56.41156 56.35867
# Shear Modulus (GPa) = 18.81089 21.66916 20.24003
#
# Velocity S-wave (km/s) = 2.97852 3.19681 3.08960
# Velocity P-wave (km/s) = 6.19546 6.34279 6.26956
#
# Compressibility (1/GPa) = 0.01776017
#
# Stress axis : x y z
#
# Youngs Moduli (GPa) = 35.91526 35.91332 54.54784
#
# Poissons Ratio (x) = 0.59059 0.31869
# Poissons Ratio (y) = 0.59062 0.31872
# Poissons Ratio (z) = 0.20983 0.20984
#
# Static dielectric constant tensor:
#      x y z
#    x 1.789680 0.000000 0.000000 
#    y 0.000000 1.789680 0.000000 
#    z 0.000000 0.000000 1.856880 
# 
# From -- ./inp_files/339.got.cif
#   From: 2010.05.17/outbox.cif.g08.bks.cpg/sg113_cif.got.tgz:339.got - 2010.05.20 11:03:00.
