data_PCOD9555753
_publ_section_title
;
Structure prediction by ZEFSAII (Michael W. Deem and Ramdas Pophale) SiO2 
 PCOD9555753
Probable space group: P -4 21 M 
;
_chemical_formula_sum "Si O2"
_cell_formula_units_Z 48
_cell_length_a 15.064344
_cell_length_b 15.064344
_cell_length_c 12.057710
_cell_angle_alpha 90.000000
_cell_angle_beta 90.000000
_cell_angle_gamma 90.000000
_cell_volume 2736.309909
_symmetry_space_group_name_H-M "P -4 21 M "
_symmetry_group_IT_number 113
_symmetry_cell_setting 'tetragonal'
loop_
_space_group_symop_operation_xyz
x,y,z
y,-x,-z
-x,-y,z
-y,x,-z
1/2+x,1/2-y,-z
1/2-x,1/2+y,-z
1/2-y,1/2-x,z
1/2+y,1/2+x,z
loop_
_atom_site_type_symbol
_atom_site_label
_atom_site_fract_x
_atom_site_fract_y
_atom_site_fract_z
Si Si1 0.647077 0.002048 0.148563
Si Si2 0.226096 0.127838 0.035885
Si Si3 0.891145 0.903300 0.825198
Si Si4 0.378088 0.435667 0.474208
Si Si5 0.396899 0.750783 0.335638
Si Si6 0.602843 0.602435 0.226400
O O1 0.576089 0.923912 0.171243
O O2 0.715204 0.961244 0.058671
O O3 0.588980 0.088980 0.115224
O O4 0.701655 0.029077 0.258565
O O5 0.294164 0.205837 0.005202
O O6 0.177640 0.146972 0.152324
O O7 0.148753 0.117104 0.945637
O O8 0.858164 0.828253 0.740687
O O9 0.998318 0.898682 0.809103
O O10 0.863311 0.003706 0.799557
O O11 0.400359 0.538823 0.453647
O O12 0.291983 0.428678 0.549669
O O13 0.383592 0.385693 0.357467
O O14 0.322882 0.822882 0.358813
#
# Coordination Sequence:
#
# PCOD9555753 Si02
#       6
#     8   8   8   8   8   8
#     4   9  19  37  57  79 113 153 189 227 277 334
#     4  11  22  35  53  82 114 143 190 236 270 327
#     4  11  20  37  53  81 107 148 180 225 284 339
#     4  11  18  35  56  80 108 143 182 224 277 337
#     4  11  21  35  58  86 111 145 189 231 274 328
#     4  11  21  35  58  76 112 147 181 219 288 347
#
# _framework density 17.541871
#
# number of rings (size 3 to 8) (size 9 to 14) (size 15 to 20)
#    0.000    1.333    5.000    2.500    0.000    2.000 
#    0.000    0.833    0.000    0.000    0.000    0.000 
#    0.000    0.000    0.000    0.000    0.000    0.000 
#
# Total GULP energy -267566.629208 kJ/mol
# GULP energy per Si atom -5574.304775 kJ/mol
# Density = 1.750194 g / cm^3
# Si number density = 17.541871 Si / 1000 Ang^3
#
#
#
# Elastic Constant Matrix: (Units=GPa)
#
#
# Indices 1 2 3 4 5 6 
#
# 1 51.0286 3.7928 16.0806 0.0000 0.0000 0.0000
# 2 3.7928 51.0270 16.0798 0.0000 0.0000 0.0000
# 3 16.0806 16.0798 90.4814 0.0000 0.0000 0.0000
# 4 0.0000 0.0000 0.0000 22.6271 0.0000 0.0000
# 5 0.0000 0.0000 0.0000 0.0000 22.6277 0.0000
# 6 0.0000 0.0000 0.0000 0.0000 0.0000 12.2539
#
#
#
# Elastic Compliance Matrix: (Units=1/GPa)
#
#
# Indices 1 2 3 4 5 6 
#
# 1 0.020767 -0.000403 -0.003619 0.000000 0.000000 0.000000
# 2 -0.000403 0.020768 -0.003619 0.000000 0.000000 0.000000
# 3 -0.003619 -0.003619 0.012338 0.000000 0.000000 0.000000
# 4 0.000000 0.000000 0.000000 0.044195 0.000000 0.000000
# 5 0.000000 0.000000 0.000000 0.000000 0.044194 0.000000
# 6 0.000000 0.000000 0.000000 0.000000 0.000000 0.081607
#
#
# Mechanical properties :
#
#
# Convention : Reuss Voigt Hill
#
# Bulk Modulus (GPa) = 25.91292 29.38259 27.64775
# Shear Modulus (GPa) = 19.84008 21.94067 20.89038
#
# Velocity S-wave (km/s) = 3.36670 3.54045 3.45467
# Velocity P-wave (km/s) = 5.46965 5.78786 5.63100
#
# Compressibility (1/GPa) = 0.03859079
#
# Stress axis : x y z
#
# Youngs Moduli (GPa) = 48.15253 48.15128 81.04801
#
# Poissons Ratio (x) = 0.01941 0.29333
# Poissons Ratio (y) = 0.01941 0.29332
# Poissons Ratio (z) = 0.17427 0.17426
#
# Static dielectric constant tensor:
#      x y z
#    x 1.619430 0.000000 0.000000 
#    y 0.000000 1.619430 0.000000 
#    z 0.000000 0.000000 1.612870 
# 
# From -- ./inp_files/1825.got.cif
#   From: 2010.05.17/outbox.cif.g08.bks.cpg/sg113_cif.got.tgz:1825.got - 2010.05.20 11:03:00.
