data_PCOD9555379
_publ_section_title
;
Structure prediction by ZEFSAII (Michael W. Deem and Ramdas Pophale) SiO2 
 PCOD9555379
Probable space group: P -4 2 C
;
_chemical_formula_sum "Si O2"
_cell_formula_units_Z 56
_cell_length_a 14.759434
_cell_length_b 14.759434
_cell_length_c 10.646072
_cell_angle_alpha 90.000000
_cell_angle_beta 90.000000
_cell_angle_gamma 90.000000
_cell_volume 2319.149821
_symmetry_space_group_name_H-M "P -4 2 C"
_symmetry_group_IT_number 112
_symmetry_cell_setting 'tetragonal'
loop_
_space_group_symop_operation_xyz
x,y,z
y,-x,-z
-x,-y,z
-y,x,-z
x,-y,1/2-z
-x,y,1/2-z
-y,-x,1/2+z
y,x,1/2+z
loop_
_atom_site_type_symbol
_atom_site_label
_atom_site_fract_x
_atom_site_fract_y
_atom_site_fract_z
Si Si1 0.162848 0.803197 0.490481
Si Si2 0.505561 0.094118 0.018402
Si Si3 0.431949 0.390720 0.949569
Si Si4 0.237741 0.403747 0.817703
Si Si5 0.242394 0.895502 0.257289
Si Si6 0.205562 0.639686 0.072211
Si Si7 0.647183 0.093505 0.816708
O O1 0.185028 0.879550 0.385555
O O2 0.120515 0.817230 0.629180
O O3 0.262662 0.766508 0.525842
O O4 0.109555 0.726049 0.417033
O O5 0.401743 0.120735 0.999445
O O6 0.550921 0.082052 0.882689
O O7 0.500000 0.000000 0.090700
O O8 0.573213 0.168573 0.071332
O O9 0.344757 0.396929 0.856272
O O10 0.428888 0.284192 0.967670
O O11 0.411539 0.460015 0.066105
O O12 0.233086 0.500000 0.750000
O O13 0.184541 0.320379 0.749463
O O14 0.275872 0.000000 0.250000
O O15 0.176190 0.643870 0.217177
O O16 0.670061 0.000000 0.750000
#
# Coordination Sequence:
#
# PCOD9555379 Si02
#       7
#     8   8   8   8   8   8   8
#     4  12  26  50  76 115 158 210 254 324 417 499
#     4  12  25  42  72 116 160 204 270 349 425 485
#     4  11  24  48  71 100 151 221 283 329 387 476
#     4  12  26  45  73 110 158 212 273 352 411 488
#     4  12  29  49  82 119 156 207 267 334 425 504
#     4  12  24  45  72 110 164 209 273 336 404 496
#     4  12  25  45  77 118 158 211 274 341 425 508
#
# _framework density 24.14678
#
# number of rings (size 3 to 8) (size 9 to 14) (size 15 to 20)
#    0.000    0.143    7.143    1.286    6.000    0.000 
#    2.571    2.857    0.000    3.429    0.000    0.000 
#    0.000    0.000    0.000    0.000    0.000    0.000 
#
# Total GULP energy -312144.169433 kJ/mol
# GULP energy per Si atom -5574.003026 kJ/mol
# Density = 2.409182 g / cm^3
# Si number density = 24.146780 Si / 1000 Ang^3
#
#
#
# Elastic Constant Matrix: (Units=GPa)
#
#
# Indices 1 2 3 4 5 6 
#
# 1 100.2184 3.6605 27.3567 0.0000 0.0000 0.0000
# 2 3.6605 100.2184 27.3567 0.0000 0.0000 0.0000
# 3 27.3567 27.3567 97.8123 0.0000 0.0000 0.0000
# 4 0.0000 0.0000 0.0000 30.6688 0.0000 0.0000
# 5 0.0000 0.0000 0.0000 0.0000 30.6688 0.0000
# 6 0.0000 0.0000 0.0000 0.0000 0.0000 22.5098
#
#
#
# Elastic Compliance Matrix: (Units=1/GPa)
#
#
# Indices 1 2 3 4 5 6 
#
# 1 0.010823 0.000467 -0.003158 0.000000 0.000000 0.000000
# 2 0.000467 0.010823 -0.003158 0.000000 0.000000 0.000000
# 3 -0.003158 -0.003158 0.011990 0.000000 0.000000 0.000000
# 4 0.000000 0.000000 0.000000 0.032606 0.000000 0.000000
# 5 0.000000 0.000000 0.000000 0.000000 0.032606 0.000000
# 6 0.000000 0.000000 0.000000 0.000000 0.000000 0.044425
#
#
# Mechanical properties :
#
#
# Convention : Reuss Voigt Hill
#
# Bulk Modulus (GPa) = 45.58083 46.11075 45.84579
# Shear Modulus (GPa) = 30.81017 32.76116 31.78566
#
# Velocity S-wave (km/s) = 3.57592 3.68741 3.63209
# Velocity P-wave (km/s) = 5.99727 6.10465 6.05120
#
# Compressibility (1/GPa) = 0.02193905
#
# Stress axis : x y z
#
# Youngs Moduli (GPa) = 92.39508 92.39508 83.40340
#
# Poissons Ratio (x) = -0.04311 0.26335
# Poissons Ratio (y) = -0.04311 0.26335
# Poissons Ratio (z) = 0.29174 0.29174
#
# Static dielectric constant tensor:
#      x y z
#    x 2.048250 0.000000 0.000000 
#    y 0.000000 2.048250 0.000000 
#    z 0.000000 0.000000 2.066330 
# 
# From -- ./inp_files/2664.got.cif
#   From: 2010.05.17/outbox.cif.g08.bks.cpg/sg112_2_cif.got.tgz:2664.got - 2010.05.20 10:59:04.
