data_PCOD9555738
_publ_section_title
;
Structure prediction by ZEFSAII (Michael W. Deem and Ramdas Pophale) SiO2 
 PCOD9555738
Probable space group: P -4 21 M 
;
_chemical_formula_sum "Si O2"
_cell_formula_units_Z 40
_cell_length_a 14.015132
_cell_length_b 14.015132
_cell_length_c 9.694840
_cell_angle_alpha 90.000000
_cell_angle_beta 90.000000
_cell_angle_gamma 90.000000
_cell_volume 1904.298525
_symmetry_space_group_name_H-M "P -4 21 M "
_symmetry_group_IT_number 113
_symmetry_cell_setting 'tetragonal'
loop_
_space_group_symop_operation_xyz
x,y,z
y,-x,-z
-x,-y,z
-y,x,-z
1/2+x,1/2-y,-z
1/2-x,1/2+y,-z
1/2-y,1/2-x,z
1/2+y,1/2+x,z
loop_
_atom_site_type_symbol
_atom_site_label
_atom_site_fract_x
_atom_site_fract_y
_atom_site_fract_z
Si Si1 0.603067 0.447285 0.301132
Si Si2 0.345226 0.996552 0.306125
Si Si3 0.236703 0.885932 0.773159
Si Si4 0.282109 0.629307 0.538896
Si Si5 0.620939 0.274129 0.101101
O O1 0.500000 0.500000 0.308255
O O2 0.695854 0.513913 0.278437
O O3 0.628986 0.389641 0.439912
O O4 0.605042 0.374560 0.173883
O O5 0.416702 0.083299 0.274614
O O6 0.274254 0.033658 0.422741
O O7 0.408665 0.908665 0.358210
O O8 0.292477 0.960216 0.169465
O O9 0.343341 0.843341 0.748287
O O10 0.168357 0.815756 0.686953
O O11 0.220624 0.883738 0.936839
O O12 0.208382 0.708382 0.480624
O O13 0.721058 0.221058 0.136195
#
# Coordination Sequence:
#
# PCOD9555738 Si02
#       5
#     8   8   8   8   8
#     4  12  27  39  67 100 132 169 219 270 319 391
#     4   9  19  38  67  96 125 169 221 265 319 393
#     4  10  25  44  64  91 131 172 213 266 330 386
#     4  10  23  43  62  90 132 174 211 264 329 385
#     4  10  23  44  67  96 131 171 212 269 333 386
#
# _framework density 21.005110999999999
#
# number of rings (size 3 to 8) (size 9 to 14) (size 15 to 20)
#    0.000    1.800    0.000    1.800   11.200    0.800 
#    0.000    1.000    0.000    3.000    0.000    0.000 
#    0.000    0.000    0.000    0.000    0.000    0.000 
#
# Total GULP energy -223249.055705 kJ/mol
# GULP energy per Si atom -5581.226393 kJ/mol
# Density = 2.095730 g / cm^3
# Si number density = 21.005111 Si / 1000 Ang^3
#
#
#
# Elastic Constant Matrix: (Units=GPa)
#
#
# Indices 1 2 3 4 5 6 
#
# 1 79.5344 36.3875 29.8786 0.0000 0.0000 0.0000
# 2 36.3875 79.5348 29.8795 0.0000 0.0000 0.0000
# 3 29.8786 29.8795 86.5398 0.0000 0.0000 0.0000
# 4 0.0000 0.0000 0.0000 27.7482 0.0000 0.0000
# 5 0.0000 0.0000 0.0000 0.0000 27.7482 0.0000
# 6 0.0000 0.0000 0.0000 0.0000 0.0000 35.4339
#
#
#
# Elastic Compliance Matrix: (Units=1/GPa)
#
#
# Indices 1 2 3 4 5 6 
#
# 1 0.016835 -0.006341 -0.003623 0.000000 0.000000 0.000000
# 2 -0.006341 0.016835 -0.003623 0.000000 0.000000 0.000000
# 3 -0.003623 -0.003623 0.014057 0.000000 0.000000 0.000000
# 4 0.000000 0.000000 0.000000 0.036038 0.000000 0.000000
# 5 0.000000 0.000000 0.000000 0.000000 0.036038 0.000000
# 6 0.000000 0.000000 0.000000 0.000000 0.000000 0.028222
#
#
# Mechanical properties :
#
#
# Convention : Reuss Voigt Hill
#
# Bulk Modulus (GPa) = 48.65527 48.65559 48.65543
# Shear Modulus (GPa) = 27.46457 28.15030 27.80743
#
# Velocity S-wave (km/s) = 3.61989 3.66480 3.64241
# Velocity P-wave (km/s) = 6.37850 6.41261 6.39558
#
# Compressibility (1/GPa) = 0.02055276
#
# Stress axis : x y z
#
# Youngs Moduli (GPa) = 59.39873 59.39855 71.13700
#
# Poissons Ratio (x) = 0.37665 0.25774
# Poissons Ratio (y) = 0.37665 0.25776
# Poissons Ratio (z) = 0.21521 0.21523
#
# Static dielectric constant tensor:
#      x y z
#    x 1.806210 0.000000 0.000000 
#    y 0.000000 1.806210 0.000000 
#    z 0.000000 0.000000 1.715910 
# 
# From -- ./inp_files/1022.got.cif
#   From: 2010.05.17/outbox.cif.g08.bks.cpg/sg113_cif.got.tgz:1022.got - 2010.05.20 11:03:00.
