data_PCOD9555633
_publ_section_title
;
Structure prediction by ZEFSAII (Michael W. Deem and Ramdas Pophale) SiO2 
 PCOD9555633
Probable space group: P -4 21 M 
;
_chemical_formula_sum "Si O2"
_cell_formula_units_Z 32
_cell_length_a 12.225021
_cell_length_b 12.225021
_cell_length_c 11.707650
_cell_angle_alpha 90.000000
_cell_angle_beta 90.000000
_cell_angle_gamma 90.000000
_cell_volume 1749.721621
_symmetry_space_group_name_H-M "P -4 21 M "
_symmetry_group_IT_number 113
_symmetry_cell_setting 'tetragonal'
loop_
_space_group_symop_operation_xyz
x,y,z
y,-x,-z
-x,-y,z
-y,x,-z
1/2+x,1/2-y,-z
1/2-x,1/2+y,-z
1/2-y,1/2-x,z
1/2+y,1/2+x,z
loop_
_atom_site_type_symbol
_atom_site_label
_atom_site_fract_x
_atom_site_fract_y
_atom_site_fract_z
Si Si1 0.136273 0.363728 0.922323
Si Si2 0.790940 0.709061 0.171194
Si Si3 0.888617 0.388617 0.865746
Si Si4 0.763346 0.263346 0.287202
Si Si5 0.356835 0.856835 0.488267
Si Si6 0.000000 0.500000 0.667905
Si Si7 0.500000 0.500000 0.500000
Si Si8 0.213478 0.985452 0.662375
O O1 0.151322 0.495270 0.914996
O O2 0.200236 0.299764 0.818419
O O3 0.169186 0.330815 0.048623
O O4 0.701482 0.798519 0.140156
O O5 0.889945 0.766653 0.242735
O O6 0.922290 0.422290 0.739526
O O7 0.721169 0.221169 0.412281
O O8 0.738594 0.393950 0.286751
O O9 0.297183 0.945594 0.565863
O O10 0.422437 0.922437 0.397415
O O11 0.601030 0.512308 0.410876
#
# Coordination Sequence:
#
# PCOD9555633 Si02
#       8
#     4   4   4   4   4   2   2   8
#     4  10  25  46  71  98 129 187 227 281 334 400
#     4  11  28  46  69 101 133 184 222 285 335 408
#     4  10  23  44  71  94 131 173 228 277 323 409
#     4  12  23  43  67 101 136 180 226 277 336 407
#     4  11  21  41  60  97 130 185 215 266 335 401
#     4  10  20  36  68  90 126 170 228 262 320 402
#     4  12  24  40  64 106 140 176 216 296 334 400
#     4  11  27  40  66  98 143 176 224 273 346 400
#
# _framework density 18.288625
#
# number of rings (size 3 to 8) (size 9 to 14) (size 15 to 20)
#    0.000    1.250    5.000    0.750   10.500    2.500 
#    0.000    0.000    0.000    0.000    0.000    0.000 
#    0.000    0.000    0.000    0.000    0.000    0.000 
#
# Total GULP energy -178149.815605 kJ/mol
# GULP energy per Si atom -5567.181738 kJ/mol
# Density = 1.824700 g / cm^3
# Si number density = 18.288625 Si / 1000 Ang^3
#
#
#
# Elastic Constant Matrix: (Units=GPa)
#
#
# Indices 1 2 3 4 5 6 
#
# 1 129.5911 106.7584 71.8249 0.0000 0.0000 0.0000
# 2 106.7584 129.5907 71.8242 0.0000 0.0000 0.0000
# 3 71.8249 71.8242 132.3858 0.0000 0.0000 0.0000
# 4 0.0000 0.0000 0.0000 45.5801 0.0000 0.0000
# 5 0.0000 0.0000 0.0000 0.0000 45.5784 0.0000
# 6 0.0000 0.0000 0.0000 0.0000 0.0000 33.4256
#
#
#
# Elastic Compliance Matrix: (Units=1/GPa)
#
#
# Indices 1 2 3 4 5 6 
#
# 1 0.025055 -0.018742 -0.003425 0.000000 0.000000 0.000000
# 2 -0.018742 0.025055 -0.003425 0.000000 0.000000 0.000000
# 3 -0.003425 -0.003425 0.011270 0.000000 0.000000 0.000000
# 4 0.000000 0.000000 0.000000 0.021939 0.000000 0.000000
# 5 0.000000 0.000000 0.000000 0.000000 0.021940 0.000000
# 6 0.000000 0.000000 0.000000 0.000000 0.000000 0.029917
#
#
# Mechanical properties :
#
#
# Convention : Reuss Voigt Hill
#
# Bulk Modulus (GPa) = 98.08014 99.15363 98.61688
# Shear Modulus (GPa) = 26.34918 34.32748 30.33833
#
# Velocity S-wave (km/s) = 3.79983 4.33712 4.07733
# Velocity P-wave (km/s) = 8.54383 8.91148 8.72959
#
# Compressibility (1/GPa) = 0.01019574
#
# Stress axis : x y z
#
# Youngs Moduli (GPa) = 39.91218 39.91239 88.73202
#
# Poissons Ratio (x) = 0.74805 0.30391
# Poissons Ratio (y) = 0.74805 0.30388
# Poissons Ratio (z) = 0.13670 0.13669
#
# Static dielectric constant tensor:
#      x y z
#    x 1.644470 0.000000 0.000000 
#    y 0.000000 1.644470 0.000000 
#    z 0.000000 0.000000 1.631760 
# 
# From -- ./inp_files/1631.got.cif
#   From: 2010.05.17/outbox.cif.g08.bks.cpg/sg113_cif.got.tgz:1631.got - 2010.05.20 11:03:00.
