data_PCOD9555510
_publ_section_title
;
Structure prediction by ZEFSAII (Michael W. Deem and Ramdas Pophale) SiO2 
 PCOD9555510
Probable space group: P -4 21 M 
;
_chemical_formula_sum "Si O2"
_cell_formula_units_Z 56
_cell_length_a 12.631533
_cell_length_b 12.631533
_cell_length_c 19.750077
_cell_angle_alpha 90.000000
_cell_angle_beta 90.000000
_cell_angle_gamma 90.000000
_cell_volume 3151.235898
_symmetry_space_group_name_H-M "P -4 21 M "
_symmetry_group_IT_number 113
_symmetry_cell_setting 'tetragonal'
loop_
_space_group_symop_operation_xyz
x,y,z
y,-x,-z
-x,-y,z
-y,x,-z
1/2+x,1/2-y,-z
1/2-x,1/2+y,-z
1/2-y,1/2-x,z
1/2+y,1/2+x,z
loop_
_atom_site_type_symbol
_atom_site_label
_atom_site_fract_x
_atom_site_fract_y
_atom_site_fract_z
Si Si1 0.977870 0.874745 0.721822
Si Si2 0.840224 0.166326 0.153727
Si Si3 0.504291 0.173668 0.896133
Si Si4 0.191591 0.860091 0.654705
Si Si5 0.339543 0.444731 0.989532
Si Si6 0.274675 0.607885 0.360974
Si Si7 0.141639 0.100898 0.494026
O O1 0.090288 0.828895 0.699841
O O2 0.930752 0.850975 0.795152
O O3 0.882207 0.845701 0.671290
O O4 0.000000 0.000000 0.715359
O O5 0.744923 0.244923 0.172546
O O6 0.947619 0.237888 0.151052
O O7 0.821012 0.120362 0.078776
O O8 0.409618 0.090383 0.912891
O O9 0.601741 0.101741 0.869704
O O10 0.543048 0.238986 0.961803
O O11 0.290896 0.790896 0.674006
O O12 0.158599 0.838136 0.576508
O O13 0.221298 0.984205 0.658182
O O14 0.384097 0.562605 0.974073
O O15 0.173338 0.673338 0.336650
O O16 0.283011 0.616528 0.442157
O O17 0.024601 0.134760 0.518478
#
# Coordination Sequence:
#
# PCOD9555510 Si02
#       7
#     8   8   8   8   8   8   8
#     4  10  21  36  55  76 106 146 186 224 261 326
#     4  10  20  34  56  81 107 142 183 221 264 322
#     4   9  18  33  53  80 112 139 171 224 282 324
#     4  10  20  35  54  81 111 142 180 229 279 324
#     4   9  18  31  54  80 107 143 182 223 264 318
#     4  10  19  33  55  81 107 143 182 224 278 328
#     4   9  15  29  55  83 106 135 184 230 271 323
#
# _framework density 17.770803999999998
#
# number of rings (size 3 to 8) (size 9 to 14) (size 15 to 20)
#    0.000    2.429    1.429    1.286    4.000    0.857 
#    0.000    3.571    0.000    6.000    0.000    0.000 
#    0.000    0.000    0.000    0.000    0.000    0.000 
#
# Total GULP energy -311990.394211 kJ/mol
# GULP energy per Si atom -5571.257039 kJ/mol
# Density = 1.773036 g / cm^3
# Si number density = 17.770804 Si / 1000 Ang^3
#
#
#
# Elastic Constant Matrix: (Units=GPa)
#
#
# Indices 1 2 3 4 5 6 
#
# 1 96.7916 36.8605 22.6354 0.0000 0.0000 0.0000
# 2 36.8605 96.7921 22.6350 0.0000 0.0000 0.0000
# 3 22.6354 22.6350 42.3976 0.0000 0.0000 0.0000
# 4 0.0000 0.0000 0.0000 9.5994 0.0000 0.0000
# 5 0.0000 0.0000 0.0000 0.0000 9.5993 0.0000
# 6 0.0000 0.0000 0.0000 0.0000 0.0000 26.8438
#
#
#
# Elastic Compliance Matrix: (Units=1/GPa)
#
#
# Indices 1 2 3 4 5 6 
#
# 1 0.012910 -0.003776 -0.004876 0.000000 0.000000 0.000000
# 2 -0.003776 0.012910 -0.004876 0.000000 0.000000 0.000000
# 3 -0.004876 -0.004876 0.028793 0.000000 0.000000 0.000000
# 4 0.000000 0.000000 0.000000 0.104173 0.000000 0.000000
# 5 0.000000 0.000000 0.000000 0.000000 0.104174 0.000000
# 6 0.000000 0.000000 0.000000 0.000000 0.000000 0.037253
#
#
# Mechanical properties :
#
#
# Convention : Reuss Voigt Hill
#
# Bulk Modulus (GPa) = 36.29077 44.47148 40.38112
# Shear Modulus (GPa) = 14.86081 19.46517 17.16299
#
# Velocity S-wave (km/s) = 2.89493 3.31319 3.11110
# Velocity P-wave (km/s) = 5.62495 6.30204 5.97310
#
# Compressibility (1/GPa) = 0.02755522
#
# Stress axis : x y z
#
# Youngs Moduli (GPa) = 77.46021 77.46103 34.73062
#
# Poissons Ratio (x) = 0.29249 0.16936
# Poissons Ratio (y) = 0.29249 0.16936
# Poissons Ratio (z) = 0.37773 0.37772
#
# Static dielectric constant tensor:
#      x y z
#    x 1.610070 0.000000 0.000000 
#    y 0.000000 1.610070 0.000000 
#    z 0.000000 0.000000 1.625200 
# 
# From -- ./inp_files/2671.got.cif
#   From: 2010.05.17/outbox.cif.g08.bks.cpg/sg113_cif.got.tgz:2671.got - 2010.05.20 11:03:00.
