data_PCOD9555000
_publ_section_title
;
Structure prediction by ZEFSAII (Michael W. Deem and Ramdas Pophale) SiO2 
 PCOD9555000
Probable space group: P -4 2 C
;
_chemical_formula_sum "Si O2"
_cell_formula_units_Z 44
_cell_length_a 8.846866
_cell_length_b 8.846866
_cell_length_c 31.255708
_cell_angle_alpha 90.000000
_cell_angle_beta 90.000000
_cell_angle_gamma 90.000000
_cell_volume 2446.291686
_symmetry_space_group_name_H-M "P -4 2 C"
_symmetry_group_IT_number 112
_symmetry_cell_setting 'tetragonal'
loop_
_space_group_symop_operation_xyz
x,y,z
y,-x,-z
-x,-y,z
-y,x,-z
x,-y,1/2-z
-x,y,1/2-z
-y,-x,1/2+z
y,x,1/2+z
loop_
_atom_site_type_symbol
_atom_site_label
_atom_site_fract_x
_atom_site_fract_y
_atom_site_fract_z
Si Si1 0.824607 0.445973 0.205165
Si Si2 0.856729 0.906664 0.832012
Si Si3 0.000000 0.500000 0.445297
Si Si4 0.328051 0.964736 0.391868
Si Si5 0.756655 0.036552 0.490654
Si Si6 0.820978 0.341893 0.372012
O O1 0.755038 0.500000 0.250000
O O2 0.826259 0.264885 0.198963
O O3 0.767660 0.538713 0.163878
O O4 0.000000 0.500000 0.206637
O O5 0.931235 0.788128 0.864907
O O6 0.751337 0.029982 0.856079
O O7 0.000000 0.000000 0.812833
O O8 0.928352 0.623696 0.476549
O O9 0.125156 0.570891 0.414068
O O10 0.296552 0.789801 0.381246
O O11 0.500000 0.000000 0.381408
O O12 0.297152 0.986300 0.442260
O O13 0.835585 0.883948 0.507420
#
# Coordination Sequence:
#
# PCOD9555000 Si02
#       6
#     8   8   4   8   8   8
#     4   9  17  33  58  89 114 140 186 242 293 346
#     4   9  18  33  58  82 110 144 186 231 287 350
#     4  12  18  34  55  80 112 146 191 230 280 346
#     4  11  22  37  52  81 114 149 193 236 292 337
#     4  11  23  33  54  80 109 147 189 234 277 345
#     4  10  19  35  58  81 110 150 183 234 294 347
#
# _framework density 17.986409999999999
#
# number of rings (size 3 to 8) (size 9 to 14) (size 15 to 20)
#    0.000    1.818    5.455    1.091    5.091    0.000 
#    0.000   16.364    0.000    6.000    0.000    0.000 
#    0.000    0.000    0.000    0.000    0.000    0.000 
#
# Total GULP energy -245260.004103 kJ/mol
# GULP energy per Si atom -5574.091002 kJ/mol
# Density = 1.794547 g / cm^3
# Si number density = 17.986410 Si / 1000 Ang^3
#
#
#
# Elastic Constant Matrix: (Units=GPa)
#
#
# Indices 1 2 3 4 5 6 
#
# 1 93.0003 35.7432 40.5313 0.0000 0.0000 0.0000
# 2 35.7432 93.0003 40.5313 0.0000 0.0000 0.0000
# 3 40.5313 40.5313 102.0821 0.0000 0.0000 0.0000
# 4 0.0000 0.0000 0.0000 13.0613 0.0000 0.0000
# 5 0.0000 0.0000 0.0000 0.0000 13.0613 0.0000
# 6 0.0000 0.0000 0.0000 0.0000 0.0000 17.9844
#
#
#
# Elastic Compliance Matrix: (Units=1/GPa)
#
#
# Indices 1 2 3 4 5 6 
#
# 1 0.013911 -0.003554 -0.004112 0.000000 0.000000 0.000000
# 2 -0.003554 0.013911 -0.004112 0.000000 0.000000 0.000000
# 3 -0.004112 -0.004112 0.013061 0.000000 0.000000 0.000000
# 4 0.000000 0.000000 0.000000 0.076562 0.000000 0.000000
# 5 0.000000 0.000000 0.000000 0.000000 0.076562 0.000000
# 6 0.000000 0.000000 0.000000 0.000000 0.000000 0.055604
#
#
# Mechanical properties :
#
#
# Convention : Reuss Voigt Hill
#
# Bulk Modulus (GPa) = 57.71571 57.96603 57.84087
# Shear Modulus (GPa) = 17.92482 20.23986 19.08234
#
# Velocity S-wave (km/s) = 3.16028 3.35817 3.26073
# Velocity P-wave (km/s) = 6.74349 6.87997 6.81208
#
# Compressibility (1/GPa) = 0.01732631
#
# Stress axis : x y z
#
# Youngs Moduli (GPa) = 71.88667 71.88667 76.56189
#
# Poissons Ratio (x) = 0.25551 0.31482
# Poissons Ratio (y) = 0.25551 0.31482
# Poissons Ratio (z) = 0.29560 0.29560
#
# Static dielectric constant tensor:
#      x y z
#    x 1.541300 0.000000 0.000000 
#    y 0.000000 1.541300 0.000000 
#    z 0.000000 0.000000 1.650330 
# 
# From -- ./inp_files/6199.got.cif
#   From: 2010.05.17/outbox.cif.g08.bks.cpg/sg112_4_cif.got.tgz:6199.got - 2010.05.20 10:59:04.
