data_PCOD9555612
_publ_section_title
;
Structure prediction by ZEFSAII (Michael W. Deem and Ramdas Pophale) SiO2 
 PCOD9555612
Probable space group: P -4 21 M 
;
_chemical_formula_sum "Si O2"
_cell_formula_units_Z 42
_cell_length_a 10.892696
_cell_length_b 10.892696
_cell_length_c 16.189335
_cell_angle_alpha 90.000000
_cell_angle_beta 90.000000
_cell_angle_gamma 90.000000
_cell_volume 1920.877973
_symmetry_space_group_name_H-M "P -4 21 M "
_symmetry_group_IT_number 113
_symmetry_cell_setting 'tetragonal'
loop_
_space_group_symop_operation_xyz
x,y,z
y,-x,-z
-x,-y,z
-y,x,-z
1/2+x,1/2-y,-z
1/2-x,1/2+y,-z
1/2-y,1/2-x,z
1/2+y,1/2+x,z
loop_
_atom_site_type_symbol
_atom_site_label
_atom_site_fract_x
_atom_site_fract_y
_atom_site_fract_z
Si Si1 0.500000 0.000000 0.968284
Si Si2 0.176884 0.323117 0.131449
Si Si3 0.992301 0.688891 0.370960
Si Si4 0.963963 0.132648 0.137398
Si Si5 0.830602 0.121285 0.305365
Si Si6 0.305293 0.501628 0.530028
Si Si7 0.687830 0.812171 0.983097
O O1 0.581877 0.081877 0.908279
O O2 0.410519 0.089482 0.017283
O O3 0.283187 0.417713 0.166638
O O4 0.245454 0.254547 0.057139
O O5 0.089787 0.589787 0.337424
O O6 0.044750 0.817534 0.341876
O O7 0.858921 0.641080 0.345866
O O8 0.002738 0.689995 0.470137
O O9 0.872966 0.096065 0.212922
O O10 0.886729 0.215843 0.073753
O O11 0.000000 0.000000 0.101396
O O12 0.722023 0.222023 0.306166
O O13 0.793209 0.018959 0.372486
O O14 0.385328 0.619972 0.507474
#
# Coordination Sequence:
#
# PCOD9555612 Si02
#       7
#     2   4   8   8   8   8   4
#     4   8  20  40  68  92 124 152 194 252 294 364
#     4  10  24  42  68  94 125 162 207 247 320 378
#     4   9  18  31  50  77 105 146 193 243 290 349
#     4  11  25  40  65  94 129 161 206 257 315 379
#     4  10  20  36  55  83 116 155 195 252 309 360
#     4   9  18  31  53  75 108 148 197 238 295 352
#     4  10  22  44  64  98 121 162 202 252 315 380
#
# _framework density 21.864999999999998
#
# number of rings (size 3 to 8) (size 9 to 14) (size 15 to 20)
#    0.000    2.286    0.952    0.571   12.000    0.762 
#    0.000    0.000    2.095    0.000    0.000    0.000 
#    0.000    0.000    0.000    0.000    0.000    0.000 
#
# Total GULP energy -233857.763710 kJ/mol
# GULP energy per Si atom -5568.041993 kJ/mol
# Density = 2.181523 g / cm^3
# Si number density = 21.865000 Si / 1000 Ang^3
#
#
#
# Elastic Constant Matrix: (Units=GPa)
#
#
# Indices 1 2 3 4 5 6 
#
# 1 63.2637 25.1123 4.3609 0.0000 0.0000 0.0000
# 2 25.1123 63.2636 4.3611 0.0000 0.0000 0.0000
# 3 4.3609 4.3611 67.7146 0.0000 0.0000 0.0000
# 4 0.0000 0.0000 0.0000 29.7334 0.0000 0.0000
# 5 0.0000 0.0000 0.0000 0.0000 29.7319 0.0000
# 6 0.0000 0.0000 0.0000 0.0000 0.0000 13.4790
#
#
#
# Elastic Compliance Matrix: (Units=1/GPa)
#
#
# Indices 1 2 3 4 5 6 
#
# 1 0.018800 -0.007412 -0.000733 0.000000 0.000000 0.000000
# 2 -0.007412 0.018800 -0.000733 0.000000 0.000000 0.000000
# 3 -0.000733 -0.000733 0.014862 0.000000 0.000000 0.000000
# 4 0.000000 0.000000 0.000000 0.033632 0.000000 0.000000
# 5 0.000000 0.000000 0.000000 0.000000 0.033634 0.000000
# 6 0.000000 0.000000 0.000000 0.000000 0.000000 0.074190
#
#
# Mechanical properties :
#
#
# Convention : Reuss Voigt Hill
#
# Bulk Modulus (GPa) = 28.81505 29.10117 28.95811
# Shear Modulus (GPa) = 22.39718 25.28269 23.83993
#
# Velocity S-wave (km/s) = 3.20400 3.40414 3.30559
# Velocity P-wave (km/s) = 5.18601 5.36557 5.27655
#
# Compressibility (1/GPa) = 0.03470409
#
# Stress axis : x y z
#
# Youngs Moduli (GPa) = 53.19279 53.19275 67.28416
#
# Poissons Ratio (x) = 0.39426 0.04934
# Poissons Ratio (y) = 0.39426 0.04935
# Poissons Ratio (z) = 0.03901 0.03901
#
# Static dielectric constant tensor:
#      x y z
#    x 1.840740 0.000000 0.000000 
#    y 0.000000 1.840740 0.000000 
#    z 0.000000 0.000000 1.859290 
# 
# From -- ./inp_files/2423.got.cif
#   From: 2010.05.17/outbox.cif.g08.bks.cpg/sg113_cif.got.tgz:2423.got - 2010.05.20 11:03:00.
