data_PCOD9555881
_publ_section_title
;
Structure prediction by ZEFSAII (Michael W. Deem and Ramdas Pophale) SiO2 
 PCOD9555881
Probable space group: P -4 21 C
;
_chemical_formula_sum "Si O2"
_cell_formula_units_Z 36
_cell_length_a 14.294509
_cell_length_b 14.294509
_cell_length_c 9.802034
_cell_angle_alpha 90.000000
_cell_angle_beta 90.000000
_cell_angle_gamma 90.000000
_cell_volume 2002.878891
_symmetry_space_group_name_H-M "P -4 21 C"
_symmetry_group_IT_number 114
_symmetry_cell_setting 'tetragonal'
loop_
_space_group_symop_operation_xyz
x,y,z
y,-x,-z
-x,-y,z
-y,x,-z
1/2+x,1/2-y,1/2-z
1/2-x,1/2+y,1/2-z
1/2-y,1/2-x,1/2+z
1/2+y,1/2+x,1/2+z
loop_
_atom_site_type_symbol
_atom_site_label
_atom_site_fract_x
_atom_site_fract_y
_atom_site_fract_z
Si Si1 0.795953 0.501897 0.277545
Si Si2 0.500000 0.000000 0.131432
Si Si3 0.703865 0.207429 0.595797
Si Si4 0.206576 0.704445 0.346073
Si Si5 0.498293 0.205281 0.035030
O O1 0.774241 0.597671 0.356318
O O2 0.772106 0.406156 0.356191
O O3 0.908555 0.499266 0.276203
O O4 0.760962 0.500179 0.121658
O O5 0.499354 0.907530 0.040629
O O6 0.723635 0.237169 0.441298
O O7 0.767913 0.271965 0.691181
O O8 0.730370 0.097136 0.606866
O O9 0.099983 0.728273 0.391021
#
# Coordination Sequence:
#
# PCOD9555881 Si02
#       5
#     8   4   8   8   8
#     4  10  19  34  56  83 117 149 184 240 294 340
#     4   8  18  28  52  86 112 134 186 234 302 344
#     4  11  22  37  60  87 116 151 195 238 288 345
#     4  11  22  37  60  87 116 151 195 238 288 345
#     4  10  19  34  56  83 117 147 187 236 295 343
#
# _framework density 17.974126999999999
#
# number of rings (size 3 to 8) (size 9 to 14) (size 15 to 20)
#    0.000    1.778    4.444    0.667    0.000    1.778 
#    0.000    0.000    0.000    8.000    0.000    0.000 
#    0.000    0.000    0.000    0.000    0.000    0.000 
#
# Total GULP energy -200490.074116 kJ/mol
# GULP energy per Si atom -5569.168725 kJ/mol
# Density = 1.793322 g / cm^3
# Si number density = 17.974127 Si / 1000 Ang^3
#
#
#
# Elastic Constant Matrix: (Units=GPa)
#
#
# Indices 1 2 3 4 5 6 
#
# 1 70.8171 3.0479 -2.7517 0.0000 0.0000 0.0000
# 2 3.0479 70.8171 -2.7517 0.0000 0.0000 0.0000
# 3 -2.7517 -2.7517 44.2797 0.0000 0.0000 0.0000
# 4 0.0000 0.0000 0.0000 20.6727 0.0000 0.0000
# 5 0.0000 0.0000 0.0000 0.0000 20.6727 0.0000
# 6 0.0000 0.0000 0.0000 0.0000 0.0000 17.8598
#
#
#
# Elastic Compliance Matrix: (Units=1/GPa)
#
#
# Indices 1 2 3 4 5 6 
#
# 1 0.014179 -0.000577 0.000845 0.000000 0.000000 0.000000
# 2 -0.000577 0.014179 0.000845 0.000000 0.000000 0.000000
# 3 0.000845 0.000845 0.022689 0.000000 0.000000 0.000000
# 4 0.000000 0.000000 0.000000 0.048373 0.000000 0.000000
# 5 0.000000 0.000000 0.000000 0.000000 0.048373 0.000000
# 6 0.000000 0.000000 0.000000 0.000000 0.000000 0.055992
#
#
# Mechanical properties :
#
#
# Convention : Reuss Voigt Hill
#
# Bulk Modulus (GPa) = 18.77157 20.11143 19.44150
# Shear Modulus (GPa) = 22.79828 24.39899 23.59864
#
# Velocity S-wave (km/s) = 3.56532 3.68836 3.62736
# Velocity P-wave (km/s) = 5.23593 5.41775 5.32762
#
# Compressibility (1/GPa) = 0.05327205
#
# Stress axis : x y z
#
# Youngs Moduli (GPa) = 70.52892 70.52892 44.07467
#
# Poissons Ratio (x) = 0.04072 -0.03725
# Poissons Ratio (y) = 0.04072 -0.03725
# Poissons Ratio (z) = -0.05961 -0.05961
#
# Static dielectric constant tensor:
#      x y z
#    x 1.631630 0.000000 0.000000 
#    y 0.000000 1.631630 0.000000 
#    z 0.000000 0.000000 1.612350 
# 
# From -- ./inp_files/706.got.cif
#   From: 2010.05.17/outbox.cif.g08.bks.cpg/sg114_1_cif.got.tgz:706.got - 2010.05.20 11:04:54.
