data_PCOD9555540
_publ_section_title
;
Structure prediction by ZEFSAII (Michael W. Deem and Ramdas Pophale) SiO2 
 PCOD9555540
Probable space group: P -4 21 M 
;
_chemical_formula_sum "Si O2"
_cell_formula_units_Z 64
_cell_length_a 11.932628
_cell_length_b 11.932628
_cell_length_c 23.777993
_cell_angle_alpha 90.000000
_cell_angle_beta 90.000000
_cell_angle_gamma 90.000000
_cell_volume 3385.691617
_symmetry_space_group_name_H-M "P -4 21 M "
_symmetry_group_IT_number 113
_symmetry_cell_setting 'tetragonal'
loop_
_space_group_symop_operation_xyz
x,y,z
y,-x,-z
-x,-y,z
-y,x,-z
1/2+x,1/2-y,-z
1/2-x,1/2+y,-z
1/2-y,1/2-x,z
1/2+y,1/2+x,z
loop_
_atom_site_type_symbol
_atom_site_label
_atom_site_fract_x
_atom_site_fract_y
_atom_site_fract_z
Si Si1 0.164024 0.856925 0.239983
Si Si2 0.744154 0.571071 0.064502
Si Si3 0.867833 0.028790 0.359898
Si Si4 0.747579 0.936597 0.046831
Si Si5 0.003496 0.312924 0.187605
Si Si6 0.827422 0.144151 0.572586
Si Si7 0.293144 0.609367 0.449249
Si Si8 0.817116 0.498647 0.834869
O O1 0.259471 0.759471 0.240596
O O2 0.154595 0.915063 0.300483
O O3 0.048596 0.792211 0.222445
O O4 0.208779 0.955970 0.198621
O O5 0.851893 0.648108 0.050560
O O6 0.639651 0.653550 0.071451
O O7 0.771948 0.511260 0.122973
O O8 0.719746 0.495928 0.010550
O O9 0.833729 0.115973 0.408423
O O10 0.818256 0.908838 0.376991
O O11 0.000000 0.000000 0.364609
O O12 0.645161 0.854840 0.032227
O O13 0.708326 0.011400 0.098879
O O14 0.910389 0.410389 0.191707
O O15 0.122834 0.377167 0.201206
O O16 0.720267 0.220267 0.571317
O O17 0.890602 0.163078 0.513182
O O18 0.787774 0.016187 0.573734
O O19 0.178441 0.678441 0.447225
O O20 0.915016 0.584985 0.819168
O O21 0.873921 0.373921 0.826875
#
# Coordination Sequence:
#
# PCOD9555540 Si02
#       8
#     8   8   8   8   8   8   8   8
#     4  10  21  37  58  84 113 151 198 245 297 361
#     4  10  21  35  53  79 110 142 182 237 297 352
#     4  10  21  36  58  85 115 154 197 238 296 354
#     4  10  21  35  52  77 108 142 183 232 287 348
#     4   9  19  37  59  81 109 150 197 247 303 358
#     4  10  20  35  58  87 120 159 199 244 296 350
#     4  10  19  35  59  84 119 159 199 246 291 348
#     4   9  19  36  56  76 105 149 192 234 287 349
#
# _framework density 18.903079000000002
#
# number of rings (size 3 to 8) (size 9 to 14) (size 15 to 20)
#    0.000    2.250    1.250    1.125    1.750    3.250 
#    0.000    2.500    0.000    4.125    0.000    0.000 
#    0.000    0.000    0.000    0.000    0.000    0.000 
#
# Total GULP energy -356376.542433 kJ/mol
# GULP energy per Si atom -5568.383476 kJ/mol
# Density = 1.886005 g / cm^3
# Si number density = 18.903079 Si / 1000 Ang^3
#
#
#
# Elastic Constant Matrix: (Units=GPa)
#
#
# Indices 1 2 3 4 5 6 
#
# 1 55.3955 29.7281 27.6972 0.0000 0.0000 0.0000
# 2 29.7281 55.3948 27.6976 0.0000 0.0000 0.0000
# 3 27.6972 27.6976 68.7214 0.0000 0.0000 0.0000
# 4 0.0000 0.0000 0.0000 29.7831 0.0000 0.0000
# 5 0.0000 0.0000 0.0000 0.0000 29.7829 0.0000
# 6 0.0000 0.0000 0.0000 0.0000 0.0000 2.7126
#
#
#
# Elastic Compliance Matrix: (Units=1/GPa)
#
#
# Indices 1 2 3 4 5 6 
#
# 1 0.027442 -0.011518 -0.006418 0.000000 0.000000 0.000000
# 2 -0.011518 0.027443 -0.006418 0.000000 0.000000 0.000000
# 3 -0.006418 -0.006418 0.019725 0.000000 0.000000 0.000000
# 4 0.000000 0.000000 0.000000 0.033576 0.000000 0.000000
# 5 0.000000 0.000000 0.000000 0.000000 0.033576 0.000000
# 6 0.000000 0.000000 0.000000 0.000000 0.000000 0.368647
#
#
# Mechanical properties :
#
#
# Convention : Reuss Voigt Hill
#
# Bulk Modulus (GPa) = 38.60829 38.86195 38.73512
# Shear Modulus (GPa) = 8.80667 18.74830 13.77749
#
# Velocity S-wave (km/s) = 2.16078 3.15272 2.70265
# Velocity P-wave (km/s) = 5.16662 5.81859 5.50227
#
# Compressibility (1/GPa) = 0.02590117
#
# Stress axis : x y z
#
# Youngs Moduli (GPa) = 36.44037 36.43958 50.69697
#
# Poissons Ratio (x) = 0.41971 0.32537
# Poissons Ratio (y) = 0.41972 0.32539
# Poissons Ratio (z) = 0.23387 0.23388
#
# Static dielectric constant tensor:
#      x y z
#    x 1.682780 0.000000 0.000000 
#    y 0.000000 1.682770 0.000000 
#    z 0.000000 0.000000 1.654480 
# 
# From -- ./inp_files/2868.got.cif
#   From: 2010.05.17/outbox.cif.g08.bks.cpg/sg113_cif.got.tgz:2868.got - 2010.05.20 11:03:00.
