data_PCOD9555429
_publ_section_title
;
Structure prediction by ZEFSAII (Michael W. Deem and Ramdas Pophale) SiO2 
 PCOD9555429
Probable space group: P -4 2 C
;
_chemical_formula_sum "Si O2"
_cell_formula_units_Z 48
_cell_length_a 9.296299
_cell_length_b 9.296299
_cell_length_c 32.180580
_cell_angle_alpha 90.000000
_cell_angle_beta 90.000000
_cell_angle_gamma 90.000000
_cell_volume 2781.083539
_symmetry_space_group_name_H-M "P -4 2 C"
_symmetry_group_IT_number 112
_symmetry_cell_setting 'tetragonal'
loop_
_space_group_symop_operation_xyz
x,y,z
y,-x,-z
-x,-y,z
-y,x,-z
x,-y,1/2-z
-x,y,1/2-z
-y,-x,1/2+z
y,x,1/2+z
loop_
_atom_site_type_symbol
_atom_site_label
_atom_site_fract_x
_atom_site_fract_y
_atom_site_fract_z
Si Si1 0.334323 0.324540 0.167419
Si Si2 0.830072 0.327733 0.084262
Si Si3 0.672267 0.830072 0.584262
Si Si4 0.324341 0.834145 0.750000
Si Si5 0.665677 0.675460 0.332581
Si Si6 0.829053 0.170947 0.500000
O O1 0.257505 0.279856 0.124774
O O2 0.247765 0.277905 0.208304
O O3 0.500000 0.278982 0.169049
O O4 0.332514 0.500000 0.167636
O O5 0.814460 0.500000 0.080076
O O6 0.742495 0.279856 0.124774
O O7 0.782798 0.252343 0.041708
O O8 0.000000 0.297538 0.090459
O O9 0.747657 0.782798 0.541708
O O10 0.500000 0.833282 0.750000
O O11 0.277905 0.752235 0.708304
O O12 0.278890 0.000000 0.750000
O O13 0.000000 0.194656 0.505194
#
# Coordination Sequence:
#
# PCOD9555429 Si02
#       6
#     8   8   8   8   8   8
#     4   9  16  25  38  59  87 116 146 182 223 265
#     4   9  17  29  44  62  85 112 142 177 217 261
#     4   9  17  29  44  62  85 112 142 177 217 261
#     4   9  15  23  37  57  84 119 154 185 220 264
#     4   9  16  25  38  59  87 116 146 182 223 265
#     4   9  18  32  48  65  86 114 148 183 218 260
#
# _framework density 17.259459
#
# number of rings (size 3 to 8) (size 9 to 14) (size 15 to 20)
#    0.000    3.000    0.000    1.500    0.000    7.333 
#    0.000    0.000    0.000    0.000    0.000    1.167 
#    0.000    9.333    0.000    0.000    0.000    0.000 
#
# Total GULP energy -267494.767890 kJ/mol
# GULP energy per Si atom -5572.807664 kJ/mol
# Density = 1.722018 g / cm^3
# Si number density = 17.259459 Si / 1000 Ang^3
#
#
#
# Elastic Constant Matrix: (Units=GPa)
#
#
# Indices 1 2 3 4 5 6 
#
# 1 52.2383 31.2043 75.1817 0.0000 0.0000 0.0000
# 2 31.2043 52.2383 75.1817 0.0000 0.0000 0.0000
# 3 75.1817 75.1817 226.3314 0.0000 0.0000 0.0000
# 4 0.0000 0.0000 0.0000 -109.2731 0.0000 0.0000
# 5 0.0000 0.0000 0.0000 0.0000 -109.2731 0.0000
# 6 0.0000 0.0000 0.0000 0.0000 0.0000 8.8348
#
#
#
# Elastic Compliance Matrix: (Units=1/GPa)
#
#
# Indices 1 2 3 4 5 6 
#
# 1 0.038698 -0.008844 -0.009917 0.000000 0.000000 0.000000
# 2 -0.008844 0.038698 -0.009917 0.000000 0.000000 0.000000
# 3 -0.009917 -0.009917 0.011007 0.000000 0.000000 0.000000
# 4 0.000000 0.000000 0.000000 -0.009151 0.000000 0.000000
# 5 0.000000 0.000000 0.000000 0.000000 -0.009151 0.000000
# 6 0.000000 0.000000 0.000000 0.000000 0.000000 0.113189
#
#
# Mechanical properties :
#
#
# Convention : Reuss Voigt Hill
#
# Bulk Modulus (GPa) = 32.20817 77.10482 54.65650
# Shear Modulus (GPa) = 19.92079 -31.99291 -6.03606
#
# Velocity S-wave (km/s) = 3.40103 -4.31007 -1.87212
# Velocity P-wave (km/s) = 5.84161 4.47236 5.20223
#
# Compressibility (1/GPa) = 0.03104802
#
# Stress axis : x y z
#
# Youngs Moduli (GPa) = 25.84094 25.84094 90.85424
#
# Poissons Ratio (x) = 0.22853 0.90100
# Poissons Ratio (y) = 0.22853 0.90100
# Poissons Ratio (z) = 0.25626 0.25626
#
# Static dielectric constant tensor:
#      x y z
#    x 1.576080 0.000000 0.000000 
#    y 0.000000 1.576080 0.000000 
#    z 0.000000 0.000000 1.568720 
# 
# From -- ./inp_files/6288.got.cif
#   From: 2010.05.17/outbox.cif.g08.bks.cpg/sg112_4_cif.got.tgz:6288.got - 2010.05.20 10:59:04.
