data_PCOD9555922
_publ_section_title
;
Structure prediction by ZEFSAII (Michael W. Deem and Ramdas Pophale) SiO2 
 PCOD9555922
Probable space group: P -4 21 C
;
_chemical_formula_sum "Si O2"
_cell_formula_units_Z 56
_cell_length_a 14.655123
_cell_length_b 14.655123
_cell_length_c 11.254372
_cell_angle_alpha 90.000000
_cell_angle_beta 90.000000
_cell_angle_gamma 90.000000
_cell_volume 2417.131075
_symmetry_space_group_name_H-M "P -4 21 C"
_symmetry_group_IT_number 114
_symmetry_cell_setting 'tetragonal'
loop_
_space_group_symop_operation_xyz
x,y,z
y,-x,-z
-x,-y,z
-y,x,-z
1/2+x,1/2-y,1/2-z
1/2-x,1/2+y,1/2-z
1/2-y,1/2-x,1/2+z
1/2+y,1/2+x,1/2+z
loop_
_atom_site_type_symbol
_atom_site_label
_atom_site_fract_x
_atom_site_fract_y
_atom_site_fract_z
Si Si1 0.701625 0.321707 0.160064
Si Si2 0.210778 0.845419 0.411741
Si Si3 0.290210 0.639604 0.412886
Si Si4 0.483502 0.131385 0.482212
Si Si5 0.520810 0.143979 0.021860
Si Si6 0.637847 0.674628 0.338394
Si Si7 0.722751 0.027275 0.751430
O O1 0.672841 0.354444 0.027852
O O2 0.692668 0.385999 0.275217
O O3 0.798545 0.267770 0.154265
O O4 0.623037 0.248375 0.194133
O O5 0.257982 0.745363 0.402571
O O6 0.280477 0.923624 0.451990
O O7 0.173827 0.870976 0.282026
O O8 0.214312 0.569209 0.458621
O O9 0.360839 0.642425 0.525380
O O10 0.562455 0.088543 0.562951
O O11 0.535240 0.156536 0.361689
O O12 0.407818 0.056444 0.449274
O O13 0.472904 0.182074 0.140131
O O14 0.533437 0.696652 0.305242
#
# Coordination Sequence:
#
# PCOD9555922 Si02
#       7
#     8   8   8   8   8   8   8
#     4   9  17  31  53  74 104 142 181 226 270 322
#     4   9  17  31  50  70  99 140 182 218 259 320
#     4   9  17  31  50  70  99 140 182 218 259 320
#     4  10  20  32  48  74 111 146 177 219 277 344
#     4  10  20  32  48  74 111 146 177 219 277 344
#     4   9  17  31  53  74 104 142 181 226 270 322
#     4  10  20  35  52  78 116 147 182 234 282 333
#
# _framework density 23.167960999999998
#
# number of rings (size 3 to 8) (size 9 to 14) (size 15 to 20)
#    0.000    2.571    0.000    3.429    0.000    2.286 
#    0.000    2.857    0.000    5.143    0.000    0.000 
#    0.000  357.714    0.000    0.000    0.000    0.000 
#
# Total GULP energy -311753.860227 kJ/mol
# GULP energy per Si atom -5567.033218 kJ/mol
# Density = 2.311523 g / cm^3
# Si number density = 23.167961 Si / 1000 Ang^3
#
#
#
# Elastic Constant Matrix: (Units=GPa)
#
#
# Indices 1 2 3 4 5 6 
#
# 1 29.3701 11.7834 19.2281 0.0000 0.0000 0.0000
# 2 11.7834 29.3701 19.2281 0.0000 0.0000 0.0000
# 3 19.2281 19.2281 141.9152 0.0000 0.0000 0.0000
# 4 0.0000 0.0000 0.0000 20.0783 0.0000 0.0000
# 5 0.0000 0.0000 0.0000 0.0000 20.0783 0.0000
# 6 0.0000 0.0000 0.0000 0.0000 0.0000 18.7048
#
#
#
# Elastic Compliance Matrix: (Units=1/GPa)
#
#
# Indices 1 2 3 4 5 6 
#
# 1 0.042341 -0.014520 -0.003770 0.000000 0.000000 0.000000
# 2 -0.014520 0.042341 -0.003770 0.000000 0.000000 0.000000
# 3 -0.003770 -0.003770 0.008068 0.000000 0.000000 0.000000
# 4 0.000000 0.000000 0.000000 0.049805 0.000000 0.000000
# 5 0.000000 0.000000 0.000000 0.000000 0.049805 0.000000
# 6 0.000000 0.000000 0.000000 0.000000 0.000000 0.053462
#
#
# Mechanical properties :
#
#
# Convention : Reuss Voigt Hill
#
# Bulk Modulus (GPa) = 20.56212 33.45941 27.01076
# Shear Modulus (GPa) = 16.33176 21.80000 19.06588
#
# Velocity S-wave (km/s) = 2.65793 3.07083 2.87181
# Velocity P-wave (km/s) = 4.27948 5.20065 4.76239
#
# Compressibility (1/GPa) = 0.04863312
#
# Stress axis : x y z
#
# Youngs Moduli (GPa) = 23.61753 23.61753 123.94745
#
# Poissons Ratio (x) = 0.34292 0.46723
# Poissons Ratio (y) = 0.34292 0.46723
# Poissons Ratio (z) = 0.08903 0.08903
#
# Static dielectric constant tensor:
#      x y z
#    x 1.907930 0.000000 0.000000 
#    y 0.000000 1.907930 0.000000 
#    z 0.000000 0.000000 2.003360 
# 
# From -- ./inp_files/1754.got.cif
#   From: 2010.05.17/outbox.cif.g08.bks.cpg/sg114_1_cif.got.tgz:1754.got - 2010.05.20 11:04:54.
