data_PCOD9555022
_publ_section_title
;
Structure prediction by ZEFSAII (Michael W. Deem and Ramdas Pophale) SiO2 
 PCOD9555022
Probable space group: P -4 2 C
;
_chemical_formula_sum "Si O2"
_cell_formula_units_Z 48
_cell_length_a 9.229129
_cell_length_b 9.229129
_cell_length_c 32.273835
_cell_angle_alpha 90.000000
_cell_angle_beta 90.000000
_cell_angle_gamma 90.000000
_cell_volume 2748.982702
_symmetry_space_group_name_H-M "P -4 2 C"
_symmetry_group_IT_number 112
_symmetry_cell_setting 'tetragonal'
loop_
_space_group_symop_operation_xyz
x,y,z
y,-x,-z
-x,-y,z
-y,x,-z
x,-y,1/2-z
-x,y,1/2-z
-y,-x,1/2+z
y,x,1/2+z
loop_
_atom_site_type_symbol
_atom_site_label
_atom_site_fract_x
_atom_site_fract_y
_atom_site_fract_z
Si Si1 0.176665 0.166232 0.877947
Si Si2 0.671399 0.826540 0.461903
Si Si3 0.826540 0.328601 0.961903
Si Si4 0.176665 0.166232 0.622053
Si Si5 0.823632 0.331128 0.796064
Si Si6 0.668872 0.823632 0.296064
O O1 0.219225 0.256885 0.918383
O O2 0.226948 0.237735 0.834968
O O3 0.000000 0.167924 0.877003
O O4 0.223047 1.000000 0.881468
O O5 0.745836 0.745836 0.500000
O O6 0.500000 0.799981 0.460979
O O7 0.694153 1.000000 0.466437
O O8 0.780775 0.256885 0.918383
O O9 0.226948 0.237735 0.665032
O O10 0.776953 0.282985 0.750000
O O11 0.784133 0.500000 0.801286
O O12 1.000000 0.326072 0.796179
#
# Coordination Sequence:
#
# PCOD9555022 Si02
#       6
#     8   8   8   8   8   8
#     4   9  16  25  39  60  86 117 153 193 236 282
#     4  10  20  33  49  68  91 120 154 193 238 288
#     4  10  20  33  49  68  91 120 154 193 238 288
#     4   9  16  25  39  60  86 117 153 193 236 282
#     4   8  13  21  33  51  80 119 158 193 231 277
#     4   8  13  21  33  51  80 119 158 193 231 277
#
# _framework density 17.461005
#
# number of rings (size 3 to 8) (size 9 to 14) (size 15 to 20)
#    0.000    3.000    0.000    3.000    0.000    6.667 
#    0.000    3.333    0.000    0.000    0.000    0.000 
#    0.000    1.333    0.000   14.000    0.000   19.333 
#
# Total GULP energy -267442.005406 kJ/mol
# GULP energy per Si atom -5571.708446 kJ/mol
# Density = 1.742126 g / cm^3
# Si number density = 17.461005 Si / 1000 Ang^3
#
#
#
# Elastic Constant Matrix: (Units=GPa)
#
#
# Indices 1 2 3 4 5 6 
#
# 1 52.2178 43.6656 77.0898 0.0000 0.0000 0.0000
# 2 43.6656 52.2178 77.0898 0.0000 0.0000 0.0000
# 3 77.0898 77.0898 216.0740 0.0000 0.0000 0.0000
# 4 0.0000 0.0000 0.0000 -13.8265 0.0000 0.0000
# 5 0.0000 0.0000 0.0000 0.0000 -13.8265 0.0000
# 6 0.0000 0.0000 0.0000 0.0000 0.0000 10.1819
#
#
#
# Elastic Compliance Matrix: (Units=1/GPa)
#
#
# Indices 1 2 3 4 5 6 
#
# 1 0.070697 -0.046232 -0.008728 0.000000 0.000000 0.000000
# 2 -0.046232 0.070697 -0.008728 0.000000 0.000000 0.000000
# 3 -0.008728 -0.008728 0.010856 0.000000 0.000000 0.000000
# 4 0.000000 0.000000 0.000000 -0.072325 0.000000 0.000000
# 5 0.000000 0.000000 0.000000 0.000000 -0.072325 0.000000
# 6 0.000000 0.000000 0.000000 0.000000 0.000000 0.098213
#
#
# Mechanical properties :
#
#
# Convention : Reuss Voigt Hill
#
# Bulk Modulus (GPa) = 40.20636 79.57778 59.89207
# Shear Modulus (GPa) = 20.70551 4.68340 12.69445
#
# Velocity S-wave (km/s) = 3.44730 1.63952 2.69925
# Velocity P-wave (km/s) = 6.23871 7.01837 6.64000
#
# Compressibility (1/GPa) = 0.02487168
#
# Stress axis : x y z
#
# Youngs Moduli (GPa) = 14.14492 14.14492 92.11412
#
# Poissons Ratio (x) = 0.65395 0.80400
# Poissons Ratio (y) = 0.65395 0.80400
# Poissons Ratio (z) = 0.12346 0.12346
#
# Static dielectric constant tensor:
#      x y z
#    x 1.582010 0.000000 0.000000 
#    y 0.000000 1.582010 0.000000 
#    z 0.000000 0.000000 1.592840 
# 
# From -- ./inp_files/6262.got.cif
#   From: 2010.05.17/outbox.cif.g08.bks.cpg/sg112_4_cif.got.tgz:6262.got - 2010.05.20 10:59:04.
