data_PCOD9555883
_publ_section_title
;
Structure prediction by ZEFSAII (Michael W. Deem and Ramdas Pophale) SiO2 
 PCOD9555883
Probable space group: P -4 21 C
;
_chemical_formula_sum "Si O2"
_cell_formula_units_Z 58
_cell_length_a 17.512185
_cell_length_b 17.512185
_cell_length_c 8.853063
_cell_angle_alpha 90.000000
_cell_angle_beta 90.000000
_cell_angle_gamma 90.000000
_cell_volume 2715.027468
_symmetry_space_group_name_H-M "P -4 21 C"
_symmetry_group_IT_number 114
_symmetry_cell_setting 'tetragonal'
loop_
_space_group_symop_operation_xyz
x,y,z
y,-x,-z
-x,-y,z
-y,x,-z
1/2+x,1/2-y,1/2-z
1/2-x,1/2+y,1/2-z
1/2-y,1/2-x,1/2+z
1/2+y,1/2+x,1/2+z
loop_
_atom_site_type_symbol
_atom_site_label
_atom_site_fract_x
_atom_site_fract_y
_atom_site_fract_z
Si Si1 0.881904 0.651470 0.629554
Si Si2 0.588764 0.992565 0.758282
Si Si3 0.557576 0.735144 0.775145
Si Si4 0.012422 0.125074 0.475285
Si Si5 0.909878 0.739862 0.899597
Si Si6 0.559308 0.866176 0.969261
Si Si7 0.500000 0.500000 0.500000
Si Si8 0.633576 0.588597 0.658195
O O1 0.875777 0.575453 0.732333
O O2 0.871670 0.726230 0.733623
O O3 0.822214 0.634564 0.499653
O O4 0.969096 0.644097 0.570956
O O5 0.585136 0.949267 0.916039
O O6 0.635667 0.938716 0.647071
O O7 0.500000 0.000000 0.708003
O O8 0.499175 0.769222 0.650244
O O9 0.597892 0.800941 0.871595
O O10 0.615293 0.675271 0.703258
O O11 0.507609 0.687771 0.898966
O O12 0.043346 0.156008 0.313308
O O13 0.934537 0.075440 0.460759
O O14 0.911959 0.812252 0.011436
O O15 0.554671 0.550126 0.605035
#
# Coordination Sequence:
#
# PCOD9555883 Si02
#       8
#     8   8   8   8   8   8   2   8
#     4  10  21  38  58  89 117 164 217 260 317 387
#     4  10  19  34  58  85 114 155 202 270 314 357
#     4  10  22  39  56  95 125 161 212 263 322 397
#     4   9  19  36  61  89 124 163 211 266 322 382
#     4  11  23  37  65  90 126 166 214 272 317 386
#     4  10  21  34  58  84 122 151 209 266 314 372
#     4  12  20  40  66 104 132 164 222 276 316 388
#     4  11  22  38  66  93 134 169 210 269 332 379
#
# _framework density 21.362583999999998
#
# number of rings (size 3 to 8) (size 9 to 14) (size 15 to 20)
#    0.000    1.793    2.759    2.897    5.793    0.000 
#    0.000    1.379    0.000    0.000    0.000    0.000 
#    0.000    0.000    0.000    0.000    0.000    0.000 
#
# Total GULP energy -323082.061899 kJ/mol
# GULP energy per Si atom -5570.380378 kJ/mol
# Density = 2.131396 g / cm^3
# Si number density = 21.362584 Si / 1000 Ang^3
#
#
#
# Elastic Constant Matrix: (Units=GPa)
#
#
# Indices 1 2 3 4 5 6 
#
# 1 31.9102 3.9668 4.8018 0.0000 0.0000 0.0000
# 2 3.9668 31.9102 4.8018 0.0000 0.0000 0.0000
# 3 4.8018 4.8018 67.6097 0.0000 0.0000 0.0000
# 4 0.0000 0.0000 0.0000 42.4197 0.0000 0.0000
# 5 0.0000 0.0000 0.0000 0.0000 42.4197 0.0000
# 6 0.0000 0.0000 0.0000 0.0000 0.0000 19.1767
#
#
#
# Elastic Compliance Matrix: (Units=1/GPa)
#
#
# Indices 1 2 3 4 5 6 
#
# 1 0.032100 -0.003687 -0.002018 0.000000 0.000000 0.000000
# 2 -0.003687 0.032100 -0.002018 0.000000 0.000000 0.000000
# 3 -0.002018 -0.002018 0.015077 0.000000 0.000000 0.000000
# 4 0.000000 0.000000 0.000000 0.023574 0.000000 0.000000
# 5 0.000000 0.000000 0.000000 0.000000 0.023574 0.000000
# 6 0.000000 0.000000 0.000000 0.000000 0.000000 0.052147
#
#
# Mechanical properties :
#
#
# Convention : Reuss Voigt Hill
#
# Bulk Modulus (GPa) = 15.66612 17.61897 16.64254
# Shear Modulus (GPa) = 23.22401 28.66053 25.94227
#
# Velocity S-wave (km/s) = 3.30075 3.66679 3.48857
# Velocity P-wave (km/s) = 4.67717 5.11787 4.90248
#
# Compressibility (1/GPa) = 0.06383202
#
# Stress axis : x y z
#
# Youngs Moduli (GPa) = 31.15272 31.15272 66.32438
#
# Poissons Ratio (x) = 0.11485 0.13384
# Poissons Ratio (y) = 0.11485 0.13384
# Poissons Ratio (z) = 0.06287 0.06287
#
# Static dielectric constant tensor:
#      x y z
#    x 1.659130 0.000000 0.000000 
#    y 0.000000 1.659130 0.000000 
#    z 0.000000 0.000000 1.811070 
# 
# From -- ./inp_files/1029.got.cif
#   From: 2010.05.17/outbox.cif.g08.bks.cpg/sg114_1_cif.got.tgz:1029.got - 2010.05.20 11:04:54.
