data_PCOD9555793
_publ_section_title
;
Structure prediction by ZEFSAII (Michael W. Deem and Ramdas Pophale) SiO2 
 PCOD9555793
Probable space group: P -4 21 M 
;
_chemical_formula_sum "Si O2"
_cell_formula_units_Z 26
_cell_length_a 10.954379
_cell_length_b 10.954379
_cell_length_c 10.502347
_cell_angle_alpha 90.000000
_cell_angle_beta 90.000000
_cell_angle_gamma 90.000000
_cell_volume 1260.265039
_symmetry_space_group_name_H-M "P -4 21 M "
_symmetry_group_IT_number 113
_symmetry_cell_setting 'tetragonal'
loop_
_space_group_symop_operation_xyz
x,y,z
y,-x,-z
-x,-y,z
-y,x,-z
1/2+x,1/2-y,-z
1/2-x,1/2+y,-z
1/2-y,1/2-x,z
1/2+y,1/2+x,z
loop_
_atom_site_type_symbol
_atom_site_label
_atom_site_fract_x
_atom_site_fract_y
_atom_site_fract_z
Si Si1 0.644217 0.144217 0.170450
Si Si2 0.668847 0.831154 0.787106
Si Si3 0.052222 0.744673 0.631490
Si Si4 0.984527 0.851479 0.360084
Si Si5 0.500000 0.000000 0.958132
O O1 0.743645 0.243645 0.131729
O O2 0.543828 0.208720 0.260860
O O3 0.581721 0.081721 0.051504
O O4 0.581502 0.736609 0.708847
O O5 0.583705 0.916296 0.870249
O O6 0.123261 0.623261 0.591529
O O7 0.151334 0.843341 0.679910
O O8 0.989860 0.803776 0.506314
O O9 0.000000 0.000000 0.342086
#
# Coordination Sequence:
#
# PCOD9555793 Si02
#       5
#     4   4   8   8   2
#     4  12  26  51  73 100 143 197 251 308 358 429
#     4  12  28  49  69 103 149 184 252 310 345 431
#     4  12  23  41  74 108 154 181 224 298 381 452
#     4  12  23  41  71 115 145 180 224 290 381 453
#     4  12  32  52  70  98 136 206 270 298 350 404
#
# _framework density 20.630583000000001
#
# number of rings (size 3 to 8) (size 9 to 14) (size 15 to 20)
#    0.000    0.000    9.231    0.000    4.308    2.462 
#    0.000    0.000    0.000    0.000    0.000    0.000 
#    0.000    0.000    0.000    0.000    0.000    0.000 
#
# Total GULP energy -144910.845357 kJ/mol
# GULP energy per Si atom -5573.494052 kJ/mol
# Density = 2.058363 g / cm^3
# Si number density = 20.630583 Si / 1000 Ang^3
#
#
#
# Elastic Constant Matrix: (Units=GPa)
#
#
# Indices 1 2 3 4 5 6 
#
# 1 129.3485 90.2914 59.4334 0.0000 0.0000 0.0000
# 2 90.2914 129.3465 59.4334 0.0000 0.0000 0.0000
# 3 59.4334 59.4334 88.0567 0.0000 0.0000 0.0000
# 4 0.0000 0.0000 0.0000 6.5449 0.0000 0.0000
# 5 0.0000 0.0000 0.0000 0.0000 6.5454 0.0000
# 6 0.0000 0.0000 0.0000 0.0000 0.0000 74.4407
#
#
#
# Elastic Compliance Matrix: (Units=1/GPa)
#
#
# Indices 1 2 3 4 5 6 
#
# 1 0.016388 -0.009216 -0.004841 0.000000 0.000000 0.000000
# 2 -0.009216 0.016389 -0.004842 0.000000 0.000000 0.000000
# 3 -0.004841 -0.004842 0.017892 0.000000 0.000000 0.000000
# 4 0.000000 0.000000 0.000000 0.152790 0.000000 0.000000
# 5 0.000000 0.000000 0.000000 0.000000 0.152778 0.000000
# 6 0.000000 0.000000 0.000000 0.000000 0.000000 0.013434
#
#
# Mechanical properties :
#
#
# Convention : Reuss Voigt Hill
#
# Bulk Modulus (GPa) = 77.68710 85.00755 81.34732
# Shear Modulus (GPa) = 12.14307 26.67911 19.41109
#
# Velocity S-wave (km/s) = 2.42873 3.59999 3.07072
# Velocity P-wave (km/s) = 6.75300 7.65336 7.21723
#
# Compressibility (1/GPa) = 0.01287215
#
# Stress axis : x y z
#
# Youngs Moduli (GPa) = 61.01859 61.01726 55.89178
#
# Poissons Ratio (x) = 0.56231 0.27059
# Poissons Ratio (y) = 0.56232 0.27060
# Poissons Ratio (z) = 0.29541 0.29542
#
# Static dielectric constant tensor:
#      x y z
#    x 1.850830 0.000000 0.000000 
#    y 0.000000 1.850830 0.000000 
#    z 0.000000 0.000000 1.701550 
# 
# From -- ./inp_files/739.got.cif
#   From: 2010.05.17/outbox.cif.g08.bks.cpg/sg113_cif.got.tgz:739.got - 2010.05.20 11:03:00.
