data_PCOD9555551
_publ_section_title
;
Structure prediction by ZEFSAII (Michael W. Deem and Ramdas Pophale) SiO2 
 PCOD9555551
Probable space group: P -4 21 M 
;
_chemical_formula_sum "Si O2"
_cell_formula_units_Z 56
_cell_length_a 15.097080
_cell_length_b 15.097080
_cell_length_c 9.956081
_cell_angle_alpha 90.000000
_cell_angle_beta 90.000000
_cell_angle_gamma 90.000000
_cell_volume 2269.208147
_symmetry_space_group_name_H-M "P -4 21 M "
_symmetry_group_IT_number 113
_symmetry_cell_setting 'tetragonal'
loop_
_space_group_symop_operation_xyz
x,y,z
y,-x,-z
-x,-y,z
-y,x,-z
1/2+x,1/2-y,-z
1/2-x,1/2+y,-z
1/2-y,1/2-x,z
1/2+y,1/2+x,z
loop_
_atom_site_type_symbol
_atom_site_label
_atom_site_fract_x
_atom_site_fract_y
_atom_site_fract_z
Si Si1 0.389215 0.589487 0.993922
Si Si2 0.774906 0.132697 0.756383
Si Si3 0.624285 0.453274 0.468037
Si Si4 0.327412 0.969602 0.143150
Si Si5 0.854866 0.495727 0.172217
Si Si6 0.769654 0.401099 0.629458
Si Si7 0.681305 0.674743 0.766203
O O1 0.317777 0.616411 0.105305
O O2 0.487766 0.609412 0.049133
O O3 0.379232 0.651416 0.867809
O O4 0.697508 0.197508 0.811112
O O5 0.725217 0.038288 0.739238
O O6 0.824773 0.194793 0.648738
O O7 0.548487 0.415748 0.570116
O O8 0.716899 0.470245 0.541104
O O9 0.639493 0.381629 0.352287
O O10 0.421689 0.921689 0.173447
O O11 0.254090 0.896581 0.183615
O O12 0.302856 0.054088 0.233601
O O13 0.329161 0.993251 0.985613
O O14 0.935103 0.564898 0.194428
O O15 0.899502 0.399502 0.196699
O O16 0.853907 0.353907 0.564516
O O17 0.738187 0.761814 0.731483
#
# Coordination Sequence:
#
# PCOD9555551 Si02
#       7
#     8   8   8   8   8   8   8
#     4  11  24  37  61  91 130 169 206 259 323 396
#     4  10  21  37  58  88 127 164 208 268 326 388
#     4  11  25  42  67  91 121 167 223 274 324 387
#     4  10  19  36  62  94 130 165 214 273 332 397
#     4   9  17  32  55  86 124 166 211 258 319 394
#     4  11  23  40  62  92 129 167 215 270 330 391
#     4  11  22  42  67  93 130 173 216 269 333 398
#
# _framework density 24.678213
#
# number of rings (size 3 to 8) (size 9 to 14) (size 15 to 20)
#    0.000    1.571    2.857    2.143    2.000    2.000 
#    0.000    0.714    0.000    0.000    0.000    0.000 
#    0.000    0.000    0.000    0.000    0.000    0.000 
#
# Total GULP energy -312794.628340 kJ/mol
# GULP energy per Si atom -5585.618363 kJ/mol
# Density = 2.462204 g / cm^3
# Si number density = 24.678213 Si / 1000 Ang^3
#
#
#
# Elastic Constant Matrix: (Units=GPa)
#
#
# Indices 1 2 3 4 5 6 
#
# 1 89.2275 61.6664 18.5258 0.0000 0.0000 0.0000
# 2 61.6664 89.2284 18.5260 0.0000 0.0000 0.0000
# 3 18.5258 18.5260 52.7519 0.0000 0.0000 0.0000
# 4 0.0000 0.0000 0.0000 24.6744 0.0000 0.0000
# 5 0.0000 0.0000 0.0000 0.0000 24.6743 0.0000
# 6 0.0000 0.0000 0.0000 0.0000 0.0000 65.7775
#
#
#
# Elastic Compliance Matrix: (Units=1/GPa)
#
#
# Indices 1 2 3 4 5 6 
#
# 1 0.021768 -0.014515 -0.002547 0.000000 0.000000 0.000000
# 2 -0.014515 0.021767 -0.002547 0.000000 0.000000 0.000000
# 3 -0.002547 -0.002547 0.020746 0.000000 0.000000 0.000000
# 4 0.000000 0.000000 0.000000 0.040528 0.000000 0.000000
# 5 0.000000 0.000000 0.000000 0.000000 0.040528 0.000000
# 6 0.000000 0.000000 0.000000 0.000000 0.000000 0.015203
#
#
# Mechanical properties :
#
#
# Convention : Reuss Voigt Hill
#
# Bulk Modulus (GPa) = 39.89997 47.62714 43.76355
# Shear Modulus (GPa) = 24.02559 31.85788 27.94174
#
# Velocity S-wave (km/s) = 3.12357 3.59685 3.36853
# Velocity P-wave (km/s) = 5.40482 6.04905 5.73599
#
# Compressibility (1/GPa) = 0.02506268
#
# Stress axis : x y z
#
# Youngs Moduli (GPa) = 45.93984 45.94027 48.20291
#
# Poissons Ratio (x) = 0.66682 0.12277
# Poissons Ratio (y) = 0.66681 0.12278
# Poissons Ratio (z) = 0.11701 0.11701
#
# Static dielectric constant tensor:
#      x y z
#    x 2.020530 0.000000 0.000000 
#    y 0.000000 2.020530 0.000000 
#    z 0.000000 0.000000 1.913120 
# 
# From -- ./inp_files/1938.got.cif
#   From: 2010.05.17/outbox.cif.g08.bks.cpg/sg113_cif.got.tgz:1938.got - 2010.05.20 11:03:00.
