data_PCOD9555735
_publ_section_title
;
Structure prediction by ZEFSAII (Michael W. Deem and Ramdas Pophale) SiO2 
 PCOD9555735
Probable space group: P -4 21 M 
;
_chemical_formula_sum "Si O2"
_cell_formula_units_Z 26
_cell_length_a 12.254928
_cell_length_b 12.254928
_cell_length_c 7.678379
_cell_angle_alpha 90.000000
_cell_angle_beta 90.000000
_cell_angle_gamma 90.000000
_cell_volume 1153.163992
_symmetry_space_group_name_H-M "P -4 21 M "
_symmetry_group_IT_number 113
_symmetry_cell_setting 'tetragonal'
loop_
_space_group_symop_operation_xyz
x,y,z
y,-x,-z
-x,-y,z
-y,x,-z
1/2+x,1/2-y,-z
1/2-x,1/2+y,-z
1/2-y,1/2-x,z
1/2+y,1/2+x,z
loop_
_atom_site_type_symbol
_atom_site_label
_atom_site_fract_x
_atom_site_fract_y
_atom_site_fract_z
Si Si1 0.673052 0.001459 0.804587
Si Si2 0.500000 0.500000 0.000000
Si Si3 0.322589 0.501127 0.511123
Si Si4 0.214471 0.892873 0.139220
O O1 0.598361 0.098361 0.729201
O O2 0.593624 0.906377 0.865109
O O3 0.746743 0.962557 0.645905
O O4 0.731616 0.050739 0.971898
O O5 0.585733 0.576329 0.892796
O O6 0.402697 0.600586 0.557765
O O7 0.261576 0.454897 0.680003
O O8 0.272457 0.772457 0.145961
#
# Coordination Sequence:
#
# PCOD9555735 Si02
#       4
#     8   2   8   8
#     4  10  23  42  63  93 133 175 225 283 340 407
#     4  12  24  44  70 100 136 174 232 292 334 408
#     4  11  23  40  64  95 129 166 215 276 339 407
#     4  11  24  43  68  97 133 179 226 280 347 408
#
# _framework density 22.546662999999999
#
# number of rings (size 3 to 8) (size 9 to 14) (size 15 to 20)
#    0.000    1.231    0.000    6.462    0.000    7.385 
#    0.000    3.077    0.000    0.000    0.000    0.000 
#    0.000    0.000    0.000    0.000    0.000    0.000 
#
# Total GULP energy -145146.338803 kJ/mol
# GULP energy per Si atom -5582.551492 kJ/mol
# Density = 2.249535 g / cm^3
# Si number density = 22.546663 Si / 1000 Ang^3
#
#
#
# Elastic Constant Matrix: (Units=GPa)
#
#
# Indices 1 2 3 4 5 6 
#
# 1 71.8035 44.1388 25.1867 0.0000 0.0000 0.0000
# 2 44.1388 71.8035 25.1879 0.0000 0.0000 0.0000
# 3 25.1867 25.1879 89.4226 0.0000 0.0000 0.0000
# 4 0.0000 0.0000 0.0000 -8.0334 0.0000 0.0000
# 5 0.0000 0.0000 0.0000 0.0000 -8.0328 0.0000
# 6 0.0000 0.0000 0.0000 0.0000 0.0000 35.3856
#
#
#
# Elastic Compliance Matrix: (Units=1/GPa)
#
#
# Indices 1 2 3 4 5 6 
#
# 1 0.022987 -0.013160 -0.002768 0.000000 0.000000 0.000000
# 2 -0.013160 0.022988 -0.002768 0.000000 0.000000 0.000000
# 3 -0.002768 -0.002768 0.012742 0.000000 0.000000 0.000000
# 4 0.000000 0.000000 0.000000 -0.124480 0.000000 0.000000
# 5 0.000000 0.000000 0.000000 0.000000 -0.124490 0.000000
# 6 0.000000 0.000000 0.000000 0.000000 0.000000 0.028260
#
#
# Mechanical properties :
#
#
# Convention : Reuss Voigt Hill
#
# Bulk Modulus (GPa) = 46.89312 46.89515 46.89414
# Shear Modulus (GPa) = -42.55576 13.09830 -14.72873
#
# Velocity S-wave (km/s) = -4.34920 2.41289 -2.55866
# Velocity P-wave (km/s) = 2.09219 5.34855 3.48064
#
# Compressibility (1/GPa) = 0.02132509
#
# Stress axis : x y z
#
# Youngs Moduli (GPa) = 43.50237 43.50185 78.47924
#
# Poissons Ratio (x) = 0.57247 0.21722
# Poissons Ratio (y) = 0.57248 0.21726
# Poissons Ratio (z) = 0.12041 0.12043
#
# Static dielectric constant tensor:
#      x y z
#    x 1.904650 0.000000 0.000000 
#    y 0.000000 1.904640 0.000000 
#    z 0.000000 0.000000 1.778520 
# 
# From -- ./inp_files/723.got.cif
#   From: 2010.05.17/outbox.cif.g08.bks.cpg/sg113_cif.got.tgz:723.got - 2010.05.20 11:03:00.
