data_PCOD9555383
_publ_section_title
;
Structure prediction by ZEFSAII (Michael W. Deem and Ramdas Pophale) SiO2 
 PCOD9555383
Probable space group: P -4 2 C
;
_chemical_formula_sum "Si O2"
_cell_formula_units_Z 20
_cell_length_a 6.995003
_cell_length_b 6.995003
_cell_length_c 20.916168
_cell_angle_alpha 90.000000
_cell_angle_beta 90.000000
_cell_angle_gamma 90.000000
_cell_volume 1023.429501
_symmetry_space_group_name_H-M "P -4 2 C"
_symmetry_group_IT_number 112
_symmetry_cell_setting 'tetragonal'
loop_
_space_group_symop_operation_xyz
x,y,z
y,-x,-z
-x,-y,z
-y,x,-z
x,-y,1/2-z
-x,y,1/2-z
-y,-x,1/2+z
y,x,1/2+z
loop_
_atom_site_type_symbol
_atom_site_label
_atom_site_fract_x
_atom_site_fract_y
_atom_site_fract_z
Si Si1 0.224515 0.536895 0.027546
Si Si2 0.000000 0.500000 0.250000
Si Si3 0.666890 0.338897 0.167117
Si Si4 0.000000 0.500000 0.750000
O O1 0.273565 0.647886 0.092988
O O2 0.000000 0.500000 0.019330
O O3 0.332514 0.665106 0.974099
O O4 0.140959 0.613794 0.204786
O O5 0.500000 0.500000 0.176272
O O6 0.602309 0.143189 0.200102
#
# Coordination Sequence:
#
# PCOD9555383 Si02
#       4
#     8   2   8   2
#     4  11  25  45  72 101 140 186 232 293 352 417
#     4  12  22  46  70  94 150 188 222 288 344 410
#     4  12  24  46  68 103 145 183 231 291 350 416
#     4  12  26  42  74 102 142 188 238 288 360 414
#
# _framework density 19.542138000000001
#
# number of rings (size 3 to 8) (size 9 to 14) (size 15 to 20)
#    0.000    0.400   10.000    0.000    2.800    1.600 
#    0.000    4.000    0.000    0.000    0.000    0.000 
#    0.000    0.000    0.000    0.000    0.000    0.000 
#
# Total GULP energy -111455.345601 kJ/mol
# GULP energy per Si atom -5572.767280 kJ/mol
# Density = 1.949766 g / cm^3
# Si number density = 19.542138 Si / 1000 Ang^3
#
#
#
# Elastic Constant Matrix: (Units=GPa)
#
#
# Indices 1 2 3 4 5 6 
#
# 1 157.7411 71.1689 33.1813 0.0000 0.0000 0.0000
# 2 71.1689 157.7411 33.1813 0.0000 0.0000 0.0000
# 3 33.1813 33.1813 109.4600 0.0000 0.0000 0.0000
# 4 0.0000 0.0000 0.0000 58.0801 0.0000 0.0000
# 5 0.0000 0.0000 0.0000 0.0000 58.0801 0.0000
# 6 0.0000 0.0000 0.0000 0.0000 0.0000 32.9882
#
#
#
# Elastic Compliance Matrix: (Units=1/GPa)
#
#
# Indices 1 2 3 4 5 6 
#
# 1 0.008170 -0.003381 -0.001452 0.000000 0.000000 0.000000
# 2 -0.003381 0.008170 -0.001452 0.000000 0.000000 0.000000
# 3 -0.001452 -0.001452 0.010016 0.000000 0.000000 0.000000
# 4 0.000000 0.000000 0.000000 0.017218 0.000000 0.000000
# 5 0.000000 0.000000 0.000000 0.000000 0.017218 0.000000
# 6 0.000000 0.000000 0.000000 0.000000 0.000000 0.030314
#
#
# Mechanical properties :
#
#
# Convention : Reuss Voigt Hill
#
# Bulk Modulus (GPa) = 72.52980 77.77834 75.15407
# Shear Modulus (GPa) = 46.18067 48.99037 47.58552
#
# Velocity S-wave (km/s) = 4.86648 5.01234 4.93995
# Velocity P-wave (km/s) = 8.29289 8.56649 8.43080
#
# Compressibility (1/GPa) = 0.01378744
#
# Stress axis : x y z
#
# Youngs Moduli (GPa) = 122.39541 122.39541 99.84049
#
# Poissons Ratio (x) = 0.41380 0.14495
# Poissons Ratio (y) = 0.41380 0.14495
# Poissons Ratio (z) = 0.17770 0.17770
#
# Static dielectric constant tensor:
#      x y z
#    x 1.519200 0.000000 0.000000 
#    y 0.000000 1.519200 0.000000 
#    z 0.000000 0.000000 1.794670 
# 
# From -- ./inp_files/5654.got.cif
#   From: 2010.05.17/outbox.cif.g08.bks.cpg/sg112_3_cif.got.tgz:5654.got - 2010.05.20 10:59:04.
