data_PCOD9555186
_publ_section_title
;
Structure prediction by ZEFSAII (Michael W. Deem and Ramdas Pophale) SiO2 
 PCOD9555186
Probable space group: P -4 2 C
;
_chemical_formula_sum "Si O2"
_cell_formula_units_Z 34
_cell_length_a 9.183183
_cell_length_b 9.183183
_cell_length_c 20.049847
_cell_angle_alpha 90.000000
_cell_angle_beta 90.000000
_cell_angle_gamma 90.000000
_cell_volume 1690.820640
_symmetry_space_group_name_H-M "P -4 2 C"
_symmetry_group_IT_number 112
_symmetry_cell_setting 'tetragonal'
loop_
_space_group_symop_operation_xyz
x,y,z
y,-x,-z
-x,-y,z
-y,x,-z
x,-y,1/2-z
-x,y,1/2-z
-y,-x,1/2+z
y,x,1/2+z
loop_
_atom_site_type_symbol
_atom_site_label
_atom_site_fract_x
_atom_site_fract_y
_atom_site_fract_z
Si Si1 0.339815 0.222343 0.243085
Si Si2 0.692152 0.648622 0.500262
Si Si3 0.140792 0.178026 0.614300
Si Si4 0.805961 0.161203 0.619289
Si Si5 0.500000 0.500000 0.250000
O O1 0.500000 0.155010 0.250000
O O2 0.249345 0.145247 0.186780
O O3 0.248863 0.222299 0.311739
O O4 0.388363 0.384950 0.217072
O O5 0.694433 0.475482 0.510234
O O6 0.762007 0.733289 0.562397
O O7 0.780996 0.693760 0.434930
O O8 0.971505 0.186503 0.593369
O O9 0.197506 0.013537 0.624006
#
# Coordination Sequence:
#
# PCOD9555186 Si02
#       5
#     8   8   8   8   2
#     4  10  22  40  66  90 130 164 204 254 311 365
#     4  11  26  43  64  90 126 165 210 259 312 372
#     4  11  24  42  64  94 128 163 208 260 311 371
#     4  11  24  42  64  94 128 163 208 260 311 371
#     4   8  24  40  60  94 136 160 200 266 304 360
#
# _framework density 20.10858
#
# number of rings (size 3 to 8) (size 9 to 14) (size 15 to 20)
#    0.706    0.706    0.000    4.235    3.294   11.294 
#    0.000    1.176    0.000    0.000    0.000    0.000 
#    0.000    0.000    0.000    0.000    0.000    0.000 
#
# Total GULP energy -189639.100892 kJ/mol
# GULP energy per Si atom -5577.620614 kJ/mol
# Density = 2.006281 g / cm^3
# Si number density = 20.108580 Si / 1000 Ang^3
#
#
#
# Elastic Constant Matrix: (Units=GPa)
#
#
# Indices 1 2 3 4 5 6 
#
# 1 86.6605 37.8750 15.4572 0.0000 0.0000 0.0000
# 2 37.8750 86.6605 15.4572 0.0000 0.0000 0.0000
# 3 15.4572 15.4572 87.1390 0.0000 0.0000 0.0000
# 4 0.0000 0.0000 0.0000 28.3290 0.0000 0.0000
# 5 0.0000 0.0000 0.0000 0.0000 28.3290 0.0000
# 6 0.0000 0.0000 0.0000 0.0000 0.0000 31.5536
#
#
#
# Elastic Compliance Matrix: (Units=1/GPa)
#
#
# Indices 1 2 3 4 5 6 
#
# 1 0.014449 -0.006049 -0.001490 0.000000 0.000000 0.000000
# 2 -0.006049 0.014449 -0.001490 0.000000 0.000000 0.000000
# 3 -0.001490 -0.001490 0.012005 0.000000 0.000000 0.000000
# 4 0.000000 0.000000 0.000000 0.035299 0.000000 0.000000
# 5 0.000000 0.000000 0.000000 0.000000 0.035299 0.000000
# 6 0.000000 0.000000 0.000000 0.000000 0.000000 0.031692
#
#
# Mechanical properties :
#
#
# Convention : Reuss Voigt Hill
#
# Bulk Modulus (GPa) = 43.77518 44.22653 44.00085
# Shear Modulus (GPa) = 29.60927 30.42036 30.01481
#
# Velocity S-wave (km/s) = 3.84144 3.89370 3.86766
# Velocity P-wave (km/s) = 6.44144 6.50047 6.47103
#
# Compressibility (1/GPa) = 0.02284400
#
# Stress axis : x y z
#
# Youngs Moduli (GPa) = 69.20991 69.20991 83.30190
#
# Poissons Ratio (x) = 0.41866 0.12412
# Poissons Ratio (y) = 0.41866 0.12412
# Poissons Ratio (z) = 0.10312 0.10312
#
# Static dielectric constant tensor:
#      x y z
#    x 1.722150 0.000000 0.000000 
#    y 0.000000 1.722150 0.000000 
#    z 0.000000 0.000000 1.674500 
# 
# From -- ./inp_files/4687.got.cif
#   From: 2010.05.17/outbox.cif.g08.bks.cpg/sg112_3_cif.got.tgz:4687.got - 2010.05.20 10:59:04.
