data_PCOD9555151
_publ_section_title
;
Structure prediction by ZEFSAII (Michael W. Deem and Ramdas Pophale) SiO2 
 PCOD9555151
Probable space group: P -4 2 C
;
_chemical_formula_sum "Si O2"
_cell_formula_units_Z 48
_cell_length_a 8.335518
_cell_length_b 8.335518
_cell_length_c 31.657136
_cell_angle_alpha 90.000000
_cell_angle_beta 90.000000
_cell_angle_gamma 90.000000
_cell_volume 2199.565045
_symmetry_space_group_name_H-M "P -4 2 C"
_symmetry_group_IT_number 112
_symmetry_cell_setting 'tetragonal'
loop_
_space_group_symop_operation_xyz
x,y,z
y,-x,-z
-x,-y,z
-y,x,-z
x,-y,1/2-z
-x,y,1/2-z
-y,-x,1/2+z
y,x,1/2+z
loop_
_atom_site_type_symbol
_atom_site_label
_atom_site_fract_x
_atom_site_fract_y
_atom_site_fract_z
Si Si1 0.000000 0.000000 0.651156
Si Si2 0.473772 0.253216 0.511796
Si Si3 0.000000 0.500000 0.549809
Si Si4 0.326439 0.417439 0.824660
Si Si5 0.823592 0.317058 0.877144
Si Si6 0.172768 0.153681 0.773314
Si Si7 0.812997 0.527318 0.392903
O O1 0.869520 0.078569 0.681650
O O2 0.080155 0.152278 0.629399
O O3 0.338534 0.387412 0.515512
O O4 0.548970 0.201377 0.556480
O O5 0.405203 0.111392 0.483135
O O6 0.101643 0.396262 0.581967
O O7 0.500000 0.500000 0.817162
O O8 0.195393 0.551341 0.839260
O O9 0.270459 0.313253 0.784189
O O10 0.351811 0.293227 0.864447
O O11 0.641529 0.270675 0.884897
O O12 0.000000 0.184798 0.750000
O O13 0.252306 0.000000 0.750000
O O14 0.000000 0.500000 0.381403
#
# Coordination Sequence:
#
# PCOD9555151 Si02
#       7
#     4   8   4   8   8   8   8
#     4  10  21  40  64  95 132 170 220 282 335 408
#     4  11  23  39  59  85 133 178 229 281 342 396
#     4  12  22  38  60  92 133 176 235 280 336 400
#     4  10  22  41  70 103 133 173 229 273 332 422
#     4  11  23  39  64  99 132 178 227 280 334 399
#     4   9  20  42  72  98 129 172 211 269 349 401
#     4  11  22  39  65  92 128 181 228 283 338 393
#
# _framework density 21.822493999999999
#
# number of rings (size 3 to 8) (size 9 to 14) (size 15 to 20)
#    0.000    1.667    2.500    3.000    4.667    1.333 
#    0.000    6.667    0.000   60.500    0.000    0.000 
#    0.000    0.000    0.000    0.000    0.000    0.000 
#
# Total GULP energy -267594.418185 kJ/mol
# GULP energy per Si atom -5574.883712 kJ/mol
# Density = 2.177282 g / cm^3
# Si number density = 21.822494 Si / 1000 Ang^3
#
#
#
# Elastic Constant Matrix: (Units=GPa)
#
#
# Indices 1 2 3 4 5 6 
#
# 1 92.0385 48.3563 42.2082 0.0000 0.0000 0.0000
# 2 48.3563 92.0385 42.2082 0.0000 0.0000 0.0000
# 3 42.2082 42.2082 76.1075 0.0000 0.0000 0.0000
# 4 0.0000 0.0000 0.0000 21.4685 0.0000 0.0000
# 5 0.0000 0.0000 0.0000 0.0000 21.4685 0.0000
# 6 0.0000 0.0000 0.0000 0.0000 0.0000 38.4591
#
#
#
# Elastic Compliance Matrix: (Units=1/GPa)
#
#
# Indices 1 2 3 4 5 6 
#
# 1 0.016789 -0.006103 -0.005926 0.000000 0.000000 0.000000
# 2 -0.006103 0.016789 -0.005926 0.000000 0.000000 0.000000
# 3 -0.005926 -0.005926 0.019713 0.000000 0.000000 0.000000
# 4 0.000000 0.000000 0.000000 0.046580 0.000000 0.000000
# 5 0.000000 0.000000 0.000000 0.000000 0.046580 0.000000
# 6 0.000000 0.000000 0.000000 0.000000 0.000000 0.026002
#
#
# Mechanical properties :
#
#
# Convention : Reuss Voigt Hill
#
# Bulk Modulus (GPa) = 57.53921 58.41441 57.97681
# Shear Modulus (GPa) = 23.34724 24.77335 24.06030
#
# Velocity S-wave (km/s) = 3.27444 3.37296 3.32406
# Velocity P-wave (km/s) = 6.38123 6.48037 6.43099
#
# Compressibility (1/GPa) = 0.01737945
#
# Stress axis : x y z
#
# Youngs Moduli (GPa) = 59.56132 59.56132 50.72865
#
# Poissons Ratio (x) = 0.36352 0.30064
# Poissons Ratio (y) = 0.36352 0.30064
# Poissons Ratio (z) = 0.35299 0.35299
#
# Static dielectric constant tensor:
#      x y z
#    x 1.552390 0.000000 0.000000 
#    y 0.000000 1.552390 0.000000 
#    z 0.000000 0.000000 1.828620 
# 
# From -- ./inp_files/6352.got.cif
#   From: 2010.05.17/outbox.cif.g08.bks.cpg/sg112_4_cif.got.tgz:6352.got - 2010.05.20 10:59:04.
