data_PCOD9555747
_publ_section_title
;
Structure prediction by ZEFSAII (Michael W. Deem and Ramdas Pophale) SiO2 
 PCOD9555747
Probable space group: P -4 21 M 
;
_chemical_formula_sum "Si O2"
_cell_formula_units_Z 26
_cell_length_a 12.722889
_cell_length_b 12.722889
_cell_length_c 6.885030
_cell_angle_alpha 90.000000
_cell_angle_beta 90.000000
_cell_angle_gamma 90.000000
_cell_volume 1114.492919
_symmetry_space_group_name_H-M "P -4 21 M "
_symmetry_group_IT_number 113
_symmetry_cell_setting 'tetragonal'
loop_
_space_group_symop_operation_xyz
x,y,z
y,-x,-z
-x,-y,z
-y,x,-z
1/2+x,1/2-y,-z
1/2-x,1/2+y,-z
1/2-y,1/2-x,z
1/2+y,1/2+x,z
loop_
_atom_site_type_symbol
_atom_site_label
_atom_site_fract_x
_atom_site_fract_y
_atom_site_fract_z
Si Si1 0.764346 0.910734 0.957767
Si Si2 0.622249 0.531065 0.719259
Si Si3 0.274689 0.935901 0.619593
Si Si4 0.000000 0.500000 0.503769
O O1 0.667291 0.832710 0.973849
O O2 0.859137 0.862405 0.832132
O O3 0.732170 0.013281 0.832022
O O4 0.811592 0.945192 0.162585
O O5 0.500000 0.500000 0.736382
O O6 0.671004 0.547416 0.506841
O O7 0.316385 0.816385 0.630340
O O8 0.370474 0.996693 0.512953
#
# Coordination Sequence:
#
# PCOD9555747 Si02
#       4
#     8   8   8   2
#     4  12  25  46  73 107 147 194 247 306 367 439
#     4  12  27  48  70 108 155 194 243 301 373 451
#     4  10  24  47  76 107 144 186 245 307 372 440
#     4   8  20  52  66 124 140 174 264 304 374 448
#
# _framework density 23.328996
#
# number of rings (size 3 to 8) (size 9 to 14) (size 15 to 20)
#    0.923    0.000    4.615    0.923    6.462    3.692 
#    0.000    1.538    0.000    0.000    0.000    0.000 
#    0.000    0.000    0.000    0.000    0.000    0.000 
#
# Total GULP energy -144962.796676 kJ/mol
# GULP energy per Si atom -5575.492180 kJ/mol
# Density = 2.327590 g / cm^3
# Si number density = 23.328996 Si / 1000 Ang^3
#
#
#
# Elastic Constant Matrix: (Units=GPa)
#
#
# Indices 1 2 3 4 5 6 
#
# 1 118.2134 35.3420 62.3681 0.0000 0.0000 0.0000
# 2 35.3420 118.2078 62.3687 0.0000 0.0000 0.0000
# 3 62.3681 62.3687 124.5267 0.0000 0.0000 0.0000
# 4 0.0000 0.0000 0.0000 24.6853 0.0000 0.0000
# 5 0.0000 0.0000 0.0000 0.0000 24.6846 0.0000
# 6 0.0000 0.0000 0.0000 0.0000 0.0000 44.7908
#
#
#
# Elastic Compliance Matrix: (Units=1/GPa)
#
#
# Indices 1 2 3 4 5 6 
#
# 1 0.011523 -0.000544 -0.005499 0.000000 0.000000 0.000000
# 2 -0.000544 0.011524 -0.005499 0.000000 0.000000 0.000000
# 3 -0.005499 -0.005499 0.013539 0.000000 0.000000 0.000000
# 4 0.000000 0.000000 0.000000 0.040510 0.000000 0.000000
# 5 0.000000 0.000000 0.000000 0.000000 0.040511 0.000000
# 6 0.000000 0.000000 0.000000 0.000000 0.000000 0.022326
#
#
# Mechanical properties :
#
#
# Convention : Reuss Voigt Hill
#
# Bulk Modulus (GPa) = 74.06507 75.67838 74.87172
# Shear Modulus (GPa) = 29.84775 32.22342 31.03558
#
# Velocity S-wave (km/s) = 3.58079 3.72056 3.65134
# Velocity P-wave (km/s) = 6.99379 7.13911 7.06682
#
# Compressibility (1/GPa) = 0.01350164
#
# Stress axis : x y z
#
# Youngs Moduli (GPa) = 86.78313 86.77695 73.86248
#
# Poissons Ratio (x) = 0.04720 0.40615
# Poissons Ratio (y) = 0.04720 0.40619
# Poissons Ratio (z) = 0.47720 0.47721
#
# Static dielectric constant tensor:
#      x y z
#    x 1.879070 0.000000 0.000000 
#    y 0.000000 1.879070 0.000000 
#    z 0.000000 0.000000 1.875960 
# 
# From -- ./inp_files/730.got.cif
#   From: 2010.05.17/outbox.cif.g08.bks.cpg/sg113_cif.got.tgz:730.got - 2010.05.20 11:03:00.
