data_PCOD9555891
_publ_section_title
;
Structure prediction by ZEFSAII (Michael W. Deem and Ramdas Pophale) SiO2 
 PCOD9555891
Probable space group: P -4 21 C
;
_chemical_formula_sum "Si O2"
_cell_formula_units_Z 56
_cell_length_a 11.900853
_cell_length_b 11.900853
_cell_length_c 20.701244
_cell_angle_alpha 90.000000
_cell_angle_beta 90.000000
_cell_angle_gamma 90.000000
_cell_volume 2931.923442
_symmetry_space_group_name_H-M "P -4 21 C"
_symmetry_group_IT_number 114
_symmetry_cell_setting 'tetragonal'
loop_
_space_group_symop_operation_xyz
x,y,z
y,-x,-z
-x,-y,z
-y,x,-z
1/2+x,1/2-y,1/2-z
1/2-x,1/2+y,1/2-z
1/2-y,1/2-x,1/2+z
1/2+y,1/2+x,1/2+z
loop_
_atom_site_type_symbol
_atom_site_label
_atom_site_fract_x
_atom_site_fract_y
_atom_site_fract_z
Si Si1 0.531522 0.126637 0.570759
Si Si2 0.880927 0.853749 0.498336
Si Si3 0.204553 0.124564 0.143866
Si Si4 0.444329 0.667597 0.477772
Si Si5 0.668894 0.669051 0.139918
Si Si6 0.539860 0.629287 0.775062
Si Si7 0.258910 0.405980 0.862703
O O1 0.429044 0.193807 0.602892
O O2 0.565960 0.210661 0.512006
O O3 0.626836 0.111582 0.626364
O O4 0.500000 0.000000 0.549267
O O5 0.836017 0.800563 0.563955
O O6 0.852069 0.804317 0.429405
O O7 0.015796 0.848569 0.502372
O O8 0.104057 0.153309 0.094346
O O9 0.252697 0.239563 0.172265
O O10 0.172093 0.043016 0.202060
O O11 0.573888 0.626062 0.481579
O O12 0.681462 0.550422 0.175531
O O13 0.538770 0.709298 0.140109
O O14 0.500000 0.500000 0.773166
O O15 0.664434 0.641263 0.805336
#
# Coordination Sequence:
#
# PCOD9555891 Si02
#       7
#     8   8   8   8   8   8   8
#     4  11  22  39  62  91 122 157 200 257 324 370
#     4   9  15  28  56  83 115 144 187 249 300 350
#     4  11  23  38  62  87 125 166 204 259 305 371
#     4   9  21  41  65  89 115 162 216 253 297 366
#     4  10  19  36  55  89 118 156 206 251 308 362
#     4  10  23  38  59  85 119 169 215 249 298 374
#     4  10  19  36  56  85 119 158 198 251 312 371
#
# _framework density 19.100089000000001
#
# number of rings (size 3 to 8) (size 9 to 14) (size 15 to 20)
#    0.000    2.000    2.857    0.857    6.000    0.000 
#    0.000    0.000    0.000    0.857    0.000    0.000 
#    0.000    0.000    0.000    0.000    0.000    0.000 
#
# Total GULP energy -311915.049612 kJ/mol
# GULP energy per Si atom -5569.911600 kJ/mol
# Density = 1.905662 g / cm^3
# Si number density = 19.100089 Si / 1000 Ang^3
#
#
#
# Elastic Constant Matrix: (Units=GPa)
#
#
# Indices 1 2 3 4 5 6 
#
# 1 80.7164 21.4841 31.7140 0.0000 0.0000 0.0000
# 2 21.4841 80.7164 31.7140 0.0000 0.0000 0.0000
# 3 31.7140 31.7140 93.1973 0.0000 0.0000 0.0000
# 4 0.0000 0.0000 0.0000 21.6260 0.0000 0.0000
# 5 0.0000 0.0000 0.0000 0.0000 21.6260 0.0000
# 6 0.0000 0.0000 0.0000 0.0000 0.0000 17.5070
#
#
#
# Elastic Compliance Matrix: (Units=1/GPa)
#
#
# Indices 1 2 3 4 5 6 
#
# 1 0.014644 -0.002239 -0.004221 0.000000 0.000000 0.000000
# 2 -0.002239 0.014644 -0.004221 0.000000 0.000000 0.000000
# 3 -0.004221 -0.004221 0.013603 0.000000 0.000000 0.000000
# 4 0.000000 0.000000 0.000000 0.046241 0.000000 0.000000
# 5 0.000000 0.000000 0.000000 0.000000 0.046241 0.000000
# 6 0.000000 0.000000 0.000000 0.000000 0.000000 0.057120
#
#
# Mechanical properties :
#
#
# Convention : Reuss Voigt Hill
#
# Bulk Modulus (GPa) = 46.45292 47.16158 46.80725
# Shear Modulus (GPa) = 22.62142 23.46632 23.04387
#
# Velocity S-wave (km/s) = 3.44519 3.50894 3.47721
# Velocity P-wave (km/s) = 6.34030 6.41578 6.37815
#
# Compressibility (1/GPa) = 0.02152717
#
# Stress axis : x y z
#
# Youngs Moduli (GPa) = 68.28955 68.28955 73.51488
#
# Poissons Ratio (x) = 0.15291 0.31031
# Poissons Ratio (y) = 0.15291 0.31031
# Poissons Ratio (z) = 0.28825 0.28825
#
# Static dielectric constant tensor:
#      x y z
#    x 1.684450 0.000000 0.000000 
#    y 0.000000 1.684450 0.000000 
#    z 0.000000 0.000000 1.649160 
# 
# From -- ./inp_files/3164.got.cif
#   From: 2010.05.17/outbox.cif.g08.bks.cpg/sg114_2_cif.got.tgz:3164.got - 2010.05.20 11:04:54.
