data_PCOD9555689
_publ_section_title
;
Structure prediction by ZEFSAII (Michael W. Deem and Ramdas Pophale) SiO2 
 PCOD9555689
Probable space group: P -4 21 M 
;
_chemical_formula_sum "Si O2"
_cell_formula_units_Z 40
_cell_length_a 15.938543
_cell_length_b 15.938543
_cell_length_c 8.069493
_cell_angle_alpha 90.000000
_cell_angle_beta 90.000000
_cell_angle_gamma 90.000000
_cell_volume 2049.951028
_symmetry_space_group_name_H-M "P -4 21 M "
_symmetry_group_IT_number 113
_symmetry_cell_setting 'tetragonal'
loop_
_space_group_symop_operation_xyz
x,y,z
y,-x,-z
-x,-y,z
-y,x,-z
1/2+x,1/2-y,-z
1/2-x,1/2+y,-z
1/2-y,1/2-x,z
1/2+y,1/2+x,z
loop_
_atom_site_type_symbol
_atom_site_label
_atom_site_fract_x
_atom_site_fract_y
_atom_site_fract_z
Si Si1 0.293570 0.935265 0.095085
Si Si2 0.550671 0.391325 0.080920
Si Si3 0.935260 0.293566 0.595107
Si Si4 0.391328 0.550671 0.580923
Si Si5 0.500003 0.139886 0.749984
O O1 0.361578 0.861578 0.115510
O O2 0.197529 0.903557 0.084024
O O3 0.299774 0.000003 0.249989
O O4 0.311439 0.980849 0.919718
O O5 0.500004 0.398896 0.250002
O O6 0.473312 0.394050 0.950434
O O7 0.861572 0.361572 0.615529
O O8 0.903554 0.197524 0.584041
O O9 0.980845 0.311435 0.419741
O O10 0.473316 0.605949 0.549573
O O11 0.420590 0.079411 0.780671
O O12 0.579426 0.079426 0.719288
#
# Coordination Sequence:
#
# PCOD9555689 Si02
#       5
#     8   8   8   8   8
#     4  10  21  37  59  86 118 153 195 244 293 353
#     4  10  21  37  61  85 113 157 198 240 298 354
#     4  10  21  37  59  86 118 153 195 244 293 353
#     4  10  21  37  61  85 113 157 198 240 298 354
#     4   9  18  32  54  81 110 152 192 229 288 350
#
# _framework density 19.512661000000001
#
# number of rings (size 3 to 8) (size 9 to 14) (size 15 to 20)
#    0.000    2.200    0.000    3.600    5.600    2.000 
#    0.000   10.000    0.000    0.000    0.000    0.000 
#    0.000    0.000    0.000    0.000    0.000    0.000 
#
# Total GULP energy -222959.087453 kJ/mol
# GULP energy per Si atom -5573.977186 kJ/mol
# Density = 1.946825 g / cm^3
# Si number density = 19.512661 Si / 1000 Ang^3
#
#
#
# Elastic Constant Matrix: (Units=GPa)
#
#
# Indices 1 2 3 4 5 6 
#
# 1 89.3384 19.5504 12.9816 0.0000 0.0000 0.0000
# 2 19.5504 89.3381 12.9820 0.0000 0.0000 0.0000
# 3 12.9816 12.9820 93.8677 0.0000 0.0000 0.0000
# 4 0.0000 0.0000 0.0000 11.5448 0.0000 0.0000
# 5 0.0000 0.0000 0.0000 0.0000 11.5450 0.0000
# 6 0.0000 0.0000 0.0000 0.0000 0.0000 7.8476
#
#
#
# Elastic Compliance Matrix: (Units=1/GPa)
#
#
# Indices 1 2 3 4 5 6 
#
# 1 0.011913 -0.002416 -0.001313 0.000000 0.000000 0.000000
# 2 -0.002416 0.011913 -0.001313 0.000000 0.000000 0.000000
# 3 -0.001313 -0.001313 0.011017 0.000000 0.000000 0.000000
# 4 0.000000 0.000000 0.000000 0.086619 0.000000 0.000000
# 5 0.000000 0.000000 0.000000 0.000000 0.086618 0.000000
# 6 0.000000 0.000000 0.000000 0.000000 0.000000 0.127428
#
#
# Mechanical properties :
#
#
# Convention : Reuss Voigt Hill
#
# Bulk Modulus (GPa) = 40.39313 40.39691 40.39502
# Shear Modulus (GPa) = 14.13046 21.32281 17.72664
#
# Velocity S-wave (km/s) = 2.69396 3.30929 3.01735
# Velocity P-wave (km/s) = 5.51566 5.94556 5.73464
#
# Compressibility (1/GPa) = 0.02475668
#
# Stress axis : x y z
#
# Youngs Moduli (GPa) = 83.94209 83.94168 90.77233
#
# Poissons Ratio (x) = 0.20281 0.11922
# Poissons Ratio (y) = 0.20282 0.11922
# Poissons Ratio (z) = 0.11025 0.11025
#
# Static dielectric constant tensor:
#      x y z
#    x 1.687840 0.000000 0.000000 
#    y 0.000000 1.687840 0.000000 
#    z 0.000000 0.000000 1.830990 
# 
# From -- ./inp_files/1008.got.cif
#   From: 2010.05.17/outbox.cif.g08.bks.cpg/sg113_cif.got.tgz:1008.got - 2010.05.20 11:03:00.
