data_PCOD9555215
_publ_section_title
;
Structure prediction by ZEFSAII (Michael W. Deem and Ramdas Pophale) SiO2 
 PCOD9555215
Probable space group: P -4 2 C
;
_chemical_formula_sum "Si O2"
_cell_formula_units_Z 58
_cell_length_a 17.522990
_cell_length_b 17.522990
_cell_length_c 9.419290
_cell_angle_alpha 90.000000
_cell_angle_beta 90.000000
_cell_angle_gamma 90.000000
_cell_volume 2892.241773
_symmetry_space_group_name_H-M "P -4 2 C"
_symmetry_group_IT_number 112
_symmetry_cell_setting 'tetragonal'
loop_
_space_group_symop_operation_xyz
x,y,z
y,-x,-z
-x,-y,z
-y,x,-z
x,-y,1/2-z
-x,y,1/2-z
-y,-x,1/2+z
y,x,1/2+z
loop_
_atom_site_type_symbol
_atom_site_label
_atom_site_fract_x
_atom_site_fract_y
_atom_site_fract_z
Si Si1 0.396487 0.817539 0.125867
Si Si2 0.362758 0.937504 0.652671
Si Si3 0.962910 0.292094 0.591262
Si Si4 0.431792 0.810369 0.457395
Si Si5 0.238290 0.835623 0.753874
Si Si6 0.076729 0.873027 0.658948
Si Si7 0.000000 0.000000 0.500000
Si Si8 0.732809 0.281279 0.002872
O O1 0.352620 0.894267 0.081009
O O2 0.408166 0.828656 0.294644
O O3 0.477599 0.801886 0.052629
O O4 0.342196 0.747775 0.082248
O O5 0.414396 0.875486 0.573376
O O6 0.302631 0.899533 0.761769
O O7 0.404183 0.000000 0.750000
O O8 0.314328 0.974797 0.524555
O O9 0.929092 0.206702 0.572662
O O10 0.000000 0.295789 0.750000
O O11 0.372475 0.742029 0.492469
O O12 0.152191 0.865821 0.754706
O O13 0.256860 0.765411 0.857279
O O14 0.251622 0.803324 0.596086
O O15 0.067617 0.953054 0.577883
O O16 0.000000 0.873300 0.750000
#
# Coordination Sequence:
#
# PCOD9555215 Si02
#       8
#     8   8   8   8   8   8   2   8
#     4  11  21  42  72  96 133 174 219 269 325 410
#     4  11  24  40  60  93 135 165 215 279 333 391
#     4  11  21  39  62  90 124 174 223 269 336 400
#     4  10  23  41  66 104 130 173 223 258 329 417
#     4  11  24  40  66  86 121 169 227 268 328 394
#     4  11  25  38  58  80 117 166 224 284 319 387
#     4  12  26  40  52  86 124 168 230 288 362 356
#     4  11  21  43  68  98 123 169 212 270 319 397
#
# _framework density 20.053647999999999
#
# number of rings (size 3 to 8) (size 9 to 14) (size 15 to 20)
#    0.000    1.103    4.138    1.862    7.724    1.655 
#    0.000    8.276    0.000    0.414    0.000    1.931 
#    0.000    0.000    0.000    0.000    0.000    0.000 
#
# Total GULP energy -323739.715650 kJ/mol
# GULP energy per Si atom -5581.719235 kJ/mol
# Density = 2.000800 g / cm^3
# Si number density = 20.053648 Si / 1000 Ang^3
#
#
#
# Elastic Constant Matrix: (Units=GPa)
#
#
# Indices 1 2 3 4 5 6 
#
# 1 118.8887 38.4944 24.5448 0.0000 0.0000 0.0000
# 2 38.4944 118.8887 24.5448 0.0000 0.0000 0.0000
# 3 24.5448 24.5448 70.6181 0.0000 0.0000 0.0000
# 4 0.0000 0.0000 0.0000 21.0628 0.0000 0.0000
# 5 0.0000 0.0000 0.0000 0.0000 21.0628 0.0000
# 6 0.0000 0.0000 0.0000 0.0000 0.0000 13.1337
#
#
#
# Elastic Compliance Matrix: (Units=1/GPa)
#
#
# Indices 1 2 3 4 5 6 
#
# 1 0.009783 -0.002656 -0.002477 0.000000 0.000000 0.000000
# 2 -0.002656 0.009783 -0.002477 0.000000 0.000000 0.000000
# 3 -0.002477 -0.002477 0.015883 0.000000 0.000000 0.000000
# 4 0.000000 0.000000 0.000000 0.047477 0.000000 0.000000
# 5 0.000000 0.000000 0.000000 0.000000 0.047477 0.000000
# 6 0.000000 0.000000 0.000000 0.000000 0.000000 0.076140
#
#
# Mechanical properties :
#
#
# Convention : Reuss Voigt Hill
#
# Bulk Modulus (GPa) = 49.43720 53.72926 51.58323
# Shear Modulus (GPa) = 21.88143 25.77264 23.82703
#
# Velocity S-wave (km/s) = 3.30683 3.58884 3.45072
# Velocity P-wave (km/s) = 6.26787 6.63505 6.45407
#
# Compressibility (1/GPa) = 0.02022768
#
# Stress axis : x y z
#
# Youngs Moduli (GPa) = 102.22222 102.22222 62.96234
#
# Poissons Ratio (x) = 0.27151 0.15596
# Poissons Ratio (y) = 0.27151 0.15596
# Poissons Ratio (z) = 0.25320 0.25320
#
# Static dielectric constant tensor:
#      x y z
#    x 1.715020 0.000000 0.000000 
#    y 0.000000 1.715020 0.000000 
#    z 0.000000 0.000000 1.795740 
# 
# From -- ./inp_files/1546.got.cif
#   From: 2010.05.17/outbox.cif.g08.bks.cpg/sg112_1_cif.got.tgz:1546.got - 2010.05.20 10:59:04.
