data_PCOD9555974
_publ_section_title
;
Structure prediction by ZEFSAII (Michael W. Deem and Ramdas Pophale) SiO2 
 PCOD9555974
Probable space group: P -4 21 C
;
_chemical_formula_sum "Si O2"
_cell_formula_units_Z 36
_cell_length_a 10.680317
_cell_length_b 10.680317
_cell_length_c 12.484289
_cell_angle_alpha 90.000000
_cell_angle_beta 90.000000
_cell_angle_gamma 90.000000
_cell_volume 1424.072500
_symmetry_space_group_name_H-M "P -4 21 C"
_symmetry_group_IT_number 114
_symmetry_cell_setting 'tetragonal'
loop_
_space_group_symop_operation_xyz
x,y,z
y,-x,-z
-x,-y,z
-y,x,-z
1/2+x,1/2-y,1/2-z
1/2-x,1/2+y,1/2-z
1/2-y,1/2-x,1/2+z
1/2+y,1/2+x,1/2+z
loop_
_atom_site_type_symbol
_atom_site_label
_atom_site_fract_x
_atom_site_fract_y
_atom_site_fract_z
Si Si1 0.415148 0.752813 0.288622
Si Si2 0.793721 0.568882 0.464246
Si Si3 0.500000 0.000000 0.165939
Si Si4 0.834459 0.136260 0.246495
Si Si5 0.550879 0.306162 0.969622
O O1 0.441614 0.746625 0.415600
O O2 0.266512 0.749179 0.263323
O O3 0.518357 0.660962 0.239310
O O4 0.457263 0.887565 0.242055
O O5 0.690349 0.590656 0.373891
O O6 0.888399 0.687203 0.473828
O O7 0.884425 0.465163 0.412710
O O8 0.790260 0.045305 0.341531
O O9 0.417923 0.351091 0.010082
#
# Coordination Sequence:
#
# PCOD9555974 Si02
#       5
#     8   8   4   8   8
#     4  10  22  40  64  94 130 171 217 271 331 398
#     4  10  22  37  62  95 124 166 217 270 330 389
#     4  10  20  38  62  90 124 168 222 268 320 392
#     4  10  22  41  64  95 128 169 217 269 331 393
#     4  10  21  40  63  88 124 167 215 269 332 403
#
# _framework density 25.279613999999999
#
# number of rings (size 3 to 8) (size 9 to 14) (size 15 to 20)
#    0.000    2.000    0.000    3.333    0.000   10.667 
#    0.000    6.667    0.000    0.000    0.000    0.000 
#    0.000    0.000    0.000    0.000    0.000    0.000 
#
# Total GULP energy -201214.620785 kJ/mol
# GULP energy per Si atom -5589.295022 kJ/mol
# Density = 2.522208 g / cm^3
# Si number density = 25.279614 Si / 1000 Ang^3
#
#
#
# Elastic Constant Matrix: (Units=GPa)
#
#
# Indices 1 2 3 4 5 6 
#
# 1 67.9643 13.5092 1.6258 0.0000 0.0000 0.0000
# 2 13.5092 67.9643 1.6258 0.0000 0.0000 0.0000
# 3 1.6258 1.6258 183.5576 0.0000 0.0000 0.0000
# 4 0.0000 0.0000 0.0000 27.8563 0.0000 0.0000
# 5 0.0000 0.0000 0.0000 0.0000 27.8563 0.0000
# 6 0.0000 0.0000 0.0000 0.0000 0.0000 28.3575
#
#
#
# Elastic Compliance Matrix: (Units=1/GPa)
#
#
# Indices 1 2 3 4 5 6 
#
# 1 0.015321 -0.003043 -0.000109 0.000000 0.000000 0.000000
# 2 -0.003043 0.015321 -0.000109 0.000000 0.000000 0.000000
# 3 -0.000109 -0.000109 0.005450 0.000000 0.000000 0.000000
# 4 0.000000 0.000000 0.000000 0.035899 0.000000 0.000000
# 5 0.000000 0.000000 0.000000 0.000000 0.035899 0.000000
# 6 0.000000 0.000000 0.000000 0.000000 0.000000 0.035264
#
#
# Mechanical properties :
#
#
# Convention : Reuss Voigt Hill
#
# Bulk Modulus (GPa) = 33.81649 39.22306 36.51978
# Shear Modulus (GPa) = 31.34196 36.99571 34.16883
#
# Velocity S-wave (km/s) = 3.52492 3.82967 3.68045
# Velocity P-wave (km/s) = 5.47474 5.92491 5.70426
#
# Compressibility (1/GPa) = 0.02957137
#
# Stress axis : x y z
#
# Youngs Moduli (GPa) = 65.26981 65.26981 183.49267
#
# Poissons Ratio (x) = 0.19860 0.01995
# Poissons Ratio (y) = 0.19860 0.01995
# Poissons Ratio (z) = 0.00710 0.00710
#
# Static dielectric constant tensor:
#      x y z
#    x 2.017390 0.000000 0.000000 
#    y 0.000000 2.017390 0.000000 
#    z 0.000000 0.000000 1.990690 
# 
# From -- ./inp_files/1501.got.cif
#   From: 2010.05.17/outbox.cif.g08.bks.cpg/sg114_1_cif.got.tgz:1501.got - 2010.05.20 11:04:54.
