data_PCOD9555480
_publ_section_title
;
Structure prediction by ZEFSAII (Michael W. Deem and Ramdas Pophale) SiO2 
 PCOD9555480
Probable space group: P -4 21 M 
;
_chemical_formula_sum "Si O2"
_cell_formula_units_Z 56
_cell_length_a 17.073721
_cell_length_b 17.073721
_cell_length_c 10.803126
_cell_angle_alpha 90.000000
_cell_angle_beta 90.000000
_cell_angle_gamma 90.000000
_cell_volume 3149.240313
_symmetry_space_group_name_H-M "P -4 21 M "
_symmetry_group_IT_number 113
_symmetry_cell_setting 'tetragonal'
loop_
_space_group_symop_operation_xyz
x,y,z
y,-x,-z
-x,-y,z
-y,x,-z
1/2+x,1/2-y,-z
1/2-x,1/2+y,-z
1/2-y,1/2-x,z
1/2+y,1/2+x,z
loop_
_atom_site_type_symbol
_atom_site_label
_atom_site_fract_x
_atom_site_fract_y
_atom_site_fract_z
Si Si1 0.891870 0.931241 0.467963
Si Si2 0.374253 0.994878 0.659519
Si Si3 0.759308 0.384189 0.089026
Si Si4 0.884375 0.257238 0.387909
Si Si5 0.914184 0.846734 0.986547
Si Si6 0.549272 0.175313 0.930101
Si Si7 0.963144 0.081958 0.798824
O O1 0.825736 0.888968 0.547450
O O2 0.875691 0.929473 0.321293
O O3 0.977405 0.895569 0.493515
O O4 0.428347 0.928347 0.599271
O O5 0.334758 0.956957 0.780877
O O6 0.435501 0.064500 0.700488
O O7 0.309755 0.039218 0.579189
O O8 0.806166 0.306166 0.058235
O O9 0.752381 0.388806 0.238446
O O10 0.809131 0.457923 0.038751
O O11 0.672185 0.379299 0.038823
O O12 0.807558 0.307558 0.419402
O O13 0.911645 0.755329 0.021533
O O14 0.942563 0.895694 0.105394
O O15 0.971720 0.868367 0.873152
O O16 0.599391 0.099391 0.972673
O O17 0.000000 0.000000 0.753457
#
# Coordination Sequence:
#
# PCOD9555480 Si02
#       7
#     8   8   8   8   8   8   8
#     4  11  23  36  57  83 110 143 184 229 280 338
#     4   8  15  30  56  85 110 143 186 228 271 323
#     4  10  20  35  58  84 111 147 187 230 280 334
#     4   9  19  37  58  80 112 148 184 231 280 331
#     4  12  21  35  55  81 114 144 188 229 280 335
#     4  10  19  31  50  80 112 142 178 226 273 321
#     4  12  21  36  56  82 110 152 184 227 279 343
#
# _framework density 17.782066
#
# number of rings (size 3 to 8) (size 9 to 14) (size 15 to 20)
#    0.000    1.714    4.286    2.571    4.000    0.857 
#    0.000    2.143    0.000    1.714    0.000    0.000 
#    0.000    0.000    0.000    0.000    0.000    0.000 
#
# Total GULP energy -312032.366868 kJ/mol
# GULP energy per Si atom -5572.006551 kJ/mol
# Density = 1.774159 g / cm^3
# Si number density = 17.782066 Si / 1000 Ang^3
#
#
#
# Elastic Constant Matrix: (Units=GPa)
#
#
# Indices 1 2 3 4 5 6 
#
# 1 68.8931 19.3815 13.1577 0.0000 0.0000 0.0000
# 2 19.3815 68.8927 13.1577 0.0000 0.0000 0.0000
# 3 13.1577 13.1577 34.5833 0.0000 0.0000 0.0000
# 4 0.0000 0.0000 0.0000 16.9156 0.0000 0.0000
# 5 0.0000 0.0000 0.0000 0.0000 16.9155 0.0000
# 6 0.0000 0.0000 0.0000 0.0000 0.0000 24.6206
#
#
#
# Elastic Compliance Matrix: (Units=1/GPa)
#
#
# Indices 1 2 3 4 5 6 
#
# 1 0.016487 -0.003710 -0.004861 0.000000 0.000000 0.000000
# 2 -0.003710 0.016487 -0.004861 0.000000 0.000000 0.000000
# 3 -0.004861 -0.004861 0.032615 0.000000 0.000000 0.000000
# 4 0.000000 0.000000 0.000000 0.059117 0.000000 0.000000
# 5 0.000000 0.000000 0.000000 0.000000 0.059118 0.000000
# 6 0.000000 0.000000 0.000000 0.000000 0.000000 0.040616
#
#
# Mechanical properties :
#
#
# Convention : Reuss Voigt Hill
#
# Bulk Modulus (GPa) = 25.82356 29.30701 27.56528
# Shear Modulus (GPa) = 18.92404 20.13514 19.52959
#
# Velocity S-wave (km/s) = 3.26578 3.36866 3.31762
# Velocity P-wave (km/s) = 5.36416 5.62561 5.49644
#
# Compressibility (1/GPa) = 0.03872433
#
# Stress axis : x y z
#
# Youngs Moduli (GPa) = 60.65241 60.65202 30.66091
#
# Poissons Ratio (x) = 0.22501 0.14905
# Poissons Ratio (y) = 0.22502 0.14906
# Poissons Ratio (z) = 0.29485 0.29485
#
# Static dielectric constant tensor:
#      x y z
#    x 1.629890 0.000000 0.000000 
#    y 0.000000 1.629890 0.000000 
#    z 0.000000 0.000000 1.590160 
# 
# From -- ./inp_files/1992.got.cif
#   From: 2010.05.17/outbox.cif.g08.bks.cpg/sg113_cif.got.tgz:1992.got - 2010.05.20 11:03:00.
