data_PCOD9555120
_publ_section_title
;
Structure prediction by ZEFSAII (Michael W. Deem and Ramdas Pophale) SiO2 
 PCOD9555120
Probable space group: P -4 2 C
;
_chemical_formula_sum "Si O2"
_cell_formula_units_Z 56
_cell_length_a 11.187661
_cell_length_b 11.187661
_cell_length_c 20.962619
_cell_angle_alpha 90.000000
_cell_angle_beta 90.000000
_cell_angle_gamma 90.000000
_cell_volume 2623.760185
_symmetry_space_group_name_H-M "P -4 2 C"
_symmetry_group_IT_number 112
_symmetry_cell_setting 'tetragonal'
loop_
_space_group_symop_operation_xyz
x,y,z
y,-x,-z
-x,-y,z
-y,x,-z
x,-y,1/2-z
-x,y,1/2-z
-y,-x,1/2+z
y,x,1/2+z
loop_
_atom_site_type_symbol
_atom_site_label
_atom_site_fract_x
_atom_site_fract_y
_atom_site_fract_z
Si Si1 0.683494 0.934712 0.575073
Si Si2 0.543005 0.735904 0.063031
Si Si3 0.700421 0.470988 0.414520
Si Si4 0.187799 0.301481 0.372275
Si Si5 0.133430 0.771530 0.886624
Si Si6 0.144411 0.142671 0.750375
Si Si7 0.318419 0.890618 0.069059
O O1 0.609031 0.819047 0.597389
O O2 0.822621 0.896619 0.583052
O O3 0.657242 0.945327 0.500269
O O4 0.655062 0.053729 0.613495
O O5 0.582147 0.608979 0.093077
O O6 0.664726 0.808081 0.073474
O O7 0.438170 0.820479 0.090436
O O8 0.509235 0.710324 0.989382
O O9 0.719900 0.589443 0.373516
O O10 0.192289 0.219692 0.309712
O O11 0.222076 0.215540 0.431465
O O12 0.177677 0.787163 0.814117
O O13 0.994689 0.738027 0.888673
O O14 0.000000 0.151066 0.750000
O O15 0.171077 0.000000 0.750000
#
# Coordination Sequence:
#
# PCOD9555120 Si02
#       7
#     8   8   8   8   8   8   8
#     4  10  21  37  60  96 137 167 211 282 346 416
#     4  10  22  40  64  94 136 174 217 279 347 405
#     4  10  21  39  64  96 134 174 221 274 343 418
#     4  12  22  37  62  93 129 177 226 274 340 410
#     4  11  21  40  62  90 130 175 225 277 333 412
#     4  11  23  43  63  88 130 181 223 275 340 407
#     4  11  22  36  62  98 131 173 216 274 347 412
#
# _framework density 21.343412000000001
#
# number of rings (size 3 to 8) (size 9 to 14) (size 15 to 20)
#    0.000    1.286    2.857    5.143    0.000    4.857 
#    0.000    5.000    0.000    0.000    0.000   10.000 
#    0.000    0.000    0.000    0.000    0.000    0.000 
#
# Total GULP energy -312312.565395 kJ/mol
# GULP energy per Si atom -5577.010096 kJ/mol
# Density = 2.129483 g / cm^3
# Si number density = 21.343412 Si / 1000 Ang^3
#
#
#
# Elastic Constant Matrix: (Units=GPa)
#
#
# Indices 1 2 3 4 5 6 
#
# 1 104.6273 48.7249 27.3172 0.0000 0.0000 0.0000
# 2 48.7249 104.6273 27.3172 0.0000 0.0000 0.0000
# 3 27.3172 27.3172 69.5467 0.0000 0.0000 0.0000
# 4 0.0000 0.0000 0.0000 19.8767 0.0000 0.0000
# 5 0.0000 0.0000 0.0000 0.0000 19.8767 0.0000
# 6 0.0000 0.0000 0.0000 0.0000 0.0000 34.1584
#
#
#
# Elastic Compliance Matrix: (Units=1/GPa)
#
#
# Indices 1 2 3 4 5 6 
#
# 1 0.012735 -0.005153 -0.002978 0.000000 0.000000 0.000000
# 2 -0.005153 0.012735 -0.002978 0.000000 0.000000 0.000000
# 3 -0.002978 -0.002978 0.016718 0.000000 0.000000 0.000000
# 4 0.000000 0.000000 0.000000 0.050310 0.000000 0.000000
# 5 0.000000 0.000000 0.000000 0.000000 0.050310 0.000000
# 6 0.000000 0.000000 0.000000 0.000000 0.000000 0.029275
#
#
# Mechanical properties :
#
#
# Convention : Reuss Voigt Hill
#
# Bulk Modulus (GPa) = 50.07556 53.94664 52.01110
# Shear Modulus (GPa) = 24.88064 26.47852 25.67958
#
# Velocity S-wave (km/s) = 3.41798 3.52603 3.47243
# Velocity P-wave (km/s) = 6.25216 6.47361 6.36385
#
# Compressibility (1/GPa) = 0.01996982
#
# Stress axis : x y z
#
# Youngs Moduli (GPa) = 78.52299 78.52299 59.81453
#
# Poissons Ratio (x) = 0.40464 0.17813
# Poissons Ratio (y) = 0.40464 0.17813
# Poissons Ratio (z) = 0.23385 0.23385
#
# Static dielectric constant tensor:
#      x y z
#    x 1.836780 0.000000 0.000000 
#    y 0.000000 1.836780 0.000000 
#    z 0.000000 0.000000 1.769730 
# 
# From -- ./inp_files/4921.got.cif
#   From: 2010.05.17/outbox.cif.g08.bks.cpg/sg112_3_cif.got.tgz:4921.got - 2010.05.20 10:59:04.
