data_PCOD9555359
_publ_section_title
;
Structure prediction by ZEFSAII (Michael W. Deem and Ramdas Pophale) SiO2 
 PCOD9555359
Probable space group: P -4 2 C
;
_chemical_formula_sum "Si O2"
_cell_formula_units_Z 20
_cell_length_a 8.463975
_cell_length_b 8.463975
_cell_length_c 12.399365
_cell_angle_alpha 90.000000
_cell_angle_beta 90.000000
_cell_angle_gamma 90.000000
_cell_volume 888.276532
_symmetry_space_group_name_H-M "P -4 2 C"
_symmetry_group_IT_number 112
_symmetry_cell_setting 'tetragonal'
loop_
_space_group_symop_operation_xyz
x,y,z
y,-x,-z
-x,-y,z
-y,x,-z
x,-y,1/2-z
-x,y,1/2-z
-y,-x,1/2+z
y,x,1/2+z
loop_
_atom_site_type_symbol
_atom_site_label
_atom_site_fract_x
_atom_site_fract_y
_atom_site_fract_z
Si Si1 0.340719 0.797902 0.435225
Si Si2 0.003206 0.196229 0.123304
Si Si3 0.500000 0.500000 0.500000
Si Si4 0.000000 0.500000 0.750000
O O1 0.295899 0.882598 0.548892
O O2 0.471072 0.662377 0.437919
O O3 0.170017 0.730540 0.409250
O O4 0.387833 0.909017 0.334959
O O5 0.000000 0.217814 0.250000
O O6 0.000000 0.000000 0.107497
#
# Coordination Sequence:
#
# PCOD9555359 Si02
#       4
#     8   8   2   2
#     4  12  25  49  72 113 151 203 250 316 389 467
#     4  11  23  45  83 112 141 198 272 320 363 457
#     4  12  32  46  68 108 174 188 238 312 408 458
#     4  12  28  46  84 100 156 198 262 326 392 454
#
# _framework density 22.515512000000001
#
# number of rings (size 3 to 8) (size 9 to 14) (size 15 to 20)
#    0.000    0.400    4.000    4.800    5.600    0.800 
#    0.000    7.000    0.000    0.000    0.000    0.000 
#    0.000    0.000    0.000    0.000    0.000    0.000 
#
# Total GULP energy -111411.137837 kJ/mol
# GULP energy per Si atom -5570.556892 kJ/mol
# Density = 2.246427 g / cm^3
# Si number density = 22.515512 Si / 1000 Ang^3
#
#
#
# Elastic Constant Matrix: (Units=GPa)
#
#
# Indices 1 2 3 4 5 6 
#
# 1 83.2226 26.9640 50.5714 0.0000 0.0000 0.0000
# 2 26.9640 83.2226 50.5714 0.0000 0.0000 0.0000
# 3 50.5714 50.5714 219.7165 0.0000 0.0000 0.0000
# 4 0.0000 0.0000 0.0000 9.6551 0.0000 0.0000
# 5 0.0000 0.0000 0.0000 0.0000 9.6551 0.0000
# 6 0.0000 0.0000 0.0000 0.0000 0.0000 40.4492
#
#
#
# Elastic Compliance Matrix: (Units=1/GPa)
#
#
# Indices 1 2 3 4 5 6 
#
# 1 0.014641 -0.003134 -0.002648 0.000000 0.000000 0.000000
# 2 -0.003134 0.014641 -0.002648 0.000000 0.000000 0.000000
# 3 -0.002648 -0.002648 0.005770 0.000000 0.000000 0.000000
# 4 0.000000 0.000000 0.000000 0.103573 0.000000 0.000000
# 5 0.000000 0.000000 0.000000 0.000000 0.103573 0.000000
# 6 0.000000 0.000000 0.000000 0.000000 0.000000 0.024722
#
#
# Mechanical properties :
#
#
# Convention : Reuss Voigt Hill
#
# Bulk Modulus (GPa) = 54.97557 71.37504 63.17530
# Shear Modulus (GPa) = 17.25058 29.15554 23.20306
#
# Velocity S-wave (km/s) = 2.77097 3.60239 3.21368
# Velocity P-wave (km/s) = 5.89130 7.00515 6.47223
#
# Compressibility (1/GPa) = 0.01818990
#
# Stress axis : x y z
#
# Youngs Moduli (GPa) = 68.30228 68.30228 173.29595
#
# Poissons Ratio (x) = 0.21408 0.45896
# Poissons Ratio (y) = 0.21408 0.45896
# Poissons Ratio (z) = 0.18089 0.18089
#
# Static dielectric constant tensor:
#      x y z
#    x 1.986810 0.000000 0.000000 
#    y 0.000000 1.986810 0.000000 
#    z 0.000000 0.000000 1.863070 
# 
# From -- ./inp_files/1838.got.cif
#   From: 2010.05.17/outbox.cif.g08.bks.cpg/sg112_1_cif.got.tgz:1838.got - 2010.05.20 10:59:04.
