data_PCOD9555752
_publ_section_title
;
Structure prediction by ZEFSAII (Michael W. Deem and Ramdas Pophale) SiO2 
 PCOD9555752
Probable space group: P -4 21 M 
;
_chemical_formula_sum "Si O2"
_cell_formula_units_Z 56
_cell_length_a 15.722360
_cell_length_b 15.722360
_cell_length_c 14.760170
_cell_angle_alpha 90.000000
_cell_angle_beta 90.000000
_cell_angle_gamma 90.000000
_cell_volume 3648.604857
_symmetry_space_group_name_H-M "P -4 21 M "
_symmetry_group_IT_number 113
_symmetry_cell_setting 'tetragonal'
loop_
_space_group_symop_operation_xyz
x,y,z
y,-x,-z
-x,-y,z
-y,x,-z
1/2+x,1/2-y,-z
1/2-x,1/2+y,-z
1/2-y,1/2-x,z
1/2+y,1/2+x,z
loop_
_atom_site_type_symbol
_atom_site_label
_atom_site_fract_x
_atom_site_fract_y
_atom_site_fract_z
Si Si1 0.427863 0.384432 0.021852
Si Si2 0.115563 0.927856 0.478146
Si Si3 0.257669 0.616374 0.133378
Si Si4 0.000001 0.639943 0.250009
Si Si5 0.398704 0.404611 0.728815
Si Si6 0.601299 0.404613 0.771189
Si Si7 0.257674 0.383621 0.366625
O O1 0.389979 0.384070 0.122420
O O2 0.395686 0.470216 0.972327
O O3 0.406876 0.304966 0.959226
O O4 0.115919 0.889974 0.377577
O O5 0.195029 0.906864 0.540770
O O6 0.029778 0.895685 0.527674
O O7 0.195176 0.695176 0.121611
O O8 0.200936 0.538594 0.172765
O O9 0.330376 0.636536 0.207798
O O10 0.922805 0.577196 0.220850
O O11 0.961406 0.700943 0.327246
O O12 0.077200 0.577200 0.279174
O O13 0.500001 0.404803 0.750005
O O14 0.367073 0.499998 0.750000
O O15 0.636536 0.330380 0.707799
O O16 0.195180 0.304821 0.378385
#
# Coordination Sequence:
#
# PCOD9555752 Si02
#       7
#     8   8   8   8   8   8   8
#     4  11  18  31  53  75 100 134 168 208 266 320
#     4  11  18  31  53  75 100 134 168 208 266 320
#     4  11  21  33  50  80 106 132 181 219 250 310
#     4   9  18  34  53  72 108 150 173 206 258 307
#     4  11  18  32  54  74 100 137 165 204 265 320
#     4  11  18  32  54  74 100 137 165 204 265 320
#     4  11  21  33  50  80 106 132 181 219 250 310
#
# _framework density 15.348333999999999
#
# number of rings (size 3 to 8) (size 9 to 14) (size 15 to 20)
#    0.000    1.286    7.143    1.714    0.000    1.143 
#    0.000    1.429    0.000    0.000    0.000    0.000 
#    0.000    0.571    0.000    0.000    0.000    0.000 
#
# Total GULP energy -312261.388620 kJ/mol
# GULP energy per Si atom -5576.096225 kJ/mol
# Density = 1.531340 g / cm^3
# Si number density = 15.348334 Si / 1000 Ang^3
#
#
#
# Elastic Constant Matrix: (Units=GPa)
#
#
# Indices 1 2 3 4 5 6 
#
# 1 90.9455 44.0666 42.5860 0.0000 0.0000 0.0000
# 2 44.0666 90.9448 42.5864 0.0000 0.0000 0.0000
# 3 42.5860 42.5864 112.1884 0.0000 0.0000 0.0000
# 4 0.0000 0.0000 0.0000 15.6136 0.0000 0.0000
# 5 0.0000 0.0000 0.0000 0.0000 15.6125 0.0000
# 6 0.0000 0.0000 0.0000 0.0000 0.0000 15.4593
#
#
#
# Elastic Compliance Matrix: (Units=1/GPa)
#
#
# Indices 1 2 3 4 5 6 
#
# 1 0.015535 -0.005796 -0.003697 0.000000 0.000000 0.000000
# 2 -0.005796 0.015535 -0.003697 0.000000 0.000000 0.000000
# 3 -0.003697 -0.003697 0.011720 0.000000 0.000000 0.000000
# 4 0.000000 0.000000 0.000000 0.064047 0.000000 0.000000
# 5 0.000000 0.000000 0.000000 0.000000 0.064051 0.000000
# 6 0.000000 0.000000 0.000000 0.000000 0.000000 0.064686
#
#
# Mechanical properties :
#
#
# Convention : Reuss Voigt Hill
#
# Bulk Modulus (GPa) = 60.93608 61.39520 61.16564
# Shear Modulus (GPa) = 18.69684 20.32641 19.51162
#
# Velocity S-wave (km/s) = 3.49401 3.64310 3.56933
# Velocity P-wave (km/s) = 7.48771 7.60160 7.54487
#
# Compressibility (1/GPa) = 0.01641064
#
# Stress axis : x y z
#
# Youngs Moduli (GPa) = 64.36986 64.36900 85.32283
#
# Poissons Ratio (x) = 0.37311 0.31542
# Poissons Ratio (y) = 0.37311 0.31543
# Poissons Ratio (z) = 0.23796 0.23797
#
# Static dielectric constant tensor:
#      x y z
#    x 1.510530 0.000000 0.000000 
#    y 0.000000 1.510530 0.000000 
#    z 0.000000 0.000000 1.515990 
# 
# From -- ./inp_files/2297.got.cif
#   From: 2010.05.17/outbox.cif.g08.bks.cpg/sg113_cif.got.tgz:2297.got - 2010.05.20 11:03:00.
