data_PCOD9555339
_publ_section_title
;
Structure prediction by ZEFSAII (Michael W. Deem and Ramdas Pophale) SiO2 
 PCOD9555339
Probable space group: P -4 2 C
;
_chemical_formula_sum "Si O2"
_cell_formula_units_Z 40
_cell_length_a 15.396860
_cell_length_b 15.396860
_cell_length_c 8.609670
_cell_angle_alpha 90.000000
_cell_angle_beta 90.000000
_cell_angle_gamma 90.000000
_cell_volume 2041.036764
_symmetry_space_group_name_H-M "P -4 2 C"
_symmetry_group_IT_number 112
_symmetry_cell_setting 'tetragonal'
loop_
_space_group_symop_operation_xyz
x,y,z
y,-x,-z
-x,-y,z
-y,x,-z
x,-y,1/2-z
-x,y,1/2-z
-y,-x,1/2+z
y,x,1/2+z
loop_
_atom_site_type_symbol
_atom_site_label
_atom_site_fract_x
_atom_site_fract_y
_atom_site_fract_z
Si Si1 0.395990 0.001309 0.937361
Si Si2 0.563272 0.301800 0.873508
Si Si3 0.827799 0.304496 0.925704
Si Si4 0.439141 0.690749 0.376733
Si Si5 0.174192 0.305098 0.949323
O O1 0.500000 0.000000 0.983729
O O2 0.394801 0.000000 0.750000
O O3 0.342574 0.083679 0.004476
O O4 0.340536 0.919049 0.997210
O O5 0.500000 0.257415 0.750000
O O6 0.623575 0.374409 0.796926
O O7 0.502680 0.349254 0.997870
O O8 0.624216 0.237278 0.969012
O O9 0.758206 0.379036 0.965594
O O10 0.826634 0.302027 0.737796
O O11 0.787086 0.214554 0.991283
O O12 0.500000 0.735589 0.250000
#
# Coordination Sequence:
#
# PCOD9555339 Si02
#       5
#     8   8   8   8   8
#     4  11  25  41  68 102 133 170 219 276 328 395
#     4  11  24  34  57  79 120 164 219 267 322 380
#     4  11  24  42  65  91 128 168 214 267 337 398
#     4  11  22  38  53  82 114 167 213 267 318 378
#     4  11  24  42  65  91 127 170 212 270 336 397
#
# _framework density 19.597881999999998
#
# number of rings (size 3 to 8) (size 9 to 14) (size 15 to 20)
#    0.000    1.000    2.000    4.200   14.000    3.200 
#    0.000    0.000    0.000    0.600    0.000    4.200 
#    0.000    0.000    0.000    0.000    0.000    0.000 
#
# Total GULP energy -222992.280189 kJ/mol
# GULP energy per Si atom -5574.807005 kJ/mol
# Density = 1.955328 g / cm^3
# Si number density = 19.597882 Si / 1000 Ang^3
#
#
#
# Elastic Constant Matrix: (Units=GPa)
#
#
# Indices 1 2 3 4 5 6 
#
# 1 132.9733 72.5541 45.3238 0.0000 0.0000 0.0000
# 2 72.5541 132.9733 45.3238 0.0000 0.0000 0.0000
# 3 45.3238 45.3238 106.5562 0.0000 0.0000 0.0000
# 4 0.0000 0.0000 0.0000 32.7216 0.0000 0.0000
# 5 0.0000 0.0000 0.0000 0.0000 32.7216 0.0000
# 6 0.0000 0.0000 0.0000 0.0000 0.0000 23.7466
#
#
#
# Elastic Compliance Matrix: (Units=1/GPa)
#
#
# Indices 1 2 3 4 5 6 
#
# 1 0.011270 -0.005281 -0.002547 0.000000 0.000000 0.000000
# 2 -0.005281 0.011270 -0.002547 0.000000 0.000000 0.000000
# 3 -0.002547 -0.002547 0.011552 0.000000 0.000000 0.000000
# 4 0.000000 0.000000 0.000000 0.030561 0.000000 0.000000
# 5 0.000000 0.000000 0.000000 0.000000 0.030561 0.000000
# 6 0.000000 0.000000 0.000000 0.000000 0.000000 0.042111
#
#
# Mechanical properties :
#
#
# Convention : Reuss Voigt Hill
#
# Bulk Modulus (GPa) = 74.96160 77.65627 76.30893
# Shear Modulus (GPa) = 30.76481 31.79139 31.27810
#
# Velocity S-wave (km/s) = 3.96637 4.03201 3.99932
# Velocity P-wave (km/s) = 7.70124 7.83498 7.76840
#
# Compressibility (1/GPa) = 0.01334016
#
# Stress axis : x y z
#
# Youngs Moduli (GPa) = 88.73076 88.73076 86.56615
#
# Poissons Ratio (x) = 0.46858 0.22052
# Poissons Ratio (y) = 0.46858 0.22052
# Poissons Ratio (z) = 0.22604 0.22604
#
# Static dielectric constant tensor:
#      x y z
#    x 1.713440 0.000000 0.000000 
#    y 0.000000 1.713440 0.000000 
#    z 0.000000 0.000000 1.743800 
# 
# From -- ./inp_files/1217.got.cif
#   From: 2010.05.17/outbox.cif.g08.bks.cpg/sg112_1_cif.got.tgz:1217.got - 2010.05.20 10:59:04.
