data_PCOD9555837
_publ_section_title
;
Structure prediction by ZEFSAII (Michael W. Deem and Ramdas Pophale) SiO2 
 PCOD9555837
Probable space group: P -4 21 C
;
_chemical_formula_sum "Si O2"
_cell_formula_units_Z 40
_cell_length_a 7.953375
_cell_length_b 7.953375
_cell_length_c 26.071621
_cell_angle_alpha 90.000000
_cell_angle_beta 90.000000
_cell_angle_gamma 90.000000
_cell_volume 1649.190992
_symmetry_space_group_name_H-M "P -4 21 C"
_symmetry_group_IT_number 114
_symmetry_cell_setting 'tetragonal'
loop_
_space_group_symop_operation_xyz
x,y,z
y,-x,-z
-x,-y,z
-y,x,-z
1/2+x,1/2-y,1/2-z
1/2-x,1/2+y,1/2-z
1/2-y,1/2-x,1/2+z
1/2+y,1/2+x,1/2+z
loop_
_atom_site_type_symbol
_atom_site_label
_atom_site_fract_x
_atom_site_fract_y
_atom_site_fract_z
Si Si1 0.202745 0.732497 0.333166
Si Si2 0.578071 0.314256 0.238767
Si Si3 0.749730 0.364311 0.053576
Si Si4 0.369099 0.245805 0.056814
Si Si5 0.409283 0.167437 0.838470
O O1 0.363618 0.701739 0.297551
O O2 0.192333 0.660081 0.390479
O O3 0.046893 0.700117 0.295247
O O4 0.204194 0.933507 0.344628
O O5 0.500000 0.500000 0.237654
O O6 0.748833 0.297821 0.204882
O O7 0.570835 0.271138 0.061184
O O8 0.705446 0.564218 0.050959
O O9 0.855341 0.333364 0.105136
O O10 0.833290 0.326349 0.998611
O O11 0.500000 0.000000 0.820924
#
# Coordination Sequence:
#
# PCOD9555837 Si02
#       5
#     8   8   8   8   8
#     4  10  18  31  48  72 103 139 176 217 272 326
#     4  10  20  32  49  73 108 141 181 221 268 332
#     4   8  13  24  44  73  99 124 158 215 267 321
#     4   8  13  24  46  71  98 127 163 206 269 318
#     4  10  18  29  47  73 103 133 173 223 271 325
#
# _framework density 24.254317
#
# number of rings (size 3 to 8) (size 9 to 14) (size 15 to 20)
#    0.000    2.800    2.000    2.400    0.000    0.000 
#    0.000    0.000    0.000    6.000    5.200    0.000 
#    0.000    0.000    0.000    0.000    0.000    0.000 
#
# Total GULP energy -222772.588011 kJ/mol
# GULP energy per Si atom -5569.314700 kJ/mol
# Density = 2.419911 g / cm^3
# Si number density = 24.254317 Si / 1000 Ang^3
#
#
#
# Elastic Constant Matrix: (Units=GPa)
#
#
# Indices 1 2 3 4 5 6 
#
# 1 34.8451 2.7416 25.8496 0.0000 0.0000 0.0000
# 2 2.7416 34.8451 25.8496 0.0000 0.0000 0.0000
# 3 25.8496 25.8496 172.5787 0.0000 0.0000 0.0000
# 4 0.0000 0.0000 0.0000 24.2663 0.0000 0.0000
# 5 0.0000 0.0000 0.0000 0.0000 24.2663 0.0000
# 6 0.0000 0.0000 0.0000 0.0000 0.0000 12.1073
#
#
#
# Elastic Compliance Matrix: (Units=1/GPa)
#
#
# Indices 1 2 3 4 5 6 
#
# 1 0.032329 0.001180 -0.005019 0.000000 0.000000 0.000000
# 2 0.001180 0.032329 -0.005019 0.000000 0.000000 0.000000
# 3 -0.005019 -0.005019 0.007298 0.000000 0.000000 0.000000
# 4 0.000000 0.000000 0.000000 0.041209 0.000000 0.000000
# 5 0.000000 0.000000 0.000000 0.000000 0.041209 0.000000
# 6 0.000000 0.000000 0.000000 0.000000 0.000000 0.082594
#
#
# Mechanical properties :
#
#
# Convention : Reuss Voigt Hill
#
# Bulk Modulus (GPa) = 18.43685 39.01671 28.72678
# Shear Modulus (GPa) = 18.33073 24.64986 21.49029
#
# Velocity S-wave (km/s) = 2.75211 3.19142 2.97987
# Velocity P-wave (km/s) = 4.20913 5.44992 4.86921
#
# Compressibility (1/GPa) = 0.05423920
#
# Stress axis : x y z
#
# Youngs Moduli (GPa) = 30.93194 30.93194 137.02338
#
# Poissons Ratio (x) = -0.03649 0.68773
# Poissons Ratio (y) = -0.03649 0.68773
# Poissons Ratio (z) = 0.15525 0.15525
#
# Static dielectric constant tensor:
#      x y z
#    x 2.025720 0.000000 0.000000 
#    y 0.000000 2.025720 0.000000 
#    z 0.000000 0.000000 2.047290 
# 
# From -- ./inp_files/3355.got.cif
#   From: 2010.05.17/outbox.cif.g08.bks.cpg/sg114_2_cif.got.tgz:3355.got - 2010.05.20 11:04:54.
