data_PCOD9555305
_publ_section_title
;
Structure prediction by ZEFSAII (Michael W. Deem and Ramdas Pophale) SiO2 
 PCOD9555305
Probable space group: P -4 2 C
;
_chemical_formula_sum "Si O2"
_cell_formula_units_Z 26
_cell_length_a 8.756383
_cell_length_b 8.756383
_cell_length_c 14.553641
_cell_angle_alpha 90.000000
_cell_angle_beta 90.000000
_cell_angle_gamma 90.000000
_cell_volume 1115.889410
_symmetry_space_group_name_H-M "P -4 2 C"
_symmetry_group_IT_number 112
_symmetry_cell_setting 'tetragonal'
loop_
_space_group_symop_operation_xyz
x,y,z
y,-x,-z
-x,-y,z
-y,x,-z
x,-y,1/2-z
-x,y,1/2-z
-y,-x,1/2+z
y,x,1/2+z
loop_
_atom_site_type_symbol
_atom_site_label
_atom_site_fract_x
_atom_site_fract_y
_atom_site_fract_z
Si Si1 0.000000 0.745646 0.750000
Si Si2 0.057944 0.827473 0.113016
Si Si3 0.215567 0.679589 0.467865
Si Si4 0.000000 0.500000 0.602159
Si Si5 0.500000 0.500000 0.500000
O O1 0.864111 0.844342 0.795596
O O2 0.943309 0.635549 0.668644
O O3 0.168196 0.767508 0.031522
O O4 0.000000 0.000000 0.093845
O O5 0.908844 0.721503 0.109450
O O6 0.370754 0.592295 0.443319
O O7 0.129923 0.568133 0.538967
#
# Coordination Sequence:
#
# PCOD9555305 Si02
#       5
#     4   8   8   4   2
#     4   9  21  36  68 114 138 180 232 318 394 416
#     4  11  20  39  68 106 131 175 245 331 353 422
#     4  11  21  39  64  99 143 180 243 295 372 439
#     4   9  20  40  68 106 145 186 230 311 378 468
#     4  12  28  36  60 102 136 200 220 306 372 452
#
# _framework density 23.299802
#
# number of rings (size 3 to 8) (size 9 to 14) (size 15 to 20)
#    0.000    1.538    3.077    2.308    4.308    0.000 
#    0.000    0.000    0.000   14.769   24.000    0.000 
#    0.000    0.000    0.000    0.000    0.000    0.000 
#
# Total GULP energy -145146.323351 kJ/mol
# GULP energy per Si atom -5582.550898 kJ/mol
# Density = 2.324677 g / cm^3
# Si number density = 23.299802 Si / 1000 Ang^3
#
#
#
# Elastic Constant Matrix: (Units=GPa)
#
#
# Indices 1 2 3 4 5 6 
#
# 1 147.8501 64.8936 43.6098 0.0000 0.0000 0.0000
# 2 64.8936 147.8501 43.6098 0.0000 0.0000 0.0000
# 3 43.6098 43.6098 110.9141 0.0000 0.0000 0.0000
# 4 0.0000 0.0000 0.0000 24.8942 0.0000 0.0000
# 5 0.0000 0.0000 0.0000 0.0000 24.8942 0.0000
# 6 0.0000 0.0000 0.0000 0.0000 0.0000 75.9352
#
#
#
# Elastic Compliance Matrix: (Units=1/GPa)
#
#
# Indices 1 2 3 4 5 6 
#
# 1 0.008829 -0.003225 -0.002203 0.000000 0.000000 0.000000
# 2 -0.003225 0.008829 -0.002203 0.000000 0.000000 0.000000
# 3 -0.002203 -0.002203 0.010749 0.000000 0.000000 0.000000
# 4 0.000000 0.000000 0.000000 0.040170 0.000000 0.000000
# 5 0.000000 0.000000 0.000000 0.000000 0.040170 0.000000
# 6 0.000000 0.000000 0.000000 0.000000 0.000000 0.013169
#
#
# Mechanical properties :
#
#
# Convention : Reuss Voigt Hill
#
# Bulk Modulus (GPa) = 76.08674 78.98230 77.53452
# Shear Modulus (GPa) = 35.32045 42.11146 38.71596
#
# Velocity S-wave (km/s) = 3.89770 4.25593 4.08075
# Velocity P-wave (km/s) = 7.27891 7.62381 7.45335
#
# Compressibility (1/GPa) = 0.01314289
#
# Stress axis : x y z
#
# Youngs Moduli (GPa) = 113.26104 113.26104 93.03522
#
# Poissons Ratio (x) = 0.36531 0.20499
# Poissons Ratio (y) = 0.36531 0.20499
# Poissons Ratio (z) = 0.24955 0.24955
#
# Static dielectric constant tensor:
#      x y z
#    x 1.948210 0.000000 0.000000 
#    y 0.000000 1.948210 0.000000 
#    z 0.000000 0.000000 1.919050 
# 
# From -- ./inp_files/3890.got.cif
#   From: 2010.05.17/outbox.cif.g08.bks.cpg/sg112_2_cif.got.tgz:3890.got - 2010.05.20 10:59:04.
