data_PCOD9555289
_publ_section_title
;
Structure prediction by ZEFSAII (Michael W. Deem and Ramdas Pophale) SiO2 
 PCOD9555289
Probable space group: P -4 2 C
;
_chemical_formula_sum "Si O2"
_cell_formula_units_Z 38
_cell_length_a 9.050985
_cell_length_b 9.050985
_cell_length_c 23.603889
_cell_angle_alpha 90.000000
_cell_angle_beta 90.000000
_cell_angle_gamma 90.000000
_cell_volume 1933.638364
_symmetry_space_group_name_H-M "P -4 2 C"
_symmetry_group_IT_number 112
_symmetry_cell_setting 'tetragonal'
loop_
_space_group_symop_operation_xyz
x,y,z
y,-x,-z
-x,-y,z
-y,x,-z
x,-y,1/2-z
-x,y,1/2-z
-y,-x,1/2+z
y,x,1/2+z
loop_
_atom_site_type_symbol
_atom_site_label
_atom_site_fract_x
_atom_site_fract_y
_atom_site_fract_z
Si Si1 0.641841 0.789559 0.657079
Si Si2 0.000000 0.000000 0.000000
Si Si3 0.360031 0.335236 0.898205
Si Si4 0.500000 0.500000 0.500000
Si Si5 0.826725 0.525494 0.686587
Si Si6 0.500000 0.000000 0.750000
Si Si7 0.669469 0.011100 0.553319
O O1 0.509376 0.679087 0.639181
O O2 0.782854 0.691281 0.670396
O O3 0.594481 0.893871 0.708963
O O4 0.664315 0.888969 0.602212
O O5 0.009213 0.172206 0.022981
O O6 0.388001 0.421514 0.956904
O O7 0.242346 0.415475 0.859197
O O8 0.321793 0.169811 0.916348
O O9 0.765934 0.500000 0.750000
O O10 0.000000 0.500000 0.687644
O O11 0.500000 0.000000 0.525927
#
# Coordination Sequence:
#
# PCOD9555289 Si02
#       7
#     8   2   8   2   8   2   8
#     4  11  22  44  69 100 135 176 231 292 349 433
#     4  12  28  48  76  98 144 208 232 300 372 418
#     4  11  23  45  68 100 138 176 237 291 355 429
#     4  12  24  40  74 100 132 192 232 290 364 420
#     4  11  25  43  69 103 139 179 231 295 367 429
#     4  12  20  40  78  98 136 184 232 288 362 430
#     4  10  26  47  65 105 139 180 245 290 355 435
#
# _framework density 19.652073999999999
#
# number of rings (size 3 to 8) (size 9 to 14) (size 15 to 20)
#    0.000    1.053    5.263    1.263    8.842    0.842 
#    0.000    0.000    0.000    0.000    0.000    0.000 
#    0.000    0.000    0.000    0.000    0.000    0.000 
#
# Total GULP energy -211834.967363 kJ/mol
# GULP energy per Si atom -5574.604404 kJ/mol
# Density = 1.960734 g / cm^3
# Si number density = 19.652074 Si / 1000 Ang^3
#
#
#
# Elastic Constant Matrix: (Units=GPa)
#
#
# Indices 1 2 3 4 5 6 
#
# 1 120.8373 53.3329 53.3197 0.0000 0.0000 0.0000
# 2 53.3329 120.8373 53.3197 0.0000 0.0000 0.0000
# 3 53.3197 53.3197 86.9447 0.0000 0.0000 0.0000
# 4 0.0000 0.0000 0.0000 31.1870 0.0000 0.0000
# 5 0.0000 0.0000 0.0000 0.0000 31.1870 0.0000
# 6 0.0000 0.0000 0.0000 0.0000 0.0000 31.0600
#
#
#
# Elastic Compliance Matrix: (Units=1/GPa)
#
#
# Indices 1 2 3 4 5 6 
#
# 1 0.012004 -0.002810 -0.005638 0.000000 0.000000 0.000000
# 2 -0.002810 0.012004 -0.005638 0.000000 0.000000 0.000000
# 3 -0.005638 -0.005638 0.018417 0.000000 0.000000 0.000000
# 4 0.000000 0.000000 0.000000 0.032065 0.000000 0.000000
# 5 0.000000 0.000000 0.000000 0.000000 0.032065 0.000000
# 6 0.000000 0.000000 0.000000 0.000000 0.000000 0.032196
#
#
# Mechanical properties :
#
#
# Convention : Reuss Voigt Hill
#
# Bulk Modulus (GPa) = 70.16722 72.06265 71.11493
# Shear Modulus (GPa) = 29.12532 29.92995 29.52763
#
# Velocity S-wave (km/s) = 3.85391 3.90679 3.88044
# Velocity P-wave (km/s) = 7.45559 7.55642 7.50617
#
# Compressibility (1/GPa) = 0.01425167
#
# Stress axis : x y z
#
# Youngs Moduli (GPa) = 83.30788 83.30788 54.29860
#
# Poissons Ratio (x) = 0.23411 0.30614
# Poissons Ratio (y) = 0.23411 0.30614
# Poissons Ratio (z) = 0.46969 0.46969
#
# Static dielectric constant tensor:
#      x y z
#    x 1.709540 0.000000 0.000000 
#    y 0.000000 1.709540 0.000000 
#    z 0.000000 0.000000 1.677530 
# 
# From -- ./inp_files/5427.got.cif
#   From: 2010.05.17/outbox.cif.g08.bks.cpg/sg112_3_cif.got.tgz:5427.got - 2010.05.20 10:59:04.
