data_PCOD9555006
_publ_section_title
;
Structure prediction by ZEFSAII (Michael W. Deem and Ramdas Pophale) SiO2 
 PCOD9555006
Probable space group: P -4 2 C
;
_chemical_formula_sum "Si O2"
_cell_formula_units_Z 40
_cell_length_a 8.788048
_cell_length_b 8.788048
_cell_length_c 23.787465
_cell_angle_alpha 90.000000
_cell_angle_beta 90.000000
_cell_angle_gamma 90.000000
_cell_volume 1837.100871
_symmetry_space_group_name_H-M "P -4 2 C"
_symmetry_group_IT_number 112
_symmetry_cell_setting 'tetragonal'
loop_
_space_group_symop_operation_xyz
x,y,z
y,-x,-z
-x,-y,z
-y,x,-z
x,-y,1/2-z
-x,y,1/2-z
-y,-x,1/2+z
y,x,1/2+z
loop_
_atom_site_type_symbol
_atom_site_label
_atom_site_fract_x
_atom_site_fract_y
_atom_site_fract_z
Si Si1 0.898449 0.224102 0.496336
Si Si2 0.105415 0.640642 0.374587
Si Si3 0.631200 0.117483 0.107224
Si Si4 0.425841 0.344790 0.174853
Si Si5 0.798633 0.097941 0.303931
O O1 0.914174 0.319387 0.439800
O O2 0.819190 0.294627 0.550659
O O3 0.066776 0.183340 0.518306
O O4 0.283746 0.607816 0.364755
O O5 0.080860 0.789648 0.334612
O O6 0.000000 0.500000 0.358191
O O7 0.552000 0.250034 0.141976
O O8 0.500000 0.000000 0.088477
O O9 0.737570 0.017318 0.148256
O O10 0.500000 0.500000 0.195263
O O11 0.338050 0.217608 0.212814
O O12 0.839522 0.000000 0.250000
#
# Coordination Sequence:
#
# PCOD9555006 Si02
#       5
#     8   8   8   8   8
#     4  11  21  35  61  99 136 191 243 288 350 435
#     4  10  22  39  65 101 145 185 231 302 367 425
#     4  10  19  38  61  95 142 173 243 286 345 435
#     4   9  21  39  63 105 135 178 233 300 367 421
#     4   9  20  41  69 101 133 186 243 296 350 427
#
# _framework density 21.773437000000001
#
# number of rings (size 3 to 8) (size 9 to 14) (size 15 to 20)
#    1.200    1.000    2.000    0.600    2.800    3.600 
#    0.000    2.000    0.000    3.600    5.200    0.000 
#    0.000    0.000    0.000    0.000    0.000    0.000 
#
# Total GULP energy -223049.826301 kJ/mol
# GULP energy per Si atom -5576.245658 kJ/mol
# Density = 2.172388 g / cm^3
# Si number density = 21.773437 Si / 1000 Ang^3
#
#
#
# Elastic Constant Matrix: (Units=GPa)
#
#
# Indices 1 2 3 4 5 6 
#
# 1 100.0279 62.2621 47.3816 0.0000 0.0000 0.0000
# 2 62.2621 100.0279 47.3816 0.0000 0.0000 0.0000
# 3 47.3816 47.3816 115.8600 0.0000 0.0000 0.0000
# 4 0.0000 0.0000 0.0000 -104.3903 0.0000 0.0000
# 5 0.0000 0.0000 0.0000 0.0000 -104.3903 0.0000
# 6 0.0000 0.0000 0.0000 0.0000 0.0000 50.8925
#
#
#
# Elastic Compliance Matrix: (Units=1/GPa)
#
#
# Indices 1 2 3 4 5 6 
#
# 1 0.017287 -0.009192 -0.003310 0.000000 0.000000 0.000000
# 2 -0.009192 0.017287 -0.003310 0.000000 0.000000 0.000000
# 3 -0.003310 -0.003310 0.011339 0.000000 0.000000 0.000000
# 4 0.000000 0.000000 0.000000 -0.009579 0.000000 0.000000
# 5 0.000000 0.000000 0.000000 0.000000 -0.009579 0.000000
# 6 0.000000 0.000000 0.000000 0.000000 0.000000 0.019649
#
#
# Mechanical properties :
#
#
# Convention : Reuss Voigt Hill
#
# Bulk Modulus (GPa) = 69.99526 69.99625 69.99576
# Shear Modulus (GPa) = 60.39306 -20.98493 19.70407
#
# Velocity S-wave (km/s) = 5.27231 -3.10786 3.01152
# Velocity P-wave (km/s) = 8.32345 4.39761 6.65653
#
# Compressibility (1/GPa) = 0.01428668
#
# Stress axis : x y z
#
# Youngs Moduli (GPa) = 57.84728 57.84728 88.19336
#
# Poissons Ratio (x) = 0.53174 0.29196
# Poissons Ratio (y) = 0.53174 0.29196
# Poissons Ratio (z) = 0.19150 0.19150
#
# Static dielectric constant tensor:
#      x y z
#    x 1.821640 0.000000 0.000000 
#    y 0.000000 1.821640 0.000000 
#    z 0.000000 0.000000 1.807040 
# 
# From -- ./inp_files/5300.got.cif
#   From: 2010.05.17/outbox.cif.g08.bks.cpg/sg112_3_cif.got.tgz:5300.got - 2010.05.20 10:59:04.
