data_PCOD9555585
_publ_section_title
;
Structure prediction by ZEFSAII (Michael W. Deem and Ramdas Pophale) SiO2 
 PCOD9555585
Probable space group: P -4 21 M 
;
_chemical_formula_sum "Si O2"
_cell_formula_units_Z 40
_cell_length_a 18.170918
_cell_length_b 18.170918
_cell_length_c 5.206145
_cell_angle_alpha 90.000000
_cell_angle_beta 90.000000
_cell_angle_gamma 90.000000
_cell_volume 1718.976727
_symmetry_space_group_name_H-M "P -4 21 M "
_symmetry_group_IT_number 113
_symmetry_cell_setting 'tetragonal'
loop_
_space_group_symop_operation_xyz
x,y,z
y,-x,-z
-x,-y,z
-y,x,-z
1/2+x,1/2-y,-z
1/2-x,1/2+y,-z
1/2-y,1/2-x,z
1/2+y,1/2+x,z
loop_
_atom_site_type_symbol
_atom_site_label
_atom_site_fract_x
_atom_site_fract_y
_atom_site_fract_z
Si Si1 0.815409 0.872145 0.400093
Si Si2 0.116725 0.018205 0.067705
Si Si3 0.588488 0.755925 0.901446
Si Si4 0.962950 0.654866 0.972193
Si Si5 0.275410 0.893119 0.518530
O O1 0.859950 0.947905 0.342472
O O2 0.755852 0.878261 0.623927
O O3 0.873625 0.809550 0.464650
O O4 0.773064 0.859292 0.129878
O O5 0.192952 0.024185 0.915572
O O6 0.059432 0.077018 0.946017
O O7 0.548302 0.831795 0.963518
O O8 0.925764 0.574237 0.942901
O O9 0.921555 0.692016 0.213559
O O10 0.946781 0.699523 0.709945
O O11 0.316729 0.816729 0.456596
#
# Coordination Sequence:
#
# PCOD9555585 Si02
#       5
#     8   8   8   8   8
#     4  10  21  33  50  70 100 135 170 215 261 301
#     4   9  20  32  44  66  96 137 176 204 234 289
#     4  10  21  33  50  70 100 134 171 214 257 303
#     4  10  20  34  54  76 100 133 177 225 273 315
#     4  10  20  34  54  76 100 133 177 224 271 316
#
# _framework density 23.269658
#
# number of rings (size 3 to 8) (size 9 to 14) (size 15 to 20)
#    1.200    1.000    0.000    3.600    2.800    1.600 
#    0.000    2.000    0.000    0.000    0.000    0.000 
#    0.000    4.800    0.000    0.000    0.000    0.000 
#
# Total GULP energy -223139.952791 kJ/mol
# GULP energy per Si atom -5578.498820 kJ/mol
# Density = 2.321669 g / cm^3
# Si number density = 23.269658 Si / 1000 Ang^3
#
#
#
# Elastic Constant Matrix: (Units=GPa)
#
#
# Indices 1 2 3 4 5 6 
#
# 1 17.0051 78.1892 8.1683 0.0000 0.0000 0.0000
# 2 78.1892 17.0046 8.1598 0.0000 0.0000 0.0000
# 3 8.1683 8.1598 118.2551 0.0000 0.0000 0.0000
# 4 0.0000 0.0000 0.0000 6.9289 0.0000 0.0000
# 5 0.0000 0.0000 0.0000 0.0000 6.9290 0.0000
# 6 0.0000 0.0000 0.0000 0.0000 0.0000 32.3361
#
#
#
# Elastic Compliance Matrix: (Units=1/GPa)
#
#
# Indices 1 2 3 4 5 6 
#
# 1 -0.002857 0.013487 -0.000733 0.000000 0.000000 0.000000
# 2 0.013487 -0.002857 -0.000735 0.000000 0.000000 0.000000
# 3 -0.000733 -0.000735 0.008558 0.000000 0.000000 0.000000
# 4 0.000000 0.000000 0.000000 0.144323 0.000000 0.000000
# 5 0.000000 0.000000 0.000000 0.000000 0.144321 0.000000
# 6 0.000000 0.000000 0.000000 0.000000 0.000000 0.030925
#
#
# Mechanical properties :
#
#
# Convention : Reuss Voigt Hill
#
# Bulk Modulus (GPa) = 37.19764 37.92216 37.55990
# Shear Modulus (GPa) = 16.26888 13.08863 14.67876
#
# Velocity S-wave (km/s) = 2.64700 2.37423 2.51432
# Velocity P-wave (km/s) = 5.03610 4.88346 4.96037
#
# Compressibility (1/GPa) = 0.02688343
#
# Stress axis : x y z
#
# Youngs Moduli (GPa) = -350.05313 -350.06612 116.85473
#
# Poissons Ratio (x) = 4.72148 0.08569
# Poissons Ratio (y) = 4.72131 0.08583
# Poissons Ratio (z) = -0.25671 -0.25713
#
# Static dielectric constant tensor:
#      x y z
#    x 1.921470 0.000000 0.000000 
#    y 0.000000 1.921460 0.000000 
#    z 0.000000 0.000000 1.872500 
# 
# From -- ./inp_files/396.got.cif
#   From: 2010.05.17/outbox.cif.g08.bks.cpg/sg113_cif.got.tgz:396.got - 2010.05.20 11:03:00.
