data_PCOD9555914
_publ_section_title
;
Structure prediction by ZEFSAII (Michael W. Deem and Ramdas Pophale) SiO2 
 PCOD9555914
Probable space group: P -4 21 C
;
_chemical_formula_sum "Si O2"
_cell_formula_units_Z 50
_cell_length_a 9.544723
_cell_length_b 9.544723
_cell_length_c 20.789212
_cell_angle_alpha 90.000000
_cell_angle_beta 90.000000
_cell_angle_gamma 90.000000
_cell_volume 1893.933327
_symmetry_space_group_name_H-M "P -4 21 C"
_symmetry_group_IT_number 114
_symmetry_cell_setting 'tetragonal'
loop_
_space_group_symop_operation_xyz
x,y,z
y,-x,-z
-x,-y,z
-y,x,-z
1/2+x,1/2-y,1/2-z
1/2-x,1/2+y,1/2-z
1/2-y,1/2-x,1/2+z
1/2+y,1/2+x,1/2+z
loop_
_atom_site_type_symbol
_atom_site_label
_atom_site_fract_x
_atom_site_fract_y
_atom_site_fract_z
Si Si1 0.011751 0.264497 0.099746
Si Si2 0.000000 0.000000 0.500000
Si Si3 0.000000 0.000000 0.821841
Si Si4 0.811582 0.729170 0.369571
Si Si5 0.260345 0.549648 0.772911
Si Si6 0.610675 0.693197 0.087349
Si Si7 0.000000 0.500000 0.689368
Si Si8 0.517896 0.834588 0.541611
O O1 0.843112 0.284370 0.114861
O O2 0.077340 0.394391 0.139346
O O3 0.028525 0.262508 0.023759
O O4 0.059198 0.118990 0.131079
O O5 0.876228 0.053803 0.453061
O O6 0.107264 0.076794 0.773037
O O7 0.886171 0.752394 0.299674
O O8 0.802534 0.568710 0.393742
O O9 0.940361 0.784631 0.413125
O O10 0.290650 0.635412 0.837169
O O11 0.112306 0.573269 0.737625
O O12 0.685243 0.818896 0.052651
O O13 0.500000 0.000000 0.529852
#
# Coordination Sequence:
#
# PCOD9555914 Si02
#       8
#     8   2   4   8   8   8   4   8
#     4  11  22  38  60  95 126 175 220 284 347 426
#     4  12  18  32  56  92 124 154 204 284 354 392
#     4  10  23  38  59  87 140 177 212 270 350 426
#     4   9  21  36  62  83 121 164 221 279 333 409
#     4   9  19  39  57  89 121 175 223 277 343 403
#     4   9  20  34  61  87 120 161 209 283 333 397
#     4  10  20  36  66  82 124 174 226 274 332 420
#     4  10  19  39  61  89 122 165 224 281 350 410
#
# _framework density 26.400086000000002
#
# number of rings (size 3 to 8) (size 9 to 14) (size 15 to 20)
#    0.960    1.280    0.800    2.400    0.000    2.560 
#    0.000    0.000    3.520    0.000    0.000    0.000 
#    0.000    0.000    0.000    0.000    0.000    0.000 
#
# Total GULP energy -278779.052158 kJ/mol
# GULP energy per Si atom -5575.581043 kJ/mol
# Density = 2.634000 g / cm^3
# Si number density = 26.400086 Si / 1000 Ang^3
#
#
#
# Elastic Constant Matrix: (Units=GPa)
#
#
# Indices 1 2 3 4 5 6 
#
# 1 146.1022 12.0492 37.3194 0.0000 0.0000 0.0000
# 2 12.0492 146.1022 37.3194 0.0000 0.0000 0.0000
# 3 37.3194 37.3194 164.1462 0.0000 0.0000 0.0000
# 4 0.0000 0.0000 0.0000 9.2121 0.0000 0.0000
# 5 0.0000 0.0000 0.0000 0.0000 9.2121 0.0000
# 6 0.0000 0.0000 0.0000 0.0000 0.0000 21.4658
#
#
#
# Elastic Compliance Matrix: (Units=1/GPa)
#
#
# Indices 1 2 3 4 5 6 
#
# 1 0.007271 -0.000188 -0.001610 0.000000 0.000000 0.000000
# 2 -0.000188 0.007271 -0.001610 0.000000 0.000000 0.000000
# 3 -0.001610 -0.001610 0.006824 0.000000 0.000000 0.000000
# 4 0.000000 0.000000 0.000000 0.108553 0.000000 0.000000
# 5 0.000000 0.000000 0.000000 0.000000 0.108553 0.000000
# 6 0.000000 0.000000 0.000000 0.000000 0.000000 0.046586
#
#
# Mechanical properties :
#
#
# Convention : Reuss Voigt Hill
#
# Bulk Modulus (GPa) = 68.73311 69.96963 69.35137
# Shear Modulus (GPa) = 16.85056 32.62218 24.73637
#
# Velocity S-wave (km/s) = 2.52915 3.51904 3.06433
# Velocity P-wave (km/s) = 5.88392 6.56298 6.23270
#
# Compressibility (1/GPa) = 0.01454903
#
# Stress axis : x y z
#
# Youngs Moduli (GPa) = 137.52519 137.52519 146.53351
#
# Poissons Ratio (x) = 0.02590 0.23597
# Poissons Ratio (y) = 0.02590 0.23597
# Poissons Ratio (z) = 0.22147 0.22147
#
# Static dielectric constant tensor:
#      x y z
#    x 2.128760 0.000000 0.000000 
#    y 0.000000 2.128760 0.000000 
#    z 0.000000 0.000000 2.138520 
# 
# From -- ./inp_files/3112.got.cif
#   From: 2010.05.17/outbox.cif.g08.bks.cpg/sg114_2_cif.got.tgz:3112.got - 2010.05.20 11:04:54.
