data_PCOD9555278
_publ_section_title
;
Structure prediction by ZEFSAII (Michael W. Deem and Ramdas Pophale) SiO2 
 PCOD9555278
Probable space group: P -4 2 C
;
_chemical_formula_sum "Si O2"
_cell_formula_units_Z 48
_cell_length_a 8.420344
_cell_length_b 8.420344
_cell_length_c 29.871065
_cell_angle_alpha 90.000000
_cell_angle_beta 90.000000
_cell_angle_gamma 90.000000
_cell_volume 2117.924018
_symmetry_space_group_name_H-M "P -4 2 C"
_symmetry_group_IT_number 112
_symmetry_cell_setting 'tetragonal'
loop_
_space_group_symop_operation_xyz
x,y,z
y,-x,-z
-x,-y,z
-y,x,-z
x,-y,1/2-z
-x,y,1/2-z
-y,-x,1/2+z
y,x,1/2+z
loop_
_atom_site_type_symbol
_atom_site_label
_atom_site_fract_x
_atom_site_fract_y
_atom_site_fract_z
Si Si1 0.292254 0.175501 0.229568
Si Si2 0.679692 0.030298 0.931447
Si Si3 0.664560 0.593200 0.809545
Si Si4 0.187344 0.698139 0.601617
Si Si5 0.842223 0.106782 0.359295
Si Si6 0.253947 0.411572 0.989904
O O1 0.458746 0.206210 0.203739
O O2 0.281313 0.301270 0.269979
O O3 0.170213 0.185486 0.189041
O O4 0.281395 0.000000 0.250000
O O5 0.763334 0.150698 0.897744
O O6 0.500000 0.000000 0.917031
O O7 0.775313 0.865904 0.923843
O O8 0.664491 0.114404 0.979821
O O9 0.500000 0.500000 0.805858
O O10 0.689337 0.663100 0.858616
O O11 0.200307 0.575090 0.561331
O O12 0.019977 0.708538 0.626979
O O13 0.000000 0.000000 0.358918
O O14 0.305395 0.585505 0.007412
#
# Coordination Sequence:
#
# PCOD9555278 Si02
#       6
#     8   8   8   8   8   8
#     4  11  22  44  68 102 141 180 240 290 353 432
#     4  11  25  48  66 103 140 181 237 300 349 437
#     4  11  25  42  69 108 142 182 235 301 359 423
#     4  11  25  45  70 100 142 191 234 286 368 427
#     4  10  25  45  70 100 138 193 237 289 363 432
#     4  11  26  45  70 105 137 183 232 297 361 426
#
# _framework density 22.663701
#
# number of rings (size 3 to 8) (size 9 to 14) (size 15 to 20)
#    0.000    1.167    3.333    2.000    9.333    0.333 
#    0.000    0.000    0.000    1.000    0.000    0.000 
#    0.000    0.000    0.000    0.000    0.000    0.000 
#
# Total GULP energy -268152.389049 kJ/mol
# GULP energy per Si atom -5586.508105 kJ/mol
# Density = 2.261212 g / cm^3
# Si number density = 22.663701 Si / 1000 Ang^3
#
#
#
# Elastic Constant Matrix: (Units=GPa)
#
#
# Indices 1 2 3 4 5 6 
#
# 1 55.5490 3.4524 43.7181 0.0000 0.0000 0.0000
# 2 3.4524 55.5490 43.7181 0.0000 0.0000 0.0000
# 3 43.7181 43.7181 189.6780 0.0000 0.0000 0.0000
# 4 0.0000 0.0000 0.0000 31.2455 0.0000 0.0000
# 5 0.0000 0.0000 0.0000 0.0000 31.2455 0.0000
# 6 0.0000 0.0000 0.0000 0.0000 0.0000 19.3407
#
#
#
# Elastic Compliance Matrix: (Units=1/GPa)
#
#
# Indices 1 2 3 4 5 6 
#
# 1 0.022468 0.003273 -0.005933 0.000000 0.000000 0.000000
# 2 0.003273 0.022468 -0.005933 0.000000 0.000000 0.000000
# 3 -0.005933 -0.005933 0.008007 0.000000 0.000000 0.000000
# 4 0.000000 0.000000 0.000000 0.032005 0.000000 0.000000
# 5 0.000000 0.000000 0.000000 0.000000 0.032005 0.000000
# 6 0.000000 0.000000 0.000000 0.000000 0.000000 0.051704
#
#
# Mechanical properties :
#
#
# Convention : Reuss Voigt Hill
#
# Bulk Modulus (GPa) = 27.96638 53.61702 40.79170
# Shear Modulus (GPa) = 25.28297 30.35884 27.82090
#
# Velocity S-wave (km/s) = 3.34364 3.66394 3.50745
# Velocity P-wave (km/s) = 5.22236 6.45045 5.86862
#
# Compressibility (1/GPa) = 0.03575722
#
# Stress axis : x y z
#
# Youngs Moduli (GPa) = 44.50770 44.50770 124.89067
#
# Poissons Ratio (x) = -0.14567 0.74097
# Poissons Ratio (y) = -0.14567 0.74097
# Poissons Ratio (z) = 0.26406 0.26406
#
# Static dielectric constant tensor:
#      x y z
#    x 1.915730 0.000000 0.000000 
#    y 0.000000 1.915730 0.000000 
#    z 0.000000 0.000000 1.847480 
# 
# From -- ./inp_files/6306.got.cif
#   From: 2010.05.17/outbox.cif.g08.bks.cpg/sg112_4_cif.got.tgz:6306.got - 2010.05.20 10:59:04.
