data_PCOD9555579
_publ_section_title
;
Structure prediction by ZEFSAII (Michael W. Deem and Ramdas Pophale) SiO2 
 PCOD9555579
Probable space group: P -4 21 M 
;
_chemical_formula_sum "Si O2"
_cell_formula_units_Z 64
_cell_length_a 16.613187
_cell_length_b 16.613187
_cell_length_c 13.761745
_cell_angle_alpha 90.000000
_cell_angle_beta 90.000000
_cell_angle_gamma 90.000000
_cell_volume 3798.213853
_symmetry_space_group_name_H-M "P -4 21 M "
_symmetry_group_IT_number 113
_symmetry_cell_setting 'tetragonal'
loop_
_space_group_symop_operation_xyz
x,y,z
y,-x,-z
-x,-y,z
-y,x,-z
1/2+x,1/2-y,-z
1/2-x,1/2+y,-z
1/2-y,1/2-x,z
1/2+y,1/2+x,z
loop_
_atom_site_type_symbol
_atom_site_label
_atom_site_fract_x
_atom_site_fract_y
_atom_site_fract_z
Si Si1 0.097641 0.269439 0.240190
Si Si2 0.108304 0.854496 0.391782
Si Si3 0.675680 0.696889 0.954876
Si Si4 0.407751 0.222203 0.769617
Si Si5 0.959349 0.898035 0.944098
Si Si6 0.512691 0.637784 0.265831
Si Si7 0.347225 0.419768 0.409396
Si Si8 0.273222 0.642714 0.832369
O O1 0.149860 0.350141 0.231298
O O2 0.096447 0.233576 0.349092
O O3 0.147568 0.199496 0.183640
O O4 0.003896 0.279389 0.214710
O O5 0.113052 0.774025 0.327159
O O6 0.153819 0.867861 0.492888
O O7 0.014888 0.858355 0.425263
O O8 0.135465 0.928089 0.321621
O O9 0.763146 0.736855 0.961130
O O10 0.632278 0.730894 0.859737
O O11 0.676240 0.600745 0.948850
O O12 0.630069 0.726719 0.052116
O O13 0.364208 0.135793 0.763652
O O14 0.997162 0.905445 0.837762
O O15 0.026294 0.902927 0.027388
O O16 0.577206 0.599976 0.339346
O O17 0.560950 0.716976 0.228331
O O18 0.197161 0.697161 0.803613
#
# Coordination Sequence:
#
# PCOD9555579 Si02
#       8
#     8   8   8   8   8   8   8   8
#     4   9  20  36  55  74  98 136 178 220 259 310
#     4  11  20  32  49  76 105 138 174 207 262 324
#     4  10  20  34  48  69 105 141 168 204 259 310
#     4  10  22  36  53  76 106 137 174 225 269 309
#     4  11  23  29  48  80 107 133 174 210 257 312
#     4  11  20  31  49  75 106 139 173 208 255 317
#     4  10  21  31  50  73 107 139 168 206 265 318
#     4   9  19  34  51  74 105 140 175 206 248 307
#
# _framework density 16.850024999999999
#
# number of rings (size 3 to 8) (size 9 to 14) (size 15 to 20)
#    0.000    1.875    3.750    0.375    5.250    0.750 
#    0.000    0.000    0.000    0.000    0.000    0.000 
#    0.000    2.000    0.000    0.000    0.000    0.000 
#
# Total GULP energy -356290.806633 kJ/mol
# GULP energy per Si atom -5567.043854 kJ/mol
# Density = 1.681167 g / cm^3
# Si number density = 16.850025 Si / 1000 Ang^3
#
#
#
# Elastic Constant Matrix: (Units=GPa)
#
#
# Indices 1 2 3 4 5 6 
#
# 1 53.7687 16.9812 6.5890 0.0000 0.0000 0.0000
# 2 16.9812 53.7694 6.5889 0.0000 0.0000 0.0000
# 3 6.5890 6.5889 67.6578 0.0000 0.0000 0.0000
# 4 0.0000 0.0000 0.0000 18.2049 0.0000 0.0000
# 5 0.0000 0.0000 0.0000 0.0000 18.2046 0.0000
# 6 0.0000 0.0000 0.0000 0.0000 0.0000 21.8038
#
#
#
# Elastic Compliance Matrix: (Units=1/GPa)
#
#
# Indices 1 2 3 4 5 6 
#
# 1 0.020789 -0.006394 -0.001402 0.000000 0.000000 0.000000
# 2 -0.006394 0.020789 -0.001402 0.000000 0.000000 0.000000
# 3 -0.001402 -0.001402 0.015053 0.000000 0.000000 0.000000
# 4 0.000000 0.000000 0.000000 0.054930 0.000000 0.000000
# 5 0.000000 0.000000 0.000000 0.000000 0.054931 0.000000
# 6 0.000000 0.000000 0.000000 0.000000 0.000000 0.045863
#
#
# Mechanical properties :
#
#
# Convention : Reuss Voigt Hill
#
# Bulk Modulus (GPa) = 26.15312 26.16824 26.16068
# Shear Modulus (GPa) = 20.53413 21.31179 20.92296
#
# Velocity S-wave (km/s) = 3.49469 3.56025 3.52762
# Velocity P-wave (km/s) = 5.64257 5.69775 5.67023
#
# Compressibility (1/GPa) = 0.03823636
#
# Stress axis : x y z
#
# Youngs Moduli (GPa) = 48.10175 48.10244 66.43057
#
# Poissons Ratio (x) = 0.30756 0.09313
# Poissons Ratio (y) = 0.30755 0.09313
# Poissons Ratio (z) = 0.06744 0.06743
#
# Static dielectric constant tensor:
#      x y z
#    x 1.599080 0.000000 0.000000 
#    y 0.000000 1.599080 0.000000 
#    z 0.000000 0.000000 1.597920 
# 
# From -- ./inp_files/2023.got.cif
#   From: 2010.05.17/outbox.cif.g08.bks.cpg/sg113_cif.got.tgz:2023.got - 2010.05.20 11:03:00.
