data_PCOD9555447
_publ_section_title
;
Structure prediction by ZEFSAII (Michael W. Deem and Ramdas Pophale) SiO2 
 PCOD9555447
Probable space group: P -4 21 M 
;
_chemical_formula_sum "Si O2"
_cell_formula_units_Z 64
_cell_length_a 16.930561
_cell_length_b 16.930561
_cell_length_c 14.071298
_cell_angle_alpha 90.000000
_cell_angle_beta 90.000000
_cell_angle_gamma 90.000000
_cell_volume 4033.451677
_symmetry_space_group_name_H-M "P -4 21 M "
_symmetry_group_IT_number 113
_symmetry_cell_setting 'tetragonal'
loop_
_space_group_symop_operation_xyz
x,y,z
y,-x,-z
-x,-y,z
-y,x,-z
1/2+x,1/2-y,-z
1/2-x,1/2+y,-z
1/2-y,1/2-x,z
1/2+y,1/2+x,z
loop_
_atom_site_type_symbol
_atom_site_label
_atom_site_fract_x
_atom_site_fract_y
_atom_site_fract_z
Si Si1 0.061474 0.927320 0.736973
Si Si2 0.090090 0.723393 0.251358
Si Si3 0.604587 0.237545 0.036388
Si Si4 0.000340 0.630955 0.091402
Si Si5 0.574296 0.404918 0.956745
Si Si6 0.324558 0.512638 0.399352
Si Si7 0.157205 0.945113 0.399568
Si Si8 0.716850 0.650775 0.766748
O O1 0.077107 0.907712 0.846617
O O2 0.018380 0.864734 0.668800
O O3 0.139098 0.955704 0.681311
O O4 0.000000 0.000000 0.740977
O O5 0.157157 0.657157 0.263626
O O6 0.028174 0.687694 0.176793
O O7 0.052652 0.749111 0.351047
O O8 0.133992 0.803326 0.215008
O O9 0.683241 0.183241 0.028367
O O10 0.534278 0.185457 0.992231
O O11 0.611450 0.321079 0.983569
O O12 0.594116 0.261297 0.146429
O O13 0.075168 0.575168 0.065449
O O14 0.929823 0.570178 0.118968
O O15 0.479811 0.399034 0.979024
O O16 0.310088 0.471114 0.499315
O O17 0.393248 0.577956 0.417658
O O18 0.211532 0.890986 0.334047
O O19 0.782782 0.717219 0.764005
#
# Coordination Sequence:
#
# PCOD9555447 Si02
#       8
#     8   8   8   8   8   8   8   8
#     4  10  18  28  43  71  98 122 156 203 246 294
#     4   9  18  32  51  72  95 130 168 205 248 298
#     4  10  21  34  50  74 103 135 169 207 248 299
#     4   9  18  34  55  76  99 130 171 214 251 295
#     4  11  21  32  48  74 104 135 164 206 256 305
#     4  10  18  28  48  69  95 124 158 204 247 293
#     4  10  18  30  47  69  97 125 163 204 248 293
#     4   9  19  33  49  69  99 135 168 203 245 298
#
# _framework density 15.867303
#
# number of rings (size 3 to 8) (size 9 to 14) (size 15 to 20)
#    0.000    2.250    2.500    1.500    5.250    0.000 
#    0.000    0.625    0.000    2.250    0.000    0.000 
#    0.000    0.000    0.000    0.000    0.000    0.000 
#
# Total GULP energy -356520.648325 kJ/mol
# GULP energy per Si atom -5570.635130 kJ/mol
# Density = 1.583119 g / cm^3
# Si number density = 15.867303 Si / 1000 Ang^3
#
#
#
# Elastic Constant Matrix: (Units=GPa)
#
#
# Indices 1 2 3 4 5 6 
#
# 1 53.0251 17.6525 42.3483 0.0000 0.0000 0.0000
# 2 17.6525 53.0252 42.3485 0.0000 0.0000 0.0000
# 3 42.3483 42.3485 126.5737 0.0000 0.0000 0.0000
# 4 0.0000 0.0000 0.0000 24.1225 0.0000 0.0000
# 5 0.0000 0.0000 0.0000 0.0000 24.1221 0.0000
# 6 0.0000 0.0000 0.0000 0.0000 0.0000 6.0665
#
#
#
# Elastic Compliance Matrix: (Units=1/GPa)
#
#
# Indices 1 2 3 4 5 6 
#
# 1 0.025944 -0.002326 -0.007902 0.000000 0.000000 0.000000
# 2 -0.002326 0.025944 -0.007902 0.000000 0.000000 0.000000
# 3 -0.007902 -0.007902 0.013188 0.000000 0.000000 0.000000
# 4 0.000000 0.000000 0.000000 0.041455 0.000000 0.000000
# 5 0.000000 0.000000 0.000000 0.000000 0.041456 0.000000
# 6 0.000000 0.000000 0.000000 0.000000 0.000000 0.164840
#
#
# Mechanical properties :
#
#
# Convention : Reuss Voigt Hill
#
# Bulk Modulus (GPa) = 34.70255 48.59140 41.64698
# Shear Modulus (GPa) = 13.93948 19.54720 16.74334
#
# Velocity S-wave (km/s) = 2.96717 3.51368 3.25192
# Velocity P-wave (km/s) = 5.80145 6.86668 6.35642
#
# Compressibility (1/GPa) = 0.02881633
#
# Stress axis : x y z
#
# Youngs Moduli (GPa) = 38.54416 38.54413 75.82548
#
# Poissons Ratio (x) = 0.08966 0.59917
# Poissons Ratio (y) = 0.08966 0.59918
# Poissons Ratio (z) = 0.30458 0.30458
#
# Static dielectric constant tensor:
#      x y z
#    x 1.548560 0.000000 0.000000 
#    y 0.000000 1.548550 0.000000 
#    z 0.000000 0.000000 1.516410 
# 
# From -- ./inp_files/2015.got.cif
#   From: 2010.05.17/outbox.cif.g08.bks.cpg/sg113_cif.got.tgz:2015.got - 2010.05.20 11:03:00.
