data_PCOD9555288
_publ_section_title
;
Structure prediction by ZEFSAII (Michael W. Deem and Ramdas Pophale) SiO2 
 PCOD9555288
Probable space group: P -4 2 C
;
_chemical_formula_sum "Si O2"
_cell_formula_units_Z 20
_cell_length_a 9.901456
_cell_length_b 9.901456
_cell_length_c 8.865302
_cell_angle_alpha 90.000000
_cell_angle_beta 90.000000
_cell_angle_gamma 90.000000
_cell_volume 869.143844
_symmetry_space_group_name_H-M "P -4 2 C"
_symmetry_group_IT_number 112
_symmetry_cell_setting 'tetragonal'
loop_
_space_group_symop_operation_xyz
x,y,z
y,-x,-z
-x,-y,z
-y,x,-z
x,-y,1/2-z
-x,y,1/2-z
-y,-x,1/2+z
y,x,1/2+z
loop_
_atom_site_type_symbol
_atom_site_label
_atom_site_fract_x
_atom_site_fract_y
_atom_site_fract_z
Si Si1 0.000000 0.000000 0.750000
Si Si2 0.877770 0.736440 0.649814
Si Si3 0.500000 0.500000 0.000000
Si Si4 0.231768 0.616170 0.151798
O O1 0.912076 0.103166 0.850004
O O2 0.740415 0.726218 0.743030
O O3 0.856026 0.672050 0.487203
O O4 0.000000 0.676662 0.750000
O O5 0.550536 0.630540 0.909894
O O6 0.162191 0.500000 0.250000
#
# Coordination Sequence:
#
# PCOD9555288 Si02
#       4
#     2   8   2   8
#     4   8  24  50  82 108 188 198 288 362 450 492
#     4  10  26  46  82 120 160 228 275 363 442 521
#     4  12  26  48  74 108 178 204 270 356 414 508
#     4  12  25  47  80 120 165 223 282 349 437 525
#
# _framework density 23.011151999999999
#
# number of rings (size 3 to 8) (size 9 to 14) (size 15 to 20)
#    1.200    0.000    4.000    0.600    5.600    1.600 
#    0.000    9.000    0.000    0.000    0.000    0.000 
#    0.000    0.000    0.000    0.000    0.000    0.000 
#
# Total GULP energy -111873.587886 kJ/mol
# GULP energy per Si atom -5593.679394 kJ/mol
# Density = 2.295878 g / cm^3
# Si number density = 23.011152 Si / 1000 Ang^3
#
#
#
# Elastic Constant Matrix: (Units=GPa)
#
#
# Indices 1 2 3 4 5 6 
#
# 1 146.4782 38.2757 80.9259 0.0000 0.0000 0.0000
# 2 38.2757 146.4782 80.9259 0.0000 0.0000 0.0000
# 3 80.9259 80.9259 189.1860 0.0000 0.0000 0.0000
# 4 0.0000 0.0000 0.0000 16.8907 0.0000 0.0000
# 5 0.0000 0.0000 0.0000 0.0000 16.8907 0.0000
# 6 0.0000 0.0000 0.0000 0.0000 0.0000 36.3627
#
#
#
# Elastic Compliance Matrix: (Units=1/GPa)
#
#
# Indices 1 2 3 4 5 6 
#
# 1 0.008949 -0.000293 -0.003703 0.000000 0.000000 0.000000
# 2 -0.000293 0.008949 -0.003703 0.000000 0.000000 0.000000
# 3 -0.003703 -0.003703 0.008454 0.000000 0.000000 0.000000
# 4 0.000000 0.000000 0.000000 0.059204 0.000000 0.000000
# 5 0.000000 0.000000 0.000000 0.000000 0.059204 0.000000
# 6 0.000000 0.000000 0.000000 0.000000 0.000000 0.027501
#
#
# Mechanical properties :
#
#
# Convention : Reuss Voigt Hill
#
# Bulk Modulus (GPa) = 91.28158 98.04415 94.66287
# Shear Modulus (GPa) = 26.13564 32.82982 29.48273
#
# Velocity S-wave (km/s) = 3.37379 3.78126 3.58332
# Velocity P-wave (km/s) = 7.41156 7.85898 7.63854
#
# Compressibility (1/GPa) = 0.01095511
#
# Stress axis : x y z
#
# Youngs Moduli (GPa) = 111.74176 111.74176 118.29160
#
# Poissons Ratio (x) = 0.03271 0.43802
# Poissons Ratio (y) = 0.03271 0.43802
# Poissons Ratio (z) = 0.41377 0.41377
#
# Static dielectric constant tensor:
#      x y z
#    x 1.849240 0.000000 0.000000 
#    y 0.000000 1.849240 0.000000 
#    z 0.000000 0.000000 1.875880 
# 
# From -- ./inp_files/754.got.cif
#   From: 2010.05.17/outbox.cif.g08.bks.cpg/sg112_1_cif.got.tgz:754.got - 2010.05.20 10:59:04.
