data_PCOD9555309
_publ_section_title
;
Structure prediction by ZEFSAII (Michael W. Deem and Ramdas Pophale) SiO2 
 PCOD9555309
Probable space group: P -4 2 C
;
_chemical_formula_sum "Si O2"
_cell_formula_units_Z 32
_cell_length_a 8.832159
_cell_length_b 8.832159
_cell_length_c 19.130825
_cell_angle_alpha 90.000000
_cell_angle_beta 90.000000
_cell_angle_gamma 90.000000
_cell_volume 1492.338889
_symmetry_space_group_name_H-M "P -4 2 C"
_symmetry_group_IT_number 112
_symmetry_cell_setting 'tetragonal'
loop_
_space_group_symop_operation_xyz
x,y,z
y,-x,-z
-x,-y,z
-y,x,-z
x,-y,1/2-z
-x,y,1/2-z
-y,-x,1/2+z
y,x,1/2+z
loop_
_atom_site_type_symbol
_atom_site_label
_atom_site_fract_x
_atom_site_fract_y
_atom_site_fract_z
Si Si1 0.040454 0.771295 0.472854
Si Si2 0.931220 0.169775 0.178135
Si Si3 0.724537 0.449185 0.528703
Si Si4 0.169532 0.566705 0.678025
O O1 0.120396 0.625069 0.503454
O O2 0.905964 0.834504 0.521759
O O3 0.982569 0.753293 0.394098
O O4 0.749262 0.163472 0.180887
O O5 0.000000 0.236150 0.250000
O O6 0.000000 0.000000 0.173768
O O7 0.593349 0.326153 0.515341
O O8 0.738143 0.483724 0.610236
O O9 0.232863 0.500000 0.750000
O O10 0.000000 0.500000 0.671304
#
# Coordination Sequence:
#
# PCOD9555309 Si02
#       4
#     8   8   8   8
#     4  11  21  39  67 101 132 171 222 286 338 389
#     4  11  21  35  61 104 136 167 218 284 339 394
#     4  11  27  44  65  98 133 183 226 273 343 417
#     4  11  24  40  69 100 133 184 223 282 345 410
#
# _framework density 21.44285
#
# number of rings (size 3 to 8) (size 9 to 14) (size 15 to 20)
#    0.000    1.000    5.000    3.000   10.500    0.000 
#    0.000    2.500    0.000    1.500    0.000    0.000 
#    0.000    0.000    0.000    0.000    0.000    0.000 
#
# Total GULP energy -179027.054901 kJ/mol
# GULP energy per Si atom -5594.595466 kJ/mol
# Density = 2.139404 g / cm^3
# Si number density = 21.442850 Si / 1000 Ang^3
#
#
#
# Elastic Constant Matrix: (Units=GPa)
#
#
# Indices 1 2 3 4 5 6 
#
# 1 65.0828 31.6475 41.3740 0.0000 0.0000 0.0000
# 2 31.6475 65.0828 41.3740 0.0000 0.0000 0.0000
# 3 41.3740 41.3740 218.0808 0.0000 0.0000 0.0000
# 4 0.0000 0.0000 0.0000 19.5285 0.0000 0.0000
# 5 0.0000 0.0000 0.0000 0.0000 19.5285 0.0000
# 6 0.0000 0.0000 0.0000 0.0000 0.0000 46.2228
#
#
#
# Elastic Compliance Matrix: (Units=1/GPa)
#
#
# Indices 1 2 3 4 5 6 
#
# 1 0.021125 -0.008784 -0.002341 0.000000 0.000000 0.000000
# 2 -0.008784 0.021125 -0.002341 0.000000 0.000000 0.000000
# 3 -0.002341 -0.002341 0.005474 0.000000 0.000000 0.000000
# 4 0.000000 0.000000 0.000000 0.051207 0.000000 0.000000
# 5 0.000000 0.000000 0.000000 0.000000 0.051207 0.000000
# 6 0.000000 0.000000 0.000000 0.000000 0.000000 0.021634
#
#
# Mechanical properties :
#
#
# Convention : Reuss Voigt Hill
#
# Bulk Modulus (GPa) = 48.09908 64.11526 56.10717
# Shear Modulus (GPa) = 24.31496 32.64603 28.48049
#
# Velocity S-wave (km/s) = 3.37106 3.90611 3.64841
# Velocity P-wave (km/s) = 6.13450 7.09289 6.63103
#
# Compressibility (1/GPa) = 0.02079042
#
# Stress axis : x y z
#
# Youngs Moduli (GPa) = 47.33804 47.33804 182.68739
#
# Poissons Ratio (x) = 0.41581 0.42773
# Poissons Ratio (y) = 0.41581 0.42773
# Poissons Ratio (z) = 0.11083 0.11083
#
# Static dielectric constant tensor:
#      x y z
#    x 1.806750 0.000000 0.000000 
#    y 0.000000 1.806750 0.000000 
#    z 0.000000 0.000000 1.784690 
# 
# From -- ./inp_files/4508.got.cif
#   From: 2010.05.17/outbox.cif.g08.bks.cpg/sg112_3_cif.got.tgz:4508.got - 2010.05.20 10:59:04.
