data_PCOD9555818
_publ_section_title
;
Structure prediction by ZEFSAII (Michael W. Deem and Ramdas Pophale) SiO2 
 PCOD9555818
Probable space group: P -4 21 C
;
_chemical_formula_sum "Si O2"
_cell_formula_units_Z 40
_cell_length_a 13.883376
_cell_length_b 13.883376
_cell_length_c 8.580029
_cell_angle_alpha 90.000000
_cell_angle_beta 90.000000
_cell_angle_gamma 90.000000
_cell_volume 1653.784538
_symmetry_space_group_name_H-M "P -4 21 C"
_symmetry_group_IT_number 114
_symmetry_cell_setting 'tetragonal'
loop_
_space_group_symop_operation_xyz
x,y,z
y,-x,-z
-x,-y,z
-y,x,-z
1/2+x,1/2-y,1/2-z
1/2-x,1/2+y,1/2-z
1/2-y,1/2-x,1/2+z
1/2+y,1/2+x,1/2+z
loop_
_atom_site_type_symbol
_atom_site_label
_atom_site_fract_x
_atom_site_fract_y
_atom_site_fract_z
Si Si1 0.346148 0.011675 0.094681
Si Si2 0.134270 0.205371 0.676289
Si Si3 0.973473 0.634271 0.270157
Si Si4 0.256168 0.685531 0.507285
Si Si5 0.553186 0.729147 0.987702
O O1 0.435491 0.073386 0.163768
O O2 0.255606 0.084330 0.081106
O O3 0.362710 0.983868 0.913566
O O4 0.371243 0.910784 0.180522
O O5 0.221472 0.270859 0.603539
O O6 0.170787 0.180183 0.849534
O O7 0.140849 0.110665 0.562007
O O8 0.023325 0.230080 0.649653
O O9 0.991477 0.731133 0.365492
O O10 0.145025 0.704731 0.563085
#
# Coordination Sequence:
#
# PCOD9555818 Si02
#       5
#     8   8   8   8   8
#     4  10  16  29  45  77 110 145 177 237 307 358
#     4  10  20  40  60  86 120 167 201 259 308 372
#     4  10  18  27  49  78 111 145 187 232 306 376
#     4   9  19  37  59  80 130 156 202 266 301 370
#     4   9  21  35  61  84 118 162 209 252 306 369
#
# _framework density 24.186948000000001
#
# number of rings (size 3 to 8) (size 9 to 14) (size 15 to 20)
#    1.200    1.200    2.000    2.400    0.000    3.600 
#    0.000    2.000    0.000    0.000    0.000    0.000 
#    0.000    0.000    0.000    0.000    0.000    0.000 
#
# Total GULP energy -222815.088088 kJ/mol
# GULP energy per Si atom -5570.377202 kJ/mol
# Density = 2.413190 g / cm^3
# Si number density = 24.186948 Si / 1000 Ang^3
#
#
#
# Elastic Constant Matrix: (Units=GPa)
#
#
# Indices 1 2 3 4 5 6 
#
# 1 46.9870 14.2317 21.9920 0.0000 0.0000 0.0000
# 2 14.2317 46.9870 21.9920 0.0000 0.0000 0.0000
# 3 21.9920 21.9920 127.8975 0.0000 0.0000 0.0000
# 4 0.0000 0.0000 0.0000 31.6002 0.0000 0.0000
# 5 0.0000 0.0000 0.0000 0.0000 31.6002 0.0000
# 6 0.0000 0.0000 0.0000 0.0000 0.0000 33.0820
#
#
#
# Elastic Compliance Matrix: (Units=1/GPa)
#
#
# Indices 1 2 3 4 5 6 
#
# 1 0.024583 -0.005946 -0.003205 0.000000 0.000000 0.000000
# 2 -0.005946 0.024583 -0.003205 0.000000 0.000000 0.000000
# 3 -0.003205 -0.003205 0.008921 0.000000 0.000000 0.000000
# 4 0.000000 0.000000 0.000000 0.031645 0.000000 0.000000
# 5 0.000000 0.000000 0.000000 0.000000 0.031645 0.000000
# 6 0.000000 0.000000 0.000000 0.000000 0.000000 0.030228
#
#
# Mechanical properties :
#
#
# Convention : Reuss Voigt Hill
#
# Bulk Modulus (GPa) = 29.96093 37.58920 33.77507
# Shear Modulus (GPa) = 26.67485 30.16689 28.42087
#
# Velocity S-wave (km/s) = 3.32454 3.53546 3.43162
# Velocity P-wave (km/s) = 5.21065 5.67810 5.44939
#
# Compressibility (1/GPa) = 0.03337680
#
# Stress axis : x y z
#
# Youngs Moduli (GPa) = 40.67795 40.67795 112.09685
#
# Poissons Ratio (x) = 0.24187 0.35924
# Poissons Ratio (y) = 0.24187 0.35924
# Poissons Ratio (z) = 0.13036 0.13036
#
# Static dielectric constant tensor:
#      x y z
#    x 2.087750 0.000000 0.000000 
#    y 0.000000 2.087750 0.000000 
#    z 0.000000 0.000000 1.991370 
# 
# From -- ./inp_files/858.got.cif
#   From: 2010.05.17/outbox.cif.g08.bks.cpg/sg114_1_cif.got.tgz:858.got - 2010.05.20 11:04:54.
