data_PCOD9555865
_publ_section_title
;
Structure prediction by ZEFSAII (Michael W. Deem and Ramdas Pophale) SiO2 
 PCOD9555865
Probable space group: P -4 21 C
;
_chemical_formula_sum "Si O2"
_cell_formula_units_Z 44
_cell_length_a 10.197889
_cell_length_b 10.197889
_cell_length_c 18.279256
_cell_angle_alpha 90.000000
_cell_angle_beta 90.000000
_cell_angle_gamma 90.000000
_cell_volume 1900.986691
_symmetry_space_group_name_H-M "P -4 21 C"
_symmetry_group_IT_number 114
_symmetry_cell_setting 'tetragonal'
loop_
_space_group_symop_operation_xyz
x,y,z
y,-x,-z
-x,-y,z
-y,x,-z
1/2+x,1/2-y,1/2-z
1/2-x,1/2+y,1/2-z
1/2-y,1/2-x,1/2+z
1/2+y,1/2+x,1/2+z
loop_
_atom_site_type_symbol
_atom_site_label
_atom_site_fract_x
_atom_site_fract_y
_atom_site_fract_z
Si Si1 0.703972 0.926395 0.132595
Si Si2 0.750170 0.905683 0.428957
Si Si3 0.213772 0.486861 0.791398
Si Si4 0.324234 0.687253 0.681072
Si Si5 0.500000 0.000000 0.511490
Si Si6 0.639547 0.661640 0.088747
O O1 0.666909 0.189496 0.219201
O O2 0.814023 0.026176 0.155115
O O3 0.624837 0.993469 0.065566
O O4 0.594044 0.902910 0.195546
O O5 0.699349 0.782283 0.383731
O O6 0.626237 0.985035 0.461684
O O7 0.832872 0.869820 0.501418
O O8 0.824731 0.018389 0.384081
O O9 0.295088 0.561486 0.729861
O O10 0.286628 0.508811 0.870153
O O11 0.221301 0.740010 0.890069
#
# Coordination Sequence:
#
# PCOD9555865 Si02
#       6
#     8   8   8   8   4   8
#     4   9  19  43  64  84 131 183 196 251 345 389
#     4  11  22  37  68 101 127 158 235 274 312 390
#     4  10  24  39  67  88 133 177 211 260 331 384
#     4  12  23  42  65  98 126 174 221 267 317 399
#     4  10  18  40  68  94 126 182 212 260 336 396
#     4   9  21  38  61  96 126 169 205 280 328 368
#
# _framework density 23.145875
#
# number of rings (size 3 to 8) (size 9 to 14) (size 15 to 20)
#    1.091    0.727    1.818    2.182    2.545    4.000 
#    0.000    0.000    0.000    0.000    4.727    0.000 
#    0.000    0.000    0.000    0.000    0.000    0.000 
#
# Total GULP energy -245311.160288 kJ/mol
# GULP energy per Si atom -5575.253643 kJ/mol
# Density = 2.309319 g / cm^3
# Si number density = 23.145875 Si / 1000 Ang^3
#
#
#
# Elastic Constant Matrix: (Units=GPa)
#
#
# Indices 1 2 3 4 5 6 
#
# 1 77.4312 12.1129 14.1408 0.0000 0.0000 0.0000
# 2 12.1129 77.4312 14.1408 0.0000 0.0000 0.0000
# 3 14.1408 14.1408 57.4922 0.0000 0.0000 0.0000
# 4 0.0000 0.0000 0.0000 15.0433 0.0000 0.0000
# 5 0.0000 0.0000 0.0000 0.0000 15.0433 0.0000
# 6 0.0000 0.0000 0.0000 0.0000 0.0000 19.8574
#
#
#
# Elastic Compliance Matrix: (Units=1/GPa)
#
#
# Indices 1 2 3 4 5 6 
#
# 1 0.013709 -0.001601 -0.002978 0.000000 0.000000 0.000000
# 2 -0.001601 0.013709 -0.002978 0.000000 0.000000 0.000000
# 3 -0.002978 -0.002978 0.018859 0.000000 0.000000 0.000000
# 4 0.000000 0.000000 0.000000 0.066475 0.000000 0.000000
# 5 0.000000 0.000000 0.000000 0.000000 0.066475 0.000000
# 6 0.000000 0.000000 0.000000 0.000000 0.000000 0.050359
#
#
# Mechanical properties :
#
#
# Convention : Reuss Voigt Hill
#
# Bulk Modulus (GPa) = 32.08970 32.57151 32.33061
# Shear Modulus (GPa) = 19.60118 21.45281 20.52700
#
# Velocity S-wave (km/s) = 2.91323 3.04773 2.98124
# Velocity P-wave (km/s) = 5.02097 5.14662 5.08418
#
# Compressibility (1/GPa) = 0.03116265
#
# Stress axis : x y z
#
# Youngs Moduli (GPa) = 72.94492 72.94492 53.02602
#
# Poissons Ratio (x) = 0.11676 0.15792
# Poissons Ratio (y) = 0.11676 0.15792
# Poissons Ratio (z) = 0.21724 0.21724
#
# Static dielectric constant tensor:
#      x y z
#    x 1.958040 0.000000 0.000000 
#    y 0.000000 1.958040 0.000000 
#    z 0.000000 0.000000 1.909930 
# 
# From -- ./inp_files/2619.got.cif
#   From: 2010.05.17/outbox.cif.g08.bks.cpg/sg114_2_cif.got.tgz:2619.got - 2010.05.20 11:04:54.
