data_PCOD9555112
_publ_section_title
;
Structure prediction by ZEFSAII (Michael W. Deem and Ramdas Pophale) SiO2 
 PCOD9555112
Probable space group: P -4 2 C
;
_chemical_formula_sum "Si O2"
_cell_formula_units_Z 48
_cell_length_a 11.841046
_cell_length_b 11.841046
_cell_length_c 17.337212
_cell_angle_alpha 90.000000
_cell_angle_beta 90.000000
_cell_angle_gamma 90.000000
_cell_volume 2430.856916
_symmetry_space_group_name_H-M "P -4 2 C"
_symmetry_group_IT_number 112
_symmetry_cell_setting 'tetragonal'
loop_
_space_group_symop_operation_xyz
x,y,z
y,-x,-z
-x,-y,z
-y,x,-z
x,-y,1/2-z
-x,y,1/2-z
-y,-x,1/2+z
y,x,1/2+z
loop_
_atom_site_type_symbol
_atom_site_label
_atom_site_fract_x
_atom_site_fract_y
_atom_site_fract_z
Si Si1 0.365784 0.223701 0.496612
Si Si2 0.630178 0.250675 0.722377
Si Si3 0.003254 0.366832 0.576265
Si Si4 0.571048 0.895479 0.916048
Si Si5 0.531089 0.368972 0.126311
Si Si6 0.772538 0.701308 0.636750
O O1 0.333812 0.126790 0.434733
O O2 0.475882 0.184004 0.544945
O O3 0.402702 0.334310 0.451056
O O4 0.268454 0.242204 0.557669
O O5 0.500000 0.239623 0.750000
O O6 0.639968 0.168891 0.648886
O O7 0.647240 0.378901 0.694202
O O8 0.717112 0.233236 0.791819
O O9 0.000000 0.500000 0.595700
O O10 0.054777 0.361367 0.489106
O O11 0.092480 0.309983 0.633150
O O12 0.500000 0.000000 0.881219
O O13 0.500000 0.500000 0.124973
O O14 0.422616 0.287735 0.134183
#
# Coordination Sequence:
#
# PCOD9555112 Si02
#       6
#     8   8   8   8   8   8
#     4  10  21  36  59  84 110 159 216 250 299 358
#     4  12  23  34  47  88 127 158 196 239 310 382
#     4   9  19  40  60  81 113 160 217 254 285 376
#     4   9  18  37  56  77 113 156 202 253 296 362
#     4  12  23  32  51  83 124 160 194 242 296 370
#     4  12  22  35  57  82 120 164 195 247 315 368
#
# _framework density 19.746123000000001
#
# number of rings (size 3 to 8) (size 9 to 14) (size 15 to 20)
#    0.000    1.667    6.667    1.500    2.333    0.333 
#    0.000    0.833    0.000    0.500    0.000    0.000 
#    0.000    0.333    0.000    0.000    0.000    0.000 
#
# Total GULP energy -268051.305070 kJ/mol
# GULP energy per Si atom -5584.402189 kJ/mol
# Density = 1.970118 g / cm^3
# Si number density = 19.746123 Si / 1000 Ang^3
#
#
#
# Elastic Constant Matrix: (Units=GPa)
#
#
# Indices 1 2 3 4 5 6 
#
# 1 52.4334 12.5675 17.9061 0.0000 0.0000 0.0000
# 2 12.5675 52.4334 17.9061 0.0000 0.0000 0.0000
# 3 17.9061 17.9061 49.3308 0.0000 0.0000 0.0000
# 4 0.0000 0.0000 0.0000 26.7982 0.0000 0.0000
# 5 0.0000 0.0000 0.0000 0.0000 26.7982 0.0000
# 6 0.0000 0.0000 0.0000 0.0000 0.0000 16.6669
#
#
#
# Elastic Compliance Matrix: (Units=1/GPa)
#
#
# Indices 1 2 3 4 5 6 
#
# 1 0.022157 -0.002927 -0.006980 0.000000 0.000000 0.000000
# 2 -0.002927 0.022157 -0.006980 0.000000 0.000000 0.000000
# 3 -0.006980 -0.006980 0.025339 0.000000 0.000000 0.000000
# 4 0.000000 0.000000 0.000000 0.037316 0.000000 0.000000
# 5 0.000000 0.000000 0.000000 0.000000 0.037316 0.000000
# 6 0.000000 0.000000 0.000000 0.000000 0.000000 0.059999
#
#
# Mechanical properties :
#
#
# Convention : Reuss Voigt Hill
#
# Bulk Modulus (GPa) = 27.87204 27.88411 27.87807
# Shear Modulus (GPa) = 19.99854 21.10716 20.55285
#
# Velocity S-wave (km/s) = 3.18588 3.27299 3.22973
# Velocity P-wave (km/s) = 5.26108 5.33247 5.29689
#
# Compressibility (1/GPa) = 0.03587825
#
# Stress axis : x y z
#
# Youngs Moduli (GPa) = 45.13222 45.13222 39.46541
#
# Poissons Ratio (x) = 0.13210 0.27548
# Poissons Ratio (y) = 0.13210 0.27548
# Poissons Ratio (z) = 0.31503 0.31503
#
# Static dielectric constant tensor:
#      x y z
#    x 1.714600 0.000000 0.000000 
#    y 0.000000 1.714600 0.000000 
#    z 0.000000 0.000000 1.742350 
# 
# From -- ./inp_files/4110.got.cif
#   From: 2010.05.17/outbox.cif.g08.bks.cpg/sg112_3_cif.got.tgz:4110.got - 2010.05.20 10:59:04.
