data_PCOD9555835
_publ_section_title
;
Structure prediction by ZEFSAII (Michael W. Deem and Ramdas Pophale) SiO2 
 PCOD9555835
Probable space group: P -4 21 C
;
_chemical_formula_sum "Si O2"
_cell_formula_units_Z 64
_cell_length_a 17.801582
_cell_length_b 17.801582
_cell_length_c 7.109860
_cell_angle_alpha 90.000000
_cell_angle_beta 90.000000
_cell_angle_gamma 90.000000
_cell_volume 2253.088482
_symmetry_space_group_name_H-M "P -4 21 C"
_symmetry_group_IT_number 114
_symmetry_cell_setting 'tetragonal'
loop_
_space_group_symop_operation_xyz
x,y,z
y,-x,-z
-x,-y,z
-y,x,-z
1/2+x,1/2-y,1/2-z
1/2-x,1/2+y,1/2-z
1/2-y,1/2-x,1/2+z
1/2+y,1/2+x,1/2+z
loop_
_atom_site_type_symbol
_atom_site_label
_atom_site_fract_x
_atom_site_fract_y
_atom_site_fract_z
Si Si1 0.967009 0.667635 0.236371
Si Si2 0.986726 0.863029 0.816100
Si Si3 0.227747 0.850098 0.264318
Si Si4 0.888538 0.258442 0.292080
Si Si5 0.633688 0.308497 0.209647
Si Si6 0.732498 0.909129 0.293414
Si Si7 0.111481 0.016091 0.754317
Si Si8 0.043922 0.359947 0.677859
O O1 0.051854 0.691019 0.179790
O O2 0.908124 0.736412 0.196034
O O3 0.967706 0.663550 0.462530
O O4 0.940163 0.585505 0.171743
O O5 0.906182 0.824775 0.850538
O O6 0.027214 0.797320 0.705173
O O7 0.961775 0.936378 0.704299
O O8 0.020349 0.882794 0.017305
O O9 0.214117 0.853393 0.490739
O O10 0.309082 0.887700 0.235331
O O11 0.190959 0.770022 0.214020
O O12 0.878630 0.290471 0.501451
O O13 0.937932 0.182976 0.318823
O O14 0.711203 0.344088 0.289619
O O15 0.570434 0.373891 0.207557
O O16 0.662097 0.963128 0.230321
#
# Coordination Sequence:
#
# PCOD9555835 Si02
#       8
#     8   8   8   8   8   8   8   8
#     4   9  17  28  43  62  82 105 132 165 204 241
#     4  10  18  25  34  52  78 104 131 165 202 232
#     4   8  16  31  45  55  72 103 141 171 193 227
#     4   8  16  31  45  55  72 103 141 171 193 227
#     4   9  17  30  44  55  72 103 141 171 193 227
#     4   9  17  30  44  55  72 103 141 171 193 227
#     4  10  18  25  34  52  78 104 131 165 202 232
#     4   9  17  28  43  62  82 105 132 165 204 241
#
# _framework density 28.405452
#
# number of rings (size 3 to 8) (size 9 to 14) (size 15 to 20)
#    0.000    3.000    0.000    3.000    0.000    5.750 
#    0.000    1.250    0.000   19.500    0.000    0.000 
#    0.000    1.000    0.000   12.500    0.000    0.250 
#
# Total GULP energy -356856.010533 kJ/mol
# GULP energy per Si atom -5575.875165 kJ/mol
# Density = 2.834080 g / cm^3
# Si number density = 28.405452 Si / 1000 Ang^3
#
#
#
# Elastic Constant Matrix: (Units=GPa)
#
#
# Indices 1 2 3 4 5 6 
#
# 1 44.8784 73.9182 -4.8867 0.0000 0.0000 0.0000
# 2 73.9182 44.8784 -4.8867 0.0000 0.0000 0.0000
# 3 -4.8867 -4.8867 93.9308 0.0000 0.0000 0.0000
# 4 0.0000 0.0000 0.0000 -17.3789 0.0000 0.0000
# 5 0.0000 0.0000 0.0000 0.0000 -17.3789 0.0000
# 6 0.0000 0.0000 0.0000 0.0000 0.0000 77.7869
#
#
#
# Elastic Compliance Matrix: (Units=1/GPa)
#
#
# Indices 1 2 3 4 5 6 
#
# 1 -0.012991 0.021445 0.000440 0.000000 0.000000 0.000000
# 2 0.021445 -0.012991 0.000440 0.000000 0.000000 0.000000
# 3 0.000440 0.000440 0.010692 0.000000 0.000000 0.000000
# 4 0.000000 0.000000 0.000000 -0.057541 0.000000 0.000000
# 5 0.000000 0.000000 0.000000 0.000000 -0.057541 0.000000
# 6 0.000000 0.000000 0.000000 0.000000 0.000000 0.012856
#
#
# Mechanical properties :
#
#
# Convention : Reuss Voigt Hill
#
# Bulk Modulus (GPa) = 34.06110 34.66414 34.36262
# Shear Modulus (GPa) = -32.81298 16.57536 -8.11881
#
# Velocity S-wave (km/s) = -3.40246 2.41825 -1.69245
# Velocity P-wave (km/s) = 1.84893 4.47516 2.88171
#
# Compressibility (1/GPa) = 0.02935900
#
# Stress axis : x y z
#
# Youngs Moduli (GPa) = -76.97759 -76.97759 93.52874
#
# Poissons Ratio (x) = 1.65076 -0.04113
# Poissons Ratio (y) = 1.65076 -0.04113
# Poissons Ratio (z) = 0.03386 0.03386
#
# Static dielectric constant tensor:
#      x y z
#    x 2.367110 0.000000 0.000000 
#    y 0.000000 2.367110 0.000000 
#    z 0.000000 0.000000 2.180360 
# 
# From -- ./inp_files/1111.got.cif
#   From: 2010.05.17/outbox.cif.g08.bks.cpg/sg114_1_cif.got.tgz:1111.got - 2010.05.20 11:04:54.
