data_PCOD9555590
_publ_section_title
;
Structure prediction by ZEFSAII (Michael W. Deem and Ramdas Pophale) SiO2 
 PCOD9555590
Probable space group: P -4 21 M 
;
_chemical_formula_sum "Si O2"
_cell_formula_units_Z 64
_cell_length_a 12.446372
_cell_length_b 12.446372
_cell_length_c 22.594392
_cell_angle_alpha 90.000000
_cell_angle_beta 90.000000
_cell_angle_gamma 90.000000
_cell_volume 3500.146429
_symmetry_space_group_name_H-M "P -4 21 M "
_symmetry_group_IT_number 113
_symmetry_cell_setting 'tetragonal'
loop_
_space_group_symop_operation_xyz
x,y,z
y,-x,-z
-x,-y,z
-y,x,-z
1/2+x,1/2-y,-z
1/2-x,1/2+y,-z
1/2-y,1/2-x,z
1/2+y,1/2+x,z
loop_
_atom_site_type_symbol
_atom_site_label
_atom_site_fract_x
_atom_site_fract_y
_atom_site_fract_z
Si Si1 0.371158 0.494184 0.760314
Si Si2 0.494490 0.823840 0.905137
Si Si3 0.676444 0.647230 0.433312
Si Si4 0.555992 0.336686 0.008559
Si Si5 0.580179 0.741779 0.545094
Si Si6 0.338202 0.662694 0.135126
Si Si7 0.375286 0.301526 0.677991
Si Si8 0.698281 0.622500 0.303063
O O1 0.500000 0.500000 0.757272
O O2 0.341444 0.439289 0.821797
O O3 0.337252 0.409625 0.709794
O O4 0.336350 0.614955 0.746000
O O5 0.590851 0.909150 0.917525
O O6 0.551030 0.730365 0.866089
O O7 0.395181 0.895181 0.880888
O O8 0.456140 0.763205 0.964571
O O9 0.746387 0.753614 0.431077
O O10 0.598138 0.666646 0.488105
O O11 0.753355 0.546557 0.447004
O O12 0.636176 0.630045 0.366635
O O13 0.620215 0.316613 0.068695
O O14 0.436465 0.381763 0.022207
O O15 0.649002 0.850999 0.539102
O O16 0.619509 0.688600 0.606712
O O17 0.255911 0.755911 0.153034
O O18 0.295574 0.204427 0.692131
O O19 0.495834 0.276298 0.701435
O O20 0.803895 0.696106 0.305074
#
# Coordination Sequence:
#
# PCOD9555590 Si02
#       8
#     8   8   8   8   8   8   8   8
#     4  10  21  34  55  75 107 143 181 217 265 316
#     4   9  18  33  53  79 112 142 171 219 277 323
#     4   9  18  31  49  74 104 134 169 217 267 319
#     4   9  18  31  54  79 109 142 182 220 264 316
#     4   9  18  30  48  75 102 132 171 215 265 320
#     4  10  20  34  55  80 106 144 183 220 260 311
#     4   9  18  34  54  77 104 138 179 221 270 324
#     4   9  19  36  54  77 106 139 178 222 275 324
#
# _framework density 18.284949999999998
#
# number of rings (size 3 to 8) (size 9 to 14) (size 15 to 20)
#    0.000    2.750    0.000    0.750    5.250    1.250 
#    0.000    5.625    0.000    5.250    0.000    0.000 
#    0.000    0.000    0.000    0.000    0.000    0.000 
#
# Total GULP energy -356323.896038 kJ/mol
# GULP energy per Si atom -5567.560876 kJ/mol
# Density = 1.824333 g / cm^3
# Si number density = 18.284950 Si / 1000 Ang^3
#
#
#
# Elastic Constant Matrix: (Units=GPa)
#
#
# Indices 1 2 3 4 5 6 
#
# 1 45.4357 9.1448 10.1733 0.0000 0.0000 0.0000
# 2 9.1448 45.4359 10.1724 0.0000 0.0000 0.0000
# 3 10.1733 10.1724 33.5997 0.0000 0.0000 0.0000
# 4 0.0000 0.0000 0.0000 22.3044 0.0000 0.0000
# 5 0.0000 0.0000 0.0000 0.0000 22.3044 0.0000
# 6 0.0000 0.0000 0.0000 0.0000 0.0000 11.8959
#
#
#
# Elastic Compliance Matrix: (Units=1/GPa)
#
#
# Indices 1 2 3 4 5 6 
#
# 1 0.024104 -0.003451 -0.006253 0.000000 0.000000 0.000000
# 2 -0.003451 0.024103 -0.006252 0.000000 0.000000 0.000000
# 3 -0.006253 -0.006252 0.033549 0.000000 0.000000 0.000000
# 4 0.000000 0.000000 0.000000 0.044834 0.000000 0.000000
# 5 0.000000 0.000000 0.000000 0.000000 0.044834 0.000000
# 6 0.000000 0.000000 0.000000 0.000000 0.000000 0.084062
#
#
# Mechanical properties :
#
#
# Convention : Reuss Voigt Hill
#
# Bulk Modulus (GPa) = 20.06347 20.38360 20.22353
# Shear Modulus (GPa) = 16.44657 17.63300 17.03979
#
# Velocity S-wave (km/s) = 3.00235 3.10876 3.05602
# Velocity P-wave (km/s) = 4.79743 4.90487 4.85145
#
# Compressibility (1/GPa) = 0.04984183
#
# Stress axis : x y z
#
# Youngs Moduli (GPa) = 41.48705 41.48782 29.80759
#
# Poissons Ratio (x) = 0.14319 0.18640
# Poissons Ratio (y) = 0.14318 0.18637
# Poissons Ratio (z) = 0.25943 0.25940
#
# Static dielectric constant tensor:
#      x y z
#    x 1.630340 0.000000 0.000000 
#    y 0.000000 1.630340 0.000000 
#    z 0.000000 0.000000 1.674110 
# 
# From -- ./inp_files/2942.got.cif
#   From: 2010.05.17/outbox.cif.g08.bks.cpg/sg113_cif.got.tgz:2942.got - 2010.05.20 11:03:00.
