data_PCOD9555663
_publ_section_title
;
Structure prediction by ZEFSAII (Michael W. Deem and Ramdas Pophale) SiO2 
 PCOD9555663
Probable space group: P -4 21 M 
;
_chemical_formula_sum "Si O2"
_cell_formula_units_Z 48
_cell_length_a 14.974844
_cell_length_b 14.974844
_cell_length_c 11.672003
_cell_angle_alpha 90.000000
_cell_angle_beta 90.000000
_cell_angle_gamma 90.000000
_cell_volume 2617.399434
_symmetry_space_group_name_H-M "P -4 21 M "
_symmetry_group_IT_number 113
_symmetry_cell_setting 'tetragonal'
loop_
_space_group_symop_operation_xyz
x,y,z
y,-x,-z
-x,-y,z
-y,x,-z
1/2+x,1/2-y,-z
1/2-x,1/2+y,-z
1/2-y,1/2-x,z
1/2+y,1/2+x,z
loop_
_atom_site_type_symbol
_atom_site_label
_atom_site_fract_x
_atom_site_fract_y
_atom_site_fract_z
Si Si1 0.627103 0.727988 0.414763
Si Si2 0.378469 0.262132 0.906607
Si Si3 0.641831 0.000078 0.754413
Si Si4 0.395526 0.506153 0.211007
Si Si5 0.811337 0.832456 0.157033
Si Si6 0.462542 0.705952 0.572588
O O1 0.685093 0.814908 0.446881
O O2 0.625187 0.720900 0.276753
O O3 0.529535 0.723911 0.469338
O O4 0.680072 0.638781 0.454953
O O5 0.283483 0.216518 0.876554
O O6 0.452331 0.194639 0.856683
O O7 0.405284 0.353571 0.844298
O O8 0.378827 0.275087 0.042567
O O9 0.579947 0.079947 0.795706
O O10 0.576098 0.923902 0.705008
O O11 0.708986 0.033714 0.657268
O O12 0.500000 0.500000 0.189842
O O13 0.345970 0.418098 0.159245
O O14 0.373045 0.501547 0.346081
O O15 0.767266 0.732735 0.157028
#
# Coordination Sequence:
#
# PCOD9555663 Si02
#       6
#     8   8   8   8   8   8
#     4  10  21  36  56  79 110 151 189 230 284 341
#     4   9  19  35  55  82 114 145 179 230 284 340
#     4   9  17  33  58  84 108 141 187 237 283 331
#     4  10  22  34  57  83 112 145 190 233 283 333
#     4   9  20  37  54  78 113 151 185 226 284 346
#     4  10  21  34  55  78 114 145 186 235 282 334
#
# _framework density 18.338812000000001
#
# number of rings (size 3 to 8) (size 9 to 14) (size 15 to 20)
#    0.000    2.500    0.000    1.000    7.000    4.667 
#    0.000    0.000    0.000    2.000    0.000    7.000 
#    0.000    0.000    0.000    0.000    0.000    0.000 
#
# Total GULP energy -267458.811058 kJ/mol
# GULP energy per Si atom -5572.058564 kJ/mol
# Density = 1.829707 g / cm^3
# Si number density = 18.338812 Si / 1000 Ang^3
#
#
#
# Elastic Constant Matrix: (Units=GPa)
#
#
# Indices 1 2 3 4 5 6 
#
# 1 68.0787 12.4004 10.6298 0.0000 0.0000 0.0000
# 2 12.4004 68.0753 10.6287 0.0000 0.0000 0.0000
# 3 10.6298 10.6287 26.0144 0.0000 0.0000 0.0000
# 4 0.0000 0.0000 0.0000 13.2165 0.0000 0.0000
# 5 0.0000 0.0000 0.0000 0.0000 13.2168 0.0000
# 6 0.0000 0.0000 0.0000 0.0000 0.0000 18.4443
#
#
#
# Elastic Compliance Matrix: (Units=1/GPa)
#
#
# Indices 1 2 3 4 5 6 
#
# 1 0.015945 -0.002016 -0.005692 0.000000 0.000000 0.000000
# 2 -0.002016 0.015945 -0.005691 0.000000 0.000000 0.000000
# 3 -0.005692 -0.005691 0.043091 0.000000 0.000000 0.000000
# 4 0.000000 0.000000 0.000000 0.075663 0.000000 0.000000
# 5 0.000000 0.000000 0.000000 0.000000 0.075661 0.000000
# 6 0.000000 0.000000 0.000000 0.000000 0.000000 0.054217
#
#
# Mechanical properties :
#
#
# Convention : Reuss Voigt Hill
#
# Bulk Modulus (GPa) = 20.75370 25.49844 23.12607
# Shear Modulus (GPa) = 15.46163 17.54282 16.50223
#
# Velocity S-wave (km/s) = 2.90679 3.09624 3.00301
# Velocity P-wave (km/s) = 4.75471 5.16881 4.96608
#
# Compressibility (1/GPa) = 0.04818418
#
# Stress axis : x y z
#
# Youngs Moduli (GPa) = 62.71664 62.71415 23.20668
#
# Poissons Ratio (x) = 0.12642 0.13208
# Poissons Ratio (y) = 0.12642 0.13207
# Poissons Ratio (z) = 0.35696 0.35691
#
# Static dielectric constant tensor:
#      x y z
#    x 1.661240 0.000000 0.000000 
#    y 0.000000 1.661240 0.000000 
#    z 0.000000 0.000000 1.620390 
# 
# From -- ./inp_files/1817.got.cif
#   From: 2010.05.17/outbox.cif.g08.bks.cpg/sg113_cif.got.tgz:1817.got - 2010.05.20 11:03:00.
