data_PCOD9555216
_publ_section_title
;
Structure prediction by ZEFSAII (Michael W. Deem and Ramdas Pophale) SiO2 
 PCOD9555216
Probable space group: P -4 2 C
;
_chemical_formula_sum "Si O2"
_cell_formula_units_Z 34
_cell_length_a 9.116344
_cell_length_b 9.116344
_cell_length_c 19.706654
_cell_angle_alpha 90.000000
_cell_angle_beta 90.000000
_cell_angle_gamma 90.000000
_cell_volume 1637.775239
_symmetry_space_group_name_H-M "P -4 2 C"
_symmetry_group_IT_number 112
_symmetry_cell_setting 'tetragonal'
loop_
_space_group_symop_operation_xyz
x,y,z
y,-x,-z
-x,-y,z
-y,x,-z
x,-y,1/2-z
-x,y,1/2-z
-y,-x,1/2+z
y,x,1/2+z
loop_
_atom_site_type_symbol
_atom_site_label
_atom_site_fract_x
_atom_site_fract_y
_atom_site_fract_z
Si Si1 0.247820 0.653139 0.663283
Si Si2 0.500000 0.000000 0.933128
Si Si3 0.500000 0.000000 0.250000
Si Si4 0.724697 0.493831 0.980054
Si Si5 0.000000 0.000000 0.250000
Si Si6 0.500000 0.500000 0.250000
Si Si7 0.727509 0.998780 0.823527
O O1 0.247124 0.573692 0.590739
O O2 0.392864 0.599576 0.703780
O O3 0.245098 0.828687 0.657881
O O4 0.106748 0.598989 0.704605
O O5 0.627259 0.058979 0.883046
O O6 0.554043 0.870551 0.981517
O O7 0.612420 0.360028 0.973188
O O8 0.073568 0.116990 0.197919
O O9 0.651866 0.000000 0.750000
#
# Coordination Sequence:
#
# PCOD9555216 Si02
#       7
#     8   4   2   8   2   2   8
#     4  11  22  42  63  98 127 170 219 272 342 383
#     4  12  24  42  68 100 128 192 224 272 338 422
#     4  10  24  38  66  92 132 164 214 284 328 394
#     4  11  24  44  66  93 138 177 219 278 329 412
#     4   8  22  42  60 100 128 168 208 302 322 392
#     4  10  24  34  68  98 116 162 218 280 328 382
#     4  10  23  41  67  96 130 171 228 277 341 390
#
# _framework density 20.759868000000001
#
# number of rings (size 3 to 8) (size 9 to 14) (size 15 to 20)
#    0.706    0.706    2.353    3.176    3.294    1.882 
#    4.235    0.000    0.000    0.000    0.000    0.000 
#    0.000    0.000    0.000    0.000    0.000    0.000 
#
# Total GULP energy -189567.952369 kJ/mol
# GULP energy per Si atom -5575.528011 kJ/mol
# Density = 2.071262 g / cm^3
# Si number density = 20.759868 Si / 1000 Ang^3
#
#
#
# Elastic Constant Matrix: (Units=GPa)
#
#
# Indices 1 2 3 4 5 6 
#
# 1 85.5769 -7.2665 22.8661 0.0000 0.0000 0.0000
# 2 -7.2665 85.5769 22.8661 0.0000 0.0000 0.0000
# 3 22.8661 22.8661 116.8977 0.0000 0.0000 0.0000
# 4 0.0000 0.0000 0.0000 -346.3256 0.0000 0.0000
# 5 0.0000 0.0000 0.0000 0.0000 -346.3256 0.0000
# 6 0.0000 0.0000 0.0000 0.0000 0.0000 16.8120
#
#
#
# Elastic Compliance Matrix: (Units=1/GPa)
#
#
# Indices 1 2 3 4 5 6 
#
# 1 0.012594 0.001823 -0.002820 0.000000 0.000000 0.000000
# 2 0.001823 0.012594 -0.002820 0.000000 0.000000 0.000000
# 3 -0.002820 -0.002820 0.009658 0.000000 0.000000 0.000000
# 4 0.000000 0.000000 0.000000 -0.002887 0.000000 0.000000
# 5 0.000000 0.000000 0.000000 0.000000 -0.002887 0.000000
# 6 0.000000 0.000000 0.000000 0.000000 0.000000 0.059481
#
#
# Mechanical properties :
#
#
# Convention : Reuss Voigt Hill
#
# Bulk Modulus (GPa) = 36.75007 40.55365 38.65186
# Shear Modulus (GPa) = 47.50322 -118.52879 -35.51279
#
# Velocity S-wave (km/s) = 4.78873 -7.56433 -4.14048
# Velocity P-wave (km/s) = 6.95103 7.53094 2.04919
#
# Compressibility (1/GPa) = 0.02721083
#
# Stress axis : x y z
#
# Youngs Moduli (GPa) = 79.40489 79.40489 103.54417
#
# Poissons Ratio (x) = -0.14474 0.29199
# Poissons Ratio (y) = -0.14474 0.29199
# Poissons Ratio (z) = 0.22392 0.22392
#
# Static dielectric constant tensor:
#      x y z
#    x 1.948220 0.000000 0.000000 
#    y 0.000000 1.948220 0.000000 
#    z 0.000000 0.000000 1.736820 
# 
# From -- ./inp_files/4765.got.cif
#   From: 2010.05.17/outbox.cif.g08.bks.cpg/sg112_3_cif.got.tgz:4765.got - 2010.05.20 10:59:04.
