data_PCOD9555707
_publ_section_title
;
Structure prediction by ZEFSAII (Michael W. Deem and Ramdas Pophale) SiO2 
 PCOD9555707
Probable space group: P -4 21 M 
;
_chemical_formula_sum "Si O2"
_cell_formula_units_Z 32
_cell_length_a 13.584540
_cell_length_b 13.584540
_cell_length_c 9.256871
_cell_angle_alpha 90.000000
_cell_angle_beta 90.000000
_cell_angle_gamma 90.000000
_cell_volume 1708.260447
_symmetry_space_group_name_H-M "P -4 21 M "
_symmetry_group_IT_number 113
_symmetry_cell_setting 'tetragonal'
loop_
_space_group_symop_operation_xyz
x,y,z
y,-x,-z
-x,-y,z
-y,x,-z
1/2+x,1/2-y,-z
1/2-x,1/2+y,-z
1/2-y,1/2-x,z
1/2+y,1/2+x,z
loop_
_atom_site_type_symbol
_atom_site_label
_atom_site_fract_x
_atom_site_fract_y
_atom_site_fract_z
Si Si1 0.268071 0.929844 0.027294
Si Si2 0.116910 0.783520 0.159568
Si Si3 0.149742 0.036854 0.535373
Si Si4 0.495853 0.837860 0.342186
O O1 0.356070 0.856070 0.983301
O O2 0.172355 0.863384 0.059564
O O3 0.298173 0.976809 0.181210
O O4 0.250229 0.016031 0.914305
O O5 0.192796 0.692796 0.177073
O O6 0.091547 0.830271 0.314413
O O7 0.249952 0.021706 0.448789
O O8 0.070150 0.099945 0.445176
O O9 0.583663 0.916338 0.339417
O O10 0.397113 0.897113 0.386433
#
# Coordination Sequence:
#
# PCOD9555707 Si02
#       4
#     8   8   8   8
#     4  10  23  42  64  93 126 163 209 259 311 374
#     4  11  24  42  65  94 128 166 209 260 313 369
#     4  11  24  40  62  94 128 165 207 257 311 372
#     4  10  21  40  65  89 120 166 213 258 313 371
#
# _framework density 18.732506000000001
#
# number of rings (size 3 to 8) (size 9 to 14) (size 15 to 20)
#    0.000    1.500    2.500    1.500    3.500    4.000 
#    0.000    0.000    0.000    0.000    0.000    0.000 
#    0.000    0.000    0.000    0.000    0.000    0.000 
#
# Total GULP energy -178808.875857 kJ/mol
# GULP energy per Si atom -5587.777371 kJ/mol
# Density = 1.868987 g / cm^3
# Si number density = 18.732506 Si / 1000 Ang^3
#
#
#
# Elastic Constant Matrix: (Units=GPa)
#
#
# Indices 1 2 3 4 5 6 
#
# 1 98.3527 40.6537 30.4322 0.0000 0.0000 0.0000
# 2 40.6537 98.3511 30.4327 0.0000 0.0000 0.0000
# 3 30.4322 30.4327 33.5500 0.0000 0.0000 0.0000
# 4 0.0000 0.0000 0.0000 37.6356 0.0000 0.0000
# 5 0.0000 0.0000 0.0000 0.0000 37.6353 0.0000
# 6 0.0000 0.0000 0.0000 0.0000 0.0000 19.6624
#
#
#
# Elastic Compliance Matrix: (Units=1/GPa)
#
#
# Indices 1 2 3 4 5 6 
#
# 1 0.014632 -0.002699 -0.010824 0.000000 0.000000 0.000000
# 2 -0.002699 0.014633 -0.010825 0.000000 0.000000 0.000000
# 3 -0.010824 -0.010825 0.049444 0.000000 0.000000 0.000000
# 4 0.000000 0.000000 0.000000 0.026571 0.000000 0.000000
# 5 0.000000 0.000000 0.000000 0.000000 0.026571 0.000000
# 6 0.000000 0.000000 0.000000 0.000000 0.000000 0.050858
#
#
# Mechanical properties :
#
#
# Convention : Reuss Voigt Hill
#
# Bulk Modulus (GPa) = 33.31959 48.14345 40.73152
# Shear Modulus (GPa) = 20.71161 27.56902 24.14031
#
# Velocity S-wave (km/s) = 3.32874 3.84046 3.59372
# Velocity P-wave (km/s) = 5.70961 6.73957 6.24586
#
# Compressibility (1/GPa) = 0.03001237
#
# Stress axis : x y z
#
# Youngs Moduli (GPa) = 68.34171 68.33919 20.22481
#
# Poissons Ratio (x) = 0.18444 0.21892
# Poissons Ratio (y) = 0.18445 0.21894
# Poissons Ratio (z) = 0.73976 0.73979
#
# Static dielectric constant tensor:
#      x y z
#    x 1.643850 0.000000 0.000000 
#    y 0.000000 1.643840 0.000000 
#    z 0.000000 0.000000 1.604840 
# 
# From -- ./inp_files/850.got.cif
#   From: 2010.05.17/outbox.cif.g08.bks.cpg/sg113_cif.got.tgz:850.got - 2010.05.20 11:03:00.
