data_PCOD9555928
_publ_section_title
;
Structure prediction by ZEFSAII (Michael W. Deem and Ramdas Pophale) SiO2 
 PCOD9555928
Probable space group: P -4 21 C
;
_chemical_formula_sum "Si O2"
_cell_formula_units_Z 32
_cell_length_a 7.355884
_cell_length_b 7.355884
_cell_length_c 27.252558
_cell_angle_alpha 90.000000
_cell_angle_beta 90.000000
_cell_angle_gamma 90.000000
_cell_volume 1474.609463
_symmetry_space_group_name_H-M "P -4 21 C"
_symmetry_group_IT_number 114
_symmetry_cell_setting 'tetragonal'
loop_
_space_group_symop_operation_xyz
x,y,z
y,-x,-z
-x,-y,z
-y,x,-z
1/2+x,1/2-y,1/2-z
1/2-x,1/2+y,1/2-z
1/2-y,1/2-x,1/2+z
1/2+y,1/2+x,1/2+z
loop_
_atom_site_type_symbol
_atom_site_label
_atom_site_fract_x
_atom_site_fract_y
_atom_site_fract_z
Si Si1 0.717155 0.817305 0.297072
Si Si2 0.247500 0.323283 0.686874
Si Si3 0.506998 0.720311 0.123951
Si Si4 0.293261 0.980805 0.514951
O O1 0.535953 0.712995 0.312772
O O2 0.745451 0.813027 0.238906
O O3 0.883728 0.742311 0.328428
O O4 0.696278 0.028336 0.310543
O O5 0.294654 0.204199 0.639736
O O6 0.500000 0.500000 0.117107
O O7 0.440442 0.800114 0.073022
O O8 0.167946 0.822722 0.491288
O O9 0.500000 0.000000 0.495891
#
# Coordination Sequence:
#
# PCOD9555928 Si02
#       4
#     8   8   8   8
#     4  10  20  33  54  85 124 168 214 262 321 401
#     4  10  20  33  54  85 124 168 214 262 321 401
#     4  10  20  39  61  90 123 177 222 273 349 407
#     4  11  25  48  75 103 138 179 235 306 361 420
#
# _framework density 21.700664
#
# number of rings (size 3 to 8) (size 9 to 14) (size 15 to 20)
#    0.000    1.750    5.000    0.000    0.000    4.500 
#    0.000    0.000    0.000    0.000    0.000    0.000 
#    0.000    0.000    0.000    0.000    0.000    0.000 
#
# Total GULP energy -178713.727363 kJ/mol
# GULP energy per Si atom -5584.803980 kJ/mol
# Density = 2.165127 g / cm^3
# Si number density = 21.700664 Si / 1000 Ang^3
#
#
#
# Elastic Constant Matrix: (Units=GPa)
#
#
# Indices 1 2 3 4 5 6 
#
# 1 84.3014 10.5464 -10.9253 0.0000 0.0000 0.0000
# 2 10.5464 84.3014 -10.9253 0.0000 0.0000 0.0000
# 3 -10.9253 -10.9253 61.6310 0.0000 0.0000 0.0000
# 4 0.0000 0.0000 0.0000 21.7156 0.0000 0.0000
# 5 0.0000 0.0000 0.0000 0.0000 21.7156 0.0000
# 6 0.0000 0.0000 0.0000 0.0000 0.0000 7.5458
#
#
#
# Elastic Compliance Matrix: (Units=1/GPa)
#
#
# Indices 1 2 3 4 5 6 
#
# 1 0.012275 -0.001283 0.001949 0.000000 0.000000 0.000000
# 2 -0.001283 0.012275 0.001949 0.000000 0.000000 0.000000
# 3 0.001949 0.001949 0.016916 0.000000 0.000000 0.000000
# 4 0.000000 0.000000 0.000000 0.046050 0.000000 0.000000
# 5 0.000000 0.000000 0.000000 0.000000 0.046050 0.000000
# 6 0.000000 0.000000 0.000000 0.000000 0.000000 0.132523
#
#
# Mechanical properties :
#
#
# Convention : Reuss Voigt Hill
#
# Bulk Modulus (GPa) = 21.41562 23.06951 22.24257
# Shear Modulus (GPa) = 18.08795 26.29793 22.19294
#
# Velocity S-wave (km/s) = 2.89021 3.48494 3.20141
# Velocity P-wave (km/s) = 4.58561 5.18140 4.89258
#
# Compressibility (1/GPa) = 0.04669489
#
# Stress axis : x y z
#
# Youngs Moduli (GPa) = 81.46474 81.46474 59.11405
#
# Poissons Ratio (x) = 0.10453 -0.11519
# Poissons Ratio (y) = 0.10453 -0.11519
# Poissons Ratio (z) = -0.15874 -0.15874
#
# Static dielectric constant tensor:
#      x y z
#    x 1.867920 0.000000 0.000000 
#    y 0.000000 1.867920 0.000000 
#    z 0.000000 0.000000 1.723240 
# 
# From -- ./inp_files/3292.got.cif
#   From: 2010.05.17/outbox.cif.g08.bks.cpg/sg114_2_cif.got.tgz:3292.got - 2010.05.20 11:04:54.
