data_PCOD9555415
_publ_section_title
;
Structure prediction by ZEFSAII (Michael W. Deem and Ramdas Pophale) SiO2 
 PCOD9555415
Probable space group: P -4 2 C
;
_chemical_formula_sum "Si O2"
_cell_formula_units_Z 26
_cell_length_a 7.786977
_cell_length_b 7.786977
_cell_length_c 22.278667
_cell_angle_alpha 90.000000
_cell_angle_beta 90.000000
_cell_angle_gamma 90.000000
_cell_volume 1350.911771
_symmetry_space_group_name_H-M "P -4 2 C"
_symmetry_group_IT_number 112
_symmetry_cell_setting 'tetragonal'
loop_
_space_group_symop_operation_xyz
x,y,z
y,-x,-z
-x,-y,z
-y,x,-z
x,-y,1/2-z
-x,y,1/2-z
-y,-x,1/2+z
y,x,1/2+z
loop_
_atom_site_type_symbol
_atom_site_label
_atom_site_fract_x
_atom_site_fract_y
_atom_site_fract_z
Si Si1 0.198244 0.707869 0.680795
Si Si2 0.500000 0.500000 0.000000
Si Si3 0.292131 0.198244 0.180795
Si Si4 0.189951 0.500000 0.407065
O O1 0.235444 0.756048 0.750000
O O2 0.211335 0.500000 0.677351
O O3 0.334112 0.785408 0.635312
O O4 0.000000 0.753979 0.667979
O O5 0.334404 0.500000 0.042450
O O6 0.214592 0.334112 0.135312
O O7 0.000000 0.500000 0.433560
#
# Coordination Sequence:
#
# PCOD9555415 Si02
#       4
#     8   2   8   8
#     4   9  18  36  65  98 130 159 189 238 305 372
#     4  12  28  48  58  80 120 164 216 270 296 336
#     4   9  18  36  65  98 130 159 189 238 305 372
#     4  12  25  41  65  89 116 163 210 252 304 359
#
# _framework density 19.246258999999998
#
# number of rings (size 3 to 8) (size 9 to 14) (size 15 to 20)
#    0.000    1.846    3.077    2.769    0.000    8.615 
#    0.000    3.077    0.000    0.000    0.000    0.000 
#    0.000    0.000    0.000    0.000    0.000    0.000 
#
# Total GULP energy -145342.491358 kJ/mol
# GULP energy per Si atom -5590.095821 kJ/mol
# Density = 1.920245 g / cm^3
# Si number density = 19.246259 Si / 1000 Ang^3
#
#
#
# Elastic Constant Matrix: (Units=GPa)
#
#
# Indices 1 2 3 4 5 6 
#
# 1 115.1820 54.3076 73.6878 0.0000 0.0000 0.0000
# 2 54.3076 115.1820 73.6878 0.0000 0.0000 0.0000
# 3 73.6878 73.6878 107.1993 0.0000 0.0000 0.0000
# 4 0.0000 0.0000 0.0000 -14.6387 0.0000 0.0000
# 5 0.0000 0.0000 0.0000 0.0000 -14.6387 0.0000
# 6 0.0000 0.0000 0.0000 0.0000 0.0000 9.2473
#
#
#
# Elastic Compliance Matrix: (Units=1/GPa)
#
#
# Indices 1 2 3 4 5 6 
#
# 1 0.015547 -0.000881 -0.010081 0.000000 0.000000 0.000000
# 2 -0.000881 0.015547 -0.010081 0.000000 0.000000 0.000000
# 3 -0.010081 -0.010081 0.023188 0.000000 0.000000 0.000000
# 4 0.000000 0.000000 0.000000 -0.068312 0.000000 0.000000
# 5 0.000000 0.000000 0.000000 0.000000 -0.068312 0.000000
# 6 0.000000 0.000000 0.000000 0.000000 0.000000 0.108140
#
#
# Mechanical properties :
#
#
# Convention : Reuss Voigt Hill
#
# Bulk Modulus (GPa) = 82.00166 82.32552 82.16359
# Shear Modulus (GPa) = 69.49456 5.05266 37.27361
#
# Velocity S-wave (km/s) = 6.01552 1.62203 4.40553
# Velocity P-wave (km/s) = 9.53665 6.80997 8.28623
#
# Compressibility (1/GPa) = 0.01219487
#
# Stress axis : x y z
#
# Youngs Moduli (GPa) = 64.32265 64.32265 43.12587
#
# Poissons Ratio (x) = 0.05665 0.43476
# Poissons Ratio (y) = 0.05665 0.43476
# Poissons Ratio (z) = 0.64845 0.64845
#
# Static dielectric constant tensor:
#      x y z
#    x 1.678910 0.000000 0.000000 
#    y 0.000000 1.678910 0.000000 
#    z 0.000000 0.000000 1.622630 
# 
# From -- ./inp_files/3851.got.cif
#   From: 2010.05.17/outbox.cif.g08.bks.cpg/sg112_2_cif.got.tgz:3851.got - 2010.05.20 10:59:04.
