data_PCOD9555033
_publ_section_title
;
Structure prediction by ZEFSAII (Michael W. Deem and Ramdas Pophale) SiO2 
 PCOD9555033
Probable space group: P -4 2 C
;
_chemical_formula_sum "Si O2"
_cell_formula_units_Z 48
_cell_length_a 11.846491
_cell_length_b 11.846491
_cell_length_c 19.102129
_cell_angle_alpha 90.000000
_cell_angle_beta 90.000000
_cell_angle_gamma 90.000000
_cell_volume 2680.780349
_symmetry_space_group_name_H-M "P -4 2 C"
_symmetry_group_IT_number 112
_symmetry_cell_setting 'tetragonal'
loop_
_space_group_symop_operation_xyz
x,y,z
y,-x,-z
-x,-y,z
-y,x,-z
x,-y,1/2-z
-x,y,1/2-z
-y,-x,1/2+z
y,x,1/2+z
loop_
_atom_site_type_symbol
_atom_site_label
_atom_site_fract_x
_atom_site_fract_y
_atom_site_fract_z
Si Si1 0.265951 0.251815 0.380419
Si Si2 0.136237 0.363695 0.250000
Si Si3 0.130964 0.869037 0.000000
Si Si4 0.251815 0.265951 0.619581
Si Si5 0.373999 0.373998 0.500000
Si Si6 0.500000 0.868260 0.165869
O O1 0.194190 0.302449 0.316695
O O2 0.198371 0.166163 0.430380
O O3 0.293406 0.351205 0.435244
O O4 0.384559 0.194351 0.357735
O O5 0.158106 0.500000 0.250000
O O6 0.194190 0.302448 0.183306
O O7 0.000000 0.348796 0.250000
O O8 0.166164 0.801629 0.930381
O O9 0.000000 0.848945 0.014023
O O10 0.351207 0.293406 0.564757
O O11 0.194350 0.384559 0.642265
O O12 0.359507 0.500000 0.526419
O O13 0.500000 0.868062 0.250000
O O14 0.500000 0.000000 0.142113
#
# Coordination Sequence:
#
# PCOD9555033 Si02
#       6
#     8   8   8   8   8   8
#     4  11  21  39  61  87 118 161 196 243 298 357
#     4  11  24  41  61  88 120 155 198 249 301 361
#     4  10  22  40  62  88 120 158 204 254 298 350
#     4  11  21  39  61  87 118 161 196 243 298 357
#     4  10  20  34  56  86 118 150 190 234 282 348
#     4  11  22  38  60  88 120 155 198 247 296 352
#
# _framework density 17.905232999999999
#
# number of rings (size 3 to 8) (size 9 to 14) (size 15 to 20)
#    0.000    1.333    3.333    3.000    0.000    0.000 
#    0.000    0.833    0.000    4.000    0.000    0.000 
#    0.000    0.000    0.000    0.000    0.000    0.000 
#
# Total GULP energy -267565.626149 kJ/mol
# GULP energy per Si atom -5574.283878 kJ/mol
# Density = 1.786448 g / cm^3
# Si number density = 17.905233 Si / 1000 Ang^3
#
#
#
# Elastic Constant Matrix: (Units=GPa)
#
#
# Indices 1 2 3 4 5 6 
#
# 1 149.8567 34.4108 56.9706 0.0000 0.0000 0.0000
# 2 34.4108 149.8567 56.9706 0.0000 0.0000 0.0000
# 3 56.9706 56.9706 132.9036 0.0000 0.0000 0.0000
# 4 0.0000 0.0000 0.0000 21.3174 0.0000 0.0000
# 5 0.0000 0.0000 0.0000 0.0000 21.3174 0.0000
# 6 0.0000 0.0000 0.0000 0.0000 0.0000 30.6838
#
#
#
# Elastic Compliance Matrix: (Units=1/GPa)
#
#
# Indices 1 2 3 4 5 6 
#
# 1 0.008023 -0.000639 -0.003165 0.000000 0.000000 0.000000
# 2 -0.000639 0.008023 -0.003165 0.000000 0.000000 0.000000
# 3 -0.003165 -0.003165 0.010238 0.000000 0.000000 0.000000
# 4 0.000000 0.000000 0.000000 0.046910 0.000000 0.000000
# 5 0.000000 0.000000 0.000000 0.000000 0.046910 0.000000
# 6 0.000000 0.000000 0.000000 0.000000 0.000000 0.032591
#
#
# Mechanical properties :
#
#
# Convention : Reuss Voigt Hill
#
# Bulk Modulus (GPa) = 81.00424 81.03568 81.01996
# Shear Modulus (GPa) = 29.28278 33.61471 31.44875
#
# Velocity S-wave (km/s) = 4.04843 4.33756 4.19549
# Velocity P-wave (km/s) = 8.19706 8.39299 8.29560
#
# Compressibility (1/GPa) = 0.01234503
#
# Stress axis : x y z
#
# Youngs Moduli (GPa) = 124.63996 124.63996 97.67598
#
# Poissons Ratio (x) = 0.07964 0.30917
# Poissons Ratio (y) = 0.07964 0.30917
# Poissons Ratio (z) = 0.39452 0.39452
#
# Static dielectric constant tensor:
#      x y z
#    x 1.621840 0.000000 0.000000 
#    y 0.000000 1.621840 0.000000 
#    z 0.000000 0.000000 1.593960 
# 
# From -- ./inp_files/4119.got.cif
#   From: 2010.05.17/outbox.cif.g08.bks.cpg/sg112_3_cif.got.tgz:4119.got - 2010.05.20 10:59:04.
