data_PCOD9555960
_publ_section_title
;
Structure prediction by ZEFSAII (Michael W. Deem and Ramdas Pophale) SiO2 
 PCOD9555960
Probable space group: P -4 21 C
;
_chemical_formula_sum "Si O2"
_cell_formula_units_Z 56
_cell_length_a 12.092096
_cell_length_b 12.092096
_cell_length_c 20.148147
_cell_angle_alpha 90.000000
_cell_angle_beta 90.000000
_cell_angle_gamma 90.000000
_cell_volume 2946.037588
_symmetry_space_group_name_H-M "P -4 21 C"
_symmetry_group_IT_number 114
_symmetry_cell_setting 'tetragonal'
loop_
_space_group_symop_operation_xyz
x,y,z
y,-x,-z
-x,-y,z
-y,x,-z
1/2+x,1/2-y,1/2-z
1/2-x,1/2+y,1/2-z
1/2-y,1/2-x,1/2+z
1/2+y,1/2+x,1/2+z
loop_
_atom_site_type_symbol
_atom_site_label
_atom_site_fract_x
_atom_site_fract_y
_atom_site_fract_z
Si Si1 0.392834 0.076067 0.979466
Si Si2 0.493348 0.657249 0.462282
Si Si3 0.789130 0.362289 0.150519
Si Si4 0.758847 0.584916 0.798274
Si Si5 0.589108 0.899611 0.129438
Si Si6 0.946853 0.158210 0.187596
Si Si7 0.766275 0.527899 0.269871
O O1 0.287821 0.996524 0.968938
O O2 0.391999 0.168148 0.922324
O O3 0.500000 0.000000 0.973944
O O4 0.383684 0.124626 0.053402
O O5 0.598465 0.609376 0.502868
O O6 0.508871 0.628195 0.385262
O O7 0.670606 0.302253 0.153404
O O8 0.878485 0.273424 0.178385
O O9 0.780927 0.464881 0.200588
O O10 0.800335 0.474643 0.834878
O O11 0.681375 0.545697 0.738359
O O12 0.866169 0.651586 0.771913
O O13 0.500000 0.000000 0.128227
O O14 0.691283 0.944774 0.172436
O O15 0.856522 0.071721 0.214715
#
# Coordination Sequence:
#
# PCOD9555960 Si02
#       7
#     8   8   8   8   8   8   8
#     4  10  22  37  60  87 120 163 206 250 307 374
#     4  10  22  39  59  91 127 159 198 265 329 370
#     4  10  22  36  58  89 118 154 204 248 295 367
#     4  10  21  37  58  88 120 155 201 252 300 361
#     4   9  18  36  60  80 113 161 201 245 300 357
#     4  10  21  37  59  90 121 155 202 255 302 371
#     4  10  20  36  63  86 118 160 203 245 305 364
#
# _framework density 19.008583000000002
#
# number of rings (size 3 to 8) (size 9 to 14) (size 15 to 20)
#    0.000    2.143    1.429    0.857    4.000    7.429 
#    0.000    1.429    0.000    0.000    0.000    0.000 
#    0.000    0.000    0.000    0.000    0.000    0.000 
#
# Total GULP energy -312725.128320 kJ/mol
# GULP energy per Si atom -5584.377291 kJ/mol
# Density = 1.896532 g / cm^3
# Si number density = 19.008583 Si / 1000 Ang^3
#
#
#
# Elastic Constant Matrix: (Units=GPa)
#
#
# Indices 1 2 3 4 5 6 
#
# 1 81.9625 28.9158 35.8153 0.0000 0.0000 0.0000
# 2 28.9158 81.9625 35.8153 0.0000 0.0000 0.0000
# 3 35.8153 35.8153 120.6080 0.0000 0.0000 0.0000
# 4 0.0000 0.0000 0.0000 21.0179 0.0000 0.0000
# 5 0.0000 0.0000 0.0000 0.0000 21.0179 0.0000
# 6 0.0000 0.0000 0.0000 0.0000 0.0000 20.2939
#
#
#
# Elastic Compliance Matrix: (Units=1/GPa)
#
#
# Indices 1 2 3 4 5 6 
#
# 1 0.015006 -0.003846 -0.003314 0.000000 0.000000 0.000000
# 2 -0.003846 0.015006 -0.003314 0.000000 0.000000 0.000000
# 3 -0.003314 -0.003314 0.010260 0.000000 0.000000 0.000000
# 4 0.000000 0.000000 0.000000 0.047578 0.000000 0.000000
# 5 0.000000 0.000000 0.000000 0.000000 0.047578 0.000000
# 6 0.000000 0.000000 0.000000 0.000000 0.000000 0.049276
#
#
# Mechanical properties :
#
#
# Convention : Reuss Voigt Hill
#
# Bulk Modulus (GPa) = 51.75108 53.95841 52.85475
# Shear Modulus (GPa) = 23.57470 24.73174 24.15322
#
# Velocity S-wave (km/s) = 3.52549 3.61097 3.56848
# Velocity P-wave (km/s) = 6.62241 6.77004 6.69663
#
# Compressibility (1/GPa) = 0.01932327
#
# Stress axis : x y z
#
# Youngs Moduli (GPa) = 66.64196 66.64196 97.47033
#
# Poissons Ratio (x) = 0.25629 0.32301
# Poissons Ratio (y) = 0.25629 0.32301
# Poissons Ratio (z) = 0.22085 0.22085
#
# Static dielectric constant tensor:
#      x y z
#    x 1.672990 0.000000 0.000000 
#    y 0.000000 1.672990 0.000000 
#    z 0.000000 0.000000 1.646040 
# 
# From -- ./inp_files/3176.got.cif
#   From: 2010.05.17/outbox.cif.g08.bks.cpg/sg114_2_cif.got.tgz:3176.got - 2010.05.20 11:04:54.
