data_PCOD9555577
_publ_section_title
;
Structure prediction by ZEFSAII (Michael W. Deem and Ramdas Pophale) SiO2 
 PCOD9555577
Probable space group: P -4 21 M 
;
_chemical_formula_sum "Si O2"
_cell_formula_units_Z 64
_cell_length_a 11.848777
_cell_length_b 11.848777
_cell_length_c 23.562692
_cell_angle_alpha 90.000000
_cell_angle_beta 90.000000
_cell_angle_gamma 90.000000
_cell_volume 3308.049186
_symmetry_space_group_name_H-M "P -4 21 M "
_symmetry_group_IT_number 113
_symmetry_cell_setting 'tetragonal'
loop_
_space_group_symop_operation_xyz
x,y,z
y,-x,-z
-x,-y,z
-y,x,-z
1/2+x,1/2-y,-z
1/2-x,1/2+y,-z
1/2-y,1/2-x,z
1/2+y,1/2+x,z
loop_
_atom_site_type_symbol
_atom_site_label
_atom_site_fract_x
_atom_site_fract_y
_atom_site_fract_z
Si Si1 0.508732 0.820276 0.920793
Si Si2 0.895520 0.086547 0.744804
Si Si3 0.779595 0.090290 0.571762
Si Si4 0.821717 0.993820 0.364478
Si Si5 0.823825 0.987148 0.022078
Si Si6 0.737865 0.425280 0.332336
Si Si7 0.680105 0.993538 0.467850
Si Si8 0.342414 0.652541 0.870191
O O1 0.629072 0.870929 0.903489
O O2 0.460348 0.710590 0.889541
O O3 0.416445 0.916445 0.909753
O O4 0.509187 0.791776 0.987657
O O5 0.931501 0.175319 0.696087
O O6 0.873028 0.145310 0.804222
O O7 0.793912 0.010142 0.719258
O O8 0.000000 0.000000 0.751342
O O9 0.705513 0.205513 0.572583
O O10 0.905021 0.109536 0.595987
O O11 0.778170 0.033284 0.510003
O O12 0.722067 0.002638 0.615352
O O13 0.871559 0.117956 0.352867
O O14 0.710319 0.004004 0.401903
O O15 0.821088 0.951747 0.087459
O O16 0.897622 0.890227 0.990317
O O17 0.828226 0.328226 0.318953
O O18 0.582596 0.082596 0.480926
O O19 0.629567 0.870434 0.480456
O O20 0.242665 0.742665 0.880263
#
# Coordination Sequence:
#
# PCOD9555577 Si02
#       8
#     8   8   8   8   8   8   8   8
#     4   9  18  32  50  77 115 147 176 224 281 336
#     4   9  21  37  55  77 109 144 187 235 276 327
#     4  10  21  36  56  85 116 144 179 228 289 350
#     4  10  21  39  57  81 107 150 191 232 277 333
#     4   9  18  31  53  82 107 147 184 224 275 329
#     4  10  21  39  59  82 113 149 189 236 287 341
#     4  10  21  35  54  83 115 147 184 232 289 348
#     4  10  20  33  55  82 110 144 186 230 272 328
#
# _framework density 19.346748999999999
#
# number of rings (size 3 to 8) (size 9 to 14) (size 15 to 20)
#    0.000    2.375    0.000    2.625    5.250    4.250 
#    0.000    0.000    0.000    1.500    0.000    1.750 
#    0.000    0.000    0.000    0.000    0.000    0.000 
#
# Total GULP energy -356562.006030 kJ/mol
# GULP energy per Si atom -5571.281344 kJ/mol
# Density = 1.930271 g / cm^3
# Si number density = 19.346749 Si / 1000 Ang^3
#
#
#
# Elastic Constant Matrix: (Units=GPa)
#
#
# Indices 1 2 3 4 5 6 
#
# 1 34.1329 -2.8288 16.1204 0.0000 0.0000 0.0000
# 2 -2.8288 34.1343 16.1208 0.0000 0.0000 0.0000
# 3 16.1204 16.1208 114.5697 0.0000 0.0000 0.0000
# 4 0.0000 0.0000 0.0000 17.9129 0.0000 0.0000
# 5 0.0000 0.0000 0.0000 0.0000 17.9136 0.0000
# 6 0.0000 0.0000 0.0000 0.0000 0.0000 15.2709
#
#
#
# Elastic Compliance Matrix: (Units=1/GPa)
#
#
# Indices 1 2 3 4 5 6 
#
# 1 0.032207 0.005152 -0.005256 0.000000 0.000000 0.000000
# 2 0.005152 0.032205 -0.005256 0.000000 0.000000 0.000000
# 3 -0.005256 -0.005256 0.010208 0.000000 0.000000 0.000000
# 4 0.000000 0.000000 0.000000 0.055826 0.000000 0.000000
# 5 0.000000 0.000000 0.000000 0.000000 0.055823 0.000000
# 6 0.000000 0.000000 0.000000 0.000000 0.000000 0.065484
#
#
# Mechanical properties :
#
#
# Convention : Reuss Voigt Hill
#
# Bulk Modulus (GPa) = 15.65019 26.85133 21.25076
# Shear Modulus (GPa) = 17.61962 20.44778 19.03370
#
# Velocity S-wave (km/s) = 3.02110 3.25454 3.13999
# Velocity P-wave (km/s) = 4.50292 5.29451 4.91468
#
# Compressibility (1/GPa) = 0.06389698
#
# Stress axis : x y z
#
# Youngs Moduli (GPa) = 31.04943 31.05071 97.96691
#
# Poissons Ratio (x) = -0.15996 0.51496
# Poissons Ratio (y) = -0.15995 0.51495
# Poissons Ratio (z) = 0.16321 0.16321
#
# Static dielectric constant tensor:
#      x y z
#    x 1.721980 0.000000 0.000000 
#    y 0.000000 1.721980 0.000000 
#    z 0.000000 0.000000 1.676230 
# 
# From -- ./inp_files/2891.got.cif
#   From: 2010.05.17/outbox.cif.g08.bks.cpg/sg113_cif.got.tgz:2891.got - 2010.05.20 11:03:00.
