data_PCOD9555313
_publ_section_title
;
Structure prediction by ZEFSAII (Michael W. Deem and Ramdas Pophale) SiO2 
 PCOD9555313
Probable space group: P -4 2 C
;
_chemical_formula_sum "Si O2"
_cell_formula_units_Z 48
_cell_length_a 9.474031
_cell_length_b 9.474031
_cell_length_c 28.510434
_cell_angle_alpha 90.000000
_cell_angle_beta 90.000000
_cell_angle_gamma 90.000000
_cell_volume 2559.018534
_symmetry_space_group_name_H-M "P -4 2 C"
_symmetry_group_IT_number 112
_symmetry_cell_setting 'tetragonal'
loop_
_space_group_symop_operation_xyz
x,y,z
y,-x,-z
-x,-y,z
-y,x,-z
x,-y,1/2-z
-x,y,1/2-z
-y,-x,1/2+z
y,x,1/2+z
loop_
_atom_site_type_symbol
_atom_site_label
_atom_site_fract_x
_atom_site_fract_y
_atom_site_fract_z
Si Si1 0.021630 0.332589 0.694541
Si Si2 0.251117 0.181979 0.640969
Si Si3 0.321294 0.658958 0.054977
Si Si4 0.832215 0.521297 0.301312
Si Si5 0.652477 0.319848 0.446660
Si Si6 0.155057 0.209480 0.359132
O O1 0.926622 0.235656 0.660181
O O2 0.000000 0.500000 0.686052
O O3 0.000000 0.306742 0.750000
O O4 0.173187 0.275011 0.679919
O O5 0.412237 0.200156 0.657550
O O6 0.236772 0.252584 0.590265
O O7 0.205983 0.016634 0.640229
O O8 0.485311 0.703178 0.062192
O O9 0.320276 0.488273 0.059136
O O10 0.218872 0.735581 0.091679
O O11 0.284228 0.686962 0.000586
O O12 0.767072 0.500000 0.250000
O O13 0.804002 0.675101 0.320200
O O14 0.000000 0.500000 0.296213
#
# Coordination Sequence:
#
# PCOD9555313 Si02
#       6
#     8   8   8   8   8   8
#     4  11  25  43  61  85 121 163 205 247 304 369
#     4  11  21  37  61  88 121 157 199 249 303 362
#     4   9  18  35  59  85 117 160 203 246 298 358
#     4   9  18  32  55  87 119 149 187 237 292 353
#     4   9  18  35  59  85 117 160 203 246 298 358
#     4  11  21  37  61  88 121 157 199 249 303 362
#
# _framework density 18.757193000000001
#
# number of rings (size 3 to 8) (size 9 to 14) (size 15 to 20)
#    0.000    2.000    1.667    3.500    0.000    2.667 
#    3.000    0.000    0.000    4.000    0.000    0.000 
#    0.000    0.000    0.000    0.000    0.000    0.000 
#
# Total GULP energy -267431.669477 kJ/mol
# GULP energy per Si atom -5571.493114 kJ/mol
# Density = 1.871450 g / cm^3
# Si number density = 18.757193 Si / 1000 Ang^3
#
#
#
# Elastic Constant Matrix: (Units=GPa)
#
#
# Indices 1 2 3 4 5 6 
#
# 1 40.4396 3.8876 23.6596 0.0000 0.0000 0.0000
# 2 3.8876 40.4396 23.6596 0.0000 0.0000 0.0000
# 3 23.6596 23.6596 129.4234 0.0000 0.0000 0.0000
# 4 0.0000 0.0000 0.0000-1040.8610 0.0000 0.0000
# 5 0.0000 0.0000 0.0000 0.0000-1040.8610 0.0000
# 6 0.0000 0.0000 0.0000 0.0000 0.0000 20.4479
#
#
#
# Elastic Compliance Matrix: (Units=1/GPa)
#
#
# Indices 1 2 3 4 5 6 
#
# 1 0.027694 0.000336 -0.005124 0.000000 0.000000 0.000000
# 2 0.000336 0.027694 -0.005124 0.000000 0.000000 0.000000
# 3 -0.005124 -0.005124 0.009600 0.000000 0.000000 0.000000
# 4 0.000000 0.000000 0.000000 -0.000961 0.000000 0.000000
# 5 0.000000 0.000000 0.000000 0.000000 -0.000961 0.000000
# 6 0.000000 0.000000 0.000000 0.000000 0.000000 0.048905
#
#
# Mechanical properties :
#
#
# Convention : Reuss Voigt Hill
#
# Bulk Modulus (GPa) = 22.14214 34.74625 28.44419
# Shear Modulus (GPa) = 34.04828 -401.64846 -183.80009
#
# Velocity S-wave (km/s) = 4.26515 -14.64907 -9.90968
# Velocity P-wave (km/s) = 6.00713 16.35734 10.75818
#
# Compressibility (1/GPa) = 0.04516276
#
# Stress axis : x y z
#
# Youngs Moduli (GPa) = 36.10909 36.10909 104.16675
#
# Poissons Ratio (x) = -0.01211 0.53375
# Poissons Ratio (y) = -0.01211 0.53375
# Poissons Ratio (z) = 0.18502 0.18502
#
# Static dielectric constant tensor:
#      x y z
#    x 3.931020 0.000000 0.000000 
#    y 0.000000 3.931020 0.000000 
#    z 0.000000 0.000000 1.656630 
# 
# From -- ./inp_files/6275.got.cif
#   From: 2010.05.17/outbox.cif.g08.bks.cpg/sg112_4_cif.got.tgz:6275.got - 2010.05.20 10:59:04.
