data_PCOD9555758
_publ_section_title
;
Structure prediction by ZEFSAII (Michael W. Deem and Ramdas Pophale) SiO2 
 PCOD9555758
Probable space group: P -4 21 M 
;
_chemical_formula_sum "Si O2"
_cell_formula_units_Z 40
_cell_length_a 14.541873
_cell_length_b 14.541873
_cell_length_c 8.026164
_cell_angle_alpha 90.000000
_cell_angle_beta 90.000000
_cell_angle_gamma 90.000000
_cell_volume 1697.261361
_symmetry_space_group_name_H-M "P -4 21 M "
_symmetry_group_IT_number 113
_symmetry_cell_setting 'tetragonal'
loop_
_space_group_symop_operation_xyz
x,y,z
y,-x,-z
-x,-y,z
-y,x,-z
1/2+x,1/2-y,-z
1/2-x,1/2+y,-z
1/2-y,1/2-x,z
1/2+y,1/2+x,z
loop_
_atom_site_type_symbol
_atom_site_label
_atom_site_fract_x
_atom_site_fract_y
_atom_site_fract_z
Si Si1 0.423181 0.076820 0.929643
Si Si2 0.656697 0.686206 0.473599
Si Si3 0.981856 0.759166 0.654817
Si Si4 0.369506 0.714902 0.003570
Si Si5 0.923953 0.423953 0.692877
Si Si6 0.048071 0.774798 0.184486
O O1 0.333714 0.042133 0.838016
O O2 0.500000 0.000000 0.933400
O O3 0.396393 0.103608 0.119080
O O4 0.731170 0.768831 0.445225
O O5 0.574141 0.679094 0.340242
O O6 0.709875 0.593076 0.519556
O O7 0.596119 0.704040 0.640565
O O8 0.027277 0.661915 0.610045
O O9 0.927857 0.754498 0.830621
O O10 0.296070 0.796070 0.963534
O O11 0.315367 0.623308 0.055688
O O12 0.446126 0.693950 0.864978
O O13 0.000000 0.500000 0.710451
#
# Coordination Sequence:
#
# PCOD9555758 Si02
#       6
#     4   8   8   8   4   8
#     4  11  20  37  67 101 133 165 216 268 331 386
#     4  11  24  45  63  92 136 174 217 276 337 384
#     4  11  23  41  68  92 130 178 219 267 326 395
#     4  11  23  43  68  97 131 176 223 267 329 393
#     4  11  20  37  69 103 123 167 228 266 315 390
#     4  11  22  41  66  96 136 173 209 279 332 388
#
# _framework density 23.567378000000001
#
# number of rings (size 3 to 8) (size 9 to 14) (size 15 to 20)
#    0.000    1.000    5.000    3.600    0.000    2.400 
#    0.000   13.000    0.000    0.000    0.000    0.000 
#    0.000    0.000    0.000    0.000    0.000    0.000 
#
# Total GULP energy -223654.821254 kJ/mol
# GULP energy per Si atom -5591.370531 kJ/mol
# Density = 2.351374 g / cm^3
# Si number density = 23.567378 Si / 1000 Ang^3
#
#
#
# Elastic Constant Matrix: (Units=GPa)
#
#
# Indices 1 2 3 4 5 6 
#
# 1 89.5512 129.2828 27.0736 0.0000 0.0000 0.0000
# 2 129.2828 89.5524 27.0735 0.0000 0.0000 0.0000
# 3 27.0736 27.0735 70.9118 0.0000 0.0000 0.0000
# 4 0.0000 0.0000 0.0000 -6.8411 0.0000 0.0000
# 5 0.0000 0.0000 0.0000 0.0000 -6.8434 0.0000
# 6 0.0000 0.0000 0.0000 0.0000 0.0000 57.2063
#
#
#
# Elastic Compliance Matrix: (Units=1/GPa)
#
#
# Indices 1 2 3 4 5 6 
#
# 1 -0.010062 0.015108 -0.001927 0.000000 0.000000 0.000000
# 2 0.015108 -0.010061 -0.001927 0.000000 0.000000 0.000000
# 3 -0.001927 -0.001927 0.015573 0.000000 0.000000 0.000000
# 4 0.000000 0.000000 0.000000 -0.146175 0.000000 0.000000
# 5 0.000000 0.000000 0.000000 0.000000 -0.146125 0.000000
# 6 0.000000 0.000000 0.000000 0.000000 0.000000 0.017481
#
#
# Mechanical properties :
#
#
# Convention : Reuss Voigt Hill
#
# Bulk Modulus (GPa) = 55.68146 68.54168 62.11157
# Shear Modulus (GPa) = -16.89804 13.14340 -1.87732
#
# Velocity S-wave (km/s) = -2.68061 2.36412 -0.89348
# Velocity P-wave (km/s) = 3.75458 6.04967 5.03465
#
# Compressibility (1/GPa) = 0.01795930
#
# Stress axis : x y z
#
# Youngs Moduli (GPa) = -99.38838 -99.39007 64.21285
#
# Poissons Ratio (x) = 1.50157 0.12371
# Poissons Ratio (y) = 1.50154 0.12372
# Poissons Ratio (z) = -0.19148 -0.19150
#
# Static dielectric constant tensor:
#      x y z
#    x 1.965630 0.000000 0.000000 
#    y 0.000000 1.965620 0.000000 
#    z 0.000000 0.000000 2.037220 
# 
# From -- ./inp_files/1070.got.cif
#   From: 2010.05.17/outbox.cif.g08.bks.cpg/sg113_cif.got.tgz:1070.got - 2010.05.20 11:03:00.
