data_PCOD9555187
_publ_section_title
;
Structure prediction by ZEFSAII (Michael W. Deem and Ramdas Pophale) SiO2 
 PCOD9555187
Probable space group: P -4 2 C
;
_chemical_formula_sum "Si O2"
_cell_formula_units_Z 34
_cell_length_a 7.758586
_cell_length_b 7.758586
_cell_length_c 28.337218
_cell_angle_alpha 90.000000
_cell_angle_beta 90.000000
_cell_angle_gamma 90.000000
_cell_volume 1705.777447
_symmetry_space_group_name_H-M "P -4 2 C"
_symmetry_group_IT_number 112
_symmetry_cell_setting 'tetragonal'
loop_
_space_group_symop_operation_xyz
x,y,z
y,-x,-z
-x,-y,z
-y,x,-z
x,-y,1/2-z
-x,y,1/2-z
-y,-x,1/2+z
y,x,1/2+z
loop_
_atom_site_type_symbol
_atom_site_label
_atom_site_fract_x
_atom_site_fract_y
_atom_site_fract_z
Si Si1 0.688389 0.709764 0.647045
Si Si2 0.000000 0.000000 0.000000
Si Si3 0.000001 0.290811 0.577989
Si Si4 0.290235 0.311610 0.352956
Si Si5 0.290827 0.202368 0.250000
O O1 0.836101 0.755170 0.610491
O O2 0.500000 0.765082 0.631105
O O3 0.691528 0.500000 0.649404
O O4 0.720794 0.771338 0.700569
O O5 0.171362 0.000002 0.032277
O O6 0.000000 0.500000 0.569349
O O7 0.836101 0.244829 0.610490
O O8 0.228662 0.279206 0.299431
O O9 0.500000 0.221949 0.250000
O O10 0.253453 0.000000 0.250000
#
# Coordination Sequence:
#
# PCOD9555187 Si02
#       5
#     8   2   8   8   8
#     4   9  16  28  51  83 118 155 191 229 277 335
#     4  12  28  44  64  86 104 144 192 244 312 354
#     4  10  22  41  60  82 111 142 187 242 292 346
#     4   9  16  28  51  83 118 155 191 229 277 335
#     4   9  13  21  43  80 124 161 191 225 266 324
#
# _framework density 19.932259999999999
#
# number of rings (size 3 to 8) (size 9 to 14) (size 15 to 20)
#    0.000    2.588    2.353    0.706    0.000    4.706 
#    0.000    0.000    0.000    2.824    0.000    3.294 
#    0.000    0.000    0.000    0.000    0.000    0.000 
#
# Total GULP energy -189736.359305 kJ/mol
# GULP energy per Si atom -5580.481156 kJ/mol
# Density = 1.988689 g / cm^3
# Si number density = 19.932260 Si / 1000 Ang^3
#
#
#
# Elastic Constant Matrix: (Units=GPa)
#
#
# Indices 1 2 3 4 5 6 
#
# 1 102.5248 37.9947 74.6606 0.0000 0.0000 0.0000
# 2 37.9947 102.5248 74.6606 0.0000 0.0000 0.0000
# 3 74.6606 74.6606 157.1943 0.0000 0.0000 0.0000
# 4 0.0000 0.0000 0.0000 -33.5406 0.0000 0.0000
# 5 0.0000 0.0000 0.0000 0.0000 -33.5406 0.0000
# 6 0.0000 0.0000 0.0000 0.0000 0.0000 1.1327
#
#
#
# Elastic Compliance Matrix: (Units=1/GPa)
#
#
# Indices 1 2 3 4 5 6 
#
# 1 0.014932 -0.000564 -0.006824 0.000000 0.000000 0.000000
# 2 -0.000564 0.014932 -0.006824 0.000000 0.000000 0.000000
# 3 -0.006824 -0.006824 0.012844 0.000000 0.000000 0.000000
# 4 0.000000 0.000000 0.000000 -0.029815 0.000000 0.000000
# 5 0.000000 0.000000 0.000000 0.000000 -0.029815 0.000000
# 6 0.000000 0.000000 0.000000 0.000000 0.000000 0.882885
#
#
# Mechanical properties :
#
#
# Convention : Reuss Voigt Hill
#
# Bulk Modulus (GPa) = 70.01184 81.87509 75.94346
# Shear Modulus (GPa) = 5.56080 -1.52785 2.01647
#
# Velocity S-wave (km/s) = 1.67210 -0.87646 1.00691
# Velocity P-wave (km/s) = 6.23931 6.33574 6.28771
#
# Compressibility (1/GPa) = 0.01428330
#
# Stress axis : x y z
#
# Youngs Moduli (GPa) = 66.96836 66.96836 77.85707
#
# Poissons Ratio (x) = 0.03779 0.53132
# Poissons Ratio (y) = 0.03779 0.53132
# Poissons Ratio (z) = 0.45701 0.45701
#
# Static dielectric constant tensor:
#      x y z
#    x 1.719400 0.000000 0.000000 
#    y 0.000000 1.719400 0.000000 
#    z 0.000000 0.000000 1.664750 
# 
# From -- ./inp_files/5219.got.cif
#   From: 2010.05.17/outbox.cif.g08.bks.cpg/sg112_3_cif.got.tgz:5219.got - 2010.05.20 10:59:04.
