data_PCOD9555096
_publ_section_title
;
Structure prediction by ZEFSAII (Michael W. Deem and Ramdas Pophale) SiO2 
 PCOD9555096
Probable space group: P -4 2 C
;
_chemical_formula_sum "Si O2"
_cell_formula_units_Z 48
_cell_length_a 8.741247
_cell_length_b 8.741247
_cell_length_c 25.713664
_cell_angle_alpha 90.000000
_cell_angle_beta 90.000000
_cell_angle_gamma 90.000000
_cell_volume 1964.765615
_symmetry_space_group_name_H-M "P -4 2 C"
_symmetry_group_IT_number 112
_symmetry_cell_setting 'tetragonal'
loop_
_space_group_symop_operation_xyz
x,y,z
y,-x,-z
-x,-y,z
-y,x,-z
x,-y,1/2-z
-x,y,1/2-z
-y,-x,1/2+z
y,x,1/2+z
loop_
_atom_site_type_symbol
_atom_site_label
_atom_site_fract_x
_atom_site_fract_y
_atom_site_fract_z
Si Si1 0.840676 0.666812 0.276277
Si Si2 0.545643 0.162726 0.612116
Si Si3 0.217963 0.605361 0.574012
Si Si4 0.778954 0.095502 0.983880
Si Si5 0.264461 0.225565 0.121209
Si Si6 0.050661 0.326972 0.820472
O O1 0.793279 0.500000 0.250000
O O2 0.879656 0.641648 0.337200
O O3 0.727908 0.814419 0.282251
O O4 0.000000 0.709098 0.250000
O O5 0.626770 0.295117 0.578615
O O6 0.398627 0.242502 0.637533
O O7 0.500000 0.000000 0.586104
O O8 0.147207 0.632661 0.517298
O O9 0.222738 0.429749 0.592245
O O10 0.113884 0.675555 0.619955
O O11 0.794590 0.143727 0.924663
O O12 0.918089 0.185209 0.011576
O O13 0.241923 0.109410 0.168528
O O14 0.000000 0.500000 0.808656
#
# Coordination Sequence:
#
# PCOD9555096 Si02
#       6
#     8   8   8   8   8   8
#     4  10  20  43  76 113 142 180 243 312 380 468
#     4  11  22  41  69 101 143 186 240 293 378 434
#     4  10  22  41  64  97 142 197 241 295 352 430
#     4  11  23  39  59  96 146 190 250 303 350 414
#     4  11  23  41  66  99 143 196 248 292 363 434
#     4   9  20  42  72 105 147 188 239 298 378 446
#
# _framework density 24.430395999999998
#
# number of rings (size 3 to 8) (size 9 to 14) (size 15 to 20)
#    0.000    1.667    3.333    1.500    2.333    0.000 
#    0.000    1.667    0.000   21.000    0.000    0.000 
#    0.000    0.000    0.000    0.000    0.000    0.000 
#
# Total GULP energy -267891.698105 kJ/mol
# GULP energy per Si atom -5581.077044 kJ/mol
# Density = 2.437479 g / cm^3
# Si number density = 24.430396 Si / 1000 Ang^3
#
#
#
# Elastic Constant Matrix: (Units=GPa)
#
#
# Indices 1 2 3 4 5 6 
#
# 1 115.0681 48.7930 26.1580 0.0000 0.0000 0.0000
# 2 48.7930 115.0681 26.1580 0.0000 0.0000 0.0000
# 3 26.1580 26.1580 116.8305 0.0000 0.0000 0.0000
# 4 0.0000 0.0000 0.0000 34.3187 0.0000 0.0000
# 5 0.0000 0.0000 0.0000 0.0000 34.3187 0.0000
# 6 0.0000 0.0000 0.0000 0.0000 0.0000 50.0805
#
#
#
# Elastic Compliance Matrix: (Units=1/GPa)
#
#
# Indices 1 2 3 4 5 6 
#
# 1 0.010831 -0.004258 -0.001472 0.000000 0.000000 0.000000
# 2 -0.004258 0.010831 -0.001472 0.000000 0.000000 0.000000
# 3 -0.001472 -0.001472 0.009218 0.000000 0.000000 0.000000
# 4 0.000000 0.000000 0.000000 0.029139 0.000000 0.000000
# 5 0.000000 0.000000 0.000000 0.000000 0.029139 0.000000
# 6 0.000000 0.000000 0.000000 0.000000 0.000000 0.019968
#
#
# Mechanical properties :
#
#
# Convention : Reuss Voigt Hill
#
# Bulk Modulus (GPa) = 60.68999 61.02054 60.85527
# Shear Modulus (GPa) = 38.75386 40.13410 39.44398
#
# Velocity S-wave (km/s) = 3.98715 4.05754 4.02250
# Velocity P-wave (km/s) = 6.78914 6.85441 6.82186
#
# Compressibility (1/GPa) = 0.01647718
#
# Stress axis : x y z
#
# Youngs Moduli (GPa) = 92.33105 92.33105 108.47898
#
# Poissons Ratio (x) = 0.39315 0.15964
# Poissons Ratio (y) = 0.39315 0.15964
# Poissons Ratio (z) = 0.13587 0.13587
#
# Static dielectric constant tensor:
#      x y z
#    x 2.020620 0.000000 0.000000 
#    y 0.000000 2.020620 0.000000 
#    z 0.000000 0.000000 1.949580 
# 
# From -- ./inp_files/6324.got.cif
#   From: 2010.05.17/outbox.cif.g08.bks.cpg/sg112_4_cif.got.tgz:6324.got - 2010.05.20 10:59:04.
