data_PCOD9555406
_publ_section_title
;
Structure prediction by ZEFSAII (Michael W. Deem and Ramdas Pophale) SiO2 
 PCOD9555406
Probable space group: P -4 2 C
;
_chemical_formula_sum "Si O2"
_cell_formula_units_Z 20
_cell_length_a 7.531201
_cell_length_b 7.531201
_cell_length_c 14.039395
_cell_angle_alpha 90.000000
_cell_angle_beta 90.000000
_cell_angle_gamma 90.000000
_cell_volume 796.300284
_symmetry_space_group_name_H-M "P -4 2 C"
_symmetry_group_IT_number 112
_symmetry_cell_setting 'tetragonal'
loop_
_space_group_symop_operation_xyz
x,y,z
y,-x,-z
-x,-y,z
-y,x,-z
x,-y,1/2-z
-x,y,1/2-z
-y,-x,1/2+z
y,x,1/2+z
loop_
_atom_site_type_symbol
_atom_site_label
_atom_site_fract_x
_atom_site_fract_y
_atom_site_fract_z
Si Si1 0.000000 0.000000 0.500000
Si Si2 0.456628 0.204995 0.860572
Si Si3 0.704994 0.043372 0.139428
Si Si4 0.500000 0.500000 0.500000
O O1 0.945363 0.839731 0.569212
O O2 0.500000 0.240596 0.750000
O O3 0.250000 0.250000 0.872962
O O4 0.500000 0.000000 0.880018
O O5 0.554638 0.339731 0.930788
O O6 0.500000 0.000000 0.119981
O O7 0.740595 0.000000 0.250000
#
# Coordination Sequence:
#
# PCOD9555406 Si02
#       4
#     2   8   8   2
#     4  12  30  48  88 126 160 220 282 352 396 514
#     4  11  30  53  81 118 169 217 274 342 422 492
#     4  11  30  53  81 118 169 217 274 342 422 492
#     4  12  30  48  88 126 160 220 282 352 396 514
#
# _framework density 25.116152
#
# number of rings (size 3 to 8) (size 9 to 14) (size 15 to 20)
#    0.000    0.800    0.000    1.200   33.600    0.000 
#    0.000    0.000    0.000    0.000    0.000    0.000 
#    0.000    0.000    0.000    0.000    0.000    0.000 
#
# Total GULP energy -112359.453380 kJ/mol
# GULP energy per Si atom -5617.972669 kJ/mol
# Density = 2.505899 g / cm^3
# Si number density = 25.116152 Si / 1000 Ang^3
#
#
#
# Elastic Constant Matrix: (Units=GPa)
#
#
# Indices 1 2 3 4 5 6 
#
# 1 148.7671 75.9426 74.9149 0.0000 0.0000 0.0000
# 2 75.9426 148.7671 74.9149 0.0000 0.0000 0.0000
# 3 74.9149 74.9149 210.5750 0.0000 0.0000 0.0000
# 4 0.0000 0.0000 0.0000 -225.5040 0.0000 0.0000
# 5 0.0000 0.0000 0.0000 0.0000 -225.5040 0.0000
# 6 0.0000 0.0000 0.0000 0.0000 0.0000 45.0680
#
#
#
# Elastic Compliance Matrix: (Units=1/GPa)
#
#
# Indices 1 2 3 4 5 6 
#
# 1 0.009783 -0.003949 -0.002076 0.000000 0.000000 0.000000
# 2 -0.003949 0.009783 -0.002076 0.000000 0.000000 0.000000
# 3 -0.002076 -0.002076 0.006226 0.000000 0.000000 0.000000
# 4 0.000000 0.000000 0.000000 -0.004435 0.000000 0.000000
# 5 0.000000 0.000000 0.000000 0.000000 -0.004435 0.000000
# 6 0.000000 0.000000 0.000000 0.000000 0.000000 0.022189
#
#
# Mechanical properties :
#
#
# Convention : Reuss Voigt Hill
#
# Bulk Modulus (GPa) = 104.25692 106.62822 105.44257
# Shear Modulus (GPa) = 85.45819 -62.36554 11.54633
#
# Velocity S-wave (km/s) = 5.83944 -4.98846 2.14643
# Velocity P-wave (km/s) = 9.33089 3.06048 6.94377
#
# Compressibility (1/GPa) = 0.00959169
#
# Stress axis : x y z
#
# Youngs Moduli (GPa) = 102.21943 102.21943 160.62397
#
# Poissons Ratio (x) = 0.40364 0.33339
# Poissons Ratio (y) = 0.40364 0.33339
# Poissons Ratio (z) = 0.21216 0.21216
#
# Static dielectric constant tensor:
#      x y z
#    x 2.113350 0.000000 0.000000 
#    y 0.000000 2.113350 0.000000 
#    z 0.000000 0.000000 1.930640 
# 
# From -- ./inp_files/1903.got.cif
#   From: 2010.05.17/outbox.cif.g08.bks.cpg/sg112_1_cif.got.tgz:1903.got - 2010.05.20 10:59:04.
