data_PCOD9555235
_publ_section_title
;
Structure prediction by ZEFSAII (Michael W. Deem and Ramdas Pophale) SiO2 
 PCOD9555235
Probable space group: P -4 2 C
;
_chemical_formula_sum "Si O2"
_cell_formula_units_Z 40
_cell_length_a 13.240826
_cell_length_b 13.240826
_cell_length_c 9.888031
_cell_angle_alpha 90.000000
_cell_angle_beta 90.000000
_cell_angle_gamma 90.000000
_cell_volume 1733.564386
_symmetry_space_group_name_H-M "P -4 2 C"
_symmetry_group_IT_number 112
_symmetry_cell_setting 'tetragonal'
loop_
_space_group_symop_operation_xyz
x,y,z
y,-x,-z
-x,-y,z
-y,x,-z
x,-y,1/2-z
-x,y,1/2-z
-y,-x,1/2+z
y,x,1/2+z
loop_
_atom_site_type_symbol
_atom_site_label
_atom_site_fract_x
_atom_site_fract_y
_atom_site_fract_z
Si Si1 0.000000 0.000000 0.500000
Si Si2 0.771126 0.977947 0.905389
Si Si3 0.500000 0.792428 0.250000
Si Si4 0.705572 0.234588 0.638496
Si Si5 0.092786 0.319057 0.850989
Si Si6 0.500000 0.500000 0.500000
Si Si7 0.636251 0.343042 0.881096
O O1 0.023876 0.107190 0.426536
O O2 0.711453 0.873310 0.932113
O O3 0.751836 0.000000 0.750000
O O4 0.722693 0.059987 0.004448
O O5 0.432226 0.863789 0.155399
O O6 0.574742 0.718333 0.170118
O O7 0.817274 0.247692 0.701677
O O8 0.631819 0.259667 0.762850
O O9 0.696064 0.319744 0.523069
O O10 0.000000 0.311269 0.750000
O O11 0.534691 0.595206 0.588579
#
# Coordination Sequence:
#
# PCOD9555235 Si02
#       7
#     2   8   4   8   8   2   8
#     4  12  26  40  68 106 150 200 256 286 346 432
#     4  12  25  41  67 102 147 188 246 299 347 419
#     4  10  23  45  70 100 134 182 240 277 373 440
#     4  11  24  43  64  99 140 181 226 291 365 406
#     4  11  23  41  70  95 135 188 237 290 349 437
#     4  12  24  46  76 106 132 174 244 294 364 446
#     4  11  25  44  72  99 136 177 226 299 358 434
#
# _framework density 23.073848999999999
#
# number of rings (size 3 to 8) (size 9 to 14) (size 15 to 20)
#    0.000    0.800    2.000    6.600    2.800    3.600 
#    0.000    0.000    0.000    8.400    0.000    0.000 
#    0.000    0.000    0.000    0.000    0.000    0.000 
#
# Total GULP energy -223655.355749 kJ/mol
# GULP energy per Si atom -5591.383894 kJ/mol
# Density = 2.302133 g / cm^3
# Si number density = 23.073849 Si / 1000 Ang^3
#
#
#
# Elastic Constant Matrix: (Units=GPa)
#
#
# Indices 1 2 3 4 5 6 
#
# 1 83.4121 17.8608 21.5197 0.0000 0.0000 0.0000
# 2 17.8608 83.4121 21.5197 0.0000 0.0000 0.0000
# 3 21.5197 21.5197 110.2861 0.0000 0.0000 0.0000
# 4 0.0000 0.0000 0.0000 37.7584 0.0000 0.0000
# 5 0.0000 0.0000 0.0000 0.0000 37.7584 0.0000
# 6 0.0000 0.0000 0.0000 0.0000 0.0000 42.6775
#
#
#
# Elastic Compliance Matrix: (Units=1/GPa)
#
#
# Indices 1 2 3 4 5 6 
#
# 1 0.013011 -0.002244 -0.002101 0.000000 0.000000 0.000000
# 2 -0.002244 0.013011 -0.002101 0.000000 0.000000 0.000000
# 3 -0.002101 -0.002101 0.009887 0.000000 0.000000 0.000000
# 4 0.000000 0.000000 0.000000 0.026484 0.000000 0.000000
# 5 0.000000 0.000000 0.000000 0.000000 0.026484 0.000000
# 6 0.000000 0.000000 0.000000 0.000000 0.000000 0.023432
#
#
# Mechanical properties :
#
#
# Convention : Reuss Voigt Hill
#
# Bulk Modulus (GPa) = 43.44472 44.32343 43.88408
# Shear Modulus (GPa) = 37.62963 38.05287 37.84125
#
# Velocity S-wave (km/s) = 4.04274 4.06541 4.05409
# Velocity P-wave (km/s) = 6.37661 6.42556 6.40113
#
# Compressibility (1/GPa) = 0.02301775
#
# Stress axis : x y z
#
# Youngs Moduli (GPa) = 76.85676 76.85676 101.14056
#
# Poissons Ratio (x) = 0.17247 0.21249
# Poissons Ratio (y) = 0.17247 0.21249
# Poissons Ratio (z) = 0.16147 0.16147
#
# Static dielectric constant tensor:
#      x y z
#    x 1.930060 0.000000 0.000000 
#    y 0.000000 1.930060 0.000000 
#    z 0.000000 0.000000 1.867470 
# 
# From -- ./inp_files/1318.got.cif
#   From: 2010.05.17/outbox.cif.g08.bks.cpg/sg112_1_cif.got.tgz:1318.got - 2010.05.20 10:59:04.
