data_PCOD9555856
_publ_section_title
;
Structure prediction by ZEFSAII (Michael W. Deem and Ramdas Pophale) SiO2 
 PCOD9555856
Probable space group: P -4 21 C
;
_chemical_formula_sum "Si O2"
_cell_formula_units_Z 44
_cell_length_a 8.041957
_cell_length_b 8.041957
_cell_length_c 29.091885
_cell_angle_alpha 90.000000
_cell_angle_beta 90.000000
_cell_angle_gamma 90.000000
_cell_volume 1881.461585
_symmetry_space_group_name_H-M "P -4 21 C"
_symmetry_group_IT_number 114
_symmetry_cell_setting 'tetragonal'
loop_
_space_group_symop_operation_xyz
x,y,z
y,-x,-z
-x,-y,z
-y,x,-z
1/2+x,1/2-y,1/2-z
1/2-x,1/2+y,1/2-z
1/2-y,1/2-x,1/2+z
1/2+y,1/2+x,1/2+z
loop_
_atom_site_type_symbol
_atom_site_label
_atom_site_fract_x
_atom_site_fract_y
_atom_site_fract_z
Si Si1 0.396934 0.258530 0.927810
Si Si2 0.736935 0.606643 0.574683
Si Si3 0.681125 0.270182 0.324021
Si Si4 0.085815 0.680095 0.243167
Si Si5 0.327827 0.578967 0.171828
Si Si6 0.000000 0.000000 0.000000
Si Si7 0.000000 0.000000 0.500000
O O1 0.594650 0.213917 0.930580
O O2 0.351702 0.343865 0.879174
O O3 0.297772 0.085755 0.928009
O O4 0.377469 0.391212 0.968124
O O5 0.660614 0.648405 0.625151
O O6 0.604491 0.620529 0.533742
O O7 0.847967 0.305315 0.295198
O O8 0.534071 0.296685 0.287434
O O9 0.696034 0.071776 0.333416
O O10 0.251029 0.690793 0.211166
O O11 0.000000 0.500000 0.242812
O O12 0.500000 0.500000 0.186778
#
# Coordination Sequence:
#
# PCOD9555856 Si02
#       7
#     8   8   8   8   8   2   2
#     4  10  20  37  63  88 116 150 199 250 303 365
#     4  10  22  42  62  81 122 167 200 242 311 372
#     4  10  20  37  59  85 119 161 200 248 305 363
#     4  10  20  36  58  87 121 159 202 247 303 372
#     4  10  18  34  57  87 118 155 192 243 305 368
#     4  12  24  44  60  82 120 164 208 248 304 362
#     4  12  20  32  64 102 108 132 208 272 296 342
#
# _framework density 23.386071999999999
#
# number of rings (size 3 to 8) (size 9 to 14) (size 15 to 20)
#    0.000    1.818    2.727    2.182    0.000    0.000 
#    8.182    0.000    8.000    0.000    0.000    0.000 
#    0.000    0.000    0.000    0.000    0.000    0.000 
#
# Total GULP energy -245330.029397 kJ/mol
# GULP energy per Si atom -5575.682486 kJ/mol
# Density = 2.333284 g / cm^3
# Si number density = 23.386072 Si / 1000 Ang^3
#
#
#
# Elastic Constant Matrix: (Units=GPa)
#
#
# Indices 1 2 3 4 5 6 
#
# 1 48.6362 -7.1834 27.8514 0.0000 0.0000 0.0000
# 2 -7.1834 48.6362 27.8514 0.0000 0.0000 0.0000
# 3 27.8514 27.8514 201.0740 0.0000 0.0000 0.0000
# 4 0.0000 0.0000 0.0000 27.7117 0.0000 0.0000
# 5 0.0000 0.0000 0.0000 0.0000 27.7117 0.0000
# 6 0.0000 0.0000 0.0000 0.0000 0.0000 21.5542
#
#
#
# Elastic Compliance Matrix: (Units=1/GPa)
#
#
# Indices 1 2 3 4 5 6 
#
# 1 0.023778 0.005863 -0.004106 0.000000 0.000000 0.000000
# 2 0.005863 0.023778 -0.004106 0.000000 0.000000 0.000000
# 3 -0.004106 -0.004106 0.006111 0.000000 0.000000 0.000000
# 4 0.000000 0.000000 0.000000 0.036086 0.000000 0.000000
# 5 0.000000 0.000000 0.000000 0.000000 0.036086 0.000000
# 6 0.000000 0.000000 0.000000 0.000000 0.000000 0.046395
#
#
# Mechanical properties :
#
#
# Convention : Reuss Voigt Hill
#
# Bulk Modulus (GPa) = 20.42073 43.93169 32.17621
# Shear Modulus (GPa) = 25.87287 32.05065 28.96176
#
# Velocity S-wave (km/s) = 3.32977 3.70605 3.52294
# Velocity P-wave (km/s) = 4.85120 6.09420 5.50787
#
# Compressibility (1/GPa) = 0.04896985
#
# Stress axis : x y z
#
# Youngs Moduli (GPa) = 42.05588 42.05588 163.64815
#
# Poissons Ratio (x) = -0.24657 0.67188
# Poissons Ratio (y) = -0.24657 0.67188
# Poissons Ratio (z) = 0.17267 0.17267
#
# Static dielectric constant tensor:
#      x y z
#    x 1.934630 0.000000 0.000000 
#    y 0.000000 1.934630 0.000000 
#    z 0.000000 0.000000 1.942700 
# 
# From -- ./inp_files/3869.got.cif
#   From: 2010.05.17/outbox.cif.g08.bks.cpg/sg114_2_cif.got.tgz:3869.got - 2010.05.20 11:04:54.
