data_PCOD9555409
_publ_section_title
;
Structure prediction by ZEFSAII (Michael W. Deem and Ramdas Pophale) SiO2 
 PCOD9555409
Probable space group: P -4 2 C
;
_chemical_formula_sum "Si O2"
_cell_formula_units_Z 38
_cell_length_a 8.770252
_cell_length_b 8.770252
_cell_length_c 24.355220
_cell_angle_alpha 90.000000
_cell_angle_beta 90.000000
_cell_angle_gamma 90.000000
_cell_volume 1873.338254
_symmetry_space_group_name_H-M "P -4 2 C"
_symmetry_group_IT_number 112
_symmetry_cell_setting 'tetragonal'
loop_
_space_group_symop_operation_xyz
x,y,z
y,-x,-z
-x,-y,z
-y,x,-z
x,-y,1/2-z
-x,y,1/2-z
-y,-x,1/2+z
y,x,1/2+z
loop_
_atom_site_type_symbol
_atom_site_label
_atom_site_fract_x
_atom_site_fract_y
_atom_site_fract_z
Si Si1 0.527182 0.172078 0.430821
Si Si2 0.000000 0.000000 0.000000
Si Si3 0.732541 0.795280 0.970465
Si Si4 0.755822 0.503267 0.310213
Si Si5 0.500000 0.000000 0.900895
Si Si6 0.746369 0.490719 0.689998
O O1 0.669388 0.226535 0.467385
O O2 0.373837 0.265216 0.445258
O O3 0.540886 0.170571 0.365319
O O4 0.500000 0.000000 0.449052
O O5 0.100089 0.128242 0.969161
O O6 0.624221 0.913905 0.938244
O O7 0.829583 0.500000 0.250000
O O8 0.866618 0.451048 0.358623
O O9 0.615280 0.387665 0.305841
O O10 0.675498 0.668273 0.319000
O O11 0.823091 0.500000 0.750000
#
# Coordination Sequence:
#
# PCOD9555409 Si02
#       6
#     8   2   8   8   4   8
#     4  12  25  41  62  93 125 168 217 261 320 390
#     4  12  24  48  60  84 134 168 204 260 324 402
#     4  12  26  41  65  94 128 168 213 263 329 388
#     4   9  19  35  60  90 122 160 205 261 319 371
#     4  12  21  38  62  98 125 162 210 262 322 386
#     4   9  20  38  59  87 122 164 211 262 314 372
#
# _framework density 20.284645000000001
#
# number of rings (size 3 to 8) (size 9 to 14) (size 15 to 20)
#    0.000    1.263    5.263    1.579    5.895    0.842 
#    0.000    0.000    0.000    0.000    0.000    1.474 
#    0.000    0.000    0.000    0.000    0.000    0.000 
#
# Total GULP energy -211746.243289 kJ/mol
# GULP energy per Si atom -5572.269560 kJ/mol
# Density = 2.023848 g / cm^3
# Si number density = 20.284645 Si / 1000 Ang^3
#
#
#
# Elastic Constant Matrix: (Units=GPa)
#
#
# Indices 1 2 3 4 5 6 
#
# 1 65.8155 6.9170 22.6680 0.0000 0.0000 0.0000
# 2 6.9170 65.8155 22.6680 0.0000 0.0000 0.0000
# 3 22.6680 22.6680 158.8204 0.0000 0.0000 0.0000
# 4 0.0000 0.0000 0.0000 25.6143 0.0000 0.0000
# 5 0.0000 0.0000 0.0000 0.0000 25.6143 0.0000
# 6 0.0000 0.0000 0.0000 0.0000 0.0000 19.5840
#
#
#
# Elastic Compliance Matrix: (Units=1/GPa)
#
#
# Indices 1 2 3 4 5 6 
#
# 1 0.016035 -0.000943 -0.002154 0.000000 0.000000 0.000000
# 2 -0.000943 0.016035 -0.002154 0.000000 0.000000 0.000000
# 3 -0.002154 -0.002154 0.006911 0.000000 0.000000 0.000000
# 4 0.000000 0.000000 0.000000 0.039041 0.000000 0.000000
# 5 0.000000 0.000000 0.000000 0.000000 0.039041 0.000000
# 6 0.000000 0.000000 0.000000 0.000000 0.000000 0.051062
#
#
# Mechanical properties :
#
#
# Convention : Reuss Voigt Hill
#
# Bulk Modulus (GPa) = 35.11404 43.88416 39.49910
# Shear Modulus (GPa) = 26.57872 30.04239 28.31055
#
# Velocity S-wave (km/s) = 3.62372 3.85260 3.73991
# Velocity P-wave (km/s) = 5.90395 6.43982 6.17770
#
# Compressibility (1/GPa) = 0.02847864
#
# Stress axis : x y z
#
# Youngs Moduli (GPa) = 62.36352 62.36352 144.69077
#
# Poissons Ratio (x) = 0.05883 0.31166
# Poissons Ratio (y) = 0.05883 0.31166
# Poissons Ratio (z) = 0.13433 0.13433
#
# Static dielectric constant tensor:
#      x y z
#    x 1.735940 0.000000 0.000000 
#    y 0.000000 1.735940 0.000000 
#    z 0.000000 0.000000 1.765060 
# 
# From -- ./inp_files/5408.got.cif
#   From: 2010.05.17/outbox.cif.g08.bks.cpg/sg112_3_cif.got.tgz:5408.got - 2010.05.20 10:59:04.
