data_PCOD9555710
_publ_section_title
;
Structure prediction by ZEFSAII (Michael W. Deem and Ramdas Pophale) SiO2 
 PCOD9555710
Probable space group: P -4 21 M 
;
_chemical_formula_sum "Si O2"
_cell_formula_units_Z 24
_cell_length_a 13.057829
_cell_length_b 13.057829
_cell_length_c 6.613595
_cell_angle_alpha 90.000000
_cell_angle_beta 90.000000
_cell_angle_gamma 90.000000
_cell_volume 1127.663569
_symmetry_space_group_name_H-M "P -4 21 M "
_symmetry_group_IT_number 113
_symmetry_cell_setting 'tetragonal'
loop_
_space_group_symop_operation_xyz
x,y,z
y,-x,-z
-x,-y,z
-y,x,-z
1/2+x,1/2-y,-z
1/2-x,1/2+y,-z
1/2-y,1/2-x,z
1/2+y,1/2+x,z
loop_
_atom_site_type_symbol
_atom_site_label
_atom_site_fract_x
_atom_site_fract_y
_atom_site_fract_z
Si Si1 0.189909 0.689909 0.520113
Si Si2 0.500000 0.000000 0.223286
Si Si3 0.158079 0.341922 0.712197
Si Si4 0.533108 0.715356 0.161471
Si Si5 0.367562 0.132439 0.901413
Si Si6 0.000000 0.000000 0.000000
O O1 0.272447 0.772447 0.434392
O O2 0.247004 0.604122 0.653745
O O3 0.132168 0.632168 0.337650
O O4 0.565695 0.934306 0.060634
O O5 0.427164 0.927164 0.355629
O O6 0.234114 0.419656 0.829874
O O7 0.524317 0.595448 0.142194
O O8 0.595481 0.755464 0.966149
#
# Coordination Sequence:
#
# PCOD9555710 Si02
#       6
#     4   2   4   8   4   2
#     4  11  23  40  66  98 128 168 222 274 328 391
#     4   8  18  38  68  94 126 172 212 266 328 388
#     4  10  21  42  65  92 128 167 223 268 317 395
#     4  10  24  42  65  93 129 175 217 271 333 393
#     4   9  19  41  64  91 125 162 215 269 322 388
#     4  12  24  44  62  88 136 174 212 272 342 396
#
# _framework density 21.282944000000001
#
# number of rings (size 3 to 8) (size 9 to 14) (size 15 to 20)
#    0.000    2.000    0.000    3.000    0.000    8.000 
#    0.000    8.333    0.000    0.000    0.000    0.000 
#    0.000    0.000    0.000    0.000    0.000    0.000 
#
# Total GULP energy -133676.989737 kJ/mol
# GULP energy per Si atom -5569.874572 kJ/mol
# Density = 2.123450 g / cm^3
# Si number density = 21.282944 Si / 1000 Ang^3
#
#
#
# Elastic Constant Matrix: (Units=GPa)
#
#
# Indices 1 2 3 4 5 6 
#
# 1 137.7003 68.7759 41.7872 0.0000 0.0000 0.0000
# 2 68.7759 137.7016 41.7875 0.0000 0.0000 0.0000
# 3 41.7872 41.7875 94.1906 0.0000 0.0000 0.0000
# 4 0.0000 0.0000 0.0000 10.8898 0.0000 0.0000
# 5 0.0000 0.0000 0.0000 0.0000 10.8893 0.0000
# 6 0.0000 0.0000 0.0000 0.0000 0.0000 58.3131
#
#
#
# Elastic Compliance Matrix: (Units=1/GPa)
#
#
# Indices 1 2 3 4 5 6 
#
# 1 0.010206 -0.004303 -0.002619 0.000000 0.000000 0.000000
# 2 -0.004303 0.010206 -0.002619 0.000000 0.000000 0.000000
# 3 -0.002619 -0.002619 0.012941 0.000000 0.000000 0.000000
# 4 0.000000 0.000000 0.000000 0.091829 0.000000 0.000000
# 5 0.000000 0.000000 0.000000 0.000000 0.091833 0.000000
# 6 0.000000 0.000000 0.000000 0.000000 0.000000 0.017149
#
#
# Mechanical properties :
#
#
# Convention : Reuss Voigt Hill
#
# Bulk Modulus (GPa) = 70.07116 74.92151 72.49634
# Shear Modulus (GPa) = 19.37972 30.50123 24.94048
#
# Velocity S-wave (km/s) = 3.02085 3.78978 3.42695
# Velocity P-wave (km/s) = 6.72030 7.37760 7.05661
#
# Compressibility (1/GPa) = 0.01427121
#
# Stress axis : x y z
#
# Youngs Moduli (GPa) = 97.98248 97.98330 77.27657
#
# Poissons Ratio (x) = 0.42159 0.20238
# Poissons Ratio (y) = 0.42158 0.20238
# Poissons Ratio (z) = 0.25661 0.25661
#
# Static dielectric constant tensor:
#      x y z
#    x 1.830030 0.000000 0.000000 
#    y 0.000000 1.830020 0.000000 
#    z 0.000000 0.000000 1.721330 
# 
# From -- ./inp_files/210.got.cif
#   From: 2010.05.17/outbox.cif.g08.bks.cpg/sg113_cif.got.tgz:210.got - 2010.05.20 11:03:00.
