data_PCOD9555836
_publ_section_title
;
Structure prediction by ZEFSAII (Michael W. Deem and Ramdas Pophale) SiO2 
 PCOD9555836
Probable space group: P -4 21 C
;
_chemical_formula_sum "Si O2"
_cell_formula_units_Z 36
_cell_length_a 13.856021
_cell_length_b 13.856021
_cell_length_c 7.624130
_cell_angle_alpha 90.000000
_cell_angle_beta 90.000000
_cell_angle_gamma 90.000000
_cell_volume 1463.751519
_symmetry_space_group_name_H-M "P -4 21 C"
_symmetry_group_IT_number 114
_symmetry_cell_setting 'tetragonal'
loop_
_space_group_symop_operation_xyz
x,y,z
y,-x,-z
-x,-y,z
-y,x,-z
1/2+x,1/2-y,1/2-z
1/2-x,1/2+y,1/2-z
1/2-y,1/2-x,1/2+z
1/2+y,1/2+x,1/2+z
loop_
_atom_site_type_symbol
_atom_site_label
_atom_site_fract_x
_atom_site_fract_y
_atom_site_fract_z
Si Si1 0.825301 0.823881 0.893389
Si Si2 0.064790 0.349951 0.043436
Si Si3 0.783253 0.067436 0.441277
Si Si4 0.000000 0.500000 0.789064
Si Si5 0.302010 0.639008 0.218671
O O1 0.876769 0.847302 0.708040
O O2 0.727515 0.769396 0.831335
O O3 0.905619 0.754088 0.982346
O O4 0.800639 0.881728 0.071932
O O5 0.172776 0.394809 0.068307
O O6 0.005106 0.393240 0.204179
O O7 0.003666 0.402716 0.895602
O O8 0.822829 0.096812 0.632816
O O9 0.780096 0.956809 0.389118
#
# Coordination Sequence:
#
# PCOD9555836 Si02
#       5
#     8   8   8   4   8
#     4  11  21  46  67  94 141 182 224 287 358 414
#     4  10  18  35  55  88 131 166 205 271 345 413
#     4  11  24  43  66  96 133 183 233 294 338 415
#     4  10  18  28  54  92 124 164 202 256 338 428
#     4  11  24  43  71  98 135 182 234 289 352 414
#
# _framework density 24.594339000000002
#
# number of rings (size 3 to 8) (size 9 to 14) (size 15 to 20)
#    0.000    1.333    6.667    1.333    0.000    4.000 
#    0.000    0.000    0.000    0.000    0.000    0.000 
#    0.000    0.000    0.000    0.000    0.000    0.000 
#
# Total GULP energy -200420.156537 kJ/mol
# GULP energy per Si atom -5567.226570 kJ/mol
# Density = 2.453836 g / cm^3
# Si number density = 24.594339 Si / 1000 Ang^3
#
#
#
# Elastic Constant Matrix: (Units=GPa)
#
#
# Indices 1 2 3 4 5 6 
#
# 1 72.9212 6.5406 7.7621 0.0000 0.0000 0.0000
# 2 6.5406 72.9212 7.7621 0.0000 0.0000 0.0000
# 3 7.7621 7.7621 113.5367 0.0000 0.0000 0.0000
# 4 0.0000 0.0000 0.0000 11.4183 0.0000 0.0000
# 5 0.0000 0.0000 0.0000 0.0000 11.4183 0.0000
# 6 0.0000 0.0000 0.0000 0.0000 0.0000 30.6148
#
#
#
# Elastic Compliance Matrix: (Units=1/GPa)
#
#
# Indices 1 2 3 4 5 6 
#
# 1 0.013910 -0.001155 -0.000872 0.000000 0.000000 0.000000
# 2 -0.001155 0.013910 -0.000872 0.000000 0.000000 0.000000
# 3 -0.000872 -0.000872 0.008927 0.000000 0.000000 0.000000
# 4 0.000000 0.000000 0.000000 0.087579 0.000000 0.000000
# 5 0.000000 0.000000 0.000000 0.000000 0.087579 0.000000
# 6 0.000000 0.000000 0.000000 0.000000 0.000000 0.032664
#
#
# Mechanical properties :
#
#
# Convention : Reuss Voigt Hill
#
# Bulk Modulus (GPa) = 32.31130 33.72321 33.01725
# Shear Modulus (GPa) = 19.18047 26.51124 22.84586
#
# Velocity S-wave (km/s) = 2.79565 3.28676 3.05110
# Velocity P-wave (km/s) = 4.85666 5.30521 5.08588
#
# Compressibility (1/GPa) = 0.03094893
#
# Stress axis : x y z
#
# Youngs Moduli (GPa) = 71.89162 71.89162 112.02023
#
# Poissons Ratio (x) = 0.08302 0.09768
# Poissons Ratio (y) = 0.08302 0.09768
# Poissons Ratio (z) = 0.06269 0.06269
#
# Static dielectric constant tensor:
#      x y z
#    x 1.825070 0.000000 0.000000 
#    y 0.000000 1.825070 0.000000 
#    z 0.000000 0.000000 2.135160 
# 
# From -- ./inp_files/728.got.cif
#   From: 2010.05.17/outbox.cif.g08.bks.cpg/sg114_1_cif.got.tgz:728.got - 2010.05.20 11:04:54.
