data_PCOD9555298
_publ_section_title
;
Structure prediction by ZEFSAII (Michael W. Deem and Ramdas Pophale) SiO2 
 PCOD9555298
Probable space group: P -4 2 C
;
_chemical_formula_sum "Si O2"
_cell_formula_units_Z 36
_cell_length_a 9.601693
_cell_length_b 9.601693
_cell_length_c 20.895547
_cell_angle_alpha 90.000000
_cell_angle_beta 90.000000
_cell_angle_gamma 90.000000
_cell_volume 1926.412894
_symmetry_space_group_name_H-M "P -4 2 C"
_symmetry_group_IT_number 112
_symmetry_cell_setting 'tetragonal'
loop_
_space_group_symop_operation_xyz
x,y,z
y,-x,-z
-x,-y,z
-y,x,-z
x,-y,1/2-z
-x,y,1/2-z
-y,-x,1/2+z
y,x,1/2+z
loop_
_atom_site_type_symbol
_atom_site_label
_atom_site_fract_x
_atom_site_fract_y
_atom_site_fract_z
Si Si1 0.286184 0.645143 0.583404
Si Si2 0.000000 0.500000 0.750000
Si Si3 0.622000 0.167092 0.363887
Si Si4 0.521959 0.332986 0.820957
Si Si5 0.500000 0.500000 0.000000
Si Si6 0.815999 0.877466 0.013798
O O1 0.174505 0.542811 0.615638
O O2 0.397061 0.711274 0.632504
O O3 0.369824 0.530256 0.543152
O O4 0.240833 0.761662 0.534381
O O5 0.911409 0.602902 0.703728
O O6 0.680898 0.322441 0.348044
O O7 0.720363 0.112351 0.422091
O O8 0.500000 0.500000 0.816841
O O9 0.500000 0.274715 0.750000
O O10 0.975725 0.828630 0.023640
#
# Coordination Sequence:
#
# PCOD9555298 Si02
#       6
#     8   2   8   8   2   8
#     4  11  18  36  60  90 121 153 202 258 316 367
#     4  12  24  36  58  94 124 160 222 256 308 384
#     4  11  21  37  61  89 121 163 210 262 313 371
#     4   9  17  31  56  86 120 152 191 252 313 360
#     4  12  16  32  58  96 124 148 196 270 324 364
#     4  11  25  41  59  88 127 166 209 255 318 378
#
# _framework density 18.687583
#
# number of rings (size 3 to 8) (size 9 to 14) (size 15 to 20)
#    0.000    1.333    5.556    4.000    0.000    0.000 
#    0.000    0.000    0.000   21.333    0.000    0.000 
#    0.000    0.000    0.000    0.000    0.000    0.000 
#
# Total GULP energy -200406.826097 kJ/mol
# GULP energy per Si atom -5566.856280 kJ/mol
# Density = 1.864505 g / cm^3
# Si number density = 18.687583 Si / 1000 Ang^3
#
#
#
# Elastic Constant Matrix: (Units=GPa)
#
#
# Indices 1 2 3 4 5 6 
#
# 1 62.3349 35.7664 43.0674 0.0000 0.0000 0.0000
# 2 35.7664 62.3349 43.0674 0.0000 0.0000 0.0000
# 3 43.0674 43.0674 120.1943 0.0000 0.0000 0.0000
# 4 0.0000 0.0000 0.0000 30.3200 0.0000 0.0000
# 5 0.0000 0.0000 0.0000 0.0000 30.3200 0.0000
# 6 0.0000 0.0000 0.0000 0.0000 0.0000 23.8616
#
#
#
# Elastic Compliance Matrix: (Units=1/GPa)
#
#
# Indices 1 2 3 4 5 6 
#
# 1 0.026256 -0.011383 -0.005329 0.000000 0.000000 0.000000
# 2 -0.011383 0.026256 -0.005329 0.000000 0.000000 0.000000
# 3 -0.005329 -0.005329 0.012139 0.000000 0.000000 0.000000
# 4 0.000000 0.000000 0.000000 0.032982 0.000000 0.000000
# 5 0.000000 0.000000 0.000000 0.000000 0.032982 0.000000
# 6 0.000000 0.000000 0.000000 0.000000 0.000000 0.041908
#
#
# Mechanical properties :
#
#
# Convention : Reuss Voigt Hill
#
# Bulk Modulus (GPa) = 48.61991 54.29628 51.45810
# Shear Modulus (GPa) = 22.37543 25.09783 23.73663
#
# Velocity S-wave (km/s) = 3.46402 3.66870 3.56783
# Velocity P-wave (km/s) = 6.48636 6.86029 6.67595
#
# Compressibility (1/GPa) = 0.02056770
#
# Stress axis : x y z
#
# Youngs Moduli (GPa) = 38.08724 38.08724 82.38026
#
# Poissons Ratio (x) = 0.43355 0.43901
# Poissons Ratio (y) = 0.43355 0.43901
# Poissons Ratio (z) = 0.20297 0.20297
#
# Static dielectric constant tensor:
#      x y z
#    x 0.822260 0.000000 0.000000 
#    y 0.000000 0.822260 0.000000 
#    z 0.000000 0.000000 1.707560 
# 
# From -- ./inp_files/4734.got.cif
#   From: 2010.05.17/outbox.cif.g08.bks.cpg/sg112_3_cif.got.tgz:4734.got - 2010.05.20 10:59:04.
