data_PCOD9555684
_publ_section_title
;
Structure prediction by ZEFSAII (Michael W. Deem and Ramdas Pophale) SiO2 
 PCOD9555684
Probable space group: P -4 21 M 
;
_chemical_formula_sum "Si O2"
_cell_formula_units_Z 64
_cell_length_a 21.858256
_cell_length_b 21.858256
_cell_length_c 6.301018
_cell_angle_alpha 90.000000
_cell_angle_beta 90.000000
_cell_angle_gamma 90.000000
_cell_volume 3010.521522
_symmetry_space_group_name_H-M "P -4 21 M "
_symmetry_group_IT_number 113
_symmetry_cell_setting 'tetragonal'
loop_
_space_group_symop_operation_xyz
x,y,z
y,-x,-z
-x,-y,z
-y,x,-z
1/2+x,1/2-y,-z
1/2-x,1/2+y,-z
1/2-y,1/2-x,z
1/2+y,1/2+x,z
loop_
_atom_site_type_symbol
_atom_site_label
_atom_site_fract_x
_atom_site_fract_y
_atom_site_fract_z
Si Si1 0.408614 0.289635 0.216950
Si Si2 0.500891 0.100508 0.678834
Si Si3 0.497520 0.786903 0.987353
Si Si4 0.715260 0.577824 0.306256
Si Si5 0.126321 0.861896 0.397154
Si Si6 0.174956 0.423615 0.637115
Si Si7 0.311732 0.710014 0.024649
Si Si8 0.591824 0.456310 0.031920
O O1 0.454012 0.235312 0.160027
O O2 0.394696 0.304343 0.460961
O O3 0.346511 0.276861 0.088125
O O4 0.437805 0.352821 0.124653
O O5 0.557395 0.057395 0.757394
O O6 0.524882 0.129810 0.459676
O O7 0.443420 0.056581 0.649947
O O8 0.486929 0.155534 0.840550
O O9 0.439165 0.805970 0.125982
O O10 0.480994 0.729045 0.838021
O O11 0.653943 0.588369 0.439411
O O12 0.768420 0.578039 0.479496
O O13 0.722282 0.635032 0.147071
O O14 0.180338 0.841016 0.236327
O O15 0.071898 0.889107 0.258107
O O16 0.139732 0.360269 0.627729
O O17 0.267182 0.767182 0.061035
O O18 0.528355 0.422393 0.968963
#
# Coordination Sequence:
#
# PCOD9555684 Si02
#       8
#     8   8   8   8   8   8   8   8
#     4  10  25  41  62  91 128 167 207 254 316 376
#     4   9  20  40  63  90 129 173 218 269 321 377
#     4  11  23  39  62  94 128 167 209 262 314 380
#     4  10  22  38  65  93 124 162 203 260 317 374
#     4  10  23  42  64  94 123 165 204 257 322 377
#     4  10  21  36  60  97 129 163 212 261 319 376
#     4  10  22  43  63  87 123 165 211 256 305 367
#     4  10  24  45  68  93 123 159 210 262 316 385
#
# _framework density 21.258776000000001
#
# number of rings (size 3 to 8) (size 9 to 14) (size 15 to 20)
#    0.000    2.000    0.000    1.500    7.000   11.000 
#    0.000    2.500    0.000    0.000    0.000    0.000 
#    0.000    0.000    0.000    0.000    0.000    0.000 
#
# Total GULP energy -357605.442772 kJ/mol
# GULP energy per Si atom -5587.585043 kJ/mol
# Density = 2.121039 g / cm^3
# Si number density = 21.258776 Si / 1000 Ang^3
#
#
#
# Elastic Constant Matrix: (Units=GPa)
#
#
# Indices 1 2 3 4 5 6 
#
# 1 54.6590 16.9747 17.0778 0.0000 0.0000 0.0000
# 2 16.9747 54.6604 17.0798 0.0000 0.0000 0.0000
# 3 17.0778 17.0798 87.9543 0.0000 0.0000 0.0000
# 4 0.0000 0.0000 0.0000 23.3948 0.0000 0.0000
# 5 0.0000 0.0000 0.0000 0.0000 23.3937 0.0000
# 6 0.0000 0.0000 0.0000 0.0000 0.0000 25.2453
#
#
#
# Elastic Compliance Matrix: (Units=1/GPa)
#
#
# Indices 1 2 3 4 5 6 
#
# 1 0.020960 -0.005576 -0.002987 0.000000 0.000000 0.000000
# 2 -0.005576 0.020960 -0.002988 0.000000 0.000000 0.000000
# 3 -0.002987 -0.002988 0.012530 0.000000 0.000000 0.000000
# 4 0.000000 0.000000 0.000000 0.042744 0.000000 0.000000
# 5 0.000000 0.000000 0.000000 0.000000 0.042747 0.000000
# 6 0.000000 0.000000 0.000000 0.000000 0.000000 0.039611
#
#
# Mechanical properties :
#
#
# Convention : Reuss Voigt Hill
#
# Bulk Modulus (GPa) = 31.89899 33.28205 32.59052
# Shear Modulus (GPa) = 23.46292 24.14953 23.80622
#
# Velocity S-wave (km/s) = 3.32577 3.37409 3.35002
# Velocity P-wave (km/s) = 5.45760 5.55598 5.50701
#
# Compressibility (1/GPa) = 0.03134896
#
# Stress axis : x y z
#
# Youngs Moduli (GPa) = 47.70971 47.71029 79.81049
#
# Poissons Ratio (x) = 0.26602 0.23839
# Poissons Ratio (y) = 0.26602 0.23844
# Poissons Ratio (z) = 0.14251 0.14254
#
# Static dielectric constant tensor:
#      x y z
#    x 1.780620 0.000000 0.000000 
#    y 0.000000 1.780610 0.000000 
#    z 0.000000 0.000000 1.754140 
# 
# From -- ./inp_files/603.got.cif
#   From: 2010.05.17/outbox.cif.g08.bks.cpg/sg113_cif.got.tgz:603.got - 2010.05.20 11:03:00.
