data_PCOD9555549
_publ_section_title
;
Structure prediction by ZEFSAII (Michael W. Deem and Ramdas Pophale) SiO2 
 PCOD9555549
Probable space group: P -4 21 M 
;
_chemical_formula_sum "Si O2"
_cell_formula_units_Z 42
_cell_length_a 11.804454
_cell_length_b 11.804454
_cell_length_c 13.257717
_cell_angle_alpha 90.000000
_cell_angle_beta 90.000000
_cell_angle_gamma 90.000000
_cell_volume 1847.398355
_symmetry_space_group_name_H-M "P -4 21 M "
_symmetry_group_IT_number 113
_symmetry_cell_setting 'tetragonal'
loop_
_space_group_symop_operation_xyz
x,y,z
y,-x,-z
-x,-y,z
-y,x,-z
1/2+x,1/2-y,-z
1/2-x,1/2+y,-z
1/2-y,1/2-x,z
1/2+y,1/2+x,z
loop_
_atom_site_type_symbol
_atom_site_label
_atom_site_fract_x
_atom_site_fract_y
_atom_site_fract_z
Si Si1 0.219345 0.453263 0.595789
Si Si2 0.411519 0.267531 0.591748
Si Si3 0.500000 0.000000 0.295965
Si Si4 0.070818 0.748235 0.879029
Si Si5 0.327851 0.651945 0.097544
Si Si6 0.622806 0.545635 0.251809
O O1 0.122503 0.377498 0.538138
O O2 0.319775 0.365475 0.617679
O O3 0.266441 0.551089 0.524628
O O4 0.140703 0.496885 0.686887
O O5 0.350215 0.149786 0.613042
O O6 0.520568 0.290973 0.659221
O O7 0.121387 0.621387 0.876873
O O8 0.936972 0.767831 0.889379
O O9 0.114265 0.828231 0.788980
O O10 0.121755 0.804610 0.981543
O O11 0.219609 0.719609 0.137888
O O12 0.347627 0.537542 0.159002
O O13 0.500000 0.500000 0.286212
#
# Coordination Sequence:
#
# PCOD9555549 Si02
#       6
#     8   8   2   8   8   8
#     4   9  20  35  59  81 114 155 190 236 295 352
#     4  11  21  37  59  85 117 151 196 239 295 356
#     4   8  16  40  56  84 110 154 190 228 292 364
#     4  10  20  36  59  85 117 153 193 239 293 351
#     4  10  19  36  60  82 114 156 194 235 293 349
#     4  10  22  35  57  86 115 148 192 244 286 344
#
# _framework density 22.734674999999999
#
# number of rings (size 3 to 8) (size 9 to 14) (size 15 to 20)
#    0.571    1.524    2.857    0.571    2.667    1.143 
#    0.000    0.000    8.381    1.714    0.000    0.000 
#    0.000    0.000    0.000    0.000    0.000    0.000 
#
# Total GULP energy -234043.580713 kJ/mol
# GULP energy per Si atom -5572.466207 kJ/mol
# Density = 2.268293 g / cm^3
# Si number density = 22.734675 Si / 1000 Ang^3
#
#
#
# Elastic Constant Matrix: (Units=GPa)
#
#
# Indices 1 2 3 4 5 6 
#
# 1 65.8385 7.7226 5.2826 0.0000 0.0000 0.0000
# 2 7.7226 65.8392 5.2825 0.0000 0.0000 0.0000
# 3 5.2826 5.2825 48.2074 0.0000 0.0000 0.0000
# 4 0.0000 0.0000 0.0000 19.7652 0.0000 0.0000
# 5 0.0000 0.0000 0.0000 0.0000 19.7651 0.0000
# 6 0.0000 0.0000 0.0000 0.0000 0.0000 39.5481
#
#
#
# Elastic Compliance Matrix: (Units=1/GPa)
#
#
# Indices 1 2 3 4 5 6 
#
# 1 0.015509 -0.001698 -0.001513 0.000000 0.000000 0.000000
# 2 -0.001698 0.015509 -0.001513 0.000000 0.000000 0.000000
# 3 -0.001513 -0.001513 0.021075 0.000000 0.000000 0.000000
# 4 0.000000 0.000000 0.000000 0.050594 0.000000 0.000000
# 5 0.000000 0.000000 0.000000 0.000000 0.050594 0.000000
# 6 0.000000 0.000000 0.000000 0.000000 0.000000 0.025286
#
#
# Mechanical properties :
#
#
# Convention : Reuss Voigt Hill
#
# Bulk Modulus (GPa) = 23.44968 24.05114 23.75041
# Shear Modulus (GPa) = 24.72412 26.58885 25.65648
#
# Velocity S-wave (km/s) = 3.30131 3.42355 3.36299
# Velocity P-wave (km/s) = 4.98683 5.12148 5.05460
#
# Compressibility (1/GPa) = 0.04264450
#
# Stress axis : x y z
#
# Youngs Moduli (GPa) = 64.47762 64.47831 47.44868
#
# Poissons Ratio (x) = 0.10947 0.07181
# Poissons Ratio (y) = 0.10947 0.07181
# Poissons Ratio (z) = 0.09758 0.09758
#
# Static dielectric constant tensor:
#      x y z
#    x 1.892970 0.000000 0.000000 
#    y 0.000000 1.892970 0.000000 
#    z 0.000000 0.000000 1.883910 
# 
# From -- ./inp_files/2417.got.cif
#   From: 2010.05.17/outbox.cif.g08.bks.cpg/sg113_cif.got.tgz:2417.got - 2010.05.20 11:03:00.
