data_PCOD9555093
_publ_section_title
;
Structure prediction by ZEFSAII (Michael W. Deem and Ramdas Pophale) SiO2 
 PCOD9555093
Probable space group: P -4 2 C
;
_chemical_formula_sum "Si O2"
_cell_formula_units_Z 30
_cell_length_a 8.584205
_cell_length_b 8.584205
_cell_length_c 16.755498
_cell_angle_alpha 90.000000
_cell_angle_beta 90.000000
_cell_angle_gamma 90.000000
_cell_volume 1234.688779
_symmetry_space_group_name_H-M "P -4 2 C"
_symmetry_group_IT_number 112
_symmetry_cell_setting 'tetragonal'
loop_
_space_group_symop_operation_xyz
x,y,z
y,-x,-z
-x,-y,z
-y,x,-z
x,-y,1/2-z
-x,y,1/2-z
-y,-x,1/2+z
y,x,1/2+z
loop_
_atom_site_type_symbol
_atom_site_label
_atom_site_fract_x
_atom_site_fract_y
_atom_site_fract_z
Si Si1 0.990718 0.816299 0.653961
Si Si2 0.500000 0.500000 0.750000
Si Si3 0.584808 0.167053 0.458111
Si Si4 0.500000 0.000000 0.750000
Si Si5 0.500000 0.500000 0.500000
Si Si6 0.336206 0.244638 0.859817
O O1 0.854660 0.730217 0.603623
O O2 0.000000 0.798375 0.750000
O O3 0.152765 0.740165 0.628687
O O4 0.000000 0.000000 0.635227
O O5 0.400466 0.385511 0.805840
O O6 0.608764 0.189894 0.552893
O O7 0.514236 0.342108 0.447258
O O8 0.500000 0.000000 0.450606
O O9 0.385135 0.100373 0.804145
#
# Coordination Sequence:
#
# PCOD9555093 Si02
#       6
#     8   2   8   2   2   8
#     4  11  28  50  77 115 162 217 276 344 422 505
#     4  10  26  50  86 120 170 222 280 348 428 514
#     4  12  28  50  81 122 169 214 279 352 422 505
#     4  10  20  42  78 110 170 210 276 336 432 498
#     4  12  30  52  80 126 170 220 278 350 428 506
#     4  11  24  46  77 118 159 219 272 343 420 508
#
# _framework density 24.297622
#
# number of rings (size 3 to 8) (size 9 to 14) (size 15 to 20)
#    0.000    0.800    1.333    4.000    7.467    9.067 
#    0.000    0.000    0.000    0.000    0.000    0.000 
#    0.000    0.000    0.000    0.000    0.000    0.000 
#
# Total GULP energy -167355.630212 kJ/mol
# GULP energy per Si atom -5578.521007 kJ/mol
# Density = 2.424232 g / cm^3
# Si number density = 24.297622 Si / 1000 Ang^3
#
#
#
# Elastic Constant Matrix: (Units=GPa)
#
#
# Indices 1 2 3 4 5 6 
#
# 1 153.7660 94.7591 67.1215 0.0000 0.0000 0.0000
# 2 94.7591 153.7660 67.1215 0.0000 0.0000 0.0000
# 3 67.1215 67.1215 177.1481 0.0000 0.0000 0.0000
# 4 0.0000 0.0000 0.0000 13.8251 0.0000 0.0000
# 5 0.0000 0.0000 0.0000 0.0000 13.8251 0.0000
# 6 0.0000 0.0000 0.0000 0.0000 0.0000 66.9564
#
#
#
# Elastic Compliance Matrix: (Units=1/GPa)
#
#
# Indices 1 2 3 4 5 6 
#
# 1 0.011003 -0.005944 -0.001917 0.000000 0.000000 0.000000
# 2 -0.005944 0.011003 -0.001917 0.000000 0.000000 0.000000
# 3 -0.001917 -0.001917 0.007098 0.000000 0.000000 0.000000
# 4 0.000000 0.000000 0.000000 0.072332 0.000000 0.000000
# 5 0.000000 0.000000 0.000000 0.000000 0.072332 0.000000
# 6 0.000000 0.000000 0.000000 0.000000 0.000000 0.014935
#
#
# Mechanical properties :
#
#
# Convention : Reuss Voigt Hill
#
# Bulk Modulus (GPa) = 104.73070 104.74273 104.73671
# Shear Modulus (GPa) = 23.64720 35.96653 29.80687
#
# Velocity S-wave (km/s) = 3.12305 3.85157 3.50628
# Velocity P-wave (km/s) = 7.49676 7.93608 7.71954
#
# Compressibility (1/GPa) = 0.00954830
#
# Stress axis : x y z
#
# Youngs Moduli (GPa) = 90.88283 90.88283 140.89184
#
# Poissons Ratio (x) = 0.54021 0.27008
# Poissons Ratio (y) = 0.54021 0.27008
# Poissons Ratio (z) = 0.17422 0.17422
#
# Static dielectric constant tensor:
#      x y z
#    x 2.033000 0.000000 0.000000 
#    y 0.000000 2.033000 0.000000 
#    z 0.000000 0.000000 1.832910 
# 
# From -- ./inp_files/4595.got.cif
#   From: 2010.05.17/outbox.cif.g08.bks.cpg/sg112_3_cif.got.tgz:4595.got - 2010.05.20 10:59:04.
