data_PCOD9555702
_publ_section_title
;
Structure prediction by ZEFSAII (Michael W. Deem and Ramdas Pophale) SiO2 
 PCOD9555702
Probable space group: P -4 21 M 
;
_chemical_formula_sum "Si O2"
_cell_formula_units_Z 40
_cell_length_a 15.967462
_cell_length_b 15.967462
_cell_length_c 8.292530
_cell_angle_alpha 90.000000
_cell_angle_beta 90.000000
_cell_angle_gamma 90.000000
_cell_volume 2114.262145
_symmetry_space_group_name_H-M "P -4 21 M "
_symmetry_group_IT_number 113
_symmetry_cell_setting 'tetragonal'
loop_
_space_group_symop_operation_xyz
x,y,z
y,-x,-z
-x,-y,z
-y,x,-z
1/2+x,1/2-y,-z
1/2-x,1/2+y,-z
1/2-y,1/2-x,z
1/2+y,1/2+x,z
loop_
_atom_site_type_symbol
_atom_site_label
_atom_site_fract_x
_atom_site_fract_y
_atom_site_fract_z
Si Si1 0.909930 0.968324 0.764780
Si Si2 0.711403 0.080487 0.264197
Si Si3 0.887707 0.252869 0.715376
Si Si4 0.153540 0.901451 0.519386
Si Si5 0.196037 0.170275 0.940674
O O1 0.937372 0.904459 0.623058
O O2 0.843951 0.916207 0.872347
O O3 0.859468 0.041714 0.675500
O O4 0.000000 0.000000 0.830945
O O5 0.618980 0.118980 0.262863
O O6 0.756353 0.103143 0.434895
O O7 0.763243 0.127728 0.123290
O O8 0.722232 0.982090 0.245183
O O9 0.834741 0.334741 0.678996
O O10 0.880090 0.189718 0.566442
O O11 0.845665 0.208143 0.870317
O O12 0.285112 0.214889 0.887003
#
# Coordination Sequence:
#
# PCOD9555702 Si02
#       5
#     8   8   8   8   8
#     4  11  18  34  56  87 123 149 189 245 293 347
#     4  10  21  39  59  83 114 152 194 242 288 345
#     4  11  23  39  59  85 116 158 198 236 292 361
#     4  11  18  35  55  87 118 147 190 239 291 348
#     4   9  22  39  56  84 120 157 195 233 302 367
#
# _framework density 18.919129999999999
#
# number of rings (size 3 to 8) (size 9 to 14) (size 15 to 20)
#    0.000    1.600    4.000    1.800    2.800    1.200 
#    0.000    1.000    0.000    0.000    0.000    0.000 
#    0.000    0.000    0.000    0.000    0.000    0.000 
#
# Total GULP energy -222865.392239 kJ/mol
# GULP energy per Si atom -5571.634806 kJ/mol
# Density = 1.887607 g / cm^3
# Si number density = 18.919130 Si / 1000 Ang^3
#
#
#
# Elastic Constant Matrix: (Units=GPa)
#
#
# Indices 1 2 3 4 5 6 
#
# 1 80.5820 55.7947 29.1139 0.0000 0.0000 0.0000
# 2 55.7947 80.5850 29.1141 0.0000 0.0000 0.0000
# 3 29.1139 29.1141 49.7784 0.0000 0.0000 0.0000
# 4 0.0000 0.0000 0.0000 14.2014 0.0000 0.0000
# 5 0.0000 0.0000 0.0000 0.0000 14.2012 0.0000
# 6 0.0000 0.0000 0.0000 0.0000 0.0000 30.9985
#
#
#
# Elastic Compliance Matrix: (Units=1/GPa)
#
#
# Indices 1 2 3 4 5 6 
#
# 1 0.025057 -0.015284 -0.005716 0.000000 0.000000 0.000000
# 2 -0.015284 0.025056 -0.005716 0.000000 0.000000 0.000000
# 3 -0.005716 -0.005716 0.026775 0.000000 0.000000 0.000000
# 4 0.000000 0.000000 0.000000 0.070415 0.000000 0.000000
# 5 0.000000 0.000000 0.000000 0.000000 0.070417 0.000000
# 6 0.000000 0.000000 0.000000 0.000000 0.000000 0.032260
#
#
# Mechanical properties :
#
#
# Convention : Reuss Voigt Hill
#
# Bulk Modulus (GPa) = 42.63039 48.77674 45.70357
# Shear Modulus (GPa) = 16.06520 18.34173 17.20347
#
# Velocity S-wave (km/s) = 2.91718 3.11703 3.01876
# Velocity P-wave (km/s) = 5.82481 6.22833 6.02995
#
# Compressibility (1/GPa) = 0.02345745
#
# Stress axis : x y z
#
# Youngs Moduli (GPa) = 39.90834 39.91007 37.34786
#
# Poissons Ratio (x) = 0.60998 0.21349
# Poissons Ratio (y) = 0.60995 0.21347
# Poissons Ratio (z) = 0.22813 0.22812
#
# Static dielectric constant tensor:
#      x y z
#    x 1.688560 0.000000 0.000000 
#    y 0.000000 1.688560 0.000000 
#    z 0.000000 0.000000 1.665530 
# 
# From -- ./inp_files/1005.got.cif
#   From: 2010.05.17/outbox.cif.g08.bks.cpg/sg113_cif.got.tgz:1005.got - 2010.05.20 11:03:00.
