data_PCOD9555248
_publ_section_title
;
Structure prediction by ZEFSAII (Michael W. Deem and Ramdas Pophale) SiO2 
 PCOD9555248
Probable space group: P -4 2 C
;
_chemical_formula_sum "Si O2"
_cell_formula_units_Z 20
_cell_length_a 4.710921
_cell_length_b 4.710921
_cell_length_c 37.846727
_cell_angle_alpha 90.000000
_cell_angle_beta 90.000000
_cell_angle_gamma 90.000000
_cell_volume 839.923960
_symmetry_space_group_name_H-M "P -4 2 C"
_symmetry_group_IT_number 112
_symmetry_cell_setting 'tetragonal'
loop_
_space_group_symop_operation_xyz
x,y,z
y,-x,-z
-x,-y,z
-y,x,-z
x,-y,1/2-z
-x,y,1/2-z
-y,-x,1/2+z
y,x,1/2+z
loop_
_atom_site_type_symbol
_atom_site_label
_atom_site_fract_x
_atom_site_fract_y
_atom_site_fract_z
Si Si1 0.000000 0.000000 0.000000
Si Si2 0.000000 0.000000 0.700341
Si Si3 0.500000 0.500000 0.399438
Si Si4 0.000000 0.500000 0.750000
Si Si5 0.000000 0.500000 0.349285
Si Si6 0.500000 0.000000 0.050296
O O1 0.250009 0.891926 0.025148
O O2 0.870873 0.262267 0.723355
O O3 0.749874 0.887664 0.675681
O O4 0.249667 0.390745 0.374395
O O5 0.608335 0.250021 0.424572
#
# Coordination Sequence:
#
# PCOD9555248 Si02
#       6
#     2   4   4   2   4   4
#     4  12  24  42  64  90 124 160 204 250 304 360
#     4  11  24  41  64  91 124 161 204 250 304 361
#     4  12  24  41  64  91 124 160 204 250 304 360
#     4  10  24  42  64  92 124 162 204 252 304 362
#     4  12  24  42  64  92 124 162 204 252 304 362
#     4  12  24  42  64  92 124 162 204 252 304 362
#
# _framework density 23.811679999999999
#
# number of rings (size 3 to 8) (size 9 to 14) (size 15 to 20)
#    0.000    0.400    0.000    9.600    0.000    4.800 
#    0.000    0.000    0.000    0.000    0.000    0.000 
#    0.000    0.000    0.000    0.000    0.000    0.000 
#
# Total GULP energy -111748.918829 kJ/mol
# GULP energy per Si atom -5587.445941 kJ/mol
# Density = 2.375748 g / cm^3
# Si number density = 23.811680 Si / 1000 Ang^3
#
#
#
# Elastic Constant Matrix: (Units=GPa)
#
#
# Indices 1 2 3 4 5 6 
#
# 1 88.3293 -29.8519 29.9679 0.0000 0.0000 0.0000
# 2 -29.8519 88.3293 29.9679 0.0000 0.0000 0.0000
# 3 29.9679 29.9679 114.8600 0.0000 0.0000 0.0000
# 4 0.0000 0.0000 0.0000 -35.3014 0.0000 0.0000
# 5 0.0000 0.0000 0.0000 0.0000 -35.3014 0.0000
# 6 0.0000 0.0000 0.0000 0.0000 0.0000 23.7347
#
#
#
# Elastic Compliance Matrix: (Units=1/GPa)
#
#
# Indices 1 2 3 4 5 6 
#
# 1 0.015902 0.007441 -0.006090 0.000000 0.000000 0.000000
# 2 0.007441 0.015902 -0.006090 0.000000 0.000000 0.000000
# 3 -0.006090 -0.006090 0.011884 0.000000 0.000000 0.000000
# 4 0.000000 0.000000 0.000000 -0.028327 0.000000 0.000000
# 5 0.000000 0.000000 0.000000 0.000000 -0.028327 0.000000
# 6 0.000000 0.000000 0.000000 0.000000 0.000000 0.042132
#
#
# Mechanical properties :
#
#
# Convention : Reuss Voigt Hill
#
# Bulk Modulus (GPa) = 29.23241 39.07630 34.15435
# Shear Modulus (GPa) = 99.90191 8.05536 53.97863
#
# Velocity S-wave (km/s) = 6.48430 1.84127 4.76636
# Velocity P-wave (km/s) = 8.26829 4.57893 6.68323
#
# Compressibility (1/GPa) = 0.03420861
#
# Stress axis : x y z
#
# Youngs Moduli (GPa) = 62.88432 62.88432 84.14469
#
# Poissons Ratio (x) = -0.46790 0.51247
# Poissons Ratio (y) = -0.46790 0.51247
# Poissons Ratio (z) = 0.38299 0.38299
#
# Static dielectric constant tensor:
#      x y z
#    x 1.892670 0.000000 0.000000 
#    y 0.000000 1.892670 0.000000 
#    z 0.000000 0.000000 1.849790 
# 
# From -- ./inp_files/5696.got.cif
#   From: 2010.05.17/outbox.cif.g08.bks.cpg/sg112_3_cif.got.tgz:5696.got - 2010.05.20 10:59:04.
