data_PCOD9555045
_publ_section_title
;
Structure prediction by ZEFSAII (Michael W. Deem and Ramdas Pophale) SiO2 
 PCOD9555045
Probable space group: P -4 2 C
;
_chemical_formula_sum "Si O2"
_cell_formula_units_Z 30
_cell_length_a 13.342673
_cell_length_b 13.342673
_cell_length_c 7.937155
_cell_angle_alpha 90.000000
_cell_angle_beta 90.000000
_cell_angle_gamma 90.000000
_cell_volume 1413.027280
_symmetry_space_group_name_H-M "P -4 2 C"
_symmetry_group_IT_number 112
_symmetry_cell_setting 'tetragonal'
loop_
_space_group_symop_operation_xyz
x,y,z
y,-x,-z
-x,-y,z
-y,x,-z
x,-y,1/2-z
-x,y,1/2-z
-y,-x,1/2+z
y,x,1/2+z
loop_
_atom_site_type_symbol
_atom_site_label
_atom_site_fract_x
_atom_site_fract_y
_atom_site_fract_z
Si Si1 0.500000 0.500000 0.500000
Si Si2 0.208767 0.691745 0.158208
Si Si3 0.708223 0.585217 0.633470
Si Si4 0.153240 0.000000 0.250000
Si Si5 0.202668 0.889241 0.930309
O O1 0.593618 0.553666 0.592044
O O2 0.312855 0.704449 0.259762
O O3 0.122787 0.707457 0.297170
O O4 0.228355 0.598255 0.037124
O O5 0.195148 0.784078 0.029793
O O6 0.753281 0.500000 0.750000
O O7 0.097214 0.901384 0.325325
O O8 0.213093 0.034613 0.415789
#
# Coordination Sequence:
#
# PCOD9555045 Si02
#       5
#     2   8   8   4   8
#     4  12  22  28  50  88 122 144 186 236 338 360
#     4   9  20  35  49  75 126 153 201 225 285 373
#     4  11  20  31  49  77 122 158 183 241 298 374
#     4  10  20  35  60  84 125 146 182 236 313 368
#     4   9  20  37  55  85 115 155 189 238 293 365
#
# _framework density 21.231010999999999
#
# number of rings (size 3 to 8) (size 9 to 14) (size 15 to 20)
#    0.000    2.133    2.667    0.400    0.000    5.867 
#    0.000    0.000    0.000    0.000    0.000   75.600 
#   72.000    0.000    0.000    0.000    0.000    0.000 
#
# Total GULP energy -167042.057910 kJ/mol
# GULP energy per Si atom -5568.068597 kJ/mol
# Density = 2.118269 g / cm^3
# Si number density = 21.231011 Si / 1000 Ang^3
#
#
#
# Elastic Constant Matrix: (Units=GPa)
#
#
# Indices 1 2 3 4 5 6 
#
# 1 63.9226 41.0911 60.2054 0.0000 0.0000 0.0000
# 2 41.0911 63.9226 60.2054 0.0000 0.0000 0.0000
# 3 60.2054 60.2054 184.8402 0.0000 0.0000 0.0000
# 4 0.0000 0.0000 0.0000 63.0146 0.0000 0.0000
# 5 0.0000 0.0000 0.0000 0.0000 63.0146 0.0000
# 6 0.0000 0.0000 0.0000 0.0000 0.0000 -25.9989
#
#
#
# Elastic Compliance Matrix: (Units=1/GPa)
#
#
# Indices 1 2 3 4 5 6 
#
# 1 0.029499 -0.014300 -0.004951 0.000000 0.000000 0.000000
# 2 -0.014300 0.029499 -0.004951 0.000000 0.000000 0.000000
# 3 -0.004951 -0.004951 0.008635 0.000000 0.000000 0.000000
# 4 0.000000 0.000000 0.000000 0.015869 0.000000 0.000000
# 5 0.000000 0.000000 0.000000 0.000000 0.015869 0.000000
# 6 0.000000 0.000000 0.000000 0.000000 0.000000 -0.038463
#
#
# Mechanical properties :
#
#
# Convention : Reuss Voigt Hill
#
# Bulk Modulus (GPa) = 52.00003 70.63213 61.31608
# Shear Modulus (GPa) = 43.20726 30.08498 36.64612
#
# Velocity S-wave (km/s) = 4.51610 3.76843 4.15910
# Velocity P-wave (km/s) = 7.19300 7.23017 7.21161
#
# Compressibility (1/GPa) = 0.01923076
#
# Stress axis : x y z
#
# Youngs Moduli (GPa) = 33.89937 33.89937 115.80762
#
# Poissons Ratio (x) = 0.48477 0.57331
# Poissons Ratio (y) = 0.48477 0.57331
# Poissons Ratio (z) = 0.16782 0.16782
#
# Static dielectric constant tensor:
#      x y z
#    x 1.824750 0.000000 0.000000 
#    y 0.000000 1.824750 0.000000 
#    z 0.000000 0.000000 1.843850 
# 
# From -- ./inp_files/982.got.cif
#   From: 2010.05.17/outbox.cif.g08.bks.cpg/sg112_1_cif.got.tgz:982.got - 2010.05.20 10:59:04.
