data_PCOD9555068
_publ_section_title
;
Structure prediction by ZEFSAII (Michael W. Deem and Ramdas Pophale) SiO2 
 PCOD9555068
Probable space group: P -4 2 C
;
_chemical_formula_sum "Si O2"
_cell_formula_units_Z 38
_cell_length_a 14.845757
_cell_length_b 14.845757
_cell_length_c 9.068481
_cell_angle_alpha 90.000000
_cell_angle_beta 90.000000
_cell_angle_gamma 90.000000
_cell_volume 1998.661481
_symmetry_space_group_name_H-M "P -4 2 C"
_symmetry_group_IT_number 112
_symmetry_cell_setting 'tetragonal'
loop_
_space_group_symop_operation_xyz
x,y,z
y,-x,-z
-x,-y,z
-y,x,-z
x,-y,1/2-z
-x,y,1/2-z
-y,-x,1/2+z
y,x,1/2+z
loop_
_atom_site_type_symbol
_atom_site_label
_atom_site_fract_x
_atom_site_fract_y
_atom_site_fract_z
Si Si1 0.000000 0.500000 0.009557
Si Si2 0.404510 0.143420 0.288875
Si Si3 0.000000 0.000000 0.000000
Si Si4 0.210814 0.214575 0.819711
Si Si5 0.668191 0.082315 0.526040
Si Si6 0.185581 0.074935 0.560723
O O1 0.069871 0.439869 0.909053
O O2 0.055140 0.573887 0.097687
O O3 0.500000 0.189080 0.250000
O O4 0.322563 0.208468 0.329033
O O5 0.359415 0.095073 0.145590
O O6 0.914608 0.039071 0.911199
O O7 0.292314 0.174148 0.912986
O O8 0.117434 0.186777 0.898368
O O9 0.211246 0.157615 0.668099
O O10 0.743153 0.006563 0.560085
#
# Coordination Sequence:
#
# PCOD9555068 Si02
#       6
#     4   8   2   8   8   8
#     4  10  21  36  67  86 113 162 211 234 301 362
#     4  10  20  37  62  85 109 162 209 240 286 363
#     4  12  24  38  48  74 116 174 204 238 268 350
#     4  12  23  39  55  81 119 153 198 252 294 342
#     4  11  21  38  57  85 116 151 201 253 284 345
#     4  12  25  36  53  78 120 160 209 233 287 342
#
# _framework density 19.012725
#
# number of rings (size 3 to 8) (size 9 to 14) (size 15 to 20)
#    0.000    0.842    6.316    3.474    0.000    3.368 
#    0.000    2.105    0.000    0.000    0.000    0.000 
#    0.000   64.000    0.000    0.000    0.000    0.000 
#
# Total GULP energy -211800.608364 kJ/mol
# GULP energy per Si atom -5573.700220 kJ/mol
# Density = 1.896945 g / cm^3
# Si number density = 19.012725 Si / 1000 Ang^3
#
#
#
# Elastic Constant Matrix: (Units=GPa)
#
#
# Indices 1 2 3 4 5 6 
#
# 1 150.3540 67.1497 21.0678 0.0000 0.0000 0.0000
# 2 67.1497 150.3540 21.0678 0.0000 0.0000 0.0000
# 3 21.0678 21.0678 42.6603 0.0000 0.0000 0.0000
# 4 0.0000 0.0000 0.0000 17.5154 0.0000 0.0000
# 5 0.0000 0.0000 0.0000 0.0000 17.5154 0.0000
# 6 0.0000 0.0000 0.0000 0.0000 0.0000 27.9675
#
#
#
# Elastic Compliance Matrix: (Units=1/GPa)
#
#
# Indices 1 2 3 4 5 6 
#
# 1 0.008551 -0.003467 -0.002511 0.000000 0.000000 0.000000
# 2 -0.003467 0.008551 -0.002511 0.000000 0.000000 0.000000
# 3 -0.002511 -0.002511 0.025921 0.000000 0.000000 0.000000
# 4 0.000000 0.000000 0.000000 0.057093 0.000000 0.000000
# 5 0.000000 0.000000 0.000000 0.000000 0.057093 0.000000
# 6 0.000000 0.000000 0.000000 0.000000 0.000000 0.035756
#
#
# Mechanical properties :
#
#
# Convention : Reuss Voigt Hill
#
# Bulk Modulus (GPa) = 38.39375 62.43768 50.41571
# Shear Modulus (GPa) = 22.87032 28.20519 25.53775
#
# Velocity S-wave (km/s) = 3.47204 3.85579 3.66894
# Velocity P-wave (km/s) = 6.02586 7.26182 6.67252
#
# Compressibility (1/GPa) = 0.02604591
#
# Stress axis : x y z
#
# Youngs Moduli (GPa) = 116.94115 116.94115 38.57898
#
# Poissons Ratio (x) = 0.40547 0.09686
# Poissons Ratio (y) = 0.40547 0.09686
# Poissons Ratio (z) = 0.29361 0.29361
#
# Static dielectric constant tensor:
#      x y z
#    x 1.717200 0.000000 0.000000 
#    y 0.000000 1.717200 0.000000 
#    z 0.000000 0.000000 1.816490 
# 
# From -- ./inp_files/1163.got.cif
#   From: 2010.05.17/outbox.cif.g08.bks.cpg/sg112_1_cif.got.tgz:1163.got - 2010.05.20 10:59:04.
