data_PCOD9555500
_publ_section_title
;
Structure prediction by ZEFSAII (Michael W. Deem and Ramdas Pophale) SiO2 
 PCOD9555500
Probable space group: P -4 21 M 
;
_chemical_formula_sum "Si O2"
_cell_formula_units_Z 56
_cell_length_a 13.776486
_cell_length_b 13.776486
_cell_length_c 16.789215
_cell_angle_alpha 90.000000
_cell_angle_beta 90.000000
_cell_angle_gamma 90.000000
_cell_volume 3186.451415
_symmetry_space_group_name_H-M "P -4 21 M "
_symmetry_group_IT_number 113
_symmetry_cell_setting 'tetragonal'
loop_
_space_group_symop_operation_xyz
x,y,z
y,-x,-z
-x,-y,z
-y,x,-z
1/2+x,1/2-y,-z
1/2-x,1/2+y,-z
1/2-y,1/2-x,z
1/2+y,1/2+x,z
loop_
_atom_site_type_symbol
_atom_site_label
_atom_site_fract_x
_atom_site_fract_y
_atom_site_fract_z
Si Si1 0.670910 0.326830 0.342540
Si Si2 0.403164 0.629901 0.509782
Si Si3 0.258648 0.079451 0.888651
Si Si4 0.244157 0.586080 0.923174
Si Si5 0.375336 0.717079 0.822541
Si Si6 0.769207 0.106729 0.179207
Si Si7 0.387857 0.459620 0.322922
O O1 0.771261 0.271261 0.328395
O O2 0.639801 0.312813 0.434696
O O3 0.598215 0.285464 0.274752
O O4 0.674207 0.441400 0.326983
O O5 0.519161 0.630848 0.500550
O O6 0.391783 0.646344 0.603700
O O7 0.350585 0.149416 0.874609
O O8 0.165449 0.137661 0.854573
O O9 0.267033 0.975381 0.847965
O O10 0.247863 0.065111 0.983364
O O11 0.143014 0.643014 0.909226
O O12 0.327893 0.660891 0.896768
O O13 0.253879 0.491691 0.868501
O O14 0.296089 0.796089 0.794647
O O15 0.403382 0.636235 0.757216
O O16 0.677242 0.177242 0.166733
O O17 0.500000 0.500000 0.331216
#
# Coordination Sequence:
#
# PCOD9555500 Si02
#       7
#     8   8   8   8   8   8   8
#     4  10  19  32  54  83 109 138 183 231 266 322
#     4   9  16  30  52  80 104 137 174 219 263 320
#     4  10  21  38  57  77 107 149 192 230 278 341
#     4  10  22  37  54  81 113 142 183 240 291 336
#     4  11  24  37  54  85 119 146 184 236 286 338
#     4  10  20  36  58  80 104 144 192 232 273 338
#     4  11  19  35  59  80 112 148 186 225 277 338
#
# _framework density 17.574408999999999
#
# number of rings (size 3 to 8) (size 9 to 14) (size 15 to 20)
#    0.000    1.857    4.286    1.714    0.000    2.857 
#    0.000    2.857    0.000    0.000    0.000    0.000 
#    0.000    0.000    0.000    0.000    0.000    0.000 
#
# Total GULP energy -311923.118731 kJ/mol
# GULP energy per Si atom -5570.055692 kJ/mol
# Density = 1.753441 g / cm^3
# Si number density = 17.574409 Si / 1000 Ang^3
#
#
#
# Elastic Constant Matrix: (Units=GPa)
#
#
# Indices 1 2 3 4 5 6 
#
# 1 61.9324 14.4197 18.9178 0.0000 0.0000 0.0000
# 2 14.4197 61.9322 18.9177 0.0000 0.0000 0.0000
# 3 18.9178 18.9177 87.9253 0.0000 0.0000 0.0000
# 4 0.0000 0.0000 0.0000 26.0673 0.0000 0.0000
# 5 0.0000 0.0000 0.0000 0.0000 26.0673 0.0000
# 6 0.0000 0.0000 0.0000 0.0000 0.0000 28.7259
#
#
#
# Elastic Compliance Matrix: (Units=1/GPa)
#
#
# Indices 1 2 3 4 5 6 
#
# 1 0.017854 -0.003193 -0.003154 0.000000 0.000000 0.000000
# 2 -0.003193 0.017854 -0.003154 0.000000 0.000000 0.000000
# 3 -0.003154 -0.003154 0.012731 0.000000 0.000000 0.000000
# 4 0.000000 0.000000 0.000000 0.038362 0.000000 0.000000
# 5 0.000000 0.000000 0.000000 0.000000 0.038362 0.000000
# 6 0.000000 0.000000 0.000000 0.000000 0.000000 0.034812
#
#
# Mechanical properties :
#
#
# Convention : Reuss Voigt Hill
#
# Bulk Modulus (GPa) = 33.97415 35.14449 34.55932
# Shear Modulus (GPa) = 26.48453 26.80775 26.64614
#
# Velocity S-wave (km/s) = 3.88621 3.90986 3.89805
# Velocity P-wave (km/s) = 6.28573 6.35795 6.32195
#
# Compressibility (1/GPa) = 0.02943414
#
# Stress axis : x y z
#
# Youngs Moduli (GPa) = 56.01095 56.01076 78.55079
#
# Poissons Ratio (x) = 0.17886 0.24777
# Poissons Ratio (y) = 0.17886 0.24777
# Poissons Ratio (z) = 0.17667 0.17667
#
# Static dielectric constant tensor:
#      x y z
#    x 1.584250 0.000000 0.000000 
#    y 0.000000 1.584250 0.000000 
#    z 0.000000 0.000000 1.616010 
# 
# From -- ./inp_files/2322.got.cif
#   From: 2010.05.17/outbox.cif.g08.bks.cpg/sg113_cif.got.tgz:2322.got - 2010.05.20 11:03:00.
