data_PCOD9555294
_publ_section_title
;
Structure prediction by ZEFSAII (Michael W. Deem and Ramdas Pophale) SiO2 
 PCOD9555294
Probable space group: P -4 2 C
;
_chemical_formula_sum "Si O2"
_cell_formula_units_Z 20
_cell_length_a 5.005010
_cell_length_b 5.005010
_cell_length_c 32.812635
_cell_angle_alpha 90.000000
_cell_angle_beta 90.000000
_cell_angle_gamma 90.000000
_cell_volume 821.960612
_symmetry_space_group_name_H-M "P -4 2 C"
_symmetry_group_IT_number 112
_symmetry_cell_setting 'tetragonal'
loop_
_space_group_symop_operation_xyz
x,y,z
y,-x,-z
-x,-y,z
-y,x,-z
x,-y,1/2-z
-x,y,1/2-z
-y,-x,1/2+z
y,x,1/2+z
loop_
_atom_site_type_symbol
_atom_site_label
_atom_site_fract_x
_atom_site_fract_y
_atom_site_fract_z
Si Si1 0.251399 0.808259 0.570815
Si Si2 0.500000 0.500000 0.500000
Si Si3 0.500000 0.000000 0.140763
Si Si4 0.500000 0.000000 0.750000
Si Si5 0.000000 0.000000 0.194701
O O1 0.291435 0.637976 0.530137
O O2 0.215912 0.619941 0.609734
O O3 0.500000 0.000000 0.575925
O O4 0.000000 0.000000 0.567696
O O5 0.252207 0.093613 0.168217
O O6 0.734807 0.890524 0.780830
#
# Coordination Sequence:
#
# PCOD9555294 Si02
#       5
#     8   2   4   2   4
#     4  12  30  52  79 117 161 219 274 342 405 475
#     4  12  32  44  80 112 168 210 280 344 404 484
#     4  12  28  55  82 121 160 216 272 333 406 475
#     4  10  28  52  80 130 156 212 256 318 420 480
#     4  11  28  50  86 115 170 202 262 333 394 504
#
# _framework density 24.332069000000001
#
# number of rings (size 3 to 8) (size 9 to 14) (size 15 to 20)
#    0.000    0.400    2.000    2.400   11.200    9.600 
#    0.000    0.000    0.000    0.000    0.000    0.000 
#    0.000    0.000    0.000    0.000    0.000    0.000 
#
# Total GULP energy -111808.251279 kJ/mol
# GULP energy per Si atom -5590.412564 kJ/mol
# Density = 2.427669 g / cm^3
# Si number density = 24.332069 Si / 1000 Ang^3
#
#
#
# Elastic Constant Matrix: (Units=GPa)
#
#
# Indices 1 2 3 4 5 6 
#
# 1 168.3146 48.8991 53.2307 0.0000 0.0000 0.0000
# 2 48.8991 168.3146 53.2307 0.0000 0.0000 0.0000
# 3 53.2307 53.2307 133.0255 0.0000 0.0000 0.0000
# 4 0.0000 0.0000 0.0000 311.6814 0.0000 0.0000
# 5 0.0000 0.0000 0.0000 0.0000 311.6814 0.0000
# 6 0.0000 0.0000 0.0000 0.0000 0.0000 49.0653
#
#
#
# Elastic Compliance Matrix: (Units=1/GPa)
#
#
# Indices 1 2 3 4 5 6 
#
# 1 0.007051 -0.001324 -0.002292 0.000000 0.000000 0.000000
# 2 -0.001324 0.007051 -0.002292 0.000000 0.000000 0.000000
# 3 -0.002292 -0.002292 0.009351 0.000000 0.000000 0.000000
# 4 0.000000 0.000000 0.000000 0.003208 0.000000 0.000000
# 5 0.000000 0.000000 0.000000 0.000000 0.003208 0.000000
# 6 0.000000 0.000000 0.000000 0.000000 0.000000 0.020381
#
#
# Mechanical properties :
#
#
# Convention : Reuss Voigt Hill
#
# Bulk Modulus (GPa) = 85.92064 86.70843 86.31454
# Shear Modulus (GPa) = 75.82227 155.43855 115.63041
#
# Velocity S-wave (km/s) = 5.58830 8.00130 6.90109
# Velocity P-wave (km/s) = 8.77651 11.00336 9.95241
#
# Compressibility (1/GPa) = 0.01163865
#
# Stress axis : x y z
#
# Youngs Moduli (GPa) = 141.83309 141.83309 106.93587
#
# Poissons Ratio (x) = 0.18773 0.24506
# Poissons Ratio (y) = 0.18773 0.24506
# Poissons Ratio (z) = 0.32503 0.32503
#
# Static dielectric constant tensor:
#      x y z
#    x 1.880130 0.000000 0.000000 
#    y 0.000000 1.880130 0.000000 
#    z 0.000000 0.000000 1.979810 
# 
# From -- ./inp_files/6095.got.cif
#   From: 2010.05.17/outbox.cif.g08.bks.cpg/sg112_4_cif.got.tgz:6095.got - 2010.05.20 10:59:04.
