data_PCOD9555548
_publ_section_title
;
Structure prediction by ZEFSAII (Michael W. Deem and Ramdas Pophale) SiO2 
 PCOD9555548
Probable space group: P -4 21 M 
;
_chemical_formula_sum "Si O2"
_cell_formula_units_Z 32
_cell_length_a 9.658524
_cell_length_b 9.658524
_cell_length_c 13.517860
_cell_angle_alpha 90.000000
_cell_angle_beta 90.000000
_cell_angle_gamma 90.000000
_cell_volume 1261.041766
_symmetry_space_group_name_H-M "P -4 21 M "
_symmetry_group_IT_number 113
_symmetry_cell_setting 'tetragonal'
loop_
_space_group_symop_operation_xyz
x,y,z
y,-x,-z
-x,-y,z
-y,x,-z
1/2+x,1/2-y,-z
1/2-x,1/2+y,-z
1/2-y,1/2-x,z
1/2+y,1/2+x,z
loop_
_atom_site_type_symbol
_atom_site_label
_atom_site_fract_x
_atom_site_fract_y
_atom_site_fract_z
Si Si1 0.803000 0.081402 0.959656
Si Si2 0.230574 0.509127 0.675429
Si Si3 0.991748 0.729681 0.456483
Si Si4 0.926832 0.191365 0.241855
O O1 0.668636 0.168636 0.988434
O O2 0.050310 0.161966 0.754145
O O3 0.795537 0.033855 0.846217
O O4 0.826873 0.938749 0.018715
O O5 0.109268 0.390733 0.669027
O O6 0.295938 0.511997 0.564518
O O7 0.151132 0.651132 0.698000
O O8 0.843315 0.656686 0.458323
O O9 0.108159 0.608159 0.457043
O O10 0.008703 0.798773 0.350746
O O11 0.817413 0.317413 0.231548
#
# Coordination Sequence:
#
# PCOD9555548 Si02
#       4
#     8   8   8   8
#     4  11  26  50  79 111 146 186 241 309 378 444
#     4   8  15  30  54  91 143 193 234 285 350 421
#     4   8  14  27  52  90 136 184 233 287 349 420
#     4  10  19  35  65 103 141 187 244 297 355 435
#
# _framework density 25.375843
#
# number of rings (size 3 to 8) (size 9 to 14) (size 15 to 20)
#    0.000    2.750    0.000    3.000    0.000    3.000 
#    0.000   11.250    0.000   15.000    0.000    1.750 
#    0.000    6.000    0.000    0.000    0.000    0.000 
#
# Total GULP energy -179271.678493 kJ/mol
# GULP energy per Si atom -5602.239953 kJ/mol
# Density = 2.531809 g / cm^3
# Si number density = 25.375843 Si / 1000 Ang^3
#
#
#
# Elastic Constant Matrix: (Units=GPa)
#
#
# Indices 1 2 3 4 5 6 
#
# 1 57.8865 38.5024 17.7601 0.0000 0.0000 0.0000
# 2 38.5024 57.8858 17.7599 0.0000 0.0000 0.0000
# 3 17.7601 17.7599 42.5490 0.0000 0.0000 0.0000
# 4 0.0000 0.0000 0.0000 41.3894 0.0000 0.0000
# 5 0.0000 0.0000 0.0000 0.0000 41.3897 0.0000
# 6 0.0000 0.0000 0.0000 0.0000 0.0000 53.5715
#
#
#
# Elastic Compliance Matrix: (Units=1/GPa)
#
#
# Indices 1 2 3 4 5 6 
#
# 1 0.031925 -0.019665 -0.005118 0.000000 0.000000 0.000000
# 2 -0.019665 0.031925 -0.005117 0.000000 0.000000 0.000000
# 3 -0.005118 -0.005117 0.027774 0.000000 0.000000 0.000000
# 4 0.000000 0.000000 0.000000 0.024161 0.000000 0.000000
# 5 0.000000 0.000000 0.000000 0.000000 0.024161 0.000000
# 6 0.000000 0.000000 0.000000 0.000000 0.000000 0.018667
#
#
# Mechanical properties :
#
#
# Convention : Reuss Voigt Hill
#
# Bulk Modulus (GPa) = 31.42154 34.04068 32.73111
# Shear Modulus (GPa) = 21.83210 32.89003 27.36106
#
# Velocity S-wave (km/s) = 2.93635 3.60407 3.28721
# Velocity P-wave (km/s) = 4.88933 5.54642 5.22821
#
# Compressibility (1/GPa) = 0.03182530
#
# Stress axis : x y z
#
# Youngs Moduli (GPa) = 31.32344 31.32316 36.00426
#
# Poissons Ratio (x) = 0.61596 0.18426
# Poissons Ratio (y) = 0.61596 0.18425
# Poissons Ratio (z) = 0.16030 0.16030
#
# Static dielectric constant tensor:
#      x y z
#    x 2.019590 0.000000 0.000000 
#    y 0.000000 2.019590 0.000000 
#    z 0.000000 0.000000 1.942560 
# 
# From -- ./inp_files/1556.got.cif
#   From: 2010.05.17/outbox.cif.g08.bks.cpg/sg113_cif.got.tgz:1556.got - 2010.05.20 11:03:00.
