data_PCOD9555972
_publ_section_title
;
Structure prediction by ZEFSAII (Michael W. Deem and Ramdas Pophale) SiO2 
 PCOD9555972
Probable space group: P -4 21 C
;
_chemical_formula_sum "Si O2"
_cell_formula_units_Z 56
_cell_length_a 14.286770
_cell_length_b 14.286770
_cell_length_c 11.891092
_cell_angle_alpha 90.000000
_cell_angle_beta 90.000000
_cell_angle_gamma 90.000000
_cell_volume 2427.112157
_symmetry_space_group_name_H-M "P -4 21 C"
_symmetry_group_IT_number 114
_symmetry_cell_setting 'tetragonal'
loop_
_space_group_symop_operation_xyz
x,y,z
y,-x,-z
-x,-y,z
-y,x,-z
1/2+x,1/2-y,1/2-z
1/2-x,1/2+y,1/2-z
1/2-y,1/2-x,1/2+z
1/2+y,1/2+x,1/2+z
loop_
_atom_site_type_symbol
_atom_site_label
_atom_site_fract_x
_atom_site_fract_y
_atom_site_fract_z
Si Si1 0.119195 0.895173 0.002118
Si Si2 0.339946 0.480158 0.111529
Si Si3 0.949571 0.399881 0.122223
Si Si4 0.600254 0.948270 0.128285
Si Si5 0.752489 0.597356 0.688727
Si Si6 0.644624 0.526450 0.875759
Si Si7 0.614047 0.235660 0.687448
O O1 0.175470 0.859423 0.893719
O O2 0.176888 0.859687 0.109127
O O3 0.009241 0.873637 0.999566
O O4 0.436610 0.420882 0.108660
O O5 0.379004 0.583327 0.135188
O O6 0.275325 0.436198 0.202766
O O7 0.295829 0.470391 0.988812
O O8 0.897610 0.396672 0.246825
O O9 0.000000 0.500000 0.121686
O O10 0.037330 0.329214 0.124248
O O11 0.900971 0.388693 0.997449
O O12 0.500000 0.000000 0.127453
O O13 0.674334 0.032908 0.131056
O O14 0.701971 0.519949 0.764421
O O15 0.801010 0.671398 0.771229
#
# Coordination Sequence:
#
# PCOD9555972 Si02
#       7
#     8   8   8   8   8   8   8
#     4  11  26  50  75 100 142 197 243 290 366 442
#     4   9  20  41  68  95 128 175 228 280 352 419
#     4  10  20  38  61  91 131 187 235 267 344 450
#     4  10  20  38  61  91 131 187 235 267 344 450
#     4  12  23  38  71 101 137 178 236 298 347 422
#     4   9  20  41  68  95 128 175 228 280 352 419
#     4  12  23  38  71 101 137 178 236 298 347 422
#
# _framework density 23.072687999999999
#
# number of rings (size 3 to 8) (size 9 to 14) (size 15 to 20)
#    0.000    1.571    4.286    2.571    2.000    3.429 
#    0.000    5.714    0.000    0.000    0.000    0.000 
#    0.000    0.000    0.000    0.000    0.000    0.000 
#
# Total GULP energy -312454.526885 kJ/mol
# GULP energy per Si atom -5579.545123 kJ/mol
# Density = 2.302017 g / cm^3
# Si number density = 23.072688 Si / 1000 Ang^3
#
#
#
# Elastic Constant Matrix: (Units=GPa)
#
#
# Indices 1 2 3 4 5 6 
#
# 1 45.4142 -15.9035 13.6480 0.0000 0.0000 0.0000
# 2 -15.9035 45.4142 13.6480 0.0000 0.0000 0.0000
# 3 13.6480 13.6480 161.3709 0.0000 0.0000 0.0000
# 4 0.0000 0.0000 0.0000 26.4468 0.0000 0.0000
# 5 0.0000 0.0000 0.0000 0.0000 26.4468 0.0000
# 6 0.0000 0.0000 0.0000 0.0000 0.0000 9.1406
#
#
#
# Elastic Compliance Matrix: (Units=1/GPa)
#
#
# Indices 1 2 3 4 5 6 
#
# 1 0.026535 0.010227 -0.003109 0.000000 0.000000 0.000000
# 2 0.010227 0.026535 -0.003109 0.000000 0.000000 0.000000
# 3 -0.003109 -0.003109 0.006723 0.000000 0.000000 0.000000
# 4 0.000000 0.000000 0.000000 0.037812 0.000000 0.000000
# 5 0.000000 0.000000 0.000000 0.000000 0.037812 0.000000
# 6 0.000000 0.000000 0.000000 0.000000 0.000000 0.109402
#
#
# Mechanical properties :
#
#
# Convention : Reuss Voigt Hill
#
# Bulk Modulus (GPa) = 14.74711 30.55379 22.65045
# Shear Modulus (GPa) = 19.27487 28.46064 23.86776
#
# Velocity S-wave (km/s) = 2.89346 3.51596 3.21979
# Velocity P-wave (km/s) = 4.19145 5.45470 4.86426
#
# Compressibility (1/GPa) = 0.06780990
#
# Stress axis : x y z
#
# Youngs Moduli (GPa) = 37.68587 37.68587 148.74719
#
# Poissons Ratio (x) = -0.38540 0.46247
# Poissons Ratio (y) = -0.38540 0.46247
# Poissons Ratio (z) = 0.11717 0.11717
#
# Static dielectric constant tensor:
#      x y z
#    x 1.817200 0.000000 0.000000 
#    y 0.000000 1.817200 0.000000 
#    z 0.000000 0.000000 1.976450 
# 
# From -- ./inp_files/1768.got.cif
#   From: 2010.05.17/outbox.cif.g08.bks.cpg/sg114_1_cif.got.tgz:1768.got - 2010.05.20 11:04:54.
