data_PCOD9555536
_publ_section_title
;
Structure prediction by ZEFSAII (Michael W. Deem and Ramdas Pophale) SiO2 
 PCOD9555536
Probable space group: P -4 21 M 
;
_chemical_formula_sum "Si O2"
_cell_formula_units_Z 56
_cell_length_a 14.989565
_cell_length_b 14.989565
_cell_length_c 12.401968
_cell_angle_alpha 90.000000
_cell_angle_beta 90.000000
_cell_angle_gamma 90.000000
_cell_volume 2786.561714
_symmetry_space_group_name_H-M "P -4 21 M "
_symmetry_group_IT_number 113
_symmetry_cell_setting 'tetragonal'
loop_
_space_group_symop_operation_xyz
x,y,z
y,-x,-z
-x,-y,z
-y,x,-z
1/2+x,1/2-y,-z
1/2-x,1/2+y,-z
1/2-y,1/2-x,z
1/2+y,1/2+x,z
loop_
_atom_site_type_symbol
_atom_site_label
_atom_site_fract_x
_atom_site_fract_y
_atom_site_fract_z
Si Si1 0.614781 0.412376 0.974857
Si Si2 0.430213 0.569027 0.753605
Si Si3 0.051188 0.804576 0.390195
Si Si4 0.054156 0.703369 0.015339
Si Si5 0.994932 0.645602 0.236515
Si Si6 0.500472 0.853166 0.216737
Si Si7 0.296851 0.450337 0.617151
O O1 0.615584 0.380492 0.851574
O O2 0.520875 0.382019 0.021585
O O3 0.705732 0.390105 0.034656
O O4 0.500000 0.500000 0.806085
O O5 0.486764 0.627493 0.672856
O O6 0.361814 0.511420 0.687746
O O7 0.039583 0.715646 0.318916
O O8 0.148132 0.855783 0.396901
O O9 0.003454 0.787897 0.504712
O O10 0.120652 0.620652 0.015135
O O11 0.989206 0.688470 0.116739
O O12 0.014877 0.702312 0.893943
O O13 0.065680 0.565680 0.228966
O O14 0.900795 0.599206 0.268500
O O15 0.429374 0.929374 0.189667
O O16 0.458255 0.794141 0.313467
O O17 0.593139 0.906862 0.244749
#
# Coordination Sequence:
#
# PCOD9555536 Si02
#       7
#     8   8   8   8   8   8   8
#     4  11  20  33  56  91 126 159 193 244 310 370
#     4  10  19  35  56  87 123 158 195 242 304 368
#     4  11  23  40  65  91 120 163 211 256 310 363
#     4  10  21  39  62  88 120 159 204 249 301 372
#     4  10  23  43  64  87 121 165 208 253 309 373
#     4  10  22  41  65  91 125 167 204 250 313 375
#     4  11  22  39  63  93 120 159 210 256 301 366
#
# _framework density 20.096450000000001
#
# number of rings (size 3 to 8) (size 9 to 14) (size 15 to 20)
#    0.000    1.571    4.286    1.286    2.000    3.429 
#    0.000    7.143    0.000    0.000    0.000    0.000 
#    0.000    0.000    0.000    0.000    0.000    0.000 
#
# Total GULP energy -311743.995769 kJ/mol
# GULP energy per Si atom -5566.857067 kJ/mol
# Density = 2.005071 g / cm^3
# Si number density = 20.096450 Si / 1000 Ang^3
#
#
#
# Elastic Constant Matrix: (Units=GPa)
#
#
# Indices 1 2 3 4 5 6 
#
# 1 63.3269 14.4284 24.3421 0.0000 0.0000 0.0000
# 2 14.4284 63.3268 24.3416 0.0000 0.0000 0.0000
# 3 24.3421 24.3416 107.5699 0.0000 0.0000 0.0000
# 4 0.0000 0.0000 0.0000 24.7726 0.0000 0.0000
# 5 0.0000 0.0000 0.0000 0.0000 24.7724 0.0000
# 6 0.0000 0.0000 0.0000 0.0000 0.0000 15.0696
#
#
#
# Elastic Compliance Matrix: (Units=1/GPa)
#
#
# Indices 1 2 3 4 5 6 
#
# 1 0.017717 -0.002733 -0.003391 0.000000 0.000000 0.000000
# 2 -0.002733 0.017717 -0.003391 0.000000 0.000000 0.000000
# 3 -0.003391 -0.003391 0.010831 0.000000 0.000000 0.000000
# 4 0.000000 0.000000 0.000000 0.040367 0.000000 0.000000
# 5 0.000000 0.000000 0.000000 0.000000 0.040367 0.000000
# 6 0.000000 0.000000 0.000000 0.000000 0.000000 0.066359
#
#
# Mechanical properties :
#
#
# Convention : Reuss Voigt Hill
#
# Bulk Modulus (GPa) = 36.71640 40.04975 38.38307
# Shear Modulus (GPa) = 22.57678 24.33036 23.45357
#
# Velocity S-wave (km/s) = 3.35538 3.48326 3.41992
# Velocity P-wave (km/s) = 5.77245 6.01244 5.89367
#
# Compressibility (1/GPa) = 0.02723579
#
# Stress axis : x y z
#
# Youngs Moduli (GPa) = 56.44238 56.44242 92.32906
#
# Poissons Ratio (x) = 0.15428 0.31306
# Poissons Ratio (y) = 0.15428 0.31305
# Poissons Ratio (z) = 0.19138 0.19138
#
# Static dielectric constant tensor:
#      x y z
#    x 1.754760 0.000000 0.000000 
#    y 0.000000 1.754760 0.000000 
#    z 0.000000 0.000000 1.734880 
# 
# From -- ./inp_files/1918.got.cif
#   From: 2010.05.17/outbox.cif.g08.bks.cpg/sg113_cif.got.tgz:1918.got - 2010.05.20 11:03:00.
