data_PCOD9555430
_publ_section_title
;
Structure prediction by ZEFSAII (Michael W. Deem and Ramdas Pophale) SiO2 
 PCOD9555430
Probable space group: P -4 2 C
;
_chemical_formula_sum "Si O2"
_cell_formula_units_Z 24
_cell_length_a 13.513109
_cell_length_b 13.513109
_cell_length_c 5.283807
_cell_angle_alpha 90.000000
_cell_angle_beta 90.000000
_cell_angle_gamma 90.000000
_cell_volume 964.844900
_symmetry_space_group_name_H-M "P -4 2 C"
_symmetry_group_IT_number 112
_symmetry_cell_setting 'tetragonal'
loop_
_space_group_symop_operation_xyz
x,y,z
y,-x,-z
-x,-y,z
-y,x,-z
x,-y,1/2-z
-x,y,1/2-z
-y,-x,1/2+z
y,x,1/2+z
loop_
_atom_site_type_symbol
_atom_site_label
_atom_site_fract_x
_atom_site_fract_y
_atom_site_fract_z
Si Si1 0.839719 0.500000 0.750000
Si Si2 0.660281 0.000000 0.250000
Si Si3 0.871010 0.202474 0.426875
Si Si4 0.702474 0.628990 0.073125
O O1 0.910737 0.589263 0.662432
O O2 0.772696 0.541776 0.974116
O O3 0.727304 0.041776 0.025884
O O4 0.873177 0.149043 0.157871
O O5 0.776165 0.276165 0.408454
O O6 0.626823 0.649043 0.842128
#
# Coordination Sequence:
#
# PCOD9555430 Si02
#       4
#     4   4   8   8
#     4   9  18  34  58  87 112 138 184 239 274 308
#     4   9  18  34  58  87 112 138 184 239 274 308
#     4   9  18  33  52  75 107 145 178 213 269 333
#     4   9  18  33  52  75 107 145 178 213 269 333
#
# _framework density 24.874464
#
# number of rings (size 3 to 8) (size 9 to 14) (size 15 to 20)
#    0.000    3.000    0.000    0.000    0.000    2.667 
#    0.000   10.000    0.000   34.000    0.000    0.000 
#    0.000    0.000    0.000    0.000    0.000    0.000 
#
# Total GULP energy -134265.469872 kJ/mol
# GULP energy per Si atom -5594.394578 kJ/mol
# Density = 2.481785 g / cm^3
# Si number density = 24.874464 Si / 1000 Ang^3
#
#
#
# Elastic Constant Matrix: (Units=GPa)
#
#
# Indices 1 2 3 4 5 6 
#
# 1 73.5029 56.9827 28.2825 0.0000 0.0000 0.0000
# 2 56.9827 73.5029 28.2825 0.0000 0.0000 0.0000
# 3 28.2825 28.2825 111.0648 0.0000 0.0000 0.0000
# 4 0.0000 0.0000 0.0000 23.3139 0.0000 0.0000
# 5 0.0000 0.0000 0.0000 0.0000 23.3139 0.0000
# 6 0.0000 0.0000 0.0000 0.0000 0.0000 49.3255
#
#
#
# Elastic Compliance Matrix: (Units=1/GPa)
#
#
# Indices 1 2 3 4 5 6 
#
# 1 0.034573 -0.025959 -0.002194 0.000000 0.000000 0.000000
# 2 -0.025959 0.034573 -0.002194 0.000000 0.000000 0.000000
# 3 -0.002194 -0.002194 0.010121 0.000000 0.000000 0.000000
# 4 0.000000 0.000000 0.000000 0.042893 0.000000 0.000000
# 5 0.000000 0.000000 0.000000 0.000000 0.042893 0.000000
# 6 0.000000 0.000000 0.000000 0.000000 0.000000 0.020273
#
#
# Mechanical properties :
#
#
# Convention : Reuss Voigt Hill
#
# Bulk Modulus (GPa) = 53.83446 53.90733 53.87089
# Shear Modulus (GPa) = 19.82471 28.82553 24.32512
#
# Velocity S-wave (km/s) = 2.82616 3.40787 3.13056
# Velocity P-wave (km/s) = 5.68674 6.09947 5.89672
#
# Compressibility (1/GPa) = 0.01857546
#
# Stress axis : x y z
#
# Youngs Moduli (GPa) = 28.92410 28.92410 98.80441
#
# Poissons Ratio (x) = 0.75083 0.21675
# Poissons Ratio (y) = 0.75083 0.21675
# Poissons Ratio (z) = 0.06345 0.06345
#
# Static dielectric constant tensor:
#      x y z
#    x 1.999510 0.000000 0.000000 
#    y 0.000000 1.999510 0.000000 
#    z 0.000000 0.000000 1.963450 
# 
# From -- ./inp_files/113.got.cif
#   From: 2010.05.17/outbox.cif.g08.bks.cpg/sg112_1_cif.got.tgz:113.got - 2010.05.20 10:59:04.
