data_PCOD9555012
_publ_section_title
;
Structure prediction by ZEFSAII (Michael W. Deem and Ramdas Pophale) SiO2 
 PCOD9555012
Probable space group: P -4 2 C
;
_chemical_formula_sum "Si O2"
_cell_formula_units_Z 32
_cell_length_a 13.085112
_cell_length_b 13.085112
_cell_length_c 8.968183
_cell_angle_alpha 90.000000
_cell_angle_beta 90.000000
_cell_angle_gamma 90.000000
_cell_volume 1535.533693
_symmetry_space_group_name_H-M "P -4 2 C"
_symmetry_group_IT_number 112
_symmetry_cell_setting 'tetragonal'
loop_
_space_group_symop_operation_xyz
x,y,z
y,-x,-z
-x,-y,z
-y,x,-z
x,-y,1/2-z
-x,y,1/2-z
-y,-x,1/2+z
y,x,1/2+z
loop_
_atom_site_type_symbol
_atom_site_label
_atom_site_fract_x
_atom_site_fract_y
_atom_site_fract_z
Si Si1 0.356320 0.672458 0.621002
Si Si2 0.565371 0.124599 0.516398
Si Si3 0.000000 0.299522 0.250000
Si Si4 0.500000 0.500000 0.500000
Si Si5 0.655876 0.817034 0.595702
Si Si6 0.500000 0.000000 0.250000
O O1 0.406781 0.757175 0.512834
O O2 0.422434 0.570431 0.597391
O O3 0.240578 0.666354 0.561335
O O4 0.359193 0.726242 0.782696
O O5 0.641139 0.068580 0.628572
O O6 0.451053 0.122388 0.581840
O O7 0.565815 0.071054 0.357845
O O8 0.097577 0.261473 0.148305
#
# Coordination Sequence:
#
# PCOD9555012 Si02
#       6
#     8   8   4   2   8   2
#     4  11  25  35  57  80 125 163 213 237 287 357
#     4  11  22  38  57  83 110 160 206 258 299 345
#     4  10  19  40  62  70 112 161 200 251 326 334
#     4  12  24  38  52  82 128 186 200 238 268 350
#     4  11  22  40  54  83 114 161 202 253 295 350
#     4  12  24  34  68  82 108 148 220 280 292 352
#
# _framework density 20.839659000000001
#
# number of rings (size 3 to 8) (size 9 to 14) (size 15 to 20)
#    0.000    1.000    5.000    3.750    3.500    2.000 
#    0.000    0.000    0.000    0.000    0.000    0.000 
#    0.000   65.000    0.000    0.000    0.000    0.000 
#
# Total GULP energy -178292.707900 kJ/mol
# GULP energy per Si atom -5571.647122 kJ/mol
# Density = 2.079223 g / cm^3
# Si number density = 20.839659 Si / 1000 Ang^3
#
#
#
# Elastic Constant Matrix: (Units=GPa)
#
#
# Indices 1 2 3 4 5 6 
#
# 1 72.3364 -4.0394 12.9243 0.0000 0.0000 0.0000
# 2 -4.0394 72.3364 12.9243 0.0000 0.0000 0.0000
# 3 12.9243 12.9243 97.5664 0.0000 0.0000 0.0000
# 4 0.0000 0.0000 0.0000 32.1930 0.0000 0.0000
# 5 0.0000 0.0000 0.0000 0.0000 32.1930 0.0000
# 6 0.0000 0.0000 0.0000 0.0000 0.0000 9.7081
#
#
#
# Elastic Compliance Matrix: (Units=1/GPa)
#
#
# Indices 1 2 3 4 5 6 
#
# 1 0.014254 0.001161 -0.002042 0.000000 0.000000 0.000000
# 2 0.001161 0.014254 -0.002042 0.000000 0.000000 0.000000
# 3 -0.002042 -0.002042 0.010790 0.000000 0.000000 0.000000
# 4 0.000000 0.000000 0.000000 0.031063 0.000000 0.000000
# 5 0.000000 0.000000 0.000000 0.000000 0.031063 0.000000
# 6 0.000000 0.000000 0.000000 0.000000 0.000000 0.103006
#
#
# Mechanical properties :
#
#
# Convention : Reuss Voigt Hill
#
# Bulk Modulus (GPa) = 29.89345 31.76197 30.82771
# Shear Modulus (GPa) = 22.58083 29.51417 26.04750
#
# Velocity S-wave (km/s) = 3.29530 3.76739 3.53923
# Velocity P-wave (km/s) = 5.37162 5.84795 5.61484
#
# Compressibility (1/GPa) = 0.03345214
#
# Stress axis : x y z
#
# Youngs Moduli (GPa) = 70.15595 70.15595 92.67485
#
# Poissons Ratio (x) = -0.08144 0.18924
# Poissons Ratio (y) = -0.08144 0.18924
# Poissons Ratio (z) = 0.14325 0.14325
#
# Static dielectric constant tensor:
#      x y z
#    x 1.834410 0.000000 0.000000 
#    y 0.000000 1.834410 0.000000 
#    z 0.000000 0.000000 1.870950 
# 
# From -- ./inp_files/1102.got.cif
#   From: 2010.05.17/outbox.cif.g08.bks.cpg/sg112_1_cif.got.tgz:1102.got - 2010.05.20 10:59:04.
