data_PCOD9555169
_publ_section_title
;
Structure prediction by ZEFSAII (Michael W. Deem and Ramdas Pophale) SiO2 
 PCOD9555169
Probable space group: P -4 2 C
;
_chemical_formula_sum "Si O2"
_cell_formula_units_Z 22
_cell_length_a 9.998980
_cell_length_b 9.998980
_cell_length_c 12.580070
_cell_angle_alpha 90.000000
_cell_angle_beta 90.000000
_cell_angle_gamma 90.000000
_cell_volume 1257.750380
_symmetry_space_group_name_H-M "P -4 2 C"
_symmetry_group_IT_number 112
_symmetry_cell_setting 'tetragonal'
loop_
_space_group_symop_operation_xyz
x,y,z
y,-x,-z
-x,-y,z
-y,x,-z
x,-y,1/2-z
-x,y,1/2-z
-y,-x,1/2+z
y,x,1/2+z
loop_
_atom_site_type_symbol
_atom_site_label
_atom_site_fract_x
_atom_site_fract_y
_atom_site_fract_z
Si Si1 0.749547 0.909496 0.854544
Si Si2 0.000000 0.000000 0.000000
Si Si3 0.000000 0.500000 0.489592
Si Si4 0.374184 0.139960 0.313064
O O1 0.772788 0.757162 0.819835
O O2 0.747578 0.000000 0.750000
O O3 0.875592 0.953480 0.927409
O O4 0.612941 0.930259 0.919017
O O5 0.899392 0.424113 0.569658
O O6 0.500000 0.200527 0.250000
O O7 0.343902 0.000000 0.250000
#
# Coordination Sequence:
#
# PCOD9555169 Si02
#       4
#     8   2   4   8
#     4  12  23  37  62  96 123 156 210 258 305 367
#     4  12  22  36  64  98 120 156 198 264 312 362
#     4  10  22  38  58  90 128 160 194 258 314 356
#     4   9  20  38  60  88 125 165 199 249 315 370
#
# _framework density 17.491547000000001
#
# number of rings (size 3 to 8) (size 9 to 14) (size 15 to 20)
#    0.000    1.818    3.636    3.273    5.091    0.000 
#    0.000    0.000    0.000   14.182    0.000    0.000 
#    0.000    0.000    0.000    0.000    0.000    0.000 
#
# Total GULP energy -122834.598129 kJ/mol
# GULP energy per Si atom -5583.390824 kJ/mol
# Density = 1.745174 g / cm^3
# Si number density = 17.491547 Si / 1000 Ang^3
#
#
#
# Elastic Constant Matrix: (Units=GPa)
#
#
# Indices 1 2 3 4 5 6 
#
# 1 135.8703 76.4862 70.8011 0.0000 0.0000 0.0000
# 2 76.4862 135.8703 70.8011 0.0000 0.0000 0.0000
# 3 70.8011 70.8011 124.3425 0.0000 0.0000 0.0000
# 4 0.0000 0.0000 0.0000 3.9150 0.0000 0.0000
# 5 0.0000 0.0000 0.0000 0.0000 3.9150 0.0000
# 6 0.0000 0.0000 0.0000 0.0000 0.0000 19.0243
#
#
#
# Elastic Compliance Matrix: (Units=1/GPa)
#
#
# Indices 1 2 3 4 5 6 
#
# 1 0.012215 -0.004624 -0.004323 0.000000 0.000000 0.000000
# 2 -0.004624 0.012215 -0.004323 0.000000 0.000000 0.000000
# 3 -0.004323 -0.004323 0.012965 0.000000 0.000000 0.000000
# 4 0.000000 0.000000 0.000000 0.255425 0.000000 0.000000
# 5 0.000000 0.000000 0.000000 0.000000 0.255425 0.000000
# 6 0.000000 0.000000 0.000000 0.000000 0.000000 0.052564
#
#
# Mechanical properties :
#
#
# Convention : Reuss Voigt Hill
#
# Bulk Modulus (GPa) = 92.10308 92.47331 92.28819
# Shear Modulus (GPa) = 7.92434 17.23719 12.58076
#
# Velocity S-wave (km/s) = 2.13078 3.14261 2.68479
# Velocity P-wave (km/s) = 7.66966 8.13328 7.90487
#
# Compressibility (1/GPa) = 0.01085740
#
# Stress axis : x y z
#
# Youngs Moduli (GPa) = 81.86337 81.86337 77.13141
#
# Poissons Ratio (x) = 0.37854 0.33341
# Poissons Ratio (y) = 0.37854 0.33341
# Poissons Ratio (z) = 0.35386 0.35386
#
# Static dielectric constant tensor:
#      x y z
#    x 1.578710 0.000000 0.000000 
#    y 0.000000 1.578710 0.000000 
#    z 0.000000 0.000000 1.598100 
# 
# From -- ./inp_files/2919.got.cif
#   From: 2010.05.17/outbox.cif.g08.bks.cpg/sg112_2_cif.got.tgz:2919.got - 2010.05.20 10:59:04.
