data_PCOD9555232
_publ_section_title
;
Structure prediction by ZEFSAII (Michael W. Deem and Ramdas Pophale) SiO2 
 PCOD9555232
Probable space group: P -4 2 C
;
_chemical_formula_sum "Si O2"
_cell_formula_units_Z 42
_cell_length_a 15.990870
_cell_length_b 15.990870
_cell_length_c 7.476985
_cell_angle_alpha 90.000000
_cell_angle_beta 90.000000
_cell_angle_gamma 90.000000
_cell_volume 1911.924307
_symmetry_space_group_name_H-M "P -4 2 C"
_symmetry_group_IT_number 112
_symmetry_cell_setting 'tetragonal'
loop_
_space_group_symop_operation_xyz
x,y,z
y,-x,-z
-x,-y,z
-y,x,-z
x,-y,1/2-z
-x,y,1/2-z
-y,-x,1/2+z
y,x,1/2+z
loop_
_atom_site_type_symbol
_atom_site_label
_atom_site_fract_x
_atom_site_fract_y
_atom_site_fract_z
Si Si1 0.816004 0.025351 0.543031
Si Si2 0.642090 0.787706 0.238620
Si Si3 0.500000 0.000000 0.750000
Si Si4 0.653369 0.500000 0.750000
Si Si5 0.500000 0.500000 0.500000
Si Si6 0.000000 0.000000 0.000000
Si Si7 0.350762 0.081552 0.531733
Si Si8 0.280642 0.817938 0.627699
O O1 0.791329 0.122765 0.544547
O O2 0.901452 0.004754 0.439956
O O3 0.834196 0.000000 0.750000
O O4 0.728880 0.979076 0.492944
O O5 0.576977 0.714809 0.280778
O O6 0.624355 0.869598 0.353809
O O7 0.731118 0.757060 0.311110
O O8 0.650942 0.805262 0.027775
O O9 0.434272 0.043853 0.616695
O O10 0.586758 0.520982 0.596928
O O11 0.316771 0.139208 0.694622
#
# Coordination Sequence:
#
# PCOD9555232 Si02
#       8
#     8   8   2   4   2   2   8   8
#     4  10  23  44  61 103 142 185 243 293 359 421
#     4  12  25  43  74 108 134 186 243 293 358 442
#     4  12  24  52  74  98 148 204 224 312 366 418
#     4  11  26  46  70 109 136 186 238 283 378 438
#     4  10  24  50  68  94 160 174 212 318 352 438
#     4  12  22  36  72  98 140 198 236 298 358 428
#     4  11  25  47  71 102 144 185 243 299 360 427
#     4  11  23  45  70  99 147 183 235 304 356 423
#
# _framework density 21.967397999999999
#
# number of rings (size 3 to 8) (size 9 to 14) (size 15 to 20)
#    0.000    0.952    4.762    2.571    5.333    0.762 
#    3.429    0.952    0.000    0.000    0.000    0.000 
#    0.000    0.000    0.000    0.000    0.000    0.000 
#
# Total GULP energy -234364.477785 kJ/mol
# GULP energy per Si atom -5580.106614 kJ/mol
# Density = 2.191740 g / cm^3
# Si number density = 21.967398 Si / 1000 Ang^3
#
#
#
# Elastic Constant Matrix: (Units=GPa)
#
#
# Indices 1 2 3 4 5 6 
#
# 1 118.4806 61.4226 0.8235 0.0000 0.0000 0.0000
# 2 61.4226 118.4806 0.8235 0.0000 0.0000 0.0000
# 3 0.8235 0.8235 53.0524 0.0000 0.0000 0.0000
# 4 0.0000 0.0000 0.0000 8.1155 0.0000 0.0000
# 5 0.0000 0.0000 0.0000 0.0000 8.1155 0.0000
# 6 0.0000 0.0000 0.0000 0.0000 0.0000 19.0986
#
#
#
# Elastic Compliance Matrix: (Units=1/GPa)
#
#
# Indices 1 2 3 4 5 6 
#
# 1 0.011543 -0.005983 -0.000086 0.000000 0.000000 0.000000
# 2 -0.005983 0.011543 -0.000086 0.000000 0.000000 0.000000
# 3 -0.000086 -0.000086 0.018852 0.000000 0.000000 0.000000
# 4 0.000000 0.000000 0.000000 0.123221 0.000000 0.000000
# 5 0.000000 0.000000 0.000000 0.000000 0.123221 0.000000
# 6 0.000000 0.000000 0.000000 0.000000 0.000000 0.052360
#
#
# Mechanical properties :
#
#
# Convention : Reuss Voigt Hill
#
# Bulk Modulus (GPa) = 33.75471 46.23916 39.99694
# Shear Modulus (GPa) = 13.77693 22.19552 17.98622
#
# Velocity S-wave (km/s) = 2.50702 3.18210 2.86452
# Velocity P-wave (km/s) = 4.87641 5.88181 5.40255
#
# Compressibility (1/GPa) = 0.02962549
#
# Stress axis : x y z
#
# Youngs Moduli (GPa) = 86.63494 86.63494 53.04484
#
# Poissons Ratio (x) = 0.51837 0.00458
# Poissons Ratio (y) = 0.51837 0.00458
# Poissons Ratio (z) = 0.00748 0.00748
#
# Static dielectric constant tensor:
#      x y z
#    x 1.778540 0.000000 0.000000 
#    y 0.000000 1.778540 0.000000 
#    z 0.000000 0.000000 1.868870 
# 
# From -- ./inp_files/1348.got.cif
#   From: 2010.05.17/outbox.cif.g08.bks.cpg/sg112_1_cif.got.tgz:1348.got - 2010.05.20 10:59:04.
