data_PCOD9555279
_publ_section_title
;
Structure prediction by ZEFSAII (Michael W. Deem and Ramdas Pophale) SiO2 
 PCOD9555279
Probable space group: P -4 2 C
;
_chemical_formula_sum "Si O2"
_cell_formula_units_Z 12
_cell_length_a 5.302826
_cell_length_b 5.302826
_cell_length_c 17.772871
_cell_angle_alpha 90.000000
_cell_angle_beta 90.000000
_cell_angle_gamma 90.000000
_cell_volume 499.772485
_symmetry_space_group_name_H-M "P -4 2 C"
_symmetry_group_IT_number 112
_symmetry_cell_setting 'tetragonal'
loop_
_space_group_symop_operation_xyz
x,y,z
y,-x,-z
-x,-y,z
-y,x,-z
x,-y,1/2-z
-x,y,1/2-z
-y,-x,1/2+z
y,x,1/2+z
loop_
_atom_site_type_symbol
_atom_site_label
_atom_site_fract_x
_atom_site_fract_y
_atom_site_fract_z
Si Si1 0.000000 0.000000 0.750000
Si Si2 0.759623 0.844772 0.606466
Si Si3 0.500000 0.500000 0.000000
O O1 0.169197 0.172947 0.694864
O O2 0.713344 0.599662 0.556701
O O3 0.500000 0.000000 0.601092
O O4 0.000000 0.000000 0.578446
#
# Coordination Sequence:
#
# PCOD9555279 Si02
#       3
#     2   8   2
#     4   8  22  52  78 108 164 214 264 336 404 492
#     4  10  25  46  80 113 161 209 272 334 412 484
#     4  12  28  44  82 120 152 210 276 340 408 488
#
# _framework density 24.010922000000001
#
# number of rings (size 3 to 8) (size 9 to 14) (size 15 to 20)
#    2.000    0.000    0.000    1.000    9.333    0.000 
#    0.000   10.000   14.667    0.000    0.000    0.000 
#    0.000    0.000    0.000    0.000    0.000    0.000 
#
# Total GULP energy -66964.131811 kJ/mol
# GULP energy per Si atom -5580.344318 kJ/mol
# Density = 2.395627 g / cm^3
# Si number density = 24.010922 Si / 1000 Ang^3
#
#
#
# Elastic Constant Matrix: (Units=GPa)
#
#
# Indices 1 2 3 4 5 6 
#
# 1 129.6664 48.8906 51.2104 0.0000 0.0000 0.0000
# 2 48.8906 129.6664 51.2104 0.0000 0.0000 0.0000
# 3 51.2104 51.2104 217.6653 0.0000 0.0000 0.0000
# 4 0.0000 0.0000 0.0000 71.9633 0.0000 0.0000
# 5 0.0000 0.0000 0.0000 0.0000 71.9633 0.0000
# 6 0.0000 0.0000 0.0000 0.0000 0.0000 47.5149
#
#
#
# Elastic Compliance Matrix: (Units=1/GPa)
#
#
# Indices 1 2 3 4 5 6 
#
# 1 0.009427 -0.002953 -0.001523 0.000000 0.000000 0.000000
# 2 -0.002953 0.009427 -0.001523 0.000000 0.000000 0.000000
# 3 -0.001523 -0.001523 0.005311 0.000000 0.000000 0.000000
# 4 0.000000 0.000000 0.000000 0.013896 0.000000 0.000000
# 5 0.000000 0.000000 0.000000 0.000000 0.013896 0.000000
# 6 0.000000 0.000000 0.000000 0.000000 0.000000 0.021046
#
#
# Mechanical properties :
#
#
# Convention : Reuss Voigt Hill
#
# Bulk Modulus (GPa) = 82.19287 86.62457 84.40872
# Shear Modulus (GPa) = 56.14380 60.00075 58.07227
#
# Velocity S-wave (km/s) = 4.84080 5.00432 4.92324
# Velocity P-wave (km/s) = 8.09631 8.33945 8.21878
#
# Compressibility (1/GPa) = 0.01216651
#
# Stress axis : x y z
#
# Youngs Moduli (GPa) = 106.07772 106.07772 188.29083
#
# Poissons Ratio (x) = 0.31324 0.28680
# Poissons Ratio (y) = 0.31324 0.28680
# Poissons Ratio (z) = 0.16158 0.16158
#
# Static dielectric constant tensor:
#      x y z
#    x 1.899730 0.000000 0.000000 
#    y 0.000000 1.899730 0.000000 
#    z 0.000000 0.000000 1.947290 
# 
# From -- ./inp_files/3521.got.cif
#   From: 2010.05.17/outbox.cif.g08.bks.cpg/sg112_2_cif.got.tgz:3521.got - 2010.05.20 10:59:04.
