data_PCOD9555410
_publ_section_title
;
Structure prediction by ZEFSAII (Michael W. Deem and Ramdas Pophale) SiO2 
 PCOD9555410
Probable space group: P -4 2 C
;
_chemical_formula_sum "Si O2"
_cell_formula_units_Z 12
_cell_length_a 6.676785
_cell_length_b 6.676785
_cell_length_c 13.860507
_cell_angle_alpha 90.000000
_cell_angle_beta 90.000000
_cell_angle_gamma 90.000000
_cell_volume 617.893889
_symmetry_space_group_name_H-M "P -4 2 C"
_symmetry_group_IT_number 112
_symmetry_cell_setting 'tetragonal'
loop_
_space_group_symop_operation_xyz
x,y,z
y,-x,-z
-x,-y,z
-y,x,-z
x,-y,1/2-z
-x,y,1/2-z
-y,-x,1/2+z
y,x,1/2+z
loop_
_atom_site_type_symbol
_atom_site_label
_atom_site_fract_x
_atom_site_fract_y
_atom_site_fract_z
Si Si1 0.625417 0.196969 0.345141
Si Si2 0.000000 0.000000 0.750000
Si Si3 0.500000 0.500000 0.500000
O O1 0.500000 0.265456 0.250000
O O2 0.847318 0.132993 0.312992
O O3 0.623229 0.356374 0.429460
O O4 0.500000 0.000000 0.376480
#
# Coordination Sequence:
#
# PCOD9555410 Si02
#       3
#     8   2   2
#     4   9  21  39  58  86 120 154 196 241 290 348
#     4   8  18  44  64  78 120 164 190 236 296 346
#     4  12  22  36  64  94 116 148 198 248 292 342
#
# _framework density 19.420808000000001
#
# number of rings (size 3 to 8) (size 9 to 14) (size 15 to 20)
#    0.000    3.333    0.000    1.000    0.000   10.667 
#    0.000   16.667    0.000    0.000    0.000    0.000 
#    0.000    0.000    0.000    0.000    0.000    0.000 
#
# Total GULP energy -66917.261533 kJ/mol
# GULP energy per Si atom -5576.438461 kJ/mol
# Density = 1.937661 g / cm^3
# Si number density = 19.420808 Si / 1000 Ang^3
#
#
#
# Elastic Constant Matrix: (Units=GPa)
#
#
# Indices 1 2 3 4 5 6 
#
# 1 139.6767 52.8455 65.3091 0.0000 0.0000 0.0000
# 2 52.8455 139.6767 65.3091 0.0000 0.0000 0.0000
# 3 65.3091 65.3091 123.4986 0.0000 0.0000 0.0000
# 4 0.0000 0.0000 0.0000 21.7476 0.0000 0.0000
# 5 0.0000 0.0000 0.0000 0.0000 21.7476 0.0000
# 6 0.0000 0.0000 0.0000 0.0000 0.0000 2.8978
#
#
#
# Elastic Compliance Matrix: (Units=1/GPa)
#
#
# Indices 1 2 3 4 5 6 
#
# 1 0.009809 -0.001708 -0.004284 0.000000 0.000000 0.000000
# 2 -0.001708 0.009809 -0.004284 0.000000 0.000000 0.000000
# 3 -0.004284 -0.004284 0.012628 0.000000 0.000000 0.000000
# 4 0.000000 0.000000 0.000000 0.045982 0.000000 0.000000
# 5 0.000000 0.000000 0.000000 0.000000 0.045982 0.000000
# 6 0.000000 0.000000 0.000000 0.000000 0.000000 0.345085
#
#
# Mechanical properties :
#
#
# Convention : Reuss Voigt Hill
#
# Bulk Modulus (GPa) = 85.51383 85.53103 85.52243
# Shear Modulus (GPa) = 10.12672 23.90449 17.01561
#
# Velocity S-wave (km/s) = 2.28598 3.51218 2.96320
# Velocity P-wave (km/s) = 7.14809 7.78356 7.47258
#
# Compressibility (1/GPa) = 0.01169401
#
# Stress axis : x y z
#
# Youngs Moduli (GPa) = 101.95159 101.95159 79.18916
#
# Poissons Ratio (x) = 0.17413 0.33923
# Poissons Ratio (y) = 0.17413 0.33923
# Poissons Ratio (z) = 0.43674 0.43674
#
# Static dielectric constant tensor:
#      x y z
#    x 1.685140 0.000000 0.000000 
#    y 0.000000 1.685140 0.000000 
#    z 0.000000 0.000000 1.666120 
# 
# From -- ./inp_files/3518.got.cif
#   From: 2010.05.17/outbox.cif.g08.bks.cpg/sg112_2_cif.got.tgz:3518.got - 2010.05.20 10:59:04.
