data_PCOD9555637
_publ_section_title
;
Structure prediction by ZEFSAII (Michael W. Deem and Ramdas Pophale) SiO2 
 PCOD9555637
Probable space group: P -4 21 M 
;
_chemical_formula_sum "Si O2"
_cell_formula_units_Z 64
_cell_length_a 11.543025
_cell_length_b 11.543025
_cell_length_c 23.446107
_cell_angle_alpha 90.000000
_cell_angle_beta 90.000000
_cell_angle_gamma 90.000000
_cell_volume 3123.992734
_symmetry_space_group_name_H-M "P -4 21 M "
_symmetry_group_IT_number 113
_symmetry_cell_setting 'tetragonal'
loop_
_space_group_symop_operation_xyz
x,y,z
y,-x,-z
-x,-y,z
-y,x,-z
1/2+x,1/2-y,-z
1/2-x,1/2+y,-z
1/2-y,1/2-x,z
1/2+y,1/2+x,z
loop_
_atom_site_type_symbol
_atom_site_label
_atom_site_fract_x
_atom_site_fract_y
_atom_site_fract_z
Si Si1 0.185729 0.504288 0.753649
Si Si2 0.498862 0.196091 0.485610
Si Si3 0.633309 0.666034 0.709162
Si Si4 0.165045 0.138824 0.580604
Si Si5 0.264538 0.409030 0.969308
Si Si6 0.015708 0.139049 0.183245
Si Si7 0.577770 0.740900 0.128179
Si Si8 0.446151 0.232758 0.926840
O O1 0.086645 0.413356 0.737568
O O2 0.299374 0.454119 0.723837
O O3 0.208133 0.497716 0.821435
O O4 0.130952 0.630952 0.741414
O O5 0.605145 0.105145 0.498909
O O6 0.551457 0.290456 0.441094
O O7 0.453321 0.277846 0.537142
O O8 0.389764 0.110237 0.469182
O O9 0.727613 0.772388 0.714681
O O10 0.590807 0.655105 0.644433
O O11 0.531697 0.677386 0.755589
O O12 0.260681 0.239320 0.584767
O O13 0.142667 0.357334 0.947398
O O14 0.305647 0.506773 0.925136
O O15 0.358067 0.310066 0.963218
O O16 0.245815 0.441370 0.034800
O O17 0.147913 0.152572 0.163643
O O18 0.948318 0.210375 0.135109
O O19 0.000000 0.000000 0.178094
O O20 0.658442 0.841559 0.105380
O O21 0.395738 0.104263 0.923980
#
# Coordination Sequence:
#
# PCOD9555637 Si02
#       8
#     8   8   8   8   8   8   8   8
#     4   9  17  30  51  80 112 144 180 228 288 347
#     4   9  18  36  60  87 126 169 204 251 310 359
#     4  10  20  37  60  84 115 154 198 243 288 349
#     4   9  19  36  59  90 120 156 207 249 291 360
#     4  11  23  39  60  86 113 144 185 235 293 353
#     4  12  22  39  59  79 110 151 188 229 284 345
#     4  11  22  37  57  82 111 144 186 237 289 347
#     4  11  24  38  57  83 109 141 183 227 281 347
#
# _framework density 20.486602000000001
#
# number of rings (size 3 to 8) (size 9 to 14) (size 15 to 20)
#    0.000    1.750    2.500    1.875    0.000    5.750 
#    2.250    3.125    0.000    1.875    0.000    0.000 
#    0.000    0.000    0.000    0.000    0.000    0.000 
#
# Total GULP energy -356445.900926 kJ/mol
# GULP energy per Si atom -5569.467202 kJ/mol
# Density = 2.043997 g / cm^3
# Si number density = 20.486602 Si / 1000 Ang^3
#
#
#
# Elastic Constant Matrix: (Units=GPa)
#
#
# Indices 1 2 3 4 5 6 
#
# 1 202.0377 -136.6497 32.6817 0.0000 0.0000 0.0000
# 2 -136.6497 202.0342 32.6786 0.0000 0.0000 0.0000
# 3 32.6817 32.6786 128.4686 0.0000 0.0000 0.0000
# 4 0.0000 0.0000 0.0000 22.6681 0.0000 0.0000
# 5 0.0000 0.0000 0.0000 0.0000 22.6679 0.0000
# 6 0.0000 0.0000 0.0000 0.0000 0.0000 25.2818
#
#
#
# Elastic Compliance Matrix: (Units=1/GPa)
#
#
# Indices 1 2 3 4 5 6 
#
# 1 0.011731 0.008778 -0.005217 0.000000 0.000000 0.000000
# 2 0.008778 0.011731 -0.005217 0.000000 0.000000 0.000000
# 3 -0.005217 -0.005217 0.010438 0.000000 0.000000 0.000000
# 4 0.000000 0.000000 0.000000 0.044115 0.000000 0.000000
# 5 0.000000 0.000000 0.000000 0.000000 0.044115 0.000000
# 6 0.000000 0.000000 0.000000 0.000000 0.000000 0.039554
#
#
# Mechanical properties :
#
#
# Convention : Reuss Voigt Hill
#
# Bulk Modulus (GPa) = 32.69315 43.32911 38.01113
# Shear Modulus (GPa) = 28.54018 54.37890 41.45954
#
# Velocity S-wave (km/s) = 3.73649 5.15764 4.50348
# Velocity P-wave (km/s) = 5.88287 7.52757 6.75546
#
# Compressibility (1/GPa) = 0.03058744
#
# Stress axis : x y z
#
# Youngs Moduli (GPa) = 85.24718 85.24636 95.80142
#
# Poissons Ratio (x) = -0.74830 0.49980
# Poissons Ratio (y) = -0.74830 0.49980
# Poissons Ratio (z) = 0.44474 0.44473
#
# Static dielectric constant tensor:
#      x y z
#    x 1.795700 0.000000 0.000000 
#    y 0.000000 1.795700 0.000000 
#    z 0.000000 0.000000 1.728790 
# 
# From -- ./inp_files/2889.got.cif
#   From: 2010.05.17/outbox.cif.g08.bks.cpg/sg113_cif.got.tgz:2889.got - 2010.05.20 11:03:00.
