data_PCOD9555543
_publ_section_title
;
Structure prediction by ZEFSAII (Michael W. Deem and Ramdas Pophale) SiO2 
 PCOD9555543
Probable space group: P -4 21 M 
;
_chemical_formula_sum "Si O2"
_cell_formula_units_Z 48
_cell_length_a 14.728831
_cell_length_b 14.728831
_cell_length_c 12.655667
_cell_angle_alpha 90.000000
_cell_angle_beta 90.000000
_cell_angle_gamma 90.000000
_cell_volume 2745.500942
_symmetry_space_group_name_H-M "P -4 21 M "
_symmetry_group_IT_number 113
_symmetry_cell_setting 'tetragonal'
loop_
_space_group_symop_operation_xyz
x,y,z
y,-x,-z
-x,-y,z
-y,x,-z
1/2+x,1/2-y,-z
1/2-x,1/2+y,-z
1/2-y,1/2-x,z
1/2+y,1/2+x,z
loop_
_atom_site_type_symbol
_atom_site_label
_atom_site_fract_x
_atom_site_fract_y
_atom_site_fract_z
Si Si1 0.494097 0.344104 0.596612
Si Si2 0.577509 0.077509 0.865271
Si Si3 0.985869 0.140485 0.630914
Si Si4 0.208463 0.558723 0.223024
Si Si5 0.576332 0.076332 0.113929
Si Si6 0.487597 0.720849 0.135663
Si Si7 0.846407 0.195027 0.023639
O O1 0.489741 0.302911 0.478433
O O2 0.429464 0.432479 0.604771
O O3 0.590514 0.388189 0.628587
O O4 0.458122 0.274096 0.680873
O O5 0.536460 0.166064 0.813190
O O6 0.500000 0.000000 0.855443
O O7 0.589804 0.089804 0.988831
O O8 0.004801 0.179602 0.746588
O O9 0.127841 0.627841 0.251654
O O10 0.259309 0.602780 0.123469
O O11 0.539656 0.173580 0.151727
O O12 0.500000 0.000000 0.131270
O O13 0.406474 0.678458 0.063119
O O14 0.582186 0.704217 0.072875
O O15 0.756123 0.256123 0.003466
#
# Coordination Sequence:
#
# PCOD9555543 Si02
#       7
#     8   4   8   8   4   8   8
#     4   9  18  38  59  82 114 151 191 242 304 347
#     4   9  18  34  57  81 107 157 195 225 285 349
#     4   9  20  35  60  85 112 151 193 239 298 363
#     4  10  19  35  60  83 115 152 197 239 288 353
#     4  11  22  40  59  81 121 172 195 223 297 374
#     4  12  23  37  61  90 122 156 204 245 298 358
#     4  11  24  38  56  91 125 158 199 248 294 359
#
# _framework density 17.483146999999999
#
# number of rings (size 3 to 8) (size 9 to 14) (size 15 to 20)
#    0.000    1.833    4.167    1.500    2.333    0.333 
#    0.000    2.500    7.333    1.000    0.000    0.000 
#    0.000    0.000    0.000    0.000    0.000    0.000 
#
# Total GULP energy -267376.465396 kJ/mol
# GULP energy per Si atom -5570.343029 kJ/mol
# Density = 1.744335 g / cm^3
# Si number density = 17.483147 Si / 1000 Ang^3
#
#
#
# Elastic Constant Matrix: (Units=GPa)
#
#
# Indices 1 2 3 4 5 6 
#
# 1 62.0912 31.1317 39.8593 0.0000 0.0000 0.0000
# 2 31.1317 62.0912 39.8593 0.0000 0.0000 0.0000
# 3 39.8593 39.8593 123.7585 0.0000 0.0000 0.0000
# 4 0.0000 0.0000 0.0000 35.6478 0.0000 0.0000
# 5 0.0000 0.0000 0.0000 0.0000 35.6478 0.0000
# 6 0.0000 0.0000 0.0000 0.0000 0.0000 19.4568
#
#
#
# Elastic Compliance Matrix: (Units=1/GPa)
#
#
# Indices 1 2 3 4 5 6 
#
# 1 0.023552 -0.008748 -0.004768 0.000000 0.000000 0.000000
# 2 -0.008748 0.023552 -0.004768 0.000000 0.000000 0.000000
# 3 -0.004768 -0.004768 0.011152 0.000000 0.000000 0.000000
# 4 0.000000 0.000000 0.000000 0.028052 0.000000 0.000000
# 5 0.000000 0.000000 0.000000 0.000000 0.028052 0.000000
# 6 0.000000 0.000000 0.000000 0.000000 0.000000 0.051396
#
#
# Mechanical properties :
#
#
# Convention : Reuss Voigt Hill
#
# Bulk Modulus (GPa) = 46.10848 52.18237 49.14542
# Shear Modulus (GPa) = 23.86018 27.28984 25.57501
#
# Velocity S-wave (km/s) = 3.69826 3.95514 3.82886
# Velocity P-wave (km/s) = 6.68330 7.12527 6.90782
#
# Compressibility (1/GPa) = 0.02168799
#
# Stress axis : x y z
#
# Youngs Moduli (GPa) = 42.45866 42.45866 89.67324
#
# Poissons Ratio (x) = 0.37143 0.42757
# Poissons Ratio (y) = 0.37143 0.42757
# Poissons Ratio (z) = 0.20245 0.20245
#
# Static dielectric constant tensor:
#      x y z
#    x 1.414340 0.000000 0.000000 
#    y 0.000000 1.414340 0.000000 
#    z 0.000000 0.000000 1.581730 
# 
# From -- ./inp_files/1871.got.cif
#   From: 2010.05.17/outbox.cif.g08.bks.cpg/sg113_cif.got.tgz:1871.got - 2010.05.20 11:03:00.
