data_PCOD9555299
_publ_section_title
;
Structure prediction by ZEFSAII (Michael W. Deem and Ramdas Pophale) SiO2 
 PCOD9555299
Probable space group: P -4 2 C
;
_chemical_formula_sum "Si O2"
_cell_formula_units_Z 36
_cell_length_a 12.150435
_cell_length_b 12.150435
_cell_length_c 13.591911
_cell_angle_alpha 90.000000
_cell_angle_beta 90.000000
_cell_angle_gamma 90.000000
_cell_volume 2006.615557
_symmetry_space_group_name_H-M "P -4 2 C"
_symmetry_group_IT_number 112
_symmetry_cell_setting 'tetragonal'
loop_
_space_group_symop_operation_xyz
x,y,z
y,-x,-z
-x,-y,z
-y,x,-z
x,-y,1/2-z
-x,y,1/2-z
-y,-x,1/2+z
y,x,1/2+z
loop_
_atom_site_type_symbol
_atom_site_label
_atom_site_fract_x
_atom_site_fract_y
_atom_site_fract_z
Si Si1 0.925932 0.130555 0.937244
Si Si2 0.000000 0.500000 0.750000
Si Si3 0.174285 0.356030 0.628220
Si Si4 0.343224 0.430366 0.480505
Si Si5 0.000000 0.000000 0.250000
Si Si6 0.632465 0.625470 0.267302
O O1 0.873054 0.248186 0.923286
O O2 0.934631 0.076027 0.828325
O O3 0.046686 0.136075 0.988536
O O4 0.919811 0.576355 0.684425
O O5 0.234416 0.427442 0.544285
O O6 0.272746 0.324369 0.703744
O O7 0.380800 0.554737 0.457058
O O8 0.341118 0.359274 0.382176
O O9 0.672243 0.500000 0.250000
O O10 0.500000 0.626384 0.250000
#
# Coordination Sequence:
#
# PCOD9555299 Si02
#       6
#     8   2   8   8   2   8
#     4   9  21  39  61  87 110 159 219 256 306 371
#     4  12  26  40  54  98 126 160 210 262 352 370
#     4  12  23  38  61  90 132 162 198 276 314 382
#     4  11  19  34  59  87 123 166 206 245 301 379
#     4   8  16  40  64  76 110 144 220 276 280 378
#     4  11  19  36  59  89 124 162 212 246 302 384
#
# _framework density 17.940655
#
# number of rings (size 3 to 8) (size 9 to 14) (size 15 to 20)
#    0.000    1.556    5.556    2.000    0.000    7.111 
#    0.000    0.000    0.000    0.000    0.000    0.000 
#    0.000    0.000    0.000    0.000    0.000    0.000 
#
# Total GULP energy -200584.189045 kJ/mol
# GULP energy per Si atom -5571.783029 kJ/mol
# Density = 1.789982 g / cm^3
# Si number density = 17.940655 Si / 1000 Ang^3
#
#
#
# Elastic Constant Matrix: (Units=GPa)
#
#
# Indices 1 2 3 4 5 6 
#
# 1 104.2394 56.1216 36.0558 0.0000 0.0000 0.0000
# 2 56.1216 104.2394 36.0558 0.0000 0.0000 0.0000
# 3 36.0558 36.0558 107.7982 0.0000 0.0000 0.0000
# 4 0.0000 0.0000 0.0000 21.7585 0.0000 0.0000
# 5 0.0000 0.0000 0.0000 0.0000 21.7585 0.0000
# 6 0.0000 0.0000 0.0000 0.0000 0.0000 10.4376
#
#
#
# Elastic Compliance Matrix: (Units=1/GPa)
#
#
# Indices 1 2 3 4 5 6 
#
# 1 0.014061 -0.006721 -0.002455 0.000000 0.000000 0.000000
# 2 -0.006721 0.014061 -0.002455 0.000000 0.000000 0.000000
# 3 -0.002455 -0.002455 0.010919 0.000000 0.000000 0.000000
# 4 0.000000 0.000000 0.000000 0.045959 0.000000 0.000000
# 5 0.000000 0.000000 0.000000 0.000000 0.045959 0.000000
# 6 0.000000 0.000000 0.000000 0.000000 0.000000 0.095807
#
#
# Mechanical properties :
#
#
# Convention : Reuss Voigt Hill
#
# Bulk Modulus (GPa) = 63.37688 63.63817 63.50752
# Shear Modulus (GPa) = 19.58571 23.32719 21.45645
#
# Velocity S-wave (km/s) = 3.30766 3.60980 3.46203
# Velocity P-wave (km/s) = 7.07036 7.27480 7.17331
#
# Compressibility (1/GPa) = 0.01577863
#
# Stress axis : x y z
#
# Youngs Moduli (GPa) = 71.11804 71.11804 91.58450
#
# Poissons Ratio (x) = 0.47800 0.22484
# Poissons Ratio (y) = 0.47800 0.22484
# Poissons Ratio (z) = 0.17460 0.17460
#
# Static dielectric constant tensor:
#      x y z
#    x 1.610000 0.000000 0.000000 
#    y 0.000000 1.610000 0.000000 
#    z 0.000000 0.000000 1.683900 
# 
# From -- ./inp_files/3262.got.cif
#   From: 2010.05.17/outbox.cif.g08.bks.cpg/sg112_2_cif.got.tgz:3262.got - 2010.05.20 10:59:04.
