data_PCOD9555688
_publ_section_title
;
Structure prediction by ZEFSAII (Michael W. Deem and Ramdas Pophale) SiO2 
 PCOD9555688
Probable space group: P -4 21 M 
;
_chemical_formula_sum "Si O2"
_cell_formula_units_Z 56
_cell_length_a 12.595259
_cell_length_b 12.595259
_cell_length_c 16.878677
_cell_angle_alpha 90.000000
_cell_angle_beta 90.000000
_cell_angle_gamma 90.000000
_cell_volume 2677.642590
_symmetry_space_group_name_H-M "P -4 21 M "
_symmetry_group_IT_number 113
_symmetry_cell_setting 'tetragonal'
loop_
_space_group_symop_operation_xyz
x,y,z
y,-x,-z
-x,-y,z
-y,x,-z
1/2+x,1/2-y,-z
1/2-x,1/2+y,-z
1/2-y,1/2-x,z
1/2+y,1/2+x,z
loop_
_atom_site_type_symbol
_atom_site_label
_atom_site_fract_x
_atom_site_fract_y
_atom_site_fract_z
Si Si1 0.674795 0.006407 0.385936
Si Si2 0.028549 0.166865 0.477007
Si Si3 0.828453 0.494206 0.890831
Si Si4 0.658425 0.664772 0.324974
Si Si5 0.494225 0.612799 0.125946
Si Si6 0.724472 0.601206 0.148836
Si Si7 0.094197 0.767155 0.054265
O O1 0.584203 0.915798 0.388684
O O2 0.773085 0.953226 0.337571
O O3 0.613120 0.113120 0.357986
O O4 0.725243 0.025668 0.472915
O O5 0.071215 0.171408 0.388138
O O6 0.914110 0.110863 0.480670
O O7 0.912548 0.587453 0.895909
O O8 0.727993 0.524487 0.837807
O O9 0.890090 0.390090 0.860509
O O10 0.783307 0.467148 0.978529
O O11 0.747818 0.752183 0.343793
O O12 0.684688 0.622876 0.237610
O O13 0.500000 0.500000 0.170626
O O14 0.617301 0.622229 0.098630
O O15 0.394961 0.602109 0.066050
O O16 0.814386 0.685615 0.128467
O O17 0.761533 0.483129 0.128238
O O18 0.207062 0.707062 0.057946
#
# Coordination Sequence:
#
# PCOD9555688 Si02
#       7
#     8   8   8   8   8   8   8
#     4   9  17  31  52  78 108 141 179 225 275 322
#     4   9  17  31  50  81 108 139 175 219 270 318
#     4  10  21  37  59  84 108 139 180 232 283 327
#     4   9  18  34  56  79 107 140 181 221 264 321
#     4  10  22  36  55  83 112 143 181 224 274 330
#     4  10  21  38  59  81 109 152 187 223 274 329
#     4  10  22  38  56  81 112 145 184 229 276 328
#
# _framework density 20.913917999999999
#
# number of rings (size 3 to 8) (size 9 to 14) (size 15 to 20)
#    0.000    2.429    0.000    1.714    4.000    1.429 
#   15.429    2.143    0.000    4.286    0.000    0.000 
#    0.000    0.000    0.000    0.000    0.000    0.000 
#
# Total GULP energy -311808.562717 kJ/mol
# GULP energy per Si atom -5568.010049 kJ/mol
# Density = 2.086632 g / cm^3
# Si number density = 20.913918 Si / 1000 Ang^3
#
#
#
# Elastic Constant Matrix: (Units=GPa)
#
#
# Indices 1 2 3 4 5 6 
#
# 1 84.8098 7.0858 25.1501 0.0000 0.0000 0.0000
# 2 7.0858 84.8133 25.1494 0.0000 0.0000 0.0000
# 3 25.1501 25.1494 53.2751 0.0000 0.0000 0.0000
# 4 0.0000 0.0000 0.0000 19.0503 0.0000 0.0000
# 5 0.0000 0.0000 0.0000 0.0000 19.0504 0.0000
# 6 0.0000 0.0000 0.0000 0.0000 0.0000 28.3058
#
#
#
# Elastic Compliance Matrix: (Units=1/GPa)
#
#
# Indices 1 2 3 4 5 6 
#
# 1 0.013770 0.000904 -0.006927 0.000000 0.000000 0.000000
# 2 0.000904 0.013769 -0.006926 0.000000 0.000000 0.000000
# 3 -0.006927 -0.006926 0.025310 0.000000 0.000000 0.000000
# 4 0.000000 0.000000 0.000000 0.052493 0.000000 0.000000
# 5 0.000000 0.000000 0.000000 0.000000 0.052492 0.000000
# 6 0.000000 0.000000 0.000000 0.000000 0.000000 0.035328
#
#
# Mechanical properties :
#
#
# Convention : Reuss Voigt Hill
#
# Bulk Modulus (GPa) = 37.10655 37.51878 37.31266
# Shear Modulus (GPa) = 21.92545 24.31548 23.12046
#
# Velocity S-wave (km/s) = 3.24136 3.41346 3.32852
# Velocity P-wave (km/s) = 5.63823 5.78914 5.71418
#
# Compressibility (1/GPa) = 0.02694942
#
# Stress axis : x y z
#
# Youngs Moduli (GPa) = 72.62283 72.62691 39.50945
#
# Poissons Ratio (x) = -0.06563 0.27368
# Poissons Ratio (y) = -0.06562 0.27366
# Poissons Ratio (z) = 0.50306 0.50305
#
# Static dielectric constant tensor:
#      x y z
#    x 1.801240 0.000000 0.000000 
#    y 0.000000 1.801240 0.000000 
#    z 0.000000 0.000000 1.780540 
# 
# From -- ./inp_files/2733.got.cif
#   From: 2010.05.17/outbox.cif.g08.bks.cpg/sg113_cif.got.tgz:2733.got - 2010.05.20 11:03:00.
