data_PCOD9555880
_publ_section_title
;
Structure prediction by ZEFSAII (Michael W. Deem and Ramdas Pophale) SiO2 
 PCOD9555880
Probable space group: P -4 21 C
;
_chemical_formula_sum "Si O2"
_cell_formula_units_Z 48
_cell_length_a 8.163166
_cell_length_b 8.163166
_cell_length_c 28.813174
_cell_angle_alpha 90.000000
_cell_angle_beta 90.000000
_cell_angle_gamma 90.000000
_cell_volume 1920.031519
_symmetry_space_group_name_H-M "P -4 21 C"
_symmetry_group_IT_number 114
_symmetry_cell_setting 'tetragonal'
loop_
_space_group_symop_operation_xyz
x,y,z
y,-x,-z
-x,-y,z
-y,x,-z
1/2+x,1/2-y,1/2-z
1/2-x,1/2+y,1/2-z
1/2-y,1/2-x,1/2+z
1/2+y,1/2+x,1/2+z
loop_
_atom_site_type_symbol
_atom_site_label
_atom_site_fract_x
_atom_site_fract_y
_atom_site_fract_z
Si Si1 0.120438 0.795086 0.308286
Si Si2 0.769908 0.864290 0.268387
Si Si3 0.925532 0.666071 0.904200
Si Si4 0.218252 0.282774 0.599570
Si Si5 0.625106 0.251752 0.498157
Si Si6 0.686931 0.433066 0.660215
O O1 0.228091 0.647935 0.286389
O O2 0.137257 0.818514 0.363928
O O3 0.936815 0.786482 0.289011
O O4 0.208318 0.950740 0.284674
O O5 0.619070 0.773585 0.292811
O O6 0.086735 0.777141 0.910733
O O7 0.000000 0.500000 0.884243
O O8 0.854447 0.643524 0.955447
O O9 0.814488 0.768687 0.870603
O O10 0.158234 0.304092 0.547145
O O11 0.201722 0.440626 0.631750
O O12 0.430187 0.291689 0.491132
O O13 0.500000 0.500000 0.665515
#
# Coordination Sequence:
#
# PCOD9555880 Si02
#       6
#     8   8   8   8   8   8
#     4  11  26  45  65  98 129 179 217 276 332 402
#     4  11  26  45  69  93 137 171 226 270 337 397
#     4  10  19  33  58  92 124 167 214 262 330 392
#     4  10  20  37  61  87 128 163 215 267 326 385
#     4   9  16  33  56  86 122 165 212 270 322 388
#     4  10  21  38  64  93 124 170 214 271 324 386
#
# _framework density 24.999590999999999
#
# number of rings (size 3 to 8) (size 9 to 14) (size 15 to 20)
#    0.000    1.833    1.667    2.000    7.000    2.667 
#    3.000    0.000    0.000    0.000    0.000    2.333 
#    0.000    0.000    0.000    0.000    0.000    0.000 
#
# Total GULP energy -268065.892332 kJ/mol
# GULP energy per Si atom -5584.706090 kJ/mol
# Density = 2.494269 g / cm^3
# Si number density = 24.999591 Si / 1000 Ang^3
#
#
#
# Elastic Constant Matrix: (Units=GPa)
#
#
# Indices 1 2 3 4 5 6 
#
# 1 35.3675 8.0618 6.7316 0.0000 0.0000 0.0000
# 2 8.0618 35.3675 6.7316 0.0000 0.0000 0.0000
# 3 6.7316 6.7316 118.9099 0.0000 0.0000 0.0000
# 4 0.0000 0.0000 0.0000 29.7662 0.0000 0.0000
# 5 0.0000 0.0000 0.0000 0.0000 29.7662 0.0000
# 6 0.0000 0.0000 0.0000 0.0000 0.0000 31.0399
#
#
#
# Elastic Compliance Matrix: (Units=1/GPa)
#
#
# Indices 1 2 3 4 5 6 
#
# 1 0.030030 -0.006593 -0.001327 0.000000 0.000000 0.000000
# 2 -0.006593 0.030030 -0.001327 0.000000 0.000000 0.000000
# 3 -0.001327 -0.001327 0.008560 0.000000 0.000000 0.000000
# 4 0.000000 0.000000 0.000000 0.033595 0.000000 0.000000
# 5 0.000000 0.000000 0.000000 0.000000 0.033595 0.000000
# 6 0.000000 0.000000 0.000000 0.000000 0.000000 0.032217
#
#
# Mechanical properties :
#
#
# Convention : Reuss Voigt Hill
#
# Bulk Modulus (GPa) = 19.94927 25.85502 22.90214
# Shear Modulus (GPa) = 24.60292 29.32247 26.96270
#
# Velocity S-wave (km/s) = 3.14049 3.42850 3.28765
# Velocity P-wave (km/s) = 4.59863 5.10269 4.85721
#
# Compressibility (1/GPa) = 0.05012716
#
# Stress axis : x y z
#
# Youngs Moduli (GPa) = 33.30023 33.30023 116.82309
#
# Poissons Ratio (x) = 0.21954 0.15500
# Poissons Ratio (y) = 0.21954 0.15500
# Poissons Ratio (z) = 0.04418 0.04418
#
# Static dielectric constant tensor:
#      x y z
#    x 2.016850 0.000000 0.000000 
#    y 0.000000 2.016850 0.000000 
#    z 0.000000 0.000000 2.100080 
# 
# From -- ./inp_files/3941.got.cif
#   From: 2010.05.17/outbox.cif.g08.bks.cpg/sg114_2_cif.got.tgz:3941.got - 2010.05.20 11:04:54.
