data_PCOD9555864
_publ_section_title
;
Structure prediction by ZEFSAII (Michael W. Deem and Ramdas Pophale) SiO2 
 PCOD9555864
Probable space group: P -4 21 C
;
_chemical_formula_sum "Si O2"
_cell_formula_units_Z 40
_cell_length_a 11.650669
_cell_length_b 11.650669
_cell_length_c 14.125217
_cell_angle_alpha 90.000000
_cell_angle_beta 90.000000
_cell_angle_gamma 90.000000
_cell_volume 1917.329950
_symmetry_space_group_name_H-M "P -4 21 C"
_symmetry_group_IT_number 114
_symmetry_cell_setting 'tetragonal'
loop_
_space_group_symop_operation_xyz
x,y,z
y,-x,-z
-x,-y,z
-y,x,-z
1/2+x,1/2-y,1/2-z
1/2-x,1/2+y,1/2-z
1/2-y,1/2-x,1/2+z
1/2+y,1/2+x,1/2+z
loop_
_atom_site_type_symbol
_atom_site_label
_atom_site_fract_x
_atom_site_fract_y
_atom_site_fract_z
Si Si1 0.675413 0.324155 0.302170
Si Si2 0.201915 0.632821 0.953583
Si Si3 0.760260 0.630475 0.902496
Si Si4 0.015476 0.744646 0.079385
Si Si5 0.683930 0.567654 0.384641
O O1 0.797650 0.311519 0.354996
O O2 0.658739 0.311535 0.191309
O O3 0.591030 0.229462 0.350733
O O4 0.647144 0.455993 0.328592
O O5 0.227872 0.501518 0.930947
O O6 0.300614 0.699722 0.012014
O O7 0.089433 0.650486 0.021882
O O8 0.884403 0.686441 0.877345
O O9 0.105129 0.823369 0.135766
O O10 0.961913 0.821708 0.995579
#
# Coordination Sequence:
#
# PCOD9555864 Si02
#       5
#     8   8   8   8   8
#     4  11  23  40  72 100 130 182 239 278 344 418
#     4  10  25  44  68  98 146 180 229 286 353 405
#     4  11  25  45  66 102 147 180 230 283 361 424
#     4  10  18  39  68  95 122 173 228 287 323 398
#     4  10  20  39  68  98 130 169 229 292 335 396
#
# _framework density 20.862345999999999
#
# number of rings (size 3 to 8) (size 9 to 14) (size 15 to 20)
#    0.000    1.600    6.000    0.600    5.600    5.200 
#    3.600    0.000    8.800    0.000    0.000    0.000 
#    0.000    0.000    0.000    0.000    0.000    0.000 
#
# Total GULP energy -222826.346512 kJ/mol
# GULP energy per Si atom -5570.658663 kJ/mol
# Density = 2.081486 g / cm^3
# Si number density = 20.862346 Si / 1000 Ang^3
#
#
#
# Elastic Constant Matrix: (Units=GPa)
#
#
# Indices 1 2 3 4 5 6 
#
# 1 85.7643 12.4800 18.7386 0.0000 0.0000 0.0000
# 2 12.4800 85.7643 18.7386 0.0000 0.0000 0.0000
# 3 18.7386 18.7386 78.8769 0.0000 0.0000 0.0000
# 4 0.0000 0.0000 0.0000 22.4457 0.0000 0.0000
# 5 0.0000 0.0000 0.0000 0.0000 22.4457 0.0000
# 6 0.0000 0.0000 0.0000 0.0000 0.0000 19.7035
#
#
#
# Elastic Compliance Matrix: (Units=1/GPa)
#
#
# Indices 1 2 3 4 5 6 
#
# 1 0.012419 -0.001226 -0.002659 0.000000 0.000000 0.000000
# 2 -0.001226 0.012419 -0.002659 0.000000 0.000000 0.000000
# 3 -0.002659 -0.002659 0.013941 0.000000 0.000000 0.000000
# 4 0.000000 0.000000 0.000000 0.044552 0.000000 0.000000
# 5 0.000000 0.000000 0.000000 0.000000 0.044552 0.000000
# 6 0.000000 0.000000 0.000000 0.000000 0.000000 0.050753
#
#
# Mechanical properties :
#
#
# Convention : Reuss Voigt Hill
#
# Bulk Modulus (GPa) = 38.92395 38.92443 38.92419
# Shear Modulus (GPa) = 24.96395 26.28221 25.62308
#
# Velocity S-wave (km/s) = 3.46295 3.55320 3.50837
# Velocity P-wave (km/s) = 5.88960 5.96087 5.92534
#
# Compressibility (1/GPa) = 0.02569112
#
# Stress axis : x y z
#
# Youngs Moduli (GPa) = 80.51993 80.51993 71.72869
#
# Poissons Ratio (x) = 0.09873 0.19074
# Poissons Ratio (y) = 0.09873 0.19074
# Poissons Ratio (z) = 0.21411 0.21411
#
# Static dielectric constant tensor:
#      x y z
#    x 1.806590 0.000000 0.000000 
#    y 0.000000 1.806590 0.000000 
#    z 0.000000 0.000000 1.762020 
# 
# From -- ./inp_files/2110.got.cif
#   From: 2010.05.17/outbox.cif.g08.bks.cpg/sg114_2_cif.got.tgz:2110.got - 2010.05.20 11:04:54.
