data_PCOD9555669
_publ_section_title
;
Structure prediction by ZEFSAII (Michael W. Deem and Ramdas Pophale) SiO2 
 PCOD9555669
Probable space group: P -4 21 M 
;
_chemical_formula_sum "Si O2"
_cell_formula_units_Z 34
_cell_length_a 11.352409
_cell_length_b 11.352409
_cell_length_c 13.324849
_cell_angle_alpha 90.000000
_cell_angle_beta 90.000000
_cell_angle_gamma 90.000000
_cell_volume 1717.269098
_symmetry_space_group_name_H-M "P -4 21 M "
_symmetry_group_IT_number 113
_symmetry_cell_setting 'tetragonal'
loop_
_space_group_symop_operation_xyz
x,y,z
y,-x,-z
-x,-y,z
-y,x,-z
1/2+x,1/2-y,-z
1/2-x,1/2+y,-z
1/2-y,1/2-x,z
1/2+y,1/2+x,z
loop_
_atom_site_type_symbol
_atom_site_label
_atom_site_fract_x
_atom_site_fract_y
_atom_site_fract_z
Si Si1 0.349007 0.339949 0.852034
Si Si2 0.266015 0.045634 0.268951
Si Si3 0.500000 0.500000 0.000000
Si Si4 0.002768 0.693774 0.500967
Si Si5 0.860970 0.027061 0.682081
O O1 0.268918 0.231083 0.886372
O O2 0.264912 0.442417 0.807328
O O3 0.434115 0.305484 0.759321
O O4 0.432086 0.403682 0.932844
O O5 0.386393 0.113608 0.247750
O O6 0.272132 0.995564 0.382383
O O7 0.158394 0.138766 0.273043
O O8 0.128530 0.628530 0.487031
O O9 0.902491 0.597510 0.480028
O O10 0.984329 0.799940 0.424964
O O11 0.000000 0.000000 0.675256
#
# Coordination Sequence:
#
# PCOD9555669 Si02
#       5
#     8   8   2   8   8
#     4  11  24  44  70  92 123 162 206 265 325 386
#     4  10  21  37  60  92 130 170 212 254 306 372
#     4  12  24  52  64 102 124 156 212 272 340 394
#     4  10  21  35  54  87 131 173 214 254 296 360
#     4  10  21  37  58  89 124 164 210 251 310 373
#
# _framework density 19.798874999999999
#
# number of rings (size 3 to 8) (size 9 to 14) (size 15 to 20)
#    0.000    1.647    3.529    2.118    6.588    2.353 
#    0.000    0.000    0.000    2.824    0.000    0.000 
#    0.000    0.000    0.000    0.000    0.000    0.000 
#
# Total GULP energy -189974.763684 kJ/mol
# GULP energy per Si atom -5587.493050 kJ/mol
# Density = 1.975381 g / cm^3
# Si number density = 19.798875 Si / 1000 Ang^3
#
#
#
# Elastic Constant Matrix: (Units=GPa)
#
#
# Indices 1 2 3 4 5 6 
#
# 1 43.5157 32.6994 15.8098 0.0000 0.0000 0.0000
# 2 32.6994 43.5234 15.8122 0.0000 0.0000 0.0000
# 3 15.8098 15.8122 42.6718 0.0000 0.0000 0.0000
# 4 0.0000 0.0000 0.0000 7.4831 0.0000 0.0000
# 5 0.0000 0.0000 0.0000 0.0000 7.4753 0.0000
# 6 0.0000 0.0000 0.0000 0.0000 0.0000 39.2527
#
#
#
# Elastic Compliance Matrix: (Units=1/GPa)
#
#
# Indices 1 2 3 4 5 6 
#
# 1 0.053966 -0.038459 -0.005743 0.000000 0.000000 0.000000
# 2 -0.038459 0.053958 -0.005745 0.000000 0.000000 0.000000
# 3 -0.005743 -0.005745 0.027692 0.000000 0.000000 0.000000
# 4 0.000000 0.000000 0.000000 0.133635 0.000000 0.000000
# 5 0.000000 0.000000 0.000000 0.000000 0.133773 0.000000
# 6 0.000000 0.000000 0.000000 0.000000 0.000000 0.025476
#
#
# Mechanical properties :
#
#
# Convention : Reuss Voigt Hill
#
# Bulk Modulus (GPa) = 27.99497 28.70598 28.35048
# Shear Modulus (GPa) = 9.25409 15.20151 12.22780
#
# Velocity S-wave (km/s) = 2.16430 2.77392 2.48785
# Velocity P-wave (km/s) = 4.51840 4.97893 4.75425
#
# Compressibility (1/GPa) = 0.03572070
#
# Stress axis : x y z
#
# Youngs Moduli (GPa) = 18.53011 18.53304 36.11202
#
# Poissons Ratio (x) = 0.71275 0.20741
# Poissons Ratio (y) = 0.71264 0.20748
# Poissons Ratio (z) = 0.10643 0.10648
#
# Static dielectric constant tensor:
#      x y z
#    x 1.734910 0.000000 0.000000 
#    y 0.000000 1.734910 0.000000 
#    z 0.000000 0.000000 1.673460 
# 
# From -- ./inp_files/1575.got.cif
#   From: 2010.05.17/outbox.cif.g08.bks.cpg/sg113_cif.got.tgz:1575.got - 2010.05.20 11:03:00.
