data_PCOD9555893
_publ_section_title
;
Structure prediction by ZEFSAII (Michael W. Deem and Ramdas Pophale) SiO2 
 PCOD9555893
Probable space group: P -4 21 C
;
_chemical_formula_sum "Si O2"
_cell_formula_units_Z 40
_cell_length_a 9.962301
_cell_length_b 9.962301
_cell_length_c 23.732472
_cell_angle_alpha 90.000000
_cell_angle_beta 90.000000
_cell_angle_gamma 90.000000
_cell_volume 2355.387120
_symmetry_space_group_name_H-M "P -4 21 C"
_symmetry_group_IT_number 114
_symmetry_cell_setting 'tetragonal'
loop_
_space_group_symop_operation_xyz
x,y,z
y,-x,-z
-x,-y,z
-y,x,-z
1/2+x,1/2-y,1/2-z
1/2-x,1/2+y,1/2-z
1/2-y,1/2-x,1/2+z
1/2+y,1/2+x,1/2+z
loop_
_atom_site_type_symbol
_atom_site_label
_atom_site_fract_x
_atom_site_fract_y
_atom_site_fract_z
Si Si1 0.500000 0.160515 0.191952
Si Si2 0.265420 0.338313 0.376750
Si Si3 0.338313 0.265420 0.623250
Si Si4 1.000000 0.664002 0.177051
Si Si5 0.656867 0.656867 0.500000
O O1 0.630861 0.196023 0.156595
O O2 0.369139 0.196023 0.156595
O O3 0.500000 0.204226 0.256775
O O4 0.500000 0.000000 0.195098
O O5 0.296530 0.500000 0.369061
O O6 0.375020 0.237441 0.352069
O O7 0.258057 0.317651 0.444073
O O8 0.237441 0.375020 0.647931
O O9 0.317651 0.258057 0.555927
O O10 0.000000 0.500000 0.171858
O O11 0.673633 0.500000 0.516231
#
# Coordination Sequence:
#
# PCOD9555893 Si02
#       5
#     8   8   8   8   8
#     4   9  20  35  55  81 111 141 180 223 271 334
#     4  10  19  36  56  81 106 145 182 224 272 316
#     4  10  19  36  56  81 106 145 182 224 272 316
#     4  11  21  35  53  83 113 139 182 227 267 318
#     4   9  16  30  54  80 105 128 184 231 258 306
#
# _framework density 16.982348000000002
#
# number of rings (size 3 to 8) (size 9 to 14) (size 15 to 20)
#    0.000    2.200    2.000    1.800    0.000    0.000 
#    3.600    3.000    0.000    0.000    0.000    0.000 
#    0.000    0.000    0.000    0.000    0.000    0.000 
#
# Total GULP energy -222741.702776 kJ/mol
# GULP energy per Si atom -5568.542569 kJ/mol
# Density = 1.694370 g / cm^3
# Si number density = 16.982348 Si / 1000 Ang^3
#
#
#
# Elastic Constant Matrix: (Units=GPa)
#
#
# Indices 1 2 3 4 5 6 
#
# 1 77.5437 49.8988 47.4613 0.0000 0.0000 0.0000
# 2 49.8988 77.5437 47.4613 0.0000 0.0000 0.0000
# 3 47.4613 47.4613 135.6047 0.0000 0.0000 0.0000
# 4 0.0000 0.0000 0.0000 20.2417 0.0000 0.0000
# 5 0.0000 0.0000 0.0000 0.0000 20.2417 0.0000
# 6 0.0000 0.0000 0.0000 0.0000 0.0000 7.7321
#
#
#
# Elastic Compliance Matrix: (Units=1/GPa)
#
#
# Indices 1 2 3 4 5 6 
#
# 1 0.023393 -0.012780 -0.003715 0.000000 0.000000 0.000000
# 2 -0.012780 0.023393 -0.003715 0.000000 0.000000 0.000000
# 3 -0.003715 -0.003715 0.009975 0.000000 0.000000 0.000000
# 4 0.000000 0.000000 0.000000 0.049403 0.000000 0.000000
# 5 0.000000 0.000000 0.000000 0.000000 0.049403 0.000000
# 6 0.000000 0.000000 0.000000 0.000000 0.000000 0.129330
#
#
# Mechanical properties :
#
#
# Convention : Reuss Voigt Hill
#
# Bulk Modulus (GPa) = 61.18889 64.48164 62.83527
# Shear Modulus (GPa) = 15.11655 19.36783 17.24219
#
# Velocity S-wave (km/s) = 2.98675 3.38075 3.18984
# Velocity P-wave (km/s) = 6.92844 7.30010 7.11670
#
# Compressibility (1/GPa) = 0.01634284
#
# Stress axis : x y z
#
# Youngs Moduli (GPa) = 42.74735 42.74735 100.25430
#
# Poissons Ratio (x) = 0.54630 0.37241
# Poissons Ratio (y) = 0.54630 0.37241
# Poissons Ratio (z) = 0.15879 0.15879
#
# Static dielectric constant tensor:
#      x y z
#    x 1.365850 0.000000 0.000000 
#    y 0.000000 1.365850 0.000000 
#    z 0.000000 0.000000 1.588210 
# 
# From -- ./inp_files/3348.got.cif
#   From: 2010.05.17/outbox.cif.g08.bks.cpg/sg114_2_cif.got.tgz:3348.got - 2010.05.20 11:04:54.
