data_PCOD9555021
_publ_section_title
;
Structure prediction by ZEFSAII (Michael W. Deem and Ramdas Pophale) SiO2 
 PCOD9555021
Probable space group: P -4 2 C
;
_chemical_formula_sum "Si O2"
_cell_formula_units_Z 34
_cell_length_a 12.378606
_cell_length_b 12.378606
_cell_length_c 14.120883
_cell_angle_alpha 90.000000
_cell_angle_beta 90.000000
_cell_angle_gamma 90.000000
_cell_volume 2163.741299
_symmetry_space_group_name_H-M "P -4 2 C"
_symmetry_group_IT_number 112
_symmetry_cell_setting 'tetragonal'
loop_
_space_group_symop_operation_xyz
x,y,z
y,-x,-z
-x,-y,z
-y,x,-z
x,-y,1/2-z
-x,y,1/2-z
-y,-x,1/2+z
y,x,1/2+z
loop_
_atom_site_type_symbol
_atom_site_label
_atom_site_fract_x
_atom_site_fract_y
_atom_site_fract_z
Si Si1 0.169789 0.611931 0.873207
Si Si2 0.369816 0.198773 0.347516
Si Si3 0.366787 0.607766 0.013687
Si Si4 0.000000 0.000000 0.000000
Si Si5 0.012075 0.792424 0.637152
O O1 0.208487 0.627899 0.765370
O O2 0.142546 0.483632 0.877967
O O3 0.074933 0.698381 0.886211
O O4 0.266054 0.631047 0.946439
O O5 0.365375 0.314363 0.396707
O O6 0.267445 0.126670 0.375204
O O7 0.480909 0.631717 0.962347
O O8 0.894958 0.999898 0.068731
O O9 0.000000 0.819488 0.750000
#
# Coordination Sequence:
#
# PCOD9555021 Si02
#       5
#     8   8   8   2   8
#     4   9  17  30  48  67  88 116 149 184 217 251
#     4   9  17  30  48  67  88 116 149 184 217 251
#     4   9  17  28  43  67  96 120 144 175 215 264
#     4  12  22  32  48  66  92 120 138 176 232 274
#     4  10  20  33  48  67  88 113 149 185 219 262
#
# _framework density 15.713521999999999
#
# number of rings (size 3 to 8) (size 9 to 14) (size 15 to 20)
#    0.000    2.588    0.000    2.471    0.000    3.765 
#    0.000    4.706    0.000    0.000    0.000    0.000 
#    0.000   33.882    0.000    0.000    0.000    0.000 
#
# Total GULP energy -189327.883862 kJ/mol
# GULP energy per Si atom -5568.467172 kJ/mol
# Density = 1.567776 g / cm^3
# Si number density = 15.713522 Si / 1000 Ang^3
#
#
#
# Elastic Constant Matrix: (Units=GPa)
#
#
# Indices 1 2 3 4 5 6 
#
# 1 38.5001 -1.1519 17.7707 0.0000 0.0000 0.0000
# 2 -1.1519 38.5001 17.7707 0.0000 0.0000 0.0000
# 3 17.7707 17.7707 31.9911 0.0000 0.0000 0.0000
# 4 0.0000 0.0000 0.0000 22.0368 0.0000 0.0000
# 5 0.0000 0.0000 0.0000 0.0000 22.0368 0.0000
# 6 0.0000 0.0000 0.0000 0.0000 0.0000 17.9932
#
#
#
# Elastic Compliance Matrix: (Units=1/GPa)
#
#
# Indices 1 2 3 4 5 6 
#
# 1 0.041010 0.015791 -0.031552 0.000000 0.000000 0.000000
# 2 0.015791 0.041010 -0.031552 0.000000 0.000000 0.000000
# 3 -0.031552 -0.031552 0.066313 0.000000 0.000000 0.000000
# 4 0.000000 0.000000 0.000000 0.045379 0.000000 0.000000
# 5 0.000000 0.000000 0.000000 0.000000 0.045379 0.000000
# 6 0.000000 0.000000 0.000000 0.000000 0.000000 0.055576
#
#
# Mechanical properties :
#
#
# Convention : Reuss Voigt Hill
#
# Bulk Modulus (GPa) = 18.62014 19.75228 19.18621
# Shear Modulus (GPa) = 12.27907 17.38681 14.83294
#
# Velocity S-wave (km/s) = 2.79845 3.33000 3.07573
# Velocity P-wave (km/s) = 4.72411 5.23285 4.98497
#
# Compressibility (1/GPa) = 0.05370528
#
# Stress axis : x y z
#
# Youngs Moduli (GPa) = 24.38414 24.38414 15.08005
#
# Poissons Ratio (x) = -0.38505 0.47581
# Poissons Ratio (y) = -0.38505 0.47581
# Poissons Ratio (z) = 0.76938 0.76938
#
# Static dielectric constant tensor:
#      x y z
#    x 1.526940 0.000000 0.000000 
#    y 0.000000 1.526940 0.000000 
#    z 0.000000 0.000000 1.492240 
# 
# From -- ./inp_files/2280.got.cif
#   From: 2010.05.17/outbox.cif.g08.bks.cpg/sg112_2_cif.got.tgz:2280.got - 2010.05.20 10:59:04.
