data_PCOD9555906
_publ_section_title
;
Structure prediction by ZEFSAII (Michael W. Deem and Ramdas Pophale) SiO2 
 PCOD9555906
Probable space group: P -4 21 C
;
_chemical_formula_sum "Si O2"
_cell_formula_units_Z 48
_cell_length_a 7.952333
_cell_length_b 7.952333
_cell_length_c 30.512473
_cell_angle_alpha 90.000000
_cell_angle_beta 90.000000
_cell_angle_gamma 90.000000
_cell_volume 1929.596592
_symmetry_space_group_name_H-M "P -4 21 C"
_symmetry_group_IT_number 114
_symmetry_cell_setting 'tetragonal'
loop_
_space_group_symop_operation_xyz
x,y,z
y,-x,-z
-x,-y,z
-y,x,-z
1/2+x,1/2-y,1/2-z
1/2-x,1/2+y,1/2-z
1/2-y,1/2-x,1/2+z
1/2+y,1/2+x,1/2+z
loop_
_atom_site_type_symbol
_atom_site_label
_atom_site_fract_x
_atom_site_fract_y
_atom_site_fract_z
Si Si1 0.819954 0.587350 0.231796
Si Si2 0.462464 0.302971 0.853961
Si Si3 0.715245 0.792522 0.099707
Si Si4 0.698189 0.653438 0.935645
Si Si5 0.379321 0.840498 0.974014
Si Si6 0.050978 0.812766 0.816571
O O1 0.721172 0.467505 0.197517
O O2 0.813038 0.773438 0.211132
O O3 0.754113 0.581495 0.281173
O O4 0.000000 0.500000 0.232801
O O5 0.500000 0.500000 0.861228
O O6 0.629553 0.217481 0.873065
O O7 0.317456 0.254451 0.888267
O O8 0.531202 0.762627 0.079345
O O9 0.836172 0.781042 0.057987
O O10 0.712934 0.929000 0.138002
O O11 0.512095 0.692385 0.957570
O O12 0.814974 0.687401 0.977012
O O13 0.500000 0.000000 0.971072
O O14 0.000000 0.000000 0.828498
#
# Coordination Sequence:
#
# PCOD9555906 Si02
#       6
#     8   8   8   8   8   8
#     4  11  23  41  66  99 136 189 242 283 362 438
#     4   8  17  32  60  95 126 170 232 290 335 405
#     4   9  20  37  64  98 129 180 233 287 357 416
#     4  10  19  37  67  94 138 180 241 293 341 428
#     4  11  21  36  66 102 135 183 235 297 357 427
#     4  11  24  45  70 100 144 184 237 307 365 441
#
# _framework density 24.875665000000001
#
# number of rings (size 3 to 8) (size 9 to 14) (size 15 to 20)
#    0.000    2.000    1.667    3.000    0.000    8.667 
#    0.000    7.500    0.000    0.000    0.000    0.000 
#    0.000    0.000    0.000    0.000    0.000    0.000 
#
# Total GULP energy -267409.839394 kJ/mol
# GULP energy per Si atom -5571.038321 kJ/mol
# Density = 2.481905 g / cm^3
# Si number density = 24.875665 Si / 1000 Ang^3
#
#
#
# Elastic Constant Matrix: (Units=GPa)
#
#
# Indices 1 2 3 4 5 6 
#
# 1 64.1321 0.3578 31.9084 0.0000 0.0000 0.0000
# 2 0.3578 64.1321 31.9084 0.0000 0.0000 0.0000
# 3 31.9084 31.9084 179.4467 0.0000 0.0000 0.0000
# 4 0.0000 0.0000 0.0000 -77.1103 0.0000 0.0000
# 5 0.0000 0.0000 0.0000 0.0000 -77.1103 0.0000
# 6 0.0000 0.0000 0.0000 0.0000 0.0000 13.9269
#
#
#
# Elastic Compliance Matrix: (Units=1/GPa)
#
#
# Indices 1 2 3 4 5 6 
#
# 1 0.017249 0.001569 -0.003346 0.000000 0.000000 0.000000
# 2 0.001569 0.017249 -0.003346 0.000000 0.000000 0.000000
# 3 -0.003346 -0.003346 0.006763 0.000000 0.000000 0.000000
# 4 0.000000 0.000000 0.000000 -0.012968 0.000000 0.000000
# 5 0.000000 0.000000 0.000000 0.000000 -0.012968 0.000000
# 6 0.000000 0.000000 0.000000 0.000000 0.000000 0.071803
#
#
# Mechanical properties :
#
#
# Convention : Reuss Voigt Hill
#
# Bulk Modulus (GPa) = 32.24418 48.45110 40.34764
# Shear Modulus (GPa) = 46.42021 -11.82298 17.29861
#
# Velocity S-wave (km/s) = 4.32451 -2.18246 2.63991
# Velocity P-wave (km/s) = 6.15837 3.62887 5.05441
#
# Compressibility (1/GPa) = 0.03101335
#
# Stress axis : x y z
#
# Youngs Moduli (GPa) = 57.97485 57.97485 147.87139
#
# Poissons Ratio (x) = -0.09094 0.49478
# Poissons Ratio (y) = -0.09094 0.49478
# Poissons Ratio (z) = 0.19399 0.19399
#
# Static dielectric constant tensor:
#      x y z
#    x 2.164750 0.000000 0.000000 
#    y 0.000000 2.164750 0.000000 
#    z 0.000000 0.000000 2.095160 
# 
# From -- ./inp_files/3943.got.cif
#   From: 2010.05.17/outbox.cif.g08.bks.cpg/sg114_2_cif.got.tgz:3943.got - 2010.05.20 11:04:54.
