data_PCOD9555828
_publ_section_title
;
Structure prediction by ZEFSAII (Michael W. Deem and Ramdas Pophale) SiO2 
 PCOD9555828
Probable space group: P -4 21 C
;
_chemical_formula_sum "Si O2"
_cell_formula_units_Z 56
_cell_length_a 15.018238
_cell_length_b 15.018238
_cell_length_c 9.589776
_cell_angle_alpha 90.000000
_cell_angle_beta 90.000000
_cell_angle_gamma 90.000000
_cell_volume 2162.949740
_symmetry_space_group_name_H-M "P -4 21 C"
_symmetry_group_IT_number 114
_symmetry_cell_setting 'tetragonal'
loop_
_space_group_symop_operation_xyz
x,y,z
y,-x,-z
-x,-y,z
-y,x,-z
1/2+x,1/2-y,1/2-z
1/2-x,1/2+y,1/2-z
1/2-y,1/2-x,1/2+z
1/2+y,1/2+x,1/2+z
loop_
_atom_site_type_symbol
_atom_site_label
_atom_site_fract_x
_atom_site_fract_y
_atom_site_fract_z
Si Si1 0.397106 0.109195 0.990846
Si Si2 0.809632 0.155035 0.777275
Si Si3 0.904402 0.109736 0.036434
Si Si4 0.713482 0.651793 0.221842
Si Si5 0.398355 0.397975 0.973973
Si Si6 0.617961 0.032011 0.237674
Si Si7 0.307098 0.022528 0.742150
O O1 0.388474 0.029146 0.101422
O O2 0.479986 0.112013 0.884189
O O3 0.319453 0.086254 0.877442
O O4 0.417325 0.190503 0.100637
O O5 0.742925 0.235025 0.748142
O O6 0.763199 0.057972 0.758624
O O7 0.843353 0.165788 0.932998
O O8 0.892909 0.151105 0.673745
O O9 0.006967 0.118796 0.997272
O O10 0.875823 0.133362 0.191511
O O11 0.684528 0.637672 0.063026
O O12 0.787165 0.579879 0.264732
O O13 0.896557 0.538716 0.765673
O O14 0.386465 0.504302 0.961954
#
# Coordination Sequence:
#
# PCOD9555828 Si02
#       7
#     8   8   8   8   8   8   8
#     4  10  17  28  48  76 120 168 222 260 292 380
#     4  11  23  41  70 102 137 175 223 287 354 411
#     4  11  24  45  75 101 131 178 237 291 336 405
#     4  11  23  41  70 102 137 175 223 287 354 411
#     4  11  24  45  75 101 131 178 237 291 336 405
#     4  10  18  29  51  82 118 169 213 253 312 386
#     4  10  18  29  51  82 118 169 213 253 312 386
#
# _framework density 25.890571000000001
#
# number of rings (size 3 to 8) (size 9 to 14) (size 15 to 20)
#    0.000    1.429    0.000    7.714    0.000    6.857 
#    0.000    0.000   62.857    0.000    0.000    0.000 
#    0.000    0.000    0.000    0.000    0.000    0.000 
#
# Total GULP energy -313596.078154 kJ/mol
# GULP energy per Si atom -5599.929967 kJ/mol
# Density = 2.583164 g / cm^3
# Si number density = 25.890571 Si / 1000 Ang^3
#
#
#
# Elastic Constant Matrix: (Units=GPa)
#
#
# Indices 1 2 3 4 5 6 
#
# 1 93.9820 40.2193 24.2347 0.0000 0.0000 0.0000
# 2 40.2193 93.9820 24.2347 0.0000 0.0000 0.0000
# 3 24.2347 24.2347 131.8710 0.0000 0.0000 0.0000
# 4 0.0000 0.0000 0.0000 30.0592 0.0000 0.0000
# 5 0.0000 0.0000 0.0000 0.0000 30.0592 0.0000
# 6 0.0000 0.0000 0.0000 0.0000 0.0000 33.0772
#
#
#
# Elastic Compliance Matrix: (Units=1/GPa)
#
#
# Indices 1 2 3 4 5 6 
#
# 1 0.013291 -0.005309 -0.001467 0.000000 0.000000 0.000000
# 2 -0.005309 0.013291 -0.001467 0.000000 0.000000 0.000000
# 3 -0.001467 -0.001467 0.008122 0.000000 0.000000 0.000000
# 4 0.000000 0.000000 0.000000 0.033268 0.000000 0.000000
# 5 0.000000 0.000000 0.000000 0.000000 0.033268 0.000000
# 6 0.000000 0.000000 0.000000 0.000000 0.000000 0.030232
#
#
# Mechanical properties :
#
#
# Convention : Reuss Voigt Hill
#
# Bulk Modulus (GPa) = 54.89158 55.24581 55.06869
# Shear Modulus (GPa) = 32.46121 34.04889 33.25505
#
# Velocity S-wave (km/s) = 3.54472 3.63038 3.58781
# Velocity P-wave (km/s) = 6.16448 6.24158 6.20315
#
# Compressibility (1/GPa) = 0.01821773
#
# Stress axis : x y z
#
# Youngs Moduli (GPa) = 75.24037 75.24037 123.11815
#
# Poissons Ratio (x) = 0.39949 0.18058
# Poissons Ratio (y) = 0.39949 0.18058
# Poissons Ratio (z) = 0.11036 0.11036
#
# Static dielectric constant tensor:
#      x y z
#    x 2.035240 0.000000 0.000000 
#    y 0.000000 2.035240 0.000000 
#    z 0.000000 0.000000 1.944620 
# 
# From -- ./inp_files/1072.got.cif
#   From: 2010.05.17/outbox.cif.g08.bks.cpg/sg114_1_cif.got.tgz:1072.got - 2010.05.20 11:04:54.
