data_PCOD9555925
_publ_section_title
;
Structure prediction by ZEFSAII (Michael W. Deem and Ramdas Pophale) SiO2 
 PCOD9555925
Probable space group: P -4 21 C
;
_chemical_formula_sum "Si O2"
_cell_formula_units_Z 48
_cell_length_a 14.189651
_cell_length_b 14.189651
_cell_length_c 8.863815
_cell_angle_alpha 90.000000
_cell_angle_beta 90.000000
_cell_angle_gamma 90.000000
_cell_volume 1784.695428
_symmetry_space_group_name_H-M "P -4 21 C"
_symmetry_group_IT_number 114
_symmetry_cell_setting 'tetragonal'
loop_
_space_group_symop_operation_xyz
x,y,z
y,-x,-z
-x,-y,z
-y,x,-z
1/2+x,1/2-y,1/2-z
1/2-x,1/2+y,1/2-z
1/2-y,1/2-x,1/2+z
1/2+y,1/2+x,1/2+z
loop_
_atom_site_type_symbol
_atom_site_label
_atom_site_fract_x
_atom_site_fract_y
_atom_site_fract_z
Si Si1 0.500000 0.000000 0.187132
Si Si2 0.500000 0.500000 0.500000
Si Si3 0.135325 0.837487 0.376825
Si Si4 0.983526 0.205221 0.889507
Si Si5 0.500000 0.500000 0.000000
Si Si6 0.949909 0.629927 0.052553
Si Si7 0.205406 0.526902 0.067641
Si Si8 0.761508 0.303878 0.570469
O O1 0.589493 0.985361 0.082474
O O2 0.516291 0.091035 0.288764
O O3 0.499197 0.405213 0.595753
O O4 0.239046 0.998864 0.280256
O O5 0.214813 0.799940 0.499669
O O6 0.051367 0.764222 0.419142
O O7 0.077967 0.933890 0.414159
O O8 0.876690 0.226840 0.942978
O O9 0.193648 0.178572 0.785390
O O10 0.861443 0.560366 0.035376
O O11 0.950407 0.738867 0.011589
O O12 0.166910 0.630991 0.112444
#
# Coordination Sequence:
#
# PCOD9555925 Si02
#       8
#     4   2   8   8   2   8   8   8
#     4  10  20  32  72 120 176 180 244 322 442 508
#     4  12  36  62  76 110 160 246 292 354 436 514
#     4  10  25  44  84 116 171 220 281 352 433 528
#     4  12  26  50  79 111 166 215 278 345 420 516
#     4  12  28  58  84 134 176 234 292 386 456 526
#     4  11  22  35  72 120 158 202 248 339 420 507
#     4  10  22  44  76 121 160 207 269 347 425 515
#     4  10  21  46  78 117 158 222 273 347 420 529
#
# _framework density 26.895346
#
# number of rings (size 3 to 8) (size 9 to 14) (size 15 to 20)
#    1.000    0.333    3.333    2.000    4.667    4.000 
#    3.000    1.667    0.000    0.000    0.000    0.000 
#    0.000    0.000    0.000    0.000    0.000    0.000 
#
# Total GULP energy -267893.879869 kJ/mol
# GULP energy per Si atom -5581.122497 kJ/mol
# Density = 2.683413 g / cm^3
# Si number density = 26.895346 Si / 1000 Ang^3
#
#
#
# Elastic Constant Matrix: (Units=GPa)
#
#
# Indices 1 2 3 4 5 6 
#
# 1 159.5411 68.7060 62.3481 0.0000 0.0000 0.0000
# 2 68.7060 159.5411 62.3481 0.0000 0.0000 0.0000
# 3 62.3481 62.3481 166.4095 0.0000 0.0000 0.0000
# 4 0.0000 0.0000 0.0000 13.2605 0.0000 0.0000
# 5 0.0000 0.0000 0.0000 0.0000 13.2605 0.0000
# 6 0.0000 0.0000 0.0000 0.0000 0.0000 62.6905
#
#
#
# Elastic Compliance Matrix: (Units=1/GPa)
#
#
# Indices 1 2 3 4 5 6 
#
# 1 0.008259 -0.002750 -0.002064 0.000000 0.000000 0.000000
# 2 -0.002750 0.008259 -0.002064 0.000000 0.000000 0.000000
# 3 -0.002064 -0.002064 0.007556 0.000000 0.000000 0.000000
# 4 0.000000 0.000000 0.000000 0.075412 0.000000 0.000000
# 5 0.000000 0.000000 0.000000 0.000000 0.075412 0.000000
# 6 0.000000 0.000000 0.000000 0.000000 0.000000 0.015951
#
#
# Mechanical properties :
#
#
# Convention : Reuss Voigt Hill
#
# Bulk Modulus (GPa) = 96.92161 96.92180 96.92170
# Shear Modulus (GPa) = 24.03336 37.31495 30.67416
#
# Velocity S-wave (km/s) = 2.99254 3.72884 3.38079
# Velocity P-wave (km/s) = 6.93218 7.39283 7.16621
#
# Compressibility (1/GPa) = 0.01031762
#
# Stress axis : x y z
#
# Youngs Moduli (GPa) = 121.08183 121.08183 132.34746
#
# Poissons Ratio (x) = 0.33298 0.27316
# Poissons Ratio (y) = 0.33298 0.27316
# Poissons Ratio (z) = 0.24991 0.24991
#
# Static dielectric constant tensor:
#      x y z
#    x 2.285790 0.000000 0.000000 
#    y 0.000000 2.285790 0.000000 
#    z 0.000000 0.000000 2.068500 
# 
# From -- ./inp_files/1716.got.cif
#   From: 2010.05.17/outbox.cif.g08.bks.cpg/sg114_1_cif.got.tgz:1716.got - 2010.05.20 11:04:54.
