data_PCOD9555709
_publ_section_title
;
Structure prediction by ZEFSAII (Michael W. Deem and Ramdas Pophale) SiO2 
 PCOD9555709
Probable space group: P -4 21 M 
;
_chemical_formula_sum "Si O2"
_cell_formula_units_Z 40
_cell_length_a 14.628830
_cell_length_b 14.628830
_cell_length_c 9.614562
_cell_angle_alpha 90.000000
_cell_angle_beta 90.000000
_cell_angle_gamma 90.000000
_cell_volume 2057.541912
_symmetry_space_group_name_H-M "P -4 21 M "
_symmetry_group_IT_number 113
_symmetry_cell_setting 'tetragonal'
loop_
_space_group_symop_operation_xyz
x,y,z
y,-x,-z
-x,-y,z
-y,x,-z
1/2+x,1/2-y,-z
1/2-x,1/2+y,-z
1/2-y,1/2-x,z
1/2+y,1/2+x,z
loop_
_atom_site_type_symbol
_atom_site_label
_atom_site_fract_x
_atom_site_fract_y
_atom_site_fract_z
Si Si1 0.643295 0.298783 0.050728
Si Si2 0.421511 0.078490 0.403561
Si Si3 0.529035 0.361557 0.544038
Si Si4 0.422195 0.077806 0.731744
Si Si5 0.517113 0.723854 0.837719
Si Si6 0.437877 0.783192 0.323536
O O1 0.727438 0.227438 0.046609
O O2 0.681321 0.400509 0.072348
O O3 0.582552 0.274560 0.186638
O O4 0.577668 0.284815 0.919740
O O5 0.404323 0.095677 0.567205
O O6 0.464308 0.166759 0.330475
O O7 0.500000 0.000000 0.398815
O O8 0.444256 0.399345 0.452884
O O9 0.493060 0.330805 0.693142
O O10 0.571235 0.277393 0.460942
O O11 0.457118 0.171567 0.800765
O O12 0.500000 0.000000 0.742730
O O13 0.361987 0.861987 0.326535
#
# Coordination Sequence:
#
# PCOD9555709 Si02
#       6
#     8   4   8   4   8   8
#     4  11  26  45  65 100 139 180 226 275 340 412
#     4   9  18  35  67 101 129 165 215 271 334 381
#     4  11  24  41  65  96 129 174 226 273 331 401
#     4  11  22  41  71 101 129 174 225 283 338 394
#     4  12  25  43  71  95 138 181 224 279 341 407
#     4  10  21  41  66  95 132 168 215 275 330 395
#
# _framework density 19.440671999999999
#
# number of rings (size 3 to 8) (size 9 to 14) (size 15 to 20)
#    0.000    1.200    5.000    0.600    2.800    2.000 
#    1.800    2.000    0.000    0.000    0.000    0.000 
#    0.000    0.000    0.000    0.000    0.000    0.000 
#
# Total GULP energy -223469.429430 kJ/mol
# GULP energy per Si atom -5586.735736 kJ/mol
# Density = 1.939642 g / cm^3
# Si number density = 19.440672 Si / 1000 Ang^3
#
#
#
# Elastic Constant Matrix: (Units=GPa)
#
#
# Indices 1 2 3 4 5 6 
#
# 1 47.9283 24.5768 28.1914 0.0000 0.0000 0.0000
# 2 24.5768 47.9279 28.1914 0.0000 0.0000 0.0000
# 3 28.1914 28.1914 43.5905 0.0000 0.0000 0.0000
# 4 0.0000 0.0000 0.0000 32.6392 0.0000 0.0000
# 5 0.0000 0.0000 0.0000 0.0000 32.6391 0.0000
# 6 0.0000 0.0000 0.0000 0.0000 0.0000 20.6540
#
#
#
# Elastic Compliance Matrix: (Units=1/GPa)
#
#
# Indices 1 2 3 4 5 6 
#
# 1 0.035285 -0.007539 -0.017945 0.000000 0.000000 0.000000
# 2 -0.007539 0.035286 -0.017945 0.000000 0.000000 0.000000
# 3 -0.017945 -0.017945 0.046152 0.000000 0.000000 0.000000
# 4 0.000000 0.000000 0.000000 0.030638 0.000000 0.000000
# 5 0.000000 0.000000 0.000000 0.000000 0.030638 0.000000
# 6 0.000000 0.000000 0.000000 0.000000 0.000000 0.048417
#
#
# Mechanical properties :
#
#
# Convention : Reuss Voigt Hill
#
# Bulk Modulus (GPa) = 33.48262 33.48510 33.48386
# Shear Modulus (GPa) = 15.46900 21.08561 18.27730
#
# Velocity S-wave (km/s) = 2.82388 3.29692 3.06953
# Velocity P-wave (km/s) = 5.28136 5.63512 5.46110
#
# Compressibility (1/GPa) = 0.02986624
#
# Stress axis : x y z
#
# Youngs Moduli (GPa) = 28.34049 28.34018 21.66766
#
# Poissons Ratio (x) = 0.21365 0.38882
# Poissons Ratio (y) = 0.21365 0.38882
# Poissons Ratio (z) = 0.50856 0.50856
#
# Static dielectric constant tensor:
#      x y z
#    x 1.685180 0.000000 0.000000 
#    y 0.000000 1.685180 0.000000 
#    z 0.000000 0.000000 1.649980 
# 
# From -- ./inp_files/1040.got.cif
#   From: 2010.05.17/outbox.cif.g08.bks.cpg/sg113_cif.got.tgz:1040.got - 2010.05.20 11:03:00.
