data_PCOD9555918
_publ_section_title
;
Structure prediction by ZEFSAII (Michael W. Deem and Ramdas Pophale) SiO2 
 PCOD9555918
Probable space group: P -4 21 C
;
_chemical_formula_sum "Si O2"
_cell_formula_units_Z 52
_cell_length_a 14.184806
_cell_length_b 14.184806
_cell_length_c 9.821563
_cell_angle_alpha 90.000000
_cell_angle_beta 90.000000
_cell_angle_gamma 90.000000
_cell_volume 1976.184132
_symmetry_space_group_name_H-M "P -4 21 C"
_symmetry_group_IT_number 114
_symmetry_cell_setting 'tetragonal'
loop_
_space_group_symop_operation_xyz
x,y,z
y,-x,-z
-x,-y,z
-y,x,-z
1/2+x,1/2-y,1/2-z
1/2-x,1/2+y,1/2-z
1/2-y,1/2-x,1/2+z
1/2+y,1/2+x,1/2+z
loop_
_atom_site_type_symbol
_atom_site_label
_atom_site_fract_x
_atom_site_fract_y
_atom_site_fract_z
Si Si1 0.866643 0.150923 0.888114
Si Si2 0.494562 0.220940 0.450117
Si Si3 0.227696 0.363623 0.183771
Si Si4 0.772302 0.404187 0.846279
Si Si5 0.500000 0.500000 0.000000
Si Si6 0.578799 0.123433 0.081216
Si Si7 0.000000 0.000000 0.000000
Si Si8 0.456066 0.319201 0.866174
O O1 0.781861 0.092712 0.954863
O O2 0.865514 0.163548 0.726805
O O3 0.953357 0.079412 0.910076
O O4 0.903717 0.245083 0.961474
O O5 0.455934 0.244268 0.298730
O O6 0.531228 0.119881 0.502796
O O7 0.137444 0.355984 0.281153
O O8 0.265985 0.467291 0.226120
O O9 0.299862 0.275066 0.185520
O O10 0.202885 0.389930 0.028068
O O11 0.867586 0.467651 0.882491
O O12 0.722127 0.425084 0.990071
O O13 0.512555 0.412026 0.904880
#
# Coordination Sequence:
#
# PCOD9555918 Si02
#       8
#     8   8   8   8   2   8   2   8
#     4  10  20  30  52  81 120 165 199 236 302 368
#     4  11  21  37  54  86 125 162 201 248 302 378
#     4  11  23  41  60  89 126 168 211 261 308 375
#     4  11  24  38  58  88 121 166 212 250 316 377
#     4  12  18  28  48  86 130 164 184 238 290 408
#     4  11  23  42  61  86 129 162 210 262 311 376
#     4   8  18  28  40  78 122 160 200 234 278 396
#     4  11  21  31  53  86 128 166 200 235 303 393
#
# _framework density 26.313337000000001
#
# number of rings (size 3 to 8) (size 9 to 14) (size 15 to 20)
#    0.000    1.231    4.615    2.308    6.462    0.000 
#    0.000    0.000    0.000    0.000    0.000    8.615 
#    0.000    0.000    0.000    0.000    0.000    0.000 
#
# Total GULP energy -289555.553934 kJ/mol
# GULP energy per Si atom -5568.376037 kJ/mol
# Density = 2.625345 g / cm^3
# Si number density = 26.313337 Si / 1000 Ang^3
#
#
#
# Elastic Constant Matrix: (Units=GPa)
#
#
# Indices 1 2 3 4 5 6 
#
# 1 72.3297 27.9314 19.1065 0.0000 0.0000 0.0000
# 2 27.9314 72.3297 19.1065 0.0000 0.0000 0.0000
# 3 19.1065 19.1065 131.6809 0.0000 0.0000 0.0000
# 4 0.0000 0.0000 0.0000 24.7957 0.0000 0.0000
# 5 0.0000 0.0000 0.0000 0.0000 24.7957 0.0000
# 6 0.0000 0.0000 0.0000 0.0000 0.0000 30.0249
#
#
#
# Elastic Compliance Matrix: (Units=1/GPa)
#
#
# Indices 1 2 3 4 5 6 
#
# 1 0.016541 -0.005983 -0.001532 0.000000 0.000000 0.000000
# 2 -0.005983 0.016541 -0.001532 0.000000 0.000000 0.000000
# 3 -0.001532 -0.001532 0.008039 0.000000 0.000000 0.000000
# 4 0.000000 0.000000 0.000000 0.040330 0.000000 0.000000
# 5 0.000000 0.000000 0.000000 0.000000 0.040330 0.000000
# 6 0.000000 0.000000 0.000000 0.000000 0.000000 0.033306
#
#
# Mechanical properties :
#
#
# Convention : Reuss Voigt Hill
#
# Bulk Modulus (GPa) = 43.42787 45.40322 44.41555
# Shear Modulus (GPa) = 27.64670 29.93632 28.79151
#
# Velocity S-wave (km/s) = 3.24492 3.37662 3.31143
# Velocity P-wave (km/s) = 5.52986 5.70038 5.61577
#
# Compressibility (1/GPa) = 0.02302669
#
# Stress axis : x y z
#
# Youngs Moduli (GPa) = 60.45732 60.45732 124.39874
#
# Poissons Ratio (x) = 0.36170 0.19057
# Poissons Ratio (y) = 0.36170 0.19057
# Poissons Ratio (z) = 0.09262 0.09262
#
# Static dielectric constant tensor:
#      x y z
#    x 2.158690 0.000000 0.000000 
#    y 0.000000 2.158690 0.000000 
#    z 0.000000 0.000000 2.013810 
# 
# From -- ./inp_files/1006.got.cif
#   From: 2010.05.17/outbox.cif.g08.bks.cpg/sg114_1_cif.got.tgz:1006.got - 2010.05.20 11:04:54.
