data_PCOD9555897
_publ_section_title
;
Structure prediction by ZEFSAII (Michael W. Deem and Ramdas Pophale) SiO2 
 PCOD9555897
Probable space group: P -4 21 C
;
_chemical_formula_sum "Si O2"
_cell_formula_units_Z 48
_cell_length_a 8.639070
_cell_length_b 8.639070
_cell_length_c 30.543050
_cell_angle_alpha 90.000000
_cell_angle_beta 90.000000
_cell_angle_gamma 90.000000
_cell_volume 2279.535653
_symmetry_space_group_name_H-M "P -4 21 C"
_symmetry_group_IT_number 114
_symmetry_cell_setting 'tetragonal'
loop_
_space_group_symop_operation_xyz
x,y,z
y,-x,-z
-x,-y,z
-y,x,-z
1/2+x,1/2-y,1/2-z
1/2-x,1/2+y,1/2-z
1/2-y,1/2-x,1/2+z
1/2+y,1/2+x,1/2+z
loop_
_atom_site_type_symbol
_atom_site_label
_atom_site_fract_x
_atom_site_fract_y
_atom_site_fract_z
Si Si1 0.147199 0.211653 0.492597
Si Si2 0.699300 0.184343 0.687498
Si Si3 0.145860 0.306351 0.080979
Si Si4 0.186904 0.005163 0.762534
Si Si5 0.281037 0.152404 0.402108
Si Si6 0.097091 0.838663 0.842523
O O1 0.211003 0.329253 0.529123
O O2 0.202679 0.236731 0.443293
O O3 0.960790 0.206270 0.494557
O O4 0.734285 0.038799 0.717395
O O5 0.737767 0.330000 0.719097
O O6 0.795280 0.206673 0.643201
O O7 0.522457 0.212095 0.674264
O O8 0.230307 0.467835 0.092010
O O9 0.210841 0.175504 0.112660
O O10 0.965192 0.315984 0.094272
O O11 0.213321 0.886517 0.803325
O O12 0.000000 0.000000 0.755980
O O13 0.000000 0.000000 0.850141
#
# Coordination Sequence:
#
# PCOD9555897 Si02
#       6
#     8   8   8   8   8   8
#     4   9  20  39  58  85 121 151 191 245 300 357
#     4  10  20  40  61  84 121 158 205 247 302 359
#     4  10  19  36  61  84 118 154 199 239 299 361
#     4   9  20  39  58  86 122 157 197 256 298 360
#     4  10  20  36  59  86 115 160 195 244 298 365
#     4   9  18  37  58  82 120 153 191 248 294 348
#
# _framework density 21.056919000000001
#
# number of rings (size 3 to 8) (size 9 to 14) (size 15 to 20)
#    0.000    2.833    3.333    0.000    0.000    4.000 
#    9.000    0.000    0.000    0.000    0.000    0.000 
#    0.000    0.000    0.000    0.000    0.000    0.000 
#
# Total GULP energy -267891.212998 kJ/mol
# GULP energy per Si atom -5581.066937 kJ/mol
# Density = 2.100899 g / cm^3
# Si number density = 21.056919 Si / 1000 Ang^3
#
#
#
# Elastic Constant Matrix: (Units=GPa)
#
#
# Indices 1 2 3 4 5 6 
#
# 1 18.0164 11.7624 39.2042 0.0000 0.0000 0.0000
# 2 11.7624 18.0164 39.2042 0.0000 0.0000 0.0000
# 3 39.2042 39.2042 166.7274 0.0000 0.0000 0.0000
# 4 0.0000 0.0000 0.0000 30.2386 0.0000 0.0000
# 5 0.0000 0.0000 0.0000 0.0000 30.2386 0.0000
# 6 0.0000 0.0000 0.0000 0.0000 0.0000 14.5741
#
#
#
# Elastic Compliance Matrix: (Units=1/GPa)
#
#
# Indices 1 2 3 4 5 6 
#
# 1 0.124033 -0.035865 -0.020732 0.000000 0.000000 0.000000
# 2 -0.035865 0.124033 -0.020732 0.000000 0.000000 0.000000
# 3 -0.020732 -0.020732 0.015748 0.000000 0.000000 0.000000
# 4 0.000000 0.000000 0.000000 0.033070 0.000000 0.000000
# 5 0.000000 0.000000 0.000000 0.000000 0.033070 0.000000
# 6 0.000000 0.000000 0.000000 0.000000 0.000000 0.068615
#
#
# Mechanical properties :
#
#
# Convention : Reuss Voigt Hill
#
# Bulk Modulus (GPa) = 9.16114 42.56688 25.86401
# Shear Modulus (GPa) = 8.48014 22.51624 15.49819
#
# Velocity S-wave (km/s) = 2.00898 3.27357 2.71590
# Velocity P-wave (km/s) = 3.12112 5.87770 4.70578
#
# Compressibility (1/GPa) = 0.10915670
#
# Stress axis : x y z
#
# Youngs Moduli (GPa) = 8.06234 8.06234 63.50189
#
# Poissons Ratio (x) = 0.28916 1.31651
# Poissons Ratio (y) = 0.28916 1.31651
# Poissons Ratio (z) = 0.16715 0.16715
#
# Static dielectric constant tensor:
#      x y z
#    x 1.790920 0.000000 0.000000 
#    y 0.000000 1.790920 0.000000 
#    z 0.000000 0.000000 1.769410 
# 
# From -- ./inp_files/3938.got.cif
#   From: 2010.05.17/outbox.cif.g08.bks.cpg/sg114_2_cif.got.tgz:3938.got - 2010.05.20 11:04:54.
