data_PCOD9555345
_publ_section_title
;
Structure prediction by ZEFSAII (Michael W. Deem and Ramdas Pophale) SiO2 
 PCOD9555345
Probable space group: P -4 2 C
;
_chemical_formula_sum "Si O2"
_cell_formula_units_Z 26
_cell_length_a 8.632382
_cell_length_b 8.632382
_cell_length_c 14.812984
_cell_angle_alpha 90.000000
_cell_angle_beta 90.000000
_cell_angle_gamma 90.000000
_cell_volume 1103.834223
_symmetry_space_group_name_H-M "P -4 2 C"
_symmetry_group_IT_number 112
_symmetry_cell_setting 'tetragonal'
loop_
_space_group_symop_operation_xyz
x,y,z
y,-x,-z
-x,-y,z
-y,x,-z
x,-y,1/2-z
-x,y,1/2-z
-y,-x,1/2+z
y,x,1/2+z
loop_
_atom_site_type_symbol
_atom_site_label
_atom_site_fract_x
_atom_site_fract_y
_atom_site_fract_z
Si Si1 0.335383 0.055692 0.935841
Si Si2 0.181787 0.179417 0.772942
Si Si3 0.500000 0.500000 0.000000
Si Si4 0.713604 0.737185 0.091670
O O1 0.247319 0.183843 0.874349
O O2 0.500000 0.000000 0.895860
O O3 0.243034 0.894530 0.935907
O O4 0.362864 0.123841 0.035287
O O5 0.259179 0.289745 0.699512
O O6 0.000000 0.197266 0.750000
O O7 0.219138 0.000000 0.750000
O O8 0.633716 0.581423 0.057855
#
# Coordination Sequence:
#
# PCOD9555345 Si02
#       4
#     8   8   2   8
#     4  11  22  41  72  98 133 181 229 281 352 409
#     4   9  20  39  67 100 127 165 229 286 334 394
#     4  12  24  44  62 100 140 186 216 272 354 424
#     4  11  23  42  68  95 135 173 227 278 338 412
#
# _framework density 23.554264
#
# number of rings (size 3 to 8) (size 9 to 14) (size 15 to 20)
#    0.000    1.538    3.077    1.846    0.000    8.615 
#    0.000    3.077    0.000    0.000    0.000    0.000 
#    0.000    0.000    0.000    0.000    0.000    0.000 
#
# Total GULP energy -145064.385517 kJ/mol
# GULP energy per Si atom -5579.399443 kJ/mol
# Density = 2.350065 g / cm^3
# Si number density = 23.554264 Si / 1000 Ang^3
#
#
#
# Elastic Constant Matrix: (Units=GPa)
#
#
# Indices 1 2 3 4 5 6 
#
# 1 78.2105 15.4616 43.0633 0.0000 0.0000 0.0000
# 2 15.4616 78.2105 43.0633 0.0000 0.0000 0.0000
# 3 43.0633 43.0633 137.5722 0.0000 0.0000 0.0000
# 4 0.0000 0.0000 0.0000 26.4855 0.0000 0.0000
# 5 0.0000 0.0000 0.0000 0.0000 26.4855 0.0000
# 6 0.0000 0.0000 0.0000 0.0000 0.0000 22.2580
#
#
#
# Elastic Compliance Matrix: (Units=1/GPa)
#
#
# Indices 1 2 3 4 5 6 
#
# 1 0.015463 -0.000473 -0.004692 0.000000 0.000000 0.000000
# 2 -0.000473 0.015463 -0.004692 0.000000 0.000000 0.000000
# 3 -0.004692 -0.004692 0.010206 0.000000 0.000000 0.000000
# 4 0.000000 0.000000 0.000000 0.037756 0.000000 0.000000
# 5 0.000000 0.000000 0.000000 0.000000 0.037756 0.000000
# 6 0.000000 0.000000 0.000000 0.000000 0.000000 0.044928
#
#
# Mechanical properties :
#
#
# Convention : Reuss Voigt Hill
#
# Bulk Modulus (GPa) = 46.69121 55.24104 50.96613
# Shear Modulus (GPa) = 26.53541 27.87283 27.20412
#
# Velocity S-wave (km/s) = 3.36008 3.44371 3.40215
# Velocity P-wave (km/s) = 5.90926 6.27023 6.09242
#
# Compressibility (1/GPa) = 0.02141731
#
# Stress axis : x y z
#
# Youngs Moduli (GPa) = 64.67005 64.67005 97.97779
#
# Poissons Ratio (x) = 0.03062 0.45972
# Poissons Ratio (y) = 0.03062 0.45972
# Poissons Ratio (z) = 0.30344 0.30344
#
# Static dielectric constant tensor:
#      x y z
#    x 1.941820 0.000000 0.000000 
#    y 0.000000 1.941820 0.000000 
#    z 0.000000 0.000000 1.962650 
# 
# From -- ./inp_files/3735.got.cif
#   From: 2010.05.17/outbox.cif.g08.bks.cpg/sg112_2_cif.got.tgz:3735.got - 2010.05.20 10:59:04.
