data_PCOD9555733
_publ_section_title
;
Structure prediction by ZEFSAII (Michael W. Deem and Ramdas Pophale) SiO2 
 PCOD9555733
Probable space group: P -4 21 M 
;
_chemical_formula_sum "Si O2"
_cell_formula_units_Z 56
_cell_length_a 15.397416
_cell_length_b 15.397416
_cell_length_c 11.488667
_cell_angle_alpha 90.000000
_cell_angle_beta 90.000000
_cell_angle_gamma 90.000000
_cell_volume 2723.737992
_symmetry_space_group_name_H-M "P -4 21 M "
_symmetry_group_IT_number 113
_symmetry_cell_setting 'tetragonal'
loop_
_space_group_symop_operation_xyz
x,y,z
y,-x,-z
-x,-y,z
-y,x,-z
1/2+x,1/2-y,-z
1/2-x,1/2+y,-z
1/2-y,1/2-x,z
1/2+y,1/2+x,z
loop_
_atom_site_type_symbol
_atom_site_label
_atom_site_fract_x
_atom_site_fract_y
_atom_site_fract_z
Si Si1 0.768082 0.000001 0.750002
Si Si2 0.577571 0.781881 0.983673
Si Si3 0.820761 0.177401 0.841433
Si Si4 0.320761 0.677400 0.341434
Si Si5 0.718123 0.077574 0.516330
Si Si6 0.569670 0.791279 0.338052
Si Si7 0.430335 0.791282 0.161961
O O1 0.818303 0.075446 0.819136
O O2 0.718252 0.054809 0.651604
O O3 0.718250 0.945194 0.848400
O O4 0.818300 0.924554 0.680868
O O5 0.629816 0.870185 0.014582
O O6 0.640380 0.706253 0.033518
O O7 0.488471 0.766994 0.052793
O O8 0.728551 0.228551 0.830784
O O9 0.883229 0.219093 0.741671
O O10 0.228552 0.728552 0.330783
O O11 0.359618 0.706248 0.466486
O O12 0.383233 0.719092 0.241679
O O13 0.629820 0.129820 0.485420
O O14 0.733010 0.988472 0.447214
O O15 0.642678 0.857323 0.376438
O O16 0.500003 0.833930 0.250006
O O17 0.357326 0.857326 0.123582
#
# Coordination Sequence:
#
# PCOD9555733 Si02
#       7
#     8   8   8   8   8   8   8
#     4  12  24  38  67  93 124 168 220 266 318 385
#     4  10  23  41  62  95 131 165 212 267 328 391
#     4   9  21  42  66  90 124 173 221 262 318 390
#     4   9  21  42  66  90 124 173 221 262 318 390
#     4  10  23  41  62  95 131 165 212 267 328 391
#     4   9  18  36  63  90 122 166 214 260 312 383
#     4   9  18  36  63  90 122 166 214 260 312 383
#
# _framework density 20.559981000000001
#
# number of rings (size 3 to 8) (size 9 to 14) (size 15 to 20)
#    0.000    2.286    0.000    3.429    4.000    4.286 
#    0.000    6.429    0.000    3.857    0.000    0.000 
#    0.000    0.000    0.000    0.000    0.000    0.000 
#
# Total GULP energy -312055.009576 kJ/mol
# GULP energy per Si atom -5572.410885 kJ/mol
# Density = 2.051319 g / cm^3
# Si number density = 20.559981 Si / 1000 Ang^3
#
#
#
# Elastic Constant Matrix: (Units=GPa)
#
#
# Indices 1 2 3 4 5 6 
#
# 1 83.9222 46.0424 18.2342 0.0000 0.0000 0.0000
# 2 46.0424 83.9248 18.2322 0.0000 0.0000 0.0000
# 3 18.2342 18.2322 103.0763 0.0000 0.0000 0.0000
# 4 0.0000 0.0000 0.0000 18.6777 0.0000 0.0000
# 5 0.0000 0.0000 0.0000 0.0000 18.6789 0.0000
# 6 0.0000 0.0000 0.0000 0.0000 0.0000 4.3726
#
#
#
# Elastic Compliance Matrix: (Units=1/GPa)
#
#
# Indices 1 2 3 4 5 6 
#
# 1 0.017248 -0.009151 -0.001432 0.000000 0.000000 0.000000
# 2 -0.009151 0.017247 -0.001432 0.000000 0.000000 0.000000
# 3 -0.001432 -0.001432 0.010208 0.000000 0.000000 0.000000
# 4 0.000000 0.000000 0.000000 0.053540 0.000000 0.000000
# 5 0.000000 0.000000 0.000000 0.000000 0.053536 0.000000
# 6 0.000000 0.000000 0.000000 0.000000 0.000000 0.228696
#
#
# Mechanical properties :
#
#
# Convention : Reuss Voigt Hill
#
# Bulk Modulus (GPa) = 48.37462 48.43788 48.40625
# Shear Modulus (GPa) = 12.15373 20.90681 16.53027
#
# Velocity S-wave (km/s) = 2.43397 3.19230 2.83857
# Velocity P-wave (km/s) = 5.61057 6.09903 5.85989
#
# Compressibility (1/GPa) = 0.02067200
#
# Stress axis : x y z
#
# Youngs Moduli (GPa) = 57.97909 57.98144 97.96039
#
# Poissons Ratio (x) = 0.53059 0.14032
# Poissons Ratio (y) = 0.53057 0.14026
# Poissons Ratio (z) = 0.08305 0.08302
#
# Static dielectric constant tensor:
#      x y z
#    x 1.722660 0.000000 0.000000 
#    y 0.000000 1.722660 0.000000 
#    z 0.000000 0.000000 1.824480 
# 
# From -- ./inp_files/1940.got.cif
#   From: 2010.05.17/outbox.cif.g08.bks.cpg/sg113_cif.got.tgz:1940.got - 2010.05.20 11:03:00.
