data_PCOD9555194
_publ_section_title
;
Structure prediction by ZEFSAII (Michael W. Deem and Ramdas Pophale) SiO2 
 PCOD9555194
Probable space group: P -4 2 C
;
_chemical_formula_sum "Si O2"
_cell_formula_units_Z 36
_cell_length_a 9.280574
_cell_length_b 9.280574
_cell_length_c 19.730821
_cell_angle_alpha 90.000000
_cell_angle_beta 90.000000
_cell_angle_gamma 90.000000
_cell_volume 1699.396943
_symmetry_space_group_name_H-M "P -4 2 C"
_symmetry_group_IT_number 112
_symmetry_cell_setting 'tetragonal'
loop_
_space_group_symop_operation_xyz
x,y,z
y,-x,-z
-x,-y,z
-y,x,-z
x,-y,1/2-z
-x,y,1/2-z
-y,-x,1/2+z
y,x,1/2+z
loop_
_atom_site_type_symbol
_atom_site_label
_atom_site_fract_x
_atom_site_fract_y
_atom_site_fract_z
Si Si1 0.000000 0.000000 0.500000
Si Si2 0.425569 0.252185 0.157970
Si Si3 0.500000 0.000000 0.595397
Si Si4 0.187889 0.241631 0.041517
Si Si5 0.500000 0.000000 0.250000
Si Si6 0.500000 0.500000 0.250000
Si Si7 0.280033 0.651615 0.094955
Si Si8 0.500000 0.500000 0.500000
O O1 0.098004 0.903165 0.451442
O O2 0.321374 0.244204 0.093697
O O3 0.411240 0.108795 0.202356
O O4 0.403294 0.395416 0.203367
O O5 0.594582 0.273340 0.138347
O O6 0.377709 0.083234 0.552846
O O7 0.583763 0.137063 0.628866
O O8 0.240051 0.235157 0.964236
O O9 0.367989 0.534033 0.049576
#
# Coordination Sequence:
#
# PCOD9555194 Si02
#       8
#     2   8   4   8   2   2   8   2
#     4  12  28  40  56 114 144 176 200 272 382 424
#     4  11  24  45  69  96 134 172 241 283 329 413
#     4  12  22  35  60 101 134 180 210 256 354 410
#     4  12  24  40  65  99 144 173 217 284 356 419
#     4  10  28  44  76  96 120 204 240 278 312 398
#     4  10  22  42  66  96 120 172 228 290 320 366
#     4  12  22  36  66 100 135 171 215 282 349 407
#     4  12  18  36  60 102 128 182 208 272 366 396
#
# _framework density 21.183986000000001
#
# number of rings (size 3 to 8) (size 9 to 14) (size 15 to 20)
#    0.000    0.444    6.667    2.000    3.111    0.889 
#    0.000    0.000    0.000   34.000    0.000    0.000 
#    0.000    0.000    0.000    0.000    0.000    0.000 
#
# Total GULP energy -200874.412738 kJ/mol
# GULP energy per Si atom -5579.844798 kJ/mol
# Density = 2.113577 g / cm^3
# Si number density = 21.183986 Si / 1000 Ang^3
#
#
#
# Elastic Constant Matrix: (Units=GPa)
#
#
# Indices 1 2 3 4 5 6 
#
# 1 136.3471 37.7722 27.4597 0.0000 0.0000 0.0000
# 2 37.7722 136.3471 27.4597 0.0000 0.0000 0.0000
# 3 27.4597 27.4597 66.4372 0.0000 0.0000 0.0000
# 4 0.0000 0.0000 0.0000 11.6144 0.0000 0.0000
# 5 0.0000 0.0000 0.0000 0.0000 11.6144 0.0000
# 6 0.0000 0.0000 0.0000 0.0000 0.0000 42.1738
#
#
#
# Elastic Compliance Matrix: (Units=1/GPa)
#
#
# Indices 1 2 3 4 5 6 
#
# 1 0.008374 -0.001770 -0.002730 0.000000 0.000000 0.000000
# 2 -0.001770 0.008374 -0.002730 0.000000 0.000000 0.000000
# 3 -0.002730 -0.002730 0.017308 0.000000 0.000000 0.000000
# 4 0.000000 0.000000 0.000000 0.086100 0.000000 0.000000
# 5 0.000000 0.000000 0.000000 0.000000 0.086100 0.000000
# 6 0.000000 0.000000 0.000000 0.000000 0.000000 0.023711
#
#
# Mechanical properties :
#
#
# Convention : Reuss Voigt Hill
#
# Bulk Modulus (GPa) = 51.02550 58.27940 54.65245
# Shear Modulus (GPa) = 19.92347 29.50984 24.71665
#
# Velocity S-wave (km/s) = 3.07008 3.73637 3.41949
# Velocity P-wave (km/s) = 6.05857 6.79594 6.43782
#
# Compressibility (1/GPa) = 0.01959804
#
# Stress axis : x y z
#
# Youngs Moduli (GPa) = 119.41221 119.41221 57.77608
#
# Poissons Ratio (x) = 0.21138 0.15771
# Poissons Ratio (y) = 0.21138 0.15771
# Poissons Ratio (z) = 0.32595 0.32595
#
# Static dielectric constant tensor:
#      x y z
#    x 1.834710 0.000000 0.000000 
#    y 0.000000 1.834710 0.000000 
#    z 0.000000 0.000000 1.769060 
# 
# From -- ./inp_files/4796.got.cif
#   From: 2010.05.17/outbox.cif.g08.bks.cpg/sg112_3_cif.got.tgz:4796.got - 2010.05.20 10:59:04.
