data_PCOD9555060
_publ_section_title
;
Structure prediction by ZEFSAII (Michael W. Deem and Ramdas Pophale) SiO2 
 PCOD9555060
Probable space group: P -4 2 C
;
_chemical_formula_sum "Si O2"
_cell_formula_units_Z 18
_cell_length_a 10.212383
_cell_length_b 10.212383
_cell_length_c 8.744094
_cell_angle_alpha 90.000000
_cell_angle_beta 90.000000
_cell_angle_gamma 90.000000
_cell_volume 911.945754
_symmetry_space_group_name_H-M "P -4 2 C"
_symmetry_group_IT_number 112
_symmetry_cell_setting 'tetragonal'
loop_
_space_group_symop_operation_xyz
x,y,z
y,-x,-z
-x,-y,z
-y,x,-z
x,-y,1/2-z
-x,y,1/2-z
-y,-x,1/2+z
y,x,1/2+z
loop_
_atom_site_type_symbol
_atom_site_label
_atom_site_fract_x
_atom_site_fract_y
_atom_site_fract_z
Si Si1 0.500000 0.500000 0.250000
Si Si2 0.857456 0.647852 0.812110
Si Si3 0.619228 0.239445 0.847534
O O1 0.394955 0.421843 0.145470
O O2 0.835586 0.500000 0.750000
O O3 0.752319 0.749687 0.746601
O O4 0.000000 0.684556 0.750000
O O5 0.831725 0.638150 0.992798
O O6 0.500000 0.179748 0.750000
#
# Coordination Sequence:
#
# PCOD9555060 Si02
#       3
#     2   8   8
#     4   8  20  30  68  94 122 156 220 258 318 392
#     4  11  22  37  58  94 131 161 211 271 327 381
#     4  10  20  36  64  93 125 165 212 266 330 392
#
# _framework density 19.738015999999998
#
# number of rings (size 3 to 8) (size 9 to 14) (size 15 to 20)
#    1.333    0.444    2.222    2.667    0.000    1.778 
#    0.000   15.556    0.000    4.000    0.000    0.000 
#    0.000    0.000    0.000    0.000    0.000    0.000 
#
# Total GULP energy -100242.157028 kJ/mol
# GULP energy per Si atom -5569.008724 kJ/mol
# Density = 1.969309 g / cm^3
# Si number density = 19.738016 Si / 1000 Ang^3
#
#
#
# Elastic Constant Matrix: (Units=GPa)
#
#
# Indices 1 2 3 4 5 6 
#
# 1 108.0594 19.5716 71.0685 0.0000 0.0000 0.0000
# 2 19.5716 108.0594 71.0685 0.0000 0.0000 0.0000
# 3 71.0685 71.0685 209.1640 0.0000 0.0000 0.0000
# 4 0.0000 0.0000 0.0000 -14.6392 0.0000 0.0000
# 5 0.0000 0.0000 0.0000 0.0000 -14.6392 0.0000
# 6 0.0000 0.0000 0.0000 0.0000 0.0000 -3.9418
#
#
#
# Elastic Compliance Matrix: (Units=1/GPa)
#
#
# Indices 1 2 3 4 5 6 
#
# 1 0.011953 0.000652 -0.004283 0.000000 0.000000 0.000000
# 2 0.000652 0.011953 -0.004283 0.000000 0.000000 0.000000
# 3 -0.004283 -0.004283 0.007691 0.000000 0.000000 0.000000
# 4 0.000000 0.000000 0.000000 -0.068310 0.000000 0.000000
# 5 0.000000 0.000000 0.000000 0.000000 -0.068310 0.000000
# 6 0.000000 0.000000 0.000000 0.000000 0.000000 -0.253689
#
#
# Mechanical properties :
#
#
# Convention : Reuss Voigt Hill
#
# Bulk Modulus (GPa) = 63.41341 83.18889 73.30115
# Shear Modulus (GPa) = -14.80922 10.92755 -1.94083
#
# Velocity S-wave (km/s) = -2.74211 2.35549 -0.99269
# Velocity P-wave (km/s) = 4.70869 7.04527 5.99197
#
# Compressibility (1/GPa) = 0.01576953
#
# Stress axis : x y z
#
# Youngs Moduli (GPa) = 83.66262 83.66262 130.01799
#
# Poissons Ratio (x) = -0.05453 0.55683
# Poissons Ratio (y) = -0.05453 0.55683
# Poissons Ratio (z) = 0.35830 0.35830
#
# Static dielectric constant tensor:
#      x y z
#    x 1.789890 0.000000 0.000000 
#    y 0.000000 1.789890 0.000000 
#    z 0.000000 0.000000 1.697890 
# 
# From -- ./inp_files/715.got.cif
#   From: 2010.05.17/outbox.cif.g08.bks.cpg/sg112_1_cif.got.tgz:715.got - 2010.05.20 10:59:04.
