data_PCOD9555829
_publ_section_title
;
Structure prediction by ZEFSAII (Michael W. Deem and Ramdas Pophale) SiO2 
 PCOD9555829
Probable space group: P -4 21 C
;
_chemical_formula_sum "Si O2"
_cell_formula_units_Z 56
_cell_length_a 12.381774
_cell_length_b 12.381774
_cell_length_c 22.965884
_cell_angle_alpha 90.000000
_cell_angle_beta 90.000000
_cell_angle_gamma 90.000000
_cell_volume 3520.861263
_symmetry_space_group_name_H-M "P -4 21 C"
_symmetry_group_IT_number 114
_symmetry_cell_setting 'tetragonal'
loop_
_space_group_symop_operation_xyz
x,y,z
y,-x,-z
-x,-y,z
-y,x,-z
1/2+x,1/2-y,1/2-z
1/2-x,1/2+y,1/2-z
1/2-y,1/2-x,1/2+z
1/2+y,1/2+x,1/2+z
loop_
_atom_site_type_symbol
_atom_site_label
_atom_site_fract_x
_atom_site_fract_y
_atom_site_fract_z
Si Si1 0.129029 0.517244 0.177199
Si Si2 0.500000 0.321567 0.500000
Si Si3 0.017244 0.370971 0.322801
Si Si4 0.287361 0.107537 0.200382
Si Si5 0.775816 0.594966 0.384208
Si Si6 0.212639 0.392463 0.700382
Si Si7 0.405034 0.224184 0.384208
O O1 0.179741 0.572493 0.234209
O O2 0.165921 0.393440 0.172886
O O3 0.139041 0.602570 0.124961
O O4 0.000000 0.500000 0.185083
O O5 0.401976 0.401976 0.518241
O O6 0.542380 0.250554 0.553517
O O7 0.457620 0.250554 0.446483
O O8 0.102570 0.360959 0.375039
O O9 0.072493 0.320259 0.265791
O O10 0.000000 0.500000 0.314917
O O11 0.893440 0.334079 0.327114
O O12 0.187131 0.187131 0.200810
O O13 0.262874 0.999927 0.163458
O O14 0.689648 0.689648 0.374162
O O15 0.237126 0.500073 0.663458
#
# Coordination Sequence:
#
# PCOD9555829 Si02
#       7
#     8   8   8   8   8   8   8
#     4  10  17  32  47  68  98 133 172 202 244 300
#     4   9  18  32  49  76 110 136 167 213 260 304
#     4  10  17  32  47  68  98 133 172 202 244 300
#     4  11  19  30  49  71 100 133 169 211 253 300
#     4  10  19  33  53  74 100 134 169 209 257 304
#     4  11  19  30  49  71 100 133 169 211 253 300
#     4  10  19  33  53  74 100 134 169 209 257 304
#
# _framework density 15.905198
#
# number of rings (size 3 to 8) (size 9 to 14) (size 15 to 20)
#    0.000    1.857    5.714    1.714    0.000    1.714 
#    0.000    6.429    0.000    2.571    0.000    0.000 
#    0.000    0.000    0.000   42.571    0.000    0.000 
#
# Total GULP energy -311790.154583 kJ/mol
# GULP energy per Si atom -5567.681332 kJ/mol
# Density = 1.586900 g / cm^3
# Si number density = 15.905198 Si / 1000 Ang^3
#
#
#
# Elastic Constant Matrix: (Units=GPa)
#
#
# Indices 1 2 3 4 5 6 
#
# 1 54.7081 7.5838 13.0035 0.0000 0.0000 0.0000
# 2 7.5838 54.7081 13.0035 0.0000 0.0000 0.0000
# 3 13.0035 13.0035 53.7928 0.0000 0.0000 0.0000
# 4 0.0000 0.0000 0.0000 25.5456 0.0000 0.0000
# 5 0.0000 0.0000 0.0000 0.0000 25.5456 0.0000
# 6 0.0000 0.0000 0.0000 0.0000 0.0000 24.3109
#
#
#
# Elastic Compliance Matrix: (Units=1/GPa)
#
#
# Indices 1 2 3 4 5 6 
#
# 1 0.019538 -0.001683 -0.004316 0.000000 0.000000 0.000000
# 2 -0.001683 0.019538 -0.004316 0.000000 0.000000 0.000000
# 3 -0.004316 -0.004316 0.020677 0.000000 0.000000 0.000000
# 4 0.000000 0.000000 0.000000 0.039146 0.000000 0.000000
# 5 0.000000 0.000000 0.000000 0.000000 0.039146 0.000000
# 6 0.000000 0.000000 0.000000 0.000000 0.000000 0.041134
#
#
# Mechanical properties :
#
#
# Convention : Reuss Voigt Hill
#
# Bulk Modulus (GPa) = 25.56070 25.59896 25.57983
# Shear Modulus (GPa) = 23.49089 23.72166 23.60628
#
# Velocity S-wave (km/s) = 3.84726 3.86611 3.85669
# Velocity P-wave (km/s) = 5.98671 6.00489 5.99581
#
# Compressibility (1/GPa) = 0.03912255
#
# Stress axis : x y z
#
# Youngs Moduli (GPa) = 51.18236 51.18236 48.36388
#
# Poissons Ratio (x) = 0.08611 0.20875
# Poissons Ratio (y) = 0.08611 0.20875
# Poissons Ratio (z) = 0.22092 0.22092
#
# Static dielectric constant tensor:
#      x y z
#    x 1.556690 0.000000 0.000000 
#    y 0.000000 1.556690 0.000000 
#    z 0.000000 0.000000 1.528190 
# 
# From -- ./inp_files/3544.got.cif
#   From: 2010.05.17/outbox.cif.g08.bks.cpg/sg114_2_cif.got.tgz:3544.got - 2010.05.20 11:04:54.
