data_PCOD9555061
_publ_section_title
;
Structure prediction by ZEFSAII (Michael W. Deem and Ramdas Pophale) SiO2 
 PCOD9555061
Probable space group: P -4 2 C
;
_chemical_formula_sum "Si O2"
_cell_formula_units_Z 48
_cell_length_a 8.489091
_cell_length_b 8.489091
_cell_length_c 33.585405
_cell_angle_alpha 90.000000
_cell_angle_beta 90.000000
_cell_angle_gamma 90.000000
_cell_volume 2420.320994
_symmetry_space_group_name_H-M "P -4 2 C"
_symmetry_group_IT_number 112
_symmetry_cell_setting 'tetragonal'
loop_
_space_group_symop_operation_xyz
x,y,z
y,-x,-z
-x,-y,z
-y,x,-z
x,-y,1/2-z
-x,y,1/2-z
-y,-x,1/2+z
y,x,1/2+z
loop_
_atom_site_type_symbol
_atom_site_label
_atom_site_fract_x
_atom_site_fract_y
_atom_site_fract_z
Si Si1 0.277807 0.822938 0.081648
Si Si2 0.683175 0.055276 0.206390
Si Si3 0.867791 0.740455 0.633510
Si Si4 0.739035 0.606006 0.999315
Si Si5 0.327535 0.571165 0.654502
Si Si6 0.679582 0.947780 0.574613
O O1 0.325474 0.688613 0.114122
O O2 0.100893 0.786235 0.067954
O O3 0.288096 0.989075 0.103401
O O4 0.384555 0.824643 0.042801
O O5 0.665315 0.235913 0.190075
O O6 0.500000 0.000000 0.204771
O O7 0.737155 0.000000 0.250000
O O8 0.783153 0.956924 0.174293
O O9 0.775899 0.580779 0.642876
O O10 0.749685 0.861082 0.613128
O O11 0.834736 0.677314 0.036085
O O12 0.696667 0.425152 0.007520
O O13 0.500000 0.500000 0.663511
O O14 0.500000 0.000000 0.580875
#
# Coordination Sequence:
#
# PCOD9555061 Si02
#       6
#     8   8   8   8   8   8
#     4  11  23  39  60  84 122 161 208 257 313 383
#     4   8  16  35  61  94 128 160 201 252 316 379
#     4  10  22  39  61  87 123 166 201 258 313 383
#     4  11  25  41  60  86 118 159 201 259 321 366
#     4  10  20  36  65  95 121 163 206 257 314 376
#     4  12  24  40  58  88 117 159 213 265 312 369
#
# _framework density 19.832080999999999
#
# number of rings (size 3 to 8) (size 9 to 14) (size 15 to 20)
#    0.000    1.667    1.667    4.000    4.667    1.333 
#    0.000    6.667    0.000    8.000    0.000    4.667 
#    0.000    0.000    0.000    0.000    0.000    0.000 
#
# Total GULP energy -267820.995807 kJ/mol
# GULP energy per Si atom -5579.604079 kJ/mol
# Density = 1.978694 g / cm^3
# Si number density = 19.832081 Si / 1000 Ang^3
#
#
#
# Elastic Constant Matrix: (Units=GPa)
#
#
# Indices 1 2 3 4 5 6 
#
# 1 66.6519 19.5964 40.9917 0.0000 0.0000 0.0000
# 2 19.5964 66.6519 40.9917 0.0000 0.0000 0.0000
# 3 40.9917 40.9917 138.3598 0.0000 0.0000 0.0000
# 4 0.0000 0.0000 0.0000 16.8420 0.0000 0.0000
# 5 0.0000 0.0000 0.0000 0.0000 16.8420 0.0000
# 6 0.0000 0.0000 0.0000 0.0000 0.0000 25.6276
#
#
#
# Elastic Compliance Matrix: (Units=1/GPa)
#
#
# Indices 1 2 3 4 5 6 
#
# 1 0.018696 -0.002556 -0.004782 0.000000 0.000000 0.000000
# 2 -0.002556 0.018696 -0.004782 0.000000 0.000000 0.000000
# 3 -0.004782 -0.004782 0.010061 0.000000 0.000000 0.000000
# 4 0.000000 0.000000 0.000000 0.059375 0.000000 0.000000
# 5 0.000000 0.000000 0.000000 0.000000 0.059375 0.000000
# 6 0.000000 0.000000 0.000000 0.000000 0.000000 0.039020
#
#
# Mechanical properties :
#
#
# Convention : Reuss Voigt Hill
#
# Bulk Modulus (GPa) = 43.07844 52.75815 47.91829
# Shear Modulus (GPa) = 21.07929 23.20124 22.14027
#
# Velocity S-wave (km/s) = 3.26373 3.42407 3.34486
# Velocity P-wave (km/s) = 5.99761 6.50327 6.25555
#
# Compressibility (1/GPa) = 0.02321347
#
# Stress axis : x y z
#
# Youngs Moduli (GPa) = 53.48857 53.48857 99.39503
#
# Poissons Ratio (x) = 0.13671 0.47528
# Poissons Ratio (y) = 0.13671 0.47528
# Poissons Ratio (z) = 0.25577 0.25577
#
# Static dielectric constant tensor:
#      x y z
#    x 1.731430 0.000000 0.000000 
#    y 0.000000 1.731430 0.000000 
#    z 0.000000 0.000000 1.735250 
# 
# From -- ./inp_files/6316.got.cif
#   From: 2010.05.17/outbox.cif.g08.bks.cpg/sg112_4_cif.got.tgz:6316.got - 2010.05.20 10:59:04.
