data_PCOD9555255
_publ_section_title
;
Structure prediction by ZEFSAII (Michael W. Deem and Ramdas Pophale) SiO2 
 PCOD9555255
Probable space group: P -4 2 C
;
_chemical_formula_sum "Si O2"
_cell_formula_units_Z 48
_cell_length_a 7.957565
_cell_length_b 7.957565
_cell_length_c 31.741990
_cell_angle_alpha 90.000000
_cell_angle_beta 90.000000
_cell_angle_gamma 90.000000
_cell_volume 2009.992977
_symmetry_space_group_name_H-M "P -4 2 C"
_symmetry_group_IT_number 112
_symmetry_cell_setting 'tetragonal'
loop_
_space_group_symop_operation_xyz
x,y,z
y,-x,-z
-x,-y,z
-y,x,-z
x,-y,1/2-z
-x,y,1/2-z
-y,-x,1/2+z
y,x,1/2+z
loop_
_atom_site_type_symbol
_atom_site_label
_atom_site_fract_x
_atom_site_fract_y
_atom_site_fract_z
Si Si1 0.059357 0.305424 0.703274
Si Si2 0.433731 0.313400 0.668827
Si Si3 0.325497 0.794174 0.055600
Si Si4 0.881316 0.660520 0.092125
Si Si5 0.680879 0.175950 0.476005
Si Si6 0.170646 0.223075 0.355504
O O1 0.260503 0.285864 0.695270
O O2 0.000000 0.500000 0.697564
O O3 0.000000 0.256912 0.750000
O O4 0.940242 0.205335 0.671546
O O5 0.500000 0.500000 0.677197
O O6 0.377870 0.281537 0.620527
O O7 0.602766 0.195890 0.671226
O O8 0.507448 0.743564 0.039107
O O9 0.299614 0.770335 0.104953
O O10 0.309585 0.989985 0.043154
O O11 0.193393 0.699298 0.025845
O O12 0.828461 0.725617 0.047202
O O13 0.000000 0.500000 0.090024
O O14 0.992842 0.783435 0.120832
#
# Coordination Sequence:
#
# PCOD9555255 Si02
#       6
#     8   8   8   8   8   8
#     4  11  25  45  72 111 143 182 240 304 379 459
#     4  11  22  42  73 101 143 186 237 297 360 443
#     4  11  26  42  68 101 144 188 244 301 362 436
#     4  10  24  43  72 101 144 188 242 294 364 438
#     4  11  25  43  66 100 142 190 241 302 360 421
#     4  11  24  45  71 106 138 191 243 298 373 438
#
# _framework density 23.880678
#
# number of rings (size 3 to 8) (size 9 to 14) (size 15 to 20)
#    0.000    1.167    1.667    3.000    9.333    5.333 
#    0.000    1.667    0.000    3.000    0.000    0.000 
#    0.000    0.000    0.000    0.000    0.000    0.000 
#
# Total GULP energy -268480.440576 kJ/mol
# GULP energy per Si atom -5593.342512 kJ/mol
# Density = 2.382632 g / cm^3
# Si number density = 23.880678 Si / 1000 Ang^3
#
#
#
# Elastic Constant Matrix: (Units=GPa)
#
#
# Indices 1 2 3 4 5 6 
#
# 1 109.6164 43.2880 56.2738 0.0000 0.0000 0.0000
# 2 43.2880 109.6164 56.2738 0.0000 0.0000 0.0000
# 3 56.2738 56.2738 131.5740 0.0000 0.0000 0.0000
# 4 0.0000 0.0000 0.0000 30.0322 0.0000 0.0000
# 5 0.0000 0.0000 0.0000 0.0000 30.0322 0.0000
# 6 0.0000 0.0000 0.0000 0.0000 0.0000 35.3966
#
#
#
# Elastic Compliance Matrix: (Units=1/GPa)
#
#
# Indices 1 2 3 4 5 6 
#
# 1 0.012311 -0.002766 -0.004082 0.000000 0.000000 0.000000
# 2 -0.002766 0.012311 -0.004082 0.000000 0.000000 0.000000
# 3 -0.004082 -0.004082 0.011092 0.000000 0.000000 0.000000
# 4 0.000000 0.000000 0.000000 0.033298 0.000000 0.000000
# 5 0.000000 0.000000 0.000000 0.000000 0.033298 0.000000
# 6 0.000000 0.000000 0.000000 0.000000 0.000000 0.028251
#
#
# Mechanical properties :
#
#
# Convention : Reuss Voigt Hill
#
# Bulk Modulus (GPa) = 72.18770 73.60866 72.89818
# Shear Modulus (GPa) = 31.83929 32.09027 31.96478
#
# Velocity S-wave (km/s) = 3.65535 3.66973 3.66255
# Velocity P-wave (km/s) = 6.93611 6.98902 6.96261
#
# Compressibility (1/GPa) = 0.01385278
#
# Stress axis : x y z
#
# Youngs Moduli (GPa) = 81.23024 81.23024 90.15280
#
# Poissons Ratio (x) = 0.22467 0.36803
# Poissons Ratio (y) = 0.22467 0.36803
# Poissons Ratio (z) = 0.33161 0.33161
#
# Static dielectric constant tensor:
#      x y z
#    x 1.981600 0.000000 0.000000 
#    y 0.000000 1.981600 0.000000 
#    z 0.000000 0.000000 1.853860 
# 
# From -- ./inp_files/6274.got.cif
#   From: 2010.05.17/outbox.cif.g08.bks.cpg/sg112_4_cif.got.tgz:6274.got - 2010.05.20 10:59:04.
