data_PCOD9555772
_publ_section_title
;
Structure prediction by ZEFSAII (Michael W. Deem and Ramdas Pophale) SiO2 
 PCOD9555772
Probable space group: P -4 21 M 
;
_chemical_formula_sum "Si O2"
_cell_formula_units_Z 40
_cell_length_a 13.730853
_cell_length_b 13.730853
_cell_length_c 9.908316
_cell_angle_alpha 90.000000
_cell_angle_beta 90.000000
_cell_angle_gamma 90.000000
_cell_volume 1868.077477
_symmetry_space_group_name_H-M "P -4 21 M "
_symmetry_group_IT_number 113
_symmetry_cell_setting 'tetragonal'
loop_
_space_group_symop_operation_xyz
x,y,z
y,-x,-z
-x,-y,z
-y,x,-z
1/2+x,1/2-y,-z
1/2-x,1/2+y,-z
1/2-y,1/2-x,z
1/2+y,1/2+x,z
loop_
_atom_site_type_symbol
_atom_site_label
_atom_site_fract_x
_atom_site_fract_y
_atom_site_fract_z
Si Si1 0.582125 0.917876 0.254545
Si Si2 0.731068 0.505805 0.894820
Si Si3 0.301779 0.362162 0.139212
Si Si4 0.919187 0.419187 0.438290
Si Si5 0.512455 0.273841 0.603433
Si Si6 0.806133 0.141130 0.352264
O O1 0.536596 0.828470 0.172904
O O2 0.611605 0.888396 0.408388
O O3 0.500000 0.000000 0.264098
O O4 0.661715 0.411917 0.904783
O O5 0.694178 0.589410 0.792528
O O6 0.742695 0.558096 0.037817
O O7 0.233715 0.266286 0.137918
O O8 0.304994 0.408048 0.287877
O O9 0.830145 0.466800 0.360876
O O10 0.000000 0.500000 0.454317
O O11 0.417057 0.340885 0.602013
O O12 0.565476 0.262990 0.460388
O O13 0.737840 0.237840 0.351343
#
# Coordination Sequence:
#
# PCOD9555772 Si02
#       6
#     4   8   8   4   8   8
#     4  11  22  43  73 105 129 186 247 275 340 414
#     4  12  26  46  74  97 142 190 227 288 346 424
#     4  12  27  47  69 105 141 179 234 290 354 409
#     4  11  22  43  69 107 137 180 239 287 348 396
#     4  12  26  42  72 102 145 184 225 301 350 406
#     4  12  25  45  69 103 140 186 240 283 350 424
#
# _framework density 21.412388
#
# number of rings (size 3 to 8) (size 9 to 14) (size 15 to 20)
#    0.000    0.200    4.000    6.000    0.000    5.600 
#    0.000    2.000    0.000    0.000    0.000    0.000 
#    0.000    0.000    0.000    0.000    0.000    0.000 
#
# Total GULP energy -223798.135428 kJ/mol
# GULP energy per Si atom -5594.953386 kJ/mol
# Density = 2.136365 g / cm^3
# Si number density = 21.412388 Si / 1000 Ang^3
#
#
#
# Elastic Constant Matrix: (Units=GPa)
#
#
# Indices 1 2 3 4 5 6 
#
# 1 86.5163 -3.8899 -1.0173 0.0000 0.0000 0.0000
# 2 -3.8899 86.5208 -1.0177 0.0000 0.0000 0.0000
# 3 -1.0173 -1.0177 59.6429 0.0000 0.0000 0.0000
# 4 0.0000 0.0000 0.0000 27.0029 0.0000 0.0000
# 5 0.0000 0.0000 0.0000 0.0000 27.0070 0.0000
# 6 0.0000 0.0000 0.0000 0.0000 0.0000 38.7733
#
#
#
# Elastic Compliance Matrix: (Units=1/GPa)
#
#
# Indices 1 2 3 4 5 6 
#
# 1 0.011584 0.000523 0.000207 0.000000 0.000000 0.000000
# 2 0.000523 0.011584 0.000207 0.000000 0.000000 0.000000
# 3 0.000207 0.000207 0.016774 0.000000 0.000000 0.000000
# 4 0.000000 0.000000 0.000000 0.037033 0.000000 0.000000
# 5 0.000000 0.000000 0.000000 0.000000 0.037027 0.000000
# 6 0.000000 0.000000 0.000000 0.000000 0.000000 0.025791
#
#
# Mechanical properties :
#
#
# Convention : Reuss Voigt Hill
#
# Bulk Modulus (GPa) = 23.91511 24.53668 24.22589
# Shear Modulus (GPa) = 32.92534 34.46364 33.69449
#
# Velocity S-wave (km/s) = 3.92558 4.01623 3.97116
# Velocity P-wave (km/s) = 5.63382 5.74376 5.68906
#
# Compressibility (1/GPa) = 0.04181457
#
# Stress axis : x y z
#
# Youngs Moduli (GPa) = 86.32244 86.32694 59.61783
#
# Poissons Ratio (x) = -0.04517 -0.01231
# Poissons Ratio (y) = -0.04517 -0.01232
# Poissons Ratio (z) = -0.01783 -0.01783
#
# Static dielectric constant tensor:
#      x y z
#    x 1.790550 0.000000 0.000000 
#    y 0.000000 1.790550 0.000000 
#    z 0.000000 0.000000 1.727950 
# 
# From -- ./inp_files/1063.got.cif
#   From: 2010.05.17/outbox.cif.g08.bks.cpg/sg113_cif.got.tgz:1063.got - 2010.05.20 11:03:00.
