data_PCOD9555263
_publ_section_title
;
Structure prediction by ZEFSAII (Michael W. Deem and Ramdas Pophale) SiO2 
 PCOD9555263
Probable space group: P -4 2 C
;
_chemical_formula_sum "Si O2"
_cell_formula_units_Z 26
_cell_length_a 10.919058
_cell_length_b 10.919058
_cell_length_c 9.230870
_cell_angle_alpha 90.000000
_cell_angle_beta 90.000000
_cell_angle_gamma 90.000000
_cell_volume 1100.558115
_symmetry_space_group_name_H-M "P -4 2 C"
_symmetry_group_IT_number 112
_symmetry_cell_setting 'tetragonal'
loop_
_space_group_symop_operation_xyz
x,y,z
y,-x,-z
-x,-y,z
-y,x,-z
x,-y,1/2-z
-x,y,1/2-z
-y,-x,1/2+z
y,x,1/2+z
loop_
_atom_site_type_symbol
_atom_site_label
_atom_site_fract_x
_atom_site_fract_y
_atom_site_fract_z
Si Si1 0.743465 0.891358 0.349545
Si Si2 0.470405 0.666038 0.912275
Si Si3 0.306869 0.124171 0.666052
Si Si4 0.500000 0.000000 0.250000
O O1 0.770918 0.899140 0.519420
O O2 0.787702 0.766658 0.275977
O O3 0.597110 0.914657 0.333105
O O4 0.798535 0.000000 0.250000
O O5 0.500000 0.624604 0.750000
O O6 0.424804 0.802944 0.890052
O O7 0.638120 0.414421 0.984619
O O8 0.333061 0.000000 0.750000
#
# Coordination Sequence:
#
# PCOD9555263 Si02
#       4
#     8   8   8   2
#     4  10  24  46  73 109 155 206 261 327 391 466
#     4  11  25  44  71 108 154 202 254 324 399 474
#     4  12  26  45  75 113 155 208 267 322 401 484
#     4   8  24  44  76  96 154 208 258 322 408 450
#
# _framework density 23.624374
#
# number of rings (size 3 to 8) (size 9 to 14) (size 15 to 20)
#    0.923    0.308    0.000    5.538    4.308    3.692 
#    0.000    3.077    0.000    0.000    0.000    0.000 
#    0.000    0.000    0.000    0.000    0.000    0.000 
#
# Total GULP energy -145188.060856 kJ/mol
# GULP energy per Si atom -5584.156187 kJ/mol
# Density = 2.357060 g / cm^3
# Si number density = 23.624374 Si / 1000 Ang^3
#
#
#
# Elastic Constant Matrix: (Units=GPa)
#
#
# Indices 1 2 3 4 5 6 
#
# 1 109.7824 41.1376 64.1698 0.0000 0.0000 0.0000
# 2 41.1376 109.7824 64.1698 0.0000 0.0000 0.0000
# 3 64.1698 64.1698 221.0452 0.0000 0.0000 0.0000
# 4 0.0000 0.0000 0.0000 12.9802 0.0000 0.0000
# 5 0.0000 0.0000 0.0000 0.0000 12.9802 0.0000
# 6 0.0000 0.0000 0.0000 0.0000 0.0000 17.6994
#
#
#
# Elastic Compliance Matrix: (Units=1/GPa)
#
#
# Indices 1 2 3 4 5 6 
#
# 1 0.011683 -0.002885 -0.002554 0.000000 0.000000 0.000000
# 2 -0.002885 0.011683 -0.002554 0.000000 0.000000 0.000000
# 3 -0.002554 -0.002554 0.006007 0.000000 0.000000 0.000000
# 4 0.000000 0.000000 0.000000 0.077040 0.000000 0.000000
# 5 0.000000 0.000000 0.000000 0.000000 0.077040 0.000000
# 6 0.000000 0.000000 0.000000 0.000000 0.000000 0.056499
#
#
# Mechanical properties :
#
#
# Convention : Reuss Voigt Hill
#
# Bulk Modulus (GPa) = 74.70197 86.61824 80.66010
# Shear Modulus (GPa) = 19.20121 26.80749 23.00435
#
# Velocity S-wave (km/s) = 2.85401 3.37224 3.12389
# Velocity P-wave (km/s) = 6.52302 7.20466 6.87230
#
# Compressibility (1/GPa) = 0.01338653
#
# Stress axis : x y z
#
# Youngs Moduli (GPa) = 85.59553 85.59553 166.47634
#
# Poissons Ratio (x) = 0.24693 0.42519
# Poissons Ratio (y) = 0.24693 0.42519
# Poissons Ratio (z) = 0.21862 0.21862
#
# Static dielectric constant tensor:
#      x y z
#    x 2.029590 0.000000 0.000000 
#    y 0.000000 2.029590 0.000000 
#    z 0.000000 0.000000 1.892720 
# 
# From -- ./inp_files/822.got.cif
#   From: 2010.05.17/outbox.cif.g08.bks.cpg/sg112_1_cif.got.tgz:822.got - 2010.05.20 10:59:04.
