data_PCOD9555394
_publ_section_title
;
Structure prediction by ZEFSAII (Michael W. Deem and Ramdas Pophale) SiO2 
 PCOD9555394
Probable space group: P -4 2 C
;
_chemical_formula_sum "Si O2"
_cell_formula_units_Z 40
_cell_length_a 13.943088
_cell_length_b 13.943088
_cell_length_c 9.044223
_cell_angle_alpha 90.000000
_cell_angle_beta 90.000000
_cell_angle_gamma 90.000000
_cell_volume 1758.284707
_symmetry_space_group_name_H-M "P -4 2 C"
_symmetry_group_IT_number 112
_symmetry_cell_setting 'tetragonal'
loop_
_space_group_symop_operation_xyz
x,y,z
y,-x,-z
-x,-y,z
-y,x,-z
x,-y,1/2-z
-x,y,1/2-z
-y,-x,1/2+z
y,x,1/2+z
loop_
_atom_site_type_symbol
_atom_site_label
_atom_site_fract_x
_atom_site_fract_y
_atom_site_fract_z
Si Si1 0.366827 0.274141 0.626410
Si Si2 0.585409 0.754451 0.967024
Si Si3 0.763628 0.877286 0.456521
Si Si4 0.031027 0.604445 0.922482
Si Si5 0.895664 0.888790 0.210121
O O1 0.369821 0.257616 0.802457
O O2 0.472262 0.254241 0.561762
O O3 0.327364 0.377549 0.577958
O O4 0.296502 0.202983 0.539231
O O5 0.611691 0.857227 0.038769
O O6 0.799154 0.853621 0.292294
O O7 0.864829 0.886524 0.539328
O O8 0.697161 0.971096 0.472942
O O9 0.000000 0.500000 0.986887
O O10 0.000000 0.600402 0.750000
O O11 0.000000 0.846415 0.250000
O O12 0.897385 0.000000 0.250000
#
# Coordination Sequence:
#
# PCOD9555394 Si02
#       5
#     8   8   8   8   8
#     4  11  27  47  79 108 159 195 255 331 382 493
#     4  11  27  51  73 119 148 200 261 315 412 459
#     4  12  25  45  71 105 144 210 248 320 374 444
#     4  11  26  47  75 112 154 199 261 328 389 464
#     4  11  26  44  65  99 148 201 257 305 369 453
#
# _framework density 22.749445999999999
#
# number of rings (size 3 to 8) (size 9 to 14) (size 15 to 20)
#    0.000    0.800    2.000    3.000   14.000    2.800 
#    0.000    2.000    0.000    0.000    0.000    0.000 
#    0.000    0.000    0.000    0.000    0.000    0.000 
#
# Total GULP energy -223569.457478 kJ/mol
# GULP energy per Si atom -5589.236437 kJ/mol
# Density = 2.269767 g / cm^3
# Si number density = 22.749446 Si / 1000 Ang^3
#
#
#
# Elastic Constant Matrix: (Units=GPa)
#
#
# Indices 1 2 3 4 5 6 
#
# 1 125.3861 34.1561 53.2570 0.0000 0.0000 0.0000
# 2 34.1561 125.3861 53.2570 0.0000 0.0000 0.0000
# 3 53.2570 53.2570 110.1673 0.0000 0.0000 0.0000
# 4 0.0000 0.0000 0.0000 34.1019 0.0000 0.0000
# 5 0.0000 0.0000 0.0000 0.0000 34.1019 0.0000
# 6 0.0000 0.0000 0.0000 0.0000 0.0000 29.4368
#
#
#
# Elastic Compliance Matrix: (Units=1/GPa)
#
#
# Indices 1 2 3 4 5 6 
#
# 1 0.010108 -0.000853 -0.004474 0.000000 0.000000 0.000000
# 2 -0.000853 0.010108 -0.004474 0.000000 0.000000 0.000000
# 3 -0.004474 -0.004474 0.013403 0.000000 0.000000 0.000000
# 4 0.000000 0.000000 0.000000 0.029324 0.000000 0.000000
# 5 0.000000 0.000000 0.000000 0.000000 0.029324 0.000000
# 6 0.000000 0.000000 0.000000 0.000000 0.000000 0.033971
#
#
# Mechanical properties :
#
#
# Convention : Reuss Voigt Hill
#
# Bulk Modulus (GPa) = 71.34436 71.36443 71.35440
# Shear Modulus (GPa) = 33.21988 34.21275 33.71632
#
# Velocity S-wave (km/s) = 3.82547 3.88221 3.85395
# Velocity P-wave (km/s) = 7.13732 7.17867 7.15802
#
# Compressibility (1/GPa) = 0.01401652
#
# Stress axis : x y z
#
# Youngs Moduli (GPa) = 98.93069 98.93069 74.61163
#
# Poissons Ratio (x) = 0.08441 0.33381
# Poissons Ratio (y) = 0.08441 0.33381
# Poissons Ratio (z) = 0.44261 0.44261
#
# Static dielectric constant tensor:
#      x y z
#    x 1.887130 0.000000 0.000000 
#    y 0.000000 1.887130 0.000000 
#    z 0.000000 0.000000 1.885480 
# 
# From -- ./inp_files/1254.got.cif
#   From: 2010.05.17/outbox.cif.g08.bks.cpg/sg112_1_cif.got.tgz:1254.got - 2010.05.20 10:59:04.
