data_PCOD9555959
_publ_section_title
;
Structure prediction by ZEFSAII (Michael W. Deem and Ramdas Pophale) SiO2 
 PCOD9555959
Probable space group: P -4 21 C
;
_chemical_formula_sum "Si O2"
_cell_formula_units_Z 64
_cell_length_a 12.057788
_cell_length_b 12.057788
_cell_length_c 21.318975
_cell_angle_alpha 90.000000
_cell_angle_beta 90.000000
_cell_angle_gamma 90.000000
_cell_volume 3099.571136
_symmetry_space_group_name_H-M "P -4 21 C"
_symmetry_group_IT_number 114
_symmetry_cell_setting 'tetragonal'
loop_
_space_group_symop_operation_xyz
x,y,z
y,-x,-z
-x,-y,z
-y,x,-z
1/2+x,1/2-y,1/2-z
1/2-x,1/2+y,1/2-z
1/2-y,1/2-x,1/2+z
1/2+y,1/2+x,1/2+z
loop_
_atom_site_type_symbol
_atom_site_label
_atom_site_fract_x
_atom_site_fract_y
_atom_site_fract_z
Si Si1 0.784226 0.090484 0.838376
Si Si2 0.914188 0.152611 0.713620
Si Si3 0.324527 0.823893 0.561062
Si Si4 0.240005 0.013427 0.635236
Si Si5 0.830907 0.263060 0.168622
Si Si6 0.332638 0.445601 0.517995
Si Si7 0.201116 0.836307 0.293408
Si Si8 0.120361 0.890857 0.479382
O O1 0.877207 0.120096 0.784984
O O2 0.822869 0.095288 0.910468
O O3 0.689355 0.182573 0.826319
O O4 0.743663 0.963490 0.830931
O O5 0.841242 0.072320 0.670067
O O6 0.875902 0.276549 0.694501
O O7 0.043428 0.147317 0.698254
O O8 0.332537 0.934876 0.603629
O O9 0.271320 0.727519 0.604109
O O10 0.429331 0.777051 0.523811
O O11 0.234796 0.851075 0.507316
O O12 0.257601 0.112905 0.684159
O O13 0.177028 0.077348 0.579353
O O14 0.785208 0.175094 0.219290
O O15 0.374059 0.570924 0.514695
O O16 0.022833 0.874929 0.531200
#
# Coordination Sequence:
#
# PCOD9555959 Si02
#       8
#     8   8   8   8   8   8   8   8
#     4  11  23  43  63  90 131 165 211 269 312 387
#     4  10  23  37  66  96 123 161 207 269 317 380
#     4  10  21  39  60  89 129 161 206 270 311 372
#     4  10  20  36  62  92 126 153 207 259 312 376
#     4  10  22  40  60  92 126 164 208 257 321 374
#     4  11  24  41  65  90 119 171 224 261 310 373
#     4  11  23  37  65  95 125 163 212 260 325 382
#     4   9  19  31  57  90 121 159 197 245 309 372
#
# _framework density 20.648019000000001
#
# number of rings (size 3 to 8) (size 9 to 14) (size 15 to 20)
#    0.000    1.750    2.500    1.125   10.500    0.500 
#    0.000    0.000    0.000    6.750    0.000    0.000 
#    0.000    0.000    0.000    0.000    0.000    0.000 
#
# Total GULP energy -356769.637933 kJ/mol
# GULP energy per Si atom -5574.525593 kJ/mol
# Density = 2.060102 g / cm^3
# Si number density = 20.648019 Si / 1000 Ang^3
#
#
#
# Elastic Constant Matrix: (Units=GPa)
#
#
# Indices 1 2 3 4 5 6 
#
# 1 49.1393 11.6984 4.8889 0.0000 0.0000 0.0000
# 2 11.6984 49.1393 4.8889 0.0000 0.0000 0.0000
# 3 4.8889 4.8889 69.4785 0.0000 0.0000 0.0000
# 4 0.0000 0.0000 0.0000 21.7158 0.0000 0.0000
# 5 0.0000 0.0000 0.0000 0.0000 21.7158 0.0000
# 6 0.0000 0.0000 0.0000 0.0000 0.0000 23.7423
#
#
#
# Elastic Compliance Matrix: (Units=1/GPa)
#
#
# Indices 1 2 3 4 5 6 
#
# 1 0.021667 -0.005042 -0.001170 0.000000 0.000000 0.000000
# 2 -0.005042 0.021667 -0.001170 0.000000 0.000000 0.000000
# 3 -0.001170 -0.001170 0.014558 0.000000 0.000000 0.000000
# 4 0.000000 0.000000 0.000000 0.046049 0.000000 0.000000
# 5 0.000000 0.000000 0.000000 0.000000 0.046049 0.000000
# 6 0.000000 0.000000 0.000000 0.000000 0.000000 0.042119
#
#
# Mechanical properties :
#
#
# Convention : Reuss Voigt Hill
#
# Bulk Modulus (GPa) = 23.18647 23.41216 23.29932
# Shear Modulus (GPa) = 22.59904 23.18685 22.89294
#
# Velocity S-wave (km/s) = 3.31190 3.35469 3.33336
# Velocity P-wave (km/s) = 5.08711 5.13503 5.11113
#
# Compressibility (1/GPa) = 0.04312860
#
# Stress axis : x y z
#
# Youngs Moduli (GPa) = 46.15317 46.15317 68.69277
#
# Poissons Ratio (x) = 0.23269 0.08036
# Poissons Ratio (y) = 0.23269 0.08036
# Poissons Ratio (z) = 0.05399 0.05399
#
# Static dielectric constant tensor:
#      x y z
#    x 1.765030 0.000000 0.000000 
#    y 0.000000 1.765030 0.000000 
#    z 0.000000 0.000000 1.792650 
# 
# From -- ./inp_files/3570.got.cif
#   From: 2010.05.17/outbox.cif.g08.bks.cpg/sg114_2_cif.got.tgz:3570.got - 2010.05.20 11:04:54.
