data_PCOD9555651
_publ_section_title
;
Structure prediction by ZEFSAII (Michael W. Deem and Ramdas Pophale) SiO2 
 PCOD9555651
Probable space group: P -4 21 M 
;
_chemical_formula_sum "Si O2"
_cell_formula_units_Z 34
_cell_length_a 10.472884
_cell_length_b 10.472884
_cell_length_c 12.547186
_cell_angle_alpha 90.000000
_cell_angle_beta 90.000000
_cell_angle_gamma 90.000000
_cell_volume 1376.191663
_symmetry_space_group_name_H-M "P -4 21 M "
_symmetry_group_IT_number 113
_symmetry_cell_setting 'tetragonal'
loop_
_space_group_symop_operation_xyz
x,y,z
y,-x,-z
-x,-y,z
-y,x,-z
1/2+x,1/2-y,-z
1/2-x,1/2+y,-z
1/2-y,1/2-x,z
1/2+y,1/2+x,z
loop_
_atom_site_type_symbol
_atom_site_label
_atom_site_fract_x
_atom_site_fract_y
_atom_site_fract_z
Si Si1 0.987023 0.209453 0.984703
Si Si2 0.802889 0.906373 0.251184
Si Si3 0.500000 0.000000 0.531773
Si Si4 0.298850 0.006245 0.786068
Si Si5 0.795155 0.009270 0.468227
O O1 0.998108 0.301467 0.084756
O O2 0.956021 0.243269 0.863860
O O3 0.115707 0.127853 0.982153
O O4 0.705808 0.794193 0.282351
O O5 0.943674 0.838978 0.242000
O O6 0.791026 0.013432 0.339956
O O7 0.342486 0.998818 0.519483
O O8 0.404991 0.904991 0.746536
O O9 0.355123 0.144878 0.753995
O O10 0.874623 0.880293 0.490857
#
# Coordination Sequence:
#
# PCOD9555651 Si02
#       5
#     8   8   2   8   8
#     4   9  18  32  58  87 130 180 228 281 344 417
#     4  10  20  40  65  95 134 177 233 296 353 427
#     4  12  24  52  80 108 140 186 244 308 376 444
#     4   9  18  34  57  92 135 180 226 284 351 422
#     4  11  26  48  78 107 146 192 242 309 376 445
#
# _framework density 24.705862
#
# number of rings (size 3 to 8) (size 9 to 14) (size 15 to 20)
#    0.000    2.118    1.176    1.412    0.000    8.471 
#    4.235    0.000   10.353    0.000    0.000    0.000 
#    0.000    0.000    0.000    0.000    0.000    0.000 
#
# Total GULP energy -189576.821464 kJ/mol
# GULP energy per Si atom -5575.788867 kJ/mol
# Density = 2.464963 g / cm^3
# Si number density = 24.705862 Si / 1000 Ang^3
#
#
#
# Elastic Constant Matrix: (Units=GPa)
#
#
# Indices 1 2 3 4 5 6 
#
# 1 99.4210 25.8978 15.0669 0.0000 0.0000 0.0000
# 2 25.8978 99.4202 15.0670 0.0000 0.0000 0.0000
# 3 15.0669 15.0670 115.3290 0.0000 0.0000 0.0000
# 4 0.0000 0.0000 0.0000 42.5887 0.0000 0.0000
# 5 0.0000 0.0000 0.0000 0.0000 42.5897 0.0000
# 6 0.0000 0.0000 0.0000 0.0000 0.0000 116.4572
#
#
#
# Elastic Compliance Matrix: (Units=1/GPa)
#
#
# Indices 1 2 3 4 5 6 
#
# 1 0.010920 -0.002681 -0.001076 0.000000 0.000000 0.000000
# 2 -0.002681 0.010920 -0.001076 0.000000 0.000000 0.000000
# 3 -0.001076 -0.001076 0.008952 0.000000 0.000000 0.000000
# 4 0.000000 0.000000 0.000000 0.023480 0.000000 0.000000
# 5 0.000000 0.000000 0.000000 0.000000 0.023480 0.000000
# 6 0.000000 0.000000 0.000000 0.000000 0.000000 0.008587
#
#
# Mechanical properties :
#
#
# Convention : Reuss Voigt Hill
#
# Bulk Modulus (GPa) = 47.33993 47.35931 47.34962
# Shear Modulus (GPa) = 48.52103 57.53635 53.02869
#
# Velocity S-wave (km/s) = 4.43645 4.83106 4.63795
# Velocity P-wave (km/s) = 6.74135 7.09434 6.92010
#
# Compressibility (1/GPa) = 0.02112382
#
# Stress axis : x y z
#
# Youngs Moduli (GPa) = 91.57674 91.57591 111.70604
#
# Poissons Ratio (x) = 0.24555 0.12023
# Poissons Ratio (y) = 0.24555 0.12023
# Poissons Ratio (z) = 0.09856 0.09856
#
# Static dielectric constant tensor:
#      x y z
#    x 1.872100 0.000000 0.000000 
#    y 0.000000 1.872100 0.000000 
#    z 0.000000 0.000000 1.993910 
# 
# From -- ./inp_files/1638.got.cif
#   From: 2010.05.17/outbox.cif.g08.bks.cpg/sg113_cif.got.tgz:1638.got - 2010.05.20 11:03:00.
