data_PCOD9555796
_publ_section_title
;
Structure prediction by ZEFSAII (Michael W. Deem and Ramdas Pophale) SiO2 
 PCOD9555796
Probable space group: P -4 21 M 
;
_chemical_formula_sum "Si O2"
_cell_formula_units_Z 38
_cell_length_a 18.478176
_cell_length_b 18.478176
_cell_length_c 4.929975
_cell_angle_alpha 90.000000
_cell_angle_beta 90.000000
_cell_angle_gamma 90.000000
_cell_volume 1683.305396
_symmetry_space_group_name_H-M "P -4 21 M "
_symmetry_group_IT_number 113
_symmetry_cell_setting 'tetragonal'
loop_
_space_group_symop_operation_xyz
x,y,z
y,-x,-z
-x,-y,z
-y,x,-z
1/2+x,1/2-y,-z
1/2-x,1/2+y,-z
1/2-y,1/2-x,z
1/2+y,1/2+x,z
loop_
_atom_site_type_symbol
_atom_site_label
_atom_site_fract_x
_atom_site_fract_y
_atom_site_fract_z
Si Si1 0.348744 0.033685 0.804536
Si Si2 0.500000 0.500000 0.500000
Si Si3 0.255434 0.070327 0.303715
Si Si4 0.856929 0.814043 0.294654
Si Si5 0.359613 0.859613 0.769491
Si Si6 0.360195 0.444189 0.796489
O O1 0.420509 0.079492 0.746986
O O2 0.285261 0.060928 0.605425
O O3 0.359037 0.948699 0.768257
O O4 0.320987 0.050732 0.105993
O O5 0.439522 0.462973 0.689421
O O6 0.220125 0.148048 0.253043
O O7 0.191841 0.012705 0.246498
O O8 0.859251 0.729750 0.232529
O O9 0.881310 0.828398 0.602888
O O10 0.915237 0.853971 0.100997
#
# Coordination Sequence:
#
# PCOD9555796 Si02
#       6
#     8   2   8   8   4   8
#     4  12  28  50  78 108 152 195 258 312 384 451
#     4  12  28  42  80 110 156 214 240 298 408 430
#     4  12  25  50  71 108 151 196 244 321 367 456
#     4  12  28  45  75 107 154 196 250 306 378 442
#     4  12  27  52  78 112 146 209 244 320 380 464
#     4  12  25  46  70 108 151 200 248 306 358 467
#
# _framework density 22.574632000000001
#
# number of rings (size 3 to 8) (size 9 to 14) (size 15 to 20)
#    0.000    0.000    6.316    2.211    5.895    4.211 
#    0.000    2.105    0.000    0.000    0.000    0.000 
#    0.000    0.000    0.000    0.000    0.000    0.000 
#
# Total GULP energy -211941.274247 kJ/mol
# GULP energy per Si atom -5577.401954 kJ/mol
# Density = 2.252325 g / cm^3
# Si number density = 22.574632 Si / 1000 Ang^3
#
#
#
# Elastic Constant Matrix: (Units=GPa)
#
#
# Indices 1 2 3 4 5 6 
#
# 1 126.0990 86.4132 -13.8023 0.0000 0.0000 0.0000
# 2 86.4132 126.0934 -13.8064 0.0000 0.0000 0.0000
# 3 -13.8023 -13.8064 42.5680 0.0000 0.0000 0.0000
# 4 0.0000 0.0000 0.0000 87.9319 0.0000 0.0000
# 5 0.0000 0.0000 0.0000 0.0000 87.8457 0.0000
# 6 0.0000 0.0000 0.0000 0.0000 0.0000 56.6869
#
#
#
# Elastic Compliance Matrix: (Units=1/GPa)
#
#
# Indices 1 2 3 4 5 6 
#
# 1 0.015056 -0.010144 0.001592 0.000000 0.000000 0.000000
# 2 -0.010144 0.015057 0.001594 0.000000 0.000000 0.000000
# 3 0.001592 0.001594 0.024525 0.000000 0.000000 0.000000
# 4 0.000000 0.000000 0.000000 0.011372 0.000000 0.000000
# 5 0.000000 0.000000 0.000000 0.000000 0.011384 0.000000
# 6 0.000000 0.000000 0.000000 0.000000 0.000000 0.017641
#
#
# Mechanical properties :
#
#
# Convention : Reuss Voigt Hill
#
# Bulk Modulus (GPa) = 24.55623 45.81883 35.18753
# Shear Modulus (GPa) = 40.80865 62.22331 51.51598
#
# Velocity S-wave (km/s) = 4.25634 5.25578 4.78224
# Velocity P-wave (km/s) = 5.92087 7.56119 6.79074
#
# Compressibility (1/GPa) = 0.04072286
#
# Stress axis : x y z
#
# Youngs Moduli (GPa) = 66.42024 66.41572 40.77457
#
# Poissons Ratio (x) = 0.67369 -0.06490
# Poissons Ratio (y) = 0.67373 -0.06501
# Poissons Ratio (z) = -0.10572 -0.10590
#
# Static dielectric constant tensor:
#      x y z
#    x 1.797500 0.000000 0.000000 
#    y 0.000000 1.797510 0.000000 
#    z 0.000000 0.000000 1.809950 
# 
# From -- ./inp_files/349.got.cif
#   From: 2010.05.17/outbox.cif.g08.bks.cpg/sg113_cif.got.tgz:349.got - 2010.05.20 11:03:00.
