data_PCOD9555097
_publ_section_title
;
Structure prediction by ZEFSAII (Michael W. Deem and Ramdas Pophale) SiO2 
 PCOD9555097
Probable space group: P -4 2 C
;
_chemical_formula_sum "Si O2"
_cell_formula_units_Z 16
_cell_length_a 4.983536
_cell_length_b 4.983536
_cell_length_c 25.533884
_cell_angle_alpha 90.000000
_cell_angle_beta 90.000000
_cell_angle_gamma 90.000000
_cell_volume 634.150123
_symmetry_space_group_name_H-M "P -4 2 C"
_symmetry_group_IT_number 112
_symmetry_cell_setting 'tetragonal'
loop_
_space_group_symop_operation_xyz
x,y,z
y,-x,-z
-x,-y,z
-y,x,-z
x,-y,1/2-z
-x,y,1/2-z
-y,-x,1/2+z
y,x,1/2+z
loop_
_atom_site_type_symbol
_atom_site_label
_atom_site_fract_x
_atom_site_fract_y
_atom_site_fract_z
Si Si1 0.304632 0.746486 0.410391
Si Si2 0.000000 0.000000 0.179376
Si Si3 0.000000 0.000000 0.000000
Si Si4 0.000000 0.500000 0.750000
O O1 0.500000 0.500000 0.410696
O O2 0.123045 0.777003 0.358873
O O3 0.500000 0.000000 0.410695
O O4 0.121965 0.778523 0.461475
O O5 0.736360 0.115171 0.210976
#
# Coordination Sequence:
#
# PCOD9555097 Si02
#       4
#     8   4   2   2
#     4  11  26  48  79 112 162 210 266 333 401 483
#     4  10  22  46  82 112 162 204 274 326 412 476
#     4  10  28  42  76 122 160 214 272 330 404 482
#     4  10  20  46  82 118 158 210 266 338 402 480
#
# _framework density 25.230615
#
# number of rings (size 3 to 8) (size 9 to 14) (size 15 to 20)
#    0.000    1.500    2.500    0.000    7.000    6.000 
#    0.000    1.250   11.000    0.000    0.000    0.000 
#    0.000    0.000    0.000    0.000    0.000    0.000 
#
# Total GULP energy -89353.155715 kJ/mol
# GULP energy per Si atom -5584.572232 kJ/mol
# Density = 2.517319 g / cm^3
# Si number density = 25.230615 Si / 1000 Ang^3
#
#
#
# Elastic Constant Matrix: (Units=GPa)
#
#
# Indices 1 2 3 4 5 6 
#
# 1 205.9636 84.5343 72.0651 0.0000 0.0000 0.0000
# 2 84.5343 205.9636 72.0651 0.0000 0.0000 0.0000
# 3 72.0651 72.0651 171.2305 0.0000 0.0000 0.0000
# 4 0.0000 0.0000 0.0000 -12.1635 0.0000 0.0000
# 5 0.0000 0.0000 0.0000 0.0000 -12.1635 0.0000
# 6 0.0000 0.0000 0.0000 0.0000 0.0000 65.9613
#
#
#
# Elastic Compliance Matrix: (Units=1/GPa)
#
#
# Indices 1 2 3 4 5 6 
#
# 1 0.006293 -0.001942 -0.001831 0.000000 0.000000 0.000000
# 2 -0.001942 0.006293 -0.001831 0.000000 0.000000 0.000000
# 3 -0.001831 -0.001831 0.007381 0.000000 0.000000 0.000000
# 4 0.000000 0.000000 0.000000 -0.082213 0.000000 0.000000
# 5 0.000000 0.000000 0.000000 0.000000 -0.082213 0.000000
# 6 0.000000 0.000000 0.000000 0.000000 0.000000 0.015160
#
#
# Mechanical properties :
#
#
# Convention : Reuss Voigt Hill
#
# Bulk Modulus (GPa) = 114.17323 115.60963 114.89143
# Shear Modulus (GPa) = -43.41396 31.95974 -5.72711
#
# Velocity S-wave (km/s) = -4.15261 3.56294 -1.50825
# Velocity P-wave (km/s) = 4.72841 7.92759 6.52704
#
# Compressibility (1/GPa) = 0.00875862
#
# Stress axis : x y z
#
# Youngs Moduli (GPa) = 158.90508 158.90508 135.47548
#
# Poissons Ratio (x) = 0.30862 0.24807
# Poissons Ratio (y) = 0.30862 0.24807
# Poissons Ratio (z) = 0.29098 0.29098
#
# Static dielectric constant tensor:
#      x y z
#    x 1.948440 0.000000 0.000000 
#    y 0.000000 1.948440 0.000000 
#    z 0.000000 0.000000 2.104260 
# 
# From -- ./inp_files/5018.got.cif
#   From: 2010.05.17/outbox.cif.g08.bks.cpg/sg112_3_cif.got.tgz:5018.got - 2010.05.20 10:59:04.
