data_PCOD9555794
_publ_section_title
;
Structure prediction by ZEFSAII (Michael W. Deem and Ramdas Pophale) SiO2 
 PCOD9555794
Probable space group: P -4 21 M 
;
_chemical_formula_sum "Si O2"
_cell_formula_units_Z 24
_cell_length_a 13.133167
_cell_length_b 13.133167
_cell_length_c 6.410491
_cell_angle_alpha 90.000000
_cell_angle_beta 90.000000
_cell_angle_gamma 90.000000
_cell_volume 1105.681971
_symmetry_space_group_name_H-M "P -4 21 M "
_symmetry_group_IT_number 113
_symmetry_cell_setting 'tetragonal'
loop_
_space_group_symop_operation_xyz
x,y,z
y,-x,-z
-x,-y,z
-y,x,-z
1/2+x,1/2-y,-z
1/2-x,1/2+y,-z
1/2-y,1/2-x,z
1/2+y,1/2+x,z
loop_
_atom_site_type_symbol
_atom_site_label
_atom_site_fract_x
_atom_site_fract_y
_atom_site_fract_z
Si Si1 0.000000 0.500000 0.851222
Si Si2 0.629604 0.563056 0.881411
Si Si3 0.104373 0.604373 0.231201
Si Si4 0.000000 0.000000 0.500000
Si Si5 0.723387 0.223387 0.251821
Si Si6 0.896734 0.603267 0.464616
O O1 0.066626 0.433375 0.692912
O O2 0.069999 0.569999 0.000201
O O3 0.591282 0.532634 0.651553
O O4 0.729999 0.627451 0.867151
O O5 0.630454 0.460991 0.017554
O O6 0.189771 0.689771 0.253816
O O7 0.138187 0.498837 0.344860
O O8 0.687367 0.187367 0.482178
#
# Coordination Sequence:
#
# PCOD9555794 Si02
#       6
#     2   8   4   2   4   4
#     4   8  18  44  68  78 140 160 190 276 300 346
#     4   9  22  44  61  93 129 159 207 259 302 366
#     4   9  22  44  61  93 129 159 207 259 302 366
#     4   8  18  44  68  78 140 160 190 276 300 346
#     4  12  24  36  74  92 116 174 208 240 326 364
#     4   9  22  44  61  93 129 159 207 259 302 366
#
# _framework density 21.706057999999999
#
# number of rings (size 3 to 8) (size 9 to 14) (size 15 to 20)
#    0.000    3.333    0.000    0.000    9.333    0.000 
#    0.000   13.333    0.000    0.000    0.000    0.000 
#    0.000    0.000    0.000    0.000    0.000    0.000 
#
# Total GULP energy -134046.681194 kJ/mol
# GULP energy per Si atom -5585.278383 kJ/mol
# Density = 2.165665 g / cm^3
# Si number density = 21.706058 Si / 1000 Ang^3
#
#
#
# Elastic Constant Matrix: (Units=GPa)
#
#
# Indices 1 2 3 4 5 6 
#
# 1 49.2007 7.0856 7.3798 0.0000 0.0000 0.0000
# 2 7.0856 49.1986 7.3796 0.0000 0.0000 0.0000
# 3 7.3798 7.3796 105.9338 0.0000 0.0000 0.0000
# 4 0.0000 0.0000 0.0000 13.7478 0.0000 0.0000
# 5 0.0000 0.0000 0.0000 0.0000 13.7481 0.0000
# 6 0.0000 0.0000 0.0000 0.0000 0.0000 69.8249
#
#
#
# Elastic Compliance Matrix: (Units=1/GPa)
#
#
# Indices 1 2 3 4 5 6 
#
# 1 0.020921 -0.002824 -0.001261 0.000000 0.000000 0.000000
# 2 -0.002824 0.020922 -0.001261 0.000000 0.000000 0.000000
# 3 -0.001261 -0.001261 0.009616 0.000000 0.000000 0.000000
# 4 0.000000 0.000000 0.000000 0.072739 0.000000 0.000000
# 5 0.000000 0.000000 0.000000 0.000000 0.072738 0.000000
# 6 0.000000 0.000000 0.000000 0.000000 0.000000 0.014322
#
#
# Mechanical properties :
#
#
# Convention : Reuss Voigt Hill
#
# Bulk Modulus (GPa) = 24.52958 27.55812 26.04385
# Shear Modulus (GPa) = 21.22821 31.63002 26.42912
#
# Velocity S-wave (km/s) = 3.13067 3.82147 3.49319
# Velocity P-wave (km/s) = 4.93897 5.67407 5.31924
#
# Compressibility (1/GPa) = 0.04076711
#
# Stress axis : x y z
#
# Youngs Moduli (GPa) = 47.79958 47.79748 103.99865
#
# Poissons Ratio (x) = 0.13498 0.13111
# Poissons Ratio (y) = 0.13498 0.13111
# Poissons Ratio (z) = 0.06026 0.06026
#
# Static dielectric constant tensor:
#      x y z
#    x 1.824610 0.000000 0.000000 
#    y 0.000000 1.824610 0.000000 
#    z 0.000000 0.000000 1.767550 
# 
# From -- ./inp_files/208.got.cif
#   From: 2010.05.17/outbox.cif.g08.bks.cpg/sg113_cif.got.tgz:208.got - 2010.05.20 11:03:00.
