data_PCOD9555717
_publ_section_title
;
Structure prediction by ZEFSAII (Michael W. Deem and Ramdas Pophale) SiO2 
 PCOD9555717
Probable space group: P -4 21 M 
;
_chemical_formula_sum "Si O2"
_cell_formula_units_Z 48
_cell_length_a 12.749607
_cell_length_b 12.749607
_cell_length_c 14.807161
_cell_angle_alpha 90.000000
_cell_angle_beta 90.000000
_cell_angle_gamma 90.000000
_cell_volume 2406.940722
_symmetry_space_group_name_H-M "P -4 21 M "
_symmetry_group_IT_number 113
_symmetry_cell_setting 'tetragonal'
loop_
_space_group_symop_operation_xyz
x,y,z
y,-x,-z
-x,-y,z
-y,x,-z
1/2+x,1/2-y,-z
1/2-x,1/2+y,-z
1/2-y,1/2-x,z
1/2+y,1/2+x,z
loop_
_atom_site_type_symbol
_atom_site_label
_atom_site_fract_x
_atom_site_fract_y
_atom_site_fract_z
Si Si1 0.365762 0.691593 0.488274
Si Si2 0.000671 0.877529 0.351005
Si Si3 0.756934 0.430090 0.819646
Si Si4 0.002838 0.672564 0.635343
Si Si5 0.080566 0.247282 0.189951
Si Si6 0.175180 0.502447 0.003635
O O1 0.263204 0.763204 0.495490
O O2 0.401070 0.643486 0.583433
O O3 0.357424 0.600977 0.413935
O O4 0.458977 0.766230 0.450654
O O5 0.992628 0.796093 0.269219
O O6 0.000000 0.000000 0.323089
O O7 0.868449 0.368449 0.818370
O O8 0.755796 0.489793 0.724649
O O9 0.667267 0.343314 0.821780
O O10 0.756929 0.494281 0.912376
O O11 0.112476 0.612476 0.618953
O O12 0.916822 0.583179 0.655860
O O13 0.146033 0.353968 0.212002
O O14 0.021559 0.264563 0.095780
O O15 0.088740 0.411261 0.993043
O O16 0.111471 0.611471 0.012564
#
# Coordination Sequence:
#
# PCOD9555717 Si02
#       6
#     8   8   8   8   8   8
#     4  11  23  39  62  89 116 157 201 246 304 360
#     4  12  23  43  60  83 120 157 197 242 302 364
#     4   9  17  32  57  86 112 148 190 230 285 346
#     4   9  18  34  58  90 120 146 191 248 292 340
#     4  10  22  39  61  86 115 155 199 241 291 355
#     4   9  18  36  60  85 117 153 191 239 292 344
#
# _framework density 19.942326000000001
#
# number of rings (size 3 to 8) (size 9 to 14) (size 15 to 20)
#    0.000    2.000    1.667    2.000    0.000    3.333 
#    6.000    0.000    0.000    5.000    0.000    0.000 
#    0.000    0.000    0.000    0.000    0.000    0.000 
#
# Total GULP energy -268073.532882 kJ/mol
# GULP energy per Si atom -5584.865268 kJ/mol
# Density = 1.989694 g / cm^3
# Si number density = 19.942326 Si / 1000 Ang^3
#
#
#
# Elastic Constant Matrix: (Units=GPa)
#
#
# Indices 1 2 3 4 5 6 
#
# 1 52.2148 6.9325 16.2071 0.0000 0.0000 0.0000
# 2 6.9325 52.2147 16.2070 0.0000 0.0000 0.0000
# 3 16.2071 16.2070 81.4508 0.0000 0.0000 0.0000
# 4 0.0000 0.0000 0.0000 37.7900 0.0000 0.0000
# 5 0.0000 0.0000 0.0000 0.0000 37.7895 0.0000
# 6 0.0000 0.0000 0.0000 0.0000 0.0000 28.4227
#
#
#
# Elastic Compliance Matrix: (Units=1/GPa)
#
#
# Indices 1 2 3 4 5 6 
#
# 1 0.020530 -0.001554 -0.003776 0.000000 0.000000 0.000000
# 2 -0.001554 0.020530 -0.003776 0.000000 0.000000 0.000000
# 3 -0.003776 -0.003776 0.013780 0.000000 0.000000 0.000000
# 4 0.000000 0.000000 0.000000 0.026462 0.000000 0.000000
# 5 0.000000 0.000000 0.000000 0.000000 0.026462 0.000000
# 6 0.000000 0.000000 0.000000 0.000000 0.000000 0.035183
#
#
# Mechanical properties :
#
#
# Convention : Reuss Voigt Hill
#
# Bulk Modulus (GPa) = 27.30085 29.39707 28.34896
# Shear Modulus (GPa) = 28.84037 30.56935 29.70486
#
# Velocity S-wave (km/s) = 3.80700 3.91946 3.86364
# Velocity P-wave (km/s) = 5.74839 5.93767 5.84380
#
# Compressibility (1/GPa) = 0.03662890
#
# Stress axis : x y z
#
# Youngs Moduli (GPa) = 48.70934 48.70927 72.56901
#
# Poissons Ratio (x) = 0.07568 0.27401
# Poissons Ratio (y) = 0.07568 0.27401
# Poissons Ratio (z) = 0.18392 0.18392
#
# Static dielectric constant tensor:
#      x y z
#    x 1.715520 0.000000 0.000000 
#    y 0.000000 1.715520 0.000000 
#    z 0.000000 0.000000 1.696270 
# 
# From -- ./inp_files/2244.got.cif
#   From: 2010.05.17/outbox.cif.g08.bks.cpg/sg113_cif.got.tgz:2244.got - 2010.05.20 11:03:00.
