data_PCOD9555627
_publ_section_title
;
Structure prediction by ZEFSAII (Michael W. Deem and Ramdas Pophale) SiO2 
 PCOD9555627
Probable space group: P -4 21 M 
;
_chemical_formula_sum "Si O2"
_cell_formula_units_Z 56
_cell_length_a 11.353368
_cell_length_b 11.353368
_cell_length_c 21.608112
_cell_angle_alpha 90.000000
_cell_angle_beta 90.000000
_cell_angle_gamma 90.000000
_cell_volume 2785.263271
_symmetry_space_group_name_H-M "P -4 21 M "
_symmetry_group_IT_number 113
_symmetry_cell_setting 'tetragonal'
loop_
_space_group_symop_operation_xyz
x,y,z
y,-x,-z
-x,-y,z
-y,x,-z
1/2+x,1/2-y,-z
1/2-x,1/2+y,-z
1/2-y,1/2-x,z
1/2+y,1/2+x,z
loop_
_atom_site_type_symbol
_atom_site_label
_atom_site_fract_x
_atom_site_fract_y
_atom_site_fract_z
Si Si1 0.645796 0.650035 0.711039
Si Si2 0.850469 0.847950 0.853254
Si Si3 0.001945 0.803628 0.501302
Si Si4 0.490763 0.808951 0.631501
Si Si5 0.931980 0.247670 0.930976
Si Si6 0.951679 0.735106 0.062675
Si Si7 0.308109 0.009167 0.365012
O O1 0.747382 0.752619 0.709923
O O2 0.616936 0.627241 0.782326
O O3 0.536143 0.700818 0.672492
O O4 0.701774 0.537720 0.676844
O O5 0.763657 0.736344 0.853536
O O6 0.969416 0.807305 0.886944
O O7 0.784211 0.951127 0.890382
O O8 0.020525 0.732413 0.564105
O O9 0.113378 0.888359 0.490311
O O10 0.984512 0.727014 0.440178
O O11 0.590794 0.909207 0.636982
O O12 0.368505 0.868505 0.651149
O O13 0.858781 0.358781 0.904903
O O14 0.837233 0.145784 0.944981
O O15 0.990570 0.284317 0.995773
O O16 0.881915 0.618086 0.083319
O O17 0.407527 0.907527 0.362959
O O18 0.370827 0.129174 0.344251
#
# Coordination Sequence:
#
# PCOD9555627 Si02
#       7
#     8   8   8   8   8   8   8
#     4   9  20  39  59  85 125 161 202 257 307 371
#     4  11  23  39  63  95 127 167 210 258 320 379
#     4  11  22  35  54  84 118 155 200 257 320 370
#     4  10  20  36  60  86 114 157 207 255 314 374
#     4  11  23  40  63  92 126 166 212 264 321 376
#     4  11  23  40  63  92 126 166 212 264 321 376
#     4  10  20  36  60  86 114 157 207 255 314 374
#
# _framework density 20.105817999999999
#
# number of rings (size 3 to 8) (size 9 to 14) (size 15 to 20)
#    0.000    1.571    2.857    2.143    0.000    6.000 
#    0.000    5.714    0.000    0.000    0.000    0.000 
#    0.000    0.000    0.000    0.000    0.000    0.000 
#
# Total GULP energy -312988.203001 kJ/mol
# GULP energy per Si atom -5589.075054 kJ/mol
# Density = 2.006006 g / cm^3
# Si number density = 20.105818 Si / 1000 Ang^3
#
#
#
# Elastic Constant Matrix: (Units=GPa)
#
#
# Indices 1 2 3 4 5 6 
#
# 1 65.3094 33.6671 26.6022 0.0000 0.0000 0.0000
# 2 33.6671 65.3287 26.6091 0.0000 0.0000 0.0000
# 3 26.6022 26.6091 112.0953 0.0000 0.0000 0.0000
# 4 0.0000 0.0000 0.0000 29.8932 0.0000 0.0000
# 5 0.0000 0.0000 0.0000 0.0000 29.8937 0.0000
# 6 0.0000 0.0000 0.0000 0.0000 0.0000 22.2761
#
#
#
# Elastic Compliance Matrix: (Units=1/GPa)
#
#
# Indices 1 2 3 4 5 6 
#
# 1 0.021590 -0.010007 -0.002748 0.000000 0.000000 0.000000
# 2 -0.010007 0.021584 -0.002749 0.000000 0.000000 0.000000
# 3 -0.002748 -0.002749 0.010226 0.000000 0.000000 0.000000
# 4 0.000000 0.000000 0.000000 0.033452 0.000000 0.000000
# 5 0.000000 0.000000 0.000000 0.000000 0.033452 0.000000
# 6 0.000000 0.000000 0.000000 0.000000 0.000000 0.044891
#
#
# Mechanical properties :
#
#
# Convention : Reuss Voigt Hill
#
# Bulk Modulus (GPa) = 44.65965 46.27670 45.46817
# Shear Modulus (GPa) = 24.54999 26.80294 25.67647
#
# Velocity S-wave (km/s) = 3.49813 3.65512 3.57748
# Velocity P-wave (km/s) = 6.21099 6.39372 6.30302
#
# Compressibility (1/GPa) = 0.02239158
#
# Stress axis : x y z
#
# Youngs Moduli (GPa) = 46.31841 46.33093 97.79309
#
# Poissons Ratio (x) = 0.46363 0.26875
# Poissons Ratio (y) = 0.46350 0.26881
# Poissons Ratio (z) = 0.12729 0.12735
#
# Static dielectric constant tensor:
#      x y z
#    x 1.718490 0.000000 0.000000 
#    y 0.000000 1.718490 0.000000 
#    z 0.000000 0.000000 1.666680 
# 
# From -- ./inp_files/2731.got.cif
#   From: 2010.05.17/outbox.cif.g08.bks.cpg/sg113_cif.got.tgz:2731.got - 2010.05.20 11:03:00.
