data_PCOD9555521
_publ_section_title
;
Structure prediction by ZEFSAII (Michael W. Deem and Ramdas Pophale) SiO2 
 PCOD9555521
Probable space group: P -4 21 M 
;
_chemical_formula_sum "Si O2"
_cell_formula_units_Z 56
_cell_length_a 12.093399
_cell_length_b 12.093399
_cell_length_c 20.500594
_cell_angle_alpha 90.000000
_cell_angle_beta 90.000000
_cell_angle_gamma 90.000000
_cell_volume 2998.218010
_symmetry_space_group_name_H-M "P -4 21 M "
_symmetry_group_IT_number 113
_symmetry_cell_setting 'tetragonal'
loop_
_space_group_symop_operation_xyz
x,y,z
y,-x,-z
-x,-y,z
-y,x,-z
1/2+x,1/2-y,-z
1/2-x,1/2+y,-z
1/2-y,1/2-x,z
1/2+y,1/2+x,z
loop_
_atom_site_type_symbol
_atom_site_label
_atom_site_fract_x
_atom_site_fract_y
_atom_site_fract_z
Si Si1 0.609534 0.286690 0.082756
Si Si2 0.575183 0.256456 0.707086
Si Si3 0.359914 0.321136 0.060446
Si Si4 0.409370 0.344099 0.499995
Si Si5 0.249757 0.077834 0.358124
Si Si6 0.507518 0.627276 0.832780
Si Si7 0.829546 0.842265 0.644636
O O1 0.673189 0.173189 0.089595
O O2 0.479238 0.269881 0.075069
O O3 0.639533 0.367435 0.142532
O O4 0.649830 0.344013 0.015430
O O5 0.635417 0.135417 0.701120
O O6 0.666933 0.341555 0.680396
O O7 0.540851 0.287555 0.780715
O O8 0.462324 0.289837 0.669411
O O9 0.261705 0.238296 0.079371
O O10 0.361265 0.431769 0.103233
O O11 0.362607 0.463519 0.479734
O O12 0.406802 0.269226 0.436101
O O13 0.348232 0.315557 0.566344
O O14 0.373537 0.126464 0.343991
O O15 0.204475 0.953870 0.343360
O O16 0.500000 0.500000 0.807577
O O17 0.746204 0.753797 0.673919
#
# Coordination Sequence:
#
# PCOD9555521 Si02
#       7
#     8   8   8   8   8   8   8
#     4  10  20  34  55  83 115 151 191 234 284 341
#     4  11  23  40  61  85 116 155 202 245 289 353
#     4  10  19  34  56  83 116 149 188 236 285 337
#     4   9  16  31  57  84 111 148 192 242 295 349
#     4  10  20  36  59  84 114 151 200 249 294 351
#     4  10  20  35  61  85 113 148 194 242 287 346
#     4  11  22  36  56  83 120 156 195 243 299 358
#
# _framework density 18.677762000000001
#
# number of rings (size 3 to 8) (size 9 to 14) (size 15 to 20)
#    0.000    1.857    2.857    2.143    0.000    1.429 
#    0.000    0.000    0.000    3.000    0.000    4.000 
#    0.000    0.000    0.000    0.000    0.000    0.000 
#
# Total GULP energy -311801.546033 kJ/mol
# GULP energy per Si atom -5567.884751 kJ/mol
# Density = 1.863525 g / cm^3
# Si number density = 18.677762 Si / 1000 Ang^3
#
#
#
# Elastic Constant Matrix: (Units=GPa)
#
#
# Indices 1 2 3 4 5 6 
#
# 1 70.9076 39.1021 -0.7293 0.0000 0.0000 0.0000
# 2 39.1021 70.8979 -0.7310 0.0000 0.0000 0.0000
# 3 -0.7293 -0.7310 32.9668 0.0000 0.0000 0.0000
# 4 0.0000 0.0000 0.0000 2.7718 0.0000 0.0000
# 5 0.0000 0.0000 0.0000 0.0000 2.7729 0.0000
# 6 0.0000 0.0000 0.0000 0.0000 0.0000 33.7844
#
#
#
# Elastic Compliance Matrix: (Units=1/GPa)
#
#
# Indices 1 2 3 4 5 6 
#
# 1 0.020268 -0.011176 0.000201 0.000000 0.000000 0.000000
# 2 -0.011176 0.020271 0.000202 0.000000 0.000000 0.000000
# 3 0.000201 0.000202 0.030342 0.000000 0.000000 0.000000
# 4 0.000000 0.000000 0.000000 0.360775 0.000000 0.000000
# 5 0.000000 0.000000 0.000000 0.000000 0.360639 0.000000
# 6 0.000000 0.000000 0.000000 0.000000 0.000000 0.029599
#
#
# Mechanical properties :
#
#
# Convention : Reuss Voigt Hill
#
# Bulk Modulus (GPa) = 20.26984 27.78399 24.02691
# Shear Modulus (GPa) = 5.81472 17.00785 11.41129
#
# Velocity S-wave (km/s) = 1.76633 3.02088 2.47443
# Velocity P-wave (km/s) = 3.87761 5.20340 4.58864
#
# Compressibility (1/GPa) = 0.04933439
#
# Stress axis : x y z
#
# Youngs Moduli (GPa) = 49.33850 49.33167 32.95714
#
# Poissons Ratio (x) = 0.55135 -0.00661
# Poissons Ratio (y) = 0.55143 -0.00667
# Poissons Ratio (z) = -0.00989 -0.00998
#
# Static dielectric constant tensor:
#      x y z
#    x 1.660630 0.000000 0.000000 
#    y 0.000000 1.660620 0.000000 
#    z 0.000000 0.000000 1.696800 
# 
# From -- ./inp_files/2712.got.cif
#   From: 2010.05.17/outbox.cif.g08.bks.cpg/sg113_cif.got.tgz:2712.got - 2010.05.20 11:03:00.
