data_PCOD9555369
_publ_section_title
;
Structure prediction by ZEFSAII (Michael W. Deem and Ramdas Pophale) SiO2 
 PCOD9555369
Probable space group: P -4 2 C
;
_chemical_formula_sum "Si O2"
_cell_formula_units_Z 24
_cell_length_a 6.960926
_cell_length_b 6.960926
_cell_length_c 14.264723
_cell_angle_alpha 90.000000
_cell_angle_beta 90.000000
_cell_angle_gamma 90.000000
_cell_volume 691.189889
_symmetry_space_group_name_H-M "P -4 2 C"
_symmetry_group_IT_number 112
_symmetry_cell_setting 'tetragonal'
loop_
_space_group_symop_operation_xyz
x,y,z
y,-x,-z
-x,-y,z
-y,x,-z
x,-y,1/2-z
-x,y,1/2-z
-y,-x,1/2+z
y,x,1/2+z
loop_
_atom_site_type_symbol
_atom_site_label
_atom_site_fract_x
_atom_site_fract_y
_atom_site_fract_z
Si Si1 0.250000 0.250000 1.000000
Si Si2 0.500000 0.775206 0.645656
Si Si3 0.724794 0.000000 0.145656
O O1 0.250000 0.250000 0.878781
O O2 0.254730 0.500000 0.024005
O O3 0.000000 0.245270 0.975995
O O4 0.500000 0.688429 0.750000
O O5 0.750000 0.750000 0.621219
O O6 0.500000 0.000000 0.655680
O O7 0.500000 0.000000 0.155680
O O8 0.811571 0.000000 0.250000
#
# Coordination Sequence:
#
# PCOD9555369 Si02
#       3
#     8   8   8
#     4  12  20  46  64  96 126 168 212 262 316 372
#     4  11  24  43  66  93 131 171 209 259 320 379
#     4  11  24  43  66  93 131 171 209 259 320 379
#
# _framework density 34.722732999999998
#
# number of rings (size 3 to 8) (size 9 to 14) (size 15 to 20)
#    0.000    0.667    6.667    2.000    0.000    1.333 
#    0.000    3.333    0.000    0.000    0.000    0.000 
#    0.000    0.000    0.000    0.000    0.000    0.000 
#
# Total GULP energy -134289.454505 kJ/mol
# GULP energy per Si atom -5595.393938 kJ/mol
# Density = 3.464370 g / cm^3
# Si number density = 34.722733 Si / 1000 Ang^3
#
#
#
# Elastic Constant Matrix: (Units=GPa)
#
#
# Indices 1 2 3 4 5 6 
#
# 1 402.5008 149.4769 164.4945 0.0000 0.0000 0.0000
# 2 149.4769 402.5008 164.4945 0.0000 0.0000 0.0000
# 3 164.4945 164.4945 515.0293 0.0000 0.0000 0.0000
# 4 0.0000 0.0000 0.0000 -65.3716 0.0000 0.0000
# 5 0.0000 0.0000 0.0000 0.0000 -65.3716 0.0000
# 6 0.0000 0.0000 0.0000 0.0000 0.0000 119.3891
#
#
#
# Elastic Compliance Matrix: (Units=1/GPa)
#
#
# Indices 1 2 3 4 5 6 
#
# 1 0.003095 -0.000857 -0.000715 0.000000 0.000000 0.000000
# 2 -0.000857 0.003095 -0.000715 0.000000 0.000000 0.000000
# 3 -0.000715 -0.000715 0.002398 0.000000 0.000000 0.000000
# 4 0.000000 0.000000 0.000000 -0.015297 0.000000 0.000000
# 5 0.000000 0.000000 0.000000 0.000000 -0.015297 0.000000
# 6 0.000000 0.000000 0.000000 0.000000 0.000000 0.008376
#
#
# Mechanical properties :
#
#
# Convention : Reuss Voigt Hill
#
# Bulk Modulus (GPa) = 249.08362 252.99584 251.03973
# Shear Modulus (GPa) = -647.76466 53.83348 -296.96559
#
# Velocity S-wave (km/s) = -13.67328 3.94176 -9.25800
# Velocity P-wave (km/s) = 13.31868 9.68176 6.46725
#
# Compressibility (1/GPa) = 0.00401472
#
# Stress axis : x y z
#
# Youngs Moduli (GPa) = 323.11108 323.11108 416.98755
#
# Poissons Ratio (x) = 0.27700 0.29801
# Poissons Ratio (y) = 0.27700 0.29801
# Poissons Ratio (z) = 0.23092 0.23092
#
# Static dielectric constant tensor:
#      x y z
#    x 2.890770 0.000000 0.000000 
#    y 0.000000 2.890770 0.000000 
#    z 0.000000 0.000000 2.583090 
# 
# From -- ./inp_files/3694.got.cif
#   From: 2010.05.17/outbox.cif.g08.bks.cpg/sg112_2_cif.got.tgz:3694.got - 2010.05.20 10:59:04.
