data_PCOD9555445
_publ_section_title
;
Structure prediction by ZEFSAII (Michael W. Deem and Ramdas Pophale) SiO2 
 PCOD9555445
Probable space group: P -4 21 M 
;
_chemical_formula_sum "Si O2"
_cell_formula_units_Z 56
_cell_length_a 12.096270
_cell_length_b 12.096270
_cell_length_c 21.678202
_cell_angle_alpha 90.000000
_cell_angle_beta 90.000000
_cell_angle_gamma 90.000000
_cell_volume 3171.949052
_symmetry_space_group_name_H-M "P -4 21 M "
_symmetry_group_IT_number 113
_symmetry_cell_setting 'tetragonal'
loop_
_space_group_symop_operation_xyz
x,y,z
y,-x,-z
-x,-y,z
-y,x,-z
1/2+x,1/2-y,-z
1/2-x,1/2+y,-z
1/2-y,1/2-x,z
1/2+y,1/2+x,z
loop_
_atom_site_type_symbol
_atom_site_label
_atom_site_fract_x
_atom_site_fract_y
_atom_site_fract_z
Si Si1 0.373692 0.524482 0.886652
Si Si2 0.734781 0.055188 0.871990
Si Si3 0.501031 0.636512 0.434520
Si Si4 0.815976 0.500587 0.986513
Si Si5 0.675381 0.357264 0.205812
Si Si6 0.914702 0.766858 0.435751
Si Si7 0.618352 0.695736 0.652972
O O1 0.500000 0.500000 0.906967
O O2 0.373929 0.652592 0.867286
O O3 0.287173 0.504114 0.940975
O O4 0.350157 0.440158 0.830607
O O5 0.629278 0.129278 0.855662
O O6 0.751873 0.947856 0.830429
O O7 0.721426 0.017699 0.943027
O O8 0.500000 0.500000 0.436953
O O9 0.465965 0.697049 0.497785
O O10 0.627643 0.662516 0.419990
O O11 0.410936 0.663165 0.383432
O O12 0.890153 0.390153 0.982003
O O13 0.896742 0.603259 0.970933
O O14 0.742058 0.242058 0.205701
O O15 0.663882 0.398799 0.275931
O O16 0.843638 0.656362 0.439821
O O17 0.010103 0.764424 0.384299
O O18 0.707094 0.792907 0.650855
#
# Coordination Sequence:
#
# PCOD9555445 Si02
#       7
#     8   8   8   8   8   8   8
#     4  10  22  35  56  83 110 141 186 240 280 326
#     4  10  22  36  54  81 114 149 184 229 284 337
#     4  10  17  34  56  80 111 150 187 225 271 326
#     4  10  21  37  57  81 111 149 188 231 286 340
#     4  10  22  39  59  81 110 149 189 231 278 335
#     4  11  20  32  55  86 115 147 187 230 275 329
#     4  10  21  38  59  82 112 149 188 230 278 332
#
# _framework density 17.65476
#
# number of rings (size 3 to 8) (size 9 to 14) (size 15 to 20)
#    0.000    1.857    2.857    1.714    4.000    6.857 
#    0.000    1.429    0.000    2.143    0.000    4.000 
#    0.000    0.000    0.000    0.000    0.000    0.000 
#
# Total GULP energy -312299.230835 kJ/mol
# GULP energy per Si atom -5576.771979 kJ/mol
# Density = 1.761458 g / cm^3
# Si number density = 17.654760 Si / 1000 Ang^3
#
#
#
# Elastic Constant Matrix: (Units=GPa)
#
#
# Indices 1 2 3 4 5 6 
#
# 1 62.1227 33.1628 48.9428 0.0000 0.0000 0.0000
# 2 33.1628 62.1259 48.9411 0.0000 0.0000 0.0000
# 3 48.9428 48.9411 115.3111 0.0000 0.0000 0.0000
# 4 0.0000 0.0000 0.0000 17.2100 0.0000 0.0000
# 5 0.0000 0.0000 0.0000 0.0000 17.2127 0.0000
# 6 0.0000 0.0000 0.0000 0.0000 0.0000 22.0307
#
#
#
# Elastic Compliance Matrix: (Units=1/GPa)
#
#
# Indices 1 2 3 4 5 6 
#
# 1 0.026570 -0.007961 -0.007899 0.000000 0.000000 0.000000
# 2 -0.007961 0.026567 -0.007897 0.000000 0.000000 0.000000
# 3 -0.007899 -0.007897 0.015376 0.000000 0.000000 0.000000
# 4 0.000000 0.000000 0.000000 0.058106 0.000000 0.000000
# 5 0.000000 0.000000 0.000000 0.000000 0.058097 0.000000
# 6 0.000000 0.000000 0.000000 0.000000 0.000000 0.045391
#
#
# Mechanical properties :
#
#
# Convention : Reuss Voigt Hill
#
# Bulk Modulus (GPa) = 47.61765 55.73925 51.67845
# Shear Modulus (GPa) = 17.56742 18.52489 18.04615
#
# Velocity S-wave (km/s) = 3.15787 3.24278 3.20061
# Velocity P-wave (km/s) = 6.35030 6.75731 6.55696
#
# Compressibility (1/GPa) = 0.02100062
#
# Stress axis : x y z
#
# Youngs Moduli (GPa) = 37.63708 37.64126 65.03537
#
# Poissons Ratio (x) = 0.29965 0.51368
# Poissons Ratio (y) = 0.29961 0.51357
# Poissons Ratio (z) = 0.29728 0.29724
#
# Static dielectric constant tensor:
#      x y z
#    x 1.619360 0.000000 0.000000 
#    y 0.000000 1.619360 0.000000 
#    z 0.000000 0.000000 1.594610 
# 
# From -- ./inp_files/2721.got.cif
#   From: 2010.05.17/outbox.cif.g08.bks.cpg/sg113_cif.got.tgz:2721.got - 2010.05.20 11:03:00.
