data_PCOD9555025
_publ_section_title
;
Structure prediction by ZEFSAII (Michael W. Deem and Ramdas Pophale) SiO2 
 PCOD9555025
Probable space group: P -4 2 C
;
_chemical_formula_sum "Si O2"
_cell_formula_units_Z 40
_cell_length_a 8.023381
_cell_length_b 8.023381
_cell_length_c 30.012702
_cell_angle_alpha 90.000000
_cell_angle_beta 90.000000
_cell_angle_gamma 90.000000
_cell_volume 1932.056967
_symmetry_space_group_name_H-M "P -4 2 C"
_symmetry_group_IT_number 112
_symmetry_cell_setting 'tetragonal'
loop_
_space_group_symop_operation_xyz
x,y,z
y,-x,-z
-x,-y,z
-y,x,-z
x,-y,1/2-z
-x,y,1/2-z
-y,-x,1/2+z
y,x,1/2+z
loop_
_atom_site_type_symbol
_atom_site_label
_atom_site_fract_x
_atom_site_fract_y
_atom_site_fract_z
Si Si1 0.819227 0.800163 0.356282
Si Si2 0.204484 0.500000 0.801479
Si Si3 0.819227 0.199837 0.356282
Si Si4 0.701691 0.693405 0.548826
Si Si5 0.701690 0.693405 0.951174
O O1 0.663897 0.736539 0.327672
O O2 0.790828 0.762070 0.408231
O O3 0.000000 0.735178 0.342137
O O4 0.820238 1.000000 0.351132
O O5 0.254078 0.500000 0.750000
O O6 0.263461 0.663897 0.827672
O O7 0.000000 0.500000 0.802560
O O8 0.790828 0.237930 0.408231
O O9 0.754931 0.500000 0.553870
O O10 0.500000 0.695256 0.548029
O O11 0.755896 0.755896 0.500000
#
# Coordination Sequence:
#
# PCOD9555025 Si02
#       5
#     8   8   8   8   8
#     4  10  20  33  52  79 108 139 179 229 281 336
#     4   9  18  34  55  77 105 143 183 231 289 338
#     4  10  20  33  52  79 108 139 179 229 281 336
#     4   9  18  33  53  76 104 142 183 219 263 326
#     4   9  18  33  53  76 104 142 183 219 263 326
#
# _framework density 20.703325
#
# number of rings (size 3 to 8) (size 9 to 14) (size 15 to 20)
#    0.000    2.600    2.000    1.200    0.000    3.200 
#    0.000   10.000    0.000    2.400    0.000    2.800 
#    0.000    0.000    0.000    0.000    0.000    0.000 
#
# Total GULP energy -223262.345068 kJ/mol
# GULP energy per Si atom -5581.558627 kJ/mol
# Density = 2.065620 g / cm^3
# Si number density = 20.703325 Si / 1000 Ang^3
#
#
#
# Elastic Constant Matrix: (Units=GPa)
#
#
# Indices 1 2 3 4 5 6 
#
# 1 73.8781 26.8055 48.9867 0.0000 0.0000 0.0000
# 2 26.8055 73.8781 48.9867 0.0000 0.0000 0.0000
# 3 48.9867 48.9867 148.7641 0.0000 0.0000 0.0000
# 4 0.0000 0.0000 0.0000 22.6409 0.0000 0.0000
# 5 0.0000 0.0000 0.0000 0.0000 22.6409 0.0000
# 6 0.0000 0.0000 0.0000 0.0000 0.0000 10.9369
#
#
#
# Elastic Compliance Matrix: (Units=1/GPa)
#
#
# Indices 1 2 3 4 5 6 
#
# 1 0.017930 -0.003314 -0.004813 0.000000 0.000000 0.000000
# 2 -0.003314 0.017930 -0.004813 0.000000 0.000000 0.000000
# 3 -0.004813 -0.004813 0.009892 0.000000 0.000000 0.000000
# 4 0.000000 0.000000 0.000000 0.044168 0.000000 0.000000
# 5 0.000000 0.000000 0.000000 0.000000 0.044168 0.000000
# 6 0.000000 0.000000 0.000000 0.000000 0.000000 0.091433
#
#
# Mechanical properties :
#
#
# Convention : Reuss Voigt Hill
#
# Bulk Modulus (GPa) = 50.32366 60.67537 55.49951
# Shear Modulus (GPa) = 19.37812 22.69314 21.03563
#
# Velocity S-wave (km/s) = 3.06272 3.31435 3.19101
# Velocity P-wave (km/s) = 6.07180 6.63455 6.35940
#
# Compressibility (1/GPa) = 0.01987137
#
# Stress axis : x y z
#
# Youngs Moduli (GPa) = 55.77399 55.77399 101.09590
#
# Poissons Ratio (x) = 0.18485 0.48654
# Poissons Ratio (y) = 0.18485 0.48654
# Poissons Ratio (z) = 0.26842 0.26842
#
# Static dielectric constant tensor:
#      x y z
#    x 1.755680 0.000000 0.000000 
#    y 0.000000 1.755680 0.000000 
#    z 0.000000 0.000000 1.700480 
# 
# From -- ./inp_files/6132.got.cif
#   From: 2010.05.17/outbox.cif.g08.bks.cpg/sg112_4_cif.got.tgz:6132.got - 2010.05.20 10:59:04.
