data_PCOD9555525
_publ_section_title
;
Structure prediction by ZEFSAII (Michael W. Deem and Ramdas Pophale) SiO2 
 PCOD9555525
Probable space group: P -4 21 M 
;
_chemical_formula_sum "Si O2"
_cell_formula_units_Z 28
_cell_length_a 9.343136
_cell_length_b 9.343136
_cell_length_c 17.715942
_cell_angle_alpha 90.000000
_cell_angle_beta 90.000000
_cell_angle_gamma 90.000000
_cell_volume 1546.498813
_symmetry_space_group_name_H-M "P -4 21 M "
_symmetry_group_IT_number 113
_symmetry_cell_setting 'tetragonal'
loop_
_space_group_symop_operation_xyz
x,y,z
y,-x,-z
-x,-y,z
-y,x,-z
1/2+x,1/2-y,-z
1/2-x,1/2+y,-z
1/2-y,1/2-x,z
1/2+y,1/2+x,z
loop_
_atom_site_type_symbol
_atom_site_label
_atom_site_fract_x
_atom_site_fract_y
_atom_site_fract_z
Si Si1 0.502793 0.238209 0.793146
Si Si2 0.432830 0.703983 0.965490
Si Si3 0.000000 0.000000 0.680696
Si Si4 0.421882 0.311304 0.456882
O O1 0.368769 0.131231 0.795116
O O2 0.526931 0.298162 0.877399
O O3 0.480098 0.362850 0.733381
O O4 0.641527 0.141527 0.773838
O O5 0.352593 0.852593 0.981061
O O6 0.574293 0.673772 0.013862
O O7 0.970886 0.134080 0.625196
O O8 0.319752 0.437882 0.490169
O O9 0.335638 0.164363 0.456802
#
# Coordination Sequence:
#
# PCOD9555525 Si02
#       4
#     8   8   4   8
#     4  10  21  36  54  77 106 141 178 216 264 319
#     4  10  20  34  53  77 105 138 177 221 266 313
#     4  10  19  34  57  80 106 136 176 220 259 306
#     4   9  20  36  55  81 110 139 173 214 259 308
#
# _framework density 18.105412999999999
#
# number of rings (size 3 to 8) (size 9 to 14) (size 15 to 20)
#    0.000    2.571    0.000    3.429    0.000    6.857 
#    0.000    0.000    0.000    4.286    0.000    0.000 
#    0.000    0.000    0.000    0.000    0.000    0.000 
#
# Total GULP energy -156219.720530 kJ/mol
# GULP energy per Si atom -5579.275733 kJ/mol
# Density = 1.806420 g / cm^3
# Si number density = 18.105413 Si / 1000 Ang^3
#
#
#
# Elastic Constant Matrix: (Units=GPa)
#
#
# Indices 1 2 3 4 5 6 
#
# 1 68.1203 37.3606 61.5736 0.0000 0.0000 0.0000
# 2 37.3606 68.1244 61.5744 0.0000 0.0000 0.0000
# 3 61.5736 61.5744 125.9722 0.0000 0.0000 0.0000
# 4 0.0000 0.0000 0.0000 1.7377 0.0000 0.0000
# 5 0.0000 0.0000 0.0000 0.0000 1.7360 0.0000
# 6 0.0000 0.0000 0.0000 0.0000 0.0000 41.2284
#
#
#
# Elastic Compliance Matrix: (Units=1/GPa)
#
#
# Indices 1 2 3 4 5 6 
#
# 1 0.027295 -0.005214 -0.010793 0.000000 0.000000 0.000000
# 2 -0.005214 0.027293 -0.010792 0.000000 0.000000 0.000000
# 3 -0.010793 -0.010792 0.018489 0.000000 0.000000 0.000000
# 4 0.000000 0.000000 0.000000 0.575461 0.000000 0.000000
# 5 0.000000 0.000000 0.000000 0.000000 0.576026 0.000000
# 6 0.000000 0.000000 0.000000 0.000000 0.000000 0.024255
#
#
# Mechanical properties :
#
#
# Convention : Reuss Voigt Hill
#
# Bulk Modulus (GPa) = 51.33753 64.80380 58.07066
# Shear Modulus (GPa) = 3.81997 15.72100 9.77049
#
# Velocity S-wave (km/s) = 1.45411 2.94990 2.32555
# Velocity P-wave (km/s) = 5.58888 6.89004 6.27329
#
# Compressibility (1/GPa) = 0.01947893
#
# Stress axis : x y z
#
# Youngs Moduli (GPa) = 36.63640 36.63965 54.08662
#
# Poissons Ratio (x) = 0.19103 0.58376
# Poissons Ratio (y) = 0.19102 0.58371
# Poissons Ratio (z) = 0.39542 0.39542
#
# Static dielectric constant tensor:
#      x y z
#    x 1.625160 0.000000 0.000000 
#    y 0.000000 1.625160 0.000000 
#    z 0.000000 0.000000 1.601110 
# 
# From -- ./inp_files/2385.got.cif
#   From: 2010.05.17/outbox.cif.g08.bks.cpg/sg113_cif.got.tgz:2385.got - 2010.05.20 11:03:00.
