data_PCOD9555596
_publ_section_title
;
Structure prediction by ZEFSAII (Michael W. Deem and Ramdas Pophale) SiO2 
 PCOD9555596
Probable space group: P -4 21 M 
;
_chemical_formula_sum "Si O2"
_cell_formula_units_Z 56
_cell_length_a 15.171747
_cell_length_b 15.171747
_cell_length_c 13.405734
_cell_angle_alpha 90.000000
_cell_angle_beta 90.000000
_cell_angle_gamma 90.000000
_cell_volume 3085.757417
_symmetry_space_group_name_H-M "P -4 21 M "
_symmetry_group_IT_number 113
_symmetry_cell_setting 'tetragonal'
loop_
_space_group_symop_operation_xyz
x,y,z
y,-x,-z
-x,-y,z
-y,x,-z
1/2+x,1/2-y,-z
1/2-x,1/2+y,-z
1/2-y,1/2-x,z
1/2+y,1/2+x,z
loop_
_atom_site_type_symbol
_atom_site_label
_atom_site_fract_x
_atom_site_fract_y
_atom_site_fract_z
Si Si1 0.144638 0.505774 0.187352
Si Si2 0.735248 0.383412 0.626163
Si Si3 0.621294 0.559200 0.042518
Si Si4 0.550961 0.331882 0.731208
Si Si5 0.875109 0.947854 0.540590
Si Si6 0.194749 0.453368 0.976058
Si Si7 0.852252 0.502713 0.757794
O O1 0.071394 0.428607 0.190670
O O2 0.229369 0.472161 0.248066
O O3 0.094957 0.594957 0.220286
O O4 0.175001 0.515057 0.071540
O O5 0.805527 0.305527 0.632648
O O6 0.645894 0.352595 0.682234
O O7 0.707267 0.402369 0.512321
O O8 0.781050 0.468563 0.677650
O O9 0.622320 0.550703 0.161221
O O10 0.612812 0.461891 0.995661
O O11 0.714036 0.594499 0.002954
O O12 0.477784 0.365745 0.653864
O O13 0.962532 0.891150 0.522833
O O14 0.116064 0.383937 0.974161
O O15 0.193308 0.495065 0.866632
O O16 0.928722 0.428722 0.761299
O O17 0.904753 0.595248 0.738747
#
# Coordination Sequence:
#
# PCOD9555596 Si02
#       7
#     8   8   8   8   8   8   8
#     4   9  17  30  49  74 104 137 172 210 256 316
#     4  10  20  35  56  79 104 136 179 227 269 316
#     4  10  21  34  51  77 107 136 168 209 258 315
#     4  10  20  35  54  76 104 137 175 216 265 318
#     4   9  20  37  56  74  95 132 176 216 257 310
#     4   9  17  31  50  72 101 136 173 209 250 307
#     4   9  17  30  50  76 105 138 173 211 260 313
#
# _framework density 18.147895999999999
#
# number of rings (size 3 to 8) (size 9 to 14) (size 15 to 20)
#    0.000    2.571    0.000    1.714    0.000    8.571 
#    0.000    7.143    0.000    1.714    0.000    0.000 
#    0.000    0.000    0.000    0.000    0.000    0.000 
#
# Total GULP energy -311968.042407 kJ/mol
# GULP energy per Si atom -5570.857900 kJ/mol
# Density = 1.810659 g / cm^3
# Si number density = 18.147896 Si / 1000 Ang^3
#
#
#
# Elastic Constant Matrix: (Units=GPa)
#
#
# Indices 1 2 3 4 5 6 
#
# 1 42.4753 -1.1173 14.9952 0.0000 0.0000 0.0000
# 2 -1.1173 42.4736 14.9947 0.0000 0.0000 0.0000
# 3 14.9952 14.9947 64.8537 0.0000 0.0000 0.0000
# 4 0.0000 0.0000 0.0000 19.4783 0.0000 0.0000
# 5 0.0000 0.0000 0.0000 0.0000 19.4787 0.0000
# 6 0.0000 0.0000 0.0000 0.0000 0.0000 16.8339
#
#
#
# Elastic Compliance Matrix: (Units=1/GPa)
#
#
# Indices 1 2 3 4 5 6 
#
# 1 0.025995 0.003055 -0.006717 0.000000 0.000000 0.000000
# 2 0.003055 0.025996 -0.006717 0.000000 0.000000 0.000000
# 3 -0.006717 -0.006717 0.018525 0.000000 0.000000 0.000000
# 4 0.000000 0.000000 0.000000 0.051339 0.000000 0.000000
# 5 0.000000 0.000000 0.000000 0.000000 0.051338 0.000000
# 6 0.000000 0.000000 0.000000 0.000000 0.000000 0.059404
#
#
# Mechanical properties :
#
#
# Convention : Reuss Voigt Hill
#
# Bulk Modulus (GPa) = 20.09696 23.06085 21.57891
# Shear Modulus (GPa) = 18.52261 19.22016 18.87139
#
# Velocity S-wave (km/s) = 3.19822 3.25789 3.22819
# Velocity P-wave (km/s) = 4.97355 5.18522 5.08049
#
# Compressibility (1/GPa) = 0.04975878
#
# Stress axis : x y z
#
# Youngs Moduli (GPa) = 38.46933 38.46793 53.98016
#
# Poissons Ratio (x) = -0.11752 0.36257
# Poissons Ratio (y) = -0.11753 0.36257
# Poissons Ratio (z) = 0.25839 0.25838
#
# Static dielectric constant tensor:
#      x y z
#    x 1.629330 0.000000 0.000000 
#    y 0.000000 1.629330 0.000000 
#    z 0.000000 0.000000 1.620240 
# 
# From -- ./inp_files/1921.got.cif
#   From: 2010.05.17/outbox.cif.g08.bks.cpg/sg113_cif.got.tgz:1921.got - 2010.05.20 11:03:00.
