data_PCOD9555380
_publ_section_title
;
Structure prediction by ZEFSAII (Michael W. Deem and Ramdas Pophale) SiO2 
 PCOD9555380
Probable space group: P -4 2 C
;
_chemical_formula_sum "Si O2"
_cell_formula_units_Z 32
_cell_length_a 7.304331
_cell_length_b 7.304331
_cell_length_c 25.718889
_cell_angle_alpha 90.000000
_cell_angle_beta 90.000000
_cell_angle_gamma 90.000000
_cell_volume 1372.186349
_symmetry_space_group_name_H-M "P -4 2 C"
_symmetry_group_IT_number 112
_symmetry_cell_setting 'tetragonal'
loop_
_space_group_symop_operation_xyz
x,y,z
y,-x,-z
-x,-y,z
-y,x,-z
x,-y,1/2-z
-x,y,1/2-z
-y,-x,1/2+z
y,x,1/2+z
loop_
_atom_site_type_symbol
_atom_site_label
_atom_site_fract_x
_atom_site_fract_y
_atom_site_fract_z
Si Si1 0.287568 0.546726 0.807203
Si Si2 0.142159 0.749517 0.384166
Si Si3 0.828426 0.735769 0.892982
Si Si4 0.835214 0.737284 0.004198
O O1 0.500000 0.500000 0.806176
O O2 0.213751 0.500000 0.750000
O O3 0.284567 0.750384 0.831038
O O4 0.195747 0.412879 0.848890
O O5 0.209089 0.659394 0.438823
O O6 0.923989 0.720391 0.380366
O O7 0.191516 0.963192 0.394717
O O8 0.784092 0.647624 0.949311
O O9 0.056347 0.758451 0.003538
#
# Coordination Sequence:
#
# PCOD9555380 Si02
#       4
#     8   8   8   8
#     4  11  25  41  53  75 117 161 197 234 279 340
#     4   9  18  36  62  87 111 143 187 241 295 343
#     4   9  18  36  62  87 111 143 187 241 295 343
#     4   7  12  28  55  84 112 138 169 221 290 350
#
# _framework density 23.320446
#
# number of rings (size 3 to 8) (size 9 to 14) (size 15 to 20)
#    0.000    3.000    0.000    3.750    0.000    4.000 
#    4.500    5.000    0.000    0.000    0.000    0.000 
#    0.000    0.000    0.000    0.000    0.000    0.000 
#
# Total GULP energy -178507.357988 kJ/mol
# GULP energy per Si atom -5578.354937 kJ/mol
# Density = 2.326737 g / cm^3
# Si number density = 23.320446 Si / 1000 Ang^3
#
#
#
# Elastic Constant Matrix: (Units=GPa)
#
#
# Indices 1 2 3 4 5 6 
#
# 1 66.4093 1.4862 28.5604 0.0000 0.0000 0.0000
# 2 1.4862 66.4093 28.5604 0.0000 0.0000 0.0000
# 3 28.5604 28.5604 209.3506 0.0000 0.0000 0.0000
# 4 0.0000 0.0000 0.0000 20.3561 0.0000 0.0000
# 5 0.0000 0.0000 0.0000 0.0000 20.3561 0.0000
# 6 0.0000 0.0000 0.0000 0.0000 0.0000 21.6288
#
#
#
# Elastic Compliance Matrix: (Units=1/GPa)
#
#
# Indices 1 2 3 4 5 6 
#
# 1 0.016020 0.000618 -0.002270 0.000000 0.000000 0.000000
# 2 0.000618 0.016020 -0.002270 0.000000 0.000000 0.000000
# 3 -0.002270 -0.002270 0.005396 0.000000 0.000000 0.000000
# 4 0.000000 0.000000 0.000000 0.049125 0.000000 0.000000
# 5 0.000000 0.000000 0.000000 0.000000 0.049125 0.000000
# 6 0.000000 0.000000 0.000000 0.000000 0.000000 0.046235
#
#
# Mechanical properties :
#
#
# Convention : Reuss Voigt Hill
#
# Bulk Modulus (GPa) = 33.79185 51.04257 42.41721
# Shear Modulus (GPa) = 25.04629 31.37238 28.20933
#
# Velocity S-wave (km/s) = 3.28076 3.67178 3.48176
# Velocity P-wave (km/s) = 5.37335 6.31751 5.86446
#
# Compressibility (1/GPa) = 0.02959293
#
# Stress axis : x y z
#
# Youngs Moduli (GPa) = 62.42009 62.42009 185.32268
#
# Poissons Ratio (x) = -0.03855 0.42065
# Poissons Ratio (y) = -0.03855 0.42065
# Poissons Ratio (z) = 0.14168 0.14168
#
# Static dielectric constant tensor:
#      x y z
#    x 1.855040 0.000000 0.000000 
#    y 0.000000 1.855040 0.000000 
#    z 0.000000 0.000000 1.936270 
# 
# From -- ./inp_files/5183.got.cif
#   From: 2010.05.17/outbox.cif.g08.bks.cpg/sg112_3_cif.got.tgz:5183.got - 2010.05.20 10:59:04.
