data_PCOD9555892
_publ_section_title
;
Structure prediction by ZEFSAII (Michael W. Deem and Ramdas Pophale) SiO2 
 PCOD9555892
Probable space group: P -4 21 C
;
_chemical_formula_sum "Si O2"
_cell_formula_units_Z 52
_cell_length_a 17.855204
_cell_length_b 17.855204
_cell_length_c 9.683220
_cell_angle_alpha 90.000000
_cell_angle_beta 90.000000
_cell_angle_gamma 90.000000
_cell_volume 3087.091002
_symmetry_space_group_name_H-M "P -4 21 C"
_symmetry_group_IT_number 114
_symmetry_cell_setting 'tetragonal'
loop_
_space_group_symop_operation_xyz
x,y,z
y,-x,-z
-x,-y,z
-y,x,-z
1/2+x,1/2-y,1/2-z
1/2-x,1/2+y,1/2-z
1/2-y,1/2-x,1/2+z
1/2+y,1/2+x,1/2+z
loop_
_atom_site_type_symbol
_atom_site_label
_atom_site_fract_x
_atom_site_fract_y
_atom_site_fract_z
Si Si1 0.499859 0.334318 0.061586
Si Si2 0.655910 0.280064 0.593524
Si Si3 0.266663 0.655416 0.840112
Si Si4 0.164938 0.996086 0.226266
Si Si5 0.226151 0.152993 0.165848
Si Si6 0.342074 0.734225 0.082056
Si Si7 0.000000 0.000000 0.291382
O O1 0.426315 0.290769 0.112213
O O2 0.572674 0.287701 0.107957
O O3 0.500499 0.420189 0.121964
O O4 0.501895 0.334290 0.894493
O O5 0.713138 0.331986 0.681127
O O6 0.576738 0.298945 0.658604
O O7 0.668446 0.305358 0.436757
O O8 0.684533 0.194310 0.607624
O O9 0.184805 0.690881 0.866372
O O10 0.321235 0.710780 0.926540
O O11 0.075650 0.999609 0.201507
O O12 0.209451 0.066024 0.164664
O O13 0.205514 0.179914 0.319281
#
# Coordination Sequence:
#
# PCOD9555892 Si02
#       7
#     8   8   8   8   8   8   4
#     4  12  19  33  59  82 106 143 193 227 260 326
#     4  10  22  35  52  79 115 145 181 222 275 323
#     4  10  19  36  56  79 106 149 188 219 260 334
#     4  12  21  34  54  83 115 146 178 230 274 328
#     4  10  22  35  52  79 115 145 181 222 275 323
#     4  10  19  36  56  79 106 149 188 219 260 334
#     4  12  21  30  51  88 111 138 179 224 265 328
#
# _framework density 16.844336999999999
#
# number of rings (size 3 to 8) (size 9 to 14) (size 15 to 20)
#    0.000    1.231    6.154    1.385    0.000    2.462 
#    0.000    0.000    0.000    0.923    0.000    2.154 
#    0.000    0.000    0.000    0.000    0.000    0.000 
#
# Total GULP energy -289567.522053 kJ/mol
# GULP energy per Si atom -5568.606193 kJ/mol
# Density = 1.680600 g / cm^3
# Si number density = 16.844337 Si / 1000 Ang^3
#
#
#
# Elastic Constant Matrix: (Units=GPa)
#
#
# Indices 1 2 3 4 5 6 
#
# 1 127.2099 80.5231 6.5342 0.0000 0.0000 0.0000
# 2 80.5231 127.2099 6.5342 0.0000 0.0000 0.0000
# 3 6.5342 6.5342 21.1537 0.0000 0.0000 0.0000
# 4 0.0000 0.0000 0.0000 19.1906 0.0000 0.0000
# 5 0.0000 0.0000 0.0000 0.0000 19.1906 0.0000
# 6 0.0000 0.0000 0.0000 0.0000 0.0000 27.4317
#
#
#
# Elastic Compliance Matrix: (Units=1/GPa)
#
#
# Indices 1 2 3 4 5 6 
#
# 1 0.013164 -0.008255 -0.001516 0.000000 0.000000 0.000000
# 2 -0.008255 0.013164 -0.001516 0.000000 0.000000 0.000000
# 3 -0.001516 -0.001516 0.048210 0.000000 0.000000 0.000000
# 4 0.000000 0.000000 0.000000 0.052109 0.000000 0.000000
# 5 0.000000 0.000000 0.000000 0.000000 0.052109 0.000000
# 6 0.000000 0.000000 0.000000 0.000000 0.000000 0.036454
#
#
# Mechanical properties :
#
#
# Convention : Reuss Voigt Hill
#
# Bulk Modulus (GPa) = 19.24458 51.41738 35.33098
# Shear Modulus (GPa) = 19.59964 25.29474 22.44719
#
# Velocity S-wave (km/s) = 3.41482 3.87935 3.65447
# Velocity P-wave (km/s) = 5.19594 7.11738 6.23117
#
# Compressibility (1/GPa) = 0.05196268
#
# Stress axis : x y z
#
# Youngs Moduli (GPa) = 75.96307 75.96307 20.74266
#
# Poissons Ratio (x) = 0.62708 0.03145
# Poissons Ratio (y) = 0.62708 0.03145
# Poissons Ratio (z) = 0.11519 0.11519
#
# Static dielectric constant tensor:
#      x y z
#    x 1.589080 0.000000 0.000000 
#    y 0.000000 1.589080 0.000000 
#    z 0.000000 0.000000 1.584080 
# 
# From -- ./inp_files/973.got.cif
#   From: 2010.05.17/outbox.cif.g08.bks.cpg/sg114_1_cif.got.tgz:973.got - 2010.05.20 11:04:54.
