data_PCOD9555424
_publ_section_title
;
Structure prediction by ZEFSAII (Michael W. Deem and Ramdas Pophale) SiO2 
 PCOD9555424
Probable space group: P -4 2 C
;
_chemical_formula_sum "Si O2"
_cell_formula_units_Z 16
_cell_length_a 5.131951
_cell_length_b 5.131951
_cell_length_c 25.155176
_cell_angle_alpha 90.000000
_cell_angle_beta 90.000000
_cell_angle_gamma 90.000000
_cell_volume 662.509885
_symmetry_space_group_name_H-M "P -4 2 C"
_symmetry_group_IT_number 112
_symmetry_cell_setting 'tetragonal'
loop_
_space_group_symop_operation_xyz
x,y,z
y,-x,-z
-x,-y,z
-y,x,-z
x,-y,1/2-z
-x,y,1/2-z
-y,-x,1/2+z
y,x,1/2+z
loop_
_atom_site_type_symbol
_atom_site_label
_atom_site_fract_x
_atom_site_fract_y
_atom_site_fract_z
Si Si1 0.500000 0.000000 0.070450
Si Si2 0.000000 0.000000 0.250000
Si Si3 0.243809 0.679228 0.157219
Si Si4 0.500000 0.500000 0.500000
O O1 0.713944 0.111724 0.110883
O O2 0.424189 0.248368 0.034954
O O3 0.177725 0.823951 0.211960
O O4 0.500000 0.500000 0.161362
O O5 0.000000 0.500000 0.143945
#
# Coordination Sequence:
#
# PCOD9555424 Si02
#       4
#     4   2   8   2
#     4  12  30  57  84 124 164 219 288 356 426 510
#     4  12  30  46  88 126 180 220 288 324 440 490
#     4  12  29  53  82 123 172 225 276 348 414 515
#     4  12  32  52  92 114 164 220 284 360 436 486
#
# _framework density 24.150583999999998
#
# number of rings (size 3 to 8) (size 9 to 14) (size 15 to 20)
#    0.000    0.000    2.500    3.750    3.500   20.000 
#    0.000    0.000    0.000    0.000    0.000    0.000 
#    0.000    0.000    0.000    0.000    0.000    0.000 
#
# Total GULP energy -89836.504064 kJ/mol
# GULP energy per Si atom -5614.781504 kJ/mol
# Density = 2.409562 g / cm^3
# Si number density = 24.150584 Si / 1000 Ang^3
#
#
#
# Elastic Constant Matrix: (Units=GPa)
#
#
# Indices 1 2 3 4 5 6 
#
# 1 207.7028 104.8609 95.4235 0.0000 0.0000 0.0000
# 2 104.8609 207.7028 95.4235 0.0000 0.0000 0.0000
# 3 95.4235 95.4235 181.9650 0.0000 0.0000 0.0000
# 4 0.0000 0.0000 0.0000 47.7235 0.0000 0.0000
# 5 0.0000 0.0000 0.0000 0.0000 47.7235 0.0000
# 6 0.0000 0.0000 0.0000 0.0000 0.0000 26.4610
#
#
#
# Elastic Compliance Matrix: (Units=1/GPa)
#
#
# Indices 1 2 3 4 5 6 
#
# 1 0.007215 -0.002509 -0.002468 0.000000 0.000000 0.000000
# 2 -0.002509 0.007215 -0.002468 0.000000 0.000000 0.000000
# 3 -0.002468 -0.002468 0.008084 0.000000 0.000000 0.000000
# 4 0.000000 0.000000 0.000000 0.020954 0.000000 0.000000
# 5 0.000000 0.000000 0.000000 0.000000 0.020954 0.000000
# 6 0.000000 0.000000 0.000000 0.000000 0.000000 0.037791
#
#
# Mechanical properties :
#
#
# Convention : Reuss Voigt Hill
#
# Bulk Modulus (GPa) = 131.15467 132.08735 131.62101
# Shear Modulus (GPa) = 41.79051 44.49244 43.14148
#
# Velocity S-wave (km/s) = 4.16434 4.29685 4.23111
# Velocity P-wave (km/s) = 8.80609 8.91231 8.85936
#
# Compressibility (1/GPa) = 0.00762459
#
# Stress axis : x y z
#
# Youngs Moduli (GPa) = 138.60076 138.60076 123.70079
#
# Poissons Ratio (x) = 0.34771 0.30529
# Poissons Ratio (y) = 0.34771 0.30529
# Poissons Ratio (z) = 0.34207 0.34207
#
# Static dielectric constant tensor:
#      x y z
#    x 1.909970 0.000000 0.000000 
#    y 0.000000 1.909970 0.000000 
#    z 0.000000 0.000000 1.913330 
# 
# From -- ./inp_files/5017.got.cif
#   From: 2010.05.17/outbox.cif.g08.bks.cpg/sg112_3_cif.got.tgz:5017.got - 2010.05.20 10:59:04.
