data_PCOD9555417
_publ_section_title
;
Structure prediction by ZEFSAII (Michael W. Deem and Ramdas Pophale) SiO2 
 PCOD9555417
Probable space group: P -4 2 C
;
_chemical_formula_sum "Si O2"
_cell_formula_units_Z 26
_cell_length_a 14.538642
_cell_length_b 14.538642
_cell_length_c 4.881993
_cell_angle_alpha 90.000000
_cell_angle_beta 90.000000
_cell_angle_gamma 90.000000
_cell_volume 1031.917167
_symmetry_space_group_name_H-M "P -4 2 C"
_symmetry_group_IT_number 112
_symmetry_cell_setting 'tetragonal'
loop_
_space_group_symop_operation_xyz
x,y,z
y,-x,-z
-x,-y,z
-y,x,-z
x,-y,1/2-z
-x,y,1/2-z
-y,-x,1/2+z
y,x,1/2+z
loop_
_atom_site_type_symbol
_atom_site_label
_atom_site_fract_x
_atom_site_fract_y
_atom_site_fract_z
Si Si1 0.818971 0.101086 0.812898
Si Si2 0.390527 0.704863 0.195918
Si Si3 0.094026 0.348329 0.587478
Si Si4 0.500000 0.000000 0.750000
O O1 0.877850 0.172298 0.631288
O O2 0.721005 0.106954 0.667755
O O3 0.856350 0.000000 0.750000
O O4 0.500000 0.695455 0.250000
O O5 0.330939 0.640426 0.399792
O O6 0.361637 0.810939 0.250628
O O7 0.000000 0.323481 0.750000
O O8 0.066331 0.442748 0.443795
#
# Coordination Sequence:
#
# PCOD9555417 Si02
#       4
#     8   8   8   2
#     4  12  26  47  75 107 151 203 256 311 373 450
#     4  12  29  51  82 115 159 211 267 327 394 474
#     4  12  27  49  77 119 157 199 261 334 411 476
#     4  12  26  44  84 106 160 200 254 336 426 468
#
# _framework density 25.195823000000001
#
# number of rings (size 3 to 8) (size 9 to 14) (size 15 to 20)
#    0.000    0.000    1.538    7.846    8.615    3.692 
#    0.000    0.000    0.000    0.000    0.000    0.000 
#    0.000    0.000    0.000    0.000    0.000    0.000 
#
# Total GULP energy -145885.150147 kJ/mol
# GULP energy per Si atom -5610.967313 kJ/mol
# Density = 2.513848 g / cm^3
# Si number density = 25.195823 Si / 1000 Ang^3
#
#
#
# Elastic Constant Matrix: (Units=GPa)
#
#
# Indices 1 2 3 4 5 6 
#
# 1 149.6960 25.7109 3.3427 0.0000 0.0000 0.0000
# 2 25.7109 149.6960 3.3427 0.0000 0.0000 0.0000
# 3 3.3427 3.3427 75.1188 0.0000 0.0000 0.0000
# 4 0.0000 0.0000 0.0000 42.6470 0.0000 0.0000
# 5 0.0000 0.0000 0.0000 0.0000 42.6470 0.0000
# 6 0.0000 0.0000 0.0000 0.0000 0.0000 41.6983
#
#
#
# Elastic Compliance Matrix: (Units=1/GPa)
#
#
# Indices 1 2 3 4 5 6 
#
# 1 0.006888 -0.001177 -0.000254 0.000000 0.000000 0.000000
# 2 -0.001177 0.006888 -0.000254 0.000000 0.000000 0.000000
# 3 -0.000254 -0.000254 0.013335 0.000000 0.000000 0.000000
# 4 0.000000 0.000000 0.000000 0.023448 0.000000 0.000000
# 5 0.000000 0.000000 0.000000 0.000000 0.023448 0.000000
# 6 0.000000 0.000000 0.000000 0.000000 0.000000 0.023982
#
#
# Mechanical properties :
#
#
# Convention : Reuss Voigt Hill
#
# Bulk Modulus (GPa) = 42.12330 48.81146 45.46738
# Shear Modulus (GPa) = 45.75653 48.20609 46.98131
#
# Velocity S-wave (km/s) = 4.26612 4.37882 4.32284
# Velocity P-wave (km/s) = 6.40477 6.70674 6.55749
#
# Compressibility (1/GPa) = 0.02373983
#
# Stress axis : x y z
#
# Youngs Moduli (GPa) = 145.17794 145.17794 74.99139
#
# Poissons Ratio (x) = 0.17093 0.01906
# Poissons Ratio (y) = 0.17093 0.01906
# Poissons Ratio (z) = 0.03689 0.03689
#
# Static dielectric constant tensor:
#      x y z
#    x 2.021600 0.000000 0.000000 
#    y 0.000000 2.021600 0.000000 
#    z 0.000000 0.000000 1.950840 
# 
# From -- ./inp_files/122.got.cif
#   From: 2010.05.17/outbox.cif.g08.bks.cpg/sg112_1_cif.got.tgz:122.got - 2010.05.20 10:59:04.
