data_PCOD9555626
_publ_section_title
;
Structure prediction by ZEFSAII (Michael W. Deem and Ramdas Pophale) SiO2 
 PCOD9555626
Probable space group: P -4 21 M 
;
_chemical_formula_sum "Si O2"
_cell_formula_units_Z 56
_cell_length_a 14.281366
_cell_length_b 14.281366
_cell_length_c 13.930946
_cell_angle_alpha 90.000000
_cell_angle_beta 90.000000
_cell_angle_gamma 90.000000
_cell_volume 2841.319732
_symmetry_space_group_name_H-M "P -4 21 M "
_symmetry_group_IT_number 113
_symmetry_cell_setting 'tetragonal'
loop_
_space_group_symop_operation_xyz
x,y,z
y,-x,-z
-x,-y,z
-y,x,-z
1/2+x,1/2-y,-z
1/2-x,1/2+y,-z
1/2-y,1/2-x,z
1/2+y,1/2+x,z
loop_
_atom_site_type_symbol
_atom_site_label
_atom_site_fract_x
_atom_site_fract_y
_atom_site_fract_z
Si Si1 0.644504 0.504482 0.459830
Si Si2 0.342133 0.999561 0.438278
Si Si3 0.952873 0.700488 0.955369
Si Si4 0.776191 0.430337 0.764402
Si Si5 0.569797 0.378749 0.958145
Si Si6 0.650671 0.992400 0.838304
Si Si7 0.422584 0.662039 0.749160
O O1 0.588791 0.410136 0.486340
O O2 0.752704 0.501242 0.491569
O O3 0.634147 0.526725 0.347743
O O4 0.411052 0.088949 0.454137
O O5 0.300413 0.010239 0.330668
O O6 0.407796 0.907796 0.447307
O O7 0.889398 0.610603 0.932045
O O8 0.005273 0.733476 0.858949
O O9 0.888354 0.782066 0.003336
O O10 0.016274 0.675995 0.048578
O O11 0.864295 0.364295 0.784648
O O12 0.688138 0.361938 0.740640
O O13 0.556506 0.393459 0.846095
O O14 0.465887 0.377657 0.999581
O O15 0.569870 0.069870 0.834597
O O16 0.735533 0.037995 0.778565
O O17 0.604878 0.895123 0.803188
#
# Coordination Sequence:
#
# PCOD9555626 Si02
#       7
#     8   8   8   8   8   8   8
#     4  11  25  44  67  95 124 169 214 271 327 387
#     4  10  23  43  67  97 131 167 213 270 328 382
#     4  10  20  36  59  91 130 170 207 253 312 374
#     4  11  21  37  63  94 128 168 213 260 313 378
#     4  10  21  38  60  90 123 166 206 258 308 372
#     4   9  19  36  58  89 129 171 211 254 310 375
#     4  11  22  39  63  93 122 166 217 258 314 380
#
# _framework density 19.709152
#
# number of rings (size 3 to 8) (size 9 to 14) (size 15 to 20)
#    0.000    1.714    2.857    1.286    0.000    7.714 
#    0.000    2.143    0.000    0.000    0.000    0.000 
#    0.000    0.000    0.000    0.000    0.000    0.000 
#
# Total GULP energy -311953.961177 kJ/mol
# GULP energy per Si atom -5570.606450 kJ/mol
# Density = 1.966429 g / cm^3
# Si number density = 19.709152 Si / 1000 Ang^3
#
#
#
# Elastic Constant Matrix: (Units=GPa)
#
#
# Indices 1 2 3 4 5 6 
#
# 1 81.1547 18.8308 14.3861 0.0000 0.0000 0.0000
# 2 18.8308 81.1563 14.3865 0.0000 0.0000 0.0000
# 3 14.3861 14.3865 96.6492 0.0000 0.0000 0.0000
# 4 0.0000 0.0000 0.0000 103.5674 0.0000 0.0000
# 5 0.0000 0.0000 0.0000 0.0000 103.7953 0.0000
# 6 0.0000 0.0000 0.0000 0.0000 0.0000 22.9722
#
#
#
# Elastic Compliance Matrix: (Units=1/GPa)
#
#
# Indices 1 2 3 4 5 6 
#
# 1 0.013247 -0.002798 -0.001555 0.000000 0.000000 0.000000
# 2 -0.002798 0.013247 -0.001555 0.000000 0.000000 0.000000
# 3 -0.001555 -0.001555 0.010810 0.000000 0.000000 0.000000
# 4 0.000000 0.000000 0.000000 0.009656 0.000000 0.000000
# 5 0.000000 0.000000 0.000000 0.000000 0.009634 0.000000
# 6 0.000000 0.000000 0.000000 0.000000 0.000000 0.043531
#
#
# Mechanical properties :
#
#
# Convention : Reuss Voigt Hill
#
# Bulk Modulus (GPa) = 39.23680 39.35189 39.29434
# Shear Modulus (GPa) = 41.51542 60.15745 50.83644
#
# Velocity S-wave (km/s) = 4.59454 5.53072 5.08422
# Velocity P-wave (km/s) = 6.93523 7.79710 7.37876
#
# Compressibility (1/GPa) = 0.02548628
#
# Stress axis : x y z
#
# Youngs Moduli (GPa) = 75.48826 75.48962 92.50935
#
# Poissons Ratio (x) = 0.21122 0.14388
# Poissons Ratio (y) = 0.21122 0.14388
# Poissons Ratio (z) = 0.11741 0.11741
#
# Static dielectric constant tensor:
#      x y z
#    x 1.556270 0.000000 0.000000 
#    y 0.000000 1.555810 0.000000 
#    z 0.000000 0.000000 1.693780 
# 
# From -- ./inp_files/1908.got.cif
#   From: 2010.05.17/outbox.cif.g08.bks.cpg/sg113_cif.got.tgz:1908.got - 2010.05.20 11:03:00.
