data_PCOD9555791
_publ_section_title
;
Structure prediction by ZEFSAII (Michael W. Deem and Ramdas Pophale) SiO2 
 PCOD9555791
Probable space group: P -4 21 M 
;
_chemical_formula_sum "Si O2"
_cell_formula_units_Z 32
_cell_length_a 10.576793
_cell_length_b 10.576793
_cell_length_c 13.972329
_cell_angle_alpha 90.000000
_cell_angle_beta 90.000000
_cell_angle_gamma 90.000000
_cell_volume 1563.064188
_symmetry_space_group_name_H-M "P -4 21 M "
_symmetry_group_IT_number 113
_symmetry_cell_setting 'tetragonal'
loop_
_space_group_symop_operation_xyz
x,y,z
y,-x,-z
-x,-y,z
-y,x,-z
1/2+x,1/2-y,-z
1/2-x,1/2+y,-z
1/2-y,1/2-x,z
1/2+y,1/2+x,z
loop_
_atom_site_type_symbol
_atom_site_label
_atom_site_fract_x
_atom_site_fract_y
_atom_site_fract_z
Si Si1 0.147421 0.352580 0.971997
Si Si2 0.006022 0.790202 0.605027
Si Si3 0.993979 0.790202 0.394973
Si Si4 0.647421 0.852580 0.971998
Si Si5 0.101184 0.601184 0.240396
Si Si6 0.898817 0.601184 0.759603
O O1 0.250000 0.250000 0.011317
O O2 0.155283 0.344718 0.856954
O O3 0.174638 0.500000 0.999999
O O4 0.000000 0.727227 0.500000
O O5 0.968428 0.701109 0.691430
O O6 0.139114 0.860886 0.618397
O O7 0.899837 0.899837 0.600036
O O8 0.031573 0.701109 0.308569
O O9 0.655283 0.844718 0.856955
O O10 0.000000 0.500000 0.206543
O O11 0.000000 0.500000 0.793456
#
# Coordination Sequence:
#
# PCOD9555791 Si02
#       6
#     4   8   8   4   4   4
#     4  11  25  50  73 100 134 169 220 284 342 405
#     4   9  20  38  59  89 129 172 217 257 301 371
#     4   9  20  38  59  89 129 172 217 257 301 371
#     4  11  25  50  73 100 134 169 220 284 342 405
#     4  12  24  39  63  93 131 167 209 267 324 382
#     4  12  24  39  63  93 131 167 209 267 324 382
#
# _framework density 20.472607
#
# number of rings (size 3 to 8) (size 9 to 14) (size 15 to 20)
#    0.000    1.750    2.500    3.750    3.500    3.500 
#    0.000    0.000    0.000    0.000    0.000    0.000 
#    0.000    0.000    0.000    0.000    0.000    0.000 
#
# Total GULP energy -178651.007652 kJ/mol
# GULP energy per Si atom -5582.843989 kJ/mol
# Density = 2.042601 g / cm^3
# Si number density = 20.472607 Si / 1000 Ang^3
#
#
#
# Elastic Constant Matrix: (Units=GPa)
#
#
# Indices 1 2 3 4 5 6 
#
# 1 106.3908 55.1589 34.9652 0.0000 0.0000 0.0000
# 2 55.1589 106.3928 34.9660 0.0000 0.0000 0.0000
# 3 34.9652 34.9660 125.3130 0.0000 0.0000 0.0000
# 4 0.0000 0.0000 0.0000 64.2582 0.0000 0.0000
# 5 0.0000 0.0000 0.0000 0.0000 64.2631 0.0000
# 6 0.0000 0.0000 0.0000 0.0000 0.0000 47.3654
#
#
#
# Elastic Compliance Matrix: (Units=1/GPa)
#
#
# Indices 1 2 3 4 5 6 
#
# 1 0.013280 -0.006239 -0.001964 0.000000 0.000000 0.000000
# 2 -0.006239 0.013279 -0.001964 0.000000 0.000000 0.000000
# 3 -0.001964 -0.001964 0.009076 0.000000 0.000000 0.000000
# 4 0.000000 0.000000 0.000000 0.015562 0.000000 0.000000
# 5 0.000000 0.000000 0.000000 0.000000 0.015561 0.000000
# 6 0.000000 0.000000 0.000000 0.000000 0.000000 0.021112
#
#
# Mechanical properties :
#
#
# Convention : Reuss Voigt Hill
#
# Bulk Modulus (GPa) = 65.36278 65.36410 65.36344
# Shear Modulus (GPa) = 44.12791 49.37778 46.75285
#
# Velocity S-wave (km/s) = 4.64773 4.91643 4.78397
# Velocity P-wave (km/s) = 7.79732 8.01407 7.90644
#
# Compressibility (1/GPa) = 0.01529923
#
# Stress axis : x y z
#
# Youngs Moduli (GPa) = 75.30315 75.30434 110.17730
#
# Poissons Ratio (x) = 0.46984 0.21643
# Poissons Ratio (y) = 0.46983 0.21644
# Poissons Ratio (z) = 0.14793 0.14793
#
# Static dielectric constant tensor:
#      x y z
#    x 1.756180 0.000000 0.000000 
#    y 0.000000 1.756170 0.000000 
#    z 0.000000 0.000000 1.731020 
# 
# From -- ./inp_files/1609.got.cif
#   From: 2010.05.17/outbox.cif.g08.bks.cpg/sg113_cif.got.tgz:1609.got - 2010.05.20 11:03:00.
