data_PCOD9555853
_publ_section_title
;
Structure prediction by ZEFSAII (Michael W. Deem and Ramdas Pophale) SiO2 
 PCOD9555853
Probable space group: P -4 21 C
;
_chemical_formula_sum "Si O2"
_cell_formula_units_Z 36
_cell_length_a 8.247123
_cell_length_b 8.247123
_cell_length_c 22.233429
_cell_angle_alpha 90.000000
_cell_angle_beta 90.000000
_cell_angle_gamma 90.000000
_cell_volume 1512.207513
_symmetry_space_group_name_H-M "P -4 21 C"
_symmetry_group_IT_number 114
_symmetry_cell_setting 'tetragonal'
loop_
_space_group_symop_operation_xyz
x,y,z
y,-x,-z
-x,-y,z
-y,x,-z
1/2+x,1/2-y,1/2-z
1/2-x,1/2+y,1/2-z
1/2-y,1/2-x,1/2+z
1/2+y,1/2+x,1/2+z
loop_
_atom_site_type_symbol
_atom_site_label
_atom_site_fract_x
_atom_site_fract_y
_atom_site_fract_z
Si Si1 0.238857 0.124652 0.068579
Si Si2 0.617887 0.748063 0.429435
Si Si3 0.500000 0.000000 0.148806
Si Si4 0.767190 0.429757 0.184456
Si Si5 0.298942 0.907648 0.755366
O O1 0.397649 0.127205 0.109932
O O2 0.077724 0.232395 0.080147
O O3 0.181078 0.936853 0.076339
O O4 0.290483 0.145953 0.999193
O O5 0.710056 0.867619 0.383529
O O6 0.615794 0.093986 0.194900
O O7 0.792356 0.620311 0.194830
O O8 0.623482 0.373931 0.227789
O O9 0.917514 0.334988 0.217059
#
# Coordination Sequence:
#
# PCOD9555853 Si02
#       5
#     8   8   4   8   8
#     4   9  18  31  56  82 107 147 188 228 281 320
#     4   9  18  33  55  82 107 146 190 232 273 323
#     4  10  18  34  50  84 112 144 178 232 274 334
#     4  10  21  38  54  83 115 140 187 229 267 342
#     4  10  24  35  57  84 109 149 184 218 291 323
#
# _framework density 23.806256000000001
#
# number of rings (size 3 to 8) (size 9 to 14) (size 15 to 20)
#    0.000    2.667    2.222    1.333    6.222    2.667 
#    0.000    0.000    0.000    0.000    0.000    0.000 
#    0.000    0.000    0.000    0.000    0.000    0.000 
#
# Total GULP energy -200670.785244 kJ/mol
# GULP energy per Si atom -5574.188479 kJ/mol
# Density = 2.375207 g / cm^3
# Si number density = 23.806256 Si / 1000 Ang^3
#
#
#
# Elastic Constant Matrix: (Units=GPa)
#
#
# Indices 1 2 3 4 5 6 
#
# 1 38.2282 15.5340 29.7285 0.0000 0.0000 0.0000
# 2 15.5340 38.2282 29.7285 0.0000 0.0000 0.0000
# 3 29.7285 29.7285 138.2102 0.0000 0.0000 0.0000
# 4 0.0000 0.0000 0.0000 16.2614 0.0000 0.0000
# 5 0.0000 0.0000 0.0000 0.0000 16.2614 0.0000
# 6 0.0000 0.0000 0.0000 0.0000 0.0000 24.6962
#
#
#
# Elastic Compliance Matrix: (Units=1/GPa)
#
#
# Indices 1 2 3 4 5 6 
#
# 1 0.034235 -0.009829 -0.005250 0.000000 0.000000 0.000000
# 2 -0.009829 0.034235 -0.005250 0.000000 0.000000 0.000000
# 3 -0.005250 -0.005250 0.009494 0.000000 0.000000 0.000000
# 4 0.000000 0.000000 0.000000 0.061495 0.000000 0.000000
# 5 0.000000 0.000000 0.000000 0.000000 0.061495 0.000000
# 6 0.000000 0.000000 0.000000 0.000000 0.000000 0.040492
#
#
# Mechanical properties :
#
#
# Convention : Reuss Voigt Hill
#
# Bulk Modulus (GPa) = 26.80433 40.51651 33.66042
# Shear Modulus (GPa) = 16.97567 20.75552 18.86560
#
# Velocity S-wave (km/s) = 2.67325 2.95592 2.81813
# Velocity P-wave (km/s) = 4.56203 5.35781 4.97586
#
# Compressibility (1/GPa) = 0.03730740
#
# Stress axis : x y z
#
# Youngs Moduli (GPa) = 29.20968 29.20968 105.33267
#
# Poissons Ratio (x) = 0.28710 0.55296
# Poissons Ratio (y) = 0.28710 0.55296
# Poissons Ratio (z) = 0.15334 0.15334
#
# Static dielectric constant tensor:
#      x y z
#    x 2.124040 0.000000 0.000000 
#    y 0.000000 2.124040 0.000000 
#    z 0.000000 0.000000 1.894020 
# 
# From -- ./inp_files/2936.got.cif
#   From: 2010.05.17/outbox.cif.g08.bks.cpg/sg114_2_cif.got.tgz:2936.got - 2010.05.20 11:04:54.
