data_PCOD9555162
_publ_section_title
;
Structure prediction by ZEFSAII (Michael W. Deem and Ramdas Pophale) SiO2 
 PCOD9555162
Probable space group: P -4 2 C
;
_chemical_formula_sum "Si O2"
_cell_formula_units_Z 48
_cell_length_a 8.476725
_cell_length_b 8.476725
_cell_length_c 29.379850
_cell_angle_alpha 90.000000
_cell_angle_beta 90.000000
_cell_angle_gamma 90.000000
_cell_volume 2111.085206
_symmetry_space_group_name_H-M "P -4 2 C"
_symmetry_group_IT_number 112
_symmetry_cell_setting 'tetragonal'
loop_
_space_group_symop_operation_xyz
x,y,z
y,-x,-z
-x,-y,z
-y,x,-z
x,-y,1/2-z
-x,y,1/2-z
-y,-x,1/2+z
y,x,1/2+z
loop_
_atom_site_type_symbol
_atom_site_label
_atom_site_fract_x
_atom_site_fract_y
_atom_site_fract_z
Si Si1 0.365182 0.384655 0.815371
Si Si2 0.404622 0.254843 0.564311
Si Si3 0.241452 0.907672 0.013645
Si Si4 0.818893 0.185663 0.759641
Si Si5 0.412968 0.259535 0.413152
Si Si6 0.139758 0.611936 0.343486
O O1 0.500000 0.500000 0.797176
O O2 0.280307 0.294126 0.774624
O O3 0.251843 0.430619 0.857645
O O4 0.484411 0.275036 0.842651
O O5 0.377307 0.167832 0.517362
O O6 0.294361 0.409608 0.569768
O O7 0.583612 0.316822 0.569954
O O8 0.349878 0.129541 0.603517
O O9 0.312220 0.882363 0.064439
O O10 0.083310 0.806108 0.002078
O O11 0.753646 0.192103 0.810973
O O12 0.000000 0.226049 0.750000
O O13 0.798983 0.000000 0.750000
O O14 0.000000 0.500000 0.325252
#
# Coordination Sequence:
#
# PCOD9555162 Si02
#       6
#     8   8   8   8   8   8
#     4  11  22  44  70 100 132 177 230 286 334 403
#     4  10  22  41  66  96 126 168 219 275 326 393
#     4  11  26  41  61  95 133 174 217 269 338 407
#     4  11  25  42  65 103 144 185 227 284 353 413
#     4  10  21  43  65  96 127 163 220 277 330 386
#     4  11  22  40  68 101 131 180 235 274 334 415
#
# _framework density 22.737119
#
# number of rings (size 3 to 8) (size 9 to 14) (size 15 to 20)
#    0.000    1.333    5.000    1.500    4.667    6.000 
#    0.000    5.000    0.000    0.000    0.000    0.000 
#    0.000    0.000    0.000    0.000    0.000    0.000 
#
# Total GULP energy -267440.116692 kJ/mol
# GULP energy per Si atom -5571.669098 kJ/mol
# Density = 2.268537 g / cm^3
# Si number density = 22.737119 Si / 1000 Ang^3
#
#
#
# Elastic Constant Matrix: (Units=GPa)
#
#
# Indices 1 2 3 4 5 6 
#
# 1 54.6153 32.3445 27.8696 0.0000 0.0000 0.0000
# 2 32.3445 54.6153 27.8696 0.0000 0.0000 0.0000
# 3 27.8696 27.8696 118.3076 0.0000 0.0000 0.0000
# 4 0.0000 0.0000 0.0000 25.6459 0.0000 0.0000
# 5 0.0000 0.0000 0.0000 0.0000 25.6459 0.0000
# 6 0.0000 0.0000 0.0000 0.0000 0.0000 33.2865
#
#
#
# Elastic Compliance Matrix: (Units=1/GPa)
#
#
# Indices 1 2 3 4 5 6 
#
# 1 0.029223 -0.015679 -0.003191 0.000000 0.000000 0.000000
# 2 -0.015679 0.029223 -0.003191 0.000000 0.000000 0.000000
# 3 -0.003191 -0.003191 0.009956 0.000000 0.000000 0.000000
# 4 0.000000 0.000000 0.000000 0.038993 0.000000 0.000000
# 5 0.000000 0.000000 0.000000 0.000000 0.038993 0.000000
# 6 0.000000 0.000000 0.000000 0.000000 0.000000 0.030042
#
#
# Mechanical properties :
#
#
# Convention : Reuss Voigt Hill
#
# Bulk Modulus (GPa) = 41.18206 44.85619 43.01912
# Shear Modulus (GPa) = 21.86805 26.21262 24.04033
#
# Velocity S-wave (km/s) = 3.10462 3.39906 3.25517
# Velocity P-wave (km/s) = 5.56804 5.93092 5.75234
#
# Compressibility (1/GPa) = 0.02428242
#
# Stress axis : x y z
#
# Youngs Moduli (GPa) = 34.21924 34.21924 100.44382
#
# Poissons Ratio (x) = 0.53651 0.32049
# Poissons Ratio (y) = 0.53651 0.32049
# Poissons Ratio (z) = 0.10918 0.10918
#
# Static dielectric constant tensor:
#      x y z
#    x 1.880830 0.000000 0.000000 
#    y 0.000000 1.880830 0.000000 
#    z 0.000000 0.000000 1.923980 
# 
# From -- ./inp_files/6284.got.cif
#   From: 2010.05.17/outbox.cif.g08.bks.cpg/sg112_4_cif.got.tgz:6284.got - 2010.05.20 10:59:04.
