data_PCOD9555471
_publ_section_title
;
Structure prediction by ZEFSAII (Michael W. Deem and Ramdas Pophale) SiO2 
 PCOD9555471
Probable space group: P -4 21 M 
;
_chemical_formula_sum "Si O2"
_cell_formula_units_Z 56
_cell_length_a 15.575582
_cell_length_b 15.575582
_cell_length_c 14.687192
_cell_angle_alpha 90.000000
_cell_angle_beta 90.000000
_cell_angle_gamma 90.000000
_cell_volume 3563.094488
_symmetry_space_group_name_H-M "P -4 21 M "
_symmetry_group_IT_number 113
_symmetry_cell_setting 'tetragonal'
loop_
_space_group_symop_operation_xyz
x,y,z
y,-x,-z
-x,-y,z
-y,x,-z
1/2+x,1/2-y,-z
1/2-x,1/2+y,-z
1/2-y,1/2-x,z
1/2+y,1/2+x,z
loop_
_atom_site_type_symbol
_atom_site_label
_atom_site_fract_x
_atom_site_fract_y
_atom_site_fract_z
Si Si1 0.293696 0.535643 0.566285
Si Si2 0.564041 0.581296 0.603074
Si Si3 0.359909 0.539676 0.099864
Si Si4 0.356818 0.998451 0.572974
Si Si5 0.516855 0.276833 0.731771
Si Si6 0.349594 0.291991 0.259311
Si Si7 0.137393 0.030508 0.108387
O O1 0.341232 0.456372 0.615782
O O2 0.363820 0.564006 0.490082
O O3 0.210751 0.509007 0.509151
O O4 0.279076 0.608105 0.641360
O O5 0.500000 0.500000 0.602130
O O6 0.527503 0.643581 0.679347
O O7 0.281974 0.527453 0.169690
O O8 0.417059 0.452819 0.110150
O O9 0.429808 0.614263 0.120973
O O10 0.331111 0.543832 0.995101
O O11 0.412306 0.912306 0.563598
O O12 0.304852 0.996856 0.667841
O O13 0.422191 0.077810 0.571613
O O14 0.618113 0.297320 0.738567
O O15 0.285444 0.214557 0.237688
O O16 0.425144 0.304834 0.185044
#
# Coordination Sequence:
#
# PCOD9555471 Si02
#       7
#     8   8   8   8   8   8   8
#     4  11  18  30  48  70  95 124 161 193 238 290
#     4  11  17  28  46  74  99 125 146 183 244 294
#     4   8  14  27  47  70  90 121 152 191 236 298
#     4  10  22  38  49  61  89 131 172 205 235 275
#     4  10  19  29  50  72  95 122 158 196 241 290
#     4  11  20  28  43  71 101 127 158 197 237 280
#     4   8  15  27  44  68  99 120 150 184 240 298
#
# _framework density 15.716676
#
# number of rings (size 3 to 8) (size 9 to 14) (size 15 to 20)
#    0.000    2.143    2.857    3.429    2.000    0.000 
#    0.000    3.571    0.000    0.000    0.000   10.000 
#    0.000    2.286    0.000    0.000    0.000    0.000 
#
# Total GULP energy -311948.667550 kJ/mol
# GULP energy per Si atom -5570.511921 kJ/mol
# Density = 1.568090 g / cm^3
# Si number density = 15.716676 Si / 1000 Ang^3
#
#
#
# Elastic Constant Matrix: (Units=GPa)
#
#
# Indices 1 2 3 4 5 6 
#
# 1 73.3937 35.4777 37.7967 0.0000 0.0000 0.0000
# 2 35.4777 73.3974 37.7976 0.0000 0.0000 0.0000
# 3 37.7967 37.7976 93.6376 0.0000 0.0000 0.0000
# 4 0.0000 0.0000 0.0000 10.9757 0.0000 0.0000
# 5 0.0000 0.0000 0.0000 0.0000 10.9757 0.0000
# 6 0.0000 0.0000 0.0000 0.0000 0.0000 20.3487
#
#
#
# Elastic Compliance Matrix: (Units=1/GPa)
#
#
# Indices 1 2 3 4 5 6 
#
# 1 0.019568 -0.006806 -0.005151 0.000000 0.000000 0.000000
# 2 -0.006806 0.019567 -0.005151 0.000000 0.000000 0.000000
# 3 -0.005151 -0.005151 0.014838 0.000000 0.000000 0.000000
# 4 0.000000 0.000000 0.000000 0.091111 0.000000 0.000000
# 5 0.000000 0.000000 0.000000 0.000000 0.091111 0.000000
# 6 0.000000 0.000000 0.000000 0.000000 0.000000 0.049143
#
#
# Mechanical properties :
#
#
# Convention : Reuss Voigt Hill
#
# Bulk Modulus (GPa) = 50.61664 51.39697 51.00681
# Shear Modulus (GPa) = 15.33089 17.08379 16.20734
#
# Velocity S-wave (km/s) = 3.12661 3.30052 3.21474
# Velocity P-wave (km/s) = 6.73126 6.87734 6.80469
#
# Compressibility (1/GPa) = 0.01975635
#
# Stress axis : x y z
#
# Youngs Moduli (GPa) = 51.10449 51.10711 67.39375
#
# Poissons Ratio (x) = 0.34781 0.34717
# Poissons Ratio (y) = 0.34779 0.34716
# Poissons Ratio (z) = 0.26326 0.26326
#
# Static dielectric constant tensor:
#      x y z
#    x 1.520920 0.000000 0.000000 
#    y 0.000000 1.520920 0.000000 
#    z 0.000000 0.000000 1.566630 
# 
# From -- ./inp_files/2282.got.cif
#   From: 2010.05.17/outbox.cif.g08.bks.cpg/sg113_cif.got.tgz:2282.got - 2010.05.20 11:03:00.
