data_PCOD9555609
_publ_section_title
;
Structure prediction by ZEFSAII (Michael W. Deem and Ramdas Pophale) SiO2 
 PCOD9555609
Probable space group: P -4 21 M 
;
_chemical_formula_sum "Si O2"
_cell_formula_units_Z 48
_cell_length_a 11.226200
_cell_length_b 11.226200
_cell_length_c 18.962784
_cell_angle_alpha 90.000000
_cell_angle_beta 90.000000
_cell_angle_gamma 90.000000
_cell_volume 2389.833520
_symmetry_space_group_name_H-M "P -4 21 M "
_symmetry_group_IT_number 113
_symmetry_cell_setting 'tetragonal'
loop_
_space_group_symop_operation_xyz
x,y,z
y,-x,-z
-x,-y,z
-y,x,-z
1/2+x,1/2-y,-z
1/2-x,1/2+y,-z
1/2-y,1/2-x,z
1/2+y,1/2+x,z
loop_
_atom_site_type_symbol
_atom_site_label
_atom_site_fract_x
_atom_site_fract_y
_atom_site_fract_z
Si Si1 0.054425 0.742784 0.922793
Si Si2 0.742215 0.053879 0.923061
Si Si3 0.201150 0.886209 0.327928
Si Si4 0.814282 0.873271 0.403491
Si Si5 0.397212 0.601699 0.175302
Si Si6 0.449102 0.239071 0.559234
O O1 0.126891 0.626891 0.898356
O O2 0.150922 0.849583 0.930183
O O3 0.955434 0.790793 0.869317
O O4 0.000471 0.721307 0.999892
O O5 0.626183 0.126183 0.899041
O O6 0.789859 0.955646 0.869047
O O7 0.337512 0.837512 0.329162
O O8 0.146400 0.859859 0.251776
O O9 0.134979 0.813348 0.388816
O O10 0.171592 0.022276 0.347265
O O11 0.699954 0.800047 0.381171
O O12 0.786225 0.932072 0.479558
O O13 0.920631 0.779123 0.415472
O O14 0.500000 0.500000 0.182037
O O15 0.395633 0.104368 0.561046
#
# Coordination Sequence:
#
# PCOD9555609 Si02
#       6
#     8   8   8   8   8   8
#     4  10  20  35  60  91 123 165 213 257 310 376
#     4  10  20  36  62  92 123 165 217 264 313 377
#     4  11  24  41  62  92 127 169 215 263 323 387
#     4  11  22  38  65  95 127 169 214 264 323 388
#     4  10  21  38  62  89 128 171 210 259 322 382
#     4  10  21  38  63  95 126 165 214 261 318 388
#
# _framework density 20.085082
#
# number of rings (size 3 to 8) (size 9 to 14) (size 15 to 20)
#    0.000    1.667    3.333    1.500    0.000    3.000 
#    0.000    5.833    0.000    1.000    0.000    0.000 
#    0.000    0.000    0.000    0.000    0.000    0.000 
#
# Total GULP energy -267887.741360 kJ/mol
# GULP energy per Si atom -5580.994612 kJ/mol
# Density = 2.003937 g / cm^3
# Si number density = 20.085082 Si / 1000 Ang^3
#
#
#
# Elastic Constant Matrix: (Units=GPa)
#
#
# Indices 1 2 3 4 5 6 
#
# 1 25.9913 81.4336 22.3389 0.0000 0.0000 0.0000
# 2 81.4336 25.9809 22.3447 0.0000 0.0000 0.0000
# 3 22.3389 22.3447 65.8632 0.0000 0.0000 0.0000
# 4 0.0000 0.0000 0.0000 -8.9958 0.0000 0.0000
# 5 0.0000 0.0000 0.0000 0.0000 -8.9953 0.0000
# 6 0.0000 0.0000 0.0000 0.0000 0.0000 19.3395
#
#
#
# Elastic Compliance Matrix: (Units=1/GPa)
#
#
# Indices 1 2 3 4 5 6 
#
# 1 -0.003597 0.014437 -0.003678 0.000000 0.000000 0.000000
# 2 0.014437 -0.003600 -0.003675 0.000000 0.000000 0.000000
# 3 -0.003678 -0.003675 0.017677 0.000000 0.000000 0.000000
# 4 0.000000 0.000000 0.000000 -0.111163 0.000000 0.000000
# 5 0.000000 0.000000 0.000000 0.000000 -0.111169 0.000000
# 6 0.000000 0.000000 0.000000 0.000000 0.000000 0.051708
#
#
# Mechanical properties :
#
#
# Convention : Reuss Voigt Hill
#
# Bulk Modulus (GPa) = 40.57106 41.11884 40.84495
# Shear Modulus (GPa) = -30.10324 -0.28243 -15.19283
#
# Velocity S-wave (km/s) = -3.87562 -0.37540 -2.75330
# Velocity P-wave (km/s) = 0.46504 4.50876 3.20508
#
# Compressibility (1/GPa) = 0.02464811
#
# Stress axis : x y z
#
# Youngs Moduli (GPa) = -278.02337 -277.80675 56.56962
#
# Poissons Ratio (x) = 4.01066 0.20806
# Poissons Ratio (y) = 4.01379 0.20791
# Poissons Ratio (z) = -1.02254 -1.02104
#
# Static dielectric constant tensor:
#      x y z
#    x 1.734420 0.000000 0.000000 
#    y 0.000000 1.734420 0.000000 
#    z 0.000000 0.000000 1.644140 
# 
# From -- ./inp_files/2487.got.cif
#   From: 2010.05.17/outbox.cif.g08.bks.cpg/sg113_cif.got.tgz:2487.got - 2010.05.20 11:03:00.
