data_PCOD9555621
_publ_section_title
;
Structure prediction by ZEFSAII (Michael W. Deem and Ramdas Pophale) SiO2 
 PCOD9555621
Probable space group: P -4 21 M 
;
_chemical_formula_sum "Si O2"
_cell_formula_units_Z 40
_cell_length_a 14.645557
_cell_length_b 14.645557
_cell_length_c 9.228286
_cell_angle_alpha 90.000000
_cell_angle_beta 90.000000
_cell_angle_gamma 90.000000
_cell_volume 1979.396657
_symmetry_space_group_name_H-M "P -4 21 M "
_symmetry_group_IT_number 113
_symmetry_cell_setting 'tetragonal'
loop_
_space_group_symop_operation_xyz
x,y,z
y,-x,-z
-x,-y,z
-y,x,-z
1/2+x,1/2-y,-z
1/2-x,1/2+y,-z
1/2-y,1/2-x,z
1/2+y,1/2+x,z
loop_
_atom_site_type_symbol
_atom_site_label
_atom_site_fract_x
_atom_site_fract_y
_atom_site_fract_z
Si Si1 0.013804 0.214072 0.126163
Si Si2 0.683735 0.415643 0.846429
Si Si3 0.916582 0.069285 0.329282
Si Si4 0.494718 0.852436 0.626675
Si Si5 0.724172 0.367100 0.534626
O O1 0.101538 0.149378 0.096054
O O2 0.035330 0.299445 0.228511
O O3 0.951535 0.149632 0.226631
O O4 0.954831 0.237544 0.984025
O O5 0.649801 0.506952 0.764347
O O6 0.724089 0.363804 0.708121
O O7 0.876197 0.122274 0.468605
O O8 0.000000 0.000000 0.356350
O O9 0.408783 0.908783 0.565458
O O10 0.544414 0.781579 0.518708
O O11 0.572966 0.927035 0.661953
O O12 0.778502 0.278502 0.478060
#
# Coordination Sequence:
#
# PCOD9555621 Si02
#       5
#     8   8   8   8   8
#     4  10  20  36  58  87 119 155 197 242 299 362
#     4  11  21  35  56  88 121 157 193 248 302 359
#     4   9  20  34  58  86 115 157 200 242 299 367
#     4   9  20  42  65  83 113 160 207 248 300 368
#     4  10  23  39  58  89 123 157 203 257 308 359
#
# _framework density 20.208178
#
# number of rings (size 3 to 8) (size 9 to 14) (size 15 to 20)
#    0.000    2.200    2.000    0.000    8.400    1.600 
#    0.000    2.000    0.000    2.400    0.000    0.000 
#    0.000    0.000    0.000    0.000    0.000    0.000 
#
# Total GULP energy -222899.945899 kJ/mol
# GULP energy per Si atom -5572.498647 kJ/mol
# Density = 2.016218 g / cm^3
# Si number density = 20.208178 Si / 1000 Ang^3
#
#
#
# Elastic Constant Matrix: (Units=GPa)
#
#
# Indices 1 2 3 4 5 6 
#
# 1 60.2666 21.3070 13.4700 0.0000 0.0000 0.0000
# 2 21.3070 60.2670 13.4699 0.0000 0.0000 0.0000
# 3 13.4700 13.4699 95.6171 0.0000 0.0000 0.0000
# 4 0.0000 0.0000 0.0000 19.7293 0.0000 0.0000
# 5 0.0000 0.0000 0.0000 0.0000 19.7292 0.0000
# 6 0.0000 0.0000 0.0000 0.0000 0.0000 27.8484
#
#
#
# Elastic Compliance Matrix: (Units=1/GPa)
#
#
# Indices 1 2 3 4 5 6 
#
# 1 0.019262 -0.006405 -0.001811 0.000000 0.000000 0.000000
# 2 -0.006405 0.019262 -0.001811 0.000000 0.000000 0.000000
# 3 -0.001811 -0.001811 0.010969 0.000000 0.000000 0.000000
# 4 0.000000 0.000000 0.000000 0.050686 0.000000 0.000000
# 5 0.000000 0.000000 0.000000 0.000000 0.050686 0.000000
# 6 0.000000 0.000000 0.000000 0.000000 0.000000 0.035909
#
#
# Mechanical properties :
#
#
# Convention : Reuss Voigt Hill
#
# Bulk Modulus (GPa) = 33.96990 34.73826 34.35408
# Shear Modulus (GPa) = 23.07954 24.65497 23.86726
#
# Velocity S-wave (km/s) = 3.38315 3.49671 3.44040
# Velocity P-wave (km/s) = 5.66634 5.79052 5.72877
#
# Compressibility (1/GPa) = 0.02943782
#
# Stress axis : x y z
#
# Youngs Moduli (GPa) = 51.91483 51.91527 91.16864
#
# Poissons Ratio (x) = 0.33253 0.16513
# Poissons Ratio (y) = 0.33253 0.16512
# Poissons Ratio (z) = 0.09403 0.09403
#
# Static dielectric constant tensor:
#      x y z
#    x 1.741330 0.000000 0.000000 
#    y 0.000000 1.741330 0.000000 
#    z 0.000000 0.000000 1.740070 
# 
# From -- ./inp_files/1019.got.cif
#   From: 2010.05.17/outbox.cif.g08.bks.cpg/sg113_cif.got.tgz:1019.got - 2010.05.20 11:03:00.
