data_PCOD9555089
_publ_section_title
;
Structure prediction by ZEFSAII (Michael W. Deem and Ramdas Pophale) SiO2 
 PCOD9555089
Probable space group: P -4 2 C
;
_chemical_formula_sum "Si O2"
_cell_formula_units_Z 54
_cell_length_a 14.429179
_cell_length_b 14.429179
_cell_length_c 12.175934
_cell_angle_alpha 90.000000
_cell_angle_beta 90.000000
_cell_angle_gamma 90.000000
_cell_volume 2535.044150
_symmetry_space_group_name_H-M "P -4 2 C"
_symmetry_group_IT_number 112
_symmetry_cell_setting 'tetragonal'
loop_
_space_group_symop_operation_xyz
x,y,z
y,-x,-z
-x,-y,z
-y,x,-z
x,-y,1/2-z
-x,y,1/2-z
-y,-x,1/2+z
y,x,1/2+z
loop_
_atom_site_type_symbol
_atom_site_label
_atom_site_fract_x
_atom_site_fract_y
_atom_site_fract_z
Si Si1 0.629186 0.742421 0.505479
Si Si2 0.234217 0.418126 0.438911
Si Si3 0.119538 0.398991 0.808921
Si Si4 0.337942 0.928721 0.414073
Si Si5 0.642101 0.851249 0.715849
Si Si6 0.016047 0.856041 0.022806
Si Si7 0.000000 0.500000 0.250000
Si Si8 0.000000 0.784952 0.250000
O O1 0.522769 0.732627 0.543331
O O2 0.688533 0.651357 0.484876
O O3 0.623306 0.798774 0.392177
O O4 0.673237 0.800892 0.605712
O O5 0.139039 0.396536 0.506466
O O6 0.214047 0.398544 0.310614
O O7 0.125799 0.500000 0.750000
O O8 0.118552 0.329057 0.705781
O O9 0.025325 0.387901 0.880088
O O10 0.239425 0.951123 0.468770
O O11 0.565787 0.930088 0.683400
O O12 0.721537 0.911069 0.773360
O O13 0.976006 0.839890 0.142966
O O14 0.930901 0.903023 0.960213
#
# Coordination Sequence:
#
# PCOD9555089 Si02
#       8
#     8   8   8   8   8   8   2   4
#     4  12  28  46  74 105 147 189 241 302 359 439
#     4  12  27  46  74 103 144 190 246 296 362 428
#     4  11  25  44  74 108 141 177 226 303 367 415
#     4  11  24  44  70 106 136 182 232 295 355 416
#     4  11  24  43  70 109 135 183 237 301 359 420
#     4  11  27  46  65  97 145 194 237 278 345 440
#     4  10  20  40  72  98 144 170 220 302 352 418
#     4  11  24  40  72 101 136 190 236 291 352 418
#
# _framework density 21.301404000000002
#
# number of rings (size 3 to 8) (size 9 to 14) (size 15 to 20)
#    0.000    0.741    4.444    1.778    8.296    3.852 
#    0.000    0.000    0.000    1.778    0.000    0.000 
#    0.000    0.000    0.000    0.000    0.000    0.000 
#
# Total GULP energy -301866.416403 kJ/mol
# GULP energy per Si atom -5590.118822 kJ/mol
# Density = 2.125292 g / cm^3
# Si number density = 21.301404 Si / 1000 Ang^3
#
#
#
# Elastic Constant Matrix: (Units=GPa)
#
#
# Indices 1 2 3 4 5 6 
#
# 1 55.5847 17.9022 11.7650 0.0000 0.0000 0.0000
# 2 17.9022 55.5847 11.7650 0.0000 0.0000 0.0000
# 3 11.7650 11.7650 94.1905 0.0000 0.0000 0.0000
# 4 0.0000 0.0000 0.0000 20.5780 0.0000 0.0000
# 5 0.0000 0.0000 0.0000 0.0000 20.5780 0.0000
# 6 0.0000 0.0000 0.0000 0.0000 0.0000 25.8849
#
#
#
# Elastic Compliance Matrix: (Units=1/GPa)
#
#
# Indices 1 2 3 4 5 6 
#
# 1 0.020356 -0.006181 -0.001771 0.000000 0.000000 0.000000
# 2 -0.006181 0.020356 -0.001771 0.000000 0.000000 0.000000
# 3 -0.001771 -0.001771 0.011059 0.000000 0.000000 0.000000
# 4 0.000000 0.000000 0.000000 0.048596 0.000000 0.000000
# 5 0.000000 0.000000 0.000000 0.000000 0.048596 0.000000
# 6 0.000000 0.000000 0.000000 0.000000 0.000000 0.038633
#
#
# Mechanical properties :
#
#
# Convention : Reuss Voigt Hill
#
# Bulk Modulus (GPa) = 30.93432 32.02491 31.47962
# Shear Modulus (GPa) = 22.95519 24.33668 23.64594
#
# Velocity S-wave (km/s) = 3.28630 3.38374 3.33538
# Velocity P-wave (km/s) = 5.38084 5.50755 5.44456
#
# Compressibility (1/GPa) = 0.03232656
#
# Stress axis : x y z
#
# Youngs Moduli (GPa) = 49.12517 49.12517 90.42344
#
# Poissons Ratio (x) = 0.30366 0.16010
# Poissons Ratio (y) = 0.30366 0.16010
# Poissons Ratio (z) = 0.08698 0.08698
#
# Static dielectric constant tensor:
#      x y z
#    x 1.779300 0.000000 0.000000 
#    y 0.000000 1.779300 0.000000 
#    z 0.000000 0.000000 1.764140 
# 
# From -- ./inp_files/2701.got.cif
#   From: 2010.05.17/outbox.cif.g08.bks.cpg/sg112_2_cif.got.tgz:2701.got - 2010.05.20 10:59:04.
