data_PCOD9555507
_publ_section_title
;
Structure prediction by ZEFSAII (Michael W. Deem and Ramdas Pophale) SiO2 
 PCOD9555507
Probable space group: P -4 21 M 
;
_chemical_formula_sum "Si O2"
_cell_formula_units_Z 64
_cell_length_a 13.260385
_cell_length_b 13.260385
_cell_length_c 21.755152
_cell_angle_alpha 90.000000
_cell_angle_beta 90.000000
_cell_angle_gamma 90.000000
_cell_volume 3825.378291
_symmetry_space_group_name_H-M "P -4 21 M "
_symmetry_group_IT_number 113
_symmetry_cell_setting 'tetragonal'
loop_
_space_group_symop_operation_xyz
x,y,z
y,-x,-z
-x,-y,z
-y,x,-z
1/2+x,1/2-y,-z
1/2-x,1/2+y,-z
1/2-y,1/2-x,z
1/2+y,1/2+x,z
loop_
_atom_site_type_symbol
_atom_site_label
_atom_site_fract_x
_atom_site_fract_y
_atom_site_fract_z
Si Si1 0.720416 0.612856 0.650144
Si Si2 0.767034 0.432466 0.559515
Si Si3 0.145451 0.954970 0.974691
Si Si4 0.298984 0.631262 0.864939
Si Si5 0.963166 0.111511 0.742447
Si Si6 0.661053 0.999404 0.047518
Si Si7 0.234547 0.567573 0.415152
Si Si8 0.866775 0.793909 0.357868
O O1 0.807794 0.692207 0.667488
O O2 0.763008 0.531601 0.601289
O O3 0.673876 0.551435 0.707588
O O4 0.633066 0.675636 0.615173
O O5 0.872282 0.372282 0.566280
O O6 0.748579 0.449931 0.487647
O O7 0.681676 0.357614 0.586228
O O8 0.141069 0.895098 0.910724
O O9 0.258613 0.958538 0.999306
O O10 0.069618 0.896499 0.021850
O O11 0.235426 0.735426 0.859186
O O12 0.332286 0.584260 0.800639
O O13 0.224651 0.552632 0.898751
O O14 0.874462 0.100561 0.692500
O O15 0.000000 0.000000 0.759894
O O16 0.588118 0.088118 0.069455
O O17 0.588355 0.911646 0.021064
O O18 0.134159 0.634159 0.408435
O O19 0.231349 0.461272 0.381526
O O20 0.779417 0.720584 0.333802
#
# Coordination Sequence:
#
# PCOD9555507 Si02
#       8
#     8   8   8   8   8   8   8   8
#     4  10  21  37  54  77 109 142 177 222 274 326
#     4   9  19  32  52  79 106 134 171 216 271 333
#     4   9  18  32  55  83 113 145 181 220 266 318
#     4  10  21  35  56  83 110 141 181 227 269 315
#     4  11  22  37  58  76 102 143 186 224 263 313
#     4   9  18  33  54  82 117 149 176 214 270 329
#     4  10  19  33  52  78 105 135 173 219 273 328
#     4  10  20  36  53  75 103 137 176 218 264 319
#
# _framework density 16.730371000000002
#
# number of rings (size 3 to 8) (size 9 to 14) (size 15 to 20)
#    0.000    2.250    1.250    1.500    3.500    3.500 
#    0.000    2.500    0.000    0.750    0.000    0.000 
#    0.000    0.000    0.000    0.000    0.000    0.000 
#
# Total GULP energy -356776.820375 kJ/mol
# GULP energy per Si atom -5574.637818 kJ/mol
# Density = 1.669229 g / cm^3
# Si number density = 16.730371 Si / 1000 Ang^3
#
#
#
# Elastic Constant Matrix: (Units=GPa)
#
#
# Indices 1 2 3 4 5 6 
#
# 1 77.0352 25.8161 32.0954 0.0000 0.0000 0.0000
# 2 25.8161 77.0315 32.0940 0.0000 0.0000 0.0000
# 3 32.0954 32.0940 75.2081 0.0000 0.0000 0.0000
# 4 0.0000 0.0000 0.0000 16.4706 0.0000 0.0000
# 5 0.0000 0.0000 0.0000 0.0000 16.4710 0.0000
# 6 0.0000 0.0000 0.0000 0.0000 0.0000 17.1652
#
#
#
# Elastic Compliance Matrix: (Units=1/GPa)
#
#
# Indices 1 2 3 4 5 6 
#
# 1 0.016388 -0.003136 -0.005656 0.000000 0.000000 0.000000
# 2 -0.003136 0.016389 -0.005655 0.000000 0.000000 0.000000
# 3 -0.005656 -0.005655 0.018123 0.000000 0.000000 0.000000
# 4 0.000000 0.000000 0.000000 0.060714 0.000000 0.000000
# 5 0.000000 0.000000 0.000000 0.000000 0.060713 0.000000
# 6 0.000000 0.000000 0.000000 0.000000 0.000000 0.058257
#
#
# Mechanical properties :
#
#
# Convention : Reuss Voigt Hill
#
# Bulk Modulus (GPa) = 45.44091 45.47620 45.45856
# Shear Modulus (GPa) = 18.73961 19.30598 19.02280
#
# Velocity S-wave (km/s) = 3.35041 3.40067 3.37563
# Velocity P-wave (km/s) = 6.49513 6.53148 6.51333
#
# Compressibility (1/GPa) = 0.02200660
#
# Stress axis : x y z
#
# Youngs Moduli (GPa) = 61.01913 61.01669 55.17750
#
# Poissons Ratio (x) = 0.19135 0.31206
# Poissons Ratio (y) = 0.19136 0.31205
# Poissons Ratio (z) = 0.34509 0.34508
#
# Static dielectric constant tensor:
#      x y z
#    x 1.567760 0.000000 0.000000 
#    y 0.000000 1.567760 0.000000 
#    z 0.000000 0.000000 1.534260 
# 
# From -- ./inp_files/2900.got.cif
#   From: 2010.05.17/outbox.cif.g08.bks.cpg/sg113_cif.got.tgz:2900.got - 2010.05.20 11:03:00.
