data_PCOD9555849
_publ_section_title
;
Structure prediction by ZEFSAII (Michael W. Deem and Ramdas Pophale) SiO2 
 PCOD9555849
Probable space group: P -4 21 C
;
_chemical_formula_sum "Si O2"
_cell_formula_units_Z 60
_cell_length_a 14.639246
_cell_length_b 14.639246
_cell_length_c 13.582613
_cell_angle_alpha 90.000000
_cell_angle_beta 90.000000
_cell_angle_gamma 90.000000
_cell_volume 2910.856154
_symmetry_space_group_name_H-M "P -4 21 C"
_symmetry_group_IT_number 114
_symmetry_cell_setting 'tetragonal'
loop_
_space_group_symop_operation_xyz
x,y,z
y,-x,-z
-x,-y,z
-y,x,-z
1/2+x,1/2-y,1/2-z
1/2-x,1/2+y,1/2-z
1/2-y,1/2-x,1/2+z
1/2+y,1/2+x,1/2+z
loop_
_atom_site_type_symbol
_atom_site_label
_atom_site_fract_x
_atom_site_fract_y
_atom_site_fract_z
Si Si1 0.199808 0.974702 0.864050
Si Si2 0.707901 0.854289 0.955379
Si Si3 0.269884 0.694869 0.338476
Si Si4 0.306086 0.497572 0.255193
Si Si5 0.060589 0.790187 0.559309
Si Si6 0.055209 0.203066 0.367557
Si Si7 0.327232 0.775854 0.666526
Si Si8 0.000000 0.000000 0.857360
O O1 0.225731 0.869320 0.877794
O O2 0.189502 0.982486 0.744011
O O3 0.269280 0.046080 0.912777
O O4 0.098077 0.987391 0.909266
O O5 0.616465 0.803158 0.921546
O O6 0.790905 0.792139 0.915886
O O7 0.709268 0.839389 0.072135
O O8 0.285981 0.603789 0.274649
O O9 0.240413 0.774334 0.264954
O O10 0.296290 0.480071 0.139330
O O11 0.238403 0.433231 0.315395
O O12 0.408735 0.485230 0.293274
O O13 0.124708 0.876704 0.588506
O O14 0.023379 0.790237 0.448800
O O15 0.122968 0.290582 0.357021
#
# Coordination Sequence:
#
# PCOD9555849 Si02
#       8
#     8   8   8   8   8   8   8   4
#     4  10  21  38  58  87 133 159 206 266 321 392
#     4  11  23  37  63  91 122 176 209 263 331 394
#     4  10  23  41  59  94 122 163 227 257 323 404
#     4  11  21  39  61  89 130 167 204 270 322 405
#     4  11  24  38  63  99 126 169 224 261 341 399
#     4  10  23  39  59  97 132 165 219 272 333 395
#     4  10  22  41  60  90 130 174 209 269 338 391
#     4  10  18  32  56  92 120 156 196 252 334 368
#
# _framework density 20.612492
#
# number of rings (size 3 to 8) (size 9 to 14) (size 15 to 20)
#    0.000    1.600    6.667    0.000    9.333    0.267 
#    0.000    0.667    0.000   10.400    0.000    0.000 
#    0.000    0.000    0.000    0.000    0.000    0.000 
#
# Total GULP energy -334535.009211 kJ/mol
# GULP energy per Si atom -5575.583487 kJ/mol
# Density = 2.056558 g / cm^3
# Si number density = 20.612492 Si / 1000 Ang^3
#
#
#
# Elastic Constant Matrix: (Units=GPa)
#
#
# Indices 1 2 3 4 5 6 
#
# 1 48.2818 27.6989 17.9540 0.0000 0.0000 0.0000
# 2 27.6989 48.2818 17.9540 0.0000 0.0000 0.0000
# 3 17.9540 17.9540 78.0426 0.0000 0.0000 0.0000
# 4 0.0000 0.0000 0.0000 26.2652 0.0000 0.0000
# 5 0.0000 0.0000 0.0000 0.0000 26.2652 0.0000
# 6 0.0000 0.0000 0.0000 0.0000 0.0000 13.8532
#
#
#
# Elastic Compliance Matrix: (Units=1/GPa)
#
#
# Indices 1 2 3 4 5 6 
#
# 1 0.031675 -0.016909 -0.003397 0.000000 0.000000 0.000000
# 2 -0.016909 0.031675 -0.003397 0.000000 0.000000 0.000000
# 3 -0.003397 -0.003397 0.014377 0.000000 0.000000 0.000000
# 4 0.000000 0.000000 0.000000 0.038073 0.000000 0.000000
# 5 0.000000 0.000000 0.000000 0.000000 0.038073 0.000000
# 6 0.000000 0.000000 0.000000 0.000000 0.000000 0.072185
#
#
# Mechanical properties :
#
#
# Convention : Reuss Voigt Hill
#
# Bulk Modulus (GPa) = 32.97998 33.53555 33.25776
# Shear Modulus (GPa) = 17.63218 20.67665 19.15441
#
# Velocity S-wave (km/s) = 2.92792 3.17063 3.05169
# Velocity P-wave (km/s) = 5.24070 5.45057 5.34667
#
# Compressibility (1/GPa) = 0.03032143
#
# Stress axis : x y z
#
# Youngs Moduli (GPa) = 31.57021 31.57021 69.55763
#
# Poissons Ratio (x) = 0.53381 0.23630
# Poissons Ratio (y) = 0.53381 0.23630
# Poissons Ratio (z) = 0.10725 0.10725
#
# Static dielectric constant tensor:
#      x y z
#    x 1.739150 0.000000 0.000000 
#    y 0.000000 1.739150 0.000000 
#    z 0.000000 0.000000 1.868830 
# 
# From -- ./inp_files/2281.got.cif
#   From: 2010.05.17/outbox.cif.g08.bks.cpg/sg114_2_cif.got.tgz:2281.got - 2010.05.20 11:04:54.
