data_PCOD9555126
_publ_section_title
;
Structure prediction by ZEFSAII (Michael W. Deem and Ramdas Pophale) SiO2 
 PCOD9555126
Probable space group: P -4 2 C
;
_chemical_formula_sum "Si O2"
_cell_formula_units_Z 48
_cell_length_a 12.127606
_cell_length_b 12.127606
_cell_length_c 18.632337
_cell_angle_alpha 90.000000
_cell_angle_beta 90.000000
_cell_angle_gamma 90.000000
_cell_volume 2740.422276
_symmetry_space_group_name_H-M "P -4 2 C"
_symmetry_group_IT_number 112
_symmetry_cell_setting 'tetragonal'
loop_
_space_group_symop_operation_xyz
x,y,z
y,-x,-z
-x,-y,z
-y,x,-z
x,-y,1/2-z
-x,y,1/2-z
-y,-x,1/2+z
y,x,1/2+z
loop_
_atom_site_type_symbol
_atom_site_label
_atom_site_fract_x
_atom_site_fract_y
_atom_site_fract_z
Si Si1 0.872887 0.373314 0.476484
Si Si2 1.000000 0.130747 0.168469
Si Si3 0.373314 0.127113 0.976484
Si Si4 0.795885 0.235788 0.611175
Si Si5 0.132389 0.367978 0.750000
Si Si6 0.235788 0.204115 0.111175
O O1 0.850733 0.500000 0.495696
O O2 0.858713 0.295374 0.545778
O O3 0.788268 0.327334 0.417327
O O4 1.000000 0.366567 0.451545
O O5 0.112950 0.161688 0.128824
O O6 0.000000 0.177625 0.250000
O O7 0.887050 0.161688 0.128824
O O8 0.000000 0.000000 0.174366
O O9 0.295374 0.141287 0.045778
O O10 0.327334 0.211732 0.917327
O O11 0.814403 0.311043 0.680410
O O12 0.146303 0.500000 0.750000
O O13 0.185597 0.311043 0.680410
O O14 0.000000 0.344952 0.750000
#
# Coordination Sequence:
#
# PCOD9555126 Si02
#       6
#     8   8   8   8   8   8
#     4  10  21  38  56  79 114 155 198 238 281 342
#     4  11  20  32  53  85 129 152 172 228 303 371
#     4  10  21  38  56  79 114 155 198 238 281 342
#     4  11  21  35  57  85 116 153 194 238 290 346
#     4  11  22  37  60  87 118 157 197 235 284 350
#     4  11  21  35  57  85 116 153 194 238 290 346
#
# _framework density 17.515549
#
# number of rings (size 3 to 8) (size 9 to 14) (size 15 to 20)
#    0.000    1.333    3.333    4.000    0.000    2.667 
#    0.000    0.833    0.000   21.000    0.000    0.000 
#    0.000    0.000    0.000    0.000    0.000    0.000 
#
# Total GULP energy -267676.859184 kJ/mol
# GULP energy per Si atom -5576.601233 kJ/mol
# Density = 1.747568 g / cm^3
# Si number density = 17.515549 Si / 1000 Ang^3
#
#
#
# Elastic Constant Matrix: (Units=GPa)
#
#
# Indices 1 2 3 4 5 6 
#
# 1 115.0918 39.4686 50.8847 0.0000 0.0000 0.0000
# 2 39.4686 115.0918 50.8847 0.0000 0.0000 0.0000
# 3 50.8847 50.8847 106.2203 0.0000 0.0000 0.0000
# 4 0.0000 0.0000 0.0000 20.1759 0.0000 0.0000
# 5 0.0000 0.0000 0.0000 0.0000 20.1759 0.0000
# 6 0.0000 0.0000 0.0000 0.0000 0.0000 25.6444
#
#
#
# Elastic Compliance Matrix: (Units=1/GPa)
#
#
# Indices 1 2 3 4 5 6 
#
# 1 0.011337 -0.001886 -0.004528 0.000000 0.000000 0.000000
# 2 -0.001886 0.011337 -0.004528 0.000000 0.000000 0.000000
# 3 -0.004528 -0.004528 0.013752 0.000000 0.000000 0.000000
# 4 0.000000 0.000000 0.000000 0.049564 0.000000 0.000000
# 5 0.000000 0.000000 0.000000 0.000000 0.049564 0.000000
# 6 0.000000 0.000000 0.000000 0.000000 0.000000 0.038995
#
#
# Mechanical properties :
#
#
# Convention : Reuss Voigt Hill
#
# Bulk Modulus (GPa) = 68.75565 68.76445 68.76005
# Shear Modulus (GPa) = 24.84097 26.21030 25.52563
#
# Velocity S-wave (km/s) = 3.77002 3.87253 3.82162
# Velocity P-wave (km/s) = 7.63479 7.70322 7.66908
#
# Compressibility (1/GPa) = 0.01454426
#
# Stress axis : x y z
#
# Youngs Moduli (GPa) = 88.20457 88.20457 72.71552
#
# Poissons Ratio (x) = 0.16637 0.32922
# Poissons Ratio (y) = 0.16637 0.32922
# Poissons Ratio (z) = 0.39935 0.39935
#
# Static dielectric constant tensor:
#      x y z
#    x 1.591460 0.000000 0.000000 
#    y 0.000000 1.591460 0.000000 
#    z 0.000000 0.000000 1.632760 
# 
# From -- ./inp_files/4142.got.cif
#   From: 2010.05.17/outbox.cif.g08.bks.cpg/sg112_3_cif.got.tgz:4142.got - 2010.05.20 10:59:04.
