data_PCOD9555094
_publ_section_title
;
Structure prediction by ZEFSAII (Michael W. Deem and Ramdas Pophale) SiO2 
 PCOD9555094
Probable space group: P -4 2 C
;
_chemical_formula_sum "Si O2"
_cell_formula_units_Z 20
_cell_length_a 5.462761
_cell_length_b 5.462761
_cell_length_c 27.801742
_cell_angle_alpha 90.000000
_cell_angle_beta 90.000000
_cell_angle_gamma 90.000000
_cell_volume 829.652850
_symmetry_space_group_name_H-M "P -4 2 C"
_symmetry_group_IT_number 112
_symmetry_cell_setting 'tetragonal'
loop_
_space_group_symop_operation_xyz
x,y,z
y,-x,-z
-x,-y,z
-y,x,-z
x,-y,1/2-z
-x,y,1/2-z
-y,-x,1/2+z
y,x,1/2+z
loop_
_atom_site_type_symbol
_atom_site_label
_atom_site_fract_x
_atom_site_fract_y
_atom_site_fract_z
Si Si1 0.641169 0.242450 0.158658
Si Si2 0.000000 0.500000 0.750000
Si Si3 0.132881 0.250598 0.437280
Si Si4 0.500000 0.500000 0.500000
O O1 0.500000 0.500000 0.156358
O O2 0.856907 0.258816 0.120876
O O3 0.500000 0.000000 0.139583
O O4 0.664686 0.166646 0.214586
O O5 0.392405 0.294782 0.463549
O O6 0.000000 0.500000 0.451379
O O7 0.000000 0.000000 0.450096
#
# Coordination Sequence:
#
# PCOD9555094 Si02
#       4
#     8   2   8   2
#     4  10  20  43  73 102 147 203 249 326 403 485
#     4   8  22  36  84  96 158 198 262 312 428 470
#     4  12  29  49  80 112 158 210 271 340 419 498
#     4  12  32  52  76 110 164 208 276 348 416 494
#
# _framework density 24.106468
#
# number of rings (size 3 to 8) (size 9 to 14) (size 15 to 20)
#    1.200    0.000    2.000    3.000    5.600    0.000 
#    0.000    1.000    0.000    0.000    0.000    0.000 
#    0.000    0.000    0.000    0.000    0.000    0.000 
#
# Total GULP energy -111471.410291 kJ/mol
# GULP energy per Si atom -5573.570515 kJ/mol
# Density = 2.405160 g / cm^3
# Si number density = 24.106468 Si / 1000 Ang^3
#
#
#
# Elastic Constant Matrix: (Units=GPa)
#
#
# Indices 1 2 3 4 5 6 
#
# 1 140.7528 56.5264 42.7562 0.0000 0.0000 0.0000
# 2 56.5264 140.7528 42.7562 0.0000 0.0000 0.0000
# 3 42.7562 42.7562 190.9709 0.0000 0.0000 0.0000
# 4 0.0000 0.0000 0.0000 13.1965 0.0000 0.0000
# 5 0.0000 0.0000 0.0000 0.0000 13.1965 0.0000
# 6 0.0000 0.0000 0.0000 0.0000 0.0000 48.8839
#
#
#
# Elastic Compliance Matrix: (Units=1/GPa)
#
#
# Indices 1 2 3 4 5 6 
#
# 1 0.008743 -0.003130 -0.001257 0.000000 0.000000 0.000000
# 2 -0.003130 0.008743 -0.001257 0.000000 0.000000 0.000000
# 3 -0.001257 -0.001257 0.005799 0.000000 0.000000 0.000000
# 4 0.000000 0.000000 0.000000 0.075778 0.000000 0.000000
# 5 0.000000 0.000000 0.000000 0.000000 0.075778 0.000000
# 6 0.000000 0.000000 0.000000 0.000000 0.000000 0.020457
#
#
# Mechanical properties :
#
#
# Convention : Reuss Voigt Hill
#
# Bulk Modulus (GPa) = 83.33834 84.06155 83.69994
# Shear Modulus (GPa) = 23.74354 37.08457 30.41405
#
# Velocity S-wave (km/s) = 3.14179 3.92646 3.55583
# Velocity P-wave (km/s) = 6.91427 7.45002 7.18714
#
# Compressibility (1/GPa) = 0.01199928
#
# Stress axis : x y z
#
# Youngs Moduli (GPa) = 114.37386 114.37386 172.43789
#
# Poissons Ratio (x) = 0.35793 0.21673
# Poissons Ratio (y) = 0.35793 0.21673
# Poissons Ratio (z) = 0.14375 0.14375
#
# Static dielectric constant tensor:
#      x y z
#    x 2.081520 0.000000 0.000000 
#    y 0.000000 2.081520 0.000000 
#    z 0.000000 0.000000 1.920630 
# 
# From -- ./inp_files/5657.got.cif
#   From: 2010.05.17/outbox.cif.g08.bks.cpg/sg112_3_cif.got.tgz:5657.got - 2010.05.20 10:59:04.
