data_PCOD9555809
_publ_section_title
;
Structure prediction by ZEFSAII (Michael W. Deem and Ramdas Pophale) SiO2 
 PCOD9555809
Probable space group: P -4 21 M 
;
_chemical_formula_sum "Si O2"
_cell_formula_units_Z 48
_cell_length_a 12.000000
_cell_length_b 12.000000
_cell_length_c 18.000000
_cell_angle_alpha 90.000000
_cell_angle_beta 90.000000
_cell_angle_gamma 90.000000
_cell_volume 2592.000000
_symmetry_space_group_name_H-M "P -4 21 M "
_symmetry_group_IT_number 113
_symmetry_cell_setting 'tetragonal'
loop_
_space_group_symop_operation_xyz
x,y,z
y,-x,-z
-x,-y,z
-y,x,-z
1/2+x,1/2-y,-z
1/2-x,1/2+y,-z
1/2-y,1/2-x,z
1/2+y,1/2+x,z
loop_
_atom_site_type_symbol
_atom_site_label
_atom_site_fract_x
_atom_site_fract_y
_atom_site_fract_z
Si Si1 0.859204 0.182868 0.972026
Si Si2 0.328780 0.356377 0.753411
Si Si3 0.596176 0.594446 0.590284
Si Si4 0.999874 0.308879 0.498308
Si Si5 0.481109 0.371809 0.879878
Si Si6 0.819541 0.497066 0.857758
O O1 0.758110 0.258110 0.996751
O O2 0.823190 0.096738 0.908502
O O3 0.949816 0.260103 0.930760
O O4 0.908562 0.127228 0.045104
O O5 0.237217 0.262784 0.737174
O O6 0.385117 0.394199 0.678032
O O7 0.418611 0.312936 0.813180
O O8 0.265761 0.456289 0.797030
O O9 0.500000 0.500000 0.577656
O O10 0.553633 0.715943 0.559107
O O11 0.716422 0.552803 0.556213
O O12 0.103877 0.396124 0.478932
O O13 0.896152 0.396152 0.518080
O O14 0.500000 0.500000 0.857641
O O15 0.901609 0.598392 0.876964
O O16 0.896869 0.396869 0.827917
#
# Coordination Sequence:
#
# PCOD9555809 Si02
#       6
#     8   8   8   8   8   8
#     4  11  21  34  56  81 111 152 200 255 305 354
#     4  11  23  38  61  87 123 164 200 246 306 369
#     4  12  24  42  67 101 134 169 209 263 317 385
#     4  11  23  43  71  99 132 172 216 265 316 378
#     4  12  20  37  55  82 112 149 199 250 299 361
#     4   9  19  35  55  84 119 156 201 251 300 350
#
# _framework density 18.518519000000001
#
# number of rings (size 3 to 8) (size 9 to 14) (size 15 to 20)
#    0.000    1.000    5.000    2.500    0.000    2.667 
#    0.000    2.500    0.000    2.500    0.000    0.000 
#    0.000    0.000    0.000    0.000    0.000    0.000 
#
# Total GULP energy -267340.495873 kJ/mol
# GULP energy per Si atom -5569.593664 kJ/mol
# Density = 1.847637 g / cm^3
# Si number density = 18.518519 Si / 1000 Ang^3
#
#
#
# Elastic Constant Matrix: (Units=GPa)
#
#
# Indices 1 2 3 4 5 6 
#
# 1 103.5001 36.0197 26.0174 0.0000 0.0000 0.0000
# 2 36.0197 103.4993 26.0173 0.0000 0.0000 0.0000
# 3 26.0174 26.0173 88.9033 0.0000 0.0000 0.0000
# 4 0.0000 0.0000 0.0000 20.0649 0.0000 0.0000
# 5 0.0000 0.0000 0.0000 0.0000 20.0643 0.0000
# 6 0.0000 0.0000 0.0000 0.0000 0.0000 33.7728
#
#
#
# Elastic Compliance Matrix: (Units=1/GPa)
#
#
# Indices 1 2 3 4 5 6 
#
# 1 0.011432 -0.003387 -0.002355 0.000000 0.000000 0.000000
# 2 -0.003387 0.011432 -0.002355 0.000000 0.000000 0.000000
# 3 -0.002355 -0.002355 0.012626 0.000000 0.000000 0.000000
# 4 0.000000 0.000000 0.000000 0.049838 0.000000 0.000000
# 5 0.000000 0.000000 0.000000 0.000000 0.049840 0.000000
# 6 0.000000 0.000000 0.000000 0.000000 0.000000 0.029610
#
#
# Mechanical properties :
#
#
# Convention : Reuss Voigt Hill
#
# Bulk Modulus (GPa) = 51.81519 52.44573 52.13046
# Shear Modulus (GPa) = 26.68041 28.63697 27.65869
#
# Velocity S-wave (km/s) = 3.79983 3.93669 3.86887
# Velocity P-wave (km/s) = 6.87696 7.00325 6.94039
#
# Compressibility (1/GPa) = 0.01929936
#
# Stress axis : x y z
#
# Youngs Moduli (GPa) = 87.47104 87.47030 79.20000
#
# Poissons Ratio (x) = 0.29625 0.18648
# Poissons Ratio (y) = 0.29625 0.18648
# Poissons Ratio (z) = 0.20595 0.20595
#
# Static dielectric constant tensor:
#      x y z
#    x 1.682820 0.000000 0.000000 
#    y 0.000000 1.682820 0.000000 
#    z 0.000000 0.000000 1.611060 
# 
# From -- ./inp_files/2495.got.cif
#   From: 2010.05.17/outbox.ucp.g08.bks.cvg/sg113_cif.got.tgz:2495.got - 2010.06.11 11:33:17.
