data_PCOD9555396
_publ_section_title
;
Structure prediction by ZEFSAII (Michael W. Deem and Ramdas Pophale) SiO2 
 PCOD9555396
Probable space group: P -4 2 C
;
_chemical_formula_sum "Si O2"
_cell_formula_units_Z 40
_cell_length_a 9.569038
_cell_length_b 9.569038
_cell_length_c 22.187233
_cell_angle_alpha 90.000000
_cell_angle_beta 90.000000
_cell_angle_gamma 90.000000
_cell_volume 2031.607010
_symmetry_space_group_name_H-M "P -4 2 C"
_symmetry_group_IT_number 112
_symmetry_cell_setting 'tetragonal'
loop_
_space_group_symop_operation_xyz
x,y,z
y,-x,-z
-x,-y,z
-y,x,-z
x,-y,1/2-z
-x,y,1/2-z
-y,-x,1/2+z
y,x,1/2+z
loop_
_atom_site_type_symbol
_atom_site_label
_atom_site_fract_x
_atom_site_fract_y
_atom_site_fract_z
Si Si1 0.969542 0.335159 0.426881
Si Si2 0.501614 0.334172 0.415532
Si Si3 0.920952 0.143210 0.311870
Si Si4 0.719637 0.744666 0.985785
Si Si5 0.137442 0.586344 0.810792
O O1 0.944609 0.257165 0.363817
O O2 0.837199 0.306178 0.468760
O O3 0.000000 0.500000 0.418633
O O4 0.097328 0.272304 0.465164
O O5 0.500000 0.500000 0.409412
O O6 0.578843 0.287994 0.476938
O O7 0.344645 0.281889 0.424826
O O8 0.571409 0.258352 0.359714
O O9 0.753713 0.116814 0.302049
O O10 0.000000 0.185112 0.250000
O O11 0.000000 0.000000 0.330480
O O12 0.173792 0.500000 0.750000
O O13 0.000000 0.500000 0.832983
#
# Coordination Sequence:
#
# PCOD9555396 Si02
#       5
#     8   8   8   8   8
#     4  12  27  44  68 102 136 177 223 272 337 396
#     4  12  23  44  68  98 139 175 220 273 331 397
#     4  11  26  48  69  97 134 174 225 281 334 393
#     4  12  25  43  66 101 141 177 214 274 334 402
#     4  11  26  46  72  99 129 178 229 275 337 402
#
# _framework density 19.688848
#
# number of rings (size 3 to 8) (size 9 to 14) (size 15 to 20)
#    0.000    0.400    6.000    2.400   11.200    0.800 
#    0.000    2.000    0.000    0.000    0.000    0.000 
#    0.000    0.000    0.000    0.000    0.000    0.000 
#
# Total GULP energy -223400.889847 kJ/mol
# GULP energy per Si atom -5585.022246 kJ/mol
# Density = 1.964403 g / cm^3
# Si number density = 19.688848 Si / 1000 Ang^3
#
#
#
# Elastic Constant Matrix: (Units=GPa)
#
#
# Indices 1 2 3 4 5 6 
#
# 1 120.3598 50.0932 61.9509 0.0000 0.0000 0.0000
# 2 50.0932 120.3598 61.9509 0.0000 0.0000 0.0000
# 3 61.9509 61.9509 78.2719 0.0000 0.0000 0.0000
# 4 0.0000 0.0000 0.0000 34.8316 0.0000 0.0000
# 5 0.0000 0.0000 0.0000 0.0000 34.8316 0.0000
# 6 0.0000 0.0000 0.0000 0.0000 0.0000 25.9741
#
#
#
# Elastic Compliance Matrix: (Units=1/GPa)
#
#
# Indices 1 2 3 4 5 6 
#
# 1 0.014023 -0.000208 -0.010934 0.000000 0.000000 0.000000
# 2 -0.000208 0.014023 -0.010934 0.000000 0.000000 0.000000
# 3 -0.010934 -0.010934 0.030084 0.000000 0.000000 0.000000
# 4 0.000000 0.000000 0.000000 0.028710 0.000000 0.000000
# 5 0.000000 0.000000 0.000000 0.000000 0.028710 0.000000
# 6 0.000000 0.000000 0.000000 0.000000 0.000000 0.038500
#
#
# Mechanical properties :
#
#
# Convention : Reuss Voigt Hill
#
# Bulk Modulus (GPa) = 71.54466 74.10904 72.82685
# Shear Modulus (GPa) = 24.64735 28.79391 26.72063
#
# Velocity S-wave (km/s) = 3.54198 3.82834 3.68794
# Velocity P-wave (km/s) = 7.28999 7.56726 7.42992
#
# Compressibility (1/GPa) = 0.01397728
#
# Stress axis : x y z
#
# Youngs Moduli (GPa) = 71.31097 71.31097 33.24002
#
# Poissons Ratio (x) = 0.01486 0.36345
# Poissons Ratio (y) = 0.01486 0.36345
# Poissons Ratio (z) = 0.77972 0.77972
#
# Static dielectric constant tensor:
#      x y z
#    x 1.697210 0.000000 0.000000 
#    y 0.000000 1.697210 0.000000 
#    z 0.000000 0.000000 1.660130 
# 
# From -- ./inp_files/5348.got.cif
#   From: 2010.05.17/outbox.cif.g08.bks.cpg/sg112_3_cif.got.tgz:5348.got - 2010.05.20 10:59:04.
