data_PCOD9555259
_publ_section_title
;
Structure prediction by ZEFSAII (Michael W. Deem and Ramdas Pophale) SiO2 
 PCOD9555259
Probable space group: P -4 2 C
;
_chemical_formula_sum "Si O2"
_cell_formula_units_Z 44
_cell_length_a 8.015490
_cell_length_b 8.015490
_cell_length_c 31.476249
_cell_angle_alpha 90.000000
_cell_angle_beta 90.000000
_cell_angle_gamma 90.000000
_cell_volume 2022.288562
_symmetry_space_group_name_H-M "P -4 2 C"
_symmetry_group_IT_number 112
_symmetry_cell_setting 'tetragonal'
loop_
_space_group_symop_operation_xyz
x,y,z
y,-x,-z
-x,-y,z
-y,x,-z
x,-y,1/2-z
-x,y,1/2-z
-y,-x,1/2+z
y,x,1/2+z
loop_
_atom_site_type_symbol
_atom_site_label
_atom_site_fract_x
_atom_site_fract_y
_atom_site_fract_z
Si Si1 0.086841 0.738576 0.505040
Si Si2 0.181853 0.446866 0.079330
Si Si3 0.284223 0.810471 0.093969
Si Si4 0.000000 0.000000 0.140835
Si Si5 0.690206 0.929543 0.204545
Si Si6 0.575070 0.682697 0.147024
O O1 0.156707 0.624662 0.467619
O O2 0.084154 0.669780 0.552612
O O3 0.903430 0.799252 0.492761
O O4 0.281103 0.619437 0.078387
O O5 0.281164 0.324893 0.110877
O O6 0.000000 0.500000 0.096455
O O7 0.157366 0.038489 0.171732
O O8 0.427199 0.803089 0.129759
O O9 0.100682 0.869830 0.110241
O O10 0.650562 0.738628 0.191974
O O11 0.500000 0.000000 0.200755
O O12 0.746228 0.000000 0.250000
O O13 0.500000 0.500000 0.151305
#
# Coordination Sequence:
#
# PCOD9555259 Si02
#       6
#     8   8   8   4   8   8
#     4  11  24  39  59  95 137 190 246 306 356 410
#     4  11  23  42  63  93 141 194 245 299 355 435
#     4  11  24  41  66 100 138 197 243 293 368 434
#     4  12  23  46  79 106 144 186 242 305 377 458
#     4  11  24  45  76 113 141 178 235 301 372 453
#     4  10  24  45  71 105 145 194 238 296 373 443
#
# _framework density 21.757525999999999
#
# number of rings (size 3 to 8) (size 9 to 14) (size 15 to 20)
#    0.000    1.091    3.636    2.455    5.091    0.000 
#    0.000    1.818    0.000    0.000   18.909    0.000 
#    0.000    0.000    0.000    0.000    0.000    0.000 
#
# Total GULP energy -245200.283862 kJ/mol
# GULP energy per Si atom -5572.733724 kJ/mol
# Density = 2.170801 g / cm^3
# Si number density = 21.757526 Si / 1000 Ang^3
#
#
#
# Elastic Constant Matrix: (Units=GPa)
#
#
# Indices 1 2 3 4 5 6 
#
# 1 82.4611 33.5130 55.7063 0.0000 0.0000 0.0000
# 2 33.5130 82.4611 55.7063 0.0000 0.0000 0.0000
# 3 55.7063 55.7063 134.5368 0.0000 0.0000 0.0000
# 4 0.0000 0.0000 0.0000 32.5929 0.0000 0.0000
# 5 0.0000 0.0000 0.0000 0.0000 32.5929 0.0000
# 6 0.0000 0.0000 0.0000 0.0000 0.0000 38.5522
#
#
#
# Elastic Compliance Matrix: (Units=1/GPa)
#
#
# Indices 1 2 3 4 5 6 
#
# 1 0.017374 -0.003056 -0.005928 0.000000 0.000000 0.000000
# 2 -0.003056 0.017374 -0.005928 0.000000 0.000000 0.000000
# 3 -0.005928 -0.005928 0.012342 0.000000 0.000000 0.000000
# 4 0.000000 0.000000 0.000000 0.030682 0.000000 0.000000
# 5 0.000000 0.000000 0.000000 0.000000 0.030682 0.000000
# 6 0.000000 0.000000 0.000000 0.000000 0.000000 0.025939
#
#
# Mechanical properties :
#
#
# Convention : Reuss Voigt Hill
#
# Bulk Modulus (GPa) = 57.92291 65.47893 61.70092
# Shear Modulus (GPa) = 29.41650 31.04982 30.23316
#
# Velocity S-wave (km/s) = 3.68096 3.78177 3.73171
# Velocity P-wave (km/s) = 6.68923 7.01636 6.85475
#
# Compressibility (1/GPa) = 0.01726433
#
# Stress axis : x y z
#
# Youngs Moduli (GPa) = 57.55769 57.55769 81.02153
#
# Poissons Ratio (x) = 0.17589 0.48033
# Poissons Ratio (y) = 0.17589 0.48033
# Poissons Ratio (z) = 0.34123 0.34123
#
# Static dielectric constant tensor:
#      x y z
#    x 1.831350 0.000000 0.000000 
#    y 0.000000 1.831350 0.000000 
#    z 0.000000 0.000000 1.854910 
# 
# From -- ./inp_files/6190.got.cif
#   From: 2010.05.17/outbox.cif.g08.bks.cpg/sg112_4_cif.got.tgz:6190.got - 2010.05.20 10:59:04.
