data_PCOD9555324
_publ_section_title
;
Structure prediction by ZEFSAII (Michael W. Deem and Ramdas Pophale) SiO2 
 PCOD9555324
Probable space group: P -4 2 C
;
_chemical_formula_sum "Si O2"
_cell_formula_units_Z 32
_cell_length_a 8.857639
_cell_length_b 8.857639
_cell_length_c 18.265618
_cell_angle_alpha 90.000000
_cell_angle_beta 90.000000
_cell_angle_gamma 90.000000
_cell_volume 1433.079631
_symmetry_space_group_name_H-M "P -4 2 C"
_symmetry_group_IT_number 112
_symmetry_cell_setting 'tetragonal'
loop_
_space_group_symop_operation_xyz
x,y,z
y,-x,-z
-x,-y,z
-y,x,-z
x,-y,1/2-z
-x,y,1/2-z
-y,-x,1/2+z
y,x,1/2+z
loop_
_atom_site_type_symbol
_atom_site_label
_atom_site_fract_x
_atom_site_fract_y
_atom_site_fract_z
Si Si1 0.672795 0.554743 0.860732
Si Si2 0.362569 0.100382 0.479585
Si Si3 0.860215 0.889105 0.101589
Si Si4 0.177393 0.292383 0.734991
O O1 0.500000 0.500000 0.863361
O O2 0.747657 0.585265 0.939003
O O3 0.716751 0.694845 0.806603
O O4 0.761347 0.420588 0.819941
O O5 0.243348 0.133249 0.542661
O O6 0.500000 0.000000 0.508620
O O7 0.282024 0.994922 0.418721
O O8 0.853751 0.823498 0.183322
O O9 0.000000 0.000000 0.093200
O O10 0.000000 0.319109 0.750000
#
# Coordination Sequence:
#
# PCOD9555324 Si02
#       4
#     8   8   8   8
#     4  11  23  42  71 109 141 179 237 307 365 436
#     4  12  23  46  71 100 146 194 239 295 374 446
#     4  12  25  45  68 102 146 192 246 294 361 452
#     4  11  21  42  72  98 139 188 242 284 358 448
#
# _framework density 22.329536000000001
#
# number of rings (size 3 to 8) (size 9 to 14) (size 15 to 20)
#    0.000    0.500    7.500    3.000    0.000    2.500 
#    0.000    1.250    0.000    0.000    0.000    0.000 
#    0.000    0.000    0.000    0.000    0.000    0.000 
#
# Total GULP energy -178851.007331 kJ/mol
# GULP energy per Si atom -5589.093979 kJ/mol
# Density = 2.227871 g / cm^3
# Si number density = 22.329536 Si / 1000 Ang^3
#
#
#
# Elastic Constant Matrix: (Units=GPa)
#
#
# Indices 1 2 3 4 5 6 
#
# 1 115.8145 45.9762 65.0273 0.0000 0.0000 0.0000
# 2 45.9762 115.8145 65.0273 0.0000 0.0000 0.0000
# 3 65.0273 65.0273 111.5315 0.0000 0.0000 0.0000
# 4 0.0000 0.0000 0.0000 27.5542 0.0000 0.0000
# 5 0.0000 0.0000 0.0000 0.0000 27.5542 0.0000
# 6 0.0000 0.0000 0.0000 0.0000 0.0000 23.1639
#
#
#
# Elastic Compliance Matrix: (Units=1/GPa)
#
#
# Indices 1 2 3 4 5 6 
#
# 1 0.012976 -0.001343 -0.006782 0.000000 0.000000 0.000000
# 2 -0.001343 0.012976 -0.006782 0.000000 0.000000 0.000000
# 3 -0.006782 -0.006782 0.016875 0.000000 0.000000 0.000000
# 4 0.000000 0.000000 0.000000 0.036292 0.000000 0.000000
# 5 0.000000 0.000000 0.000000 0.000000 0.036292 0.000000
# 6 0.000000 0.000000 0.000000 0.000000 0.000000 0.043171
#
#
# Mechanical properties :
#
#
# Convention : Reuss Voigt Hill
#
# Bulk Modulus (GPa) = 76.85836 77.24688 77.05262
# Shear Modulus (GPa) = 25.94251 26.79644 26.36947
#
# Velocity S-wave (km/s) = 3.41222 3.46792 3.44018
# Velocity P-wave (km/s) = 7.07242 7.12071 7.09660
#
# Compressibility (1/GPa) = 0.01301095
#
# Stress axis : x y z
#
# Youngs Moduli (GPa) = 77.06655 77.06655 59.25969
#
# Poissons Ratio (x) = 0.10350 0.40192
# Poissons Ratio (y) = 0.10350 0.40192
# Poissons Ratio (z) = 0.52270 0.52270
#
# Static dielectric constant tensor:
#      x y z
#    x 1.899320 0.000000 0.000000 
#    y 0.000000 1.899320 0.000000 
#    z 0.000000 0.000000 1.888400 
# 
# From -- ./inp_files/5179.got.cif
#   From: 2010.05.17/outbox.cif.g08.bks.cpg/sg112_3_cif.got.tgz:5179.got - 2010.05.20 10:59:04.
