data_PCOD9555949
_publ_section_title
;
Structure prediction by ZEFSAII (Michael W. Deem and Ramdas Pophale) SiO2 
 PCOD9555949
Probable space group: P -4 21 C
;
_chemical_formula_sum "Si O2"
_cell_formula_units_Z 40
_cell_length_a 17.888904
_cell_length_b 17.888904
_cell_length_c 5.348647
_cell_angle_alpha 90.000000
_cell_angle_beta 90.000000
_cell_angle_gamma 90.000000
_cell_volume 1711.635964
_symmetry_space_group_name_H-M "P -4 21 C"
_symmetry_group_IT_number 114
_symmetry_cell_setting 'tetragonal'
loop_
_space_group_symop_operation_xyz
x,y,z
y,-x,-z
-x,-y,z
-y,x,-z
1/2+x,1/2-y,1/2-z
1/2-x,1/2+y,1/2-z
1/2-y,1/2-x,1/2+z
1/2+y,1/2+x,1/2+z
loop_
_atom_site_type_symbol
_atom_site_label
_atom_site_fract_x
_atom_site_fract_y
_atom_site_fract_z
Si Si1 0.819167 0.093371 0.067788
Si Si2 0.075886 0.608318 0.423257
Si Si3 0.982406 0.759322 0.437682
Si Si4 0.185831 0.738018 0.908891
Si Si5 0.547217 0.592492 0.110601
O O1 0.901582 0.069178 0.160550
O O2 0.772110 0.071817 0.321736
O O3 0.834164 0.179950 0.002990
O O4 0.778601 0.055996 0.829808
O O5 0.066593 0.561139 0.669112
O O6 0.023614 0.680640 0.436073
O O7 0.166704 0.628844 0.413535
O O8 0.049115 0.820847 0.456034
O O9 0.213631 0.743924 0.625340
O O10 0.575489 0.540579 0.884518
#
# Coordination Sequence:
#
# PCOD9555949 Si02
#       5
#     8   8   8   8   8
#     4  11  23  38  57  83 119 155 198 251 297 345
#     4  10  20  35  58  83 111 149 194 239 297 355
#     4  11  23  38  57  84 120 156 198 253 298 344
#     4  10  20  36  60  83 109 148 195 241 296 353
#     4   9  20  35  50  71 107 160 205 232 268 328
#
# _framework density 23.369453
#
# number of rings (size 3 to 8) (size 9 to 14) (size 15 to 20)
#    0.000    1.800    0.000    4.800    0.000   14.400 
#    0.000    2.000    0.000    0.000    0.000    0.000 
#    0.000   56.000    0.000    0.000    0.000    0.000 
#
# Total GULP energy -222891.877717 kJ/mol
# GULP energy per Si atom -5572.296943 kJ/mol
# Density = 2.331626 g / cm^3
# Si number density = 23.369453 Si / 1000 Ang^3
#
#
#
# Elastic Constant Matrix: (Units=GPa)
#
#
# Indices 1 2 3 4 5 6 
#
# 1 41.5628 26.6495 10.2734 0.0000 0.0000 0.0000
# 2 26.6495 41.5628 10.2734 0.0000 0.0000 0.0000
# 3 10.2734 10.2734 141.2266 0.0000 0.0000 0.0000
# 4 0.0000 0.0000 0.0000 20.9727 0.0000 0.0000
# 5 0.0000 0.0000 0.0000 0.0000 20.9727 0.0000
# 6 0.0000 0.0000 0.0000 0.0000 0.0000 20.5907
#
#
#
# Elastic Compliance Matrix: (Units=1/GPa)
#
#
# Indices 1 2 3 4 5 6 
#
# 1 0.041021 -0.026033 -0.001090 0.000000 0.000000 0.000000
# 2 -0.026033 0.041021 -0.001090 0.000000 0.000000 0.000000
# 3 -0.001090 -0.001090 0.007239 0.000000 0.000000 0.000000
# 4 0.000000 0.000000 0.000000 0.047681 0.000000 0.000000
# 5 0.000000 0.000000 0.000000 0.000000 0.047681 0.000000
# 6 0.000000 0.000000 0.000000 0.000000 0.000000 0.048566
#
#
# Mechanical properties :
#
#
# Convention : Reuss Voigt Hill
#
# Bulk Modulus (GPa) = 30.43659 35.41610 32.92635
# Shear Modulus (GPa) = 16.63404 24.31764 20.47584
#
# Velocity S-wave (km/s) = 2.67083 3.22929 2.96324
# Velocity P-wave (km/s) = 4.75010 5.39372 5.08211
#
# Compressibility (1/GPa) = 0.03285520
#
# Stress axis : x y z
#
# Youngs Moduli (GPa) = 24.37753 24.37753 138.13210
#
# Poissons Ratio (x) = 0.63462 0.15061
# Poissons Ratio (y) = 0.63462 0.15061
# Poissons Ratio (z) = 0.02658 0.02658
#
# Static dielectric constant tensor:
#      x y z
#    x 1.931860 0.000000 0.000000 
#    y 0.000000 1.931860 0.000000 
#    z 0.000000 0.000000 1.975980 
# 
# From -- ./inp_files/159.got.cif
#   From: 2010.05.17/outbox.cif.g08.bks.cpg/sg114_1_cif.got.tgz:159.got - 2010.05.20 11:04:54.
