data_PCOD9555050
_publ_section_title
;
Structure prediction by ZEFSAII (Michael W. Deem and Ramdas Pophale) SiO2 
 PCOD9555050
Probable space group: P -4 2 C
;
_chemical_formula_sum "Si O2"
_cell_formula_units_Z 48
_cell_length_a 8.708135
_cell_length_b 8.708135
_cell_length_c 28.847066
_cell_angle_alpha 90.000000
_cell_angle_beta 90.000000
_cell_angle_gamma 90.000000
_cell_volume 2187.519608
_symmetry_space_group_name_H-M "P -4 2 C"
_symmetry_group_IT_number 112
_symmetry_cell_setting 'tetragonal'
loop_
_space_group_symop_operation_xyz
x,y,z
y,-x,-z
-x,-y,z
-y,x,-z
x,-y,1/2-z
-x,y,1/2-z
-y,-x,1/2+z
y,x,1/2+z
loop_
_atom_site_type_symbol
_atom_site_label
_atom_site_fract_x
_atom_site_fract_y
_atom_site_fract_z
Si Si1 0.174178 0.065692 0.297375
Si Si2 0.794878 0.681958 0.950832
Si Si3 0.433600 0.173545 0.796706
Si Si4 0.324364 0.712624 0.447693
Si Si5 0.959889 0.180151 0.897399
Si Si6 0.458396 0.180150 0.899278
O O1 0.169373 0.249445 0.294912
O O2 0.239017 0.008479 0.346551
O O3 0.246532 0.000000 0.250000
O O4 0.000000 0.000000 0.298207
O O5 0.756791 0.502461 0.944892
O O6 0.970819 0.717225 0.939148
O O7 0.718700 0.792243 0.912057
O O8 0.745697 0.736756 0.001508
O O9 0.500000 0.248211 0.750000
O O10 0.482641 0.235884 0.846719
O O11 0.500000 0.000000 0.797277
O O12 0.294061 0.534278 0.436550
O O13 0.215979 0.782620 0.407169
O O14 0.000000 0.000000 0.901803
O O15 0.500000 0.000000 0.904739
#
# Coordination Sequence:
#
# PCOD9555050 Si02
#       6
#     8   8   8   8   8   8
#     4  10  20  36  62  94 132 165 210 278 337 387
#     4  12  25  46  63  96 131 177 225 262 335 398
#     4  10  20  35  63  96 128 166 218 275 327 390
#     4  12  27  41  70  90 133 182 215 275 328 402
#     4  11  26  43  67 101 131 166 222 278 333 387
#     4  11  24  41  67  97 129 168 223 271 321 389
#
# _framework density 21.942658999999999
#
# number of rings (size 3 to 8) (size 9 to 14) (size 15 to 20)
#    0.000    1.000    3.333    4.000   14.000    0.000 
#    0.000    0.000    0.000    6.000    0.000    0.000 
#    0.000    0.000    0.000    0.000    0.000    0.000 
#
# Total GULP energy -267797.484343 kJ/mol
# GULP energy per Si atom -5579.114257 kJ/mol
# Density = 2.189272 g / cm^3
# Si number density = 21.942659 Si / 1000 Ang^3
#
#
#
# Elastic Constant Matrix: (Units=GPa)
#
#
# Indices 1 2 3 4 5 6 
#
# 1 64.3345 10.8866 28.4046 0.0000 0.0000 0.0000
# 2 10.8866 64.3345 28.4046 0.0000 0.0000 0.0000
# 3 28.4046 28.4046 174.3711 0.0000 0.0000 0.0000
# 4 0.0000 0.0000 0.0000 21.4707 0.0000 0.0000
# 5 0.0000 0.0000 0.0000 0.0000 21.4707 0.0000
# 6 0.0000 0.0000 0.0000 0.0000 0.0000 38.4252
#
#
#
# Elastic Compliance Matrix: (Units=1/GPa)
#
#
# Indices 1 2 3 4 5 6 
#
# 1 0.016934 -0.001775 -0.002469 0.000000 0.000000 0.000000
# 2 -0.001775 0.016934 -0.002469 0.000000 0.000000 0.000000
# 3 -0.002469 -0.002469 0.006539 0.000000 0.000000 0.000000
# 4 0.000000 0.000000 0.000000 0.046575 0.000000 0.000000
# 5 0.000000 0.000000 0.000000 0.000000 0.046575 0.000000
# 6 0.000000 0.000000 0.000000 0.000000 0.000000 0.026025
#
#
# Mechanical properties :
#
#
# Convention : Reuss Voigt Hill
#
# Bulk Modulus (GPa) = 37.06438 48.71462 42.88950
# Shear Modulus (GPa) = 27.47185 31.96296 29.71740
#
# Velocity S-wave (km/s) = 3.54218 3.82076 3.68410
# Velocity P-wave (km/s) = 5.80151 6.45859 6.13885
#
# Compressibility (1/GPa) = 0.02698008
#
# Stress axis : x y z
#
# Youngs Moduli (GPa) = 59.05130 59.05130 152.91918
#
# Poissons Ratio (x) = 0.10484 0.37761
# Poissons Ratio (y) = 0.10484 0.37761
# Poissons Ratio (z) = 0.14582 0.14582
#
# Static dielectric constant tensor:
#      x y z
#    x 1.758680 0.000000 0.000000 
#    y 0.000000 1.758680 0.000000 
#    z 0.000000 0.000000 1.821500 
# 
# From -- ./inp_files/6257.got.cif
#   From: 2010.05.17/outbox.cif.g08.bks.cpg/sg112_4_cif.got.tgz:6257.got - 2010.05.20 10:59:04.
