data_PCOD9555374
_publ_section_title
;
Structure prediction by ZEFSAII (Michael W. Deem and Ramdas Pophale) SiO2 
 PCOD9555374
Probable space group: P -4 2 C
;
_chemical_formula_sum "Si O2"
_cell_formula_units_Z 24
_cell_length_a 11.767286
_cell_length_b 11.767286
_cell_length_c 8.744260
_cell_angle_alpha 90.000000
_cell_angle_beta 90.000000
_cell_angle_gamma 90.000000
_cell_volume 1210.809111
_symmetry_space_group_name_H-M "P -4 2 C"
_symmetry_group_IT_number 112
_symmetry_cell_setting 'tetragonal'
loop_
_space_group_symop_operation_xyz
x,y,z
y,-x,-z
-x,-y,z
-y,x,-z
x,-y,1/2-z
-x,y,1/2-z
-y,-x,1/2+z
y,x,1/2+z
loop_
_atom_site_type_symbol
_atom_site_label
_atom_site_fract_x
_atom_site_fract_y
_atom_site_fract_z
Si Si1 0.166498 0.970286 0.572212
Si Si2 0.337187 0.466017 0.580521
Si Si3 0.928898 0.397776 0.911602
O O1 0.288954 0.935549 0.516810
O O2 0.077736 0.872743 0.528294
O O3 0.159583 0.000000 0.750000
O O4 0.366558 0.578707 0.480101
O O5 0.372377 0.500000 0.750000
O O6 0.204295 0.431807 0.594836
O O7 0.000000 0.500000 0.984181
O O8 0.000000 0.378037 0.750000
#
# Coordination Sequence:
#
# PCOD9555374 Si02
#       3
#     8   8   8
#     4  11  24  44  69  99 136 182 232 283 346 416
#     4  11  24  46  70 100 136 185 232 288 348 418
#     4  11  24  45  69  99 140 176 229 287 350 402
#
# _framework density 19.821459000000001
#
# number of rings (size 3 to 8) (size 9 to 14) (size 15 to 20)
#    0.000    1.000    3.333    6.000    4.667    3.333 
#    6.000    0.000    0.000    0.000    0.000    0.000 
#    0.000    0.000    0.000    0.000    0.000    0.000 
#
# Total GULP energy -133878.145061 kJ/mol
# GULP energy per Si atom -5578.256044 kJ/mol
# Density = 1.977634 g / cm^3
# Si number density = 19.821459 Si / 1000 Ang^3
#
#
#
# Elastic Constant Matrix: (Units=GPa)
#
#
# Indices 1 2 3 4 5 6 
#
# 1 102.2591 111.8916 64.8489 0.0000 0.0000 0.0000
# 2 111.8916 102.2591 64.8489 0.0000 0.0000 0.0000
# 3 64.8489 64.8489 141.6472 0.0000 0.0000 0.0000
# 4 0.0000 0.0000 0.0000 -0.1039 0.0000 0.0000
# 5 0.0000 0.0000 0.0000 0.0000 -0.1039 0.0000
# 6 0.0000 0.0000 0.0000 0.0000 0.0000 171.3227
#
#
#
# Elastic Compliance Matrix: (Units=1/GPa)
#
#
# Indices 1 2 3 4 5 6 
#
# 1 -0.048677 0.055138 -0.002958 0.000000 0.000000 0.000000
# 2 0.055138 -0.048677 -0.002958 0.000000 0.000000 0.000000
# 3 -0.002958 -0.002958 0.009768 0.000000 0.000000 0.000000
# 4 0.000000 0.000000 0.000000 -9.628801 0.000000 0.000000
# 5 0.000000 0.000000 0.000000 0.000000 -9.628801 0.000000
# 6 0.000000 0.000000 0.000000 0.000000 0.000000 0.005837
#
#
# Mechanical properties :
#
#
# Convention : Reuss Voigt Hill
#
# Bulk Modulus (GPa) = 92.09465 92.14935 92.12200
# Shear Modulus (GPa) = -0.25728 41.19471 20.46872
#
# Velocity S-wave (km/s) = -0.36067 4.56377 3.21698
# Velocity P-wave (km/s) = 6.81099 8.62330 7.77016
#
# Compressibility (1/GPa) = 0.01085839
#
# Stress axis : x y z
#
# Youngs Moduli (GPa) = -20.54368 -20.54368 102.37217
#
# Poissons Ratio (x) = 1.13273 0.30282
# Poissons Ratio (y) = 1.13273 0.30282
# Poissons Ratio (z) = -0.06077 -0.06077
#
# Static dielectric constant tensor:
#      x y z
#    x 1.734630 0.000000 0.000000 
#    y 0.000000 1.734630 0.000000 
#    z 0.000000 0.000000 1.653570 
# 
# From -- ./inp_files/779.got.cif
#   From: 2010.05.17/outbox.cif.g08.bks.cpg/sg112_1_cif.got.tgz:779.got - 2010.05.20 10:59:04.
