data_PCOD9555357
_publ_section_title
;
Structure prediction by ZEFSAII (Michael W. Deem and Ramdas Pophale) SiO2 
 PCOD9555357
Probable space group: P -4 2 C
;
_chemical_formula_sum "Si O2"
_cell_formula_units_Z 24
_cell_length_a 7.757574
_cell_length_b 7.757574
_cell_length_c 15.338143
_cell_angle_alpha 90.000000
_cell_angle_beta 90.000000
_cell_angle_gamma 90.000000
_cell_volume 923.048746
_symmetry_space_group_name_H-M "P -4 2 C"
_symmetry_group_IT_number 112
_symmetry_cell_setting 'tetragonal'
loop_
_space_group_symop_operation_xyz
x,y,z
y,-x,-z
-x,-y,z
-y,x,-z
x,-y,1/2-z
-x,y,1/2-z
-y,-x,1/2+z
y,x,1/2+z
loop_
_atom_site_type_symbol
_atom_site_label
_atom_site_fract_x
_atom_site_fract_y
_atom_site_fract_z
Si Si1 0.841450 0.371285 0.054802
Si Si2 0.814590 0.281426 0.704366
Si Si3 0.647756 0.688455 0.122913
O O1 0.849893 0.223081 0.126638
O O2 0.683056 0.499293 0.082819
O O3 0.000000 0.500000 0.054407
O O4 0.808840 0.302354 0.958040
O O5 0.690297 0.249095 0.786553
O O6 0.769392 0.466538 0.658898
O O7 0.000000 0.278067 0.750000
#
# Coordination Sequence:
#
# PCOD9555357 Si02
#       3
#     8   8   8
#     4  12  25  44  74 111 152 200 261 328 398 477
#     4  11  24  45  74 107 147 198 255 326 395 466
#     4  11  23  44  73 107 146 197 261 322 381 469
#
# _framework density 26.000792000000001
#
# number of rings (size 3 to 8) (size 9 to 14) (size 15 to 20)
#    0.000    0.667    3.333    6.000    0.000    5.333 
#    0.000    5.000    0.000    0.000    0.000    0.000 
#    0.000    0.000    0.000    0.000    0.000    0.000 
#
# Total GULP energy -134030.570966 kJ/mol
# GULP energy per Si atom -5584.607124 kJ/mol
# Density = 2.594161 g / cm^3
# Si number density = 26.000792 Si / 1000 Ang^3
#
#
#
# Elastic Constant Matrix: (Units=GPa)
#
#
# Indices 1 2 3 4 5 6 
#
# 1 93.4723 16.8968 42.8761 0.0000 0.0000 0.0000
# 2 16.8968 93.4723 42.8761 0.0000 0.0000 0.0000
# 3 42.8761 42.8761 254.9930 0.0000 0.0000 0.0000
# 4 0.0000 0.0000 0.0000 29.1696 0.0000 0.0000
# 5 0.0000 0.0000 0.0000 0.0000 29.1696 0.0000
# 6 0.0000 0.0000 0.0000 0.0000 0.0000 26.8060
#
#
#
# Elastic Compliance Matrix: (Units=1/GPa)
#
#
# Indices 1 2 3 4 5 6 
#
# 1 0.011741 -0.001318 -0.001752 0.000000 0.000000 0.000000
# 2 -0.001318 0.011741 -0.001752 0.000000 0.000000 0.000000
# 3 -0.001752 -0.001752 0.004511 0.000000 0.000000 0.000000
# 4 0.000000 0.000000 0.000000 0.034282 0.000000 0.000000
# 5 0.000000 0.000000 0.000000 0.000000 0.034282 0.000000
# 6 0.000000 0.000000 0.000000 0.000000 0.000000 0.037305
#
#
# Mechanical properties :
#
#
# Convention : Reuss Voigt Hill
#
# Bulk Modulus (GPa) = 54.50951 71.91506 63.21228
# Shear Modulus (GPa) = 33.41723 39.64830 36.53276
#
# Velocity S-wave (km/s) = 3.58891 3.90922 3.75248
# Velocity P-wave (km/s) = 6.17930 6.93504 6.56805
#
# Compressibility (1/GPa) = 0.01834542
#
# Stress axis : x y z
#
# Youngs Moduli (GPa) = 85.17499 85.17499 221.68012
#
# Poissons Ratio (x) = 0.11230 0.38848
# Poissons Ratio (y) = 0.11230 0.38848
# Poissons Ratio (z) = 0.14926 0.14926
#
# Static dielectric constant tensor:
#      x y z
#    x 2.210910 0.000000 0.000000 
#    y 0.000000 2.210910 0.000000 
#    z 0.000000 0.000000 2.050210 
# 
# From -- ./inp_files/3009.got.cif
#   From: 2010.05.17/outbox.cif.g08.bks.cpg/sg112_2_cif.got.tgz:3009.got - 2010.05.20 10:59:04.
