data_PCOD9555776
_publ_section_title
;
Structure prediction by ZEFSAII (Michael W. Deem and Ramdas Pophale) SiO2 
 PCOD9555776
Probable space group: P -4 21 M 
;
_chemical_formula_sum "Si O2"
_cell_formula_units_Z 34
_cell_length_a 12.565327
_cell_length_b 12.565327
_cell_length_c 9.837907
_cell_angle_alpha 90.000000
_cell_angle_beta 90.000000
_cell_angle_gamma 90.000000
_cell_volume 1553.281977
_symmetry_space_group_name_H-M "P -4 21 M "
_symmetry_group_IT_number 113
_symmetry_cell_setting 'tetragonal'
loop_
_space_group_symop_operation_xyz
x,y,z
y,-x,-z
-x,-y,z
-y,x,-z
1/2+x,1/2-y,-z
1/2-x,1/2+y,-z
1/2-y,1/2-x,z
1/2+y,1/2+x,z
loop_
_atom_site_type_symbol
_atom_site_label
_atom_site_fract_x
_atom_site_fract_y
_atom_site_fract_z
Si Si1 0.992752 0.676468 0.726519
Si Si2 0.642053 0.685193 0.442054
Si Si3 0.178254 0.495922 0.037357
Si Si4 0.741709 0.480242 0.320492
Si Si5 0.000000 0.500000 0.361838
O O1 0.081356 0.581356 0.722496
O O2 0.036774 0.764465 0.626430
O O3 0.883096 0.616905 0.689688
O O4 0.989191 0.715488 0.882248
O O5 0.738969 0.761032 0.401442
O O6 0.668409 0.572985 0.379251
O O7 0.623317 0.698137 0.602654
O O8 0.112539 0.387462 0.067095
O O9 0.259685 0.519211 0.157249
O O10 0.089097 0.589097 0.044174
O O11 0.867025 0.498111 0.357876
#
# Coordination Sequence:
#
# PCOD9555776 Si02
#       5
#     8   8   8   8   2
#     4   8  17  30  54  86 121 152 198 252 309 361
#     4  11  23  36  57  90 123 161 204 257 309 368
#     4   9  14  30  56  85 111 153 201 247 298 367
#     4  12  22  37  61  91 125 158 206 256 306 366
#     4  12  20  36  68  90 114 162 200 254 300 356
#
# _framework density 21.889136000000001
#
# number of rings (size 3 to 8) (size 9 to 14) (size 15 to 20)
#    0.000    1.882    4.706    1.412    1.647    0.471 
#    0.000    2.353    0.000    2.824    0.000    0.000 
#    0.000    0.000    0.000    0.000    0.000    0.000 
#
# Total GULP energy -189356.622490 kJ/mol
# GULP energy per Si atom -5569.312426 kJ/mol
# Density = 2.183932 g / cm^3
# Si number density = 21.889136 Si / 1000 Ang^3
#
#
#
# Elastic Constant Matrix: (Units=GPa)
#
#
# Indices 1 2 3 4 5 6 
#
# 1 41.2268 20.2480 14.8278 0.0000 0.0000 0.0000
# 2 20.2480 41.2276 14.8278 0.0000 0.0000 0.0000
# 3 14.8278 14.8278 99.5679 0.0000 0.0000 0.0000
# 4 0.0000 0.0000 0.0000 11.5893 0.0000 0.0000
# 5 0.0000 0.0000 0.0000 0.0000 11.5900 0.0000
# 6 0.0000 0.0000 0.0000 0.0000 0.0000 36.1767
#
#
#
# Elastic Compliance Matrix: (Units=1/GPa)
#
#
# Indices 1 2 3 4 5 6 
#
# 1 0.032596 -0.015070 -0.002610 0.000000 0.000000 0.000000
# 2 -0.015070 0.032596 -0.002610 0.000000 0.000000 0.000000
# 3 -0.002610 -0.002610 0.010821 0.000000 0.000000 0.000000
# 4 0.000000 0.000000 0.000000 0.086286 0.000000 0.000000
# 5 0.000000 0.000000 0.000000 0.000000 0.086281 0.000000
# 6 0.000000 0.000000 0.000000 0.000000 0.000000 0.027642
#
#
# Mechanical properties :
#
#
# Convention : Reuss Voigt Hill
#
# Bulk Modulus (GPa) = 28.22274 31.31441 29.76858
# Shear Modulus (GPa) = 15.21544 20.67913 17.94728
#
# Velocity S-wave (km/s) = 2.63936 3.07697 2.86653
# Velocity P-wave (km/s) = 4.71273 5.19236 4.95835
#
# Compressibility (1/GPa) = 0.03543242
#
# Stress axis : x y z
#
# Youngs Moduli (GPa) = 30.67823 30.67885 92.41499
#
# Poissons Ratio (x) = 0.46234 0.24120
# Poissons Ratio (y) = 0.46233 0.24120
# Poissons Ratio (z) = 0.08007 0.08007
#
# Static dielectric constant tensor:
#      x y z
#    x 1.788710 0.000000 0.000000 
#    y 0.000000 1.788710 0.000000 
#    z 0.000000 0.000000 1.871900 
# 
# From -- ./inp_files/1652.got.cif
#   From: 2010.05.17/outbox.cif.g08.bks.cpg/sg113_cif.got.tgz:1652.got - 2010.05.20 11:03:00.
