data_PCOD9555767
_publ_section_title
;
Structure prediction by ZEFSAII (Michael W. Deem and Ramdas Pophale) SiO2 
 PCOD9555767
Probable space group: P -4 21 M 
;
_chemical_formula_sum "Si O2"
_cell_formula_units_Z 48
_cell_length_a 16.811416
_cell_length_b 16.811416
_cell_length_c 8.038821
_cell_angle_alpha 90.000000
_cell_angle_beta 90.000000
_cell_angle_gamma 90.000000
_cell_volume 2271.961398
_symmetry_space_group_name_H-M "P -4 21 M "
_symmetry_group_IT_number 113
_symmetry_cell_setting 'tetragonal'
loop_
_space_group_symop_operation_xyz
x,y,z
y,-x,-z
-x,-y,z
-y,x,-z
1/2+x,1/2-y,-z
1/2-x,1/2+y,-z
1/2-y,1/2-x,z
1/2+y,1/2+x,z
loop_
_atom_site_type_symbol
_atom_site_label
_atom_site_fract_x
_atom_site_fract_y
_atom_site_fract_z
Si Si1 0.088061 0.918230 0.435713
Si Si2 0.871285 0.507662 0.552102
Si Si3 0.751454 0.381305 0.548708
Si Si4 0.371285 0.992339 0.052116
Si Si5 0.248546 0.618695 0.951285
Si Si6 0.918229 0.911939 0.935714
O O1 0.130091 0.837135 0.485082
O O2 0.110307 0.943192 0.249999
O O3 0.993749 0.899886 0.447151
O O4 0.938968 0.438968 0.537745
O O5 0.791911 0.464462 0.488438
O O6 0.859650 0.520691 0.749993
O O7 0.912113 0.587888 0.482307
O O8 0.810029 0.310029 0.498421
O O9 0.750629 0.383967 0.749996
O O10 0.438968 0.061033 0.037760
O O11 0.291912 0.035538 0.988448
O O12 0.412113 0.912113 0.982321
O O13 0.189971 0.689971 0.001572
O O14 0.337135 0.630091 0.014914
O O15 0.993748 0.899886 0.052850
#
# Coordination Sequence:
#
# PCOD9555767 Si02
#       6
#     8   8   8   8   8   8
#     4  11  22  38  59  79 102 135 179 225 270 321
#     4   7  10  19  39  68 100 134 170 204 241 292
#     4   9  17  31  53  81 112 142 173 215 266 316
#     4   7  10  19  39  68 100 134 170 204 241 292
#     4   9  17  31  53  81 112 142 173 215 266 316
#     4  11  22  38  59  79 102 135 179 225 270 321
#
# _framework density 21.127119
#
# number of rings (size 3 to 8) (size 9 to 14) (size 15 to 20)
#    0.000    3.000    0.000    7.000    0.000    0.667 
#    0.000    1.667    0.000    7.000    0.000    4.667 
#    0.000    0.000    0.000    0.000    0.000    0.000 
#
# Total GULP energy -267433.339154 kJ/mol
# GULP energy per Si atom -5571.527899 kJ/mol
# Density = 2.107903 g / cm^3
# Si number density = 21.127119 Si / 1000 Ang^3
#
#
#
# Elastic Constant Matrix: (Units=GPa)
#
#
# Indices 1 2 3 4 5 6 
#
# 1 51.5692 2.6989 -1.2375 0.0000 0.0000 0.0000
# 2 2.6989 51.5685 -1.2374 0.0000 0.0000 0.0000
# 3 -1.2375 -1.2374 31.8046 0.0000 0.0000 0.0000
# 4 0.0000 0.0000 0.0000 12.3228 0.0000 0.0000
# 5 0.0000 0.0000 0.0000 0.0000 12.3222 0.0000
# 6 0.0000 0.0000 0.0000 0.0000 0.0000 9.2347
#
#
#
# Elastic Compliance Matrix: (Units=1/GPa)
#
#
# Indices 1 2 3 4 5 6 
#
# 1 0.019461 -0.001001 0.000718 0.000000 0.000000 0.000000
# 2 -0.001001 0.019461 0.000718 0.000000 0.000000 0.000000
# 3 0.000718 0.000718 0.031498 0.000000 0.000000 0.000000
# 4 0.000000 0.000000 0.000000 0.081151 0.000000 0.000000
# 5 0.000000 0.000000 0.000000 0.000000 0.081154 0.000000
# 6 0.000000 0.000000 0.000000 0.000000 0.000000 0.108288
#
#
# Mechanical properties :
#
#
# Convention : Reuss Voigt Hill
#
# Bulk Modulus (GPa) = 14.02709 15.04336 14.53522
# Shear Modulus (GPa) = 13.73981 15.75714 14.74848
#
# Velocity S-wave (km/s) = 2.55294 2.73394 2.64499
# Velocity P-wave (km/s) = 3.91712 4.13543 4.02775
#
# Compressibility (1/GPa) = 0.07129064
#
# Stress axis : x y z
#
# Youngs Moduli (GPa) = 51.38467 51.38393 31.74817
#
# Poissons Ratio (x) = 0.05145 -0.02280
# Poissons Ratio (y) = 0.05145 -0.02280
# Poissons Ratio (z) = -0.03691 -0.03690
#
# Static dielectric constant tensor:
#      x y z
#    x 1.794410 0.000000 0.000000 
#    y 0.000000 1.794410 0.000000 
#    z 0.000000 0.000000 1.756490 
# 
# From -- ./inp_files/1189.got.cif
#   From: 2010.05.17/outbox.cif.g08.bks.cpg/sg113_cif.got.tgz:1189.got - 2010.05.20 11:03:00.
