data_PCOD9555847
_publ_section_title
;
Structure prediction by ZEFSAII (Michael W. Deem and Ramdas Pophale) SiO2 
 PCOD9555847
Probable space group: P -4 21 C
;
_chemical_formula_sum "Si O2"
_cell_formula_units_Z 64
_cell_length_a 16.328260
_cell_length_b 16.328260
_cell_length_c 9.592375
_cell_angle_alpha 90.000000
_cell_angle_beta 90.000000
_cell_angle_gamma 90.000000
_cell_volume 2557.442999
_symmetry_space_group_name_H-M "P -4 21 C"
_symmetry_group_IT_number 114
_symmetry_cell_setting 'tetragonal'
loop_
_space_group_symop_operation_xyz
x,y,z
y,-x,-z
-x,-y,z
-y,x,-z
1/2+x,1/2-y,1/2-z
1/2-x,1/2+y,1/2-z
1/2-y,1/2-x,1/2+z
1/2+y,1/2+x,1/2+z
loop_
_atom_site_type_symbol
_atom_site_label
_atom_site_fract_x
_atom_site_fract_y
_atom_site_fract_z
Si Si1 0.270673 0.993796 0.975855
Si Si2 0.978794 0.869289 0.798080
Si Si3 0.361204 0.991933 0.482886
Si Si4 0.014371 0.135314 0.213357
Si Si5 0.234213 0.145079 0.502052
Si Si6 0.031767 0.596357 0.822308
Si Si7 0.805093 0.061939 0.507846
Si Si8 0.844815 0.298018 0.210391
O O1 0.205187 0.998370 0.100047
O O2 0.355899 0.980005 0.058264
O O3 0.213449 0.945771 0.865169
O O4 0.290563 0.071878 0.877871
O O5 0.963087 0.833070 0.645392
O O6 0.901161 0.927102 0.841051
O O7 0.057389 0.927601 0.795979
O O8 0.295400 0.068233 0.480345
O O9 0.404519 0.990031 0.331124
O O10 0.422723 0.017104 0.608003
O O11 0.293117 0.922765 0.509288
O O12 0.000808 0.166055 0.370732
O O13 0.236317 0.166532 0.663793
O O14 0.275678 0.211935 0.403346
O O15 0.142342 0.144422 0.452728
O O16 0.113292 0.651894 0.787998
#
# Coordination Sequence:
#
# PCOD9555847 Si02
#       8
#     8   8   8   8   8   8   8   8
#     4  12  20  34  55  73 104 152 197 243 291 334
#     4  11  23  38  48  75 118 167 198 231 261 327
#     4  10  19  34  52  75 107 139 180 228 289 335
#     4  11  24  35  51  74 117 166 205 223 264 330
#     4  10  21  35  58  84 108 153 195 248 297 345
#     4  10  18  32  54  71  98 137 180 235 290 332
#     4  12  22  34  56  80 112 153 202 230 276 342
#     4  10  19  36  56  80 103 137 196 252 307 336
#
# _framework density 25.024994
#
# number of rings (size 3 to 8) (size 9 to 14) (size 15 to 20)
#    0.000    1.250    5.000    5.250    1.750    2.000 
#    0.000    0.000    0.000    0.000    0.000    0.000 
#    0.000    3.000    0.000    0.000    0.000    0.000 
#
# Total GULP energy -357151.663722 kJ/mol
# GULP energy per Si atom -5580.494746 kJ/mol
# Density = 2.496804 g / cm^3
# Si number density = 25.024994 Si / 1000 Ang^3
#
#
#
# Elastic Constant Matrix: (Units=GPa)
#
#
# Indices 1 2 3 4 5 6 
#
# 1 63.0248 -9.6600 11.7308 0.0000 0.0000 0.0000
# 2 -9.6600 63.0248 11.7308 0.0000 0.0000 0.0000
# 3 11.7308 11.7308 127.9617 0.0000 0.0000 0.0000
# 4 0.0000 0.0000 0.0000 32.9679 0.0000 0.0000
# 5 0.0000 0.0000 0.0000 0.0000 32.9679 0.0000
# 6 0.0000 0.0000 0.0000 0.0000 0.0000 23.9522
#
#
#
# Elastic Compliance Matrix: (Units=1/GPa)
#
#
# Indices 1 2 3 4 5 6 
#
# 1 0.016642 0.002884 -0.001790 0.000000 0.000000 0.000000
# 2 0.002884 0.016642 -0.001790 0.000000 0.000000 0.000000
# 3 -0.001790 -0.001790 0.008143 0.000000 0.000000 0.000000
# 4 0.000000 0.000000 0.000000 0.030333 0.000000 0.000000
# 5 0.000000 0.000000 0.000000 0.000000 0.030333 0.000000
# 6 0.000000 0.000000 0.000000 0.000000 0.000000 0.041750
#
#
# Mechanical properties :
#
#
# Convention : Reuss Voigt Hill
#
# Bulk Modulus (GPa) = 24.97825 31.29046 28.13436
# Shear Modulus (GPa) = 31.53002 33.99157 32.76080
#
# Velocity S-wave (km/s) = 3.55342 3.68952 3.62211
# Velocity P-wave (km/s) = 5.18061 5.53903 5.36281
#
# Compressibility (1/GPa) = 0.04003483
#
# Stress axis : x y z
#
# Youngs Moduli (GPa) = 60.08899 60.08899 122.80433
#
# Poissons Ratio (x) = -0.17329 0.21982
# Poissons Ratio (y) = -0.17329 0.21982
# Poissons Ratio (z) = 0.10756 0.10756
#
# Static dielectric constant tensor:
#      x y z
#    x 2.099010 0.000000 0.000000 
#    y 0.000000 2.099010 0.000000 
#    z 0.000000 0.000000 1.965730 
# 
# From -- ./inp_files/1097.got.cif
#   From: 2010.05.17/outbox.cif.g08.bks.cpg/sg114_1_cif.got.tgz:1097.got - 2010.05.20 11:04:54.
