data_PCOD9555894
_publ_section_title
;
Structure prediction by ZEFSAII (Michael W. Deem and Ramdas Pophale) SiO2 
 PCOD9555894
Probable space group: P -4 21 C
;
_chemical_formula_sum "Si O2"
_cell_formula_units_Z 56
_cell_length_a 11.506711
_cell_length_b 11.506711
_cell_length_c 21.088764
_cell_angle_alpha 90.000000
_cell_angle_beta 90.000000
_cell_angle_gamma 90.000000
_cell_volume 2792.245103
_symmetry_space_group_name_H-M "P -4 21 C"
_symmetry_group_IT_number 114
_symmetry_cell_setting 'tetragonal'
loop_
_space_group_symop_operation_xyz
x,y,z
y,-x,-z
-x,-y,z
-y,x,-z
1/2+x,1/2-y,1/2-z
1/2-x,1/2+y,1/2-z
1/2-y,1/2-x,1/2+z
1/2+y,1/2+x,1/2+z
loop_
_atom_site_type_symbol
_atom_site_label
_atom_site_fract_x
_atom_site_fract_y
_atom_site_fract_z
Si Si1 0.637596 0.532082 0.926038
Si Si2 0.271787 0.047843 0.447818
Si Si3 0.350405 0.847021 0.351208
Si Si4 0.283579 0.107203 0.875399
Si Si5 0.883357 0.069125 0.195559
Si Si6 0.106133 0.754632 0.311480
Si Si7 0.452358 0.161375 0.758198
O O1 0.500000 0.500000 0.931120
O O2 0.626612 0.668750 0.918640
O O3 0.695553 0.472827 0.866392
O O4 0.715379 0.493361 0.986124
O O5 0.373757 0.142177 0.439936
O O6 0.307148 0.934718 0.406986
O O7 0.467696 0.780989 0.367364
O O8 0.240368 0.770204 0.332475
O O9 0.380029 0.929334 0.291083
O O10 0.153386 0.152785 0.862854
O O11 0.363854 0.161808 0.818594
O O12 0.912249 0.160594 0.251811
O O13 0.783352 0.987332 0.225199
O O14 0.000000 0.000000 0.180261
O O15 0.089492 0.621014 0.292922
#
# Coordination Sequence:
#
# PCOD9555894 Si02
#       7
#     8   8   8   8   8   8   8
#     4  12  20  36  59  91 115 142 189 246 299 348
#     4  11  20  35  58  83 115 145 188 245 293 344
#     4  10  19  36  57  78 116 155 198 233 279 365
#     4  10  22  37  57  84 112 163 200 233 294 355
#     4  10  20  35  59  86 119 154 198 241 284 359
#     4  10  20  32  58  88 119 155 185 240 298 349
#     4   9  19  34  51  86 120 148 190 235 291 346
#
# _framework density 20.055544999999999
#
# number of rings (size 3 to 8) (size 9 to 14) (size 15 to 20)
#    0.000    1.714    2.857    3.000    4.000    0.000 
#    7.714    0.000    9.429    0.000    0.000    0.000 
#    0.000    0.000    0.000    0.000    0.000    0.000 
#
# Total GULP energy -311917.240484 kJ/mol
# GULP energy per Si atom -5569.950723 kJ/mol
# Density = 2.000990 g / cm^3
# Si number density = 20.055545 Si / 1000 Ang^3
#
#
#
# Elastic Constant Matrix: (Units=GPa)
#
#
# Indices 1 2 3 4 5 6 
#
# 1 36.1326 13.6171 14.5252 0.0000 0.0000 0.0000
# 2 13.6171 36.1326 14.5252 0.0000 0.0000 0.0000
# 3 14.5252 14.5252 71.0093 0.0000 0.0000 0.0000
# 4 0.0000 0.0000 0.0000 15.7146 0.0000 0.0000
# 5 0.0000 0.0000 0.0000 0.0000 15.7146 0.0000
# 6 0.0000 0.0000 0.0000 0.0000 0.0000 18.4181
#
#
#
# Elastic Compliance Matrix: (Units=1/GPa)
#
#
# Indices 1 2 3 4 5 6 
#
# 1 0.033621 -0.010793 -0.004669 0.000000 0.000000 0.000000
# 2 -0.010793 0.033621 -0.004669 0.000000 0.000000 0.000000
# 3 -0.004669 -0.004669 0.015993 0.000000 0.000000 0.000000
# 4 0.000000 0.000000 0.000000 0.063635 0.000000 0.000000
# 5 0.000000 0.000000 0.000000 0.000000 0.063635 0.000000
# 6 0.000000 0.000000 0.000000 0.000000 0.000000 0.054294
#
#
# Mechanical properties :
#
#
# Convention : Reuss Voigt Hill
#
# Bulk Modulus (GPa) = 23.27213 25.40104 24.33659
# Shear Modulus (GPa) = 15.65504 16.67660 16.16582
#
# Velocity S-wave (km/s) = 2.79692 2.88674 2.84219
# Velocity P-wave (km/s) = 4.69674 4.87892 4.78870
#
# Compressibility (1/GPa) = 0.04296985
#
# Stress axis : x y z
#
# Youngs Moduli (GPa) = 29.74372 29.74372 62.52766
#
# Poissons Ratio (x) = 0.32103 0.29196
# Poissons Ratio (y) = 0.32103 0.29196
# Poissons Ratio (z) = 0.13888 0.13888
#
# Static dielectric constant tensor:
#      x y z
#    x 1.779800 0.000000 0.000000 
#    y 0.000000 1.779800 0.000000 
#    z 0.000000 0.000000 1.741320 
# 
# From -- ./inp_files/3166.got.cif
#   From: 2010.05.17/outbox.cif.g08.bks.cpg/sg114_2_cif.got.tgz:3166.got - 2010.05.20 11:04:54.
