data_PCOD9555104
_publ_section_title
;
Structure prediction by ZEFSAII (Michael W. Deem and Ramdas Pophale) SiO2 
 PCOD9555104
Probable space group: P -4 2 C
;
_chemical_formula_sum "Si O2"
_cell_formula_units_Z 48
_cell_length_a 12.350944
_cell_length_b 12.350944
_cell_length_c 16.785764
_cell_angle_alpha 90.000000
_cell_angle_beta 90.000000
_cell_angle_gamma 90.000000
_cell_volume 2560.598095
_symmetry_space_group_name_H-M "P -4 2 C"
_symmetry_group_IT_number 112
_symmetry_cell_setting 'tetragonal'
loop_
_space_group_symop_operation_xyz
x,y,z
y,-x,-z
-x,-y,z
-y,x,-z
x,-y,1/2-z
-x,y,1/2-z
-y,-x,1/2+z
y,x,1/2+z
loop_
_atom_site_type_symbol
_atom_site_label
_atom_site_fract_x
_atom_site_fract_y
_atom_site_fract_z
Si Si1 0.241782 0.872089 0.760644
Si Si2 0.409429 0.166184 0.599736
Si Si3 0.941704 0.112645 0.872244
Si Si4 0.384574 0.625575 0.990667
Si Si5 0.173957 0.337552 0.406676
Si Si6 0.755339 0.032668 0.993991
O O1 0.340936 0.861334 0.822329
O O2 0.129707 0.835700 0.801817
O O3 0.275875 0.821700 0.677103
O O4 0.226557 0.000000 0.750000
O O5 0.394968 0.293257 0.582618
O O6 0.536353 0.140246 0.606230
O O7 0.348875 0.106474 0.526019
O O8 0.853075 0.076651 0.938962
O O9 0.020189 0.196552 0.917536
O O10 0.000000 0.000000 0.849464
O O11 0.286931 0.659576 0.047289
O O12 0.501106 0.632279 0.033409
O O13 0.084625 0.279731 0.461177
#
# Coordination Sequence:
#
# PCOD9555104 Si02
#       6
#     8   8   8   8   8   8
#     4  11  22  34  51  82 118 150 180 230 292 347
#     4  10  21  34  58  81 113 148 188 238 288 341
#     4  11  21  35  51  76 112 155 190 227 274 341
#     4   9  20  39  61  83 109 147 195 242 285 343
#     4  11  20  35  55  85 113 145 189 239 292 341
#     4  11  19  33  56  79 111 152 192 233 279 328
#
# _framework density 18.745621
#
# number of rings (size 3 to 8) (size 9 to 14) (size 15 to 20)
#    0.000    1.500    5.000    3.000    0.000    1.000 
#    0.000    0.833    0.000    4.000    0.000    0.000 
#    0.000    2.667    0.000    0.000    0.000    0.000 
#
# Total GULP energy -267970.538873 kJ/mol
# GULP energy per Si atom -5582.719560 kJ/mol
# Density = 1.870296 g / cm^3
# Si number density = 18.745621 Si / 1000 Ang^3
#
#
#
# Elastic Constant Matrix: (Units=GPa)
#
#
# Indices 1 2 3 4 5 6 
#
# 1 67.3834 14.2827 17.2672 0.0000 0.0000 0.0000
# 2 14.2827 67.3834 17.2672 0.0000 0.0000 0.0000
# 3 17.2672 17.2672 38.3949 0.0000 0.0000 0.0000
# 4 0.0000 0.0000 0.0000 18.2825 0.0000 0.0000
# 5 0.0000 0.0000 0.0000 0.0000 18.2825 0.0000
# 6 0.0000 0.0000 0.0000 0.0000 0.0000 27.1189
#
#
#
# Elastic Compliance Matrix: (Units=1/GPa)
#
#
# Indices 1 2 3 4 5 6 
#
# 1 0.016976 -0.001856 -0.006800 0.000000 0.000000 0.000000
# 2 -0.001856 0.016976 -0.006800 0.000000 0.000000 0.000000
# 3 -0.006800 -0.006800 0.032162 0.000000 0.000000 0.000000
# 4 0.000000 0.000000 0.000000 0.054697 0.000000 0.000000
# 5 0.000000 0.000000 0.000000 0.000000 0.054697 0.000000
# 6 0.000000 0.000000 0.000000 0.000000 0.000000 0.036875
#
#
# Mechanical properties :
#
#
# Convention : Reuss Voigt Hill
#
# Bulk Modulus (GPa) = 28.40733 30.08843 29.24788
# Shear Modulus (GPa) = 19.60561 21.02644 20.31603
#
# Velocity S-wave (km/s) = 3.23751 3.35277 3.29564
# Velocity P-wave (km/s) = 5.40021 5.57439 5.48799
#
# Compressibility (1/GPa) = 0.03520218
#
# Stress axis : x y z
#
# Youngs Moduli (GPa) = 58.90542 58.90542 31.09304
#
# Poissons Ratio (x) = 0.10932 0.21144
# Poissons Ratio (y) = 0.10932 0.21144
# Poissons Ratio (z) = 0.40056 0.40056
#
# Static dielectric constant tensor:
#      x y z
#    x 1.679210 0.000000 0.000000 
#    y 0.000000 1.679210 0.000000 
#    z 0.000000 0.000000 2.143150 
# 
# From -- ./inp_files/4116.got.cif
#   From: 2010.05.17/outbox.cif.g08.bks.cpg/sg112_3_cif.got.tgz:4116.got - 2010.05.20 10:59:04.
