data_PCOD9555332
_publ_section_title
;
Structure prediction by ZEFSAII (Michael W. Deem and Ramdas Pophale) SiO2 
 PCOD9555332
Probable space group: P -4 2 C
;
_chemical_formula_sum "Si O2"
_cell_formula_units_Z 48
_cell_length_a 17.940188
_cell_length_b 17.940188
_cell_length_c 8.617501
_cell_angle_alpha 90.000000
_cell_angle_beta 90.000000
_cell_angle_gamma 90.000000
_cell_volume 2773.545674
_symmetry_space_group_name_H-M "P -4 2 C"
_symmetry_group_IT_number 112
_symmetry_cell_setting 'tetragonal'
loop_
_space_group_symop_operation_xyz
x,y,z
y,-x,-z
-x,-y,z
-y,x,-z
x,-y,1/2-z
-x,y,1/2-z
-y,-x,1/2+z
y,x,1/2+z
loop_
_atom_site_type_symbol
_atom_site_label
_atom_site_fract_x
_atom_site_fract_y
_atom_site_fract_z
Si Si1 0.783204 0.671987 0.796596
Si Si2 0.418823 0.915878 0.688613
Si Si3 0.556536 0.672597 0.126895
Si Si4 0.083405 0.419776 0.683633
Si Si5 0.552862 0.330988 0.875120
Si Si6 0.671474 0.785438 0.670221
O O1 0.730568 0.608822 0.717040
O O2 0.864571 0.647380 0.740726
O O3 0.747011 0.749128 0.736560
O O4 0.783636 0.672421 0.983053
O O5 0.500000 0.889924 0.750000
O O6 0.421177 0.916250 0.502451
O O7 0.354288 0.863149 0.757021
O O8 0.408994 0.000000 0.750000
O O9 0.500000 0.637417 0.250000
O O10 0.609733 0.610088 0.053782
O O11 0.501574 0.706562 0.999335
O O12 0.111211 0.500000 0.750000
O O13 0.000000 0.411455 0.750000
O O14 0.500000 0.368980 0.750000
O O15 0.604512 0.271455 0.788995
#
# Coordination Sequence:
#
# PCOD9555332 Si02
#       6
#     8   8   8   8   8   8
#     4  11  23  37  56  76 106 140 181 224 277 334
#     4  11  22  37  58  84 112 142 182 228 278 332
#     4  11  22  37  48  69  93 133 179 232 282 328
#     4  11  22  37  59  84 111 143 181 227 279 331
#     4  11  24  33  51  67  95 130 181 228 282 327
#     4  11  23  38  55  78 105 141 180 224 275 334
#
# _framework density 17.306367999999999
#
# number of rings (size 3 to 8) (size 9 to 14) (size 15 to 20)
#    0.000    1.000    1.667    7.000   11.667    2.000 
#    0.000    0.000    0.000    0.000    0.000    0.000 
#    0.000    0.667    0.000    6.667    0.000    4.000 
#
# Total GULP energy -268021.650751 kJ/mol
# GULP energy per Si atom -5583.784391 kJ/mol
# Density = 1.726698 g / cm^3
# Si number density = 17.306368 Si / 1000 Ang^3
#
#
#
# Elastic Constant Matrix: (Units=GPa)
#
#
# Indices 1 2 3 4 5 6 
#
# 1 78.2390 37.0030 29.8385 0.0000 0.0000 0.0000
# 2 37.0030 78.2390 29.8385 0.0000 0.0000 0.0000
# 3 29.8385 29.8385 99.0867 0.0000 0.0000 0.0000
# 4 0.0000 0.0000 0.0000 26.0628 0.0000 0.0000
# 5 0.0000 0.0000 0.0000 0.0000 26.0628 0.0000
# 6 0.0000 0.0000 0.0000 0.0000 0.0000 28.0802
#
#
#
# Elastic Compliance Matrix: (Units=1/GPa)
#
#
# Indices 1 2 3 4 5 6 
#
# 1 0.017266 -0.006985 -0.003096 0.000000 0.000000 0.000000
# 2 -0.006985 0.017266 -0.003096 0.000000 0.000000 0.000000
# 3 -0.003096 -0.003096 0.011957 0.000000 0.000000 0.000000
# 4 0.000000 0.000000 0.000000 0.038369 0.000000 0.000000
# 5 0.000000 0.000000 0.000000 0.000000 0.038369 0.000000
# 6 0.000000 0.000000 0.000000 0.000000 0.000000 0.035612
#
#
# Mechanical properties :
#
#
# Convention : Reuss Voigt Hill
#
# Bulk Modulus (GPa) = 49.66615 49.88055 49.77335
# Shear Modulus (GPa) = 26.05484 26.63346 26.34415
#
# Velocity S-wave (km/s) = 3.88429 3.92719 3.90580
# Velocity P-wave (km/s) = 6.99124 7.03195 7.01163
#
# Compressibility (1/GPa) = 0.02013444
#
# Stress axis : x y z
#
# Youngs Moduli (GPa) = 57.91868 57.91868 83.63509
#
# Poissons Ratio (x) = 0.40456 0.25892
# Poissons Ratio (y) = 0.40456 0.25892
# Poissons Ratio (z) = 0.17931 0.17931
#
# Static dielectric constant tensor:
#      x y z
#    x 1.594030 0.000000 0.000000 
#    y 0.000000 1.594030 0.000000 
#    z 0.000000 0.000000 1.646800 
# 
# From -- ./inp_files/1427.got.cif
#   From: 2010.05.17/outbox.cif.g08.bks.cpg/sg112_1_cif.got.tgz:1427.got - 2010.05.20 10:59:04.
