data_PCOD9555618
_publ_section_title
;
Structure prediction by ZEFSAII (Michael W. Deem and Ramdas Pophale) SiO2 
 PCOD9555618
Probable space group: P -4 21 M 
;
_chemical_formula_sum "Si O2"
_cell_formula_units_Z 56
_cell_length_a 11.862327
_cell_length_b 11.862327
_cell_length_c 19.549719
_cell_angle_alpha 90.000000
_cell_angle_beta 90.000000
_cell_angle_gamma 90.000000
_cell_volume 2750.934835
_symmetry_space_group_name_H-M "P -4 21 M "
_symmetry_group_IT_number 113
_symmetry_cell_setting 'tetragonal'
loop_
_space_group_symop_operation_xyz
x,y,z
y,-x,-z
-x,-y,z
-y,x,-z
1/2+x,1/2-y,-z
1/2-x,1/2+y,-z
1/2-y,1/2-x,z
1/2+y,1/2+x,z
loop_
_atom_site_type_symbol
_atom_site_label
_atom_site_fract_x
_atom_site_fract_y
_atom_site_fract_z
Si Si1 0.723316 0.046181 0.142299
Si Si2 0.335376 0.346309 0.070751
Si Si3 0.285984 0.961924 0.300933
Si Si4 0.778040 0.893784 0.653086
Si Si5 0.885905 0.139846 0.498088
Si Si6 0.820431 0.151861 0.648996
Si Si7 0.288030 0.607452 0.084729
O O1 0.611710 0.111710 0.113299
O O2 0.697958 0.017364 0.220485
O O3 0.821722 0.139893 0.139056
O O4 0.776514 0.938586 0.104516
O O5 0.223345 0.276656 0.085542
O O6 0.313223 0.475175 0.092504
O O7 0.358487 0.339763 0.989350
O O8 0.401956 0.901956 0.327471
O O9 0.190972 0.867493 0.313812
O O10 0.231405 0.074768 0.331182
O O11 0.654369 0.845632 0.672523
O O12 0.788099 0.881130 0.570314
O O13 0.817421 0.020769 0.669035
O O14 0.816096 0.155988 0.566431
O O15 0.013437 0.140845 0.525331
O O16 0.710133 0.210133 0.678782
O O17 0.161213 0.661213 0.085581
#
# Coordination Sequence:
#
# PCOD9555618 Si02
#       7
#     8   8   8   8   8   8   8
#     4  10  22  40  63  90 118 153 200 251 301 356
#     4  11  22  36  59  89 122 162 200 243 302 359
#     4  10  22  41  63  85 114 155 203 250 297 355
#     4  10  20  36  58  82 114 156 201 244 294 358
#     4   9  16  31  56  83 111 147 193 245 295 348
#     4  11  22  35  55  85 120 154 195 246 302 361
#     4  10  21  37  58  88 123 158 202 248 295 355
#
# _framework density 20.356718000000001
#
# number of rings (size 3 to 8) (size 9 to 14) (size 15 to 20)
#    0.000    1.857    2.857    1.286    0.000    4.000 
#    0.000    2.857    0.000    1.714    0.000    6.000 
#    0.000    0.000    0.000    0.000    0.000    0.000 
#
# Total GULP energy -311811.100201 kJ/mol
# GULP energy per Si atom -5568.055361 kJ/mol
# Density = 2.031038 g / cm^3
# Si number density = 20.356718 Si / 1000 Ang^3
#
#
#
# Elastic Constant Matrix: (Units=GPa)
#
#
# Indices 1 2 3 4 5 6 
#
# 1 52.2157 77.6676 -1.2080 0.0000 0.0000 0.0000
# 2 77.6676 52.1982 -1.2084 0.0000 0.0000 0.0000
# 3 -1.2080 -1.2084 28.8818 0.0000 0.0000 0.0000
# 4 0.0000 0.0000 0.0000 -95.4793 0.0000 0.0000
# 5 0.0000 0.0000 0.0000 0.0000 -95.4921 0.0000
# 6 0.0000 0.0000 0.0000 0.0000 0.0000 29.3508
#
#
#
# Elastic Compliance Matrix: (Units=1/GPa)
#
#
# Indices 1 2 3 4 5 6 
#
# 1 -0.015783 0.023491 0.000323 0.000000 0.000000 0.000000
# 2 0.023491 -0.015788 0.000322 0.000000 0.000000 0.000000
# 3 0.000323 0.000322 0.034651 0.000000 0.000000 0.000000
# 4 0.000000 0.000000 0.000000 -0.010473 0.000000 0.000000
# 5 0.000000 0.000000 0.000000 0.000000 -0.010472 0.000000
# 6 0.000000 0.000000 0.000000 0.000000 0.000000 0.034071
#
#
# Mechanical properties :
#
#
# Convention : Reuss Voigt Hill
#
# Bulk Modulus (GPa) = 19.47356 31.53313 25.50335
# Shear Modulus (GPa) = -334.47014 -28.45449 -181.46232
#
# Velocity S-wave (km/s) = -12.83204 -3.74276 -9.45171
# Velocity P-wave (km/s) = 14.49004 1.77589 10.32267
#
# Compressibility (1/GPa) = 0.05135167
#
# Stress axis : x y z
#
# Youngs Moduli (GPa) = -63.36065 -63.33938 28.85935
#
# Poissons Ratio (x) = 1.48791 -0.00931
# Poissons Ratio (y) = 1.48841 -0.00929
# Poissons Ratio (z) = 0.02045 0.02040
#
# Static dielectric constant tensor:
#      x y z
#    x 1.757410 0.000000 0.000000 
#    y 0.000000 1.757420 0.000000 
#    z 0.000000 0.000000 1.857270 
# 
# From -- ./inp_files/2667.got.cif
#   From: 2010.05.17/outbox.cif.g08.bks.cpg/sg113_cif.got.tgz:2667.got - 2010.05.20 11:03:00.
