data_PCOD9555408
_publ_section_title
;
Structure prediction by ZEFSAII (Michael W. Deem and Ramdas Pophale) SiO2 
 PCOD9555408
Probable space group: P -4 2 C
;
_chemical_formula_sum "Si O2"
_cell_formula_units_Z 34
_cell_length_a 8.047618
_cell_length_b 8.047618
_cell_length_c 23.596765
_cell_angle_alpha 90.000000
_cell_angle_beta 90.000000
_cell_angle_gamma 90.000000
_cell_volume 1528.224557
_symmetry_space_group_name_H-M "P -4 2 C"
_symmetry_group_IT_number 112
_symmetry_cell_setting 'tetragonal'
loop_
_space_group_symop_operation_xyz
x,y,z
y,-x,-z
-x,-y,z
-y,x,-z
x,-y,1/2-z
-x,y,1/2-z
-y,-x,1/2+z
y,x,1/2+z
loop_
_atom_site_type_symbol
_atom_site_label
_atom_site_fract_x
_atom_site_fract_y
_atom_site_fract_z
Si Si1 0.500000 0.500000 0.750000
Si Si2 0.000000 0.000000 0.250000
Si Si3 0.428676 0.178856 0.427239
Si Si4 0.770297 0.264362 0.457320
Si Si5 0.000000 0.500000 0.115199
Si Si6 0.759776 0.259806 0.183553
Si Si7 0.000000 0.000000 0.000000
O O1 0.371675 0.375518 0.782687
O O2 0.126072 0.124435 0.283743
O O3 0.599225 0.280442 0.423969
O O4 0.318880 0.254714 0.477549
O O5 0.336062 0.170391 0.368094
O O6 0.500000 0.000000 0.445456
O O7 0.898375 0.379978 0.425579
O O8 0.857146 0.083940 0.462195
O O9 0.117276 0.609208 0.154534
#
# Coordination Sequence:
#
# PCOD9555408 Si02
#       7
#     2   2   8   8   4   8   2
#     4  12  28  56  76 106 148 200 260 344 392 450
#     4  12  32  54  80 110 148 200 280 354 384 446
#     4  12  26  42  73 110 150 197 243 303 379 461
#     4  12  24  44  69 111 157 194 237 300 370 477
#     4  12  26  47  74 110 148 201 238 308 388 476
#     4  12  29  50  80 107 147 201 263 327 397 458
#     4  12  20  38  64  96 156 202 240 282 344 440
#
# _framework density 22.248041000000001
#
# number of rings (size 3 to 8) (size 9 to 14) (size 15 to 20)
#    0.000    0.000    3.529    5.647    6.588    3.294 
#    0.000    0.000    0.000    0.000    0.000    0.000 
#    0.000    0.000    0.000    0.000    0.000    0.000 
#
# Total GULP energy -190204.219197 kJ/mol
# GULP energy per Si atom -5594.241741 kJ/mol
# Density = 2.219740 g / cm^3
# Si number density = 22.248041 Si / 1000 Ang^3
#
#
#
# Elastic Constant Matrix: (Units=GPa)
#
#
# Indices 1 2 3 4 5 6 
#
# 1 121.6816 43.3750 61.5247 0.0000 0.0000 0.0000
# 2 43.3750 121.6816 61.5247 0.0000 0.0000 0.0000
# 3 61.5247 61.5247 123.9792 0.0000 0.0000 0.0000
# 4 0.0000 0.0000 0.0000 38.4889 0.0000 0.0000
# 5 0.0000 0.0000 0.0000 0.0000 38.4889 0.0000
# 6 0.0000 0.0000 0.0000 0.0000 0.0000 41.6071
#
#
#
# Elastic Compliance Matrix: (Units=1/GPa)
#
#
# Indices 1 2 3 4 5 6 
#
# 1 0.011193 -0.001577 -0.004772 0.000000 0.000000 0.000000
# 2 -0.001577 0.011193 -0.004772 0.000000 0.000000 0.000000
# 3 -0.004772 -0.004772 0.012802 0.000000 0.000000 0.000000
# 4 0.000000 0.000000 0.000000 0.025982 0.000000 0.000000
# 5 0.000000 0.000000 0.000000 0.000000 0.025982 0.000000
# 6 0.000000 0.000000 0.000000 0.000000 0.000000 0.024034
#
#
# Mechanical properties :
#
#
# Convention : Reuss Voigt Hill
#
# Bulk Modulus (GPa) = 77.24239 77.79901 77.52070
# Shear Modulus (GPa) = 36.29943 37.11152 36.70548
#
# Velocity S-wave (km/s) = 4.04366 4.08864 4.06622
# Velocity P-wave (km/s) = 7.52301 7.57194 7.54751
#
# Compressibility (1/GPa) = 0.01294626
#
# Stress axis : x y z
#
# Youngs Moduli (GPa) = 89.34030 89.34030 78.11262
#
# Poissons Ratio (x) = 0.14090 0.37275
# Poissons Ratio (y) = 0.14090 0.37275
# Poissons Ratio (z) = 0.42633 0.42633
#
# Static dielectric constant tensor:
#      x y z
#    x 1.893890 0.000000 0.000000 
#    y 0.000000 1.893890 0.000000 
#    z 0.000000 0.000000 1.799500 
# 
# From -- ./inp_files/4772.got.cif
#   From: 2010.05.17/outbox.cif.g08.bks.cpg/sg112_3_cif.got.tgz:4772.got - 2010.05.20 10:59:04.
