data_PCOD9555953
_publ_section_title
;
Structure prediction by ZEFSAII (Michael W. Deem and Ramdas Pophale) SiO2 
 PCOD9555953
Probable space group: P -4 21 C
;
_chemical_formula_sum "Si O2"
_cell_formula_units_Z 60
_cell_length_a 11.988682
_cell_length_b 11.988682
_cell_length_c 19.050074
_cell_angle_alpha 90.000000
_cell_angle_beta 90.000000
_cell_angle_gamma 90.000000
_cell_volume 2738.038487
_symmetry_space_group_name_H-M "P -4 21 C"
_symmetry_group_IT_number 114
_symmetry_cell_setting 'tetragonal'
loop_
_space_group_symop_operation_xyz
x,y,z
y,-x,-z
-x,-y,z
-y,x,-z
1/2+x,1/2-y,1/2-z
1/2-x,1/2+y,1/2-z
1/2-y,1/2-x,1/2+z
1/2+y,1/2+x,1/2+z
loop_
_atom_site_type_symbol
_atom_site_label
_atom_site_fract_x
_atom_site_fract_y
_atom_site_fract_z
Si Si1 0.500000 0.500000 0.220938
Si Si2 0.305251 0.187668 0.188809
Si Si3 0.754512 0.723121 0.433213
Si Si4 0.101819 0.129331 0.035367
Si Si5 0.455121 0.742455 0.160535
Si Si6 0.386004 0.859811 0.306095
Si Si7 0.332476 0.484755 0.342584
Si Si8 0.366398 0.119465 0.340484
O O1 0.456316 0.610528 0.181129
O O2 0.399030 0.460992 0.271668
O O3 0.417788 0.222959 0.151813
O O4 0.209409 0.275457 0.170914
O O5 0.275545 0.060435 0.170808
O O6 0.319770 0.186403 0.273135
O O7 0.728898 0.682210 0.511823
O O8 0.880281 0.733936 0.406936
O O9 0.698822 0.624343 0.385740
O O10 0.696464 0.837809 0.409081
O O11 0.097284 0.076045 0.112175
O O12 0.977102 0.149017 0.008836
O O13 0.411840 0.819306 0.225981
O O14 0.503787 0.847904 0.345687
O O15 0.355870 0.989058 0.320116
#
# Coordination Sequence:
#
# PCOD9555953 Si02
#       8
#     4   8   8   8   8   8   8   8
#     4  12  22  34  63  98 127 154 214 264 338 410
#     4  11  22  33  55  83 118 161 203 246 315 398
#     4  11  21  38  59  86 126 158 206 264 329 391
#     4   9  20  36  61  92 118 156 212 277 329 362
#     4  11  24  35  56  90 128 172 201 255 333 413
#     4  10  20  36  51  83 119 159 199 245 317 402
#     4  11  21  36  61  86 122 160 205 268 314 387
#     4  10  21  34  55  81 119 160 197 250 329 386
#
# _framework density 21.913497
#
# number of rings (size 3 to 8) (size 9 to 14) (size 15 to 20)
#    0.000    1.467    2.667    4.000    5.600    1.600 
#    0.000    0.000    2.933    0.000    0.000    0.000 
#    0.000    0.000    0.000    0.000    0.000    0.000 
#
# Total GULP energy -335100.939519 kJ/mol
# GULP energy per Si atom -5585.015659 kJ/mol
# Density = 2.186362 g / cm^3
# Si number density = 21.913497 Si / 1000 Ang^3
#
#
#
# Elastic Constant Matrix: (Units=GPa)
#
#
# Indices 1 2 3 4 5 6 
#
# 1 102.9728 44.1918 18.8767 0.0000 0.0000 0.0000
# 2 44.1918 102.9728 18.8767 0.0000 0.0000 0.0000
# 3 18.8767 18.8767 41.7974 0.0000 0.0000 0.0000
# 4 0.0000 0.0000 0.0000 26.5086 0.0000 0.0000
# 5 0.0000 0.0000 0.0000 0.0000 26.5086 0.0000
# 6 0.0000 0.0000 0.0000 0.0000 0.0000 39.4774
#
#
#
# Elastic Compliance Matrix: (Units=1/GPa)
#
#
# Indices 1 2 3 4 5 6 
#
# 1 0.012349 -0.004663 -0.003471 0.000000 0.000000 0.000000
# 2 -0.004663 0.012349 -0.003471 0.000000 0.000000 0.000000
# 3 -0.003471 -0.003471 0.027060 0.000000 0.000000 0.000000
# 4 0.000000 0.000000 0.000000 0.037724 0.000000 0.000000
# 5 0.000000 0.000000 0.000000 0.000000 0.037724 0.000000
# 6 0.000000 0.000000 0.000000 0.000000 0.000000 0.025331
#
#
# Mechanical properties :
#
#
# Convention : Reuss Voigt Hill
#
# Bulk Modulus (GPa) = 35.02960 45.73703 40.38331
# Shear Modulus (GPa) = 26.98872 29.55210 28.27041
#
# Velocity S-wave (km/s) = 3.51323 3.67629 3.59568
# Velocity P-wave (km/s) = 5.69887 6.23995 5.97554
#
# Compressibility (1/GPa) = 0.02854729
#
# Stress axis : x y z
#
# Youngs Moduli (GPa) = 80.97874 80.97874 36.95480
#
# Poissons Ratio (x) = 0.37763 0.12827
# Poissons Ratio (y) = 0.37763 0.12827
# Poissons Ratio (z) = 0.28108 0.28108
#
# Static dielectric constant tensor:
#      x y z
#    x 1.840120 0.000000 0.000000 
#    y 0.000000 1.840120 0.000000 
#    z 0.000000 0.000000 1.846060 
# 
# From -- ./inp_files/3244.got.cif
#   From: 2010.05.17/outbox.cif.g08.bks.cpg/sg114_2_cif.got.tgz:3244.got - 2010.05.20 11:04:54.
