data_PCOD9555321
_publ_section_title
;
Structure prediction by ZEFSAII (Michael W. Deem and Ramdas Pophale) SiO2 
 PCOD9555321
Probable space group: P -4 2 C
;
_chemical_formula_sum "Si O2"
_cell_formula_units_Z 40
_cell_length_a 8.742826
_cell_length_b 8.742826
_cell_length_c 22.269987
_cell_angle_alpha 90.000000
_cell_angle_beta 90.000000
_cell_angle_gamma 90.000000
_cell_volume 1702.251140
_symmetry_space_group_name_H-M "P -4 2 C"
_symmetry_group_IT_number 112
_symmetry_cell_setting 'tetragonal'
loop_
_space_group_symop_operation_xyz
x,y,z
y,-x,-z
-x,-y,z
-y,x,-z
x,-y,1/2-z
-x,y,1/2-z
-y,-x,1/2+z
y,x,1/2+z
loop_
_atom_site_type_symbol
_atom_site_label
_atom_site_fract_x
_atom_site_fract_y
_atom_site_fract_z
Si Si1 0.265473 0.548899 0.476480
Si Si2 0.948495 0.227991 0.526896
Si Si3 0.129167 0.381141 0.148519
Si Si4 0.866623 0.895443 0.850419
Si Si5 0.811510 0.680281 0.747654
O O1 0.397185 0.670541 0.493151
O O2 0.114635 0.610118 0.508353
O O3 0.227712 0.544686 0.405448
O O4 0.943919 0.203932 0.597978
O O5 0.107008 0.171547 0.500978
O O6 0.236945 0.287968 0.195251
O O7 0.000000 0.500000 0.173112
O O8 0.017798 0.249983 0.121782
O O9 0.778259 0.783833 0.805843
O O10 0.000000 0.000000 0.821119
O O11 0.772215 0.500000 0.750000
O O12 0.000000 0.686626 0.750000
#
# Coordination Sequence:
#
# PCOD9555321 Si02
#       5
#     8   8   8   8   8
#     4  11  26  46  72 107 155 197 245 317 411 491
#     4  11  21  39  67 111 143 189 253 322 389 472
#     4  12  26  49  77 112 152 211 266 324 410 501
#     4  12  22  43  74 108 153 203 269 331 397 479
#     4  11  27  48  76 116 158 209 273 345 408 474
#
# _framework density 23.498294000000001
#
# number of rings (size 3 to 8) (size 9 to 14) (size 15 to 20)
#    0.000    0.600    6.000    1.800    2.800    1.600 
#    0.000    1.000    0.000    0.000    0.000    0.000 
#    0.000    0.000    0.000    0.000    0.000    0.000 
#
# Total GULP energy -223352.875538 kJ/mol
# GULP energy per Si atom -5583.821888 kJ/mol
# Density = 2.344481 g / cm^3
# Si number density = 23.498294 Si / 1000 Ang^3
#
#
#
# Elastic Constant Matrix: (Units=GPa)
#
#
# Indices 1 2 3 4 5 6 
#
# 1 -28.6054 241.1917 44.5174 0.0000 0.0000 0.0000
# 2 241.1917 -28.6054 44.5174 0.0000 0.0000 0.0000
# 3 44.5174 44.5174 147.1051 0.0000 0.0000 0.0000
# 4 0.0000 0.0000 0.0000 7.3356 0.0000 0.0000
# 5 0.0000 0.0000 0.0000 0.0000 7.3356 0.0000
# 6 0.0000 0.0000 0.0000 0.0000 0.0000 61.5674
#
#
#
# Elastic Compliance Matrix: (Units=1/GPa)
#
#
# Indices 1 2 3 4 5 6 
#
# 1 0.000840 0.004547 -0.001630 0.000000 0.000000 0.000000
# 2 0.004547 0.000840 -0.001630 0.000000 0.000000 0.000000
# 3 -0.001630 -0.001630 0.007784 0.000000 0.000000 0.000000
# 4 0.000000 0.000000 0.000000 0.136321 0.000000 0.000000
# 5 0.000000 0.000000 0.000000 0.000000 0.136321 0.000000
# 6 0.000000 0.000000 0.000000 0.000000 0.000000 0.016242
#
#
# Mechanical properties :
#
#
# Convention : Reuss Voigt Hill
#
# Bulk Modulus (GPa) = 83.07484 83.37193 83.22338
# Shear Modulus (GPa) = 16.67842 -0.77440 7.95201
#
# Velocity S-wave (km/s) = 2.66704 -0.57469 1.84158
# Velocity P-wave (km/s) = 6.70183 5.92593 6.32579
#
# Compressibility (1/GPa) = 0.01203734
#
# Stress axis : x y z
#
# Youngs Moduli (GPa) = 1190.32523 1190.32523 128.46040
#
# Poissons Ratio (x) = -5.41193 0.20941
# Poissons Ratio (y) = -5.41193 0.20941
# Poissons Ratio (z) = 1.94040 1.94040
#
# Static dielectric constant tensor:
#      x y z
#    x 2.128250 0.000000 0.000000 
#    y 0.000000 2.128250 0.000000 
#    z 0.000000 0.000000 1.898590 
# 
# From -- ./inp_files/5295.got.cif
#   From: 2010.05.17/outbox.cif.g08.bks.cpg/sg112_3_cif.got.tgz:5295.got - 2010.05.20 10:59:04.
