data_PCOD9555472
_publ_section_title
;
Structure prediction by ZEFSAII (Michael W. Deem and Ramdas Pophale) SiO2 
 PCOD9555472
Probable space group: P -4 21 M 
;
_chemical_formula_sum "Si O2"
_cell_formula_units_Z 48
_cell_length_a 15.391002
_cell_length_b 15.391002
_cell_length_c 12.155464
_cell_angle_alpha 90.000000
_cell_angle_beta 90.000000
_cell_angle_gamma 90.000000
_cell_volume 2879.422081
_symmetry_space_group_name_H-M "P -4 21 M "
_symmetry_group_IT_number 113
_symmetry_cell_setting 'tetragonal'
loop_
_space_group_symop_operation_xyz
x,y,z
y,-x,-z
-x,-y,z
-y,x,-z
1/2+x,1/2-y,-z
1/2-x,1/2+y,-z
1/2-y,1/2-x,z
1/2+y,1/2+x,z
loop_
_atom_site_type_symbol
_atom_site_label
_atom_site_fract_x
_atom_site_fract_y
_atom_site_fract_z
Si Si1 0.170328 0.181504 0.500001
Si Si2 0.474982 0.356770 0.128967
Si Si3 0.143230 0.025018 0.871034
Si Si4 0.092471 0.734471 0.311313
Si Si5 0.825854 0.527939 0.500000
Si Si6 0.592472 0.765529 0.311314
O O1 0.248877 0.251124 0.500000
O O2 0.187553 0.125540 0.608897
O O3 0.083397 0.236604 0.500001
O O4 0.187553 0.125540 0.391105
O O5 0.567957 0.402812 0.148038
O O6 0.402813 0.432043 0.148038
O O7 0.456178 0.276911 0.208960
O O8 0.470865 0.332867 0.000000
O O9 0.223089 0.043821 0.791041
O O10 0.174239 0.674239 0.278872
O O11 0.031036 0.678072 0.391425
O O12 0.906080 0.593921 0.500000
O O13 0.821928 0.468963 0.608574
O O14 0.674241 0.825760 0.278873
#
# Coordination Sequence:
#
# PCOD9555472 Si02
#       6
#     8   8   8   8   8   8
#     4   8  16  29  44  66  94 123 158 197 230 267
#     4   9  18  33  52  72  94 122 158 200 243 283
#     4   9  18  33  52  72  94 122 158 200 243 283
#     4  10  19  30  47  72  99 127 160 195 235 283
#     4  10  19  32  50  70  97 131 161 192 234 282
#     4  10  19  30  47  72  99 127 160 195 235 283
#
# _framework density 16.670012
#
# number of rings (size 3 to 8) (size 9 to 14) (size 15 to 20)
#    0.000    2.667    0.000    4.500    0.000    2.000 
#    0.000    0.000    0.000   11.000    0.000    2.333 
#    0.000    0.000    0.000    0.000    0.000    0.000 
#
# Total GULP energy -267539.141337 kJ/mol
# GULP energy per Si atom -5573.732111 kJ/mol
# Density = 1.663207 g / cm^3
# Si number density = 16.670012 Si / 1000 Ang^3
#
#
#
# Elastic Constant Matrix: (Units=GPa)
#
#
# Indices 1 2 3 4 5 6 
#
# 1 59.7836 19.6828 41.8633 0.0000 0.0000 0.0000
# 2 19.6828 59.7863 41.8620 0.0000 0.0000 0.0000
# 3 41.8633 41.8620 98.2575 0.0000 0.0000 0.0000
# 4 0.0000 0.0000 0.0000 10.0355 0.0000 0.0000
# 5 0.0000 0.0000 0.0000 0.0000 10.0357 0.0000
# 6 0.0000 0.0000 0.0000 0.0000 0.0000 26.8034
#
#
#
# Elastic Compliance Matrix: (Units=1/GPa)
#
#
# Indices 1 2 3 4 5 6 
#
# 1 0.023886 -0.001052 -0.009729 0.000000 0.000000 0.000000
# 2 -0.001052 0.023884 -0.009727 0.000000 0.000000 0.000000
# 3 -0.009729 -0.009727 0.018467 0.000000 0.000000 0.000000
# 4 0.000000 0.000000 0.000000 0.099646 0.000000 0.000000
# 5 0.000000 0.000000 0.000000 0.000000 0.099644 0.000000
# 6 0.000000 0.000000 0.000000 0.000000 0.000000 0.037309
#
#
# Mechanical properties :
#
#
# Convention : Reuss Voigt Hill
#
# Bulk Modulus (GPa) = 39.65036 47.18263 43.41649
# Shear Modulus (GPa) = 14.19421 17.00288 15.59854
#
# Velocity S-wave (km/s) = 2.92118 3.19716 3.06228
# Velocity P-wave (km/s) = 5.93421 6.48031 6.21326
#
# Compressibility (1/GPa) = 0.02522045
#
# Stress axis : x y z
#
# Youngs Moduli (GPa) = 41.86610 41.86988 54.15193
#
# Poissons Ratio (x) = 0.04404 0.52682
# Poissons Ratio (y) = 0.04403 0.52675
# Poissons Ratio (z) = 0.40730 0.40728
#
# Static dielectric constant tensor:
#      x y z
#    x 1.562710 0.000000 0.000000 
#    y 0.000000 1.562710 0.000000 
#    z 0.000000 0.000000 1.550490 
# 
# From -- ./inp_files/1809.got.cif
#   From: 2010.05.17/outbox.cif.g08.bks.cpg/sg113_cif.got.tgz:1809.got - 2010.05.20 11:03:00.
