data_PCOD9555130
_publ_section_title
;
Structure prediction by ZEFSAII (Michael W. Deem and Ramdas Pophale) SiO2 
 PCOD9555130
Probable space group: P -4 2 C
;
_chemical_formula_sum "Si O2"
_cell_formula_units_Z 40
_cell_length_a 12.102728
_cell_length_b 12.102728
_cell_length_c 14.110559
_cell_angle_alpha 90.000000
_cell_angle_beta 90.000000
_cell_angle_gamma 90.000000
_cell_volume 2066.858593
_symmetry_space_group_name_H-M "P -4 2 C"
_symmetry_group_IT_number 112
_symmetry_cell_setting 'tetragonal'
loop_
_space_group_symop_operation_xyz
x,y,z
y,-x,-z
-x,-y,z
-y,x,-z
x,-y,1/2-z
-x,y,1/2-z
-y,-x,1/2+z
y,x,1/2+z
loop_
_atom_site_type_symbol
_atom_site_label
_atom_site_fract_x
_atom_site_fract_y
_atom_site_fract_z
Si Si1 0.260708 0.066903 0.345196
Si Si2 0.661284 0.863282 0.642605
Si Si3 0.157168 0.294781 0.557518
Si Si4 0.467528 0.128967 0.454550
Si Si5 0.878043 0.722740 0.343828
O O1 0.362706 0.138395 0.385535
O O2 0.158069 0.149018 0.327095
O O3 0.288796 0.000000 0.250000
O O4 0.251112 0.967302 0.421206
O O5 0.761363 0.789039 0.606403
O O6 0.567235 0.844869 0.563155
O O7 0.649063 0.839360 0.754585
O O8 0.699003 0.991713 0.643248
O O9 0.179559 0.420968 0.588133
O O10 0.173343 0.301505 0.445325
O O11 0.500000 0.000000 0.457890
#
# Coordination Sequence:
#
# PCOD9555130 Si02
#       5
#     8   8   8   8   8
#     4  11  21  37  57  87 118 161 202 241 297 356
#     4  11  22  37  57  86 117 154 196 242 302 356
#     4  11  21  39  57  84 119 155 201 245 293 354
#     4  10  21  38  60  83 116 159 204 249 293 348
#     4  11  21  36  58  84 124 153 195 240 299 361
#
# _framework density 19.353041000000001
#
# number of rings (size 3 to 8) (size 9 to 14) (size 15 to 20)
#    0.000    1.200    8.000    0.000    0.000    5.200 
#    0.000    2.000    0.000    0.600    0.000    0.000 
#    6.000    0.000    0.000    0.000    0.000    0.000 
#
# Total GULP energy -222752.098504 kJ/mol
# GULP energy per Si atom -5568.802463 kJ/mol
# Density = 1.930899 g / cm^3
# Si number density = 19.353041 Si / 1000 Ang^3
#
#
#
# Elastic Constant Matrix: (Units=GPa)
#
#
# Indices 1 2 3 4 5 6 
#
# 1 26.1914 7.7517 -11.9805 0.0000 0.0000 0.0000
# 2 7.7517 26.1914 -11.9805 0.0000 0.0000 0.0000
# 3 -11.9805 -11.9805 90.1544 0.0000 0.0000 0.0000
# 4 0.0000 0.0000 0.0000 18.2209 0.0000 0.0000
# 5 0.0000 0.0000 0.0000 0.0000 18.2209 0.0000
# 6 0.0000 0.0000 0.0000 0.0000 0.0000 -7.8007
#
#
#
# Elastic Compliance Matrix: (Units=1/GPa)
#
#
# Indices 1 2 3 4 5 6 
#
# 1 0.043371 -0.010860 0.004320 0.000000 0.000000 0.000000
# 2 -0.010860 0.043371 0.004320 0.000000 0.000000 0.000000
# 3 0.004320 0.004320 0.012240 0.000000 0.000000 0.000000
# 4 0.000000 0.000000 0.000000 0.054882 0.000000 0.000000
# 5 0.000000 0.000000 0.000000 0.000000 0.054882 0.000000
# 6 0.000000 0.000000 0.000000 0.000000 0.000000 -0.128194
#
#
# Mechanical properties :
#
#
# Convention : Reuss Voigt Hill
#
# Bulk Modulus (GPa) = 10.57715 12.23540 11.40627
# Shear Modulus (GPa) = 42.91666 16.31133 29.61400
#
# Velocity S-wave (km/s) = 4.71421 2.90630 3.91602
# Velocity P-wave (km/s) = 5.92528 4.19501 5.13357
#
# Compressibility (1/GPa) = 0.09454344
#
# Stress axis : x y z
#
# Youngs Moduli (GPa) = 23.05694 23.05694 81.69720
#
# Poissons Ratio (x) = 0.25040 -0.35296
# Poissons Ratio (y) = 0.25040 -0.35296
# Poissons Ratio (z) = -0.09961 -0.09961
#
# Static dielectric constant tensor:
#      x y z
#    x 1.717500 0.000000 0.000000 
#    y 0.000000 1.717500 0.000000 
#    z 0.000000 0.000000 1.758640 
# 
# From -- ./inp_files/3280.got.cif
#   From: 2010.05.17/outbox.cif.g08.bks.cpg/sg112_2_cif.got.tgz:3280.got - 2010.05.20 10:59:04.
