data_PCOD9555905
_publ_section_title
;
Structure prediction by ZEFSAII (Michael W. Deem and Ramdas Pophale) SiO2 
 PCOD9555905
Probable space group: P -4 21 C
;
_chemical_formula_sum "Si O2"
_cell_formula_units_Z 64
_cell_length_a 13.335431
_cell_length_b 13.335431
_cell_length_c 14.354243
_cell_angle_alpha 90.000000
_cell_angle_beta 90.000000
_cell_angle_gamma 90.000000
_cell_volume 2552.668430
_symmetry_space_group_name_H-M "P -4 21 C"
_symmetry_group_IT_number 114
_symmetry_cell_setting 'tetragonal'
loop_
_space_group_symop_operation_xyz
x,y,z
y,-x,-z
-x,-y,z
-y,x,-z
1/2+x,1/2-y,1/2-z
1/2-x,1/2+y,1/2-z
1/2-y,1/2-x,1/2+z
1/2+y,1/2+x,1/2+z
loop_
_atom_site_type_symbol
_atom_site_label
_atom_site_fract_x
_atom_site_fract_y
_atom_site_fract_z
Si Si1 0.300035 0.749204 0.578906
Si Si2 0.909075 0.344947 0.004599
Si Si3 0.704966 0.559246 0.767947
Si Si4 0.059320 0.405498 0.167312
Si Si5 0.199412 0.467594 0.004728
Si Si6 0.685995 0.337479 0.394847
Si Si7 0.026600 0.883453 0.609166
Si Si8 0.825635 0.172511 0.286538
O O1 0.195059 0.691612 0.556814
O O2 0.302811 0.865727 0.552827
O O3 0.327443 0.717437 0.682172
O O4 0.136475 0.884508 0.655610
O O5 0.876212 0.450926 0.962771
O O6 0.989746 0.358776 0.085118
O O7 0.925048 0.263061 0.924019
O O8 0.819831 0.584054 0.740821
O O9 0.645809 0.596450 0.675680
O O10 0.708740 0.441077 0.784414
O O11 0.151875 0.446218 0.106806
O O12 0.000000 0.500000 0.708024
O O13 0.140000 0.198878 0.007257
O O14 0.311058 0.511490 0.019986
O O15 0.759284 0.249413 0.350658
O O16 0.940373 0.840522 0.677060
O O17 0.000000 0.000000 0.596525
#
# Coordination Sequence:
#
# PCOD9555905 Si02
#       8
#     8   8   8   8   8   8   8   8
#     4  10  21  40  68  90 138 182 233 301 361 448
#     4   9  21  39  63  94 129 177 235 289 361 434
#     4  11  21  38  67  95 139 186 228 297 374 432
#     4  10  19  37  67  93 133 180 237 296 355 442
#     4  11  21  43  64  98 135 183 236 291 367 438
#     4  10  22  41  61  96 137 175 234 303 354 448
#     4  10  23  40  65 101 147 180 236 300 355 457
#     4  11  22  42  65 102 138 186 241 294 375 440
#
# _framework density 25.071802000000002
#
# number of rings (size 3 to 8) (size 9 to 14) (size 15 to 20)
#    0.750    1.000    3.750    0.000    1.750    2.000 
#    6.750    0.000    0.000    2.250    3.250    0.000 
#    0.000    0.000    0.000    0.000    0.000    0.000 
#
# Total GULP energy -357308.891748 kJ/mol
# GULP energy per Si atom -5582.951434 kJ/mol
# Density = 2.501474 g / cm^3
# Si number density = 25.071802 Si / 1000 Ang^3
#
#
#
# Elastic Constant Matrix: (Units=GPa)
#
#
# Indices 1 2 3 4 5 6 
#
# 1 74.4880 28.4465 16.6853 0.0000 0.0000 0.0000
# 2 28.4465 74.4880 16.6853 0.0000 0.0000 0.0000
# 3 16.6853 16.6853 116.5290 0.0000 0.0000 0.0000
# 4 0.0000 0.0000 0.0000 46.8357 0.0000 0.0000
# 5 0.0000 0.0000 0.0000 0.0000 46.8357 0.0000
# 6 0.0000 0.0000 0.0000 0.0000 0.0000 19.0196
#
#
#
# Elastic Compliance Matrix: (Units=1/GPa)
#
#
# Indices 1 2 3 4 5 6 
#
# 1 0.015954 -0.005766 -0.001459 0.000000 0.000000 0.000000
# 2 -0.005766 0.015954 -0.001459 0.000000 0.000000 0.000000
# 3 -0.001459 -0.001459 0.008999 0.000000 0.000000 0.000000
# 4 0.000000 0.000000 0.000000 0.021351 0.000000 0.000000
# 5 0.000000 0.000000 0.000000 0.000000 0.021351 0.000000
# 6 0.000000 0.000000 0.000000 0.000000 0.000000 0.052577
#
#
# Mechanical properties :
#
#
# Convention : Reuss Voigt Hill
#
# Bulk Modulus (GPa) = 42.48097 43.23769 42.85933
# Shear Modulus (GPa) = 30.97899 36.11740 33.54819
#
# Velocity S-wave (km/s) = 3.51894 3.79959 3.66195
# Velocity P-wave (km/s) = 5.78715 6.04418 5.91706
#
# Compressibility (1/GPa) = 0.02353995
#
# Stress axis : x y z
#
# Youngs Moduli (GPa) = 62.68149 62.68149 111.11979
#
# Poissons Ratio (x) = 0.36141 0.16210
# Poissons Ratio (y) = 0.36141 0.16210
# Poissons Ratio (z) = 0.09144 0.09144
#
# Static dielectric constant tensor:
#      x y z
#    x 2.038820 0.000000 0.000000 
#    y 0.000000 2.038820 0.000000 
#    z 0.000000 0.000000 2.017970 
# 
# From -- ./inp_files/2729.got.cif
#   From: 2010.05.17/outbox.cif.g08.bks.cpg/sg114_2_cif.got.tgz:2729.got - 2010.05.20 11:04:54.
