data_PCOD9555277
_publ_section_title
;
Structure prediction by ZEFSAII (Michael W. Deem and Ramdas Pophale) SiO2 
 PCOD9555277
Probable space group: P -4 2 C
;
_chemical_formula_sum "Si O2"
_cell_formula_units_Z 40
_cell_length_a 14.949859
_cell_length_b 14.949859
_cell_length_c 8.214388
_cell_angle_alpha 90.000000
_cell_angle_beta 90.000000
_cell_angle_gamma 90.000000
_cell_volume 1835.901623
_symmetry_space_group_name_H-M "P -4 2 C"
_symmetry_group_IT_number 112
_symmetry_cell_setting 'tetragonal'
loop_
_space_group_symop_operation_xyz
x,y,z
y,-x,-z
-x,-y,z
-y,x,-z
x,-y,1/2-z
-x,y,1/2-z
-y,-x,1/2+z
y,x,1/2+z
loop_
_atom_site_type_symbol
_atom_site_label
_atom_site_fract_x
_atom_site_fract_y
_atom_site_fract_z
Si Si1 0.661929 0.758609 0.431023
Si Si2 0.146894 0.500000 0.750000
Si Si3 0.253646 0.000000 0.750000
Si Si4 0.218100 0.809840 0.816850
Si Si5 0.937391 0.669251 0.592110
Si Si6 0.556985 0.607443 0.586524
O O1 0.574528 0.795458 0.343612
O O2 0.745262 0.735391 0.315812
O O3 0.707469 0.830086 0.547605
O O4 0.630953 0.678410 0.544540
O O5 0.094411 0.434148 0.623559
O O6 0.193531 0.090433 0.736690
O O7 0.312396 0.977907 0.586985
O O8 0.140858 0.743919 0.882526
O O9 0.000000 0.685333 0.750000
O O10 0.603781 0.511751 0.565993
O O11 0.500000 0.622668 0.750000
#
# Coordination Sequence:
#
# PCOD9555277 Si02
#       6
#     8   4   4   8   8   8
#     4  11  24  43  70  99 146 190 241 308 367 442
#     4  10  25  44  70 105 152 198 234 307 380 434
#     4  12  24  46  82 106 146 200 248 306 381 457
#     4  11  24  46  71 107 143 188 244 301 377 442
#     4  11  25  47  76 110 153 193 245 312 377 452
#     4  11  24  37  59  93 134 186 247 303 361 433
#
# _framework density 21.787656999999999
#
# number of rings (size 3 to 8) (size 9 to 14) (size 15 to 20)
#    0.000    1.000    2.000    5.100    8.400    1.600 
#    0.000    7.500    0.000    0.000    0.000    0.000 
#    0.000    0.000    0.000    0.000    0.000    0.000 
#
# Total GULP energy -222731.729247 kJ/mol
# GULP energy per Si atom -5568.293231 kJ/mol
# Density = 2.173807 g / cm^3
# Si number density = 21.787657 Si / 1000 Ang^3
#
#
#
# Elastic Constant Matrix: (Units=GPa)
#
#
# Indices 1 2 3 4 5 6 
#
# 1 111.3330 44.1497 36.6870 0.0000 0.0000 0.0000
# 2 44.1497 111.3330 36.6870 0.0000 0.0000 0.0000
# 3 36.6870 36.6870 128.1823 0.0000 0.0000 0.0000
# 4 0.0000 0.0000 0.0000 18.4031 0.0000 0.0000
# 5 0.0000 0.0000 0.0000 0.0000 18.4031 0.0000
# 6 0.0000 0.0000 0.0000 0.0000 0.0000 23.6639
#
#
#
# Elastic Compliance Matrix: (Units=1/GPa)
#
#
# Indices 1 2 3 4 5 6 
#
# 1 0.011160 -0.003724 -0.002128 0.000000 0.000000 0.000000
# 2 -0.003724 0.011160 -0.002128 0.000000 0.000000 0.000000
# 3 -0.002128 -0.002128 0.009020 0.000000 0.000000 0.000000
# 4 0.000000 0.000000 0.000000 0.054339 0.000000 0.000000
# 5 0.000000 0.000000 0.000000 0.000000 0.054339 0.000000
# 6 0.000000 0.000000 0.000000 0.000000 0.000000 0.042258
#
#
# Mechanical properties :
#
#
# Convention : Reuss Voigt Hill
#
# Bulk Modulus (GPa) = 65.02564 65.09950 65.06257
# Shear Modulus (GPa) = 24.58646 27.64900 26.11773
#
# Velocity S-wave (km/s) = 3.36290 3.56620 3.46604
# Velocity P-wave (km/s) = 6.70736 6.84843 6.77826
#
# Compressibility (1/GPa) = 0.01537855
#
# Stress axis : x y z
#
# Youngs Moduli (GPa) = 89.60352 89.60352 110.86934
#
# Poissons Ratio (x) = 0.33372 0.23596
# Poissons Ratio (y) = 0.33372 0.23596
# Poissons Ratio (z) = 0.19070 0.19070
#
# Static dielectric constant tensor:
#      x y z
#    x 1.840750 0.000000 0.000000 
#    y 0.000000 1.840750 0.000000 
#    z 0.000000 0.000000 1.927920 
# 
# From -- ./inp_files/1297.got.cif
#   From: 2010.05.17/outbox.cif.g08.bks.cpg/sg112_1_cif.got.tgz:1297.got - 2010.05.20 10:59:04.
