data_PCOD9555997
_publ_section_title
;
Structure prediction by ZEFSAII (Michael W. Deem and Ramdas Pophale) SiO2 
 PCOD9555997
Probable space group: P -4 21 C
;
_chemical_formula_sum "Si O2"
_cell_formula_units_Z 48
_cell_length_a 8.192094
_cell_length_b 8.192094
_cell_length_c 34.050972
_cell_angle_alpha 90.000000
_cell_angle_beta 90.000000
_cell_angle_gamma 90.000000
_cell_volume 2285.174491
_symmetry_space_group_name_H-M "P -4 21 C"
_symmetry_group_IT_number 114
_symmetry_cell_setting 'tetragonal'
loop_
_space_group_symop_operation_xyz
x,y,z
y,-x,-z
-x,-y,z
-y,x,-z
1/2+x,1/2-y,1/2-z
1/2-x,1/2+y,1/2-z
1/2-y,1/2-x,1/2+z
1/2+y,1/2+x,1/2+z
loop_
_atom_site_type_symbol
_atom_site_label
_atom_site_fract_x
_atom_site_fract_y
_atom_site_fract_z
Si Si1 0.595018 0.331518 0.664802
Si Si2 0.895147 0.252062 0.506198
Si Si3 0.314028 0.997731 0.776803
Si Si4 0.000000 0.000000 0.360137
Si Si5 0.500000 0.000000 0.053364
Si Si6 0.295543 0.143668 0.692554
Si Si7 0.222641 0.224809 0.409659
O O1 0.500000 0.500000 0.663508
O O2 0.715207 0.357551 0.701663
O O3 0.466589 0.184071 0.670555
O O4 0.695270 0.325777 0.624735
O O5 0.879887 0.397896 0.475215
O O6 0.834122 0.299547 0.549478
O O7 0.086900 0.200243 0.506293
O O8 0.247315 0.821939 0.789552
O O9 0.500000 0.000000 0.790203
O O10 0.308882 0.027941 0.730368
O O11 0.072790 0.850260 0.334393
O O12 0.864372 0.926792 0.388868
O O13 0.408256 0.863899 0.078480
#
# Coordination Sequence:
#
# PCOD9555997 Si02
#       7
#     8   8   8   4   4   8   8
#     4  10  24  44  60  94 134 175 216 274 340 384
#     4   9  19  39  65  92 122 162 208 257 319 397
#     4  11  24  42  67  91 131 179 227 282 327 403
#     4  12  26  40  67 104 126 180 222 274 347 390
#     4  10  20  40  66  96 122 166 204 262 326 394
#     4  11  26  41  67  96 132 179 228 277 332 408
#     4  11  22  41  64  95 131 163 212 274 320 400
#
# _framework density 21.004963
#
# number of rings (size 3 to 8) (size 9 to 14) (size 15 to 20)
#    0.000    1.500    0.000    5.000   10.500    0.000 
#   13.500    0.000    0.000    0.000    0.000    0.000 
#    0.000    0.000    0.000    0.000    0.000    0.000 
#
# Total GULP energy -268148.432982 kJ/mol
# GULP energy per Si atom -5586.425687 kJ/mol
# Density = 2.095715 g / cm^3
# Si number density = 21.004963 Si / 1000 Ang^3
#
#
#
# Elastic Constant Matrix: (Units=GPa)
#
#
# Indices 1 2 3 4 5 6 
#
# 1 66.4864 3.2340 15.1560 0.0000 0.0000 0.0000
# 2 3.2340 66.4864 15.1560 0.0000 0.0000 0.0000
# 3 15.1560 15.1560 98.6759 0.0000 0.0000 0.0000
# 4 0.0000 0.0000 0.0000 45.9793 0.0000 0.0000
# 5 0.0000 0.0000 0.0000 0.0000 45.9793 0.0000
# 6 0.0000 0.0000 0.0000 0.0000 0.0000 24.7816
#
#
#
# Elastic Compliance Matrix: (Units=1/GPa)
#
#
# Indices 1 2 3 4 5 6 
#
# 1 0.015590 -0.000220 -0.002361 0.000000 0.000000 0.000000
# 2 -0.000220 0.015590 -0.002361 0.000000 0.000000 0.000000
# 3 -0.002361 -0.002361 0.010859 0.000000 0.000000 0.000000
# 4 0.000000 0.000000 0.000000 0.021749 0.000000 0.000000
# 5 0.000000 0.000000 0.000000 0.000000 0.021749 0.000000
# 6 0.000000 0.000000 0.000000 0.000000 0.000000 0.040352
#
#
# Mechanical properties :
#
#
# Convention : Reuss Voigt Hill
#
# Bulk Modulus (GPa) = 31.09891 33.19340 32.14615
# Shear Modulus (GPa) = 34.13200 36.55487 35.34344
#
# Velocity S-wave (km/s) = 4.03544 4.17621 4.10643
# Velocity P-wave (km/s) = 6.04572 6.25230 6.14988
#
# Compressibility (1/GPa) = 0.03215547
#
# Stress axis : x y z
#
# Youngs Moduli (GPa) = 64.14570 64.14570 92.08659
#
# Poissons Ratio (x) = 0.01412 0.21738
# Poissons Ratio (y) = 0.01412 0.21738
# Poissons Ratio (z) = 0.15142 0.15142
#
# Static dielectric constant tensor:
#      x y z
#    x 1.767240 0.000000 0.000000 
#    y 0.000000 1.767240 0.000000 
#    z 0.000000 0.000000 1.741380 
# 
# From -- ./inp_files/4006.got.cif
#   From: 2010.05.17/outbox.cif.g08.bks.cpg/sg114_3_cif.got.tgz:4006.got - 2010.05.20 11:04:54.
