data_PCOD9555511
_publ_section_title
;
Structure prediction by ZEFSAII (Michael W. Deem and Ramdas Pophale) SiO2 
 PCOD9555511
Probable space group: P -4 21 M 
;
_chemical_formula_sum "Si O2"
_cell_formula_units_Z 32
_cell_length_a 13.996384
_cell_length_b 13.996384
_cell_length_c 7.206484
_cell_angle_alpha 90.000000
_cell_angle_beta 90.000000
_cell_angle_gamma 90.000000
_cell_volume 1411.741316
_symmetry_space_group_name_H-M "P -4 21 M "
_symmetry_group_IT_number 113
_symmetry_cell_setting 'tetragonal'
loop_
_space_group_symop_operation_xyz
x,y,z
y,-x,-z
-x,-y,z
-y,x,-z
1/2+x,1/2-y,-z
1/2-x,1/2+y,-z
1/2-y,1/2-x,z
1/2+y,1/2+x,z
loop_
_atom_site_type_symbol
_atom_site_label
_atom_site_fract_x
_atom_site_fract_y
_atom_site_fract_z
Si Si1 0.874358 0.919510 0.557036
Si Si2 0.504886 0.845565 0.885889
Si Si3 0.889836 0.762880 0.843712
Si Si4 0.031100 0.680923 0.549699
O O1 0.875859 0.866967 0.754857
O O2 0.774471 0.901045 0.455056
O O3 0.965897 0.884536 0.440542
O O4 0.607953 0.892048 0.934854
O O5 0.504113 0.833346 0.664908
O O6 0.426293 0.926293 0.933933
O O7 0.465289 0.752518 0.990344
O O8 0.789919 0.710082 0.885255
O O9 0.942535 0.705484 0.677464
O O10 0.088569 0.588569 0.613775
#
# Coordination Sequence:
#
# PCOD9555511 Si02
#       4
#     8   8   8   8
#     4   9  19  36  54  72 101 141 184 224 258 299
#     4   9  18  32  52  83 116 140 172 219 272 335
#     4  10  19  33  55  81 110 143 176 218 273 325
#     4  10  19  33  55  81 110 143 176 218 273 325
#
# _framework density 22.667041999999999
#
# number of rings (size 3 to 8) (size 9 to 14) (size 15 to 20)
#    0.000    2.500    0.000    2.250    0.000    2.500 
#    0.000   12.500    0.000   15.000    0.000    0.000 
#    0.000    0.000    0.000    0.000    0.000    0.000 
#
# Total GULP energy -178518.712542 kJ/mol
# GULP energy per Si atom -5578.709767 kJ/mol
# Density = 2.261545 g / cm^3
# Si number density = 22.667042 Si / 1000 Ang^3
#
#
#
# Elastic Constant Matrix: (Units=GPa)
#
#
# Indices 1 2 3 4 5 6 
#
# 1 23.9656 57.9948 5.4610 0.0000 0.0000 0.0000
# 2 57.9948 23.9688 5.4636 0.0000 0.0000 0.0000
# 3 5.4610 5.4636 68.6830 0.0000 0.0000 0.0000
# 4 0.0000 0.0000 0.0000 -4.7385 0.0000 0.0000
# 5 0.0000 0.0000 0.0000 0.0000 -4.7156 0.0000
# 6 0.0000 0.0000 0.0000 0.0000 0.0000 27.5674
#
#
#
# Elastic Compliance Matrix: (Units=1/GPa)
#
#
# Indices 1 2 3 4 5 6 
#
# 1 -0.008529 0.020860 -0.000981 0.000000 0.000000 0.000000
# 2 0.020860 -0.008528 -0.000980 0.000000 0.000000 0.000000
# 3 -0.000981 -0.000980 0.014716 0.000000 0.000000 0.000000
# 4 0.000000 0.000000 0.000000 -0.211038 0.000000 0.000000
# 5 0.000000 0.000000 0.000000 0.000000 -0.212061 0.000000
# 6 0.000000 0.000000 0.000000 0.000000 0.000000 0.036275
#
#
# Mechanical properties :
#
#
# Convention : Reuss Voigt Hill
#
# Bulk Modulus (GPa) = 28.20417 28.27292 28.23855
# Shear Modulus (GPa) = -12.04406 6.80251 -2.62077
#
# Velocity S-wave (km/s) = -2.30760 1.73424 -1.07644
# Velocity P-wave (km/s) = 2.31729 4.06329 3.30758
#
# Compressibility (1/GPa) = 0.03545575
#
# Stress axis : x y z
#
# Youngs Moduli (GPa) = -117.25126 -117.26503 67.95496
#
# Poissons Ratio (x) = 2.44611 0.06668
# Poissons Ratio (y) = 2.44582 0.06661
# Poissons Ratio (z) = -0.11505 -0.11494
#
# Static dielectric constant tensor:
#      x y z
#    x 1.916180 0.000000 0.000000 
#    y 0.000000 1.916160 0.000000 
#    z 0.000000 0.000000 1.823520 
# 
# From -- ./inp_files/845.got.cif
#   From: 2010.05.17/outbox.cif.g08.bks.cpg/sg113_cif.got.tgz:845.got - 2010.05.20 11:03:00.
