data_PCOD9555714
_publ_section_title
;
Structure prediction by ZEFSAII (Michael W. Deem and Ramdas Pophale) SiO2 
 PCOD9555714
Probable space group: P -4 21 M 
;
_chemical_formula_sum "Si O2"
_cell_formula_units_Z 56
_cell_length_a 15.289201
_cell_length_b 15.289201
_cell_length_c 11.691716
_cell_angle_alpha 90.000000
_cell_angle_beta 90.000000
_cell_angle_gamma 90.000000
_cell_volume 2733.051641
_symmetry_space_group_name_H-M "P -4 21 M "
_symmetry_group_IT_number 113
_symmetry_cell_setting 'tetragonal'
loop_
_space_group_symop_operation_xyz
x,y,z
y,-x,-z
-x,-y,z
-y,x,-z
1/2+x,1/2-y,-z
1/2-x,1/2+y,-z
1/2-y,1/2-x,z
1/2+y,1/2+x,z
loop_
_atom_site_type_symbol
_atom_site_label
_atom_site_fract_x
_atom_site_fract_y
_atom_site_fract_z
Si Si1 0.356943 0.994030 0.173318
Si Si2 0.312626 0.678937 0.099285
Si Si3 0.166763 0.525909 0.092691
Si Si4 0.241866 0.112797 0.320953
Si Si5 0.135163 0.045642 0.528179
Si Si6 0.040939 0.906422 0.221691
Si Si7 0.108225 0.202218 0.147389
O O1 0.431521 0.068480 0.184070
O O2 0.276757 0.030892 0.246658
O O3 0.403670 0.903670 0.207730
O O4 0.335801 0.993091 0.038534
O O5 0.264462 0.764462 0.149150
O O6 0.239051 0.602864 0.099488
O O7 0.394552 0.635696 0.164994
O O8 0.338087 0.700084 0.969465
O O9 0.074597 0.574597 0.119767
O O10 0.205988 0.443486 0.162097
O O11 0.321574 0.178427 0.337106
O O12 0.207061 0.081052 0.442450
O O13 0.168458 0.166394 0.249594
O O14 0.151873 0.042091 0.663255
O O15 0.050388 0.106909 0.512460
O O16 0.969423 0.868389 0.135223
O O17 0.000000 0.000000 0.255283
#
# Coordination Sequence:
#
# PCOD9555714 Si02
#       7
#     8   8   8   8   8   8   8
#     4   9  18  35  59  88 124 164 204 250 308 375
#     4  10  22  37  57  90 132 164 199 253 312 373
#     4   9  19  35  54  83 125 171 209 247 307 384
#     4  11  22  38  64  93 122 161 210 261 313 373
#     4  11  21  42  62  81 113 157 205 257 312 360
#     4  11  23  37  62  90 121 164 213 262 306 378
#     4  11  21  35  60  89 126 166 202 256 318 378
#
# _framework density 20.489916999999998
#
# number of rings (size 3 to 8) (size 9 to 14) (size 15 to 20)
#    0.000    1.714    4.286    0.429    4.000    2.857 
#    0.000    0.714    0.000    0.000    0.000    0.000 
#    0.000    0.000    0.000    0.000    0.000    0.000 
#
# Total GULP energy -312382.887741 kJ/mol
# GULP energy per Si atom -5578.265853 kJ/mol
# Density = 2.044328 g / cm^3
# Si number density = 20.489917 Si / 1000 Ang^3
#
#
#
# Elastic Constant Matrix: (Units=GPa)
#
#
# Indices 1 2 3 4 5 6 
#
# 1 74.0191 63.0936 34.8623 0.0000 0.0000 0.0000
# 2 63.0936 74.0189 34.8615 0.0000 0.0000 0.0000
# 3 34.8623 34.8615 65.7999 0.0000 0.0000 0.0000
# 4 0.0000 0.0000 0.0000 20.6097 0.0000 0.0000
# 5 0.0000 0.0000 0.0000 0.0000 20.6086 0.0000
# 6 0.0000 0.0000 0.0000 0.0000 0.0000 40.6019
#
#
#
# Elastic Compliance Matrix: (Units=1/GPa)
#
#
# Indices 1 2 3 4 5 6 
#
# 1 0.050757 -0.040774 -0.005290 0.000000 0.000000 0.000000
# 2 -0.040774 0.050756 -0.005288 0.000000 0.000000 0.000000
# 3 -0.005290 -0.005288 0.020802 0.000000 0.000000 0.000000
# 4 0.000000 0.000000 0.000000 0.048521 0.000000 0.000000
# 5 0.000000 0.000000 0.000000 0.000000 0.048523 0.000000
# 6 0.000000 0.000000 0.000000 0.000000 0.000000 0.024629
#
#
# Mechanical properties :
#
#
# Convention : Reuss Voigt Hill
#
# Bulk Modulus (GPa) = 50.99061 53.27475 52.13268
# Shear Modulus (GPa) = 14.15511 21.76540 17.96026
#
# Velocity S-wave (km/s) = 2.63122 3.26275 2.96386
# Velocity P-wave (km/s) = 5.84558 6.34437 6.10007
#
# Compressibility (1/GPa) = 0.01961145
#
# Stress axis : x y z
#
# Youngs Moduli (GPa) = 19.70182 19.70205 48.07211
#
# Poissons Ratio (x) = 0.80332 0.25429
# Poissons Ratio (y) = 0.80331 0.25422
# Poissons Ratio (z) = 0.10422 0.10419
#
# Static dielectric constant tensor:
#      x y z
#    x 1.791900 0.000000 0.000000 
#    y 0.000000 1.791900 0.000000 
#    z 0.000000 0.000000 1.692620 
# 
# From -- ./inp_files/1926.got.cif
#   From: 2010.05.17/outbox.cif.g08.bks.cpg/sg113_cif.got.tgz:1926.got - 2010.05.20 11:03:00.
