data_PCOD9555977
_publ_section_title
;
Structure prediction by ZEFSAII (Michael W. Deem and Ramdas Pophale) SiO2 
 PCOD9555977
Probable space group: P -4 21 C
;
_chemical_formula_sum "Si O2"
_cell_formula_units_Z 24
_cell_length_a 7.336223
_cell_length_b 7.336223
_cell_length_c 18.998216
_cell_angle_alpha 90.000000
_cell_angle_beta 90.000000
_cell_angle_gamma 90.000000
_cell_volume 1022.487175
_symmetry_space_group_name_H-M "P -4 21 C"
_symmetry_group_IT_number 114
_symmetry_cell_setting 'tetragonal'
loop_
_space_group_symop_operation_xyz
x,y,z
y,-x,-z
-x,-y,z
-y,x,-z
1/2+x,1/2-y,1/2-z
1/2-x,1/2+y,1/2-z
1/2-y,1/2-x,1/2+z
1/2+y,1/2+x,1/2+z
loop_
_atom_site_type_symbol
_atom_site_label
_atom_site_fract_x
_atom_site_fract_y
_atom_site_fract_z
Si Si1 0.500000 0.000000 0.610651
Si Si2 0.626054 0.223533 0.492065
Si Si3 0.220516 0.282641 0.164573
Si Si4 0.000000 0.000000 0.753234
O O1 0.352812 0.906763 0.558540
O O2 0.610621 0.856837 0.655554
O O3 0.411976 0.271811 0.493999
O O4 0.674443 0.154686 0.414715
O O5 0.326602 0.438943 0.206448
O O6 0.050878 0.180617 0.201564
#
# Coordination Sequence:
#
# PCOD9555977 Si02
#       4
#     4   8   8   4
#     4  10  20  38  64  90 120 158 208 266 312 358
#     4   9  19  37  62  87 117 157 204 262 316 361
#     4  11  24  41  62  91 126 165 210 250 310 370
#     4  12  26  42  64  90 130 172 204 250 300 380
#
# _framework density 23.472176999999999
#
# number of rings (size 3 to 8) (size 9 to 14) (size 15 to 20)
#    0.000    1.667    0.000    6.000    0.000    8.000 
#    0.000    0.000    0.000    0.000    0.000    0.000 
#    0.000    0.000    0.000    0.000    0.000    0.000 
#
# Total GULP energy -134161.579910 kJ/mol
# GULP energy per Si atom -5590.065830 kJ/mol
# Density = 2.341875 g / cm^3
# Si number density = 23.472177 Si / 1000 Ang^3
#
#
#
# Elastic Constant Matrix: (Units=GPa)
#
#
# Indices 1 2 3 4 5 6 
#
# 1 42.7171 4.2488 14.3309 0.0000 0.0000 0.0000
# 2 4.2488 42.7171 14.3309 0.0000 0.0000 0.0000
# 3 14.3309 14.3309 96.3705 0.0000 0.0000 0.0000
# 4 0.0000 0.0000 0.0000 35.7789 0.0000 0.0000
# 5 0.0000 0.0000 0.0000 0.0000 35.7789 0.0000
# 6 0.0000 0.0000 0.0000 0.0000 0.0000 37.6946
#
#
#
# Elastic Compliance Matrix: (Units=1/GPa)
#
#
# Indices 1 2 3 4 5 6 
#
# 1 0.024706 -0.001289 -0.003482 0.000000 0.000000 0.000000
# 2 -0.001289 0.024706 -0.003482 0.000000 0.000000 0.000000
# 3 -0.003482 -0.003482 0.011412 0.000000 0.000000 0.000000
# 4 0.000000 0.000000 0.000000 0.027949 0.000000 0.000000
# 5 0.000000 0.000000 0.000000 0.000000 0.027949 0.000000
# 6 0.000000 0.000000 0.000000 0.000000 0.000000 0.026529
#
#
# Mechanical properties :
#
#
# Convention : Reuss Voigt Hill
#
# Bulk Modulus (GPa) = 22.56441 27.51396 25.03918
# Shear Modulus (GPa) = 28.64793 31.77675 30.21234
#
# Velocity S-wave (km/s) = 3.49736 3.68340 3.59159
# Velocity P-wave (km/s) = 5.09341 5.46235 5.28111
#
# Compressibility (1/GPa) = 0.04431758
#
# Stress axis : x y z
#
# Youngs Moduli (GPa) = 40.47549 40.47549 87.62488
#
# Poissons Ratio (x) = 0.05218 0.30513
# Poissons Ratio (y) = 0.05218 0.30513
# Poissons Ratio (z) = 0.14095 0.14095
#
# Static dielectric constant tensor:
#      x y z
#    x 1.936480 0.000000 0.000000 
#    y 0.000000 1.936480 0.000000 
#    z 0.000000 0.000000 1.875690 
# 
# From -- ./inp_files/1904.got.cif
#   From: 2010.05.17/outbox.cif.g08.bks.cpg/sg114_1_cif.got.tgz:1904.got - 2010.05.20 11:04:54.
