data_PCOD9555426
_publ_section_title
;
Structure prediction by ZEFSAII (Michael W. Deem and Ramdas Pophale) SiO2 
 PCOD9555426
Probable space group: P -4 2 C
;
_chemical_formula_sum "Si O2"
_cell_formula_units_Z 14
_cell_length_a 7.899624
_cell_length_b 7.899624
_cell_length_c 7.217582
_cell_angle_alpha 90.000000
_cell_angle_beta 90.000000
_cell_angle_gamma 90.000000
_cell_volume 450.406415
_symmetry_space_group_name_H-M "P -4 2 C"
_symmetry_group_IT_number 112
_symmetry_cell_setting 'tetragonal'
loop_
_space_group_symop_operation_xyz
x,y,z
y,-x,-z
-x,-y,z
-y,x,-z
x,-y,1/2-z
-x,y,1/2-z
-y,-x,1/2+z
y,x,1/2+z
loop_
_atom_site_type_symbol
_atom_site_label
_atom_site_fract_x
_atom_site_fract_y
_atom_site_fract_z
Si Si1 0.654652 0.823629 0.598538
Si Si2 0.500000 0.500000 0.000000
Si Si3 0.500000 0.000000 0.250000
Si Si4 0.000000 0.000000 0.000000
O O1 0.500000 0.850900 0.750000
O O2 0.639774 0.621699 0.590524
O O3 0.609827 0.896146 0.397390
O O4 0.846415 0.897626 0.607951
#
# Coordination Sequence:
#
# PCOD9555426 Si02
#       4
#     8   2   2   2
#     4  12  31  62 101 149 208 271 352 436 527 629
#     4  12  30  60 102 138 208 282 346 432 534 634
#     4  12  30  60  92 146 200 264 350 418 518 622
#     4  12  32  70 106 158 208 278 358 444 530 634
#
# _framework density 31.08304
#
# number of rings (size 3 to 8) (size 9 to 14) (size 15 to 20)
#    0.000    0.000    0.000    5.143   16.000    1.143 
#   10.286    2.857    0.000    0.000    0.000    0.000 
#    0.000    0.000    0.000    0.000    0.000    0.000 
#
# Total GULP energy -77967.486757 kJ/mol
# GULP energy per Si atom -5569.106197 kJ/mol
# Density = 3.101229 g / cm^3
# Si number density = 31.083040 Si / 1000 Ang^3
#
#
#
# Elastic Constant Matrix: (Units=GPa)
#
#
# Indices 1 2 3 4 5 6 
#
# 1 315.0582 139.6218 103.9092 0.0000 0.0000 0.0000
# 2 139.6218 315.0582 103.9092 0.0000 0.0000 0.0000
# 3 103.9092 103.9092 247.4151 0.0000 0.0000 0.0000
# 4 0.0000 0.0000 0.0000 60.8508 0.0000 0.0000
# 5 0.0000 0.0000 0.0000 0.0000 60.8508 0.0000
# 6 0.0000 0.0000 0.0000 0.0000 0.0000 69.1316
#
#
#
# Elastic Compliance Matrix: (Units=1/GPa)
#
#
# Indices 1 2 3 4 5 6 
#
# 1 0.004211 -0.001489 -0.001143 0.000000 0.000000 0.000000
# 2 -0.001489 0.004211 -0.001143 0.000000 0.000000 0.000000
# 3 -0.001143 -0.001143 0.005002 0.000000 0.000000 0.000000
# 4 0.000000 0.000000 0.000000 0.016434 0.000000 0.000000
# 5 0.000000 0.000000 0.000000 0.000000 0.016434 0.000000
# 6 0.000000 0.000000 0.000000 0.000000 0.000000 0.014465
#
#
# Mechanical properties :
#
#
# Convention : Reuss Voigt Hill
#
# Bulk Modulus (GPa) = 170.26595 174.71245 172.48920
# Shear Modulus (GPa) = 71.15947 73.50605 72.33276
#
# Velocity S-wave (km/s) = 4.78989 4.86823 4.82922
# Velocity P-wave (km/s) = 9.24594 9.37709 9.31175
#
# Compressibility (1/GPa) = 0.00587317
#
# Stress axis : x y z
#
# Youngs Moduli (GPa) = 237.47623 237.47623 199.92180
#
# Poissons Ratio (x) = 0.35363 0.22853
# Poissons Ratio (y) = 0.35363 0.22853
# Poissons Ratio (z) = 0.27146 0.27146
#
# Static dielectric constant tensor:
#      x y z
#    x 3.460690 0.000000 0.000000 
#    y 0.000000 3.460690 0.000000 
#    z 0.000000 0.000000 2.737260 
# 
# From -- ./inp_files/560.got.cif
#   From: 2010.05.17/outbox.cif.g08.bks.cpg/sg112_1_cif.got.tgz:560.got - 2010.05.20 10:59:04.
