data_PCOD9555518
_publ_section_title
;
Structure prediction by ZEFSAII (Michael W. Deem and Ramdas Pophale) SiO2 
 PCOD9555518
Probable space group: P -4 21 M 
;
_chemical_formula_sum "Si O2"
_cell_formula_units_Z 64
_cell_length_a 15.012619
_cell_length_b 15.012619
_cell_length_c 16.136193
_cell_angle_alpha 90.000000
_cell_angle_beta 90.000000
_cell_angle_gamma 90.000000
_cell_volume 3636.754673
_symmetry_space_group_name_H-M "P -4 21 M "
_symmetry_group_IT_number 113
_symmetry_cell_setting 'tetragonal'
loop_
_space_group_symop_operation_xyz
x,y,z
y,-x,-z
-x,-y,z
-y,x,-z
1/2+x,1/2-y,-z
1/2-x,1/2+y,-z
1/2-y,1/2-x,z
1/2+y,1/2+x,z
loop_
_atom_site_type_symbol
_atom_site_label
_atom_site_fract_x
_atom_site_fract_y
_atom_site_fract_z
Si Si1 0.677718 0.324784 0.334135
Si Si2 0.182166 0.540028 0.249606
Si Si3 0.389359 0.755202 0.632634
Si Si4 0.925251 0.719417 0.094527
Si Si5 0.043549 0.130675 0.969818
Si Si6 0.162913 0.800243 0.786420
Si Si7 0.525054 0.393651 0.214811
Si Si8 0.119217 0.924882 0.496099
O O1 0.728481 0.228481 0.332234
O O2 0.748107 0.391946 0.291300
O O3 0.589247 0.347547 0.281314
O O4 0.646099 0.350244 0.427153
O O5 0.087416 0.587416 0.249004
O O6 0.189498 0.455402 0.309267
O O7 0.206672 0.508362 0.156803
O O8 0.322438 0.822438 0.588589
O O9 0.333794 0.695076 0.696492
O O10 0.434937 0.692425 0.566889
O O11 0.873209 0.626792 0.080901
O O12 0.858169 0.781931 0.147077
O O13 0.946260 0.772765 0.010558
O O14 0.071153 0.114557 0.875231
O O15 0.099230 0.058759 0.022538
O O16 0.198952 0.698952 0.796071
O O17 0.062042 0.831603 0.792372
O O18 0.500000 0.500000 0.229679
O O19 0.025072 0.896347 0.536925
#
# Coordination Sequence:
#
# PCOD9555518 Si02
#       8
#     8   8   8   8   8   8   8   8
#     4  11  24  38  56  87 124 151 186 247 305 348
#     4  10  20  37  57  82 116 150 189 233 288 352
#     4  10  19  34  55  78 110 146 182 226 284 343
#     4  10  20  35  55  82 115 147 188 235 287 348
#     4  11  19  34  53  83 112 147 189 238 290 339
#     4   9  18  33  54  82 108 140 186 238 285 340
#     4  12  21  34  62  83 116 155 202 241 294 359
#     4  11  22  36  57  84 113 147 191 233 291 344
#
# _framework density 17.598108
#
# number of rings (size 3 to 8) (size 9 to 14) (size 15 to 20)
#    0.000    1.500    3.750    4.500    1.750    1.500 
#    0.000    1.250    0.000    0.375    0.000    0.000 
#    0.000    0.000    0.000    0.000    0.000    0.000 
#
# Total GULP energy -356415.285764 kJ/mol
# GULP energy per Si atom -5568.988840 kJ/mol
# Density = 1.755805 g / cm^3
# Si number density = 17.598108 Si / 1000 Ang^3
#
#
#
# Elastic Constant Matrix: (Units=GPa)
#
#
# Indices 1 2 3 4 5 6 
#
# 1 64.0736 39.1781 22.4453 0.0000 0.0000 0.0000
# 2 39.1781 64.0748 22.4455 0.0000 0.0000 0.0000
# 3 22.4453 22.4455 51.4769 0.0000 0.0000 0.0000
# 4 0.0000 0.0000 0.0000 16.9560 0.0000 0.0000
# 5 0.0000 0.0000 0.0000 0.0000 16.9554 0.0000
# 6 0.0000 0.0000 0.0000 0.0000 0.0000 26.9542
#
#
#
# Elastic Compliance Matrix: (Units=1/GPa)
#
#
# Indices 1 2 3 4 5 6 
#
# 1 0.026059 -0.014108 -0.005211 0.000000 0.000000 0.000000
# 2 -0.014108 0.026058 -0.005211 0.000000 0.000000 0.000000
# 3 -0.005211 -0.005211 0.023970 0.000000 0.000000 0.000000
# 4 0.000000 0.000000 0.000000 0.058976 0.000000 0.000000
# 5 0.000000 0.000000 0.000000 0.000000 0.058978 0.000000
# 6 0.000000 0.000000 0.000000 0.000000 0.000000 0.037100
#
#
# Mechanical properties :
#
#
# Convention : Reuss Voigt Hill
#
# Bulk Modulus (GPa) = 36.99835 38.64033 37.81934
# Shear Modulus (GPa) = 17.28842 18.54355 17.91599
#
# Velocity S-wave (km/s) = 3.13773 3.24963 3.19417
# Velocity P-wave (km/s) = 5.84780 6.00707 5.92797
#
# Compressibility (1/GPa) = 0.02702823
#
# Stress axis : x y z
#
# Youngs Moduli (GPa) = 38.37454 38.37525 41.71833
#
# Poissons Ratio (x) = 0.54141 0.21738
# Poissons Ratio (y) = 0.54140 0.21738
# Poissons Ratio (z) = 0.19996 0.19996
#
# Static dielectric constant tensor:
#      x y z
#    x 1.624560 0.000000 0.000000 
#    y 0.000000 1.624550 0.000000 
#    z 0.000000 0.000000 1.610280 
# 
# From -- ./inp_files/2592.got.cif
#   From: 2010.05.17/outbox.cif.g08.bks.cpg/sg113_cif.got.tgz:2592.got - 2010.05.20 11:03:00.
