data_PCOD9555014
_publ_section_title
;
Structure prediction by ZEFSAII (Michael W. Deem and Ramdas Pophale) SiO2 
 PCOD9555014
Probable space group: P -4 2 C
;
_chemical_formula_sum "Si O2"
_cell_formula_units_Z 34
_cell_length_a 13.718684
_cell_length_b 13.718684
_cell_length_c 7.776644
_cell_angle_alpha 90.000000
_cell_angle_beta 90.000000
_cell_angle_gamma 90.000000
_cell_volume 1463.582215
_symmetry_space_group_name_H-M "P -4 2 C"
_symmetry_group_IT_number 112
_symmetry_cell_setting 'tetragonal'
loop_
_space_group_symop_operation_xyz
x,y,z
y,-x,-z
-x,-y,z
-y,x,-z
x,-y,1/2-z
-x,y,1/2-z
-y,-x,1/2+z
y,x,1/2+z
loop_
_atom_site_type_symbol
_atom_site_label
_atom_site_fract_x
_atom_site_fract_y
_atom_site_fract_z
Si Si1 0.500000 0.000000 0.750000
Si Si2 0.450804 0.357725 0.435611
Si Si3 0.936778 0.347634 0.998148
Si Si4 0.025657 0.150217 0.549284
Si Si5 0.605408 0.148534 0.164890
O O1 0.567160 0.070885 0.635038
O O2 0.379892 0.452073 0.449933
O O3 0.500000 0.358816 0.250000
O O4 0.399925 0.250312 0.439558
O O5 0.938653 0.239572 0.064924
O O6 0.049070 0.365431 0.931572
O O7 0.856565 0.338058 0.846304
O O8 0.106433 0.068213 0.541738
O O9 0.000000 0.173089 0.750000
O O10 0.500000 0.129530 0.250000
#
# Coordination Sequence:
#
# PCOD9555014 Si02
#       5
#     2   8   8   8   8
#     4  12  24  38  72  98 128 176 220 280 344 412
#     4  10  21  41  67  97 134 185 227 283 339 407
#     4  11  22  44  66  97 140 178 227 284 354 413
#     4  11  24  44  69 101 140 184 230 288 346 411
#     4  10  19  43  66  90 135 185 216 276 354 408
#
# _framework density 23.230671000000001
#
# number of rings (size 3 to 8) (size 9 to 14) (size 15 to 20)
#    0.000    1.412    4.706    3.529    3.294    0.000 
#   12.706    0.000    0.000    0.000    0.000    0.000 
#    0.000    0.000    0.000    0.000    0.000    0.000 
#
# Total GULP energy -189272.296216 kJ/mol
# GULP energy per Si atom -5566.832242 kJ/mol
# Density = 2.317780 g / cm^3
# Si number density = 23.230671 Si / 1000 Ang^3
#
#
#
# Elastic Constant Matrix: (Units=GPa)
#
#
# Indices 1 2 3 4 5 6 
#
# 1 110.3106 13.2415 5.6078 0.0000 0.0000 0.0000
# 2 13.2415 110.3106 5.6078 0.0000 0.0000 0.0000
# 3 5.6078 5.6078 56.7552 0.0000 0.0000 0.0000
# 4 0.0000 0.0000 0.0000 15.4586 0.0000 0.0000
# 5 0.0000 0.0000 0.0000 0.0000 15.4586 0.0000
# 6 0.0000 0.0000 0.0000 0.0000 0.0000 25.3478
#
#
#
# Elastic Compliance Matrix: (Units=1/GPa)
#
#
# Indices 1 2 3 4 5 6 
#
# 1 0.009234 -0.001067 -0.000807 0.000000 0.000000 0.000000
# 2 -0.001067 0.009234 -0.000807 0.000000 0.000000 0.000000
# 3 -0.000807 -0.000807 0.017779 0.000000 0.000000 0.000000
# 4 0.000000 0.000000 0.000000 0.064689 0.000000 0.000000
# 5 0.000000 0.000000 0.000000 0.000000 0.064689 0.000000
# 6 0.000000 0.000000 0.000000 0.000000 0.000000 0.039451
#
#
# Mechanical properties :
#
#
# Convention : Reuss Voigt Hill
#
# Bulk Modulus (GPa) = 32.37798 36.25450 34.31624
# Shear Modulus (GPa) = 22.65165 28.11429 25.38297
#
# Velocity S-wave (km/s) = 3.12601 3.48260 3.30911
# Velocity P-wave (km/s) = 5.19587 5.64017 5.42257
#
# Compressibility (1/GPa) = 0.03088519
#
# Stress axis : x y z
#
# Youngs Moduli (GPa) = 108.28987 108.28987 56.24613
#
# Poissons Ratio (x) = 0.11560 0.04539
# Poissons Ratio (y) = 0.11560 0.04539
# Poissons Ratio (z) = 0.08739 0.08739
#
# Static dielectric constant tensor:
#      x y z
#    x 1.971330 0.000000 0.000000 
#    y 0.000000 1.971330 0.000000 
#    z 0.000000 0.000000 2.550140 
# 
# From -- ./inp_files/1061.got.cif
#   From: 2010.05.17/outbox.cif.g08.bks.cpg/sg112_1_cif.got.tgz:1061.got - 2010.05.20 10:59:04.
