data_PCOD9555174
_publ_section_title
;
Structure prediction by ZEFSAII (Michael W. Deem and Ramdas Pophale) SiO2 
 PCOD9555174
Probable space group: P -4 2 C
;
_chemical_formula_sum "Si O2"
_cell_formula_units_Z 48
_cell_length_a 9.109084
_cell_length_b 9.109084
_cell_length_c 26.714772
_cell_angle_alpha 90.000000
_cell_angle_beta 90.000000
_cell_angle_gamma 90.000000
_cell_volume 2216.669195
_symmetry_space_group_name_H-M "P -4 2 C"
_symmetry_group_IT_number 112
_symmetry_cell_setting 'tetragonal'
loop_
_space_group_symop_operation_xyz
x,y,z
y,-x,-z
-x,-y,z
-y,x,-z
x,-y,1/2-z
-x,y,1/2-z
-y,-x,1/2+z
y,x,1/2+z
loop_
_atom_site_type_symbol
_atom_site_label
_atom_site_fract_x
_atom_site_fract_y
_atom_site_fract_z
Si Si1 0.306912 0.650724 0.012041
Si Si2 0.568352 0.149325 0.804453
Si Si3 0.640058 0.572823 0.633881
Si Si4 0.128379 0.761249 0.925122
Si Si5 0.699254 0.195781 0.117261
Si Si6 0.006687 0.838436 0.341572
O O1 0.289741 0.698873 0.069343
O O2 0.473713 0.700874 0.996300
O O3 0.174715 0.737846 0.982710
O O4 0.500000 0.156875 0.750000
O O5 0.566732 0.310451 0.828549
O O6 0.738450 0.105867 0.806862
O O7 0.500000 0.000000 0.829834
O O8 0.500000 0.500000 0.608084
O O9 0.740951 0.665749 0.597969
O O10 0.751626 0.442372 0.648652
O O11 0.148621 0.917151 0.896955
O O12 0.970131 0.701234 0.906037
O O13 0.842125 0.214746 0.150952
O O14 0.000000 0.000000 0.320408
#
# Coordination Sequence:
#
# PCOD9555174 Si02
#       6
#     8   8   8   8   8   8
#     4  11  23  37  53  83 132 179 229 290 330 372
#     4  10  22  42  68 100 129 161 214 272 344 434
#     4  11  21  38  64  91 130 166 213 272 340 408
#     4  10  22  39  58  89 125 180 235 275 326 395
#     4  11  22  38  62  89 126 178 235 277 337 394
#     4   9  21  42  65  93 130 179 223 271 342 407
#
# _framework density 21.654111
#
# number of rings (size 3 to 8) (size 9 to 14) (size 15 to 20)
#    0.000    1.667    1.667    2.500    2.333    1.667 
#    0.000    2.500    0.000    0.000    0.000   14.000 
#    0.000    0.000    0.000    0.000    0.000    0.000 
#
# Total GULP energy -267428.154914 kJ/mol
# GULP energy per Si atom -5571.419894 kJ/mol
# Density = 2.160483 g / cm^3
# Si number density = 21.654111 Si / 1000 Ang^3
#
#
#
# Elastic Constant Matrix: (Units=GPa)
#
#
# Indices 1 2 3 4 5 6 
#
# 1 96.0515 8.9498 23.6502 0.0000 0.0000 0.0000
# 2 8.9498 96.0515 23.6502 0.0000 0.0000 0.0000
# 3 23.6502 23.6502 59.0722 0.0000 0.0000 0.0000
# 4 0.0000 0.0000 0.0000 17.5898 0.0000 0.0000
# 5 0.0000 0.0000 0.0000 0.0000 17.5898 0.0000
# 6 0.0000 0.0000 0.0000 0.0000 0.0000 36.4664
#
#
#
# Elastic Compliance Matrix: (Units=1/GPa)
#
#
# Indices 1 2 3 4 5 6 
#
# 1 0.011550 0.000069 -0.004652 0.000000 0.000000 0.000000
# 2 0.000069 0.011550 -0.004652 0.000000 0.000000 0.000000
# 3 -0.004652 -0.004652 0.020653 0.000000 0.000000 0.000000
# 4 0.000000 0.000000 0.000000 0.056851 0.000000 0.000000
# 5 0.000000 0.000000 0.000000 0.000000 0.056851 0.000000
# 6 0.000000 0.000000 0.000000 0.000000 0.000000 0.027422
#
#
# Mechanical properties :
#
#
# Convention : Reuss Voigt Hill
#
# Bulk Modulus (GPa) = 39.55030 40.40837 39.97933
# Shear Modulus (GPa) = 23.60995 27.32422 25.46708
#
# Velocity S-wave (km/s) = 3.30558 3.55611 3.43313
# Velocity P-wave (km/s) = 5.73353 5.96343 5.84961
#
# Compressibility (1/GPa) = 0.02528426
#
# Stress axis : x y z
#
# Youngs Moduli (GPa) = 86.57975 86.57975 48.41837
#
# Poissons Ratio (x) = -0.00599 0.22524
# Poissons Ratio (y) = -0.00599 0.22524
# Poissons Ratio (z) = 0.40276 0.40276
#
# Static dielectric constant tensor:
#      x y z
#    x 1.889370 0.000000 0.000000 
#    y 0.000000 1.889370 0.000000 
#    z 0.000000 0.000000 1.847580 
# 
# From -- ./inp_files/6293.got.cif
#   From: 2010.05.17/outbox.cif.g08.bks.cpg/sg112_4_cif.got.tgz:6293.got - 2010.05.20 10:59:04.
