data_PCOD9555159
_publ_section_title
;
Structure prediction by ZEFSAII (Michael W. Deem and Ramdas Pophale) SiO2 
 PCOD9555159
Probable space group: P -4 2 C
;
_chemical_formula_sum "Si O2"
_cell_formula_units_Z 48
_cell_length_a 8.794697
_cell_length_b 8.794697
_cell_length_c 29.255054
_cell_angle_alpha 90.000000
_cell_angle_beta 90.000000
_cell_angle_gamma 90.000000
_cell_volume 2262.781748
_symmetry_space_group_name_H-M "P -4 2 C"
_symmetry_group_IT_number 112
_symmetry_cell_setting 'tetragonal'
loop_
_space_group_symop_operation_xyz
x,y,z
y,-x,-z
-x,-y,z
-y,x,-z
x,-y,1/2-z
-x,y,1/2-z
-y,-x,1/2+z
y,x,1/2+z
loop_
_atom_site_type_symbol
_atom_site_label
_atom_site_fract_x
_atom_site_fract_y
_atom_site_fract_z
Si Si1 0.173974 0.954145 0.435265
Si Si2 0.281645 0.662975 0.572301
Si Si3 0.582421 0.162254 0.494486
Si Si4 0.647378 0.797542 0.329500
Si Si5 0.859020 0.711334 0.658553
Si Si6 0.319556 0.827219 0.756137
O O1 0.244788 0.868718 0.478527
O O2 0.215736 0.850016 0.391599
O O3 0.265797 0.111857 0.430347
O O4 0.000000 0.000000 0.437814
O O5 0.255403 0.503089 0.545744
O O6 0.404566 0.750667 0.542024
O O7 0.310311 0.676145 0.626474
O O8 0.500000 0.000000 0.499573
O O9 0.469087 0.830980 0.337036
O O10 0.704094 0.732477 0.281653
O O11 0.730846 0.961544 0.330698
O O12 0.744479 0.781555 0.694703
O O13 0.500000 0.831164 0.750000
O O14 0.261982 0.000000 0.750000
#
# Coordination Sequence:
#
# PCOD9555159 Si02
#       6
#     8   8   8   8   8   8
#     4  10  22  37  66 101 127 168 221 272 331 400
#     4  10  22  41  64  92 136 171 218 278 329 400
#     4  10  22  42  62  96 137 174 219 277 336 397
#     4  10  21  43  67  96 128 169 217 272 327 394
#     4  10  21  41  69  96 124 165 215 266 326 398
#     4  11  26  44  61  93 135 169 215 274 334 396
#
# _framework density 21.212827999999998
#
# number of rings (size 3 to 8) (size 9 to 14) (size 15 to 20)
#    0.000    1.833    1.667    1.000    9.333    3.667 
#    6.000    1.667    0.000    0.000    0.000    0.000 
#    0.000    0.000    0.000    0.000    0.000    0.000 
#
# Total GULP energy -267718.192444 kJ/mol
# GULP energy per Si atom -5577.462343 kJ/mol
# Density = 2.116455 g / cm^3
# Si number density = 21.212828 Si / 1000 Ang^3
#
#
#
# Elastic Constant Matrix: (Units=GPa)
#
#
# Indices 1 2 3 4 5 6 
#
# 1 66.0893 14.2867 35.9568 0.0000 0.0000 0.0000
# 2 14.2867 66.0893 35.9568 0.0000 0.0000 0.0000
# 3 35.9568 35.9568 115.9881 0.0000 0.0000 0.0000
# 4 0.0000 0.0000 0.0000 22.5761 0.0000 0.0000
# 5 0.0000 0.0000 0.0000 0.0000 22.5761 0.0000
# 6 0.0000 0.0000 0.0000 0.0000 0.0000 22.2614
#
#
#
# Elastic Compliance Matrix: (Units=1/GPa)
#
#
# Indices 1 2 3 4 5 6 
#
# 1 0.018260 -0.001044 -0.005337 0.000000 0.000000 0.000000
# 2 -0.001044 0.018260 -0.005337 0.000000 0.000000 0.000000
# 3 -0.005337 -0.005337 0.011931 0.000000 0.000000 0.000000
# 4 0.000000 0.000000 0.000000 0.044295 0.000000 0.000000
# 5 0.000000 0.000000 0.000000 0.000000 0.044295 0.000000
# 6 0.000000 0.000000 0.000000 0.000000 0.000000 0.044921
#
#
# Mechanical properties :
#
#
# Convention : Reuss Voigt Hill
#
# Bulk Modulus (GPa) = 39.97552 46.72968 43.35260
# Shear Modulus (GPa) = 23.39327 24.28048 23.83687
#
# Velocity S-wave (km/s) = 3.32443 3.38688 3.35580
# Velocity P-wave (km/s) = 5.79842 6.11322 5.95790
#
# Compressibility (1/GPa) = 0.02501531
#
# Stress axis : x y z
#
# Youngs Moduli (GPa) = 54.76314 54.76314 83.81712
#
# Poissons Ratio (x) = 0.05715 0.44736
# Poissons Ratio (y) = 0.05715 0.44736
# Poissons Ratio (z) = 0.29229 0.29229
#
# Static dielectric constant tensor:
#      x y z
#    x 1.784610 0.000000 0.000000 
#    y 0.000000 1.784610 0.000000 
#    z 0.000000 0.000000 1.776320 
# 
# From -- ./inp_files/6270.got.cif
#   From: 2010.05.17/outbox.cif.g08.bks.cpg/sg112_4_cif.got.tgz:6270.got - 2010.05.20 10:59:04.
