data_PCOD9555474
_publ_section_title
;
Structure prediction by ZEFSAII (Michael W. Deem and Ramdas Pophale) SiO2 
 PCOD9555474
Probable space group: P -4 21 M 
;
_chemical_formula_sum "Si O2"
_cell_formula_units_Z 64
_cell_length_a 11.185654
_cell_length_b 11.185654
_cell_length_c 28.443486
_cell_angle_alpha 90.000000
_cell_angle_beta 90.000000
_cell_angle_gamma 90.000000
_cell_volume 3558.816412
_symmetry_space_group_name_H-M "P -4 21 M "
_symmetry_group_IT_number 113
_symmetry_cell_setting 'tetragonal'
loop_
_space_group_symop_operation_xyz
x,y,z
y,-x,-z
-x,-y,z
-y,x,-z
1/2+x,1/2-y,-z
1/2-x,1/2+y,-z
1/2-y,1/2-x,z
1/2+y,1/2+x,z
loop_
_atom_site_type_symbol
_atom_site_label
_atom_site_fract_x
_atom_site_fract_y
_atom_site_fract_z
Si Si1 0.992644 0.694995 0.295369
Si Si2 0.698686 0.005058 0.812134
Si Si3 0.742162 0.056373 0.442492
Si Si4 0.942263 0.124662 0.376559
Si Si5 0.236432 0.540566 0.938992
Si Si6 0.586579 0.614710 0.888483
Si Si7 0.313280 0.368224 0.454224
Si Si8 0.933811 0.751207 0.041627
O O1 0.090101 0.590101 0.292961
O O2 0.981273 0.741076 0.241921
O O3 0.867291 0.632710 0.308759
O O4 0.038031 0.785016 0.334489
O O5 0.594530 0.905471 0.813509
O O6 0.804965 0.952204 0.843979
O O7 0.630450 0.130450 0.825500
O O8 0.608745 0.108745 0.443196
O O9 0.804104 0.104430 0.490538
O O10 0.809930 0.106309 0.396626
O O11 0.772127 0.917107 0.444628
O O12 0.017743 0.161181 0.422712
O O13 0.000000 0.000000 0.361155
O O14 0.114697 0.614697 0.929130
O O15 0.285666 0.448049 0.899408
O O16 0.337554 0.642720 0.949352
O O17 0.231304 0.467333 0.987563
O O18 0.500000 0.500000 0.888437
O O19 0.550936 0.703204 0.931288
O O20 0.187961 0.312040 0.439634
O O21 0.869954 0.630047 0.059388
#
# Coordination Sequence:
#
# PCOD9555474 Si02
#       8
#     8   8   8   8   8   8   8   8
#     4   9  18  34  54  77 105 131 166 218 266 313
#     4   9  19  36  57  80 107 139 174 219 275 325
#     4  10  19  31  46  65  95 132 167 205 244 294
#     4  10  19  30  51  73  99 132 167 205 256 305
#     4  10  20  33  51  75 105 143 181 219 269 317
#     4  10  20  33  54  77 109 143 175 220 267 319
#     4  10  19  31  46  65  95 131 167 205 246 292
#     4  10  19  32  51  73 101 140 182 219 263 315
#
# _framework density 17.983508
#
# number of rings (size 3 to 8) (size 9 to 14) (size 15 to 20)
#    0.000    2.250    2.500    1.875    0.000    2.500 
#    0.000    0.000    0.000    0.000    0.000    0.875 
#    0.000    5.000    0.000    0.000    0.000    0.000 
#
# Total GULP energy -356288.982979 kJ/mol
# GULP energy per Si atom -5567.015359 kJ/mol
# Density = 1.794258 g / cm^3
# Si number density = 17.983508 Si / 1000 Ang^3
#
#
#
# Elastic Constant Matrix: (Units=GPa)
#
#
# Indices 1 2 3 4 5 6 
#
# 1 55.0185 30.5996 28.1698 0.0000 0.0000 0.0000
# 2 30.5996 55.0167 28.1698 0.0000 0.0000 0.0000
# 3 28.1698 28.1698 92.4269 0.0000 0.0000 0.0000
# 4 0.0000 0.0000 0.0000 16.8231 0.0000 0.0000
# 5 0.0000 0.0000 0.0000 0.0000 16.8234 0.0000
# 6 0.0000 0.0000 0.0000 0.0000 0.0000 22.1665
#
#
#
# Elastic Compliance Matrix: (Units=1/GPa)
#
#
# Indices 1 2 3 4 5 6 
#
# 1 0.027781 -0.013172 -0.004453 0.000000 0.000000 0.000000
# 2 -0.013172 0.027782 -0.004453 0.000000 0.000000 0.000000
# 3 -0.004453 -0.004453 0.013534 0.000000 0.000000 0.000000
# 4 0.000000 0.000000 0.000000 0.059442 0.000000 0.000000
# 5 0.000000 0.000000 0.000000 0.000000 0.059441 0.000000
# 6 0.000000 0.000000 0.000000 0.000000 0.000000 0.045113
#
#
# Mechanical properties :
#
#
# Convention : Reuss Voigt Hill
#
# Bulk Modulus (GPa) = 40.09242 41.81560 40.95401
# Shear Modulus (GPa) = 17.50932 18.86412 18.18672
#
# Velocity S-wave (km/s) = 3.12369 3.24229 3.18354
# Velocity P-wave (km/s) = 5.94578 6.10895 6.02792
#
# Compressibility (1/GPa) = 0.02494237
#
# Stress axis : x y z
#
# Youngs Moduli (GPa) = 35.99563 35.99422 73.89007
#
# Poissons Ratio (x) = 0.47410 0.32901
# Poissons Ratio (y) = 0.47412 0.32903
# Poissons Ratio (z) = 0.16028 0.16028
#
# Static dielectric constant tensor:
#      x y z
#    x 1.637600 0.000000 0.000000 
#    y 0.000000 1.637600 0.000000 
#    z 0.000000 0.000000 1.609990 
# 
# From -- ./inp_files/2952.got.cif
#   From: 2010.05.17/outbox.cif.g08.bks.cpg/sg113_cif.got.tgz:2952.got - 2010.05.20 11:03:00.
