data_PCOD9555630
_publ_section_title
;
Structure prediction by ZEFSAII (Michael W. Deem and Ramdas Pophale) SiO2 
 PCOD9555630
Probable space group: P -4 21 M 
;
_chemical_formula_sum "Si O2"
_cell_formula_units_Z 48
_cell_length_a 11.211456
_cell_length_b 11.211456
_cell_length_c 18.604618
_cell_angle_alpha 90.000000
_cell_angle_beta 90.000000
_cell_angle_gamma 90.000000
_cell_volume 2338.539936
_symmetry_space_group_name_H-M "P -4 21 M "
_symmetry_group_IT_number 113
_symmetry_cell_setting 'tetragonal'
loop_
_space_group_symop_operation_xyz
x,y,z
y,-x,-z
-x,-y,z
-y,x,-z
1/2+x,1/2-y,-z
1/2-x,1/2+y,-z
1/2-y,1/2-x,z
1/2+y,1/2+x,z
loop_
_atom_site_type_symbol
_atom_site_label
_atom_site_fract_x
_atom_site_fract_y
_atom_site_fract_z
Si Si1 0.735494 0.042922 0.086229
Si Si2 0.992867 0.686935 0.615364
Si Si3 0.828946 0.129411 0.663892
Si Si4 0.999096 0.809089 0.476373
Si Si5 0.405043 0.608558 0.825303
Si Si6 0.064410 0.749883 0.071008
O O1 0.615333 0.115333 0.103613
O O2 0.839243 0.142489 0.074414
O O3 0.783037 0.951535 0.146393
O O4 0.726792 0.975609 0.010411
O O5 0.863312 0.636689 0.635670
O O6 0.001307 0.697153 0.528842
O O7 0.088639 0.588639 0.639889
O O8 0.041738 0.811950 0.645321
O O9 0.729675 0.229675 0.648937
O O10 0.800354 0.024017 0.608123
O O11 0.832983 0.100810 0.747374
O O12 0.115294 0.886529 0.493513
O O13 0.500000 0.500000 0.821988
O O14 0.453487 0.704112 0.882621
O O15 0.132831 0.632831 0.098932
#
# Coordination Sequence:
#
# PCOD9555630 Si02
#       6
#     8   8   8   8   8   8
#     4  10  20  36  61  88 113 149 195 235 279 336
#     4   9  18  33  53  78 109 142 178 226 278 325
#     4  10  21  35  54  80 109 147 184 225 277 334
#     4   9  18  32  56  78 103 135 185 227 269 318
#     4  10  22  36  58  80 122 155 182 230 290 332
#     4  10  20  37  61  87 113 149 195 234 279 337
#
# _framework density 20.525628000000001
#
# number of rings (size 3 to 8) (size 9 to 14) (size 15 to 20)
#    0.000    2.333    1.667    0.500    4.667    3.000 
#    0.000    0.833    0.000    1.000    0.000    0.000 
#    0.000    0.000    0.000    0.000    0.000    0.000 
#
# Total GULP energy -267711.019181 kJ/mol
# GULP energy per Si atom -5577.312900 kJ/mol
# Density = 2.047891 g / cm^3
# Si number density = 20.525628 Si / 1000 Ang^3
#
#
#
# Elastic Constant Matrix: (Units=GPa)
#
#
# Indices 1 2 3 4 5 6 
#
# 1 32.8154 11.6408 1.7332 0.0000 0.0000 0.0000
# 2 11.6408 32.8147 1.7332 0.0000 0.0000 0.0000
# 3 1.7332 1.7332 92.0334 0.0000 0.0000 0.0000
# 4 0.0000 0.0000 0.0000 11.6134 0.0000 0.0000
# 5 0.0000 0.0000 0.0000 0.0000 11.6125 0.0000
# 6 0.0000 0.0000 0.0000 0.0000 0.0000 9.1128
#
#
#
# Elastic Compliance Matrix: (Units=1/GPa)
#
#
# Indices 1 2 3 4 5 6 
#
# 1 0.034877 -0.012350 -0.000424 0.000000 0.000000 0.000000
# 2 -0.012350 0.034878 -0.000424 0.000000 0.000000 0.000000
# 3 -0.000424 -0.000424 0.010882 0.000000 0.000000 0.000000
# 4 0.000000 0.000000 0.000000 0.086108 0.000000 0.000000
# 5 0.000000 0.000000 0.000000 0.000000 0.086114 0.000000
# 6 0.000000 0.000000 0.000000 0.000000 0.000000 0.109736
#
#
# Mechanical properties :
#
#
# Convention : Reuss Voigt Hill
#
# Bulk Modulus (GPa) = 18.43683 20.87533 19.65608
# Shear Modulus (GPa) = 12.28289 15.97148 14.12718
#
# Velocity S-wave (km/s) = 2.44891 2.79251 2.62634
# Velocity P-wave (km/s) = 4.12287 4.53762 4.33521
#
# Compressibility (1/GPa) = 0.05423925
#
# Stress axis : x y z
#
# Youngs Moduli (GPa) = 28.67225 28.67167 91.89820
#
# Poissons Ratio (x) = 0.35409 0.03899
# Poissons Ratio (y) = 0.35410 0.03899
# Poissons Ratio (z) = 0.01216 0.01216
#
# Static dielectric constant tensor:
#      x y z
#    x 1.760930 0.000000 0.000000 
#    y 0.000000 1.760930 0.000000 
#    z 0.000000 0.000000 1.710740 
# 
# From -- ./inp_files/2499.got.cif
#   From: 2010.05.17/outbox.cif.g08.bks.cpg/sg113_cif.got.tgz:2499.got - 2010.05.20 11:03:00.
