data_PCOD9555913
_publ_section_title
;
Structure prediction by ZEFSAII (Michael W. Deem and Ramdas Pophale) SiO2 
 PCOD9555913
Probable space group: P -4 21 C
;
_chemical_formula_sum "Si O2"
_cell_formula_units_Z 44
_cell_length_a 8.172454
_cell_length_b 8.172454
_cell_length_c 28.267495
_cell_angle_alpha 90.000000
_cell_angle_beta 90.000000
_cell_angle_gamma 90.000000
_cell_volume 1887.957847
_symmetry_space_group_name_H-M "P -4 21 C"
_symmetry_group_IT_number 114
_symmetry_cell_setting 'tetragonal'
loop_
_space_group_symop_operation_xyz
x,y,z
y,-x,-z
-x,-y,z
-y,x,-z
1/2+x,1/2-y,1/2-z
1/2-x,1/2+y,1/2-z
1/2-y,1/2-x,1/2+z
1/2+y,1/2+x,1/2+z
loop_
_atom_site_type_symbol
_atom_site_label
_atom_site_fract_x
_atom_site_fract_y
_atom_site_fract_z
Si Si1 0.736806 0.097597 0.605221
Si Si2 0.500000 0.000000 0.425662
Si Si3 0.248867 0.618766 0.774971
Si Si4 0.222538 0.899402 0.365416
Si Si5 0.105299 0.275197 0.805493
Si Si6 0.742023 0.991087 0.504381
O O1 0.619409 0.203807 0.638326
O O2 0.920124 0.166417 0.616390
O O3 0.761122 0.908325 0.620165
O O4 0.680270 0.082283 0.551172
O O5 0.397477 0.882929 0.390818
O O6 0.621755 0.921782 0.464812
O O7 0.384789 0.705421 0.808671
O O8 0.211502 0.432049 0.788149
O O9 0.306786 0.627770 0.720978
O O10 0.077875 0.706638 0.786944
O O11 0.869605 0.852818 0.520533
#
# Coordination Sequence:
#
# PCOD9555913 Si02
#       6
#     8   4   8   8   8   8
#     4  10  19  39  61  86 123 159 207 253 307 370
#     4  12  22  34  64  92 116 156 206 252 314 358
#     4  10  22  39  60  91 126 161 212 250 309 366
#     4  10  20  36  61  90 119 156 203 257 302 371
#     4  10  22  39  62  90 124 169 205 257 306 368
#     4  11  20  39  62  90 119 159 205 256 307 377
#
# _framework density 23.305606000000001
#
# number of rings (size 3 to 8) (size 9 to 14) (size 15 to 20)
#    0.000    1.636    3.636    2.182    0.000    8.000 
#    0.000    0.000    0.000    2.727    0.000    0.000 
#    0.000    0.000    0.000    0.000    0.000    0.000 
#
# Total GULP energy -245317.154091 kJ/mol
# GULP energy per Si atom -5575.389866 kJ/mol
# Density = 2.325256 g / cm^3
# Si number density = 23.305606 Si / 1000 Ang^3
#
#
#
# Elastic Constant Matrix: (Units=GPa)
#
#
# Indices 1 2 3 4 5 6 
#
# 1 58.4649 7.0425 19.1707 0.0000 0.0000 0.0000
# 2 7.0425 58.4649 19.1707 0.0000 0.0000 0.0000
# 3 19.1707 19.1707 135.4997 0.0000 0.0000 0.0000
# 4 0.0000 0.0000 0.0000 29.5496 0.0000 0.0000
# 5 0.0000 0.0000 0.0000 0.0000 29.5496 0.0000
# 6 0.0000 0.0000 0.0000 0.0000 0.0000 16.2243
#
#
#
# Elastic Compliance Matrix: (Units=1/GPa)
#
#
# Indices 1 2 3 4 5 6 
#
# 1 0.018045 -0.001402 -0.002355 0.000000 0.000000 0.000000
# 2 -0.001402 0.018045 -0.002355 0.000000 0.000000 0.000000
# 3 -0.002355 -0.002355 0.008046 0.000000 0.000000 0.000000
# 4 0.000000 0.000000 0.000000 0.033841 0.000000 0.000000
# 5 0.000000 0.000000 0.000000 0.000000 0.033841 0.000000
# 6 0.000000 0.000000 0.000000 0.000000 0.000000 0.061636
#
#
# Mechanical properties :
#
#
# Convention : Reuss Voigt Hill
#
# Bulk Modulus (GPa) = 31.33352 38.13305 34.73329
# Shear Modulus (GPa) = 25.46916 28.86775 27.16845
#
# Velocity S-wave (km/s) = 3.30939 3.52328 3.41801
# Velocity P-wave (km/s) = 5.29873 5.74013 5.52384
#
# Compressibility (1/GPa) = 0.03191470
#
# Stress axis : x y z
#
# Youngs Moduli (GPa) = 55.41624 55.41624 124.27909
#
# Poissons Ratio (x) = 0.07767 0.29265
# Poissons Ratio (y) = 0.07767 0.29265
# Poissons Ratio (z) = 0.13049 0.13049
#
# Static dielectric constant tensor:
#      x y z
#    x 1.939670 0.000000 0.000000 
#    y 0.000000 1.939670 0.000000 
#    z 0.000000 0.000000 1.999730 
# 
# From -- ./inp_files/3843.got.cif
#   From: 2010.05.17/outbox.cif.g08.bks.cpg/sg114_2_cif.got.tgz:3843.got - 2010.05.20 11:04:54.
