data_PCOD9555966
_publ_section_title
;
Structure prediction by ZEFSAII (Michael W. Deem and Ramdas Pophale) SiO2 
 PCOD9555966
Probable space group: P -4 21 C
;
_chemical_formula_sum "Si O2"
_cell_formula_units_Z 42
_cell_length_a 13.679061
_cell_length_b 13.679061
_cell_length_c 9.927752
_cell_angle_alpha 90.000000
_cell_angle_beta 90.000000
_cell_angle_gamma 90.000000
_cell_volume 1857.648290
_symmetry_space_group_name_H-M "P -4 21 C"
_symmetry_group_IT_number 114
_symmetry_cell_setting 'tetragonal'
loop_
_space_group_symop_operation_xyz
x,y,z
y,-x,-z
-x,-y,z
-y,x,-z
1/2+x,1/2-y,1/2-z
1/2-x,1/2+y,1/2-z
1/2-y,1/2-x,1/2+z
1/2+y,1/2+x,1/2+z
loop_
_atom_site_type_symbol
_atom_site_label
_atom_site_fract_x
_atom_site_fract_y
_atom_site_fract_z
Si Si1 0.386166 0.975651 0.800298
Si Si2 0.500000 0.500000 0.000000
Si Si3 0.309917 0.472348 0.336937
Si Si4 0.360538 0.364913 0.832734
Si Si5 0.657622 0.137730 0.550913
Si Si6 0.033240 0.812894 0.133643
O O1 0.359934 0.957272 0.643592
O O2 0.500000 0.000000 0.811159
O O3 0.303437 0.053033 0.850525
O O4 0.373083 0.881153 0.899706
O O5 0.418195 0.444977 0.916811
O O6 0.294649 0.555070 0.224498
O O7 0.215423 0.412365 0.377306
O O8 0.392605 0.391558 0.302541
O O9 0.338412 0.525505 0.476657
O O10 0.269177 0.329829 0.921311
O O11 0.322612 0.427412 0.704605
#
# Coordination Sequence:
#
# PCOD9555966 Si02
#       6
#     8   2   8   8   8   8
#     4  10  22  43  65  90 131 179 219 269 330 408
#     4  12  24  36  62  88 132 176 192 270 348 368
#     4  11  20  39  65  92 123 163 214 281 318 390
#     4  11  23  39  60  94 129 166 216 267 331 394
#     4  10  25  40  63  96 132 169 221 273 329 399
#     4  10  20  37  65  92 115 161 224 263 322 384
#
# _framework density 22.609231000000001
#
# number of rings (size 3 to 8) (size 9 to 14) (size 15 to 20)
#    0.000    1.524    3.810    0.571    2.667    1.524 
#    0.000    1.905    0.000    0.000    0.000    0.000 
#    0.000    0.000    0.000    0.000    0.000    0.000 
#
# Total GULP energy -234257.788563 kJ/mol
# GULP energy per Si atom -5577.566394 kJ/mol
# Density = 2.255777 g / cm^3
# Si number density = 22.609231 Si / 1000 Ang^3
#
#
#
# Elastic Constant Matrix: (Units=GPa)
#
#
# Indices 1 2 3 4 5 6 
#
# 1 54.6569 2.9437 -1.8733 0.0000 0.0000 0.0000
# 2 2.9437 54.6569 -1.8733 0.0000 0.0000 0.0000
# 3 -1.8733 -1.8733 75.6520 0.0000 0.0000 0.0000
# 4 0.0000 0.0000 0.0000 18.9208 0.0000 0.0000
# 5 0.0000 0.0000 0.0000 0.0000 18.9208 0.0000
# 6 0.0000 0.0000 0.0000 0.0000 0.0000 24.3839
#
#
#
# Elastic Compliance Matrix: (Units=1/GPa)
#
#
# Indices 1 2 3 4 5 6 
#
# 1 0.018363 -0.000974 0.000431 0.000000 0.000000 0.000000
# 2 -0.000974 0.018363 0.000431 0.000000 0.000000 0.000000
# 3 0.000431 0.000431 0.013240 0.000000 0.000000 0.000000
# 4 0.000000 0.000000 0.000000 0.052852 0.000000 0.000000
# 5 0.000000 0.000000 0.000000 0.000000 0.052852 0.000000
# 6 0.000000 0.000000 0.000000 0.000000 0.000000 0.041011
#
#
# Mechanical properties :
#
#
# Convention : Reuss Voigt Hill
#
# Bulk Modulus (GPa) = 20.10458 20.37336 20.23897
# Shear Modulus (GPa) = 23.42066 24.82968 24.12517
#
# Velocity S-wave (km/s) = 3.22202 3.31752 3.27012
# Velocity P-wave (km/s) = 4.77005 4.86880 4.81968
#
# Compressibility (1/GPa) = 0.04973990
#
# Stress axis : x y z
#
# Youngs Moduli (GPa) = 54.45682 54.45682 75.53019
#
# Poissons Ratio (x) = 0.05305 -0.03252
# Poissons Ratio (y) = 0.05305 -0.03252
# Poissons Ratio (z) = -0.02345 -0.02345
#
# Static dielectric constant tensor:
#      x y z
#    x 1.896440 0.000000 0.000000 
#    y 0.000000 1.896440 0.000000 
#    z 0.000000 0.000000 1.852630 
# 
# From -- ./inp_files/803.got.cif
#   From: 2010.05.17/outbox.cif.g08.bks.cpg/sg114_1_cif.got.tgz:803.got - 2010.05.20 11:04:54.
