data_PCOD9555803
_publ_section_title
;
Structure prediction by ZEFSAII (Michael W. Deem and Ramdas Pophale) SiO2 
 PCOD9555803
Probable space group: P -4 21 M 
;
_chemical_formula_sum "Si O2"
_cell_formula_units_Z 48
_cell_length_a 18.669409
_cell_length_b 18.669409
_cell_length_c 9.435365
_cell_angle_alpha 90.000000
_cell_angle_beta 90.000000
_cell_angle_gamma 90.000000
_cell_volume 3288.666583
_symmetry_space_group_name_H-M "P -4 21 M "
_symmetry_group_IT_number 113
_symmetry_cell_setting 'tetragonal'
loop_
_space_group_symop_operation_xyz
x,y,z
y,-x,-z
-x,-y,z
-y,x,-z
1/2+x,1/2-y,-z
1/2-x,1/2+y,-z
1/2-y,1/2-x,z
1/2+y,1/2+x,z
loop_
_atom_site_type_symbol
_atom_site_label
_atom_site_fract_x
_atom_site_fract_y
_atom_site_fract_z
Si Si1 0.183317 0.196291 0.836353
Si Si2 0.915995 0.183756 0.411142
Si Si3 0.797061 0.415805 0.658701
Si Si4 0.915993 0.816246 0.411140
Si Si5 0.797060 0.584198 0.658700
Si Si6 0.816686 0.196293 0.836355
O O1 0.253694 0.246306 0.822876
O O2 0.190339 0.128907 0.732509
O O3 0.118195 0.245235 0.778442
O O4 0.175485 0.175483 0.999999
O O5 0.905881 0.253331 0.511614
O O6 0.881564 0.118438 0.500001
O O7 0.000001 0.173715 0.386949
O O8 0.868995 0.368995 0.656266
O O9 0.809033 0.500002 0.680445
O O10 0.745237 0.381807 0.778444
O O11 0.905879 0.746671 0.511613
O O12 0.871091 0.809664 0.267489
O O13 0.868993 0.631008 0.656264
O O14 0.746309 0.246309 0.822877
#
# Coordination Sequence:
#
# PCOD9555803 Si02
#       6
#     8   8   8   8   8   8
#     4   9  17  29  45  65  88 113 143 179 215 252
#     4   9  17  29  45  63  84 112 144 177 214 256
#     4   9  17  29  45  65  88 114 144 177 214 256
#     4   9  17  29  45  63  84 112 144 177 214 256
#     4   9  17  29  45  65  88 114 144 177 214 256
#     4   9  17  29  45  65  88 113 143 179 215 252
#
# _framework density 14.595582
#
# number of rings (size 3 to 8) (size 9 to 14) (size 15 to 20)
#    0.000    3.000    0.000    1.000    0.000    6.000 
#    0.000    0.000    0.000    0.000    0.000    4.667 
#    0.000    8.000    0.000    0.000    0.000    0.000 
#
# Total GULP energy -267359.240444 kJ/mol
# GULP energy per Si atom -5569.984176 kJ/mol
# Density = 1.456236 g / cm^3
# Si number density = 14.595582 Si / 1000 Ang^3
#
#
#
# Elastic Constant Matrix: (Units=GPa)
#
#
# Indices 1 2 3 4 5 6 
#
# 1 114.2727 69.6663 71.4004 0.0000 0.0000 0.0000
# 2 69.6663 114.2750 71.3994 0.0000 0.0000 0.0000
# 3 71.4004 71.3994 140.4594 0.0000 0.0000 0.0000
# 4 0.0000 0.0000 0.0000 12.7856 0.0000 0.0000
# 5 0.0000 0.0000 0.0000 0.0000 12.7858 0.0000
# 6 0.0000 0.0000 0.0000 0.0000 0.0000 13.3071
#
#
#
# Elastic Compliance Matrix: (Units=1/GPa)
#
#
# Indices 1 2 3 4 5 6 
#
# 1 0.015700 -0.006719 -0.004565 0.000000 0.000000 0.000000
# 2 -0.006719 0.015699 -0.004565 0.000000 0.000000 0.000000
# 3 -0.004565 -0.004565 0.011761 0.000000 0.000000 0.000000
# 4 0.000000 0.000000 0.000000 0.078213 0.000000 0.000000
# 5 0.000000 0.000000 0.000000 0.000000 0.078212 0.000000
# 6 0.000000 0.000000 0.000000 0.000000 0.000000 0.075148
#
#
# Mechanical properties :
#
#
# Convention : Reuss Voigt Hill
#
# Bulk Modulus (GPa) = 87.24920 88.21550 87.73235
# Shear Modulus (GPa) = 16.11605 18.21177 17.16391
#
# Velocity S-wave (km/s) = 3.32651 3.53620 3.43296
# Velocity P-wave (km/s) = 8.64071 8.78886 8.71510
#
# Compressibility (1/GPa) = 0.01146142
#
# Stress axis : x y z
#
# Youngs Moduli (GPa) = 63.69617 63.69892 85.02893
#
# Poissons Ratio (x) = 0.42796 0.38819
# Poissons Ratio (y) = 0.42795 0.38815
# Poissons Ratio (z) = 0.29080 0.29078
#
# Static dielectric constant tensor:
#      x y z
#    x 1.465390 0.000000 0.000000 
#    y 0.000000 1.465390 0.000000 
#    z 0.000000 0.000000 1.468210 
# 
# From -- ./inp_files/1160.got.cif
#   From: 2010.05.17/outbox.cif.g08.bks.cpg/sg113_cif.got.tgz:1160.got - 2010.05.20 11:03:00.
