data_PCOD9555020
_publ_section_title
;
Structure prediction by ZEFSAII (Michael W. Deem and Ramdas Pophale) SiO2 
 PCOD9555020
Probable space group: P -4 2 C
;
_chemical_formula_sum "Si O2"
_cell_formula_units_Z 56
_cell_length_a 21.829463
_cell_length_b 21.829463
_cell_length_c 9.359278
_cell_angle_alpha 90.000000
_cell_angle_beta 90.000000
_cell_angle_gamma 90.000000
_cell_volume 4459.934206
_symmetry_space_group_name_H-M "P -4 2 C"
_symmetry_group_IT_number 112
_symmetry_cell_setting 'tetragonal'
loop_
_space_group_symop_operation_xyz
x,y,z
y,-x,-z
-x,-y,z
-y,x,-z
x,-y,1/2-z
-x,y,1/2-z
-y,-x,1/2+z
y,x,1/2+z
loop_
_atom_site_type_symbol
_atom_site_label
_atom_site_fract_x
_atom_site_fract_y
_atom_site_fract_z
Si Si1 0.625911 0.369682 0.457713
Si Si2 0.245518 0.426866 0.080079
Si Si3 0.567410 0.570675 0.792469
Si Si4 0.574530 0.121608 0.085049
Si Si5 0.574363 0.121290 0.414745
Si Si6 0.574712 0.000124 0.915547
Si Si7 0.427113 0.245483 0.921115
O O1 0.695867 0.389687 0.474242
O O2 0.607616 0.381094 0.293983
O O3 0.582400 0.417150 0.543666
O O4 0.608849 0.303050 0.514520
O O5 0.255887 0.499795 0.055855
O O6 0.239413 0.418156 0.250861
O O7 0.183586 0.408871 0.998233
O O8 0.570315 0.500000 0.750000
O O9 0.500000 0.594603 0.750000
O O10 0.594906 0.121373 0.249948
O O11 0.500086 0.119863 0.087074
O O12 0.594469 0.061215 0.999049
O O13 0.590877 0.183137 0.498409
O O14 0.594386 0.060802 0.500207
O O15 0.500000 0.000000 0.915260
O O16 0.593973 0.000000 0.750000
#
# Coordination Sequence:
#
# PCOD9555020 Si02
#       7
#     8   8   8   8   8   8   8
#     4  12  22  33  46  58  74  96 124 162 206 251
#     4  10  20  33  44  56  74  97 124 155 196 243
#     4  11  22  34  46  58  70  88 120 164 212 256
#     4   9  17  27  42  61  79  97 119 146 176 218
#     4   9  17  27  42  61  79  97 119 146 176 218
#     4   9  15  25  41  61  83 103 117 135 169 214
#     4  10  20  33  44  56  74  97 124 155 196 243
#
# _framework density 12.556239
#
# number of rings (size 3 to 8) (size 9 to 14) (size 15 to 20)
#    0.000    2.000    1.429    3.857    2.000    6.286 
#    0.000    0.000    0.000    0.000    0.000    0.000 
#    0.000    0.000    0.000    0.000    0.000    0.000 
#
# Total GULP energy -312331.717696 kJ/mol
# GULP energy per Si atom -5577.352102 kJ/mol
# Density = 1.252766 g / cm^3
# Si number density = 12.556239 Si / 1000 Ang^3
#
#
#
# Elastic Constant Matrix: (Units=GPa)
#
#
# Indices 1 2 3 4 5 6 
#
# 1 79.1242 26.1896 42.3022 0.0000 0.0000 0.0000
# 2 26.1896 79.1242 42.3022 0.0000 0.0000 0.0000
# 3 42.3022 42.3022 91.8657 0.0000 0.0000 0.0000
# 4 0.0000 0.0000 0.0000 17.9397 0.0000 0.0000
# 5 0.0000 0.0000 0.0000 0.0000 17.9397 0.0000
# 6 0.0000 0.0000 0.0000 0.0000 0.0000 4.4840
#
#
#
# Elastic Compliance Matrix: (Units=1/GPa)
#
#
# Indices 1 2 3 4 5 6 
#
# 1 0.016981 -0.001910 -0.006940 0.000000 0.000000 0.000000
# 2 -0.001910 0.016981 -0.006940 0.000000 0.000000 0.000000
# 3 -0.006940 -0.006940 0.017277 0.000000 0.000000 0.000000
# 4 0.000000 0.000000 0.000000 0.055742 0.000000 0.000000
# 5 0.000000 0.000000 0.000000 0.000000 0.055742 0.000000
# 6 0.000000 0.000000 0.000000 0.000000 0.000000 0.223014
#
#
# Mechanical properties :
#
#
# Convention : Reuss Voigt Hill
#
# Bulk Modulus (GPa) = 50.86747 52.41134 51.63941
# Shear Modulus (GPa) = 11.79609 17.36068 14.57839
#
# Velocity S-wave (km/s) = 3.06839 3.72241 3.41111
# Velocity P-wave (km/s) = 7.29061 7.76576 7.53193
#
# Compressibility (1/GPa) = 0.01965893
#
# Stress axis : x y z
#
# Youngs Moduli (GPa) = 58.89006 58.89006 57.88206
#
# Poissons Ratio (x) = 0.11251 0.40168
# Poissons Ratio (y) = 0.11251 0.40168
# Poissons Ratio (z) = 0.40867 0.40867
#
# Static dielectric constant tensor:
#      x y z
#    x 1.390510 0.000000 0.000000 
#    y 0.000000 1.390510 0.000000 
#    z 0.000000 0.000000 1.423780 
# 
# From -- ./inp_files/1615.got.cif
#   From: 2010.05.17/outbox.cif.g08.bks.cpg/sg112_1_cif.got.tgz:1615.got - 2010.05.20 10:59:04.
