data_PCOD9555780
_publ_section_title
;
Structure prediction by ZEFSAII (Michael W. Deem and Ramdas Pophale) SiO2 
 PCOD9555780
Probable space group: P -4 21 M 
;
_chemical_formula_sum "Si O2"
_cell_formula_units_Z 40
_cell_length_a 11.042697
_cell_length_b 11.042697
_cell_length_c 16.874281
_cell_angle_alpha 90.000000
_cell_angle_beta 90.000000
_cell_angle_gamma 90.000000
_cell_volume 2057.669349
_symmetry_space_group_name_H-M "P -4 21 M "
_symmetry_group_IT_number 113
_symmetry_cell_setting 'tetragonal'
loop_
_space_group_symop_operation_xyz
x,y,z
y,-x,-z
-x,-y,z
-y,x,-z
1/2+x,1/2-y,-z
1/2-x,1/2+y,-z
1/2-y,1/2-x,z
1/2+y,1/2+x,z
loop_
_atom_site_type_symbol
_atom_site_label
_atom_site_fract_x
_atom_site_fract_y
_atom_site_fract_z
Si Si1 0.799804 0.505347 0.912648
Si Si2 0.000001 0.303893 0.500002
Si Si3 0.005347 0.700197 0.087349
Si Si4 0.603618 0.396380 0.616233
Si Si5 0.601578 0.601577 0.203554
O O1 0.907856 0.407856 0.918118
O O2 0.710887 0.458150 0.845382
O O3 0.865045 0.634956 0.898564
O O4 0.740058 0.500001 0.999998
O O5 0.108621 0.391380 0.527719
O O6 0.050879 0.218132 0.431027
O O7 0.891383 0.391383 0.472285
O O8 0.949121 0.218132 0.568976
O O9 0.907855 0.592146 0.081881
O O10 0.958152 0.789115 0.154615
O O11 0.134955 0.634955 0.101432
O O12 0.500000 0.500000 0.614152
O O13 0.635209 0.364786 0.706657
O O14 0.500000 0.500000 0.209787
#
# Coordination Sequence:
#
# PCOD9555780 Si02
#       5
#     8   8   8   8   8
#     4   9  20  39  60  84 119 163 208 253 298 349
#     4  11  23  40  68  96 119 159 204 246 304 367
#     4   9  20  39  60  84 119 163 208 253 298 349
#     4  11  23  43  63  88 128 163 197 252 306 359
#     4  11  25  37  59  93 123 160 199 246 306 358
#
# _framework density 19.439468999999999
#
# number of rings (size 3 to 8) (size 9 to 14) (size 15 to 20)
#    0.000    1.800    2.000    2.400    2.800    5.600 
#    0.000    8.000    0.000    0.000    0.000    0.000 
#    0.000    0.000    0.000    0.000    0.000    0.000 
#
# Total GULP energy -223353.342369 kJ/mol
# GULP energy per Si atom -5583.833559 kJ/mol
# Density = 1.939522 g / cm^3
# Si number density = 19.439469 Si / 1000 Ang^3
#
#
#
# Elastic Constant Matrix: (Units=GPa)
#
#
# Indices 1 2 3 4 5 6 
#
# 1 105.1718 44.2273 74.0811 0.0000 0.0000 0.0000
# 2 44.2273 105.1713 74.0809 0.0000 0.0000 0.0000
# 3 74.0811 74.0809 196.4634 0.0000 0.0000 0.0000
# 4 0.0000 0.0000 0.0000 -524.8331 0.0000 0.0000
# 5 0.0000 0.0000 0.0000 0.0000 -527.1080 0.0000
# 6 0.0000 0.0000 0.0000 0.0000 0.0000 33.8247
#
#
#
# Elastic Compliance Matrix: (Units=1/GPa)
#
#
# Indices 1 2 3 4 5 6 
#
# 1 0.013550 -0.002858 -0.004032 0.000000 0.000000 0.000000
# 2 -0.002858 0.013550 -0.004032 0.000000 0.000000 0.000000
# 3 -0.004032 -0.004032 0.008130 0.000000 0.000000 0.000000
# 4 0.000000 0.000000 0.000000 -0.001905 0.000000 0.000000
# 5 0.000000 0.000000 0.000000 0.000000 -0.001897 0.000000
# 6 0.000000 0.000000 0.000000 0.000000 0.000000 0.029564
#
#
# Mechanical properties :
#
#
# Convention : Reuss Voigt Hill
#
# Bulk Modulus (GPa) = 74.69631 87.95389 81.32510
# Shear Modulus (GPa) = 57.27538 -189.32878 -66.02670
#
# Velocity S-wave (km/s) = 5.43391 -9.87955 -5.83430
# Velocity P-wave (km/s) = 8.82487 9.20855 1.85997
#
# Compressibility (1/GPa) = 0.01338754
#
# Stress axis : x y z
#
# Youngs Moduli (GPa) = 73.80063 73.80039 122.99565
#
# Poissons Ratio (x) = 0.21095 0.49586
# Poissons Ratio (y) = 0.21095 0.49586
# Poissons Ratio (z) = 0.29753 0.29753
#
# Static dielectric constant tensor:
#      x y z
#    x 1.521300 0.000000 0.000000 
#    y 0.000000 1.519850 0.000000 
#    z 0.000000 0.000000 1.687110 
# 
# From -- ./inp_files/2172.got.cif
#   From: 2010.05.17/outbox.cif.g08.bks.cpg/sg113_cif.got.tgz:2172.got - 2010.05.20 11:03:00.
