data_PCOD9555628
_publ_section_title
;
Structure prediction by ZEFSAII (Michael W. Deem and Ramdas Pophale) SiO2 
 PCOD9555628
Probable space group: P -4 21 M 
;
_chemical_formula_sum "Si O2"
_cell_formula_units_Z 48
_cell_length_a 15.007662
_cell_length_b 15.007662
_cell_length_c 11.746832
_cell_angle_alpha 90.000000
_cell_angle_beta 90.000000
_cell_angle_gamma 90.000000
_cell_volume 2645.738016
_symmetry_space_group_name_H-M "P -4 21 M "
_symmetry_group_IT_number 113
_symmetry_cell_setting 'tetragonal'
loop_
_space_group_symop_operation_xyz
x,y,z
y,-x,-z
-x,-y,z
-y,x,-z
1/2+x,1/2-y,-z
1/2-x,1/2+y,-z
1/2-y,1/2-x,z
1/2+y,1/2+x,z
loop_
_atom_site_type_symbol
_atom_site_label
_atom_site_fract_x
_atom_site_fract_y
_atom_site_fract_z
Si Si1 0.923839 0.423839 0.747475
Si Si2 0.188345 0.836362 0.248525
Si Si3 0.305074 0.957137 0.405525
Si Si4 0.570363 0.372740 0.014859
Si Si5 0.700076 0.053810 0.871142
Si Si6 0.547978 0.801633 0.646206
Si Si7 0.922956 0.422956 0.005756
O O1 0.843849 0.468226 0.679248
O O2 0.900895 0.400895 0.876316
O O3 0.000000 0.500000 0.753954
O O4 0.270794 0.770794 0.218733
O O5 0.226123 0.906463 0.340460
O O6 0.154255 0.883438 0.133732
O O7 0.113365 0.775625 0.307922
O O8 0.383981 0.883981 0.424972
O O9 0.283597 0.005318 0.523643
O O10 0.464973 0.389214 0.030522
O O11 0.577673 0.295223 0.921738
O O12 0.633181 0.133181 0.899672
O O13 0.694058 0.030512 0.738682
O O14 0.661612 0.964882 0.931902
O O15 0.607340 0.892661 0.642730
O O16 0.000000 0.500000 0.009344
#
# Coordination Sequence:
#
# PCOD9555628 Si02
#       7
#     4   8   8   8   8   8   4
#     4   9  16  29  53  85 115 154 201 241 298 367
#     4  10  22  42  64  88 124 166 208 256 312 373
#     4  10  20  36  60  86 120 164 205 253 308 369
#     4  11  23  42  63  87 123 167 212 249 308 384
#     4  11  21  36  62  93 124 157 201 262 319 373
#     4  11  21  38  63  93 125 159 205 257 320 374
#     4   9  18  31  55  93 127 154 193 247 314 375
#
# _framework density 18.142385000000001
#
# number of rings (size 3 to 8) (size 9 to 14) (size 15 to 20)
#    0.000    1.667    3.333    2.000    0.000    3.333 
#    4.500    0.000    0.000    0.000    0.000    0.000 
#    0.000    0.000    0.000    0.000    0.000    0.000 
#
# Total GULP energy -267989.960300 kJ/mol
# GULP energy per Si atom -5583.124173 kJ/mol
# Density = 1.810109 g / cm^3
# Si number density = 18.142385 Si / 1000 Ang^3
#
#
#
# Elastic Constant Matrix: (Units=GPa)
#
#
# Indices 1 2 3 4 5 6 
#
# 1 66.5237 22.9644 20.5984 0.0000 0.0000 0.0000
# 2 22.9644 66.5231 20.5984 0.0000 0.0000 0.0000
# 3 20.5984 20.5984 109.9864 0.0000 0.0000 0.0000
# 4 0.0000 0.0000 0.0000 26.0736 0.0000 0.0000
# 5 0.0000 0.0000 0.0000 0.0000 26.0736 0.0000
# 6 0.0000 0.0000 0.0000 0.0000 0.0000 16.4447
#
#
#
# Elastic Compliance Matrix: (Units=1/GPa)
#
#
# Indices 1 2 3 4 5 6 
#
# 1 0.017593 -0.005364 -0.002290 0.000000 0.000000 0.000000
# 2 -0.005364 0.017593 -0.002290 0.000000 0.000000 0.000000
# 3 -0.002290 -0.002290 0.009950 0.000000 0.000000 0.000000
# 4 0.000000 0.000000 0.000000 0.038353 0.000000 0.000000
# 5 0.000000 0.000000 0.000000 0.000000 0.038353 0.000000
# 6 0.000000 0.000000 0.000000 0.000000 0.000000 0.060810
#
#
# Mechanical properties :
#
#
# Convention : Reuss Voigt Hill
#
# Bulk Modulus (GPa) = 39.60879 41.26172 40.43526
# Shear Modulus (GPa) = 23.70150 25.64318 24.67234
#
# Velocity S-wave (km/s) = 3.61836 3.76365 3.69172
# Velocity P-wave (km/s) = 6.27186 6.45596 6.36458
#
# Compressibility (1/GPa) = 0.02524692
#
# Stress axis : x y z
#
# Youngs Moduli (GPa) = 56.84031 56.83979 100.50370
#
# Poissons Ratio (x) = 0.30490 0.23018
# Poissons Ratio (y) = 0.30490 0.23018
# Poissons Ratio (z) = 0.13018 0.13018
#
# Static dielectric constant tensor:
#      x y z
#    x 1.625710 0.000000 0.000000 
#    y 0.000000 1.625710 0.000000 
#    z 0.000000 0.000000 1.596890 
# 
# From -- ./inp_files/1884.got.cif
#   From: 2010.05.17/outbox.cif.g08.bks.cpg/sg113_cif.got.tgz:1884.got - 2010.05.20 11:03:00.
