data_PCOD9555963
_publ_section_title
;
Structure prediction by ZEFSAII (Michael W. Deem and Ramdas Pophale) SiO2 
 PCOD9555963
Probable space group: P -4 21 C
;
_chemical_formula_sum "Si O2"
_cell_formula_units_Z 44
_cell_length_a 9.940511
_cell_length_b 9.940511
_cell_length_c 23.502433
_cell_angle_alpha 90.000000
_cell_angle_beta 90.000000
_cell_angle_gamma 90.000000
_cell_volume 2322.363749
_symmetry_space_group_name_H-M "P -4 21 C"
_symmetry_group_IT_number 114
_symmetry_cell_setting 'tetragonal'
loop_
_space_group_symop_operation_xyz
x,y,z
y,-x,-z
-x,-y,z
-y,x,-z
1/2+x,1/2-y,1/2-z
1/2-x,1/2+y,1/2-z
1/2-y,1/2-x,1/2+z
1/2+y,1/2+x,1/2+z
loop_
_atom_site_type_symbol
_atom_site_label
_atom_site_fract_x
_atom_site_fract_y
_atom_site_fract_z
Si Si1 0.998036 0.760741 0.271631
Si Si2 0.842088 0.199514 0.573622
Si Si3 0.709896 0.679233 0.317930
Si Si4 0.848031 0.450484 0.964535
Si Si5 0.500000 0.500000 0.861608
Si Si6 0.142908 0.574444 0.351765
O O1 0.067033 0.807395 0.213340
O O2 0.104870 0.651902 0.294732
O O3 0.842668 0.710720 0.277236
O O4 0.008824 0.874859 0.319538
O O5 0.774623 0.275619 0.627021
O O6 0.880607 0.288159 0.520031
O O7 0.741880 0.078790 0.554555
O O8 0.974885 0.127055 0.598328
O O9 0.739506 0.529312 0.340069
O O10 0.845899 0.347366 0.910749
O O11 0.000000 0.500000 0.976888
O O12 0.000000 0.500000 0.362526
#
# Coordination Sequence:
#
# PCOD9555963 Si02
#       6
#     8   8   8   8   4   8
#     4  10  21  36  59  87 116 152 193 240 289 357
#     4  11  21  36  61  88 113 151 200 245 297 346
#     4  10  21  39  60  85 119 156 195 238 300 363
#     4  11  20  39  60  85 118 156 196 250 297 351
#     4  10  20  37  56  90 114 141 196 252 292 340
#     4   9  17  38  58  78 113 161 186 227 305 351
#
# _framework density 18.946216
#
# number of rings (size 3 to 8) (size 9 to 14) (size 15 to 20)
#    0.000    1.818    7.273    1.091    5.091    0.000 
#    3.273    0.000    0.000    0.545    0.000    0.000 
#    0.000    0.000    0.000    0.000    0.000    0.000 
#
# Total GULP energy -245036.772091 kJ/mol
# GULP energy per Si atom -5569.017548 kJ/mol
# Density = 1.890309 g / cm^3
# Si number density = 18.946216 Si / 1000 Ang^3
#
#
#
# Elastic Constant Matrix: (Units=GPa)
#
#
# Indices 1 2 3 4 5 6 
#
# 1 36.9008 13.3696 22.1089 0.0000 0.0000 0.0000
# 2 13.3696 36.9008 22.1089 0.0000 0.0000 0.0000
# 3 22.1089 22.1089 96.6718 0.0000 0.0000 0.0000
# 4 0.0000 0.0000 0.0000 33.3033 0.0000 0.0000
# 5 0.0000 0.0000 0.0000 0.0000 33.3033 0.0000
# 6 0.0000 0.0000 0.0000 0.0000 0.0000 16.2293
#
#
#
# Elastic Compliance Matrix: (Units=1/GPa)
#
#
# Indices 1 2 3 4 5 6 
#
# 1 0.033699 -0.008798 -0.005695 0.000000 0.000000 0.000000
# 2 -0.008798 0.033699 -0.005695 0.000000 0.000000 0.000000
# 3 -0.005695 -0.005695 0.012949 0.000000 0.000000 0.000000
# 4 0.000000 0.000000 0.000000 0.030027 0.000000 0.000000
# 5 0.000000 0.000000 0.000000 0.000000 0.030027 0.000000
# 6 0.000000 0.000000 0.000000 0.000000 0.000000 0.061617
#
#
# Mechanical properties :
#
#
# Convention : Reuss Voigt Hill
#
# Bulk Modulus (GPa) = 25.01718 31.73869 28.37794
# Shear Modulus (GPa) = 19.55276 24.09291 21.82284
#
# Velocity S-wave (km/s) = 3.21598 3.56989 3.39755
# Velocity P-wave (km/s) = 5.19837 5.81210 5.51378
#
# Compressibility (1/GPa) = 0.03997253
#
# Stress axis : x y z
#
# Youngs Moduli (GPa) = 29.67422 29.67422 77.22479
#
# Poissons Ratio (x) = 0.26106 0.43980
# Poissons Ratio (y) = 0.26106 0.43980
# Poissons Ratio (z) = 0.16900 0.16900
#
# Static dielectric constant tensor:
#      x y z
#    x 1.709090 0.000000 0.000000 
#    y 0.000000 1.709090 0.000000 
#    z 0.000000 0.000000 1.705150 
# 
# From -- ./inp_files/2573.got.cif
#   From: 2010.05.17/outbox.cif.g08.bks.cpg/sg114_2_cif.got.tgz:2573.got - 2010.05.20 11:04:54.
