data_PCOD9555042
_publ_section_title
;
Structure prediction by ZEFSAII (Michael W. Deem and Ramdas Pophale) SiO2 
 PCOD9555042
Probable space group: P -4 2 C
;
_chemical_formula_sum "Si O2"
_cell_formula_units_Z 40
_cell_length_a 9.771183
_cell_length_b 9.771183
_cell_length_c 23.229104
_cell_angle_alpha 90.000000
_cell_angle_beta 90.000000
_cell_angle_gamma 90.000000
_cell_volume 2217.822333
_symmetry_space_group_name_H-M "P -4 2 C"
_symmetry_group_IT_number 112
_symmetry_cell_setting 'tetragonal'
loop_
_space_group_symop_operation_xyz
x,y,z
y,-x,-z
-x,-y,z
-y,x,-z
x,-y,1/2-z
-x,y,1/2-z
-y,-x,1/2+z
y,x,1/2+z
loop_
_atom_site_type_symbol
_atom_site_label
_atom_site_fract_x
_atom_site_fract_y
_atom_site_fract_z
Si Si1 0.979879 0.835765 0.184854
Si Si2 0.328430 0.656672 0.501398
Si Si3 0.841533 0.232235 0.609298
Si Si4 0.167725 0.725372 0.891357
Si Si5 0.837256 0.475936 0.687440
O O1 0.831681 0.803389 0.159822
O O2 0.000000 0.781371 0.250000
O O3 0.083176 0.801593 0.132541
O O4 0.000000 0.000000 0.189550
O O5 0.492039 0.686584 0.504083
O O6 0.249881 0.712817 0.557423
O O7 0.264423 0.738779 0.447440
O O8 0.816115 0.324421 0.665539
O O9 0.004637 0.252234 0.595228
O O10 0.201105 0.578756 0.863344
O O11 0.774914 0.500000 0.750000
O O12 0.000000 0.500000 0.692419
#
# Coordination Sequence:
#
# PCOD9555042 Si02
#       5
#     8   8   8   8   8
#     4   9  18  34  57  89 121 143 172 225 286 331
#     4  11  24  40  55  74 112 152 191 234 280 323
#     4  10  20  35  56  85 110 146 185 225 273 328
#     4  10  20  35  56  85 110 146 185 225 273 328
#     4   9  16  30  55  83 109 137 182 229 264 315
#
# _framework density 18.035710999999999
#
# number of rings (size 3 to 8) (size 9 to 14) (size 15 to 20)
#    0.000    2.200    2.000    1.200    2.800    4.800 
#    0.000    0.000    0.000    7.200    0.000    0.000 
#    0.000    0.000    0.000    0.000    0.000    0.000 
#
# Total GULP energy -222675.261150 kJ/mol
# GULP energy per Si atom -5566.881529 kJ/mol
# Density = 1.799466 g / cm^3
# Si number density = 18.035711 Si / 1000 Ang^3
#
#
#
# Elastic Constant Matrix: (Units=GPa)
#
#
# Indices 1 2 3 4 5 6 
#
# 1 33.4659 17.3929 16.7182 0.0000 0.0000 0.0000
# 2 17.3929 33.4659 16.7182 0.0000 0.0000 0.0000
# 3 16.7182 16.7182 105.3344 0.0000 0.0000 0.0000
# 4 0.0000 0.0000 0.0000 13.3305 0.0000 0.0000
# 5 0.0000 0.0000 0.0000 0.0000 13.3305 0.0000
# 6 0.0000 0.0000 0.0000 0.0000 0.0000 15.4440
#
#
#
# Elastic Compliance Matrix: (Units=1/GPa)
#
#
# Indices 1 2 3 4 5 6 
#
# 1 0.042085 -0.020132 -0.003484 0.000000 0.000000 0.000000
# 2 -0.020132 0.042085 -0.003484 0.000000 0.000000 0.000000
# 3 -0.003484 -0.003484 0.010600 0.000000 0.000000 0.000000
# 4 0.000000 0.000000 0.000000 0.075016 0.000000 0.000000
# 5 0.000000 0.000000 0.000000 0.000000 0.075016 0.000000
# 6 0.000000 0.000000 0.000000 0.000000 0.000000 0.064750
#
#
# Mechanical properties :
#
#
# Convention : Reuss Voigt Hill
#
# Bulk Modulus (GPa) = 24.64971 30.43610 27.54290
# Shear Modulus (GPa) = 13.25299 16.51680 14.88489
#
# Velocity S-wave (km/s) = 2.71370 3.02947 2.87592
# Velocity P-wave (km/s) = 4.84930 5.39899 5.13151
#
# Compressibility (1/GPa) = 0.04056844
#
# Stress axis : x y z
#
# Youngs Moduli (GPa) = 23.76167 23.76167 94.34324
#
# Poissons Ratio (x) = 0.47836 0.32872
# Poissons Ratio (y) = 0.47836 0.32872
# Poissons Ratio (z) = 0.08279 0.08279
#
# Static dielectric constant tensor:
#      x y z
#    x 1.620920 0.000000 0.000000 
#    y 0.000000 1.620920 0.000000 
#    z 0.000000 0.000000 1.623930 
# 
# From -- ./inp_files/5336.got.cif
#   From: 2010.05.17/outbox.cif.g08.bks.cpg/sg112_3_cif.got.tgz:5336.got - 2010.05.20 10:59:04.
