data_PCOD9555136
_publ_section_title
;
Structure prediction by ZEFSAII (Michael W. Deem and Ramdas Pophale) SiO2 
 PCOD9555136
Probable space group: P -4 2 C
;
_chemical_formula_sum "Si O2"
_cell_formula_units_Z 36
_cell_length_a 11.974103
_cell_length_b 11.974103
_cell_length_c 13.973417
_cell_angle_alpha 90.000000
_cell_angle_beta 90.000000
_cell_angle_gamma 90.000000
_cell_volume 2003.496549
_symmetry_space_group_name_H-M "P -4 2 C"
_symmetry_group_IT_number 112
_symmetry_cell_setting 'tetragonal'
loop_
_space_group_symop_operation_xyz
x,y,z
y,-x,-z
-x,-y,z
-y,x,-z
x,-y,1/2-z
-x,y,1/2-z
-y,-x,1/2+z
y,x,1/2+z
loop_
_atom_site_type_symbol
_atom_site_label
_atom_site_fract_x
_atom_site_fract_y
_atom_site_fract_z
Si Si1 0.282760 0.130323 0.061116
Si Si2 0.500000 0.873232 0.927296
Si Si3 0.705794 0.500000 0.250000
Si Si4 0.282760 0.130323 0.438884
Si Si5 0.369470 0.750069 0.250000
O O1 0.308826 0.200048 0.156645
O O2 0.265580 0.000000 0.084094
O O3 0.391841 0.139800 0.993907
O O4 0.182029 0.182029 1.000000
O O5 0.500000 0.784265 0.843203
O O6 0.500000 0.000000 0.888539
O O7 0.391841 0.860200 0.993907
O O8 0.638387 0.384236 0.250000
O O9 0.308826 0.200048 0.343355
O O10 0.500000 0.784270 0.250000
#
# Coordination Sequence:
#
# PCOD9555136 Si02
#       5
#     8   8   4   8   8
#     4  11  23  41  64  90 123 165 210 256 305 363
#     4  10  21  38  63  86 115 164 211 252 297 360
#     4  12  22  38  62  92 128 156 194 258 318 366
#     4  11  23  41  64  90 123 165 210 256 305 363
#     4  12  24  39  62  95 126 160 205 251 309 376
#
# _framework density 17.968585000000001
#
# number of rings (size 3 to 8) (size 9 to 14) (size 15 to 20)
#    0.000    0.889    6.667    1.333    0.000    1.333 
#    0.000    1.111    0.000    2.667    0.000    0.000 
#    0.000    0.000    0.000    0.000    0.000    0.000 
#
# Total GULP energy -201136.912132 kJ/mol
# GULP energy per Si atom -5587.136448 kJ/mol
# Density = 1.792769 g / cm^3
# Si number density = 17.968585 Si / 1000 Ang^3
#
#
#
# Elastic Constant Matrix: (Units=GPa)
#
#
# Indices 1 2 3 4 5 6 
#
# 1 110.2514 24.1526 40.2939 0.0000 0.0000 0.0000
# 2 24.1526 110.2514 40.2939 0.0000 0.0000 0.0000
# 3 40.2939 40.2939 98.1437 0.0000 0.0000 0.0000
# 4 0.0000 0.0000 0.0000 22.6578 0.0000 0.0000
# 5 0.0000 0.0000 0.0000 0.0000 22.6578 0.0000
# 6 0.0000 0.0000 0.0000 0.0000 0.0000 26.4540
#
#
#
# Elastic Compliance Matrix: (Units=1/GPa)
#
#
# Indices 1 2 3 4 5 6 
#
# 1 0.010742 -0.000872 -0.004052 0.000000 0.000000 0.000000
# 2 -0.000872 0.010742 -0.004052 0.000000 0.000000 0.000000
# 3 -0.004052 -0.004052 0.013516 0.000000 0.000000 0.000000
# 4 0.000000 0.000000 0.000000 0.044135 0.000000 0.000000
# 5 0.000000 0.000000 0.000000 0.000000 0.044135 0.000000
# 6 0.000000 0.000000 0.000000 0.000000 0.000000 0.037801
#
#
# Mechanical properties :
#
#
# Convention : Reuss Voigt Hill
#
# Bulk Modulus (GPa) = 58.65946 58.68079 58.67012
# Shear Modulus (GPa) = 27.06976 28.61436 27.84206
#
# Velocity S-wave (km/s) = 3.88558 3.99490 3.94062
# Velocity P-wave (km/s) = 7.26958 7.34897 7.30938
#
# Compressibility (1/GPa) = 0.01704755
#
# Stress axis : x y z
#
# Youngs Moduli (GPa) = 93.09044 93.09044 73.98383
#
# Poissons Ratio (x) = 0.08120 0.29980
# Poissons Ratio (y) = 0.08120 0.29980
# Poissons Ratio (z) = 0.37722 0.37722
#
# Static dielectric constant tensor:
#      x y z
#    x 1.597400 0.000000 0.000000 
#    y 0.000000 1.597400 0.000000 
#    z 0.000000 0.000000 1.575620 
# 
# From -- ./inp_files/2352.got.cif
#   From: 2010.05.17/outbox.cif.g08.bks.cpg/sg112_2_cif.got.tgz:2352.got - 2010.05.20 10:59:04.
