data_PCOD9555535
_publ_section_title
;
Structure prediction by ZEFSAII (Michael W. Deem and Ramdas Pophale) SiO2 
 PCOD9555535
Probable space group: P -4 21 M 
;
_chemical_formula_sum "Si O2"
_cell_formula_units_Z 58
_cell_length_a 18.240806
_cell_length_b 18.240806
_cell_length_c 7.066567
_cell_angle_alpha 90.000000
_cell_angle_beta 90.000000
_cell_angle_gamma 90.000000
_cell_volume 2351.237663
_symmetry_space_group_name_H-M "P -4 21 M "
_symmetry_group_IT_number 113
_symmetry_cell_setting 'tetragonal'
loop_
_space_group_symop_operation_xyz
x,y,z
y,-x,-z
-x,-y,z
-y,x,-z
1/2+x,1/2-y,-z
1/2-x,1/2+y,-z
1/2-y,1/2-x,z
1/2+y,1/2+x,z
loop_
_atom_site_type_symbol
_atom_site_label
_atom_site_fract_x
_atom_site_fract_y
_atom_site_fract_z
Si Si1 0.138910 0.243721 0.973778
Si Si2 0.632423 0.745693 0.907497
Si Si3 0.854637 0.797820 0.405811
Si Si4 0.830933 0.558290 0.543230
Si Si5 0.009438 0.327476 0.119739
Si Si6 0.610866 0.515358 0.513093
Si Si7 0.000000 0.500000 0.018813
Si Si8 0.924410 0.239560 0.666705
O O1 0.190666 0.309335 0.909011
O O2 0.164902 0.167286 0.880193
O O3 0.158334 0.231970 0.196496
O O4 0.057304 0.275678 0.980656
O O5 0.698322 0.801678 0.873262
O O6 0.607681 0.751737 0.126845
O O7 0.560570 0.779278 0.813811
O O8 0.881677 0.735295 0.550440
O O9 0.929433 0.844489 0.383151
O O10 0.787398 0.852625 0.454399
O O11 0.905102 0.594899 0.621588
O O12 0.840829 0.549665 0.318099
O O13 0.806128 0.478067 0.612317
O O14 0.998651 0.408006 0.032829
O O15 0.567501 0.452015 0.401785
O O16 0.668007 0.476876 0.651623
#
# Coordination Sequence:
#
# PCOD9555535 Si02
#       8
#     8   8   8   8   8   8   2   8
#     4   9  17  33  55  76 100 140 186 225 271 326
#     4  10  21  37  55  78 107 144 181 222 275 336
#     4   8  14  27  51  72 100 138 176 213 265 325
#     4  10  19  35  55  80 108 142 181 227 274 320
#     4  11  20  37  60  82 109 145 190 231 271 332
#     4   8  13  23  43  71 100 131 168 212 264 320
#     4  12  20  36  60  86 104 148 192 230 264 324
#     4   9  18  33  50  77 106 136 173 219 267 324
#
# _framework density 24.667857999999999
#
# number of rings (size 3 to 8) (size 9 to 14) (size 15 to 20)
#    0.000    2.621    2.069    1.241    0.000    0.552 
#    2.483    6.897    0.000    3.724    0.000    0.000 
#    0.000    0.000    0.000    0.000    0.000    0.000 
#
# Total GULP energy -322885.380311 kJ/mol
# GULP energy per Si atom -5566.989316 kJ/mol
# Density = 2.461171 g / cm^3
# Si number density = 24.667858 Si / 1000 Ang^3
#
#
#
# Elastic Constant Matrix: (Units=GPa)
#
#
# Indices 1 2 3 4 5 6 
#
# 1 107.0461 82.0659 11.9135 0.0000 0.0000 0.0000
# 2 82.0659 107.0485 11.9140 0.0000 0.0000 0.0000
# 3 11.9135 11.9140 47.9595 0.0000 0.0000 0.0000
# 4 0.0000 0.0000 0.0000 13.1503 0.0000 0.0000
# 5 0.0000 0.0000 0.0000 0.0000 13.1456 0.0000
# 6 0.0000 0.0000 0.0000 0.0000 0.0000 66.7665
#
#
#
# Elastic Compliance Matrix: (Units=1/GPa)
#
#
# Indices 1 2 3 4 5 6 
#
# 1 0.022744 -0.017285 -0.001356 0.000000 0.000000 0.000000
# 2 -0.017285 0.022744 -0.001356 0.000000 0.000000 0.000000
# 3 -0.001356 -0.001356 0.021525 0.000000 0.000000 0.000000
# 4 0.000000 0.000000 0.000000 0.076044 0.000000 0.000000
# 5 0.000000 0.000000 0.000000 0.000000 0.076071 0.000000
# 6 0.000000 0.000000 0.000000 0.000000 0.000000 0.014978
#
#
# Mechanical properties :
#
#
# Convention : Reuss Voigt Hill
#
# Bulk Modulus (GPa) = 37.01242 52.64900 44.83071
# Shear Modulus (GPa) = 17.66122 29.02320 23.34221
#
# Velocity S-wave (km/s) = 2.67865 3.43382 3.07947
# Velocity P-wave (km/s) = 4.96022 6.09188 5.55494
#
# Compressibility (1/GPa) = 0.02701796
#
# Stress axis : x y z
#
# Youngs Moduli (GPa) = 43.96684 43.96776 46.45843
#
# Poissons Ratio (x) = 0.76000 0.06299
# Poissons Ratio (y) = 0.75999 0.06300
# Poissons Ratio (z) = 0.05961 0.05963
#
# Static dielectric constant tensor:
#      x y z
#    x 2.014420 0.000000 0.000000 
#    y 0.000000 2.014420 0.000000 
#    z 0.000000 0.000000 1.974890 
# 
# From -- ./inp_files/1313.got.cif
#   From: 2010.05.17/outbox.cif.g08.bks.cpg/sg113_cif.got.tgz:1313.got - 2010.05.20 11:03:00.
