data_PCOD9555619
_publ_section_title
;
Structure prediction by ZEFSAII (Michael W. Deem and Ramdas Pophale) SiO2 
 PCOD9555619
Probable space group: P -4 21 M 
;
_chemical_formula_sum "Si O2"
_cell_formula_units_Z 40
_cell_length_a 16.362998
_cell_length_b 16.362998
_cell_length_c 7.973016
_cell_angle_alpha 90.000000
_cell_angle_beta 90.000000
_cell_angle_gamma 90.000000
_cell_volume 2134.756724
_symmetry_space_group_name_H-M "P -4 21 M "
_symmetry_group_IT_number 113
_symmetry_cell_setting 'tetragonal'
loop_
_space_group_symop_operation_xyz
x,y,z
y,-x,-z
-x,-y,z
-y,x,-z
1/2+x,1/2-y,-z
1/2-x,1/2+y,-z
1/2-y,1/2-x,z
1/2+y,1/2+x,z
loop_
_atom_site_type_symbol
_atom_site_label
_atom_site_fract_x
_atom_site_fract_y
_atom_site_fract_z
Si Si1 0.577548 0.784523 0.439550
Si Si2 0.922453 0.284524 0.939549
Si Si3 0.073083 0.892666 0.054198
Si Si4 0.363785 0.995634 0.750000
Si Si5 0.392667 0.573084 0.445802
O O1 0.654626 0.845375 0.453887
O O2 0.514123 0.811509 0.583633
O O3 0.602601 0.691443 0.473998
O O4 0.544880 0.792147 0.250001
O O5 0.845376 0.345376 0.953887
O O6 0.897401 0.191444 0.973999
O O7 0.985879 0.311509 0.083632
O O8 0.094033 0.896187 0.250000
O O9 0.974671 0.895064 0.033229
O O10 0.435941 0.064060 0.750000
O O11 0.408840 0.908840 0.749998
O O12 0.474671 0.604937 0.533228
#
# Coordination Sequence:
#
# PCOD9555619 Si02
#       5
#     8   8   8   8   8
#     4  10  20  36  58  84 116 151 188 234 288 338
#     4  10  20  36  58  84 116 151 188 234 288 338
#     4  11  21  36  58  84 114 148 194 237 281 340
#     4   9  18  34  56  81 110 148 189 228 276 336
#     4  11  21  36  58  84 114 148 194 237 281 340
#
# _framework density 18.737499
#
# number of rings (size 3 to 8) (size 9 to 14) (size 15 to 20)
#    0.000    1.800    2.000    4.800    0.000    0.800 
#    0.000    6.000    0.000    4.800    0.000    0.000 
#    0.000    0.000    0.000    0.000    0.000    0.000 
#
# Total GULP energy -223247.610913 kJ/mol
# GULP energy per Si atom -5581.190273 kJ/mol
# Density = 1.869485 g / cm^3
# Si number density = 18.737499 Si / 1000 Ang^3
#
#
#
# Elastic Constant Matrix: (Units=GPa)
#
#
# Indices 1 2 3 4 5 6 
#
# 1 46.5795 -0.0591 16.3728 0.0000 0.0000 0.0000
# 2 -0.0591 46.5779 16.3733 0.0000 0.0000 0.0000
# 3 16.3728 16.3733 122.0697 0.0000 0.0000 0.0000
# 4 0.0000 0.0000 0.0000 23.6359 0.0000 0.0000
# 5 0.0000 0.0000 0.0000 0.0000 23.6356 0.0000
# 6 0.0000 0.0000 0.0000 0.0000 0.0000 5.6326
#
#
#
# Elastic Compliance Matrix: (Units=1/GPa)
#
#
# Indices 1 2 3 4 5 6 
#
# 1 0.022589 0.001148 -0.003184 0.000000 0.000000 0.000000
# 2 0.001148 0.022590 -0.003184 0.000000 0.000000 0.000000
# 3 -0.003184 -0.003184 0.009046 0.000000 0.000000 0.000000
# 4 0.000000 0.000000 0.000000 0.042309 0.000000 0.000000
# 5 0.000000 0.000000 0.000000 0.000000 0.042309 0.000000
# 6 0.000000 0.000000 0.000000 0.000000 0.000000 0.177537
#
#
# Mechanical properties :
#
#
# Convention : Reuss Voigt Hill
#
# Bulk Modulus (GPa) = 22.83851 31.17790 27.00821
# Shear Modulus (GPa) = 14.64491 22.75015 18.69753
#
# Velocity S-wave (km/s) = 2.79871 3.48825 3.16233
# Velocity P-wave (km/s) = 4.76013 5.73579 5.27058
#
# Compressibility (1/GPa) = 0.04378568
#
# Stress axis : x y z
#
# Youngs Moduli (GPa) = 44.26889 44.26710 110.54429
#
# Poissons Ratio (x) = -0.05081 0.35195
# Poissons Ratio (y) = -0.05081 0.35197
# Poissons Ratio (z) = 0.14094 0.14095
#
# Static dielectric constant tensor:
#      x y z
#    x 1.642620 0.000000 0.000000 
#    y 0.000000 1.642620 0.000000 
#    z 0.000000 0.000000 1.654430 
# 
# From -- ./inp_files/1015.got.cif
#   From: 2010.05.17/outbox.cif.g08.bks.cpg/sg113_cif.got.tgz:1015.got - 2010.05.20 11:03:00.
