data_PCOD9555199
_publ_section_title
;
Structure prediction by ZEFSAII (Michael W. Deem and Ramdas Pophale) SiO2 
 PCOD9555199
Probable space group: P -4 2 C
;
_chemical_formula_sum "Si O2"
_cell_formula_units_Z 40
_cell_length_a 8.615353
_cell_length_b 8.615353
_cell_length_c 25.233292
_cell_angle_alpha 90.000000
_cell_angle_beta 90.000000
_cell_angle_gamma 90.000000
_cell_volume 1872.923620
_symmetry_space_group_name_H-M "P -4 2 C"
_symmetry_group_IT_number 112
_symmetry_cell_setting 'tetragonal'
loop_
_space_group_symop_operation_xyz
x,y,z
y,-x,-z
-x,-y,z
-y,x,-z
x,-y,1/2-z
-x,y,1/2-z
-y,-x,1/2+z
y,x,1/2+z
loop_
_atom_site_type_symbol
_atom_site_label
_atom_site_fract_x
_atom_site_fract_y
_atom_site_fract_z
Si Si1 0.420684 0.830415 0.931115
Si Si2 0.059153 0.322985 0.805241
Si Si3 0.173853 0.949724 0.413549
Si Si4 0.837618 0.413535 0.547279
Si Si5 0.375344 0.619572 0.145726
O O1 0.233691 0.817699 0.926294
O O2 0.508459 0.748467 0.882858
O O3 0.500000 0.000000 0.932519
O O4 0.457075 0.769203 0.990507
O O5 0.245566 0.319269 0.814528
O O6 0.000000 0.500000 0.804939
O O7 0.000000 0.252317 0.750000
O O8 0.980377 0.249536 0.856460
O O9 0.242667 0.084955 0.452311
O O10 0.000000 0.000000 0.408285
O O11 0.719874 0.439094 0.595270
O O12 0.000000 0.500000 0.557798
O O13 0.500000 0.500000 0.168973
#
# Coordination Sequence:
#
# PCOD9555199 Si02
#       5
#     8   8   8   8   8
#     4  11  24  36  57  91 130 171 222 270 317 387
#     4  10  22  45  70  91 121 173 221 270 344 415
#     4  11  23  40  63  89 129 173 224 271 321 399
#     4  10  23  37  57  86 128 182 218 250 325 406
#     4  11  22  38  62  94 130 163 215 278 331 384
#
# _framework density 21.356985000000002
#
# number of rings (size 3 to 8) (size 9 to 14) (size 15 to 20)
#    0.000    1.400    0.000    7.200   11.200    0.400 
#    0.000    7.000    0.000    1.200    0.000    0.000 
#    0.000    0.000    0.000    0.000    0.000    0.000 
#
# Total GULP energy -223116.283699 kJ/mol
# GULP energy per Si atom -5577.907092 kJ/mol
# Density = 2.130838 g / cm^3
# Si number density = 21.356985 Si / 1000 Ang^3
#
#
#
# Elastic Constant Matrix: (Units=GPa)
#
#
# Indices 1 2 3 4 5 6 
#
# 1 91.5354 0.6694 22.5857 0.0000 0.0000 0.0000
# 2 0.6694 91.5354 22.5857 0.0000 0.0000 0.0000
# 3 22.5857 22.5857 81.9203 0.0000 0.0000 0.0000
# 4 0.0000 0.0000 0.0000 11.6078 0.0000 0.0000
# 5 0.0000 0.0000 0.0000 0.0000 11.6078 0.0000
# 6 0.0000 0.0000 0.0000 0.0000 0.0000 36.5930
#
#
#
# Elastic Compliance Matrix: (Units=1/GPa)
#
#
# Indices 1 2 3 4 5 6 
#
# 1 0.011772 0.000767 -0.003457 0.000000 0.000000 0.000000
# 2 0.000767 0.011772 -0.003457 0.000000 0.000000 0.000000
# 3 -0.003457 -0.003457 0.014113 0.000000 0.000000 0.000000
# 4 0.000000 0.000000 0.000000 0.086149 0.000000 0.000000
# 5 0.000000 0.000000 0.000000 0.000000 0.086149 0.000000
# 6 0.000000 0.000000 0.000000 0.000000 0.000000 0.027328
#
#
# Mechanical properties :
#
#
# Convention : Reuss Voigt Hill
#
# Bulk Modulus (GPa) = 39.42734 39.63027 39.52881
# Shear Modulus (GPa) = 19.37749 26.57175 22.97462
#
# Velocity S-wave (km/s) = 3.01543 3.53111 3.28341
# Velocity P-wave (km/s) = 5.53398 5.93476 5.73787
#
# Compressibility (1/GPa) = 0.02536311
#
# Stress axis : x y z
#
# Youngs Moduli (GPa) = 84.94642 84.94642 70.85551
#
# Poissons Ratio (x) = -0.06515 0.24495
# Poissons Ratio (y) = -0.06515 0.24495
# Poissons Ratio (z) = 0.29366 0.29366
#
# Static dielectric constant tensor:
#      x y z
#    x 1.727740 0.000000 0.000000 
#    y 0.000000 1.727740 0.000000 
#    z 0.000000 0.000000 1.801300 
# 
# From -- ./inp_files/5367.got.cif
#   From: 2010.05.17/outbox.cif.g08.bks.cpg/sg112_3_cif.got.tgz:5367.got - 2010.05.20 10:59:04.
