data_PCOD9555325
_publ_section_title
;
Structure prediction by ZEFSAII (Michael W. Deem and Ramdas Pophale) SiO2 
 PCOD9555325
Probable space group: P -4 2 C
;
_chemical_formula_sum "Si O2"
_cell_formula_units_Z 40
_cell_length_a 8.771982
_cell_length_b 8.771982
_cell_length_c 22.307695
_cell_angle_alpha 90.000000
_cell_angle_beta 90.000000
_cell_angle_gamma 90.000000
_cell_volume 1716.525113
_symmetry_space_group_name_H-M "P -4 2 C"
_symmetry_group_IT_number 112
_symmetry_cell_setting 'tetragonal'
loop_
_space_group_symop_operation_xyz
x,y,z
y,-x,-z
-x,-y,z
-y,x,-z
x,-y,1/2-z
-x,y,1/2-z
-y,-x,1/2+z
y,x,1/2+z
loop_
_atom_site_type_symbol
_atom_site_label
_atom_site_fract_x
_atom_site_fract_y
_atom_site_fract_z
Si Si1 0.261305 0.551248 0.480759
Si Si2 0.776747 0.951417 0.469545
Si Si3 0.115376 0.374860 0.142187
Si Si4 0.874380 0.884276 0.843774
Si Si5 0.686521 0.678778 0.748518
O O1 0.397452 0.670926 0.492535
O O2 0.114765 0.613872 0.514587
O O3 0.210479 0.548171 0.411278
O O4 0.795220 0.952399 0.398223
O O5 0.892662 0.831444 0.501149
O O6 0.231377 0.291669 0.186631
O O7 0.000000 0.500000 0.171092
O O8 0.995165 0.247042 0.123256
O O9 0.780561 0.774961 0.798491
O O10 0.000000 0.000000 0.816598
O O11 0.729973 0.500000 0.750000
O O12 0.500000 0.683092 0.750000
#
# Coordination Sequence:
#
# PCOD9555325 Si02
#       5
#     8   8   8   8   8
#     4  11  26  40  66 105 145 187 237 304 380 450
#     4  11  21  43  69 105 141 185 240 298 378 450
#     4  12  24  46  72 104 141 198 252 302 385 477
#     4  12  24  45  75 108 147 196 253 318 387 470
#     4  11  27  46  75 109 147 199 261 320 377 453
#
# _framework density 23.302892
#
# number of rings (size 3 to 8) (size 9 to 14) (size 15 to 20)
#    0.000    0.600    6.000    1.800    2.800    3.200 
#    0.000    2.000    0.000    0.000    0.000    0.000 
#    0.000    0.000    0.000    0.000    0.000    0.000 
#
# Total GULP energy -223390.069648 kJ/mol
# GULP energy per Si atom -5584.751741 kJ/mol
# Density = 2.324985 g / cm^3
# Si number density = 23.302892 Si / 1000 Ang^3
#
#
#
# Elastic Constant Matrix: (Units=GPa)
#
#
# Indices 1 2 3 4 5 6 
#
# 1 79.2789 132.1943 46.8384 0.0000 0.0000 0.0000
# 2 132.1943 79.2789 46.8384 0.0000 0.0000 0.0000
# 3 46.8384 46.8384 152.2329 0.0000 0.0000 0.0000
# 4 0.0000 0.0000 0.0000 27.0387 0.0000 0.0000
# 5 0.0000 0.0000 0.0000 0.0000 27.0387 0.0000
# 6 0.0000 0.0000 0.0000 0.0000 0.0000 56.8049
#
#
#
# Elastic Compliance Matrix: (Units=1/GPa)
#
#
# Indices 1 2 3 4 5 6 
#
# 1 -0.006712 0.012187 -0.001685 0.000000 0.000000 0.000000
# 2 0.012187 -0.006712 -0.001685 0.000000 0.000000 0.000000
# 3 -0.001685 -0.001685 0.007605 0.000000 0.000000 0.000000
# 4 0.000000 0.000000 0.000000 0.036984 0.000000 0.000000
# 5 0.000000 0.000000 0.000000 0.000000 0.036984 0.000000
# 6 0.000000 0.000000 0.000000 0.000000 0.000000 0.017604
#
#
# Mechanical properties :
#
#
# Convention : Reuss Voigt Hill
#
# Bulk Modulus (GPa) = 84.62187 84.72589 84.67388
# Shear Modulus (GPa) = 69.38808 27.83777 48.61292
#
# Velocity S-wave (km/s) = 5.46271 3.46006 4.57238
# Velocity P-wave (km/s) = 8.72818 7.23879 8.01814
#
# Compressibility (1/GPa) = 0.01181728
#
# Stress axis : x y z
#
# Youngs Moduli (GPa) = -148.99597 -148.99597 131.48480
#
# Poissons Ratio (x) = 1.81574 0.22149
# Poissons Ratio (y) = 1.81574 0.22149
# Poissons Ratio (z) = -0.25098 -0.25098
#
# Static dielectric constant tensor:
#      x y z
#    x 1.891220 0.000000 0.000000 
#    y 0.000000 1.891220 0.000000 
#    z 0.000000 0.000000 1.877080 
# 
# From -- ./inp_files/5296.got.cif
#   From: 2010.05.17/outbox.cif.g08.bks.cpg/sg112_3_cif.got.tgz:5296.got - 2010.05.20 10:59:04.
