data_PCOD9555377
_publ_section_title
;
Structure prediction by ZEFSAII (Michael W. Deem and Ramdas Pophale) SiO2 
 PCOD9555377
Probable space group: P -4 2 C
;
_chemical_formula_sum "Si O2"
_cell_formula_units_Z 40
_cell_length_a 8.887147
_cell_length_b 8.887147
_cell_length_c 20.063110
_cell_angle_alpha 90.000000
_cell_angle_beta 90.000000
_cell_angle_gamma 90.000000
_cell_volume 1584.612151
_symmetry_space_group_name_H-M "P -4 2 C"
_symmetry_group_IT_number 112
_symmetry_cell_setting 'tetragonal'
loop_
_space_group_symop_operation_xyz
x,y,z
y,-x,-z
-x,-y,z
-y,x,-z
x,-y,1/2-z
-x,y,1/2-z
-y,-x,1/2+z
y,x,1/2+z
loop_
_atom_site_type_symbol
_atom_site_label
_atom_site_fract_x
_atom_site_fract_y
_atom_site_fract_z
Si Si1 0.527868 0.669571 0.671025
Si Si2 0.825754 0.202571 0.398505
Si Si3 0.714146 0.617650 0.982444
Si Si4 0.724377 0.103576 0.685550
Si Si5 0.081123 0.349699 0.856074
O O1 0.500000 0.500000 0.644248
O O2 0.500000 0.657812 0.750000
O O3 0.690682 0.722539 0.648596
O O4 0.421134 0.812912 0.656092
O O5 0.816526 0.280314 0.469985
O O6 0.992025 0.206252 0.368689
O O7 0.750469 0.041329 0.394227
O O8 0.792631 0.607186 0.910872
O O9 0.691832 0.451674 0.013798
O O10 0.839566 0.241615 0.697909
O O11 0.694376 0.000000 0.750000
O O12 0.000000 0.500000 0.831302
#
# Coordination Sequence:
#
# PCOD9555377 Si02
#       5
#     8   8   8   8   8
#     4  11  24  46  78 114 148 198 267 326 390 479
#     4  12  26  45  78 113 155 208 256 336 401 491
#     4  11  26  49  80 115 154 207 272 331 400 483
#     4  12  27  51  77 114 160 209 258 331 415 493
#     4  12  27  50  75 115 160 212 269 335 416 486
#
# _framework density 25.242771000000001
#
# number of rings (size 3 to 8) (size 9 to 14) (size 15 to 20)
#    0.000    0.400    4.000    3.600    5.600    3.200 
#    0.000    1.000    0.000    0.000    0.000    0.000 
#    0.000    0.000    0.000    0.000    0.000    0.000 
#
# Total GULP energy -224154.743920 kJ/mol
# GULP energy per Si atom -5603.868598 kJ/mol
# Density = 2.518532 g / cm^3
# Si number density = 25.242771 Si / 1000 Ang^3
#
#
#
# Elastic Constant Matrix: (Units=GPa)
#
#
# Indices 1 2 3 4 5 6 
#
# 1 165.5708 64.7329 35.5661 0.0000 0.0000 0.0000
# 2 64.7329 165.5708 35.5661 0.0000 0.0000 0.0000
# 3 35.5661 35.5661 76.5362 0.0000 0.0000 0.0000
# 4 0.0000 0.0000 0.0000 29.1998 0.0000 0.0000
# 5 0.0000 0.0000 0.0000 0.0000 29.1998 0.0000
# 6 0.0000 0.0000 0.0000 0.0000 0.0000 54.6960
#
#
#
# Elastic Compliance Matrix: (Units=1/GPa)
#
#
# Indices 1 2 3 4 5 6 
#
# 1 0.007493 -0.002424 -0.002356 0.000000 0.000000 0.000000
# 2 -0.002424 0.007493 -0.002356 0.000000 0.000000 0.000000
# 3 -0.002356 -0.002356 0.015255 0.000000 0.000000 0.000000
# 4 0.000000 0.000000 0.000000 0.034247 0.000000 0.000000
# 5 0.000000 0.000000 0.000000 0.000000 0.034247 0.000000
# 6 0.000000 0.000000 0.000000 0.000000 0.000000 0.018283
#
#
# Mechanical properties :
#
#
# Convention : Reuss Voigt Hill
#
# Bulk Modulus (GPa) = 62.61278 75.48978 69.05128
# Shear Modulus (GPa) = 36.59977 40.73996 38.66986
#
# Velocity S-wave (km/s) = 3.81190 4.02173 3.91822
# Velocity P-wave (km/s) = 6.65073 7.17887 6.91984
#
# Compressibility (1/GPa) = 0.01597118
#
# Stress axis : x y z
#
# Youngs Moduli (GPa) = 133.45220 133.45220 65.55121
#
# Poissons Ratio (x) = 0.32343 0.15443
# Poissons Ratio (y) = 0.32343 0.15443
# Poissons Ratio (z) = 0.31440 0.31440
#
# Static dielectric constant tensor:
#      x y z
#    x 1.979380 0.000000 0.000000 
#    y 0.000000 1.979380 0.000000 
#    z 0.000000 0.000000 2.007990 
# 
# From -- ./inp_files/5349.got.cif
#   From: 2010.05.17/outbox.cif.g08.bks.cpg/sg112_3_cif.got.tgz:5349.got - 2010.05.20 10:59:04.
