data_PCOD9555484
_publ_section_title
;
Structure prediction by ZEFSAII (Michael W. Deem and Ramdas Pophale) SiO2 
 PCOD9555484
Probable space group: P -4 21 M 
;
_chemical_formula_sum "Si O2"
_cell_formula_units_Z 56
_cell_length_a 23.740303
_cell_length_b 23.740303
_cell_length_c 5.403965
_cell_angle_alpha 90.000000
_cell_angle_beta 90.000000
_cell_angle_gamma 90.000000
_cell_volume 3045.685409
_symmetry_space_group_name_H-M "P -4 21 M "
_symmetry_group_IT_number 113
_symmetry_cell_setting 'tetragonal'
loop_
_space_group_symop_operation_xyz
x,y,z
y,-x,-z
-x,-y,z
-y,x,-z
1/2+x,1/2-y,-z
1/2-x,1/2+y,-z
1/2-y,1/2-x,z
1/2+y,1/2+x,z
loop_
_atom_site_type_symbol
_atom_site_label
_atom_site_fract_x
_atom_site_fract_y
_atom_site_fract_z
Si Si1 0.701671 0.798330 0.465096
Si Si2 0.688340 0.338982 0.314226
Si Si3 0.831972 0.755239 0.082518
Si Si4 0.417665 0.706580 0.544627
Si Si5 0.589857 0.179153 0.272482
Si Si6 0.648781 0.851220 0.975296
Si Si7 0.198894 0.530006 0.897082
Si Si8 0.728938 0.463843 0.388808
O O1 0.686681 0.732395 0.488222
O O2 0.678700 0.821301 0.207692
O O3 0.671151 0.828850 0.706450
O O4 0.622510 0.326670 0.357878
O O5 0.700303 0.404880 0.318949
O O6 0.702571 0.300156 0.079285
O O7 0.788517 0.711484 0.211296
O O8 0.878106 0.792869 0.218923
O O9 0.870152 0.713724 0.914558
O O10 0.419705 0.773399 0.480071
O O11 0.482243 0.689187 0.559083
O O12 0.624407 0.124407 0.353435
O O13 0.528582 0.167236 0.159415
O O14 0.583084 0.837860 0.017469
O O15 0.233588 0.543825 0.641272
O O16 0.238047 0.519630 0.137176
#
# Coordination Sequence:
#
# PCOD9555484 Si02
#       8
#     4   8   8   8   8   4   8   8
#     4  12  24  36  56  90 125 152 188 235 318 358
#     4  11  23  35  55  89 120 152 191 247 294 361
#     4  10  19  31  53  83 117 146 187 237 299 353
#     4  10  22  36  57  85 117 157 196 243 297 358
#     4   9  19  36  53  79 115 158 200 241 290 342
#     4  12  22  38  57  86 120 162 194 242 290 361
#     4  11  21  38  57  83 116 160 203 237 291 354
#     4  11  23  41  58  82 121 160 198 236 295 365
#
# _framework density 18.386666000000002
#
# number of rings (size 3 to 8) (size 9 to 14) (size 15 to 20)
#    0.000    1.429    5.000    0.429    6.000    0.000 
#    0.000    0.357    0.000    0.429    0.000    3.000 
#    0.000    0.000    0.000    0.000    0.000    0.000 
#
# Total GULP energy -311753.943192 kJ/mol
# GULP energy per Si atom -5567.034700 kJ/mol
# Density = 1.834482 g / cm^3
# Si number density = 18.386666 Si / 1000 Ang^3
#
#
#
# Elastic Constant Matrix: (Units=GPa)
#
#
# Indices 1 2 3 4 5 6 
#
# 1 78.3413 47.6641 1.5582 0.0000 0.0000 0.0000
# 2 47.6641 78.3450 1.5599 0.0000 0.0000 0.0000
# 3 1.5582 1.5599 59.6170 0.0000 0.0000 0.0000
# 4 0.0000 0.0000 0.0000 20.5988 0.0000 0.0000
# 5 0.0000 0.0000 0.0000 0.0000 20.5994 0.0000
# 6 0.0000 0.0000 0.0000 0.0000 0.0000 20.9050
#
#
#
# Elastic Compliance Matrix: (Units=1/GPa)
#
#
# Indices 1 2 3 4 5 6 
#
# 1 0.020269 -0.012327 -0.000207 0.000000 0.000000 0.000000
# 2 -0.012327 0.020268 -0.000208 0.000000 0.000000 0.000000
# 3 -0.000207 -0.000208 0.016785 0.000000 0.000000 0.000000
# 4 0.000000 0.000000 0.000000 0.048546 0.000000 0.000000
# 5 0.000000 0.000000 0.000000 0.000000 0.048545 0.000000
# 6 0.000000 0.000000 0.000000 0.000000 0.000000 0.047835
#
#
# Mechanical properties :
#
#
# Convention : Reuss Voigt Hill
#
# Bulk Modulus (GPa) = 31.41068 35.31863 33.36465
# Shear Modulus (GPa) = 20.97793 23.45537 22.21665
#
# Velocity S-wave (km/s) = 3.38143 3.57553 3.47984
# Velocity P-wave (km/s) = 5.68911 6.02465 5.85928
#
# Compressibility (1/GPa) = 0.03183631
#
# Stress axis : x y z
#
# Youngs Moduli (GPa) = 49.33677 49.33902 59.57839
#
# Poissons Ratio (x) = 0.60821 0.01235
# Poissons Ratio (y) = 0.60818 0.01240
# Poissons Ratio (z) = 0.01022 0.01027
#
# Static dielectric constant tensor:
#      x y z
#    x 1.653010 0.000000 0.000000 
#    y 0.000000 1.653010 0.000000 
#    z 0.000000 0.000000 1.751980 
# 
# From -- ./inp_files/587.got.cif
#   From: 2010.05.17/outbox.cif.g08.bks.cpg/sg113_cif.got.tgz:587.got - 2010.05.20 11:03:00.
