data_PCOD9555656
_publ_section_title
;
Structure prediction by ZEFSAII (Michael W. Deem and Ramdas Pophale) SiO2 
 PCOD9555656
Probable space group: P -4 21 M 
;
_chemical_formula_sum "Si O2"
_cell_formula_units_Z 56
_cell_length_a 22.920199
_cell_length_b 22.920199
_cell_length_c 6.108457
_cell_angle_alpha 90.000000
_cell_angle_beta 90.000000
_cell_angle_gamma 90.000000
_cell_volume 3208.989448
_symmetry_space_group_name_H-M "P -4 21 M "
_symmetry_group_IT_number 113
_symmetry_cell_setting 'tetragonal'
loop_
_space_group_symop_operation_xyz
x,y,z
y,-x,-z
-x,-y,z
-y,x,-z
1/2+x,1/2-y,-z
1/2-x,1/2+y,-z
1/2-y,1/2-x,z
1/2+y,1/2+x,z
loop_
_atom_site_type_symbol
_atom_site_label
_atom_site_fract_x
_atom_site_fract_y
_atom_site_fract_z
Si Si1 0.799275 0.104723 0.792406
Si Si2 0.207262 0.386733 0.823730
Si Si3 0.813388 0.920301 0.651864
Si Si4 0.759518 0.017134 0.413204
Si Si5 0.423303 0.539099 0.599351
Si Si6 0.698664 0.292854 0.449944
Si Si7 0.992612 0.854842 0.971364
O O1 0.785078 0.060365 0.596300
O O2 0.806652 0.167718 0.682821
O O3 0.743230 0.106389 0.951759
O O4 0.851840 0.071953 0.920118
O O5 0.146372 0.353629 0.853227
O O6 0.205741 0.448666 0.696779
O O7 0.248427 0.344230 0.677652
O O8 0.869446 0.923423 0.489284
O O9 0.798617 0.853005 0.683596
O O10 0.760424 0.954801 0.532576
O O11 0.833059 0.957557 0.862318
O O12 0.806519 0.012222 0.219874
O O13 0.483789 0.571996 0.565929
O O14 0.411580 0.512250 0.837651
O O15 0.759451 0.259451 0.476850
#
# Coordination Sequence:
#
# PCOD9555656 Si02
#       7
#     8   8   8   8   8   8   8
#     4   9  17  31  54  71  97 126 168 213 267 318
#     4   9  17  29  49  74 100 129 163 210 261 309
#     4  10  21  33  53  67  97 141 172 218 267 304
#     4   8  17  33  46  71  95 125 167 200 247 313
#     4  10  23  37  48  71 100 130 186 233 265 306
#     4  10  21  34  50  77 103 132 179 225 267 325
#     4   9  19  35  51  68  90 134 174 215 270 316
#
# _framework density 17.450977000000002
#
# number of rings (size 3 to 8) (size 9 to 14) (size 15 to 20)
#    0.000    2.714    0.000    0.429   12.000    4.000 
#    0.000    1.429    0.000    0.000    0.000    0.000 
#    0.000    0.571    0.000    1.429    0.000    0.571 
#
# Total GULP energy -312115.027770 kJ/mol
# GULP energy per Si atom -5573.482639 kJ/mol
# Density = 1.741126 g / cm^3
# Si number density = 17.450977 Si / 1000 Ang^3
#
#
#
# Elastic Constant Matrix: (Units=GPa)
#
#
# Indices 1 2 3 4 5 6 
#
# 1 53.7974 27.0413 16.5467 0.0000 0.0000 0.0000
# 2 27.0413 53.7955 16.5461 0.0000 0.0000 0.0000
# 3 16.5467 16.5461 76.2872 0.0000 0.0000 0.0000
# 4 0.0000 0.0000 0.0000 16.3051 0.0000 0.0000
# 5 0.0000 0.0000 0.0000 0.0000 16.3052 0.0000
# 6 0.0000 0.0000 0.0000 0.0000 0.0000 32.5731
#
#
#
# Elastic Compliance Matrix: (Units=1/GPa)
#
#
# Indices 1 2 3 4 5 6 
#
# 1 0.025475 -0.011900 -0.002945 0.000000 0.000000 0.000000
# 2 -0.011900 0.025476 -0.002944 0.000000 0.000000 0.000000
# 3 -0.002945 -0.002944 0.014386 0.000000 0.000000 0.000000
# 4 0.000000 0.000000 0.000000 0.061331 0.000000 0.000000
# 5 0.000000 0.000000 0.000000 0.000000 0.061330 0.000000
# 6 0.000000 0.000000 0.000000 0.000000 0.000000 0.030700
#
#
# Mechanical properties :
#
#
# Convention : Reuss Voigt Hill
#
# Bulk Modulus (GPa) = 33.60303 33.79426 33.69864
# Shear Modulus (GPa) = 18.92530 21.28641 20.10586
#
# Velocity S-wave (km/s) = 3.29672 3.49633 3.39799
# Velocity P-wave (km/s) = 5.81280 5.97548 5.89470
#
# Compressibility (1/GPa) = 0.02975922
#
# Stress axis : x y z
#
# Youngs Moduli (GPa) = 39.25343 39.25209 69.51356
#
# Poissons Ratio (x) = 0.46710 0.20469
# Poissons Ratio (y) = 0.46712 0.20468
# Poissons Ratio (z) = 0.11559 0.11558
#
# Static dielectric constant tensor:
#      x y z
#    x 1.614760 0.000000 0.000000 
#    y 0.000000 1.614760 0.000000 
#    z 0.000000 0.000000 1.668010 
# 
# From -- ./inp_files/576.got.cif
#   From: 2010.05.17/outbox.cif.g08.bks.cpg/sg113_cif.got.tgz:576.got - 2010.05.20 11:03:00.
