data_PCOD9555454
_publ_section_title
;
Structure prediction by ZEFSAII (Michael W. Deem and Ramdas Pophale) SiO2 
 PCOD9555454
Probable space group: P -4 21 M 
;
_chemical_formula_sum "Si O2"
_cell_formula_units_Z 40
_cell_length_a 13.795089
_cell_length_b 13.795089
_cell_length_c 9.995891
_cell_angle_alpha 90.000000
_cell_angle_beta 90.000000
_cell_angle_gamma 90.000000
_cell_volume 1902.262844
_symmetry_space_group_name_H-M "P -4 21 M "
_symmetry_group_IT_number 113
_symmetry_cell_setting 'tetragonal'
loop_
_space_group_symop_operation_xyz
x,y,z
y,-x,-z
-x,-y,z
-y,x,-z
1/2+x,1/2-y,-z
1/2-x,1/2+y,-z
1/2-y,1/2-x,z
1/2+y,1/2+x,z
loop_
_atom_site_type_symbol
_atom_site_label
_atom_site_fract_x
_atom_site_fract_y
_atom_site_fract_z
Si Si1 0.817944 0.844092 0.783348
Si Si2 0.491277 0.155440 0.003088
Si Si3 0.956747 0.155771 0.471682
Si Si4 0.463536 0.274299 0.256999
Si Si5 0.855022 0.806536 0.087373
O O1 0.737790 0.762211 0.755996
O O2 0.807307 0.930250 0.676046
O O3 0.925230 0.805142 0.751889
O O4 0.824223 0.853641 0.944513
O O5 0.575609 0.075609 0.018223
O O6 0.547134 0.244792 0.933270
O O7 0.400439 0.099562 0.935297
O O8 0.457568 0.188897 0.149695
O O9 0.940574 0.235982 0.587113
O O10 0.064839 0.112584 0.487816
O O11 0.391996 0.355432 0.194526
O O12 0.770852 0.729148 0.123244
#
# Coordination Sequence:
#
# PCOD9555454 Si02
#       5
#     8   8   8   8   8
#     4   9  19  35  52  74 108 144 178 223 280 334
#     4   9  18  33  52  77 112 149 183 226 280 331
#     4   9  19  34  51  74 106 143 181 224 276 328
#     4  10  18  31  53  79 106 137 183 230 268 320
#     4   9  18  31  49  77 105 133 178 227 269 319
#
# _framework density 21.027588000000002
#
# number of rings (size 3 to 8) (size 9 to 14) (size 15 to 20)
#    0.000    2.800    0.000    2.400    0.000    4.800 
#    0.000    4.000    0.000    0.000    0.000    2.800 
#    0.000   46.400    0.000    0.000    0.000    0.000 
#
# Total GULP energy -222850.355469 kJ/mol
# GULP energy per Si atom -5571.258887 kJ/mol
# Density = 2.097973 g / cm^3
# Si number density = 21.027588 Si / 1000 Ang^3
#
#
#
# Elastic Constant Matrix: (Units=GPa)
#
#
# Indices 1 2 3 4 5 6 
#
# 1 68.1304 43.7157 21.1100 0.0000 0.0000 0.0000
# 2 43.7157 68.1276 21.1097 0.0000 0.0000 0.0000
# 3 21.1100 21.1097 103.8281 0.0000 0.0000 0.0000
# 4 0.0000 0.0000 0.0000 -178.2711 0.0000 0.0000
# 5 0.0000 0.0000 0.0000 0.0000 -178.6909 0.0000
# 6 0.0000 0.0000 0.0000 0.0000 0.0000 31.4928
#
#
#
# Elastic Compliance Matrix: (Units=1/GPa)
#
#
# Indices 1 2 3 4 5 6 
#
# 1 0.025322 -0.015639 -0.001969 0.000000 0.000000 0.000000
# 2 -0.015639 0.025323 -0.001969 0.000000 0.000000 0.000000
# 3 -0.001969 -0.001969 0.010432 0.000000 0.000000 0.000000
# 4 0.000000 0.000000 0.000000 -0.005609 0.000000 0.000000
# 5 0.000000 0.000000 0.000000 0.000000 -0.005596 0.000000
# 6 0.000000 0.000000 0.000000 0.000000 0.000000 0.031753
#
#
# Mechanical properties :
#
#
# Convention : Reuss Voigt Hill
#
# Bulk Modulus (GPa) = 45.61095 45.77302 45.69198
# Shear Modulus (GPa) = 39.03623 -54.81713 -7.89045
#
# Velocity S-wave (km/s) = 4.31330 -5.11133 -1.93922
# Velocity P-wave (km/s) = 6.82233 3.60818 4.09422
#
# Compressibility (1/GPa) = 0.02192456
#
# Stress axis : x y z
#
# Youngs Moduli (GPa) = 39.49102 39.48933 95.85948
#
# Poissons Ratio (x) = 0.61756 0.18874
# Poissons Ratio (y) = 0.61758 0.18875
# Poissons Ratio (z) = 0.07775 0.07776
#
# Static dielectric constant tensor:
#      x y z
#    x 1.805790 0.000000 0.000000 
#    y 0.000000 1.805830 0.000000 
#    z 0.000000 0.000000 1.781040 
# 
# From -- ./inp_files/1010.got.cif
#   From: 2010.05.17/outbox.cif.g08.bks.cpg/sg113_cif.got.tgz:1010.got - 2010.05.20 11:03:00.
