data_PCOD9555362
_publ_section_title
;
Structure prediction by ZEFSAII (Michael W. Deem and Ramdas Pophale) SiO2 
 PCOD9555362
Probable space group: P -4 2 C
;
_chemical_formula_sum "Si O2"
_cell_formula_units_Z 46
_cell_length_a 11.916502
_cell_length_b 11.916502
_cell_length_c 16.849683
_cell_angle_alpha 90.000000
_cell_angle_beta 90.000000
_cell_angle_gamma 90.000000
_cell_volume 2392.705871
_symmetry_space_group_name_H-M "P -4 2 C"
_symmetry_group_IT_number 112
_symmetry_cell_setting 'tetragonal'
loop_
_space_group_symop_operation_xyz
x,y,z
y,-x,-z
-x,-y,z
-y,x,-z
x,-y,1/2-z
-x,y,1/2-z
-y,-x,1/2+z
y,x,1/2+z
loop_
_atom_site_type_symbol
_atom_site_label
_atom_site_fract_x
_atom_site_fract_y
_atom_site_fract_z
Si Si1 0.427338 0.104109 0.586365
Si Si2 0.969452 0.817209 0.122937
Si Si3 0.325391 0.447071 0.980136
Si Si4 0.000000 0.000000 0.500000
Si Si5 0.500000 0.778115 0.750000
Si Si6 0.707360 0.617513 0.797439
Si Si7 0.818759 0.130003 0.227793
O O1 0.304621 0.050652 0.589226
O O2 0.433832 0.212800 0.530807
O O3 0.468896 0.145477 0.673794
O O4 0.500000 0.000000 0.557253
O O5 0.884976 0.821346 0.196807
O O6 0.094793 0.844817 0.155438
O O7 0.942610 0.909643 0.057113
O O8 0.370375 0.574652 0.984668
O O9 0.306807 0.411699 0.889677
O O10 0.603369 0.695727 0.770225
O O11 0.711648 0.500000 0.750000
O O12 0.813999 0.698598 0.785007
O O13 0.809437 0.000000 0.250000
#
# Coordination Sequence:
#
# PCOD9555362 Si02
#       7
#     8   8   8   2   4   8   8
#     4  12  26  42  70 106 141 172 234 297 351 407
#     4  11  24  42  69 101 129 180 230 288 339 408
#     4  11  26  47  68 100 143 184 227 288 352 422
#     4  12  24  42  72  96 132 182 240 276 360 410
#     4  12  22  46  72 102 132 180 236 288 340 418
#     4  12  26  44  73 100 134 186 233 277 348 423
#     4  11  23  47  68  94 140 179 229 281 341 417
#
# _framework density 19.225097000000002
#
# number of rings (size 3 to 8) (size 9 to 14) (size 15 to 20)
#    0.000    0.522    5.217    3.130    7.304    0.348 
#    3.130    0.000    0.000    0.000    0.000    0.000 
#    0.000    0.000    0.000    0.000    0.000    0.000 
#
# Total GULP energy -257101.224517 kJ/mol
# GULP energy per Si atom -5589.157055 kJ/mol
# Density = 1.918134 g / cm^3
# Si number density = 19.225097 Si / 1000 Ang^3
#
#
#
# Elastic Constant Matrix: (Units=GPa)
#
#
# Indices 1 2 3 4 5 6 
#
# 1 130.5059 62.4807 20.2000 0.0000 0.0000 0.0000
# 2 62.4807 130.5059 20.2000 0.0000 0.0000 0.0000
# 3 20.2000 20.2000 61.5654 0.0000 0.0000 0.0000
# 4 0.0000 0.0000 0.0000 5.6692 0.0000 0.0000
# 5 0.0000 0.0000 0.0000 0.0000 5.6692 0.0000
# 6 0.0000 0.0000 0.0000 0.0000 0.0000 19.6092
#
#
#
# Elastic Compliance Matrix: (Units=1/GPa)
#
#
# Indices 1 2 3 4 5 6 
#
# 1 0.010132 -0.004568 -0.001826 0.000000 0.000000 0.000000
# 2 -0.004568 0.010132 -0.001826 0.000000 0.000000 0.000000
# 3 -0.001826 -0.001826 0.017441 0.000000 0.000000 0.000000
# 4 0.000000 0.000000 0.000000 0.176393 0.000000 0.000000
# 5 0.000000 0.000000 0.000000 0.000000 0.176393 0.000000
# 6 0.000000 0.000000 0.000000 0.000000 0.000000 0.050996
#
#
# Mechanical properties :
#
#
# Convention : Reuss Voigt Hill
#
# Bulk Modulus (GPa) = 47.02250 58.70427 52.86338
# Shear Modulus (GPa) = 10.75235 20.83594 15.79414
#
# Velocity S-wave (km/s) = 2.36749 3.29567 2.86936
# Velocity P-wave (km/s) = 5.65556 6.71442 6.20761
#
# Compressibility (1/GPa) = 0.02126641
#
# Stress axis : x y z
#
# Youngs Moduli (GPa) = 98.69570 98.69570 57.33669
#
# Poissons Ratio (x) = 0.45087 0.10467
# Poissons Ratio (y) = 0.45087 0.10467
# Poissons Ratio (z) = 0.18017 0.18017
#
# Static dielectric constant tensor:
#      x y z
#    x 1.720450 0.000000 0.000000 
#    y 0.000000 1.720450 0.000000 
#    z 0.000000 0.000000 1.671050 
# 
# From -- ./inp_files/4176.got.cif
#   From: 2010.05.17/outbox.cif.g08.bks.cpg/sg112_3_cif.got.tgz:4176.got - 2010.05.20 10:59:04.
