data_PCOD9555725
_publ_section_title
;
Structure prediction by ZEFSAII (Michael W. Deem and Ramdas Pophale) SiO2 
 PCOD9555725
Probable space group: P -4 21 M 
;
_chemical_formula_sum "Si O2"
_cell_formula_units_Z 34
_cell_length_a 12.858761
_cell_length_b 12.858761
_cell_length_c 10.894489
_cell_angle_alpha 90.000000
_cell_angle_beta 90.000000
_cell_angle_gamma 90.000000
_cell_volume 1801.379074
_symmetry_space_group_name_H-M "P -4 21 M "
_symmetry_group_IT_number 113
_symmetry_cell_setting 'tetragonal'
loop_
_space_group_symop_operation_xyz
x,y,z
y,-x,-z
-x,-y,z
-y,x,-z
1/2+x,1/2-y,-z
1/2-x,1/2+y,-z
1/2-y,1/2-x,z
1/2+y,1/2+x,z
loop_
_atom_site_type_symbol
_atom_site_label
_atom_site_fract_x
_atom_site_fract_y
_atom_site_fract_z
Si Si1 0.353947 0.853947 0.462160
Si Si2 0.044751 0.133803 0.571910
Si Si3 0.000000 0.000000 0.000000
Si Si4 0.148652 0.351348 0.254673
Si Si5 0.859633 0.891166 0.190916
Si Si6 0.625590 0.874411 0.107290
Si Si7 0.500000 0.000000 0.904412
Si Si8 0.000000 0.500000 0.693519
O O1 0.236287 0.886199 0.432516
O O2 0.373392 0.873392 0.604374
O O3 0.427784 0.927784 0.386118
O O4 0.963600 0.120773 0.457466
O O5 0.974471 0.134156 0.695958
O O6 0.945446 0.918640 0.090318
O O7 0.129812 0.228076 0.233704
O O8 0.075602 0.424399 0.172562
O O9 0.747615 0.896757 0.123907
O O10 0.571240 0.928761 0.222343
O O11 0.573111 0.926889 0.989303
#
# Coordination Sequence:
#
# PCOD9555725 Si02
#       8
#     4   8   2   4   8   4   2   2
#     4  12  23  39  70 100 131 173 222 265 340 410
#     4  11  23  42  67  97 138 174 214 278 334 395
#     4  12  24  40  70  96 128 180 236 270 324 396
#     4  11  24  43  65  95 138 172 218 284 341 395
#     4  11  23  42  66  94 131 179 225 273 332 402
#     4  10  22  41  65  90 129 176 221 277 334 396
#     4  11  23  44  64  92 135 169 220 288 336 383
#     4  11  21  38  64  96 131 171 218 270 338 401
#
# _framework density 18.874428000000002
#
# number of rings (size 3 to 8) (size 9 to 14) (size 15 to 20)
#    0.000    0.941    4.706    3.176    0.000    0.941 
#    0.000    1.176    0.000    0.000    0.000    0.000 
#    0.000    0.000    0.000    0.000    0.000    0.000 
#
# Total GULP energy -189788.904261 kJ/mol
# GULP energy per Si atom -5582.026596 kJ/mol
# Density = 1.883147 g / cm^3
# Si number density = 18.874428 Si / 1000 Ang^3
#
#
#
# Elastic Constant Matrix: (Units=GPa)
#
#
# Indices 1 2 3 4 5 6 
#
# 1 96.8068 47.9994 33.7033 0.0000 0.0000 0.0000
# 2 47.9994 96.8062 33.7039 0.0000 0.0000 0.0000
# 3 33.7033 33.7039 105.4576 0.0000 0.0000 0.0000
# 4 0.0000 0.0000 0.0000 50.5570 0.0000 0.0000
# 5 0.0000 0.0000 0.0000 0.0000 50.5564 0.0000
# 6 0.0000 0.0000 0.0000 0.0000 0.0000 44.0065
#
#
#
# Elastic Compliance Matrix: (Units=1/GPa)
#
#
# Indices 1 2 3 4 5 6 
#
# 1 0.014301 -0.006188 -0.002593 0.000000 0.000000 0.000000
# 2 -0.006188 0.014301 -0.002593 0.000000 0.000000 0.000000
# 3 -0.002593 -0.002593 0.011140 0.000000 0.000000 0.000000
# 4 0.000000 0.000000 0.000000 0.019780 0.000000 0.000000
# 5 0.000000 0.000000 0.000000 0.000000 0.019780 0.000000
# 6 0.000000 0.000000 0.000000 0.000000 0.000000 0.022724
#
#
# Mechanical properties :
#
#
# Convention : Reuss Voigt Hill
#
# Bulk Modulus (GPa) = 58.84393 58.87598 58.85995
# Shear Modulus (GPa) = 38.33279 41.26825 39.80052
#
# Velocity S-wave (km/s) = 4.51148 4.68104 4.59704
# Velocity P-wave (km/s) = 7.64082 7.77672 7.70907
#
# Compressibility (1/GPa) = 0.01699411
#
# Stress axis : x y z
#
# Youngs Moduli (GPa) = 69.92672 69.92592 89.76859
#
# Poissons Ratio (x) = 0.43270 0.23274
# Poissons Ratio (y) = 0.43271 0.23276
# Poissons Ratio (z) = 0.18130 0.18131
#
# Static dielectric constant tensor:
#      x y z
#    x 1.655130 0.000000 0.000000 
#    y 0.000000 1.655140 0.000000 
#    z 0.000000 0.000000 1.640630 
# 
# From -- ./inp_files/1703.got.cif
#   From: 2010.05.17/outbox.cif.g08.bks.cpg/sg113_cif.got.tgz:1703.got - 2010.05.20 11:03:00.
