data_PCOD9555227
_publ_section_title
;
Structure prediction by ZEFSAII (Michael W. Deem and Ramdas Pophale) SiO2 
 PCOD9555227
Probable space group: P -4 2 C
;
_chemical_formula_sum "Si O2"
_cell_formula_units_Z 48
_cell_length_a 8.919477
_cell_length_b 8.919477
_cell_length_c 31.475054
_cell_angle_alpha 90.000000
_cell_angle_beta 90.000000
_cell_angle_gamma 90.000000
_cell_volume 2504.063073
_symmetry_space_group_name_H-M "P -4 2 C"
_symmetry_group_IT_number 112
_symmetry_cell_setting 'tetragonal'
loop_
_space_group_symop_operation_xyz
x,y,z
y,-x,-z
-x,-y,z
-y,x,-z
x,-y,1/2-z
-x,y,1/2-z
-y,-x,1/2+z
y,x,1/2+z
loop_
_atom_site_type_symbol
_atom_site_label
_atom_site_fract_x
_atom_site_fract_y
_atom_site_fract_z
Si Si1 0.842080 0.809652 0.175755
Si Si2 0.339966 0.511570 0.326059
Si Si3 0.310695 0.871493 0.622231
Si Si4 0.980088 0.322363 0.608095
Si Si5 0.000000 0.500000 0.045976
Si Si6 0.000000 0.000000 0.750000
Si Si7 0.500000 0.500000 0.250000
Si Si8 0.237298 0.031810 0.488216
O O1 0.723350 0.675824 0.185241
O O2 0.902053 0.895115 0.217873
O O3 0.985151 0.751635 0.148078
O O4 0.757681 0.919337 0.143357
O O5 0.500000 0.500000 0.350737
O O6 0.205701 0.435298 0.349367
O O7 0.389575 0.422457 0.283341
O O8 0.184052 0.746668 0.615290
O O9 0.391704 0.912866 0.578336
O O10 0.016565 0.276698 0.559574
O O11 0.000000 0.500000 0.612234
O O12 0.081859 0.384245 0.014206
O O13 0.111489 0.159855 0.489526
#
# Coordination Sequence:
#
# PCOD9555227 Si02
#       8
#     8   8   8   8   4   2   2   8
#     4  12  25  45  68  99 134 180 230 288 336 417
#     4  10  23  43  67  96 130 178 219 285 341 409
#     4  12  23  44  69  98 135 183 227 284 346 407
#     4  12  25  44  67  97 139 180 225 281 355 410
#     4  12  22  42  66 103 132 175 234 280 342 408
#     4  12  28  40  72 104 142 172 256 280 344 416
#     4   8  24  40  62  94 136 166 234 262 360 404
#     4  11  24  40  68  97 133 178 228 286 336 410
#
# _framework density 19.168845999999998
#
# number of rings (size 3 to 8) (size 9 to 14) (size 15 to 20)
#    0.500    0.167    5.833    2.000    4.667    0.000 
#    0.000    0.000    0.000    0.000    0.000    0.000 
#    0.000    0.000    0.000    0.000    0.000    0.000 
#
# Total GULP energy -267293.074705 kJ/mol
# GULP energy per Si atom -5568.605723 kJ/mol
# Density = 1.912522 g / cm^3
# Si number density = 19.168846 Si / 1000 Ang^3
#
#
#
# Elastic Constant Matrix: (Units=GPa)
#
#
# Indices 1 2 3 4 5 6 
#
# 1 116.3223 51.9386 53.0636 0.0000 0.0000 0.0000
# 2 51.9386 116.3223 53.0636 0.0000 0.0000 0.0000
# 3 53.0636 53.0636 137.4096 0.0000 0.0000 0.0000
# 4 0.0000 0.0000 0.0000 69.5048 0.0000 0.0000
# 5 0.0000 0.0000 0.0000 0.0000 69.5048 0.0000
# 6 0.0000 0.0000 0.0000 0.0000 0.0000 27.3294
#
#
#
# Elastic Compliance Matrix: (Units=1/GPa)
#
#
# Indices 1 2 3 4 5 6 
#
# 1 0.011694 -0.003838 -0.003034 0.000000 0.000000 0.000000
# 2 -0.003838 0.011694 -0.003034 0.000000 0.000000 0.000000
# 3 -0.003034 -0.003034 0.009621 0.000000 0.000000 0.000000
# 4 0.000000 0.000000 0.000000 0.014387 0.000000 0.000000
# 5 0.000000 0.000000 0.000000 0.000000 0.014387 0.000000
# 6 0.000000 0.000000 0.000000 0.000000 0.000000 0.036591
#
#
# Mechanical properties :
#
#
# Convention : Reuss Voigt Hill
#
# Bulk Modulus (GPa) = 75.76785 76.24284 76.00535
# Shear Modulus (GPa) = 40.78768 47.40034 44.09401
#
# Velocity S-wave (km/s) = 4.61782 4.97810 4.80134
# Velocity P-wave (km/s) = 8.24893 8.53831 8.39486
#
# Compressibility (1/GPa) = 0.01319821
#
# Stress axis : x y z
#
# Youngs Moduli (GPa) = 85.51125 85.51125 103.94080
#
# Poissons Ratio (x) = 0.32815 0.31536
# Poissons Ratio (y) = 0.32815 0.31536
# Poissons Ratio (z) = 0.25945 0.25945
#
# Static dielectric constant tensor:
#      x y z
#    x 1.635730 0.000000 0.000000 
#    y 0.000000 1.635730 0.000000 
#    z 0.000000 0.000000 1.692430 
# 
# From -- ./inp_files/6376.got.cif
#   From: 2010.05.17/outbox.cif.g08.bks.cpg/sg112_4_cif.got.tgz:6376.got - 2010.05.20 10:59:04.
