data_PCOD9555264
_publ_section_title
;
Structure prediction by ZEFSAII (Michael W. Deem and Ramdas Pophale) SiO2 
 PCOD9555264
Probable space group: P -4 2 C
;
_chemical_formula_sum "Si O2"
_cell_formula_units_Z 22
_cell_length_a 5.326609
_cell_length_b 5.326609
_cell_length_c 29.329715
_cell_angle_alpha 90.000000
_cell_angle_beta 90.000000
_cell_angle_gamma 90.000000
_cell_volume 832.165065
_symmetry_space_group_name_H-M "P -4 2 C"
_symmetry_group_IT_number 112
_symmetry_cell_setting 'tetragonal'
loop_
_space_group_symop_operation_xyz
x,y,z
y,-x,-z
-x,-y,z
-y,x,-z
x,-y,1/2-z
-x,y,1/2-z
-y,-x,1/2+z
y,x,1/2+z
loop_
_atom_site_type_symbol
_atom_site_label
_atom_site_fract_x
_atom_site_fract_y
_atom_site_fract_z
Si Si1 0.500000 0.500000 0.000000
Si Si2 0.105663 0.752768 0.698623
Si Si3 0.252920 0.174176 0.072949
Si Si4 0.500000 0.500000 0.848504
O O1 0.287148 0.364250 0.030551
O O2 0.391680 0.704385 0.688078
O O3 0.000000 0.500000 0.676948
O O4 0.000000 0.753223 0.750000
O O5 0.000000 0.000000 0.676745
O O6 0.316214 0.351160 0.116582
O O7 0.500000 0.000000 0.070356
O O8 0.000000 0.000000 0.073170
#
# Coordination Sequence:
#
# PCOD9555264 Si02
#       4
#     2   8   8   4
#     4  10  28  48  84 114 156 210 268 346 412 524
#     4  10  24  46  74 111 154 211 278 350 411 497
#     4  11  28  50  80 120 163 216 274 344 427 517
#     4  11  26  50  78 115 166 220 276 351 429 507
#
# _framework density 26.437062000000001
#
# number of rings (size 3 to 8) (size 9 to 14) (size 15 to 20)
#    0.000    1.455    0.000    1.091    5.091   17.455 
#    0.000   20.000    0.000    0.000    0.000    0.000 
#    0.000    0.000    0.000    0.000    0.000    0.000 
#
# Total GULP energy -122688.998286 kJ/mol
# GULP energy per Si atom -5576.772649 kJ/mol
# Density = 2.637689 g / cm^3
# Si number density = 26.437062 Si / 1000 Ang^3
#
#
#
# Elastic Constant Matrix: (Units=GPa)
#
#
# Indices 1 2 3 4 5 6 
#
# 1 182.8823 78.9270 67.5705 0.0000 0.0000 0.0000
# 2 78.9270 182.8823 67.5705 0.0000 0.0000 0.0000
# 3 67.5705 67.5705 201.0486 0.0000 0.0000 0.0000
# 4 0.0000 0.0000 0.0000 10.3715 0.0000 0.0000
# 5 0.0000 0.0000 0.0000 0.0000 10.3715 0.0000
# 6 0.0000 0.0000 0.0000 0.0000 0.0000-1051.4842
#
#
#
# Elastic Compliance Matrix: (Units=1/GPa)
#
#
# Indices 1 2 3 4 5 6 
#
# 1 0.007120 -0.002499 -0.001553 0.000000 0.000000 0.000000
# 2 -0.002499 0.007120 -0.001553 0.000000 0.000000 0.000000
# 3 -0.001553 -0.001553 0.006018 0.000000 0.000000 0.000000
# 4 0.000000 0.000000 0.000000 0.096418 0.000000 0.000000
# 5 0.000000 0.000000 0.000000 0.000000 0.096418 0.000000
# 6 0.000000 0.000000 0.000000 0.000000 0.000000 -0.000951
#
#
# Mechanical properties :
#
#
# Convention : Reuss Voigt Hill
#
# Bulk Modulus (GPa) = 110.52372 110.54990 110.53681
# Shear Modulus (GPa) = 22.08773 -182.63189 -80.27208
#
# Velocity S-wave (km/s) = 2.89361 -8.32056 -5.51628
# Velocity P-wave (km/s) = 7.28430 7.09943 1.15307
#
# Compressibility (1/GPa) = 0.00904783
#
# Stress axis : x y z
#
# Youngs Moduli (GPa) = 140.44143 140.44143 166.16998
#
# Poissons Ratio (x) = 0.35098 0.25809
# Poissons Ratio (y) = 0.35098 0.25809
# Poissons Ratio (z) = 0.21813 0.21813
#
# Static dielectric constant tensor:
#      x y z
#    x 3.713630 0.000000 0.000000 
#    y 0.000000 3.713630 0.000000 
#    z 0.000000 0.000000 16.801210 
# 
# From -- ./inp_files/6067.got.cif
#   From: 2010.05.17/outbox.cif.g08.bks.cpg/sg112_4_cif.got.tgz:6067.got - 2010.05.20 10:59:04.
