data_PCOD9555786
_publ_section_title
;
Structure prediction by ZEFSAII (Michael W. Deem and Ramdas Pophale) SiO2 
 PCOD9555786
Probable space group: P -4 21 M 
;
_chemical_formula_sum "Si O2"
_cell_formula_units_Z 32
_cell_length_a 11.924558
_cell_length_b 11.924558
_cell_length_c 11.045696
_cell_angle_alpha 90.000000
_cell_angle_beta 90.000000
_cell_angle_gamma 90.000000
_cell_volume 1570.643665
_symmetry_space_group_name_H-M "P -4 21 M "
_symmetry_group_IT_number 113
_symmetry_cell_setting 'tetragonal'
loop_
_space_group_symop_operation_xyz
x,y,z
y,-x,-z
-x,-y,z
-y,x,-z
1/2+x,1/2-y,-z
1/2-x,1/2+y,-z
1/2-y,1/2-x,z
1/2+y,1/2+x,z
loop_
_atom_site_type_symbol
_atom_site_label
_atom_site_fract_x
_atom_site_fract_y
_atom_site_fract_z
Si Si1 0.179869 0.966462 0.034298
Si Si2 0.595445 0.095445 0.895838
Si Si3 0.904035 0.595966 0.382860
Si Si4 0.764888 0.923215 0.517929
Si Si5 0.123172 0.962038 0.298547
O O1 0.197031 0.955026 0.178619
O O2 0.293354 0.948062 0.961604
O O3 0.087260 0.874324 0.995304
O O4 0.622512 0.122512 0.755942
O O5 0.500000 0.000000 0.898795
O O6 0.799922 0.538462 0.449107
O O7 0.000000 0.500000 0.380727
O O8 0.673648 0.826353 0.500178
O O9 0.846607 0.890728 0.627953
O O10 0.833710 0.948559 0.396651
O O11 0.000000 0.000000 0.255974
#
# Coordination Sequence:
#
# PCOD9555786 Si02
#       5
#     8   4   4   8   8
#     4  11  25  45  68  99 134 184 233 284 343 411
#     4  11  26  45  71 102 138 180 232 283 346 412
#     4   9  22  43  65  95 132 170 218 272 332 410
#     4  11  24  40  66  97 131 176 218 276 345 398
#     4  12  23  43  64  95 133 172 229 278 332 410
#
# _framework density 20.373813999999999
#
# number of rings (size 3 to 8) (size 9 to 14) (size 15 to 20)
#    0.000    1.000    5.000    1.500    5.250    1.000 
#    0.000    1.250    0.000    0.000    0.000    0.000 
#    0.000    0.000    0.000    0.000    0.000    0.000 
#
# Total GULP energy -179053.317842 kJ/mol
# GULP energy per Si atom -5595.416183 kJ/mol
# Density = 2.032744 g / cm^3
# Si number density = 20.373814 Si / 1000 Ang^3
#
#
#
# Elastic Constant Matrix: (Units=GPa)
#
#
# Indices 1 2 3 4 5 6 
#
# 1 69.6712 17.4884 -2.6793 0.0000 0.0000 0.0000
# 2 17.4884 69.6722 -2.6789 0.0000 0.0000 0.0000
# 3 -2.6793 -2.6789 91.6065 0.0000 0.0000 0.0000
# 4 0.0000 0.0000 0.0000 17.6378 0.0000 0.0000
# 5 0.0000 0.0000 0.0000 0.0000 17.6282 0.0000
# 6 0.0000 0.0000 0.0000 0.0000 0.0000 28.7727
#
#
#
# Elastic Compliance Matrix: (Units=1/GPa)
#
#
# Indices 1 2 3 4 5 6 
#
# 1 0.015329 -0.003835 0.000336 0.000000 0.000000 0.000000
# 2 -0.003835 0.015328 0.000336 0.000000 0.000000 0.000000
# 3 0.000336 0.000336 0.010936 0.000000 0.000000 0.000000
# 4 0.000000 0.000000 0.000000 0.056696 0.000000 0.000000
# 5 0.000000 0.000000 0.000000 0.000000 0.056727 0.000000
# 6 0.000000 0.000000 0.000000 0.000000 0.000000 0.034755
#
#
# Mechanical properties :
#
#
# Convention : Reuss Voigt Hill
#
# Bulk Modulus (GPa) = 28.35424 28.35671 28.35547
# Shear Modulus (GPa) = 24.05549 27.39572 25.72560
#
# Velocity S-wave (km/s) = 3.43987 3.67093 3.55728
# Velocity P-wave (km/s) = 5.45198 5.64943 5.55159
#
# Compressibility (1/GPa) = 0.03526810
#
# Stress axis : x y z
#
# Youngs Moduli (GPa) = 65.23745 65.23839 91.44184
#
# Poissons Ratio (x) = 0.25017 -0.03074
# Poissons Ratio (y) = 0.25017 -0.03073
# Poissons Ratio (z) = -0.02193 -0.02193
#
# Static dielectric constant tensor:
#      x y z
#    x 1.713670 0.000000 0.000000 
#    y 0.000000 1.713670 0.000000 
#    z 0.000000 0.000000 1.685440 
# 
# From -- ./inp_files/1571.got.cif
#   From: 2010.05.17/outbox.cif.g08.bks.cpg/sg113_cif.got.tgz:1571.got - 2010.05.20 11:03:00.
