data_PCOD9555372
_publ_section_title
;
Structure prediction by ZEFSAII (Michael W. Deem and Ramdas Pophale) SiO2 
 PCOD9555372
Probable space group: P -4 2 C
;
_chemical_formula_sum "Si O2"
_cell_formula_units_Z 36
_cell_length_a 12.302581
_cell_length_b 12.302581
_cell_length_c 9.321195
_cell_angle_alpha 90.000000
_cell_angle_beta 90.000000
_cell_angle_gamma 90.000000
_cell_volume 1410.795481
_symmetry_space_group_name_H-M "P -4 2 C"
_symmetry_group_IT_number 112
_symmetry_cell_setting 'tetragonal'
loop_
_space_group_symop_operation_xyz
x,y,z
y,-x,-z
-x,-y,z
-y,x,-z
x,-y,1/2-z
-x,y,1/2-z
-y,-x,1/2+z
y,x,1/2+z
loop_
_atom_site_type_symbol
_atom_site_label
_atom_site_fract_x
_atom_site_fract_y
_atom_site_fract_z
Si Si1 0.000000 0.500000 0.750000
Si Si2 0.500000 0.173731 0.750000
Si Si3 0.677825 0.826585 0.307183
Si Si4 0.825647 0.846775 0.571740
Si Si5 0.000000 0.000000 0.000000
Si Si6 0.439977 0.666061 0.003523
Si Si7 0.000000 0.331011 0.250000
O O1 0.080593 0.585944 0.672315
O O2 0.550490 0.247256 0.875001
O O3 0.590516 0.092582 0.684813
O O4 0.782443 0.836338 0.410613
O O5 0.730684 0.824879 0.150380
O O6 0.619230 0.718617 0.361315
O O7 0.743757 0.933051 0.642803
O O8 0.943047 0.901941 0.583258
O O9 0.560061 0.626309 0.041778
#
# Coordination Sequence:
#
# PCOD9555372 Si02
#       7
#     2   4   8   8   2   8   4
#     4  12  32  48  84 122 172 208 276 354 424 476
#     4  11  24  49  76 116 158 213 274 339 406 504
#     4  12  29  52  81 119 166 211 278 340 418 492
#     4  12  27  51  80 118 158 220 272 348 401 508
#     4  12  28  50  84 110 172 210 284 326 436 482
#     4  11  27  47  78 113 160 211 268 338 418 489
#     4  11  24  43  82 112 156 209 286 323 414 470
#
# _framework density 25.517517000000002
#
# number of rings (size 3 to 8) (size 9 to 14) (size 15 to 20)
#    0.000    0.444    2.222    4.000    6.222    4.889 
#    0.000    0.000    0.000    1.333    0.000    0.000 
#    0.000    0.000    0.000    0.000    0.000    0.000 
#
# Total GULP energy -201855.412371 kJ/mol
# GULP energy per Si atom -5607.094788 kJ/mol
# Density = 2.545944 g / cm^3
# Si number density = 25.517517 Si / 1000 Ang^3
#
#
#
# Elastic Constant Matrix: (Units=GPa)
#
#
# Indices 1 2 3 4 5 6 
#
# 1 152.0748 71.4422 36.2023 0.0000 0.0000 0.0000
# 2 71.4422 152.0748 36.2023 0.0000 0.0000 0.0000
# 3 36.2023 36.2023 72.5989 0.0000 0.0000 0.0000
# 4 0.0000 0.0000 0.0000 28.4784 0.0000 0.0000
# 5 0.0000 0.0000 0.0000 0.0000 28.4784 0.0000
# 6 0.0000 0.0000 0.0000 0.0000 0.0000 66.2788
#
#
#
# Elastic Compliance Matrix: (Units=1/GPa)
#
#
# Indices 1 2 3 4 5 6 
#
# 1 0.008869 -0.003533 -0.002661 0.000000 0.000000 0.000000
# 2 -0.003533 0.008869 -0.002661 0.000000 0.000000 0.000000
# 3 -0.002661 -0.002661 0.016428 0.000000 0.000000 0.000000
# 4 0.000000 0.000000 0.000000 0.035114 0.000000 0.000000
# 5 0.000000 0.000000 0.000000 0.000000 0.035114 0.000000
# 6 0.000000 0.000000 0.000000 0.000000 0.000000 0.015088
#
#
# Mechanical properties :
#
#
# Convention : Reuss Voigt Hill
#
# Bulk Modulus (GPa) = 60.76613 73.82691 67.29652
# Shear Modulus (GPa) = 35.04421 40.17390 37.60906
#
# Velocity S-wave (km/s) = 3.70988 3.97213 3.84324
# Velocity P-wave (km/s) = 6.49739 7.07331 6.79146
#
# Compressibility (1/GPa) = 0.01645654
#
# Stress axis : x y z
#
# Youngs Moduli (GPa) = 112.75366 112.75366 60.87177
#
# Poissons Ratio (x) = 0.39836 0.16197
# Poissons Ratio (y) = 0.39836 0.16197
# Poissons Ratio (z) = 0.30001 0.30001
#
# Static dielectric constant tensor:
#      x y z
#    x 2.015960 0.000000 0.000000 
#    y 0.000000 2.015960 0.000000 
#    z 0.000000 0.000000 2.006770 
# 
# From -- ./inp_files/2402.got.cif
#   From: 2010.05.17/outbox.cif.g08.bks.cpg/sg112_2_cif.got.tgz:2402.got - 2010.05.20 10:59:04.
