data_PCOD9555931
_publ_section_title
;
Structure prediction by ZEFSAII (Michael W. Deem and Ramdas Pophale) SiO2 
 PCOD9555931
Probable space group: P -4 21 C
;
_chemical_formula_sum "Si O2"
_cell_formula_units_Z 56
_cell_length_a 11.821563
_cell_length_b 11.821563
_cell_length_c 22.655566
_cell_angle_alpha 90.000000
_cell_angle_beta 90.000000
_cell_angle_gamma 90.000000
_cell_volume 3166.100662
_symmetry_space_group_name_H-M "P -4 21 C"
_symmetry_group_IT_number 114
_symmetry_cell_setting 'tetragonal'
loop_
_space_group_symop_operation_xyz
x,y,z
y,-x,-z
-x,-y,z
-y,x,-z
1/2+x,1/2-y,1/2-z
1/2-x,1/2+y,1/2-z
1/2-y,1/2-x,1/2+z
1/2+y,1/2+x,1/2+z
loop_
_atom_site_type_symbol
_atom_site_label
_atom_site_fract_x
_atom_site_fract_y
_atom_site_fract_z
Si Si1 0.315157 0.500000 0.517776
Si Si2 0.631629 0.130763 0.297180
Si Si3 0.124292 0.000000 0.854342
Si Si4 0.863821 0.500000 0.418994
Si Si5 0.168584 0.252075 0.828669
Si Si6 0.631629 0.869237 0.297180
Si Si7 0.752075 0.331416 0.328669
O O1 0.390486 0.609514 0.500000
O O2 0.296378 0.500000 0.588036
O O3 0.199129 0.500000 0.481494
O O4 0.674285 0.146719 0.229723
O O5 0.500000 0.169467 0.301954
O O6 0.723266 0.199533 0.335068
O O7 0.633239 0.000000 0.311702
O O8 0.127440 0.879100 0.821262
O O9 0.127440 0.120900 0.821262
O O10 0.000000 0.000000 0.883911
O O11 0.813809 0.606197 0.381794
O O12 0.813809 0.393803 0.381794
O O13 0.000000 0.500000 0.420619
O O14 0.300467 0.223266 0.835068
O O15 0.674285 0.853281 0.229723
#
# Coordination Sequence:
#
# PCOD9555931 Si02
#       7
#     8   8   8   8   8   8   8
#     4  11  18  34  59  82 105 132 176 235 290 335
#     4  10  20  34  51  78 115 155 188 223 267 332
#     4  12  18  32  56  85 109 142 178 236 282 332
#     4  12  23  37  58  84 112 145 183 232 289 331
#     4  11  20  32  54  78 114 148 185 226 278 327
#     4  10  20  34  51  78 115 155 188 223 267 332
#     4  11  20  32  54  78 114 148 185 226 278 327
#
# _framework density 17.687370999999999
#
# number of rings (size 3 to 8) (size 9 to 14) (size 15 to 20)
#    0.000    1.000    8.571    0.857    0.000    0.000 
#    0.000    1.429    0.000    0.000    0.000    0.000 
#    0.000    0.000    0.000    0.000    0.000    0.000 
#
# Total GULP energy -311787.712096 kJ/mol
# GULP energy per Si atom -5567.637716 kJ/mol
# Density = 1.764711 g / cm^3
# Si number density = 17.687371 Si / 1000 Ang^3
#
#
#
# Elastic Constant Matrix: (Units=GPa)
#
#
# Indices 1 2 3 4 5 6 
#
# 1 108.0882 43.4942 24.7997 0.0000 0.0000 0.0000
# 2 43.4942 108.0882 24.7997 0.0000 0.0000 0.0000
# 3 24.7997 24.7997 58.6159 0.0000 0.0000 0.0000
# 4 0.0000 0.0000 0.0000 20.5396 0.0000 0.0000
# 5 0.0000 0.0000 0.0000 0.0000 20.5396 0.0000
# 6 0.0000 0.0000 0.0000 0.0000 0.0000 28.8615
#
#
#
# Elastic Compliance Matrix: (Units=1/GPa)
#
#
# Indices 1 2 3 4 5 6 
#
# 1 0.011569 -0.003912 -0.003240 0.000000 0.000000 0.000000
# 2 -0.003912 0.011569 -0.003240 0.000000 0.000000 0.000000
# 3 -0.003240 -0.003240 0.019802 0.000000 0.000000 0.000000
# 4 0.000000 0.000000 0.000000 0.048686 0.000000 0.000000
# 5 0.000000 0.000000 0.000000 0.000000 0.048686 0.000000
# 6 0.000000 0.000000 0.000000 0.000000 0.000000 0.034648
#
#
# Mechanical properties :
#
#
# Convention : Reuss Voigt Hill
#
# Bulk Modulus (GPa) = 45.13204 51.21996 48.17600
# Shear Modulus (GPa) = 24.61483 26.10139 25.35811
#
# Velocity S-wave (km/s) = 3.73455 3.84566 3.79051
# Velocity P-wave (km/s) = 6.64588 6.98142 6.81571
#
# Compressibility (1/GPa) = 0.02215721
#
# Stress axis : x y z
#
# Youngs Moduli (GPa) = 86.43626 86.43626 50.50111
#
# Poissons Ratio (x) = 0.33815 0.16361
# Poissons Ratio (y) = 0.33815 0.16361
# Poissons Ratio (z) = 0.28002 0.28002
#
# Static dielectric constant tensor:
#      x y z
#    x 1.671430 0.000000 0.000000 
#    y 0.000000 1.671430 0.000000 
#    z 0.000000 0.000000 1.609700 
# 
# From -- ./inp_files/3535.got.cif
#   From: 2010.05.17/outbox.cif.g08.bks.cpg/sg114_2_cif.got.tgz:3535.got - 2010.05.20 11:04:54.
