data_PCOD9555545
_publ_section_title
;
Structure prediction by ZEFSAII (Michael W. Deem and Ramdas Pophale) SiO2 
 PCOD9555545
Probable space group: P -4 21 M 
;
_chemical_formula_sum "Si O2"
_cell_formula_units_Z 40
_cell_length_a 10.437357
_cell_length_b 10.437357
_cell_length_c 14.742577
_cell_angle_alpha 90.000000
_cell_angle_beta 90.000000
_cell_angle_gamma 90.000000
_cell_volume 1606.033062
_symmetry_space_group_name_H-M "P -4 21 M "
_symmetry_group_IT_number 113
_symmetry_cell_setting 'tetragonal'
loop_
_space_group_symop_operation_xyz
x,y,z
y,-x,-z
-x,-y,z
-y,x,-z
1/2+x,1/2-y,-z
1/2-x,1/2+y,-z
1/2-y,1/2-x,z
1/2+y,1/2+x,z
loop_
_atom_site_type_symbol
_atom_site_label
_atom_site_fract_x
_atom_site_fract_y
_atom_site_fract_z
Si Si1 0.506954 0.211184 0.575423
Si Si2 0.945054 0.747191 0.914562
Si Si3 0.265432 0.031896 0.880349
Si Si4 0.378773 0.595144 0.772666
Si Si5 0.200255 0.910657 0.375744
O O1 0.631562 0.131562 0.610566
O O2 0.432633 0.328448 0.625069
O O3 0.550646 0.267842 0.478526
O O4 0.395538 0.104463 0.562811
O O5 0.886919 0.613082 0.884699
O O6 0.840171 0.855250 0.890418
O O7 0.067336 0.786254 0.857593
O O8 0.965945 0.742355 0.021709
O O9 0.398815 0.101186 0.866881
O O10 0.230512 0.940242 0.797280
O O11 0.500000 0.500000 0.781445
O O12 0.310021 0.539756 0.683683
O O13 0.312886 0.812886 0.343979
#
# Coordination Sequence:
#
# PCOD9555545 Si02
#       5
#     8   8   8   8   8
#     4   9  20  39  64  95 132 173 221 274 327 398
#     4  10  19  35  61  89 122 167 222 269 322 385
#     4  10  20  36  61  91 127 173 218 267 330 391
#     4  10  21  35  61  93 129 170 212 275 323 384
#     4  10  21  38  65  97 129 173 218 267 337 397
#
# _framework density 24.906085000000001
#
# number of rings (size 3 to 8) (size 9 to 14) (size 15 to 20)
#    0.000    2.200    2.000    0.600    2.800    1.200 
#    0.000    2.000    0.000   12.000    0.000   11.200 
#    0.000    0.000    0.000    0.000    0.000    0.000 
#
# Total GULP energy -223488.518935 kJ/mol
# GULP energy per Si atom -5587.212973 kJ/mol
# Density = 2.484940 g / cm^3
# Si number density = 24.906085 Si / 1000 Ang^3
#
#
#
# Elastic Constant Matrix: (Units=GPa)
#
#
# Indices 1 2 3 4 5 6 
#
# 1 69.9129 88.6054 53.4588 0.0000 0.0000 0.0000
# 2 88.6054 69.9175 53.4593 0.0000 0.0000 0.0000
# 3 53.4588 53.4593 124.1818 0.0000 0.0000 0.0000
# 4 0.0000 0.0000 0.0000 -3.8188 0.0000 0.0000
# 5 0.0000 0.0000 0.0000 0.0000 -3.8296 0.0000
# 6 0.0000 0.0000 0.0000 0.0000 0.0000 31.8984
#
#
#
# Elastic Compliance Matrix: (Units=1/GPa)
#
#
# Indices 1 2 3 4 5 6 
#
# 1 -0.022308 0.031197 -0.003827 0.000000 0.000000 0.000000
# 2 0.031197 -0.022306 -0.003827 0.000000 0.000000 0.000000
# 3 -0.003827 -0.003827 0.011348 0.000000 0.000000 0.000000
# 4 0.000000 0.000000 0.000000 -0.261863 0.000000 0.000000
# 5 0.000000 0.000000 0.000000 0.000000 -0.261123 0.000000
# 6 0.000000 0.000000 0.000000 0.000000 0.000000 0.031350
#
#
# Mechanical properties :
#
#
# Convention : Reuss Voigt Hill
#
# Bulk Modulus (GPa) = 72.36353 72.78436 72.57395
# Shear Modulus (GPa) = -8.81238 9.41590 0.30176
#
# Velocity S-wave (km/s) = -1.88306 1.94648 0.34846
# Velocity P-wave (km/s) = 4.93860 5.85992 5.41887
#
# Compressibility (1/GPa) = 0.01381911
#
# Stress axis : x y z
#
# Youngs Moduli (GPa) = -44.82650 -44.83045 88.12501
#
# Poissons Ratio (x) = 1.39856 0.33721
# Poissons Ratio (y) = 1.39844 0.33726
# Poissons Ratio (z) = -0.17153 -0.17157
#
# Static dielectric constant tensor:
#      x y z
#    x 2.016300 0.000000 0.000000 
#    y 0.000000 2.016290 0.000000 
#    z 0.000000 0.000000 1.951640 
# 
# From -- ./inp_files/2175.got.cif
#   From: 2010.05.17/outbox.cif.g08.bks.cpg/sg113_cif.got.tgz:2175.got - 2010.05.20 11:03:00.
