data_PCOD9555378
_publ_section_title
;
Structure prediction by ZEFSAII (Michael W. Deem and Ramdas Pophale) SiO2 
 PCOD9555378
Probable space group: P -4 2 C
;
_chemical_formula_sum "Si O2"
_cell_formula_units_Z 32
_cell_length_a 8.000063
_cell_length_b 8.000063
_cell_length_c 19.818314
_cell_angle_alpha 90.000000
_cell_angle_beta 90.000000
_cell_angle_gamma 90.000000
_cell_volume 1268.392073
_symmetry_space_group_name_H-M "P -4 2 C"
_symmetry_group_IT_number 112
_symmetry_cell_setting 'tetragonal'
loop_
_space_group_symop_operation_xyz
x,y,z
y,-x,-z
-x,-y,z
-y,x,-z
x,-y,1/2-z
-x,y,1/2-z
-y,-x,1/2+z
y,x,1/2+z
loop_
_atom_site_type_symbol
_atom_site_label
_atom_site_fract_x
_atom_site_fract_y
_atom_site_fract_z
Si Si1 0.364890 0.269496 0.977077
Si Si2 0.786547 0.150997 0.657618
Si Si3 0.673425 0.214345 0.792318
Si Si4 0.324225 0.907144 0.396362
O O1 0.333679 0.230750 0.899186
O O2 0.282937 0.443069 0.000204
O O3 0.292004 0.127794 0.025259
O O4 0.796679 0.241951 0.729680
O O5 0.970936 0.178780 0.628928
O O6 0.707838 0.970758 0.676777
O O7 0.500000 0.229650 0.750000
O O8 0.733931 0.329356 0.853817
O O9 0.500000 0.000000 0.387890
#
# Coordination Sequence:
#
# PCOD9555378 Si02
#       4
#     8   8   8   8
#     4  11  25  47  73 111 157 205 260 324 411 494
#     4  11  24  47  76 111 152 202 264 328 396 479
#     4  11  26  49  78 108 153 209 265 329 405 493
#     4  12  26  47  75 116 154 200 262 342 397 482
#
# _framework density 25.228791999999999
#
# number of rings (size 3 to 8) (size 9 to 14) (size 15 to 20)
#    0.000    0.750    2.500    4.500    3.500    6.000 
#    0.000    2.500    0.000    0.000    0.000    0.000 
#    0.000    0.000    0.000    0.000    0.000    0.000 
#
# Total GULP energy -178857.131555 kJ/mol
# GULP energy per Si atom -5589.285361 kJ/mol
# Density = 2.517137 g / cm^3
# Si number density = 25.228792 Si / 1000 Ang^3
#
#
#
# Elastic Constant Matrix: (Units=GPa)
#
#
# Indices 1 2 3 4 5 6 
#
# 1 106.2000 23.9573 37.1626 0.0000 0.0000 0.0000
# 2 23.9573 106.2000 37.1626 0.0000 0.0000 0.0000
# 3 37.1626 37.1626 151.0409 0.0000 0.0000 0.0000
# 4 0.0000 0.0000 0.0000 43.7140 0.0000 0.0000
# 5 0.0000 0.0000 0.0000 0.0000 43.7140 0.0000
# 6 0.0000 0.0000 0.0000 0.0000 0.0000 27.9895
#
#
#
# Elastic Compliance Matrix: (Units=1/GPa)
#
#
# Indices 1 2 3 4 5 6 
#
# 1 0.010549 -0.001610 -0.002199 0.000000 0.000000 0.000000
# 2 -0.001610 0.010549 -0.002199 0.000000 0.000000 0.000000
# 3 -0.002199 -0.002199 0.007703 0.000000 0.000000 0.000000
# 4 0.000000 0.000000 0.000000 0.022876 0.000000 0.000000
# 5 0.000000 0.000000 0.000000 0.000000 0.022876 0.000000
# 6 0.000000 0.000000 0.000000 0.000000 0.000000 0.035728
#
#
# Mechanical properties :
#
#
# Convention : Reuss Voigt Hill
#
# Bulk Modulus (GPa) = 59.58259 62.22286 60.90273
# Shear Modulus (GPa) = 39.09525 40.76074 39.92799
#
# Velocity S-wave (km/s) = 3.94080 4.02387 3.98255
# Velocity P-wave (km/s) = 6.66144 6.80483 6.73351
#
# Compressibility (1/GPa) = 0.01678343
#
# Stress axis : x y z
#
# Youngs Moduli (GPa) = 94.79534 94.79534 129.81950
#
# Poissons Ratio (x) = 0.15263 0.28552
# Poissons Ratio (y) = 0.15263 0.28552
# Poissons Ratio (z) = 0.20849 0.20849
#
# Static dielectric constant tensor:
#      x y z
#    x 2.093260 0.000000 0.000000 
#    y 0.000000 2.093260 0.000000 
#    z 0.000000 0.000000 1.942700 
# 
# From -- ./inp_files/4539.got.cif
#   From: 2010.05.17/outbox.cif.g08.bks.cpg/sg112_3_cif.got.tgz:4539.got - 2010.05.20 10:59:04.
