data_PCOD9555546
_publ_section_title
;
Structure prediction by ZEFSAII (Michael W. Deem and Ramdas Pophale) SiO2 
 PCOD9555546
Probable space group: P -4 21 M 
;
_chemical_formula_sum "Si O2"
_cell_formula_units_Z 56
_cell_length_a 14.620481
_cell_length_b 14.620481
_cell_length_c 12.294845
_cell_angle_alpha 90.000000
_cell_angle_beta 90.000000
_cell_angle_gamma 90.000000
_cell_volume 2628.127191
_symmetry_space_group_name_H-M "P -4 21 M "
_symmetry_group_IT_number 113
_symmetry_cell_setting 'tetragonal'
loop_
_space_group_symop_operation_xyz
x,y,z
y,-x,-z
-x,-y,z
-y,x,-z
1/2+x,1/2-y,-z
1/2-x,1/2+y,-z
1/2-y,1/2-x,z
1/2+y,1/2+x,z
loop_
_atom_site_type_symbol
_atom_site_label
_atom_site_fract_x
_atom_site_fract_y
_atom_site_fract_z
Si Si1 0.900690 0.023442 0.300922
Si Si2 0.706782 0.946488 0.973883
Si Si3 0.848733 0.506327 0.252275
Si Si4 0.126607 0.777410 0.384026
Si Si5 0.607511 0.747385 0.358928
Si Si6 0.993597 0.647697 0.801957
Si Si7 0.422109 0.400041 0.940283
O O1 0.862464 0.114674 0.360109
O O2 0.907855 0.056207 0.176397
O O3 0.847064 0.927600 0.309441
O O4 0.000000 0.000000 0.345811
O O5 0.622573 0.877428 0.976188
O O6 0.711085 0.993176 0.092443
O O7 0.797486 0.888375 0.949302
O O8 0.685653 0.012382 0.872271
O O9 0.899426 0.600575 0.286419
O O10 0.766233 0.461319 0.321430
O O11 0.928526 0.428526 0.256744
O O12 0.215395 0.715395 0.353269
O O13 0.110342 0.762110 0.512114
O O14 0.701352 0.798649 0.323729
O O15 0.525996 0.810208 0.311258
O O16 0.064849 0.564849 0.818979
O O17 0.893247 0.606754 0.798275
O O18 0.389095 0.469687 0.032517
#
# Coordination Sequence:
#
# PCOD9555546 Si02
#       7
#     8   8   8   8   8   8   8
#     4  12  25  43  72  97 131 182 228 271 340 420
#     4  10  19  35  61  92 128 169 219 280 342 411
#     4   9  17  33  60  92 129 173 219 276 341 402
#     4  10  23  43  66 100 138 175 232 286 337 410
#     4  10  24  44  66  96 135 177 230 292 339 399
#     4   9  18  34  59  92 132 178 223 276 349 417
#     4  11  22  40  61  88 129 171 219 270 332 404
#
# _framework density 21.307949000000001
#
# number of rings (size 3 to 8) (size 9 to 14) (size 15 to 20)
#    0.000    1.857    2.857    1.286    2.000    2.857 
#    0.000    6.429    0.000    0.000    0.000    0.000 
#    0.000    0.000    0.000    0.000    0.000    0.000 
#
# Total GULP energy -312028.499692 kJ/mol
# GULP energy per Si atom -5571.937494 kJ/mol
# Density = 2.125945 g / cm^3
# Si number density = 21.307949 Si / 1000 Ang^3
#
#
#
# Elastic Constant Matrix: (Units=GPa)
#
#
# Indices 1 2 3 4 5 6 
#
# 1 64.8153 24.0971 11.0015 0.0000 0.0000 0.0000
# 2 24.0971 64.8134 11.0028 0.0000 0.0000 0.0000
# 3 11.0015 11.0028 68.6518 0.0000 0.0000 0.0000
# 4 0.0000 0.0000 0.0000 20.2663 0.0000 0.0000
# 5 0.0000 0.0000 0.0000 0.0000 20.2643 0.0000
# 6 0.0000 0.0000 0.0000 0.0000 0.0000 23.7522
#
#
#
# Elastic Compliance Matrix: (Units=1/GPa)
#
#
# Indices 1 2 3 4 5 6 
#
# 1 0.018135 -0.006424 -0.001877 0.000000 0.000000 0.000000
# 2 -0.006424 0.018136 -0.001877 0.000000 0.000000 0.000000
# 3 -0.001877 -0.001877 0.015168 0.000000 0.000000 0.000000
# 4 0.000000 0.000000 0.000000 0.049343 0.000000 0.000000
# 5 0.000000 0.000000 0.000000 0.000000 0.049348 0.000000
# 6 0.000000 0.000000 0.000000 0.000000 0.000000 0.042101
#
#
# Mechanical properties :
#
#
# Convention : Reuss Voigt Hill
#
# Bulk Modulus (GPa) = 32.17139 32.27592 32.22366
# Shear Modulus (GPa) = 22.42674 23.00183 22.71429
#
# Velocity S-wave (km/s) = 3.24775 3.28913 3.26851
# Velocity P-wave (km/s) = 5.40324 5.44103 5.42216
#
# Compressibility (1/GPa) = 0.03108351
#
# Stress axis : x y z
#
# Youngs Moduli (GPa) = 55.14105 55.13904 65.92887
#
# Poissons Ratio (x) = 0.35421 0.12372
# Poissons Ratio (y) = 0.35422 0.12376
# Poissons Ratio (z) = 0.10348 0.10351
#
# Static dielectric constant tensor:
#      x y z
#    x 1.848580 0.000000 0.000000 
#    y 0.000000 1.848590 0.000000 
#    z 0.000000 0.000000 1.756090 
# 
# From -- ./inp_files/1914.got.cif
#   From: 2010.05.17/outbox.cif.g08.bks.cpg/sg113_cif.got.tgz:1914.got - 2010.05.20 11:03:00.
