data_PCOD9555031
_publ_section_title
;
Structure prediction by ZEFSAII (Michael W. Deem and Ramdas Pophale) SiO2 
 PCOD9555031
Probable space group: P -4 2 C
;
_chemical_formula_sum "Si O2"
_cell_formula_units_Z 32
_cell_length_a 14.524968
_cell_length_b 14.524968
_cell_length_c 8.296022
_cell_angle_alpha 90.000000
_cell_angle_beta 90.000000
_cell_angle_gamma 90.000000
_cell_volume 1750.250714
_symmetry_space_group_name_H-M "P -4 2 C"
_symmetry_group_IT_number 112
_symmetry_cell_setting 'tetragonal'
loop_
_space_group_symop_operation_xyz
x,y,z
y,-x,-z
-x,-y,z
-y,x,-z
x,-y,1/2-z
-x,y,1/2-z
-y,-x,1/2+z
y,x,1/2+z
loop_
_atom_site_type_symbol
_atom_site_label
_atom_site_fract_x
_atom_site_fract_y
_atom_site_fract_z
Si Si1 0.809971 0.541369 0.415450
Si Si2 0.216650 0.283350 0.594503
Si Si3 0.958632 0.309971 0.084550
Si Si4 0.650590 0.150590 0.058304
O O1 0.771509 0.500000 0.250000
O O2 0.753526 0.623011 0.501001
O O3 0.906270 0.593730 0.376150
O O4 0.829559 0.456914 0.534172
O O5 0.123010 0.253526 0.501001
O O6 0.188544 0.311456 0.773536
O O7 0.293611 0.206389 0.579313
O O8 0.000000 0.271509 0.250000
O O9 0.043086 0.329559 0.965828
#
# Coordination Sequence:
#
# PCOD9555031 Si02
#       4
#     8   8   8   8
#     4  10  20  34  54  83 110 142 181 225 280 320
#     4  10  24  32  52  85 103 157 175 228 276 324
#     4  10  20  34  54  83 110 142 181 225 280 320
#     4  12  19  37  53  76 121 137 191 226 270 331
#
# _framework density 18.283096
#
# number of rings (size 3 to 8) (size 9 to 14) (size 15 to 20)
#    1.500    0.000    2.500    5.250    0.000    0.000 
#    4.500    0.000    0.000    1.500    0.000   10.500 
#    0.000    0.000    0.000    0.000    0.000    0.000 
#
# Total GULP energy -178289.989978 kJ/mol
# GULP energy per Si atom -5571.562187 kJ/mol
# Density = 1.824148 g / cm^3
# Si number density = 18.283096 Si / 1000 Ang^3
#
#
#
# Elastic Constant Matrix: (Units=GPa)
#
#
# Indices 1 2 3 4 5 6 
#
# 1 39.4286 27.1726 -7.0786 0.0000 0.0000 0.0000
# 2 27.1726 39.4286 -7.0786 0.0000 0.0000 0.0000
# 3 -7.0786 -7.0786 72.1471 0.0000 0.0000 0.0000
# 4 0.0000 0.0000 0.0000 30.7008 0.0000 0.0000
# 5 0.0000 0.0000 0.0000 0.0000 30.7008 0.0000
# 6 0.0000 0.0000 0.0000 0.0000 0.0000 17.6379
#
#
#
# Elastic Compliance Matrix: (Units=1/GPa)
#
#
# Indices 1 2 3 4 5 6 
#
# 1 0.048464 -0.033129 0.001505 0.000000 0.000000 0.000000
# 2 -0.033129 0.048464 0.001505 0.000000 0.000000 0.000000
# 3 0.001505 0.001505 0.014156 0.000000 0.000000 0.000000
# 4 0.000000 0.000000 0.000000 0.032572 0.000000 0.000000
# 5 0.000000 0.000000 0.000000 0.000000 0.032572 0.000000
# 6 0.000000 0.000000 0.000000 0.000000 0.000000 0.056696
#
#
# Mechanical properties :
#
#
# Convention : Reuss Voigt Hill
#
# Bulk Modulus (GPa) = 19.66840 19.67058 19.66949
# Shear Modulus (GPa) = 16.12321 25.00714 20.56517
#
# Velocity S-wave (km/s) = 2.97284 3.70236 3.35747
# Velocity P-wave (km/s) = 4.75024 5.39062 5.08053
#
# Compressibility (1/GPa) = 0.05084299
#
# Stress axis : x y z
#
# Youngs Moduli (GPa) = 20.63400 20.63400 70.64242
#
# Poissons Ratio (x) = 0.68359 -0.10628
# Poissons Ratio (y) = 0.68359 -0.10628
# Poissons Ratio (z) = -0.03104 -0.03104
#
# Static dielectric constant tensor:
#      x y z
#    x 1.599470 0.000000 0.000000 
#    y 0.000000 1.599470 0.000000 
#    z 0.000000 0.000000 1.696730 
# 
# From -- ./inp_files/1047.got.cif
#   From: 2010.05.17/outbox.cif.g08.bks.cpg/sg112_1_cif.got.tgz:1047.got - 2010.05.20 10:59:04.
