data_PCOD9555985
_publ_section_title
;
Structure prediction by ZEFSAII (Michael W. Deem and Ramdas Pophale) SiO2 
 PCOD9555985
Probable space group: P -4 21 C
;
_chemical_formula_sum "Si O2"
_cell_formula_units_Z 36
_cell_length_a 10.874565
_cell_length_b 10.874565
_cell_length_c 13.762200
_cell_angle_alpha 90.000000
_cell_angle_beta 90.000000
_cell_angle_gamma 90.000000
_cell_volume 1627.464979
_symmetry_space_group_name_H-M "P -4 21 C"
_symmetry_group_IT_number 114
_symmetry_cell_setting 'tetragonal'
loop_
_space_group_symop_operation_xyz
x,y,z
y,-x,-z
-x,-y,z
-y,x,-z
1/2+x,1/2-y,1/2-z
1/2-x,1/2+y,1/2-z
1/2-y,1/2-x,1/2+z
1/2+y,1/2+x,1/2+z
loop_
_atom_site_type_symbol
_atom_site_label
_atom_site_fract_x
_atom_site_fract_y
_atom_site_fract_z
Si Si1 0.218693 0.139404 0.421459
Si Si2 0.000000 0.000000 0.311197
Si Si3 0.823904 0.612952 0.079942
Si Si4 0.711237 0.636342 0.288389
Si Si5 0.297014 0.479198 0.481356
O O1 0.176406 0.216097 0.515183
O O2 0.269912 0.233620 0.340866
O O3 0.099693 0.070950 0.376061
O O4 0.313089 0.030556 0.444735
O O5 0.925560 0.097977 0.245739
O O6 0.794226 0.629114 0.192963
O O7 0.946460 0.683576 0.049549
O O8 0.744484 0.534751 0.369968
O O9 0.370513 0.602636 0.501833
#
# Coordination Sequence:
#
# PCOD9555985 Si02
#       5
#     8   4   8   8   8
#     4  10  21  39  63  97 123 167 217 270 319 383
#     4  10  20  39  69  90 130 174 215 266 329 390
#     4  10  21  38  62  91 128 158 218 267 318 387
#     4  10  22  35  63  96 121 167 217 256 326 389
#     4  10  22  39  62  90 124 168 214 267 327 396
#
# _framework density 22.120290000000001
#
# number of rings (size 3 to 8) (size 9 to 14) (size 15 to 20)
#    0.000    2.000    0.000    4.000    9.333    0.889 
#    0.000    4.444    0.000    2.667    0.000    0.000 
#    0.000    0.000    0.000    0.000    0.000    0.000 
#
# Total GULP energy -201287.241295 kJ/mol
# GULP energy per Si atom -5591.312258 kJ/mol
# Density = 2.206994 g / cm^3
# Si number density = 22.120290 Si / 1000 Ang^3
#
#
#
# Elastic Constant Matrix: (Units=GPa)
#
#
# Indices 1 2 3 4 5 6 
#
# 1 79.1376 57.7062 34.0227 0.0000 0.0000 0.0000
# 2 57.7062 79.1376 34.0227 0.0000 0.0000 0.0000
# 3 34.0227 34.0227 140.4243 0.0000 0.0000 0.0000
# 4 0.0000 0.0000 0.0000 28.4376 0.0000 0.0000
# 5 0.0000 0.0000 0.0000 0.0000 28.4376 0.0000
# 6 0.0000 0.0000 0.0000 0.0000 0.0000 51.1559
#
#
#
# Elastic Compliance Matrix: (Units=1/GPa)
#
#
# Indices 1 2 3 4 5 6 
#
# 1 0.027485 -0.019176 -0.002013 0.000000 0.000000 0.000000
# 2 -0.019176 0.027485 -0.002013 0.000000 0.000000 0.000000
# 3 -0.002013 -0.002013 0.008097 0.000000 0.000000 0.000000
# 4 0.000000 0.000000 0.000000 0.035165 0.000000 0.000000
# 5 0.000000 0.000000 0.000000 0.000000 0.035165 0.000000
# 6 0.000000 0.000000 0.000000 0.000000 0.000000 0.019548
#
#
# Mechanical properties :
#
#
# Convention : Reuss Voigt Hill
#
# Bulk Modulus (GPa) = 60.01781 61.13365 60.57573
# Shear Modulus (GPa) = 24.40196 33.13605 28.76900
#
# Velocity S-wave (km/s) = 3.32497 3.87459 3.61026
# Velocity P-wave (km/s) = 6.47549 6.90750 6.69498
#
# Compressibility (1/GPa) = 0.01666172
#
# Stress axis : x y z
#
# Youngs Moduli (GPa) = 36.38404 36.38404 123.50658
#
# Poissons Ratio (x) = 0.69770 0.24862
# Poissons Ratio (y) = 0.69770 0.24862
# Poissons Ratio (z) = 0.07324 0.07324
#
# Static dielectric constant tensor:
#      x y z
#    x 1.820950 0.000000 0.000000 
#    y 0.000000 1.820950 0.000000 
#    z 0.000000 0.000000 1.807870 
# 
# From -- ./inp_files/2060.got.cif
#   From: 2010.05.17/outbox.cif.g08.bks.cpg/sg114_2_cif.got.tgz:2060.got - 2010.05.20 11:04:54.
