data_PCOD9555091
_publ_section_title
;
Structure prediction by ZEFSAII (Michael W. Deem and Ramdas Pophale) SiO2 
 PCOD9555091
Probable space group: P -4 2 C
;
_chemical_formula_sum "Si O2"
_cell_formula_units_Z 20
_cell_length_a 5.464386
_cell_length_b 5.464386
_cell_length_c 27.981597
_cell_angle_alpha 90.000000
_cell_angle_beta 90.000000
_cell_angle_gamma 90.000000
_cell_volume 835.516897
_symmetry_space_group_name_H-M "P -4 2 C"
_symmetry_group_IT_number 112
_symmetry_cell_setting 'tetragonal'
loop_
_space_group_symop_operation_xyz
x,y,z
y,-x,-z
-x,-y,z
-y,x,-z
x,-y,1/2-z
-x,y,1/2-z
-y,-x,1/2+z
y,x,1/2+z
loop_
_atom_site_type_symbol
_atom_site_label
_atom_site_fract_x
_atom_site_fract_y
_atom_site_fract_z
Si Si1 0.500000 0.500000 0.250000
Si Si2 0.641455 0.256832 0.340459
Si Si3 0.247557 0.865500 0.937141
Si Si4 0.500000 0.500000 0.500000
O O1 0.666885 0.333764 0.284935
O O2 0.500000 0.500000 0.358730
O O3 0.849920 0.234222 0.379413
O O4 0.500000 0.000000 0.341964
O O5 0.291718 0.609359 0.964623
O O6 0.500000 0.000000 0.947942
O O7 0.000000 0.000000 0.951358
#
# Coordination Sequence:
#
# PCOD9555091 Si02
#       4
#     2   8   8   2
#     4   8  20  36  80  98 142 214 244 316 400 470
#     4  10  20  42  71 101 146 198 250 317 397 469
#     4  12  29  48  78 111 156 207 261 333 409 482
#     4  12  30  52  72 114 156 204 270 336 392 498
#
# _framework density 23.937277999999999
#
# number of rings (size 3 to 8) (size 9 to 14) (size 15 to 20)
#    1.200    0.000    2.000    3.000    5.600    0.000 
#    0.000    1.000    0.000    0.000    0.000    0.000 
#    0.000    0.000    0.000    0.000    0.000    0.000 
#
# Total GULP energy -111462.093638 kJ/mol
# GULP energy per Si atom -5573.104682 kJ/mol
# Density = 2.388280 g / cm^3
# Si number density = 23.937278 Si / 1000 Ang^3
#
#
#
# Elastic Constant Matrix: (Units=GPa)
#
#
# Indices 1 2 3 4 5 6 
#
# 1 137.5018 54.3773 39.3998 0.0000 0.0000 0.0000
# 2 54.3773 137.5018 39.3998 0.0000 0.0000 0.0000
# 3 39.3998 39.3998 186.2702 0.0000 0.0000 0.0000
# 4 0.0000 0.0000 0.0000 -35.9462 0.0000 0.0000
# 5 0.0000 0.0000 0.0000 0.0000 -35.9462 0.0000
# 6 0.0000 0.0000 0.0000 0.0000 0.0000 48.9827
#
#
#
# Elastic Compliance Matrix: (Units=1/GPa)
#
#
# Indices 1 2 3 4 5 6 
#
# 1 0.008869 -0.003161 -0.001207 0.000000 0.000000 0.000000
# 2 -0.003161 0.008869 -0.001207 0.000000 0.000000 0.000000
# 3 -0.001207 -0.001207 0.005879 0.000000 0.000000 0.000000
# 4 0.000000 0.000000 0.000000 -0.027819 0.000000 0.000000
# 5 0.000000 0.000000 0.000000 0.000000 -0.027819 0.000000
# 6 0.000000 0.000000 0.000000 0.000000 0.000000 0.020415
#
#
# Mechanical properties :
#
#
# Convention : Reuss Voigt Hill
#
# Bulk Modulus (GPa) = 80.22380 80.84751 80.53566
# Shear Modulus (GPa) = 1351.29780 17.29119 684.29450
#
# Velocity S-wave (km/s) = 23.78532 2.69058 16.92603
# Velocity P-wave (km/s) = 28.06972 6.59548 20.38884
#
# Compressibility (1/GPa) = 0.01246513
#
# Stress axis : x y z
#
# Youngs Moduli (GPa) = 112.75521 112.75521 170.08977
#
# Poissons Ratio (x) = 0.35646 0.20534
# Poissons Ratio (y) = 0.35646 0.20534
# Poissons Ratio (z) = 0.13612 0.13612
#
# Static dielectric constant tensor:
#      x y z
#    x 1.868820 0.000000 0.000000 
#    y 0.000000 1.868820 0.000000 
#    z 0.000000 0.000000 1.928570 
# 
# From -- ./inp_files/6051.got.cif
#   From: 2010.05.17/outbox.cif.g08.bks.cpg/sg112_4_cif.got.tgz:6051.got - 2010.05.20 10:59:04.
