data_PCOD9555674
_publ_section_title
;
Structure prediction by ZEFSAII (Michael W. Deem and Ramdas Pophale) SiO2 
 PCOD9555674
Probable space group: P -4 21 M 
;
_chemical_formula_sum "Si O2"
_cell_formula_units_Z 38
_cell_length_a 20.378445
_cell_length_b 20.378445
_cell_length_c 5.084157
_cell_angle_alpha 90.000000
_cell_angle_beta 90.000000
_cell_angle_gamma 90.000000
_cell_volume 2111.353908
_symmetry_space_group_name_H-M "P -4 21 M "
_symmetry_group_IT_number 113
_symmetry_cell_setting 'tetragonal'
loop_
_space_group_symop_operation_xyz
x,y,z
y,-x,-z
-x,-y,z
-y,x,-z
1/2+x,1/2-y,-z
1/2-x,1/2+y,-z
1/2-y,1/2-x,z
1/2+y,1/2+x,z
loop_
_atom_site_type_symbol
_atom_site_label
_atom_site_fract_x
_atom_site_fract_y
_atom_site_fract_z
Si Si1 0.500000 0.000000 0.658410
Si Si2 0.195446 0.491209 0.772735
Si Si3 0.598145 0.206167 0.718157
Si Si4 0.069878 0.569878 0.841474
Si Si5 0.984022 0.153606 0.812323
Si Si6 0.642103 0.570061 0.320555
O O1 0.539365 0.960636 0.423433
O O2 0.539695 0.960306 0.893231
O O3 0.180233 0.451498 0.506235
O O4 0.145330 0.548956 0.831846
O O5 0.268840 0.518699 0.758759
O O6 0.193237 0.437247 0.004616
O O7 0.665573 0.165573 0.702837
O O8 0.602301 0.284988 0.679738
O O9 0.038018 0.128097 0.603469
O O10 0.915108 0.119243 0.761588
O O11 0.011994 0.143807 0.104468
#
# Coordination Sequence:
#
# PCOD9555674 Si02
#       6
#     2   8   8   4   8   8
#     4  10  24  30  52  78 106 130 198 218 256 326
#     4  10  22  35  55  77 114 139 182 224 276 309
#     4  10  21  36  55  80 105 149 180 222 262 325
#     4  11  22  36  50  84 107 148 175 234 264 319
#     4  10  21  38  56  84 110 144 176 235 270 336
#     4  10  21  37  58  82 114 138 185 224 281 322
#
# _framework density 17.997928999999999
#
# number of rings (size 3 to 8) (size 9 to 14) (size 15 to 20)
#    0.000    1.895    0.000    3.158    8.842    2.526 
#    1.895    0.000    0.000    0.000    0.000    0.000 
#    0.000    0.000    0.000    0.000    0.000    0.000 
#
# Total GULP energy -211597.539900 kJ/mol
# GULP energy per Si atom -5568.356313 kJ/mol
# Density = 1.795696 g / cm^3
# Si number density = 17.997929 Si / 1000 Ang^3
#
#
#
# Elastic Constant Matrix: (Units=GPa)
#
#
# Indices 1 2 3 4 5 6 
#
# 1 82.5966 29.9817 -16.3585 0.0000 0.0000 0.0000
# 2 29.9817 82.5957 -16.3584 0.0000 0.0000 0.0000
# 3 -16.3585 -16.3584 69.6960 0.0000 0.0000 0.0000
# 4 0.0000 0.0000 0.0000 14.0520 0.0000 0.0000
# 5 0.0000 0.0000 0.0000 0.0000 14.0529 0.0000
# 6 0.0000 0.0000 0.0000 0.0000 0.0000 32.4349
#
#
#
# Elastic Compliance Matrix: (Units=1/GPa)
#
#
# Indices 1 2 3 4 5 6 
#
# 1 0.014270 -0.004737 0.002238 0.000000 0.000000 0.000000
# 2 -0.004737 0.014270 0.002238 0.000000 0.000000 0.000000
# 3 0.002238 0.002238 0.015398 0.000000 0.000000 0.000000
# 4 0.000000 0.000000 0.000000 0.071164 0.000000 0.000000
# 5 0.000000 0.000000 0.000000 0.000000 0.071160 0.000000
# 6 0.000000 0.000000 0.000000 0.000000 0.000000 0.030831
#
#
# Mechanical properties :
#
#
# Convention : Reuss Voigt Hill
#
# Bulk Modulus (GPa) = 23.03384 25.49087 24.26235
# Shear Modulus (GPa) = 21.54363 27.94951 24.74657
#
# Velocity S-wave (km/s) = 3.46353 3.94500 3.71208
# Velocity P-wave (km/s) = 5.36848 5.91140 5.64647
#
# Compressibility (1/GPa) = 0.04341439
#
# Stress axis : x y z
#
# Youngs Moduli (GPa) = 70.07943 70.07869 64.94193
#
# Poissons Ratio (x) = 0.33193 -0.14531
# Poissons Ratio (y) = 0.33194 -0.14531
# Poissons Ratio (z) = -0.15680 -0.15680
#
# Static dielectric constant tensor:
#      x y z
#    x 1.601910 0.000000 0.000000 
#    y 0.000000 1.601910 0.000000 
#    z 0.000000 0.000000 1.619360 
# 
# From -- ./inp_files/346.got.cif
#   From: 2010.05.17/outbox.cif.g08.bks.cpg/sg113_cif.got.tgz:346.got - 2010.05.20 11:03:00.
