data_PCOD9555751
_publ_section_title
;
Structure prediction by ZEFSAII (Michael W. Deem and Ramdas Pophale) SiO2 
 PCOD9555751
Probable space group: P -4 21 M 
;
_chemical_formula_sum "Si O2"
_cell_formula_units_Z 36
_cell_length_a 17.539954
_cell_length_b 17.539954
_cell_length_c 4.959396
_cell_angle_alpha 90.000000
_cell_angle_beta 90.000000
_cell_angle_gamma 90.000000
_cell_volume 1525.758112
_symmetry_space_group_name_H-M "P -4 21 M "
_symmetry_group_IT_number 113
_symmetry_cell_setting 'tetragonal'
loop_
_space_group_symop_operation_xyz
x,y,z
y,-x,-z
-x,-y,z
-y,x,-z
1/2+x,1/2-y,-z
1/2-x,1/2+y,-z
1/2-y,1/2-x,z
1/2+y,1/2+x,z
loop_
_atom_site_type_symbol
_atom_site_label
_atom_site_fract_x
_atom_site_fract_y
_atom_site_fract_z
Si Si1 0.806316 0.306316 0.807582
Si Si2 0.178760 0.444031 0.624172
Si Si3 0.045789 0.665800 0.130933
Si Si4 0.644544 0.327970 0.535134
Si Si5 0.421078 0.594627 0.036410
O O1 0.882854 0.289847 0.999707
O O2 0.731625 0.324465 0.620228
O O3 0.102339 0.397662 0.554310
O O4 0.172846 0.476338 0.924416
O O5 0.248983 0.386907 0.586882
O O6 0.187427 0.515861 0.424196
O O7 0.079956 0.579956 0.143622
O O8 0.622990 0.390524 0.312760
O O9 0.600012 0.344209 0.811489
O O10 0.511556 0.597731 0.081887
#
# Coordination Sequence:
#
# PCOD9555751 Si02
#       5
#     4   8   8   8   8
#     4  10  28  50  69 110 139 196 242 304 362 436
#     4  12  25  46  70 108 141 191 242 294 371 430
#     4  10  26  44  73 100 143 186 245 293 365 436
#     4  12  26  46  75 100 148 189 240 305 355 442
#     4  11  27  46  72 107 142 187 240 299 374 439
#
# _framework density 23.594829000000001
#
# number of rings (size 3 to 8) (size 9 to 14) (size 15 to 20)
#    0.667    0.222    1.111    4.000    9.333    7.111 
#    0.000    0.000    0.000    0.000    0.000    0.000 
#    0.000    0.000    0.000    0.000    0.000    0.000 
#
# Total GULP energy -200520.717469 kJ/mol
# GULP energy per Si atom -5570.019930 kJ/mol
# Density = 2.354113 g / cm^3
# Si number density = 23.594829 Si / 1000 Ang^3
#
#
#
# Elastic Constant Matrix: (Units=GPa)
#
#
# Indices 1 2 3 4 5 6 
#
# 1 57.2209 25.7119 5.0644 0.0000 0.0000 0.0000
# 2 25.7119 57.2198 5.0637 0.0000 0.0000 0.0000
# 3 5.0644 5.0637 79.9264 0.0000 0.0000 0.0000
# 4 0.0000 0.0000 0.0000 -21.0056 0.0000 0.0000
# 5 0.0000 0.0000 0.0000 0.0000 -20.9765 0.0000
# 6 0.0000 0.0000 0.0000 0.0000 0.0000 43.1750
#
#
#
# Elastic Compliance Matrix: (Units=1/GPa)
#
#
# Indices 1 2 3 4 5 6 
#
# 1 0.021945 -0.009793 -0.000770 0.000000 0.000000 0.000000
# 2 -0.009793 0.021945 -0.000770 0.000000 0.000000 0.000000
# 3 -0.000770 -0.000770 0.012609 0.000000 0.000000 0.000000
# 4 0.000000 0.000000 0.000000 -0.047606 0.000000 0.000000
# 5 0.000000 0.000000 0.000000 0.000000 -0.047672 0.000000
# 6 0.000000 0.000000 0.000000 0.000000 0.000000 0.023162
#
#
# Mechanical properties :
#
#
# Convention : Reuss Voigt Hill
#
# Bulk Modulus (GPa) = 29.55655 29.56078 29.55866
# Shear Modulus (GPa) = 272.85834 10.80705 141.83270
#
# Velocity S-wave (km/s) = 10.76542 2.14248 7.76159
# Velocity P-wave (km/s) = 12.92593 4.32157 9.63731
#
# Compressibility (1/GPa) = 0.03383345
#
# Stress axis : x y z
#
# Youngs Moduli (GPa) = 45.56924 45.56846 79.30793
#
# Poissons Ratio (x) = 0.44624 0.06107
# Poissons Ratio (y) = 0.44625 0.06105
# Poissons Ratio (z) = 0.03509 0.03508
#
# Static dielectric constant tensor:
#      x y z
#    x 1.931510 0.000000 0.000000 
#    y 0.000000 1.931500 0.000000 
#    z 0.000000 0.000000 1.806800 
# 
# From -- ./inp_files/322.got.cif
#   From: 2010.05.17/outbox.cif.g08.bks.cpg/sg113_cif.got.tgz:322.got - 2010.05.20 11:03:00.
