data_PCOD9555594
_publ_section_title
;
Structure prediction by ZEFSAII (Michael W. Deem and Ramdas Pophale) SiO2 
 PCOD9555594
Probable space group: P -4 21 M 
;
_chemical_formula_sum "Si O2"
_cell_formula_units_Z 40
_cell_length_a 17.160067
_cell_length_b 17.160067
_cell_length_c 6.248477
_cell_angle_alpha 90.000000
_cell_angle_beta 90.000000
_cell_angle_gamma 90.000000
_cell_volume 1839.975897
_symmetry_space_group_name_H-M "P -4 21 M "
_symmetry_group_IT_number 113
_symmetry_cell_setting 'tetragonal'
loop_
_space_group_symop_operation_xyz
x,y,z
y,-x,-z
-x,-y,z
-y,x,-z
1/2+x,1/2-y,-z
1/2-x,1/2+y,-z
1/2-y,1/2-x,z
1/2+y,1/2+x,z
loop_
_atom_site_type_symbol
_atom_site_label
_atom_site_fract_x
_atom_site_fract_y
_atom_site_fract_z
Si Si1 0.329576 0.602964 0.528303
Si Si2 0.243515 0.503346 0.161492
Si Si3 0.899173 0.726860 0.531420
Si Si4 0.389982 0.500718 0.897001
Si Si5 0.681969 0.939439 0.237930
O O1 0.287178 0.558117 0.334250
O O2 0.374316 0.681540 0.460159
O O3 0.384507 0.546224 0.673308
O O4 0.256299 0.613957 0.691852
O O5 0.214508 0.428572 0.288231
O O6 0.306814 0.477632 0.986175
O O7 0.182562 0.549687 0.017797
O O8 0.825497 0.674504 0.586904
O O9 0.975329 0.697058 0.660365
O O10 0.426619 0.555495 0.083035
O O11 0.604319 0.895682 0.311343
#
# Coordination Sequence:
#
# PCOD9555594 Si02
#       5
#     8   8   8   8   8
#     4  10  22  40  67  96 132 170 217 266 329 398
#     4  10  23  39  65  93 132 169 216 272 328 394
#     4  11  24  43  67  96 129 171 224 279 332 394
#     4  10  20  34  60  96 137 175 210 252 315 394
#     4  10  24  44  64  93 130 174 225 277 336 395
#
# _framework density 21.739417
#
# number of rings (size 3 to 8) (size 9 to 14) (size 15 to 20)
#    0.000    1.800    2.000    0.600    8.400    5.200 
#    0.000    2.000    0.000    0.000    0.000    0.000 
#    0.000    0.000    0.000    0.000    0.000    0.000 
#
# Total GULP energy -222898.075658 kJ/mol
# GULP energy per Si atom -5572.451891 kJ/mol
# Density = 2.168994 g / cm^3
# Si number density = 21.739417 Si / 1000 Ang^3
#
#
#
# Elastic Constant Matrix: (Units=GPa)
#
#
# Indices 1 2 3 4 5 6 
#
# 1 70.3690 38.1842 24.3819 0.0000 0.0000 0.0000
# 2 38.1842 70.3624 24.3827 0.0000 0.0000 0.0000
# 3 24.3819 24.3827 80.4545 0.0000 0.0000 0.0000
# 4 0.0000 0.0000 0.0000 19.5517 0.0000 0.0000
# 5 0.0000 0.0000 0.0000 0.0000 19.5523 0.0000
# 6 0.0000 0.0000 0.0000 0.0000 0.0000 36.7658
#
#
#
# Elastic Compliance Matrix: (Units=1/GPa)
#
#
# Indices 1 2 3 4 5 6 
#
# 1 0.020868 -0.010205 -0.003231 0.000000 0.000000 0.000000
# 2 -0.010205 0.020870 -0.003232 0.000000 0.000000 0.000000
# 3 -0.003231 -0.003232 0.014388 0.000000 0.000000 0.000000
# 4 0.000000 0.000000 0.000000 0.051147 0.000000 0.000000
# 5 0.000000 0.000000 0.000000 0.000000 0.051145 0.000000
# 6 0.000000 0.000000 0.000000 0.000000 0.000000 0.027199
#
#
# Mechanical properties :
#
#
# Convention : Reuss Voigt Hill
#
# Bulk Modulus (GPa) = 43.88034 43.89816 43.88925
# Shear Modulus (GPa) = 22.07016 24.12310 23.09663
#
# Velocity S-wave (km/s) = 3.18970 3.33475 3.26303
# Velocity P-wave (km/s) = 5.81327 5.92150 5.86763
#
# Compressibility (1/GPa) = 0.02278925
#
# Stress axis : x y z
#
# Youngs Moduli (GPa) = 47.92071 47.91532 69.50105
#
# Poissons Ratio (x) = 0.48896 0.22458
# Poissons Ratio (y) = 0.48902 0.22465
# Poissons Ratio (z) = 0.15485 0.15488
#
# Static dielectric constant tensor:
#      x y z
#    x 1.831150 0.000000 0.000000 
#    y 0.000000 1.831160 0.000000 
#    z 0.000000 0.000000 1.905220 
# 
# From -- ./inp_files/331.got.cif
#   From: 2010.05.17/outbox.cif.g08.bks.cpg/sg113_cif.got.tgz:331.got - 2010.05.20 11:03:00.
