data_PCOD9555239
_publ_section_title
;
Structure prediction by ZEFSAII (Michael W. Deem and Ramdas Pophale) SiO2 
 PCOD9555239
Probable space group: P -4 2 C
;
_chemical_formula_sum "Si O2"
_cell_formula_units_Z 16
_cell_length_a 5.223716
_cell_length_b 5.223716
_cell_length_c 24.909398
_cell_angle_alpha 90.000000
_cell_angle_beta 90.000000
_cell_angle_gamma 90.000000
_cell_volume 679.707946
_symmetry_space_group_name_H-M "P -4 2 C"
_symmetry_group_IT_number 112
_symmetry_cell_setting 'tetragonal'
loop_
_space_group_symop_operation_xyz
x,y,z
y,-x,-z
-x,-y,z
-y,x,-z
x,-y,1/2-z
-x,y,1/2-z
-y,-x,1/2+z
y,x,1/2+z
loop_
_atom_site_type_symbol
_atom_site_label
_atom_site_fract_x
_atom_site_fract_y
_atom_site_fract_z
Si Si1 0.000000 0.500000 0.427967
Si Si2 0.000000 0.500000 0.750000
Si Si3 0.500000 0.500000 0.500000
Si Si4 0.236331 0.340678 0.646367
O O1 0.753197 0.548509 0.464657
O O2 0.915294 0.278756 0.386725
O O3 0.835734 0.673391 0.709213
O O4 0.500000 0.500000 0.643235
O O5 0.000000 0.500000 0.622187
#
# Coordination Sequence:
#
# PCOD9555239 Si02
#       4
#     4   2   2   8
#     4  12  28  55  81 118 162 210 280 336 404 474
#     4   8  22  46  80 124 160 210 256 316 416 490
#     4  12  32  48  88 110 156 220 276 340 404 462
#     4  10  23  46  81 115 163 209 260 329 396 497
#
# _framework density 23.539524
#
# number of rings (size 3 to 8) (size 9 to 14) (size 15 to 20)
#    1.500    0.000    2.500    0.750    3.500    7.000 
#    0.000    7.500    0.000    0.000    0.000    0.000 
#    0.000    0.000    0.000    0.000    0.000    0.000 
#
# Total GULP energy -89348.137106 kJ/mol
# GULP energy per Si atom -5584.258569 kJ/mol
# Density = 2.348595 g / cm^3
# Si number density = 23.539524 Si / 1000 Ang^3
#
#
#
# Elastic Constant Matrix: (Units=GPa)
#
#
# Indices 1 2 3 4 5 6 
#
# 1 175.8290 73.4062 84.6439 0.0000 0.0000 0.0000
# 2 73.4062 175.8290 84.6439 0.0000 0.0000 0.0000
# 3 84.6439 84.6439 198.0992 0.0000 0.0000 0.0000
# 4 0.0000 0.0000 0.0000-1094.1853 0.0000 0.0000
# 5 0.0000 0.0000 0.0000 0.0000-1094.1853 0.0000
# 6 0.0000 0.0000 0.0000 0.0000 0.0000 42.2047
#
#
#
# Elastic Compliance Matrix: (Units=1/GPa)
#
#
# Indices 1 2 3 4 5 6 
#
# 1 0.007708 -0.002055 -0.002415 0.000000 0.000000 0.000000
# 2 -0.002055 0.007708 -0.002415 0.000000 0.000000 0.000000
# 3 -0.002415 -0.002415 0.007112 0.000000 0.000000 0.000000
# 4 0.000000 0.000000 0.000000 -0.000914 0.000000 0.000000
# 5 0.000000 0.000000 0.000000 0.000000 -0.000914 0.000000
# 6 0.000000 0.000000 0.000000 0.000000 0.000000 0.023694
#
#
# Mechanical properties :
#
#
# Convention : Reuss Voigt Hill
#
# Bulk Modulus (GPa) = 114.20304 115.01614 114.60959
# Shear Modulus (GPa) = 81.85274 -408.76229 -163.45478
#
# Velocity S-wave (km/s) = 5.90322 -13.19190 -8.34201
# Velocity P-wave (km/s) = 9.75114 13.53027 6.63263
#
# Compressibility (1/GPa) = 0.00875633
#
# Stress axis : x y z
#
# Youngs Moduli (GPa) = 129.73284 129.73284 140.60659
#
# Poissons Ratio (x) = 0.26664 0.33961
# Poissons Ratio (y) = 0.26664 0.33961
# Poissons Ratio (z) = 0.31335 0.31335
#
# Static dielectric constant tensor:
#      x y z
#    x 1.903130 0.000000 0.000000 
#    y 0.000000 1.903130 0.000000 
#    z 0.000000 0.000000 1.912860 
# 
# From -- ./inp_files/5992.got.cif
#   From: 2010.05.17/outbox.cif.g08.bks.cpg/sg112_3_cif.got.tgz:5992.got - 2010.05.20 10:59:04.
