data_PCOD9555160
_publ_section_title
;
Structure prediction by ZEFSAII (Michael W. Deem and Ramdas Pophale) SiO2 
 PCOD9555160
Probable space group: P -4 2 C
;
_chemical_formula_sum "Si O2"
_cell_formula_units_Z 32
_cell_length_a 11.202420
_cell_length_b 11.202420
_cell_length_c 12.370151
_cell_angle_alpha 90.000000
_cell_angle_beta 90.000000
_cell_angle_gamma 90.000000
_cell_volume 1552.382375
_symmetry_space_group_name_H-M "P -4 2 C"
_symmetry_group_IT_number 112
_symmetry_cell_setting 'tetragonal'
loop_
_space_group_symop_operation_xyz
x,y,z
y,-x,-z
-x,-y,z
-y,x,-z
x,-y,1/2-z
-x,y,1/2-z
-y,-x,1/2+z
y,x,1/2+z
loop_
_atom_site_type_symbol
_atom_site_label
_atom_site_fract_x
_atom_site_fract_y
_atom_site_fract_z
Si Si1 0.884307 0.238664 0.682286
Si Si2 0.781952 0.500000 0.750000
Si Si3 0.381622 0.072710 0.525880
Si Si4 0.518879 0.679828 0.474243
Si Si5 0.732700 0.000000 0.750000
O O1 0.844083 0.373300 0.719759
O O2 0.922014 0.269820 0.558015
O O3 0.801022 0.123635 0.710437
O O4 0.000000 0.209770 0.750000
O O5 0.711410 0.532017 0.642112
O O6 0.427014 0.207162 0.531290
O O7 0.500000 0.000000 0.485697
O O8 0.342654 0.030403 0.643253
O O9 0.621205 0.583385 0.455441
#
# Coordination Sequence:
#
# PCOD9555160 Si02
#       5
#     8   4   8   8   4
#     4  11  24  45  73 101 141 195 250 296 375 450
#     4  10  21  41  70  96 138 192 242 290 362 462
#     4  11  26  45  71 101 146 188 243 301 382 455
#     4  10  22  40  66  99 136 180 233 291 354 434
#     4  12  28  44  72 112 146 190 244 328 366 446
#
# _framework density 20.613477
#
# number of rings (size 3 to 8) (size 9 to 14) (size 15 to 20)
#    0.000    1.250    0.000    5.625   10.500    2.000 
#    4.500    0.000    0.000    0.000    0.000    0.000 
#    0.000    0.000    0.000    0.000    0.000    0.000 
#
# Total GULP energy -178165.731743 kJ/mol
# GULP energy per Si atom -5567.679117 kJ/mol
# Density = 2.056656 g / cm^3
# Si number density = 20.613477 Si / 1000 Ang^3
#
#
#
# Elastic Constant Matrix: (Units=GPa)
#
#
# Indices 1 2 3 4 5 6 
#
# 1 99.0797 47.0770 31.1914 0.0000 0.0000 0.0000
# 2 47.0770 99.0797 31.1914 0.0000 0.0000 0.0000
# 3 31.1914 31.1914 125.2585 0.0000 0.0000 0.0000
# 4 0.0000 0.0000 0.0000 -78.5328 0.0000 0.0000
# 5 0.0000 0.0000 0.0000 0.0000 -78.5328 0.0000
# 6 0.0000 0.0000 0.0000 0.0000 0.0000 3.2501
#
#
#
# Elastic Compliance Matrix: (Units=1/GPa)
#
#
# Indices 1 2 3 4 5 6 
#
# 1 0.013443 -0.005787 -0.001906 0.000000 0.000000 0.000000
# 2 -0.005787 0.013443 -0.001906 0.000000 0.000000 0.000000
# 3 -0.001906 -0.001906 0.008933 0.000000 0.000000 0.000000
# 4 0.000000 0.000000 0.000000 -0.012734 0.000000 0.000000
# 5 0.000000 0.000000 0.000000 0.000000 -0.012734 0.000000
# 6 0.000000 0.000000 0.000000 0.000000 0.000000 0.307682
#
#
# Mechanical properties :
#
#
# Convention : Reuss Voigt Hill
#
# Bulk Modulus (GPa) = 60.17313 60.25972 60.21643
# Shear Modulus (GPa) = 14.58695 -16.49922 -0.95614
#
# Velocity S-wave (km/s) = 2.66304 -2.83222 -0.68180
# Velocity P-wave (km/s) = 6.22175 4.31293 5.35311
#
# Compressibility (1/GPa) = 0.01661871
#
# Stress axis : x y z
#
# Youngs Moduli (GPa) = 74.38976 74.38976 111.94528
#
# Poissons Ratio (x) = 0.43050 0.21341
# Poissons Ratio (y) = 0.43050 0.21341
# Poissons Ratio (z) = 0.14182 0.14182
#
# Static dielectric constant tensor:
#      x y z
#    x 1.850310 0.000000 0.000000 
#    y 0.000000 1.850310 0.000000 
#    z 0.000000 0.000000 1.743980 
# 
# From -- ./inp_files/2240.got.cif
#   From: 2010.05.17/outbox.cif.g08.bks.cpg/sg112_2_cif.got.tgz:2240.got - 2010.05.20 10:59:04.
