data_PCOD9555217
_publ_section_title
;
Structure prediction by ZEFSAII (Michael W. Deem and Ramdas Pophale) SiO2 
 PCOD9555217
Probable space group: P -4 2 C
;
_chemical_formula_sum "Si O2"
_cell_formula_units_Z 36
_cell_length_a 10.723308
_cell_length_b 10.723308
_cell_length_c 13.302712
_cell_angle_alpha 90.000000
_cell_angle_beta 90.000000
_cell_angle_gamma 90.000000
_cell_volume 1529.669999
_symmetry_space_group_name_H-M "P -4 2 C"
_symmetry_group_IT_number 112
_symmetry_cell_setting 'tetragonal'
loop_
_space_group_symop_operation_xyz
x,y,z
y,-x,-z
-x,-y,z
-y,x,-z
x,-y,1/2-z
-x,y,1/2-z
-y,-x,1/2+z
y,x,1/2+z
loop_
_atom_site_type_symbol
_atom_site_label
_atom_site_fract_x
_atom_site_fract_y
_atom_site_fract_z
Si Si1 0.342819 0.102380 0.167248
Si Si2 0.550954 0.347098 0.430102
Si Si3 0.319080 0.500000 0.250000
Si Si4 0.186167 0.950143 0.508322
Si Si5 0.144460 0.272508 0.286161
O O1 0.430669 0.208211 0.114874
O O2 0.229688 0.179859 0.219707
O O3 0.379664 0.000000 0.250000
O O4 0.293683 0.027914 0.070560
O O5 0.632717 0.412393 0.521326
O O6 0.600291 0.427767 0.334288
O O7 0.223956 0.397980 0.292569
O O8 0.223533 0.868860 0.601807
O O9 0.076614 0.874722 0.453663
O O10 0.000000 0.289033 0.250000
#
# Coordination Sequence:
#
# PCOD9555217 Si02
#       5
#     8   8   4   8   8
#     4  11  22  39  66 107 150 196 250 332 406 477
#     4  10  23  45  74 106 138 200 270 329 400 487
#     4  10  23  41  68 100 138 188 263 341 396 467
#     4  11  21  33  58  96 138 196 252 302 377 486
#     4  11  21  37  61  97 146 198 256 319 406 480
#
# _framework density 23.534486999999999
#
# number of rings (size 3 to 8) (size 9 to 14) (size 15 to 20)
#    0.000    1.333    4.444    1.667    0.000    2.222 
#    0.000    0.000    0.000    0.000   17.333    0.000 
#    0.000    0.000    0.000    0.000    0.000    0.000 
#
# Total GULP energy -200608.682715 kJ/mol
# GULP energy per Si atom -5572.463409 kJ/mol
# Density = 2.348092 g / cm^3
# Si number density = 23.534487 Si / 1000 Ang^3
#
#
#
# Elastic Constant Matrix: (Units=GPa)
#
#
# Indices 1 2 3 4 5 6 
#
# 1 111.7169 47.8238 32.7898 0.0000 0.0000 0.0000
# 2 47.8238 111.7169 32.7898 0.0000 0.0000 0.0000
# 3 32.7898 32.7898 86.9871 0.0000 0.0000 0.0000
# 4 0.0000 0.0000 0.0000 26.4356 0.0000 0.0000
# 5 0.0000 0.0000 0.0000 0.0000 26.4356 0.0000
# 6 0.0000 0.0000 0.0000 0.0000 0.0000 6.0665
#
#
#
# Elastic Compliance Matrix: (Units=1/GPa)
#
#
# Indices 1 2 3 4 5 6 
#
# 1 0.011534 -0.004117 -0.002796 0.000000 0.000000 0.000000
# 2 -0.004117 0.011534 -0.002796 0.000000 0.000000 0.000000
# 3 -0.002796 -0.002796 0.013604 0.000000 0.000000 0.000000
# 4 0.000000 0.000000 0.000000 0.037828 0.000000 0.000000
# 5 0.000000 0.000000 0.000000 0.000000 0.037828 0.000000
# 6 0.000000 0.000000 0.000000 0.000000 0.000000 0.164839
#
#
# Mechanical properties :
#
#
# Convention : Reuss Voigt Hill
#
# Bulk Modulus (GPa) = 57.95560 59.69199 58.82379
# Shear Modulus (GPa) = 16.53792 24.92207 20.72999
#
# Velocity S-wave (km/s) = 2.65374 3.25770 2.97111
# Velocity P-wave (km/s) = 5.83687 6.29037 6.06786
#
# Compressibility (1/GPa) = 0.01725459
#
# Stress axis : x y z
#
# Youngs Moduli (GPa) = 86.69863 86.69863 73.50878
#
# Poissons Ratio (x) = 0.35693 0.20553
# Poissons Ratio (y) = 0.35693 0.20553
# Poissons Ratio (z) = 0.24240 0.24240
#
# Static dielectric constant tensor:
#      x y z
#    x 2.017440 0.000000 0.000000 
#    y 0.000000 2.017440 0.000000 
#    z 0.000000 0.000000 1.889590 
# 
# From -- ./inp_files/2356.got.cif
#   From: 2010.05.17/outbox.cif.g08.bks.cpg/sg112_2_cif.got.tgz:2356.got - 2010.05.20 10:59:04.
