data_PCOD9555054
_publ_section_title
;
Structure prediction by ZEFSAII (Michael W. Deem and Ramdas Pophale) SiO2 
 PCOD9555054
Probable space group: P -4 2 C
;
_chemical_formula_sum "Si O2"
_cell_formula_units_Z 48
_cell_length_a 14.263045
_cell_length_b 14.263045
_cell_length_c 10.497963
_cell_angle_alpha 90.000000
_cell_angle_beta 90.000000
_cell_angle_gamma 90.000000
_cell_volume 2135.647357
_symmetry_space_group_name_H-M "P -4 2 C"
_symmetry_group_IT_number 112
_symmetry_cell_setting 'tetragonal'
loop_
_space_group_symop_operation_xyz
x,y,z
y,-x,-z
-x,-y,z
-y,x,-z
x,-y,1/2-z
-x,y,1/2-z
-y,-x,1/2+z
y,x,1/2+z
loop_
_atom_site_type_symbol
_atom_site_label
_atom_site_fract_x
_atom_site_fract_y
_atom_site_fract_z
Si Si1 0.007232 0.150333 0.498224
Si Si2 0.300360 0.542709 0.384036
Si Si3 0.500000 0.500000 0.500000
Si Si4 0.733259 0.799030 0.643939
Si Si5 0.135717 0.735266 0.630042
Si Si6 0.263927 0.000000 0.750000
Si Si7 0.484736 0.172837 0.380431
Si Si8 0.000000 0.500000 0.750000
O O1 0.965536 0.219246 0.604508
O O2 0.035804 0.204468 0.370985
O O3 0.083794 0.078548 0.547528
O O4 0.274681 0.500000 0.250000
O O5 0.407377 0.522128 0.418620
O O6 0.277286 0.651786 0.366640
O O7 0.233957 0.501225 0.495574
O O8 0.766044 0.808728 0.498123
O O9 0.811956 0.766530 0.742834
O O10 0.694138 0.902147 0.691547
O O11 0.137139 0.622819 0.618248
O O12 0.500000 0.231272 0.250000
O O13 0.542702 0.077336 0.349185
#
# Coordination Sequence:
#
# PCOD9555054 Si02
#       8
#     8   8   2   8   8   4   8   2
#     4  10  20  36  56  89 136 185 241 291 354 418
#     4  11  27  47  73 113 140 195 240 313 385 474
#     4  12  30  48  80 114 162 192 248 322 426 484
#     4  10  23  43  67  97 138 182 242 297 369 437
#     4  10  21  41  63  94 131 185 234 296 354 433
#     4  10  20  43  57  94 142 186 238 308 355 437
#     4   9  22  45  71 100 143 184 245 303 376 454
#     4   8  20  48  70  98 140 198 234 316 364 458
#
# _framework density 22.475618999999998
#
# number of rings (size 3 to 8) (size 9 to 14) (size 15 to 20)
#    0.500    1.500    1.667    0.250    7.000    1.333 
#   15.000    0.000    0.000    0.000    0.000    0.000 
#    0.000    0.000    0.000    0.000    0.000    0.000 
#
# Total GULP energy -267384.992413 kJ/mol
# GULP energy per Si atom -5570.520675 kJ/mol
# Density = 2.242446 g / cm^3
# Si number density = 22.475619 Si / 1000 Ang^3
#
#
#
# Elastic Constant Matrix: (Units=GPa)
#
#
# Indices 1 2 3 4 5 6 
#
# 1 68.4117 25.3295 44.5132 0.0000 0.0000 0.0000
# 2 25.3295 68.4117 44.5132 0.0000 0.0000 0.0000
# 3 44.5132 44.5132 173.7241 0.0000 0.0000 0.0000
# 4 0.0000 0.0000 0.0000 16.6687 0.0000 0.0000
# 5 0.0000 0.0000 0.0000 0.0000 16.6687 0.0000
# 6 0.0000 0.0000 0.0000 0.0000 0.0000 54.7701
#
#
#
# Elastic Compliance Matrix: (Units=1/GPa)
#
#
# Indices 1 2 3 4 5 6 
#
# 1 0.018655 -0.004557 -0.003612 0.000000 0.000000 0.000000
# 2 -0.004557 0.018655 -0.003612 0.000000 0.000000 0.000000
# 3 -0.003612 -0.003612 0.007607 0.000000 0.000000 0.000000
# 4 0.000000 0.000000 0.000000 0.059993 0.000000 0.000000
# 5 0.000000 0.000000 0.000000 0.000000 0.059993 0.000000
# 6 0.000000 0.000000 0.000000 0.000000 0.000000 0.018258
#
#
# Mechanical properties :
#
#
# Convention : Reuss Voigt Hill
#
# Bulk Modulus (GPa) = 46.82835 59.91770 53.37303
# Shear Modulus (GPa) = 23.38176 30.70094 27.04135
#
# Velocity S-wave (km/s) = 3.22889 3.69991 3.47240
# Velocity P-wave (km/s) = 5.89758 6.70591 6.31469
#
# Compressibility (1/GPa) = 0.02135458
#
# Stress axis : x y z
#
# Youngs Moduli (GPa) = 53.60514 53.60514 131.44967
#
# Poissons Ratio (x) = 0.24425 0.47485
# Poissons Ratio (y) = 0.24425 0.47485
# Poissons Ratio (z) = 0.19364 0.19364
#
# Static dielectric constant tensor:
#      x y z
#    x 2.076410 0.000000 0.000000 
#    y 0.000000 2.076410 0.000000 
#    z 0.000000 0.000000 1.818650 
# 
# From -- ./inp_files/2635.got.cif
#   From: 2010.05.17/outbox.cif.g08.bks.cpg/sg112_2_cif.got.tgz:2635.got - 2010.05.20 10:59:04.
