data_PCOD9555250
_publ_section_title
;
Structure prediction by ZEFSAII (Michael W. Deem and Ramdas Pophale) SiO2 
 PCOD9555250
Probable space group: P -4 2 C
;
_chemical_formula_sum "Si O2"
_cell_formula_units_Z 40
_cell_length_a 12.475799
_cell_length_b 12.475799
_cell_length_c 9.012094
_cell_angle_alpha 90.000000
_cell_angle_beta 90.000000
_cell_angle_gamma 90.000000
_cell_volume 1402.692424
_symmetry_space_group_name_H-M "P -4 2 C"
_symmetry_group_IT_number 112
_symmetry_cell_setting 'tetragonal'
loop_
_space_group_symop_operation_xyz
x,y,z
y,-x,-z
-x,-y,z
-y,x,-z
x,-y,1/2-z
-x,y,1/2-z
-y,-x,1/2+z
y,x,1/2+z
loop_
_atom_site_type_symbol
_atom_site_label
_atom_site_fract_x
_atom_site_fract_y
_atom_site_fract_z
Si Si1 0.627750 0.669918 0.158880
Si Si2 0.000000 0.000000 0.000000
Si Si3 0.750000 0.750000 0.897769
Si Si4 0.815470 0.500000 0.250000
Si Si5 0.169918 0.872250 0.841120
Si Si6 0.500000 0.500000 0.500000
Si Si7 0.500000 0.000000 1.000000
Si Si8 0.000000 0.684530 0.750000
O O1 0.641059 0.747648 0.299381
O O2 0.727536 0.591050 0.200226
O O3 0.653646 0.736527 0.012332
O O4 0.530200 0.597846 0.105378
O O5 0.902154 0.030200 0.894622
O O6 0.752351 0.858941 0.799381
O O7 0.846354 0.763473 0.012332
O O8 0.897015 0.507900 0.389833
O O9 0.091050 0.772464 0.799774
O O10 0.602985 0.007900 0.110167
#
# Coordination Sequence:
#
# PCOD9555250 Si02
#       8
#     8   2   8   4   8   2   4   4
#     4  11  24  45  69 104 142 193 243 312 381 459
#     4  12  28  46  76 114 156 198 260 322 392 470
#     4  10  24  44  68  94 138 186 242 294 376 452
#     4  11  22  41  66  96 136 179 244 309 378 444
#     4  11  24  45  69 104 142 193 243 312 381 459
#     4  12  28  46  76 114 156 198 260 322 392 470
#     4  10  24  42  68 102 136 194 260 318 376 474
#     4  11  22  41  66  96 136 179 244 309 378 444
#
# _framework density 28.516584999999999
#
# number of rings (size 3 to 8) (size 9 to 14) (size 15 to 20)
#    0.000    1.200    0.000    4.800    0.000   10.400 
#    0.000    0.000    0.000    0.000    0.000    0.000 
#    0.000    0.000    0.000    0.000    0.000    0.000 
#
# Total GULP energy -223582.858521 kJ/mol
# GULP energy per Si atom -5589.571463 kJ/mol
# Density = 2.845168 g / cm^3
# Si number density = 28.516585 Si / 1000 Ang^3
#
#
#
# Elastic Constant Matrix: (Units=GPa)
#
#
# Indices 1 2 3 4 5 6 
#
# 1 76.1291 14.2209 20.7856 0.0000 0.0000 0.0000
# 2 14.2209 76.1291 20.7856 0.0000 0.0000 0.0000
# 3 20.7856 20.7856 236.7501 0.0000 0.0000 0.0000
# 4 0.0000 0.0000 0.0000 41.0158 0.0000 0.0000
# 5 0.0000 0.0000 0.0000 0.0000 41.0158 0.0000
# 6 0.0000 0.0000 0.0000 0.0000 0.0000 93.9082
#
#
#
# Elastic Compliance Matrix: (Units=1/GPa)
#
#
# Indices 1 2 3 4 5 6 
#
# 1 0.013843 -0.002309 -0.001013 0.000000 0.000000 0.000000
# 2 -0.002309 0.013843 -0.001013 0.000000 0.000000 0.000000
# 3 -0.001013 -0.001013 0.004402 0.000000 0.000000 0.000000
# 4 0.000000 0.000000 0.000000 0.024381 0.000000 0.000000
# 5 0.000000 0.000000 0.000000 0.000000 0.024381 0.000000
# 6 0.000000 0.000000 0.000000 0.000000 0.000000 0.010649
#
#
# Mechanical properties :
#
#
# Convention : Reuss Voigt Hill
#
# Bulk Modulus (GPa) = 42.70016 55.62139 49.16078
# Shear Modulus (GPa) = 46.30709 57.40239 51.85474
#
# Velocity S-wave (km/s) = 4.03409 4.49146 4.26890
# Velocity P-wave (km/s) = 6.05845 6.81505 6.44786
#
# Compressibility (1/GPa) = 0.02341911
#
# Stress axis : x y z
#
# Youngs Moduli (GPa) = 72.23624 72.23624 227.18643
#
# Poissons Ratio (x) = 0.16683 0.23006
# Poissons Ratio (y) = 0.16683 0.23006
# Poissons Ratio (z) = 0.07315 0.07315
#
# Static dielectric constant tensor:
#      x y z
#    x 2.472660 0.000000 0.000000 
#    y 0.000000 2.472660 0.000000 
#    z 0.000000 0.000000 2.293720 
# 
# From -- ./inp_files/1349.got.cif
#   From: 2010.05.17/outbox.cif.g08.bks.cpg/sg112_1_cif.got.tgz:1349.got - 2010.05.20 10:59:04.
