data_PCOD9555367
_publ_section_title
;
Structure prediction by ZEFSAII (Michael W. Deem and Ramdas Pophale) SiO2 
 PCOD9555367
Probable space group: P -4 2 C
;
_chemical_formula_sum "Si O2"
_cell_formula_units_Z 36
_cell_length_a 9.312787
_cell_length_b 9.312787
_cell_length_c 20.225316
_cell_angle_alpha 90.000000
_cell_angle_beta 90.000000
_cell_angle_gamma 90.000000
_cell_volume 1754.101241
_symmetry_space_group_name_H-M "P -4 2 C"
_symmetry_group_IT_number 112
_symmetry_cell_setting 'tetragonal'
loop_
_space_group_symop_operation_xyz
x,y,z
y,-x,-z
-x,-y,z
-y,x,-z
x,-y,1/2-z
-x,y,1/2-z
-y,-x,1/2+z
y,x,1/2+z
loop_
_atom_site_type_symbol
_atom_site_label
_atom_site_fract_x
_atom_site_fract_y
_atom_site_fract_z
Si Si1 0.000000 0.500000 0.250000
Si Si2 0.819785 0.156511 0.911314
Si Si3 0.329183 0.643252 0.012890
Si Si4 0.000000 0.000000 0.500000
Si Si5 0.704390 0.851833 0.859493
Si Si6 0.660869 0.012884 0.172173
O O1 0.899422 0.400935 0.201263
O O2 0.873410 0.252291 0.851841
O O3 0.762980 0.003982 0.887039
O O4 0.718276 0.233424 0.962881
O O5 0.964600 0.131929 0.953927
O O6 0.231694 0.632684 0.078389
O O7 0.495099 0.673820 0.028064
O O8 0.840060 0.749713 0.841092
O O9 0.500000 0.000000 0.142521
O O10 0.648770 0.000000 0.250000
#
# Coordination Sequence:
#
# PCOD9555367 Si02
#       6
#     2   8   8   2   8   8
#     4  12  28  44  66 102 144 192 238 280 356 436
#     4  12  21  41  66 101 133 172 229 291 355 413
#     4  11  25  43  67 100 140 182 230 286 359 427
#     4  12  20  36  62 104 128 160 216 282 356 392
#     4  12  24  44  69 100 138 186 234 293 355 421
#     4  11  24  41  66  98 136 183 234 292 354 419
#
# _framework density 20.523330999999999
#
# number of rings (size 3 to 8) (size 9 to 14) (size 15 to 20)
#    0.000    0.444    4.444    4.000    0.000    0.889 
#    2.000    2.222    0.000    2.667    0.000    0.000 
#    0.000    0.000    0.000    0.000    0.000    0.000 
#
# Total GULP energy -200815.404893 kJ/mol
# GULP energy per Si atom -5578.205691 kJ/mol
# Density = 2.047662 g / cm^3
# Si number density = 20.523331 Si / 1000 Ang^3
#
#
#
# Elastic Constant Matrix: (Units=GPa)
#
#
# Indices 1 2 3 4 5 6 
#
# 1 127.8068 54.5847 47.6862 0.0000 0.0000 0.0000
# 2 54.5847 127.8068 47.6862 0.0000 0.0000 0.0000
# 3 47.6862 47.6862 99.3482 0.0000 0.0000 0.0000
# 4 0.0000 0.0000 0.0000 37.0622 0.0000 0.0000
# 5 0.0000 0.0000 0.0000 0.0000 37.0622 0.0000
# 6 0.0000 0.0000 0.0000 0.0000 0.0000 33.0487
#
#
#
# Elastic Compliance Matrix: (Units=1/GPa)
#
#
# Indices 1 2 3 4 5 6 
#
# 1 0.010488 -0.003169 -0.003513 0.000000 0.000000 0.000000
# 2 -0.003169 0.010488 -0.003513 0.000000 0.000000 0.000000
# 3 -0.003513 -0.003513 0.013439 0.000000 0.000000 0.000000
# 4 0.000000 0.000000 0.000000 0.026982 0.000000 0.000000
# 5 0.000000 0.000000 0.000000 0.000000 0.026982 0.000000
# 6 0.000000 0.000000 0.000000 0.000000 0.000000 0.030258
#
#
# Mechanical properties :
#
#
# Convention : Reuss Voigt Hill
#
# Bulk Modulus (GPa) = 71.30450 72.76400 72.03425
# Shear Modulus (GPa) = 34.79397 35.10161 34.94779
#
# Velocity S-wave (km/s) = 4.12191 4.14010 4.13102
# Velocity P-wave (km/s) = 7.58104 7.64102 7.61109
#
# Compressibility (1/GPa) = 0.01402436
#
# Stress axis : x y z
#
# Youngs Moduli (GPa) = 95.34258 95.34258 74.41305
#
# Poissons Ratio (x) = 0.30210 0.26145
# Poissons Ratio (y) = 0.30210 0.26145
# Poissons Ratio (z) = 0.33499 0.33499
#
# Static dielectric constant tensor:
#      x y z
#    x 1.776560 0.000000 0.000000 
#    y 0.000000 1.776560 0.000000 
#    z 0.000000 0.000000 1.738860 
# 
# From -- ./inp_files/4699.got.cif
#   From: 2010.05.17/outbox.cif.g08.bks.cpg/sg112_3_cif.got.tgz:4699.got - 2010.05.20 10:59:04.
