data_PCOD9555722
_publ_section_title
;
Structure prediction by ZEFSAII (Michael W. Deem and Ramdas Pophale) SiO2 
 PCOD9555722
Probable space group: P -4 21 M 
;
_chemical_formula_sum "Si O2"
_cell_formula_units_Z 26
_cell_length_a 10.482539
_cell_length_b 10.482539
_cell_length_c 11.712240
_cell_angle_alpha 90.000000
_cell_angle_beta 90.000000
_cell_angle_gamma 90.000000
_cell_volume 1286.983375
_symmetry_space_group_name_H-M "P -4 21 M "
_symmetry_group_IT_number 113
_symmetry_cell_setting 'tetragonal'
loop_
_space_group_symop_operation_xyz
x,y,z
y,-x,-z
-x,-y,z
-y,x,-z
1/2+x,1/2-y,-z
1/2-x,1/2+y,-z
1/2-y,1/2-x,z
1/2+y,1/2+x,z
loop_
_atom_site_type_symbol
_atom_site_label
_atom_site_fract_x
_atom_site_fract_y
_atom_site_fract_z
Si Si1 0.191543 0.308458 0.526942
Si Si2 0.679317 0.820684 0.311692
Si Si3 0.000000 0.500000 0.544625
Si Si4 0.141734 0.958409 0.288023
Si Si5 0.632757 0.655103 0.957770
O O1 0.256533 0.243468 0.421008
O O2 0.091080 0.408921 0.475594
O O3 0.288320 0.386511 0.608086
O O4 0.582041 0.917960 0.369001
O O5 0.781939 0.912135 0.252313
O O6 0.138033 0.867583 0.178513
O O7 0.000000 0.000000 0.321124
O O8 0.729982 0.770019 0.988435
O O9 0.673489 0.516557 0.009676
#
# Coordination Sequence:
#
# PCOD9555722 Si02
#       5
#     4   4   2   8   8
#     4  10  22  40  61  90 126 168 215 264 317 383
#     4  10  24  38  65  90 123 169 218 256 324 389
#     4   8  20  40  52  84 118 156 214 252 302 380
#     4  11  23  41  64  92 128 169 213 267 327 385
#     4  11  24  45  68  98 134 171 222 279 333 401
#
# _framework density 20.202280999999999
#
# number of rings (size 3 to 8) (size 9 to 14) (size 15 to 20)
#    0.000    1.538    4.615    0.000   10.769    0.615 
#    0.000    0.000    0.000    0.000    0.000    0.000 
#    0.000    0.000    0.000    0.000    0.000    0.000 
#
# Total GULP energy -145077.988782 kJ/mol
# GULP energy per Si atom -5579.922645 kJ/mol
# Density = 2.015630 g / cm^3
# Si number density = 20.202281 Si / 1000 Ang^3
#
#
#
# Elastic Constant Matrix: (Units=GPa)
#
#
# Indices 1 2 3 4 5 6 
#
# 1 106.3987 64.3578 -1.1586 0.0000 0.0000 0.0000
# 2 64.3578 106.3949 -1.1603 0.0000 0.0000 0.0000
# 3 -1.1586 -1.1603 40.3439 0.0000 0.0000 0.0000
# 4 0.0000 0.0000 0.0000 40.3154 0.0000 0.0000
# 5 0.0000 0.0000 0.0000 0.0000 40.3152 0.0000
# 6 0.0000 0.0000 0.0000 0.0000 0.0000 60.2011
#
#
#
# Elastic Compliance Matrix: (Units=1/GPa)
#
#
# Indices 1 2 3 4 5 6 
#
# 1 0.014823 -0.008964 0.000168 0.000000 0.000000 0.000000
# 2 -0.008964 0.014823 0.000169 0.000000 0.000000 0.000000
# 3 0.000168 0.000169 0.024797 0.000000 0.000000 0.000000
# 4 0.000000 0.000000 0.000000 0.024804 0.000000 0.000000
# 5 0.000000 0.000000 0.000000 0.000000 0.024805 0.000000
# 6 0.000000 0.000000 0.000000 0.000000 0.000000 0.016611
#
#
# Mechanical properties :
#
#
# Convention : Reuss Voigt Hill
#
# Bulk Modulus (GPa) = 26.89087 41.91280 34.40184
# Shear Modulus (GPa) = 33.26377 40.90623 37.08500
#
# Velocity S-wave (km/s) = 4.06215 4.50470 4.28914
# Velocity P-wave (km/s) = 5.94484 6.91722 6.44939
#
# Compressibility (1/GPa) = 0.03718735
#
# Stress axis : x y z
#
# Youngs Moduli (GPa) = 67.46382 67.46131 40.32815
#
# Poissons Ratio (x) = 0.60475 -0.00677
# Poissons Ratio (y) = 0.60477 -0.00681
# Poissons Ratio (z) = -0.01132 -0.01139
#
# Static dielectric constant tensor:
#      x y z
#    x 1.738570 0.000000 0.000000 
#    y 0.000000 1.738570 0.000000 
#    z 0.000000 0.000000 1.683910 
# 
# From -- ./inp_files/745.got.cif
#   From: 2010.05.17/outbox.cif.g08.bks.cpg/sg113_cif.got.tgz:745.got - 2010.05.20 11:03:00.
