data_PCOD9555141
_publ_section_title
;
Structure prediction by ZEFSAII (Michael W. Deem and Ramdas Pophale) SiO2 
 PCOD9555141
Probable space group: P -4 2 C
;
_chemical_formula_sum "Si O2"
_cell_formula_units_Z 56
_cell_length_a 10.425184
_cell_length_b 10.425184
_cell_length_c 23.983151
_cell_angle_alpha 90.000000
_cell_angle_beta 90.000000
_cell_angle_gamma 90.000000
_cell_volume 2606.595850
_symmetry_space_group_name_H-M "P -4 2 C"
_symmetry_group_IT_number 112
_symmetry_cell_setting 'tetragonal'
loop_
_space_group_symop_operation_xyz
x,y,z
y,-x,-z
-x,-y,z
-y,x,-z
x,-y,1/2-z
-x,y,1/2-z
-y,-x,1/2+z
y,x,1/2+z
loop_
_atom_site_type_symbol
_atom_site_label
_atom_site_fract_x
_atom_site_fract_y
_atom_site_fract_z
Si Si1 0.618366 0.139290 0.720839
Si Si2 0.195565 0.909156 0.499535
Si Si3 0.712148 0.532422 0.007238
Si Si4 0.584123 0.822959 0.392635
Si Si5 0.626912 0.805289 0.901648
Si Si6 0.131586 0.150357 0.729520
Si Si7 0.104133 0.695330 0.878111
O O1 0.500000 0.208086 0.750000
O O2 0.607081 0.120891 0.655411
O O3 0.749246 0.206973 0.737591
O O4 0.624533 0.000000 0.750000
O O5 0.282258 0.874901 0.553029
O O6 0.260454 0.871309 0.441275
O O7 0.059814 0.836650 0.503414
O O8 0.774234 0.504902 0.066754
O O9 0.638644 0.399065 0.992603
O O10 0.815940 0.562539 0.959918
O O11 0.673305 0.699095 0.383877
O O12 0.440811 0.825096 0.367339
O O13 0.658518 0.952385 0.376058
O O14 0.138816 0.189961 0.664724
O O15 0.000000 0.210030 0.750000
O O16 0.126449 0.000000 0.750000
#
# Coordination Sequence:
#
# PCOD9555141 Si02
#       7
#     8   8   8   8   8   8   8
#     4  10  24  46  62  97 132 181 237 281 338 413
#     4  11  24  37  63 103 140 177 221 285 361 418
#     4   9  19  36  62  96 129 173 223 266 348 427
#     4  10  21  39  62  93 137 169 221 278 359 416
#     4  11  21  42  66  93 139 176 219 291 342 420
#     4  10  23  41  70  94 125 178 232 284 345 412
#     4  11  22  40  60  99 135 170 228 286 344 429
#
# _framework density 21.483958000000001
#
# number of rings (size 3 to 8) (size 9 to 14) (size 15 to 20)
#    0.000    1.714    2.857    0.857    4.000    2.286 
#    5.143    5.000    0.000    0.857    0.000    0.000 
#    0.000    0.000    0.000    0.000    0.000    0.000 
#
# Total GULP energy -312431.892383 kJ/mol
# GULP energy per Si atom -5579.140935 kJ/mol
# Density = 2.143506 g / cm^3
# Si number density = 21.483958 Si / 1000 Ang^3
#
#
#
# Elastic Constant Matrix: (Units=GPa)
#
#
# Indices 1 2 3 4 5 6 
#
# 1 77.7397 -1.4775 39.3383 0.0000 0.0000 0.0000
# 2 -1.4775 77.7397 39.3383 0.0000 0.0000 0.0000
# 3 39.3383 39.3383 171.8942 0.0000 0.0000 0.0000
# 4 0.0000 0.0000 0.0000 33.1997 0.0000 0.0000
# 5 0.0000 0.0000 0.0000 0.0000 33.1997 0.0000
# 6 0.0000 0.0000 0.0000 0.0000 0.0000 14.7426
#
#
#
# Elastic Compliance Matrix: (Units=1/GPa)
#
#
# Indices 1 2 3 4 5 6 
#
# 1 0.014894 0.002271 -0.003928 0.000000 0.000000 0.000000
# 2 0.002271 0.014894 -0.003928 0.000000 0.000000 0.000000
# 3 -0.003928 -0.003928 0.007616 0.000000 0.000000 0.000000
# 4 0.000000 0.000000 0.000000 0.030121 0.000000 0.000000
# 5 0.000000 0.000000 0.000000 0.000000 0.030121 0.000000
# 6 0.000000 0.000000 0.000000 0.000000 0.000000 0.067831
#
#
# Mechanical properties :
#
#
# Convention : Reuss Voigt Hill
#
# Bulk Modulus (GPa) = 38.12003 53.53021 45.82512
# Shear Modulus (GPa) = 26.96982 32.90670 29.93826
#
# Velocity S-wave (km/s) = 3.54693 3.91792 3.73703
# Velocity P-wave (km/s) = 5.87846 6.74072 6.32430
#
# Compressibility (1/GPa) = 0.02623293
#
# Stress axis : x y z
#
# Youngs Moduli (GPa) = 67.13924 67.13924 131.31056
#
# Poissons Ratio (x) = -0.15247 0.51583
# Poissons Ratio (y) = -0.15247 0.51583
# Poissons Ratio (z) = 0.26374 0.26374
#
# Static dielectric constant tensor:
#      x y z
#    x 1.798600 0.000000 0.000000 
#    y 0.000000 1.798600 0.000000 
#    z 0.000000 0.000000 1.783530 
# 
# From -- ./inp_files/4946.got.cif
#   From: 2010.05.17/outbox.cif.g08.bks.cpg/sg112_3_cif.got.tgz:4946.got - 2010.05.20 10:59:04.
