data_PCOD9555145
_publ_section_title
;
Structure prediction by ZEFSAII (Michael W. Deem and Ramdas Pophale) SiO2 
 PCOD9555145
Probable space group: P -4 2 C
;
_chemical_formula_sum "Si O2"
_cell_formula_units_Z 34
_cell_length_a 8.680378
_cell_length_b 8.680378
_cell_length_c 21.192113
_cell_angle_alpha 90.000000
_cell_angle_beta 90.000000
_cell_angle_gamma 90.000000
_cell_volume 1596.803722
_symmetry_space_group_name_H-M "P -4 2 C"
_symmetry_group_IT_number 112
_symmetry_cell_setting 'tetragonal'
loop_
_space_group_symop_operation_xyz
x,y,z
y,-x,-z
-x,-y,z
-y,x,-z
x,-y,1/2-z
-x,y,1/2-z
-y,-x,1/2+z
y,x,1/2+z
loop_
_atom_site_type_symbol
_atom_site_label
_atom_site_fract_x
_atom_site_fract_y
_atom_site_fract_z
Si Si1 0.615949 0.647447 0.074533
Si Si2 0.000000 0.500000 0.750000
Si Si3 0.858995 0.193062 0.515942
Si Si4 0.827074 0.348685 0.637587
Si Si5 0.515984 0.817024 0.823566
O O1 0.500000 0.500000 0.064867
O O2 0.505732 0.778240 0.102391
O O3 0.732089 0.603108 0.130682
O O4 0.721059 0.706871 0.015976
O O5 0.904462 0.392755 0.702805
O O6 0.914366 0.256232 0.583476
O O7 0.016324 0.194145 0.475919
O O8 0.678944 0.245614 0.652704
O O9 0.500000 0.773474 0.750000
O O10 0.500000 0.000000 0.828878
#
# Coordination Sequence:
#
# PCOD9555145 Si02
#       5
#     8   2   8   8   8
#     4  10  23  40  64  98 133 173 228 279 339 402
#     4  12  24  44  62 102 136 176 234 264 348 408
#     4  11  25  44  66  97 137 175 221 276 348 407
#     4  11  24  40  68  94 133 182 219 286 333 401
#     4  10  21  39  65  96 132 174 224 278 337 400
#
# _framework density 21.292536999999999
#
# number of rings (size 3 to 8) (size 9 to 14) (size 15 to 20)
#    0.000    1.412    0.000    4.235    6.588    3.294 
#    2.118    2.353    0.000    2.824    0.000    0.000 
#    0.000    0.000    0.000    0.000    0.000    0.000 
#
# Total GULP energy -189938.469945 kJ/mol
# GULP energy per Si atom -5586.425587 kJ/mol
# Density = 2.124407 g / cm^3
# Si number density = 21.292537 Si / 1000 Ang^3
#
#
#
# Elastic Constant Matrix: (Units=GPa)
#
#
# Indices 1 2 3 4 5 6 
#
# 1 74.2566 42.6253 39.6429 0.0000 0.0000 0.0000
# 2 42.6253 74.2566 39.6429 0.0000 0.0000 0.0000
# 3 39.6429 39.6429 127.5137 0.0000 0.0000 0.0000
# 4 0.0000 0.0000 0.0000 43.2200 0.0000 0.0000
# 5 0.0000 0.0000 0.0000 0.0000 43.2200 0.0000
# 6 0.0000 0.0000 0.0000 0.0000 0.0000 27.3791
#
#
#
# Elastic Compliance Matrix: (Units=1/GPa)
#
#
# Indices 1 2 3 4 5 6 
#
# 1 0.021228 -0.010386 -0.003371 0.000000 0.000000 0.000000
# 2 -0.010386 0.021228 -0.003371 0.000000 0.000000 0.000000
# 3 -0.003371 -0.003371 0.009938 0.000000 0.000000 0.000000
# 4 0.000000 0.000000 0.000000 0.023137 0.000000 0.000000
# 5 0.000000 0.000000 0.000000 0.000000 0.023137 0.000000
# 6 0.000000 0.000000 0.000000 0.000000 0.000000 0.036524
#
#
# Mechanical properties :
#
#
# Convention : Reuss Voigt Hill
#
# Bulk Modulus (GPa) = 55.12821 57.76100 56.44460
# Shear Modulus (GPa) = 28.49083 33.03822 30.76453
#
# Velocity S-wave (km/s) = 3.66193 3.94335 3.80524
# Velocity P-wave (km/s) = 6.62017 6.92240 6.77297
#
# Compressibility (1/GPa) = 0.01813953
#
# Stress axis : x y z
#
# Youngs Moduli (GPa) = 47.10719 47.10719 100.62235
#
# Poissons Ratio (x) = 0.48926 0.33917
# Poissons Ratio (y) = 0.48926 0.33917
# Poissons Ratio (z) = 0.15879 0.15879
#
# Static dielectric constant tensor:
#      x y z
#    x 1.794600 0.000000 0.000000 
#    y 0.000000 1.794600 0.000000 
#    z 0.000000 0.000000 1.793170 
# 
# From -- ./inp_files/4646.got.cif
#   From: 2010.05.17/outbox.cif.g08.bks.cpg/sg112_3_cif.got.tgz:4646.got - 2010.05.20 10:59:04.
