data_PCOD9555846
_publ_section_title
;
Structure prediction by ZEFSAII (Michael W. Deem and Ramdas Pophale) SiO2 
 PCOD9555846
Probable space group: P -4 21 C
;
_chemical_formula_sum "Si O2"
_cell_formula_units_Z 38
_cell_length_a 11.256884
_cell_length_b 11.256884
_cell_length_c 10.722503
_cell_angle_alpha 90.000000
_cell_angle_beta 90.000000
_cell_angle_gamma 90.000000
_cell_volume 1358.728103
_symmetry_space_group_name_H-M "P -4 21 C"
_symmetry_group_IT_number 114
_symmetry_cell_setting 'tetragonal'
loop_
_space_group_symop_operation_xyz
x,y,z
y,-x,-z
-x,-y,z
-y,x,-z
1/2+x,1/2-y,1/2-z
1/2-x,1/2+y,1/2-z
1/2-y,1/2-x,1/2+z
1/2+y,1/2+x,1/2+z
loop_
_atom_site_type_symbol
_atom_site_label
_atom_site_fract_x
_atom_site_fract_y
_atom_site_fract_z
Si Si1 0.000000 0.000000 0.000000
Si Si2 0.276362 0.964107 0.694932
Si Si3 0.079880 0.750554 0.984867
Si Si4 0.132369 0.037995 0.284864
Si Si5 0.194090 0.228215 0.639473
Si Si6 0.500000 0.000000 0.521011
O O1 0.136169 0.021998 0.951411
O O2 0.155455 0.905938 0.644279
O O3 0.303566 0.856010 0.792110
O O4 0.388294 0.967599 0.605733
O O5 0.247032 0.107960 0.710279
O O6 0.050442 0.782503 0.837516
O O7 0.221514 0.746358 0.979246
O O8 0.036518 0.625296 0.038944
O O9 0.193981 0.942554 0.371401
O O10 0.000000 0.000000 0.239815
#
# Coordination Sequence:
#
# PCOD9555846 Si02
#       6
#     2   8   8   8   8   4
#     4  12  24  40  60  72 116 176 204 226 248 360
#     4   9  17  26  47  78 110 140 164 222 294 344
#     4  10  20  33  55  79 106 156 192 229 280 338
#     4   9  15  29  50  79 113 136 174 226 293 348
#     4   9  17  29  49  78 111 136 181 231 288 337
#     4  10  18  32  52  78 108 138 182 234 282 328
#
# _framework density 27.967331000000001
#
# number of rings (size 3 to 8) (size 9 to 14) (size 15 to 20)
#    0.000    2.526    3.158    0.000    0.000    0.000 
#    0.000    0.000    4.632    1.263    0.000    0.000 
#    0.000    0.000    0.000    0.000    0.000    0.000 
#
# Total GULP energy -211893.654456 kJ/mol
# GULP energy per Si atom -5576.148801 kJ/mol
# Density = 2.790368 g / cm^3
# Si number density = 27.967331 Si / 1000 Ang^3
#
#
#
# Elastic Constant Matrix: (Units=GPa)
#
#
# Indices 1 2 3 4 5 6 
#
# 1 242.3780 58.1724 41.5835 0.0000 0.0000 0.0000
# 2 58.1724 242.3780 41.5835 0.0000 0.0000 0.0000
# 3 41.5835 41.5835 68.6426 0.0000 0.0000 0.0000
# 4 0.0000 0.0000 0.0000 23.1952 0.0000 0.0000
# 5 0.0000 0.0000 0.0000 0.0000 23.1952 0.0000
# 6 0.0000 0.0000 0.0000 0.0000 0.0000 81.0332
#
#
#
# Elastic Compliance Matrix: (Units=1/GPa)
#
#
# Indices 1 2 3 4 5 6 
#
# 1 0.004713 -0.000716 -0.002422 0.000000 0.000000 0.000000
# 2 -0.000716 0.004713 -0.002422 0.000000 0.000000 0.000000
# 3 -0.002422 -0.002422 0.017502 0.000000 0.000000 0.000000
# 4 0.000000 0.000000 0.000000 0.043112 0.000000 0.000000
# 5 0.000000 0.000000 0.000000 0.000000 0.043112 0.000000
# 6 0.000000 0.000000 0.000000 0.000000 0.000000 0.012341
#
#
# Mechanical properties :
#
#
# Convention : Reuss Voigt Hill
#
# Bulk Modulus (GPa) = 63.24893 92.89750 78.07321
# Shear Modulus (GPa) = 35.24074 52.95534 44.09804
#
# Velocity S-wave (km/s) = 3.55359 4.35612 3.97516
# Velocity P-wave (km/s) = 6.28504 7.65439 7.00326
#
# Compressibility (1/GPa) = 0.01581054
#
# Stress axis : x y z
#
# Youngs Moduli (GPa) = 212.17845 212.17845 57.13580
#
# Poissons Ratio (x) = 0.15186 0.13836
# Poissons Ratio (y) = 0.15186 0.13836
# Poissons Ratio (z) = 0.51380 0.51380
#
# Static dielectric constant tensor:
#      x y z
#    x 2.213420 0.000000 0.000000 
#    y 0.000000 2.213420 0.000000 
#    z 0.000000 0.000000 1.520330 
# 
# From -- ./inp_files/2527.got.cif
#   From: 2010.05.17/outbox.cif.g08.bks.cpg/sg114_2_cif.got.tgz:2527.got - 2010.05.20 11:04:54.
