data_PCOD9555361
_publ_section_title
;
Structure prediction by ZEFSAII (Michael W. Deem and Ramdas Pophale) SiO2 
 PCOD9555361
Probable space group: P -4 2 C
;
_chemical_formula_sum "Si O2"
_cell_formula_units_Z 24
_cell_length_a 7.923297
_cell_length_b 7.923297
_cell_length_c 14.293568
_cell_angle_alpha 90.000000
_cell_angle_beta 90.000000
_cell_angle_gamma 90.000000
_cell_volume 897.330693
_symmetry_space_group_name_H-M "P -4 2 C"
_symmetry_group_IT_number 112
_symmetry_cell_setting 'tetragonal'
loop_
_space_group_symop_operation_xyz
x,y,z
y,-x,-z
-x,-y,z
-y,x,-z
x,-y,1/2-z
-x,y,1/2-z
-y,-x,1/2+z
y,x,1/2+z
loop_
_atom_site_type_symbol
_atom_site_label
_atom_site_fract_x
_atom_site_fract_y
_atom_site_fract_z
Si Si1 0.758114 0.887622 0.534981
Si Si2 0.691651 0.438940 0.611922
Si Si3 0.238396 0.193317 0.223093
O O1 0.611573 0.784755 0.483290
O O2 0.742295 0.895265 0.646926
O O3 0.930912 0.787801 0.510414
O O4 0.500000 0.500000 0.604944
O O5 0.704094 0.281815 0.683555
O O6 0.792702 0.588977 0.662509
O O7 0.204566 0.000000 0.250000
#
# Coordination Sequence:
#
# PCOD9555361 Si02
#       3
#     8   8   8
#     4  11  26  46  74 116 147 201 255 310 378 462
#     4  11  25  45  73 110 148 197 253 313 381 452
#     4  11  23  46  73 105 156 204 242 310 391 446
#
# _framework density 26.745996000000002
#
# number of rings (size 3 to 8) (size 9 to 14) (size 15 to 20)
#    0.000    1.000    3.333    4.000    4.667    2.667 
#    0.000    0.000    0.000    8.000    0.000    0.000 
#    0.000    0.000    0.000    0.000    0.000    0.000 
#
# Total GULP energy -134670.128483 kJ/mol
# GULP energy per Si atom -5611.255353 kJ/mol
# Density = 2.668512 g / cm^3
# Si number density = 26.745996 Si / 1000 Ang^3
#
#
#
# Elastic Constant Matrix: (Units=GPa)
#
#
# Indices 1 2 3 4 5 6 
#
# 1 107.0522 30.2036 21.0471 0.0000 0.0000 0.0000
# 2 30.2036 107.0522 21.0471 0.0000 0.0000 0.0000
# 3 21.0471 21.0471 147.2108 0.0000 0.0000 0.0000
# 4 0.0000 0.0000 0.0000 45.4888 0.0000 0.0000
# 5 0.0000 0.0000 0.0000 0.0000 45.4888 0.0000
# 6 0.0000 0.0000 0.0000 0.0000 0.0000 14.1278
#
#
#
# Elastic Compliance Matrix: (Units=1/GPa)
#
#
# Indices 1 2 3 4 5 6 
#
# 1 0.010316 -0.002696 -0.001089 0.000000 0.000000 0.000000
# 2 -0.002696 0.010316 -0.001089 0.000000 0.000000 0.000000
# 3 -0.001089 -0.001089 0.007104 0.000000 0.000000 0.000000
# 4 0.000000 0.000000 0.000000 0.021983 0.000000 0.000000
# 5 0.000000 0.000000 0.000000 0.000000 0.021983 0.000000
# 6 0.000000 0.000000 0.000000 0.000000 0.000000 0.070783
#
#
# Mechanical properties :
#
#
# Convention : Reuss Voigt Hill
#
# Bulk Modulus (GPa) = 55.59764 56.21229 55.90497
# Shear Modulus (GPa) = 31.59911 40.28890 35.94400
#
# Velocity S-wave (km/s) = 3.44095 3.88539 3.66990
# Velocity P-wave (km/s) = 6.05139 6.41802 6.23740
#
# Compressibility (1/GPa) = 0.01798637
#
# Stress axis : x y z
#
# Youngs Moduli (GPa) = 96.93505 96.93505 140.75596
#
# Poissons Ratio (x) = 0.26138 0.15334
# Poissons Ratio (y) = 0.26138 0.15334
# Poissons Ratio (z) = 0.10560 0.10560
#
# Static dielectric constant tensor:
#      x y z
#    x 2.108830 0.000000 0.000000 
#    y 0.000000 2.108830 0.000000 
#    z 0.000000 0.000000 2.160840 
# 
# From -- ./inp_files/2869.got.cif
#   From: 2010.05.17/outbox.cif.g08.bks.cpg/sg112_2_cif.got.tgz:2869.got - 2010.05.20 10:59:04.
