data_PCOD9555904
_publ_section_title
;
Structure prediction by ZEFSAII (Michael W. Deem and Ramdas Pophale) SiO2 
 PCOD9555904
Probable space group: P -4 21 C
;
_chemical_formula_sum "Si O2"
_cell_formula_units_Z 56
_cell_length_a 11.425537
_cell_length_b 11.425537
_cell_length_c 18.765972
_cell_angle_alpha 90.000000
_cell_angle_beta 90.000000
_cell_angle_gamma 90.000000
_cell_volume 2449.764326
_symmetry_space_group_name_H-M "P -4 21 C"
_symmetry_group_IT_number 114
_symmetry_cell_setting 'tetragonal'
loop_
_space_group_symop_operation_xyz
x,y,z
y,-x,-z
-x,-y,z
-y,x,-z
1/2+x,1/2-y,1/2-z
1/2-x,1/2+y,1/2-z
1/2-y,1/2-x,1/2+z
1/2+y,1/2+x,1/2+z
loop_
_atom_site_type_symbol
_atom_site_label
_atom_site_fract_x
_atom_site_fract_y
_atom_site_fract_z
Si Si1 0.149518 0.290117 0.943174
Si Si2 0.250634 0.695609 0.686699
Si Si3 0.745816 0.880711 0.047566
Si Si4 0.728555 0.374688 0.849410
Si Si5 0.103387 0.906739 0.691407
Si Si6 0.674295 0.567566 0.021431
Si Si7 0.872207 0.040147 0.854185
O O1 0.155660 0.271581 0.858235
O O2 0.017320 0.264667 0.964762
O O3 0.236688 0.189928 0.974992
O O4 0.206670 0.403516 0.980055
O O5 0.269026 0.686782 0.772075
O O6 0.132091 0.771731 0.672100
O O7 0.279589 0.563683 0.659691
O O8 0.644466 0.840454 0.101032
O O9 0.859034 0.837951 0.092259
O O10 0.709358 0.511403 0.834680
O O11 0.624444 0.324448 0.900145
O O12 0.100360 0.906188 0.776830
O O13 0.000000 0.000000 0.671554
O O14 0.634542 0.433284 0.018737
O O15 0.000000 0.000000 0.881854
#
# Coordination Sequence:
#
# PCOD9555904 Si02
#       7
#     8   8   8   8   8   8   8
#     4  11  24  38  68  98 136 178 224 281 345 413
#     4  11  21  38  63 104 133 171 229 283 344 404
#     4  11  22  43  63 103 136 178 222 280 342 422
#     4  10  23  39  65 101 137 172 225 289 337 410
#     4  10  22  38  67  99 130 176 226 280 341 407
#     4  10  23  45  68  98 131 183 240 280 338 409
#     4  10  19  37  64  95 132 175 218 278 329 413
#
# _framework density 22.859342999999999
#
# number of rings (size 3 to 8) (size 9 to 14) (size 15 to 20)
#    0.000    1.571    2.857    1.714    4.000    0.000 
#    0.000    6.429    0.000    0.857    0.000    0.000 
#    0.000    0.000    0.000    0.000    0.000    0.000 
#
# Total GULP energy -311998.081256 kJ/mol
# GULP energy per Si atom -5571.394308 kJ/mol
# Density = 2.280731 g / cm^3
# Si number density = 22.859343 Si / 1000 Ang^3
#
#
#
# Elastic Constant Matrix: (Units=GPa)
#
#
# Indices 1 2 3 4 5 6 
#
# 1 88.7137 50.6258 20.4279 0.0000 0.0000 0.0000
# 2 50.6258 88.7137 20.4279 0.0000 0.0000 0.0000
# 3 20.4279 20.4279 104.5561 0.0000 0.0000 0.0000
# 4 0.0000 0.0000 0.0000 27.4927 0.0000 0.0000
# 5 0.0000 0.0000 0.0000 0.0000 27.4927 0.0000
# 6 0.0000 0.0000 0.0000 0.0000 0.0000 33.5636
#
#
#
# Elastic Compliance Matrix: (Units=1/GPa)
#
#
# Indices 1 2 3 4 5 6 
#
# 1 0.016934 -0.009321 -0.001487 0.000000 0.000000 0.000000
# 2 -0.009321 0.016934 -0.001487 0.000000 0.000000 0.000000
# 3 -0.001487 -0.001487 0.010145 0.000000 0.000000 0.000000
# 4 0.000000 0.000000 0.000000 0.036373 0.000000 0.000000
# 5 0.000000 0.000000 0.000000 0.000000 0.036373 0.000000
# 6 0.000000 0.000000 0.000000 0.000000 0.000000 0.029794
#
#
# Mechanical properties :
#
#
# Convention : Reuss Voigt Hill
#
# Bulk Modulus (GPa) = 51.48905 51.66074 51.57489
# Shear Modulus (GPa) = 28.15002 30.40991 29.27997
#
# Velocity S-wave (km/s) = 3.51300 3.65129 3.58281
# Velocity P-wave (km/s) = 6.24725 6.35802 6.30288
#
# Compressibility (1/GPa) = 0.01942161
#
# Stress axis : x y z
#
# Youngs Moduli (GPa) = 59.05297 59.05297 98.56645
#
# Poissons Ratio (x) = 0.55044 0.14661
# Poissons Ratio (y) = 0.55044 0.14661
# Poissons Ratio (z) = 0.08783 0.08783
#
# Static dielectric constant tensor:
#      x y z
#    x 1.942620 0.000000 0.000000 
#    y 0.000000 1.942620 0.000000 
#    z 0.000000 0.000000 1.914140 
# 
# From -- ./inp_files/3142.got.cif
#   From: 2010.05.17/outbox.cif.g08.bks.cpg/sg114_2_cif.got.tgz:3142.got - 2010.05.20 11:04:54.
