data_PCOD9555857
_publ_section_title
;
Structure prediction by ZEFSAII (Michael W. Deem and Ramdas Pophale) SiO2 
 PCOD9555857
Probable space group: P -4 21 C
;
_chemical_formula_sum "Si O2"
_cell_formula_units_Z 56
_cell_length_a 11.842597
_cell_length_b 11.842597
_cell_length_c 19.674016
_cell_angle_alpha 90.000000
_cell_angle_beta 90.000000
_cell_angle_gamma 90.000000
_cell_volume 2759.223762
_symmetry_space_group_name_H-M "P -4 21 C"
_symmetry_group_IT_number 114
_symmetry_cell_setting 'tetragonal'
loop_
_space_group_symop_operation_xyz
x,y,z
y,-x,-z
-x,-y,z
-y,x,-z
1/2+x,1/2-y,1/2-z
1/2-x,1/2+y,1/2-z
1/2-y,1/2-x,1/2+z
1/2+y,1/2+x,1/2+z
loop_
_atom_site_type_symbol
_atom_site_label
_atom_site_fract_x
_atom_site_fract_y
_atom_site_fract_z
Si Si1 0.149168 0.889183 0.995112
Si Si2 0.999273 0.634632 0.333220
Si Si3 0.902235 0.179817 0.782093
Si Si4 0.796456 0.947223 0.778174
Si Si5 0.121554 0.964462 0.343773
Si Si6 0.253111 0.214007 0.615634
Si Si7 0.248849 0.869503 0.138181
O O1 0.231975 0.882421 0.058772
O O2 0.193066 0.803469 0.936964
O O3 0.022823 0.857372 0.021088
O O4 0.022227 0.678457 0.256639
O O5 0.090241 0.688297 0.385161
O O6 0.000000 0.500000 0.337597
O O7 0.873001 0.674054 0.347716
O O8 0.793054 0.246048 0.808820
O O9 0.936430 0.176922 0.702361
O O10 0.009628 0.227848 0.823790
O O11 0.867813 0.053862 0.804851
O O12 0.876408 0.912226 0.715503
O O13 0.790926 0.848955 0.832199
O O14 0.199355 0.882595 0.389376
O O15 0.000000 0.000000 0.374688
#
# Coordination Sequence:
#
# PCOD9555857 Si02
#       7
#     8   8   8   8   8   8   8
#     4  11  22  37  62  94 128 167 224 270 322 379
#     4  11  22  36  57  88 126 162 202 253 329 381
#     4  10  18  34  58  90 126 153 199 258 316 377
#     4   9  21  33  58  89 122 158 200 256 314 378
#     4   8  18  35  55  87 122 161 204 252 316 382
#     4  11  21  36  61  90 124 168 213 264 320 384
#     4  11  21  37  59  88 122 163 208 261 312 380
#
# _framework density 20.295565
#
# number of rings (size 3 to 8) (size 9 to 14) (size 15 to 20)
#    0.000    1.857    2.857    2.143    8.000    0.000 
#    0.000    0.000    9.429    2.571    0.000    0.000 
#    0.000    0.000    0.000    0.000    0.000    0.000 
#
# Total GULP energy -311973.752692 kJ/mol
# GULP energy per Si atom -5570.959869 kJ/mol
# Density = 2.024937 g / cm^3
# Si number density = 20.295565 Si / 1000 Ang^3
#
#
#
# Elastic Constant Matrix: (Units=GPa)
#
#
# Indices 1 2 3 4 5 6 
#
# 1 101.2982 27.1114 17.4602 0.0000 0.0000 0.0000
# 2 27.1114 101.2982 17.4602 0.0000 0.0000 0.0000
# 3 17.4602 17.4602 24.7374 0.0000 0.0000 0.0000
# 4 0.0000 0.0000 0.0000 20.4579 0.0000 0.0000
# 5 0.0000 0.0000 0.0000 0.0000 20.4579 0.0000
# 6 0.0000 0.0000 0.0000 0.0000 0.0000 33.0125
#
#
#
# Elastic Compliance Matrix: (Units=1/GPa)
#
#
# Indices 1 2 3 4 5 6 
#
# 1 0.011558 -0.001921 -0.006802 0.000000 0.000000 0.000000
# 2 -0.001921 0.011558 -0.006802 0.000000 0.000000 0.000000
# 3 -0.006802 -0.006802 0.050027 0.000000 0.000000 0.000000
# 4 0.000000 0.000000 0.000000 0.048881 0.000000 0.000000
# 5 0.000000 0.000000 0.000000 0.000000 0.048881 0.000000
# 6 0.000000 0.000000 0.000000 0.000000 0.000000 0.030292
#
#
# Mechanical properties :
#
#
# Convention : Reuss Voigt Hill
#
# Bulk Modulus (GPa) = 23.75707 39.04413 31.40060
# Shear Modulus (GPa) = 20.30215 25.80582 23.05399
#
# Velocity S-wave (km/s) = 3.16622 3.56968 3.37399
# Velocity P-wave (km/s) = 5.00975 6.02243 5.53928
#
# Compressibility (1/GPa) = 0.04209274
#
# Stress axis : x y z
#
# Youngs Moduli (GPa) = 86.51674 86.51674 19.98916
#
# Poissons Ratio (x) = 0.16620 0.13597
# Poissons Ratio (y) = 0.16620 0.13597
# Poissons Ratio (z) = 0.58851 0.58851
#
# Static dielectric constant tensor:
#      x y z
#    x 1.827820 0.000000 0.000000 
#    y 0.000000 1.827820 0.000000 
#    z 0.000000 0.000000 1.723860 
# 
# From -- ./inp_files/3163.got.cif
#   From: 2010.05.17/outbox.cif.g08.bks.cpg/sg114_2_cif.got.tgz:3163.got - 2010.05.20 11:04:54.
