data_PCOD9555653
_publ_section_title
;
Structure prediction by ZEFSAII (Michael W. Deem and Ramdas Pophale) SiO2 
 PCOD9555653
Probable space group: P -4 21 M 
;
_chemical_formula_sum "Si O2"
_cell_formula_units_Z 58
_cell_length_a 17.847427
_cell_length_b 17.847427
_cell_length_c 8.551099
_cell_angle_alpha 90.000000
_cell_angle_beta 90.000000
_cell_angle_gamma 90.000000
_cell_volume 2723.787127
_symmetry_space_group_name_H-M "P -4 21 M "
_symmetry_group_IT_number 113
_symmetry_cell_setting 'tetragonal'
loop_
_space_group_symop_operation_xyz
x,y,z
y,-x,-z
-x,-y,z
-y,x,-z
1/2+x,1/2-y,-z
1/2-x,1/2+y,-z
1/2-y,1/2-x,z
1/2+y,1/2+x,z
loop_
_atom_site_type_symbol
_atom_site_label
_atom_site_fract_x
_atom_site_fract_y
_atom_site_fract_z
Si Si1 0.914154 0.900068 0.823602
Si Si2 0.325508 0.998456 0.478174
Si Si3 0.200333 0.585676 0.836373
Si Si4 0.552337 0.172472 0.966666
Si Si5 0.524033 0.297335 0.712689
Si Si6 0.759484 0.629310 0.723578
Si Si7 0.585483 0.620908 0.183016
Si Si8 0.000000 0.500000 0.426488
O O1 0.886798 0.827407 0.730660
O O2 0.001997 0.910085 0.785799
O O3 0.856585 0.965353 0.782602
O O4 0.908457 0.889476 0.011285
O O5 0.328378 0.051451 0.326712
O O6 0.251677 0.015832 0.579853
O O7 0.302044 0.917478 0.409174
O O8 0.406102 0.999734 0.560870
O O9 0.168668 0.668668 0.856247
O O10 0.289669 0.580235 0.833406
O O11 0.166434 0.532533 0.971733
O O12 0.594941 0.094941 0.929535
O O13 0.552345 0.231987 0.828208
O O14 0.595382 0.209027 0.113767
O O15 0.594655 0.353268 0.689928
O O16 0.785162 0.714839 0.713715
#
# Coordination Sequence:
#
# PCOD9555653 Si02
#       8
#     8   8   8   8   8   8   8   2
#     4  12  21  42  72 100 137 186 239 287 351 431
#     4  11  25  45  68 101 133 183 237 287 347 415
#     4  11  23  44  68 100 138 181 243 288 354 425
#     4  10  21  39  65  97 135 173 229 293 343 415
#     4  12  26  42  65 103 144 178 237 296 357 410
#     4  10  20  41  69  96 133 177 233 279 351 422
#     4  12  22  42  71 102 136 190 236 290 353 432
#     4  12  24  52  84  86 136 208 236 270 352 448
#
# _framework density 21.293883000000001
#
# number of rings (size 3 to 8) (size 9 to 14) (size 15 to 20)
#    0.000    0.828    8.276    0.414    1.931    2.483 
#    2.483    1.379    3.034    0.000    0.000    0.000 
#    0.000    0.000    0.000    0.000    0.000    0.000 
#
# Total GULP energy -323099.125253 kJ/mol
# GULP energy per Si atom -5570.674573 kJ/mol
# Density = 2.124542 g / cm^3
# Si number density = 21.293883 Si / 1000 Ang^3
#
#
#
# Elastic Constant Matrix: (Units=GPa)
#
#
# Indices 1 2 3 4 5 6 
#
# 1 117.8087 51.9898 8.7385 0.0000 0.0000 0.0000
# 2 51.9898 117.8097 8.7392 0.0000 0.0000 0.0000
# 3 8.7385 8.7392 9.7663 0.0000 0.0000 0.0000
# 4 0.0000 0.0000 0.0000 -13.7851 0.0000 0.0000
# 5 0.0000 0.0000 0.0000 0.0000 -13.7854 0.0000
# 6 0.0000 0.0000 0.0000 0.0000 0.0000 36.7949
#
#
#
# Elastic Compliance Matrix: (Units=1/GPa)
#
#
# Indices 1 2 3 4 5 6 
#
# 1 0.010840 -0.004353 -0.005804 0.000000 0.000000 0.000000
# 2 -0.004353 0.010840 -0.005805 0.000000 0.000000 0.000000
# 3 -0.005804 -0.005805 0.112781 0.000000 0.000000 0.000000
# 4 0.000000 0.000000 0.000000 -0.072542 0.000000 0.000000
# 5 0.000000 0.000000 0.000000 0.000000 -0.072540 0.000000
# 6 0.000000 0.000000 0.000000 0.000000 0.000000 0.027178
#
#
# Mechanical properties :
#
#
# Convention : Reuss Voigt Hill
#
# Bulk Modulus (GPa) = 9.75260 42.70219 26.22740
# Shear Modulus (GPa) = 60.48973 13.57268 37.03120
#
# Velocity S-wave (km/s) = 5.33561 2.52741 4.17472
# Velocity P-wave (km/s) = 6.52291 5.34924 5.96501
#
# Compressibility (1/GPa) = 0.10253677
#
# Stress axis : x y z
#
# Youngs Moduli (GPa) = 92.25160 92.25146 8.86677
#
# Poissons Ratio (x) = 0.40159 0.05146
# Poissons Ratio (y) = 0.40159 0.05147
# Poissons Ratio (z) = 0.53542 0.53551
#
# Static dielectric constant tensor:
#      x y z
#    x 1.901040 0.000000 0.000000 
#    y 0.000000 1.901000 0.000000 
#    z 0.000000 0.000000 1.812860 
# 
# From -- ./inp_files/1307.got.cif
#   From: 2010.05.17/outbox.cif.g08.bks.cpg/sg113_cif.got.tgz:1307.got - 2010.05.20 11:03:00.
