data_PCOD9555979
_publ_section_title
;
Structure prediction by ZEFSAII (Michael W. Deem and Ramdas Pophale) SiO2 
 PCOD9555979
Probable space group: P -4 21 C
;
_chemical_formula_sum "Si O2"
_cell_formula_units_Z 60
_cell_length_a 11.519550
_cell_length_b 11.519550
_cell_length_c 22.516049
_cell_angle_alpha 90.000000
_cell_angle_beta 90.000000
_cell_angle_gamma 90.000000
_cell_volume 2987.880427
_symmetry_space_group_name_H-M "P -4 21 C"
_symmetry_group_IT_number 114
_symmetry_cell_setting 'tetragonal'
loop_
_space_group_symop_operation_xyz
x,y,z
y,-x,-z
-x,-y,z
-y,x,-z
1/2+x,1/2-y,1/2-z
1/2-x,1/2+y,1/2-z
1/2-y,1/2-x,1/2+z
1/2+y,1/2+x,1/2+z
loop_
_atom_site_type_symbol
_atom_site_label
_atom_site_fract_x
_atom_site_fract_y
_atom_site_fract_z
Si Si1 0.174139 0.638357 0.272968
Si Si2 0.202726 0.166176 0.822135
Si Si3 0.824488 0.866251 0.623212
Si Si4 0.776490 0.605334 0.900667
Si Si5 0.299483 0.744987 0.482101
Si Si6 0.000000 0.500000 0.342954
Si Si7 0.140016 0.025985 0.935431
Si Si8 0.510613 0.362173 0.775951
O O1 0.114205 0.689206 0.214131
O O2 0.167042 0.730714 0.325999
O O3 0.300060 0.603582 0.249070
O O4 0.106044 0.531662 0.300519
O O5 0.233935 0.285277 0.856238
O O6 0.153232 0.080331 0.870936
O O7 0.108035 0.180861 0.770596
O O8 0.781209 0.800000 0.564387
O O9 0.945015 0.834736 0.656919
O O10 0.818804 0.004663 0.609534
O O11 0.894057 0.538743 0.883391
O O12 0.791914 0.658537 0.966203
O O13 0.308160 0.622321 0.518578
O O14 0.415637 0.723364 0.443725
O O15 0.000000 0.000000 0.941824
O O16 0.500000 0.500000 0.771708
#
# Coordination Sequence:
#
# PCOD9555979 Si02
#       8
#     8   8   8   8   8   4   8   8
#     4  10  22  39  64  92 131 159 209 253 324 381
#     4  10  22  38  64  96 122 163 205 265 310 388
#     4  10  25  42  62  95 127 171 215 255 316 389
#     4  10  22  42  62  87 126 171 210 251 317 376
#     4  11  23  41  65  93 126 164 218 267 317 372
#     4  10  20  38  66  86 128 170 198 254 324 380
#     4  11  22  38  65  97 128 153 213 273 329 370
#     4  11  22  40  66  93 128 170 207 258 317 378
#
# _framework density 20.081126000000001
#
# number of rings (size 3 to 8) (size 9 to 14) (size 15 to 20)
#    0.000    1.600    2.667    1.200    7.467    1.067 
#    7.200    0.000    0.000    0.000    0.000    0.000 
#    0.000    0.000    0.000    0.000    0.000    0.000 
#
# Total GULP energy -334036.078712 kJ/mol
# GULP energy per Si atom -5567.267979 kJ/mol
# Density = 2.003542 g / cm^3
# Si number density = 20.081126 Si / 1000 Ang^3
#
#
#
# Elastic Constant Matrix: (Units=GPa)
#
#
# Indices 1 2 3 4 5 6 
#
# 1 64.4233 27.1818 48.2761 0.0000 0.0000 0.0000
# 2 27.1818 64.4233 48.2761 0.0000 0.0000 0.0000
# 3 48.2761 48.2761 144.5713 0.0000 0.0000 0.0000
# 4 0.0000 0.0000 0.0000 158.2908 0.0000 0.0000
# 5 0.0000 0.0000 0.0000 0.0000 158.2908 0.0000
# 6 0.0000 0.0000 0.0000 0.0000 0.0000 13.4876
#
#
#
# Elastic Compliance Matrix: (Units=1/GPa)
#
#
# Indices 1 2 3 4 5 6 
#
# 1 0.021849 -0.005003 -0.005625 0.000000 0.000000 0.000000
# 2 -0.005003 0.021849 -0.005625 0.000000 0.000000 0.000000
# 3 -0.005625 -0.005625 0.010674 0.000000 0.000000 0.000000
# 4 0.000000 0.000000 0.000000 0.006317 0.000000 0.000000
# 5 0.000000 0.000000 0.000000 0.000000 0.006317 0.000000
# 6 0.000000 0.000000 0.000000 0.000000 0.000000 0.074142
#
#
# Mechanical properties :
#
#
# Convention : Reuss Voigt Hill
#
# Bulk Modulus (GPa) = 45.73735 57.87622 51.80678
# Shear Modulus (GPa) = 27.63309 75.99275 51.81292
#
# Velocity S-wave (km/s) = 3.71357 6.15833 5.08506
# Velocity P-wave (km/s) = 6.41975 8.91350 7.76736
#
# Compressibility (1/GPa) = 0.02186397
#
# Stress axis : x y z
#
# Youngs Moduli (GPa) = 45.76965 45.76965 93.68803
#
# Poissons Ratio (x) = 0.22900 0.52700
# Poissons Ratio (y) = 0.22900 0.52700
# Poissons Ratio (z) = 0.25746 0.25746
#
# Static dielectric constant tensor:
#      x y z
#    x 1.460410 0.000000 0.000000 
#    y 0.000000 1.460410 0.000000 
#    z 0.000000 0.000000 1.692270 
# 
# From -- ./inp_files/3213.got.cif
#   From: 2010.05.17/outbox.cif.g08.bks.cpg/sg114_2_cif.got.tgz:3213.got - 2010.05.20 11:04:54.
