data_PCOD9555665
_publ_section_title
;
Structure prediction by ZEFSAII (Michael W. Deem and Ramdas Pophale) SiO2 
 PCOD9555665
Probable space group: P -4 21 M 
;
_chemical_formula_sum "Si O2"
_cell_formula_units_Z 48
_cell_length_a 16.204790
_cell_length_b 16.204790
_cell_length_c 9.713534
_cell_angle_alpha 90.000000
_cell_angle_beta 90.000000
_cell_angle_gamma 90.000000
_cell_volume 2550.727587
_symmetry_space_group_name_H-M "P -4 21 M "
_symmetry_group_IT_number 113
_symmetry_cell_setting 'tetragonal'
loop_
_space_group_symop_operation_xyz
x,y,z
y,-x,-z
-x,-y,z
-y,x,-z
1/2+x,1/2-y,-z
1/2-x,1/2+y,-z
1/2-y,1/2-x,z
1/2+y,1/2+x,z
loop_
_atom_site_type_symbol
_atom_site_label
_atom_site_fract_x
_atom_site_fract_y
_atom_site_fract_z
Si Si1 0.638742 0.997710 0.267966
Si Si2 0.770780 0.592205 0.945300
Si Si3 0.192575 0.169726 0.716410
Si Si4 0.579245 0.390703 0.526203
Si Si5 0.135806 0.503065 0.428902
Si Si6 0.977717 0.782610 0.229754
O O1 0.582380 0.917621 0.252865
O O2 0.576194 0.076194 0.268445
O O3 0.696444 0.013118 0.139181
O O4 0.677919 0.993524 0.420224
O O5 0.847377 0.652624 0.983415
O O6 0.717291 0.640868 0.832712
O O7 0.724719 0.562919 0.081257
O O8 0.275650 0.224351 0.695132
O O9 0.141070 0.158675 0.574446
O O10 0.203189 0.076322 0.770443
O O11 0.486006 0.392491 0.465012
O O12 0.567869 0.349510 0.674855
O O13 0.063114 0.436887 0.440638
O O14 0.196688 0.473404 0.312370
O O15 0.090136 0.590136 0.401879
#
# Coordination Sequence:
#
# PCOD9555665 Si02
#       6
#     8   8   8   8   8   8
#     4   8  15  29  49  72 100 137 176 211 258 327
#     4  10  21  35  51  76 112 150 182 217 273 336
#     4  10  22  39  57  80 114 149 178 221 284 339
#     4   9  20  39  61  82 104 139 189 235 275 327
#     4   9  17  30  50  78 110 143 182 228 281 341
#     4  11  21  34  56  82 108 140 190 242 277 313
#
# _framework density 18.818159000000001
#
# number of rings (size 3 to 8) (size 9 to 14) (size 15 to 20)
#    0.000    2.500    0.000    3.000    0.000    5.333 
#    0.000    1.667    0.000    4.000    0.000    0.000 
#    0.000    0.000    0.000    0.000    0.000    0.000 
#
# Total GULP energy -267619.443715 kJ/mol
# GULP energy per Si atom -5575.405077 kJ/mol
# Density = 1.877533 g / cm^3
# Si number density = 18.818159 Si / 1000 Ang^3
#
#
#
# Elastic Constant Matrix: (Units=GPa)
#
#
# Indices 1 2 3 4 5 6 
#
# 1 44.2557 12.8012 27.6068 0.0000 0.0000 0.0000
# 2 12.8012 44.2559 27.6071 0.0000 0.0000 0.0000
# 3 27.6068 27.6071 82.7962 0.0000 0.0000 0.0000
# 4 0.0000 0.0000 0.0000 1.4250 0.0000 0.0000
# 5 0.0000 0.0000 0.0000 0.0000 1.4326 0.0000
# 6 0.0000 0.0000 0.0000 0.0000 0.0000 21.3274
#
#
#
# Elastic Compliance Matrix: (Units=1/GPa)
#
#
# Indices 1 2 3 4 5 6 
#
# 1 0.028834 -0.002958 -0.008628 0.000000 0.000000 0.000000
# 2 -0.002958 0.028834 -0.008628 0.000000 0.000000 0.000000
# 3 -0.008628 -0.008628 0.017831 0.000000 0.000000 0.000000
# 4 0.000000 0.000000 0.000000 0.701778 0.000000 0.000000
# 5 0.000000 0.000000 0.000000 0.000000 0.698042 0.000000
# 6 0.000000 0.000000 0.000000 0.000000 0.000000 0.046888
#
#
# Mechanical properties :
#
#
# Convention : Reuss Voigt Hill
#
# Bulk Modulus (GPa) = 28.51335 34.14866 31.33100
# Shear Modulus (GPa) = 3.17596 11.72317 7.44957
#
# Velocity S-wave (km/s) = 1.30053 2.49865 1.99181
# Velocity P-wave (km/s) = 4.17613 5.14882 4.68777
#
# Compressibility (1/GPa) = 0.03507129
#
# Stress axis : x y z
#
# Youngs Moduli (GPa) = 34.68179 34.68183 56.08104
#
# Poissons Ratio (x) = 0.10260 0.48385
# Poissons Ratio (y) = 0.10260 0.48385
# Poissons Ratio (z) = 0.29922 0.29923
#
# Static dielectric constant tensor:
#      x y z
#    x 1.680440 0.000000 0.000000 
#    y 0.000000 1.680440 0.000000 
#    z 0.000000 0.000000 1.638730 
# 
# From -- ./inp_files/1161.got.cif
#   From: 2010.05.17/outbox.cif.g08.bks.cpg/sg113_cif.got.tgz:1161.got - 2010.05.20 11:03:00.
