data_PCOD9555649
_publ_section_title
;
Structure prediction by ZEFSAII (Michael W. Deem and Ramdas Pophale) SiO2 
 PCOD9555649
Probable space group: P -4 21 M 
;
_chemical_formula_sum "Si O2"
_cell_formula_units_Z 48
_cell_length_a 13.555183
_cell_length_b 13.555183
_cell_length_c 14.966688
_cell_angle_alpha 90.000000
_cell_angle_beta 90.000000
_cell_angle_gamma 90.000000
_cell_volume 2750.023946
_symmetry_space_group_name_H-M "P -4 21 M "
_symmetry_group_IT_number 113
_symmetry_cell_setting 'tetragonal'
loop_
_space_group_symop_operation_xyz
x,y,z
y,-x,-z
-x,-y,z
-y,x,-z
1/2+x,1/2-y,-z
1/2-x,1/2+y,-z
1/2-y,1/2-x,z
1/2+y,1/2+x,z
loop_
_atom_site_type_symbol
_atom_site_label
_atom_site_fract_x
_atom_site_fract_y
_atom_site_fract_z
Si Si1 0.014650 0.837538 0.015193
Si Si2 0.835050 0.499926 0.870858
Si Si3 0.093417 0.758442 0.201474
Si Si4 0.241561 0.906584 0.298529
Si Si5 0.014644 0.162463 0.515193
Si Si6 0.500077 0.164951 0.629145
O O1 0.041093 0.797337 0.113049
O O2 0.913541 0.899534 0.013834
O O3 0.007193 0.748464 0.945526
O O4 0.905885 0.594116 0.888270
O O5 0.786189 0.519159 0.774474
O O6 0.904422 0.404422 0.870756
O O7 0.173445 0.673445 0.178318
O O8 0.154486 0.845515 0.250002
O O9 0.019154 0.713816 0.274473
O O10 0.326556 0.826556 0.321688
O O11 0.202666 0.958913 0.386951
O O12 0.913537 0.100463 0.513834
O O13 0.007186 0.251536 0.445526
O O14 0.405893 0.094108 0.611739
O O15 0.595586 0.095586 0.629244
#
# Coordination Sequence:
#
# PCOD9555649 Si02
#       6
#     8   8   8   8   8   8
#     4  11  23  38  59  91 124 161 197 244 298 359
#     4  10  22  40  62  90 120 154 203 254 296 352
#     4  10  20  39  63  83 117 163 200 242 299 352
#     4  10  20  39  63  83 117 163 200 242 299 352
#     4  11  23  38  59  91 124 161 197 244 298 359
#     4  10  22  40  62  90 120 154 203 254 296 352
#
# _framework density 17.454391999999999
#
# number of rings (size 3 to 8) (size 9 to 14) (size 15 to 20)
#    0.000    1.667    3.333    1.000    0.000    4.000 
#    0.000    5.000    0.000    0.000    0.000    0.000 
#    0.000    0.000    0.000    0.000    0.000    0.000 
#
# Total GULP energy -268136.468748 kJ/mol
# GULP energy per Si atom -5586.176432 kJ/mol
# Density = 1.741466 g / cm^3
# Si number density = 17.454392 Si / 1000 Ang^3
#
#
#
# Elastic Constant Matrix: (Units=GPa)
#
#
# Indices 1 2 3 4 5 6 
#
# 1 125.5392 72.9423 97.8363 0.0000 0.0000 0.0000
# 2 72.9423 125.5375 97.8372 0.0000 0.0000 0.0000
# 3 97.8363 97.8372 173.2899 0.0000 0.0000 0.0000
# 4 0.0000 0.0000 0.0000 29.9798 0.0000 0.0000
# 5 0.0000 0.0000 0.0000 0.0000 29.9788 0.0000
# 6 0.0000 0.0000 0.0000 0.0000 0.0000 10.9390
#
#
#
# Elastic Compliance Matrix: (Units=1/GPa)
#
#
# Indices 1 2 3 4 5 6 
#
# 1 0.015188 -0.003825 -0.006415 0.000000 0.000000 0.000000
# 2 -0.003825 0.015188 -0.006415 0.000000 0.000000 0.000000
# 3 -0.006415 -0.006415 0.013015 0.000000 0.000000 0.000000
# 4 0.000000 0.000000 0.000000 0.033356 0.000000 0.000000
# 5 0.000000 0.000000 0.000000 0.000000 0.033357 0.000000
# 6 0.000000 0.000000 0.000000 0.000000 0.000000 0.091416
#
#
# Mechanical properties :
#
#
# Convention : Reuss Voigt Hill
#
# Bulk Modulus (GPa) = 99.21472 106.84426 103.02949
# Shear Modulus (GPa) = 20.99165 24.56291 22.77728
#
# Velocity S-wave (km/s) = 3.47170 3.75542 3.61634
# Velocity P-wave (km/s) = 8.54610 8.95268 8.75175
#
# Compressibility (1/GPa) = 0.01007915
#
# Stress axis : x y z
#
# Youngs Moduli (GPa) = 65.84356 65.84091 76.83692
#
# Poissons Ratio (x) = 0.25184 0.49291
# Poissons Ratio (y) = 0.25185 0.49295
# Poissons Ratio (z) = 0.42239 0.42240
#
# Static dielectric constant tensor:
#      x y z
#    x 1.581970 0.000000 0.000000 
#    y 0.000000 1.581970 0.000000 
#    z 0.000000 0.000000 1.550070 
# 
# From -- ./inp_files/1846.got.cif
#   From: 2010.05.17/outbox.cif.g08.bks.cpg/sg113_cif.got.tgz:1846.got - 2010.05.20 11:03:00.
