data_PCOD9555759
_publ_section_title
;
Structure prediction by ZEFSAII (Michael W. Deem and Ramdas Pophale) SiO2 
 PCOD9555759
Probable space group: P -4 21 M 
;
_chemical_formula_sum "Si O2"
_cell_formula_units_Z 56
_cell_length_a 15.351507
_cell_length_b 15.351507
_cell_length_c 12.612653
_cell_angle_alpha 90.000000
_cell_angle_beta 90.000000
_cell_angle_gamma 90.000000
_cell_volume 2972.408383
_symmetry_space_group_name_H-M "P -4 21 M "
_symmetry_group_IT_number 113
_symmetry_cell_setting 'tetragonal'
loop_
_space_group_symop_operation_xyz
x,y,z
y,-x,-z
-x,-y,z
-y,x,-z
1/2+x,1/2-y,-z
1/2-x,1/2+y,-z
1/2-y,1/2-x,z
1/2+y,1/2+x,z
loop_
_atom_site_type_symbol
_atom_site_label
_atom_site_fract_x
_atom_site_fract_y
_atom_site_fract_z
Si Si1 0.505284 0.858981 0.070443
Si Si2 0.903304 0.899878 0.791142
Si Si3 0.640393 0.004833 0.324660
Si Si4 0.597237 0.402199 0.459713
Si Si5 0.630013 0.724943 0.370688
Si Si6 0.722349 0.630892 0.974577
Si Si7 0.402285 0.607401 0.826405
O O1 0.599821 0.900180 0.042612
O O2 0.502079 0.846699 0.197740
O O3 0.462707 0.772679 0.022322
O O4 0.435233 0.935233 0.047358
O O5 0.905194 0.885047 0.665094
O O6 0.858692 0.826413 0.862217
O O7 0.002926 0.900641 0.832357
O O8 0.866939 0.996946 0.809266
O O9 0.600004 0.100004 0.349072
O O10 0.563920 0.936081 0.351050
O O11 0.726558 0.964156 0.375078
O O12 0.504834 0.386175 0.516832
O O13 0.673107 0.353069 0.521591
O O14 0.701450 0.798551 0.351071
O O15 0.630496 0.656868 0.274433
O O16 0.794571 0.705430 0.987217
O O17 0.652726 0.633057 0.068529
#
# Coordination Sequence:
#
# PCOD9555759 Si02
#       7
#     8   8   8   8   8   8   8
#     4   8  15  30  51  77 115 159 192 225 283 354
#     4  11  22  39  64  81 113 158 207 247 305 369
#     4   8  15  29  50  79 115 150 185 229 285 349
#     4  11  20  40  62  84 112 155 204 251 301 361
#     4  11  21  34  60  91 118 152 199 254 305 361
#     4  11  23  36  56  90 126 155 195 255 307 362
#     4  11  21  40  59  84 112 158 204 249 300 367
#
# _framework density 18.839941
#
# number of rings (size 3 to 8) (size 9 to 14) (size 15 to 20)
#    0.000    1.857    2.857    3.857    0.000    1.714 
#    0.000    5.000    0.000    0.000    0.000    0.000 
#    0.000    0.000    0.000    0.571    0.000    0.000 
#
# Total GULP energy -312351.586135 kJ/mol
# GULP energy per Si atom -5577.706895 kJ/mol
# Density = 1.879706 g / cm^3
# Si number density = 18.839941 Si / 1000 Ang^3
#
#
#
# Elastic Constant Matrix: (Units=GPa)
#
#
# Indices 1 2 3 4 5 6 
#
# 1 79.5417 33.4440 39.2013 0.0000 0.0000 0.0000
# 2 33.4440 79.5417 39.2018 0.0000 0.0000 0.0000
# 3 39.2013 39.2018 103.1651 0.0000 0.0000 0.0000
# 4 0.0000 0.0000 0.0000 17.8291 0.0000 0.0000
# 5 0.0000 0.0000 0.0000 0.0000 17.8362 0.0000
# 6 0.0000 0.0000 0.0000 0.0000 0.0000 15.8687
#
#
#
# Elastic Compliance Matrix: (Units=1/GPa)
#
#
# Indices 1 2 3 4 5 6 
#
# 1 0.016857 -0.004836 -0.004567 0.000000 0.000000 0.000000
# 2 -0.004836 0.016857 -0.004568 0.000000 0.000000 0.000000
# 3 -0.004567 -0.004568 0.013164 0.000000 0.000000 0.000000
# 4 0.000000 0.000000 0.000000 0.056088 0.000000 0.000000
# 5 0.000000 0.000000 0.000000 0.000000 0.056066 0.000000
# 6 0.000000 0.000000 0.000000 0.000000 0.000000 0.063017
#
#
# Mechanical properties :
#
#
# Convention : Reuss Voigt Hill
#
# Bulk Modulus (GPa) = 52.81322 53.99364 53.40343
# Shear Modulus (GPa) = 19.50814 20.33355 19.92085
#
# Velocity S-wave (km/s) = 3.22136 3.28880 3.25526
# Velocity P-wave (km/s) = 6.47531 6.56833 6.52199
#
# Compressibility (1/GPa) = 0.01893465
#
# Stress axis : x y z
#
# Youngs Moduli (GPa) = 59.32408 59.32371 75.96232
#
# Poissons Ratio (x) = 0.28692 0.34695
# Poissons Ratio (y) = 0.28692 0.34697
# Poissons Ratio (z) = 0.27096 0.27097
#
# Static dielectric constant tensor:
#      x y z
#    x 1.690130 0.000000 0.000000 
#    y 0.000000 1.690120 0.000000 
#    z 0.000000 0.000000 1.620310 
# 
# From -- ./inp_files/1912.got.cif
#   From: 2010.05.17/outbox.cif.g08.bks.cpg/sg113_cif.got.tgz:1912.got - 2010.05.20 11:03:00.
