data_PCOD9555954
_publ_section_title
;
Structure prediction by ZEFSAII (Michael W. Deem and Ramdas Pophale) SiO2 
 PCOD9555954
Probable space group: P -4 21 C
;
_chemical_formula_sum "Si O2"
_cell_formula_units_Z 64
_cell_length_a 11.453201
_cell_length_b 11.453201
_cell_length_c 24.843076
_cell_angle_alpha 90.000000
_cell_angle_beta 90.000000
_cell_angle_gamma 90.000000
_cell_volume 3258.810695
_symmetry_space_group_name_H-M "P -4 21 C"
_symmetry_group_IT_number 114
_symmetry_cell_setting 'tetragonal'
loop_
_space_group_symop_operation_xyz
x,y,z
y,-x,-z
-x,-y,z
-y,x,-z
1/2+x,1/2-y,1/2-z
1/2-x,1/2+y,1/2-z
1/2-y,1/2-x,1/2+z
1/2+y,1/2+x,1/2+z
loop_
_atom_site_type_symbol
_atom_site_label
_atom_site_fract_x
_atom_site_fract_y
_atom_site_fract_z
Si Si1 0.319378 0.423920 0.507144
Si Si2 0.229438 0.395155 0.819945
Si Si3 0.161789 0.123454 0.702514
Si Si4 0.865172 0.032332 0.880141
Si Si5 0.974054 0.659531 0.736852
Si Si6 0.056451 0.378294 0.921155
Si Si7 0.132529 0.703908 0.184785
Si Si8 0.881271 0.266041 0.839748
O O1 0.353416 0.562581 0.507430
O O2 0.303209 0.401882 0.570380
O O3 0.210344 0.400545 0.467902
O O4 0.332009 0.490258 0.816149
O O5 0.286085 0.269445 0.825316
O O6 0.143546 0.393247 0.766141
O O7 0.148184 0.410589 0.873275
O O8 0.221107 0.115469 0.761196
O O9 0.251717 0.186351 0.662051
O O10 0.059530 0.215647 0.711286
O O11 0.778765 0.932396 0.860720
O O12 0.879767 0.127445 0.833536
O O13 0.000000 0.000000 0.894495
O O14 0.068634 0.601526 0.696167
O O15 0.052971 0.679672 0.789243
O O16 0.956158 0.304099 0.890807
O O17 0.000000 0.500000 0.941086
#
# Coordination Sequence:
#
# PCOD9555954 Si02
#       8
#     8   8   8   8   8   8   8   8
#     4  11  20  36  61  89 115 145 191 258 321 368
#     4  10  20  37  56  81 114 157 213 246 296 366
#     4  10  20  36  55  79 112 166 204 241 290 354
#     4  12  21  37  59  87 119 153 194 246 318 380
#     4   9  21  37  51  86 121 159 207 250 300 352
#     4  11  20  37  61  86 115 149 201 258 300 371
#     4  10  23  34  54  87 122 159 197 253 300 360
#     4  10  20  36  55  83 112 156 202 240 295 363
#
# _framework density 19.639067000000001
#
# number of rings (size 3 to 8) (size 9 to 14) (size 15 to 20)
#    0.000    1.625    3.750    3.000    5.250    0.500 
#    2.250    1.250    0.000    0.000    0.000    0.000 
#    0.000    0.000    0.000    0.000    0.000    0.000 
#
# Total GULP energy -356423.797572 kJ/mol
# GULP energy per Si atom -5569.121837 kJ/mol
# Density = 1.959437 g / cm^3
# Si number density = 19.639067 Si / 1000 Ang^3
#
#
#
# Elastic Constant Matrix: (Units=GPa)
#
#
# Indices 1 2 3 4 5 6 
#
# 1 78.8269 16.4316 9.8625 0.0000 0.0000 0.0000
# 2 16.4316 78.8269 9.8625 0.0000 0.0000 0.0000
# 3 9.8625 9.8625 50.3711 0.0000 0.0000 0.0000
# 4 0.0000 0.0000 0.0000 14.8577 0.0000 0.0000
# 5 0.0000 0.0000 0.0000 0.0000 14.8577 0.0000
# 6 0.0000 0.0000 0.0000 0.0000 0.0000 30.3412
#
#
#
# Elastic Compliance Matrix: (Units=1/GPa)
#
#
# Indices 1 2 3 4 5 6 
#
# 1 0.013484 -0.002543 -0.002142 0.000000 0.000000 0.000000
# 2 -0.002543 0.013484 -0.002142 0.000000 0.000000 0.000000
# 3 -0.002142 -0.002142 0.020692 0.000000 0.000000 0.000000
# 4 0.000000 0.000000 0.000000 0.067305 0.000000 0.000000
# 5 0.000000 0.000000 0.000000 0.000000 0.067305 0.000000
# 6 0.000000 0.000000 0.000000 0.000000 0.000000 0.032958
#
#
# Mechanical properties :
#
#
# Convention : Reuss Voigt Hill
#
# Bulk Modulus (GPa) = 29.40734 31.14869 30.27802
# Shear Modulus (GPa) = 20.81437 23.46919 22.14178
#
# Velocity S-wave (km/s) = 3.25906 3.46066 3.36137
# Velocity P-wave (km/s) = 5.40077 5.64476 5.52411
#
# Compressibility (1/GPa) = 0.03400511
#
# Stress axis : x y z
#
# Youngs Moduli (GPa) = 74.16145 74.16145 48.32885
#
# Poissons Ratio (x) = 0.18857 0.10353
# Poissons Ratio (y) = 0.18857 0.10353
# Poissons Ratio (z) = 0.15888 0.15888
#
# Static dielectric constant tensor:
#      x y z
#    x 1.785450 0.000000 0.000000 
#    y 0.000000 1.785450 0.000000 
#    z 0.000000 0.000000 1.739570 
# 
# From -- ./inp_files/3757.got.cif
#   From: 2010.05.17/outbox.cif.g08.bks.cpg/sg114_2_cif.got.tgz:3757.got - 2010.05.20 11:04:54.
