data_PCOD9555475
_publ_section_title
;
Structure prediction by ZEFSAII (Michael W. Deem and Ramdas Pophale) SiO2 
 PCOD9555475
Probable space group: P -4 21 M 
;
_chemical_formula_sum "Si O2"
_cell_formula_units_Z 56
_cell_length_a 15.566680
_cell_length_b 15.566680
_cell_length_c 13.447734
_cell_angle_alpha 90.000000
_cell_angle_beta 90.000000
_cell_angle_gamma 90.000000
_cell_volume 3258.675427
_symmetry_space_group_name_H-M "P -4 21 M "
_symmetry_group_IT_number 113
_symmetry_cell_setting 'tetragonal'
loop_
_space_group_symop_operation_xyz
x,y,z
y,-x,-z
-x,-y,z
-y,x,-z
1/2+x,1/2-y,-z
1/2-x,1/2+y,-z
1/2-y,1/2-x,z
1/2+y,1/2+x,z
loop_
_atom_site_type_symbol
_atom_site_label
_atom_site_fract_x
_atom_site_fract_y
_atom_site_fract_z
Si Si1 0.098888 0.901111 0.499999
Si Si2 0.814541 0.903367 0.140055
Si Si3 0.239534 0.401285 0.642783
Si Si4 0.739533 0.901286 0.357218
Si Si5 0.263093 0.096360 0.922709
Si Si6 0.096632 0.185458 0.859946
Si Si7 0.736906 0.096358 0.922709
O O1 0.171259 0.888354 0.416418
O O2 0.111645 0.828738 0.583579
O O3 0.999999 0.892541 0.463241
O O4 0.760709 0.892785 0.240309
O O5 0.882858 0.827425 0.129563
O O6 0.852102 0.999999 0.140653
O O7 0.756363 0.896959 0.040984
O O8 0.167727 0.332274 0.613880
O O9 0.211703 0.499999 0.624659
O O10 0.260710 0.392785 0.759693
O O11 0.667724 0.832277 0.386121
O O12 0.332289 0.167712 0.894723
O O13 0.172573 0.117142 0.870439
O O14 0.291794 0.000001 0.900678
O O15 0.103039 0.243637 0.959017
O O16 0.667709 0.167709 0.894725
#
# Coordination Sequence:
#
# PCOD9555475 Si02
#       7
#     8   8   8   8   8   8   8
#     4   9  19  34  50  70  95 123 158 198 236 275
#     4   9  18  32  50  70  93 123 158 198 242 279
#     4  10  19  32  51  73  98 126 155 191 235 284
#     4  10  19  32  51  73  98 126 155 191 235 284
#     4  10  19  31  47  68  97 129 160 195 232 277
#     4   9  18  32  50  70  93 123 158 198 242 279
#     4  10  19  31  47  68  97 129 160 195 232 277
#
# _framework density 17.184895999999998
#
# number of rings (size 3 to 8) (size 9 to 14) (size 15 to 20)
#    0.000    2.429    0.000    3.857    0.000    2.286 
#    0.000    5.714    0.000    5.143    0.000    0.000 
#    0.000    6.857    0.000    0.000    0.000    0.286 
#
# Total GULP energy -312113.041513 kJ/mol
# GULP energy per Si atom -5573.447170 kJ/mol
# Density = 1.714578 g / cm^3
# Si number density = 17.184896 Si / 1000 Ang^3
#
#
#
# Elastic Constant Matrix: (Units=GPa)
#
#
# Indices 1 2 3 4 5 6 
#
# 1 110.6783 89.0643 35.1223 0.0000 0.0000 0.0000
# 2 89.0643 110.6745 35.1250 0.0000 0.0000 0.0000
# 3 35.1223 35.1250 27.6449 0.0000 0.0000 0.0000
# 4 0.0000 0.0000 0.0000 15.8764 0.0000 0.0000
# 5 0.0000 0.0000 0.0000 0.0000 15.8760 0.0000
# 6 0.0000 0.0000 0.0000 0.0000 0.0000 17.1209
#
#
#
# Elastic Compliance Matrix: (Units=1/GPa)
#
#
# Indices 1 2 3 4 5 6 
#
# 1 0.027658 -0.018610 -0.011494 0.000000 0.000000 0.000000
# 2 -0.018610 0.027663 -0.011504 0.000000 0.000000 0.000000
# 3 -0.011494 -0.011504 0.065393 0.000000 0.000000 0.000000
# 4 0.000000 0.000000 0.000000 0.062986 0.000000 0.000000
# 5 0.000000 0.000000 0.000000 0.000000 0.062988 0.000000
# 6 0.000000 0.000000 0.000000 0.000000 0.000000 0.058408
#
#
# Mechanical properties :
#
#
# Convention : Reuss Voigt Hill
#
# Bulk Modulus (GPa) = 26.66827 63.06899 44.86863
# Shear Modulus (GPa) = 12.47467 15.75374 14.11420
#
# Velocity S-wave (km/s) = 2.69719 3.03102 2.86897
# Velocity P-wave (km/s) = 5.02513 7.00210 6.09431
#
# Compressibility (1/GPa) = 0.03749775
#
# Stress axis : x y z
#
# Youngs Moduli (GPa) = 36.15542 36.14965 15.29221
#
# Poissons Ratio (x) = 0.67274 0.17577
# Poissons Ratio (y) = 0.67285 0.17592
# Poissons Ratio (z) = 0.41557 0.41587
#
# Static dielectric constant tensor:
#      x y z
#    x 1.579980 0.000000 0.000000 
#    y 0.000000 1.579980 0.000000 
#    z 0.000000 0.000000 1.569370 
# 
# From -- ./inp_files/2313.got.cif
#   From: 2010.05.17/outbox.cif.g08.bks.cpg/sg113_cif.got.tgz:2313.got - 2010.05.20 11:03:00.
