data_PCOD9555138
_publ_section_title
;
Structure prediction by ZEFSAII (Michael W. Deem and Ramdas Pophale) SiO2 
 PCOD9555138
Probable space group: P -4 2 C
;
_chemical_formula_sum "Si O2"
_cell_formula_units_Z 40
_cell_length_a 13.713837
_cell_length_b 13.713837
_cell_length_c 9.564659
_cell_angle_alpha 90.000000
_cell_angle_beta 90.000000
_cell_angle_gamma 90.000000
_cell_volume 1798.818964
_symmetry_space_group_name_H-M "P -4 2 C"
_symmetry_group_IT_number 112
_symmetry_cell_setting 'tetragonal'
loop_
_space_group_symop_operation_xyz
x,y,z
y,-x,-z
-x,-y,z
-y,x,-z
x,-y,1/2-z
-x,y,1/2-z
-y,-x,1/2+z
y,x,1/2+z
loop_
_atom_site_type_symbol
_atom_site_label
_atom_site_fract_x
_atom_site_fract_y
_atom_site_fract_z
Si Si1 0.302997 0.592755 0.647419
Si Si2 0.766798 0.181856 0.254772
Si Si3 0.884871 0.297741 0.052050
Si Si4 0.761102 0.463937 0.100563
Si Si5 0.848447 0.972797 0.464264
O O1 0.322399 0.500000 0.750000
O O2 0.214248 0.659951 0.701601
O O3 0.275256 0.548784 0.498761
O O4 0.391987 0.668255 0.625688
O O5 0.751917 0.171858 0.420050
O O6 0.811167 0.089351 0.168517
O O7 0.838931 0.265266 0.199150
O O8 0.990862 0.250056 0.039726
O O9 0.854225 0.408735 0.035044
O O10 0.792256 0.500000 0.250000
O O11 0.926957 0.911176 0.554623
#
# Coordination Sequence:
#
# PCOD9555138 Si02
#       5
#     8   8   8   8   8
#     4  11  22  40  62  95 124 174 221 272 337 395
#     4  10  21  38  64  91 131 169 213 262 331 393
#     4  10  21  39  63  92 130 172 210 265 334 390
#     4  11  24  38  64  91 134 171 222 277 335 396
#     4   9  19  40  69 101 130 166 220 273 318 391
#
# _framework density 22.236812
#
# number of rings (size 3 to 8) (size 9 to 14) (size 15 to 20)
#    0.000    1.800    2.000    1.800    8.400    2.400 
#    0.000   42.000    0.000    1.200    0.000    0.000 
#    0.000    0.000    0.000    0.000    0.000    0.000 
#
# Total GULP energy -222810.655086 kJ/mol
# GULP energy per Si atom -5570.266377 kJ/mol
# Density = 2.218620 g / cm^3
# Si number density = 22.236812 Si / 1000 Ang^3
#
#
#
# Elastic Constant Matrix: (Units=GPa)
#
#
# Indices 1 2 3 4 5 6 
#
# 1 45.2067 33.8482 -7.1169 0.0000 0.0000 0.0000
# 2 33.8482 45.2067 -7.1169 0.0000 0.0000 0.0000
# 3 -7.1169 -7.1169 77.1830 0.0000 0.0000 0.0000
# 4 0.0000 0.0000 0.0000 24.4584 0.0000 0.0000
# 5 0.0000 0.0000 0.0000 0.0000 24.4584 0.0000
# 6 0.0000 0.0000 0.0000 0.0000 0.0000 38.1671
#
#
#
# Elastic Compliance Matrix: (Units=1/GPa)
#
#
# Indices 1 2 3 4 5 6 
#
# 1 0.050451 -0.037588 0.001186 0.000000 0.000000 0.000000
# 2 -0.037588 0.050451 0.001186 0.000000 0.000000 0.000000
# 3 0.001186 0.001186 0.013175 0.000000 0.000000 0.000000
# 4 0.000000 0.000000 0.000000 0.040886 0.000000 0.000000
# 5 0.000000 0.000000 0.000000 0.000000 0.040886 0.000000
# 6 0.000000 0.000000 0.000000 0.000000 0.000000 0.026201
#
#
# Mechanical properties :
#
#
# Convention : Reuss Voigt Hill
#
# Bulk Modulus (GPa) = 22.91200 22.98056 22.94628
# Shear Modulus (GPa) = 16.28504 27.28225 21.78365
#
# Velocity S-wave (km/s) = 2.70912 3.50651 3.13329
# Velocity P-wave (km/s) = 4.48462 5.17214 4.84060
#
# Compressibility (1/GPa) = 0.04364525
#
# Stress axis : x y z
#
# Youngs Moduli (GPa) = 19.82110 19.82110 75.90159
#
# Poissons Ratio (x) = 0.74504 -0.09002
# Poissons Ratio (y) = 0.74504 -0.09002
# Poissons Ratio (z) = -0.02351 -0.02351
#
# Static dielectric constant tensor:
#      x y z
#    x 1.876110 0.000000 0.000000 
#    y 0.000000 1.876110 0.000000 
#    z 0.000000 0.000000 1.832470 
# 
# From -- ./inp_files/1252.got.cif
#   From: 2010.05.17/outbox.cif.g08.bks.cpg/sg112_1_cif.got.tgz:1252.got - 2010.05.20 10:59:04.
