data_PCOD9555035
_publ_section_title
;
Structure prediction by ZEFSAII (Michael W. Deem and Ramdas Pophale) SiO2 
 PCOD9555035
Probable space group: P -4 2 C
;
_chemical_formula_sum "Si O2"
_cell_formula_units_Z 34
_cell_length_a 9.275334
_cell_length_b 9.275334
_cell_length_c 21.992733
_cell_angle_alpha 90.000000
_cell_angle_beta 90.000000
_cell_angle_gamma 90.000000
_cell_volume 1892.074865
_symmetry_space_group_name_H-M "P -4 2 C"
_symmetry_group_IT_number 112
_symmetry_cell_setting 'tetragonal'
loop_
_space_group_symop_operation_xyz
x,y,z
y,-x,-z
-x,-y,z
-y,x,-z
x,-y,1/2-z
-x,y,1/2-z
-y,-x,1/2+z
y,x,1/2+z
loop_
_atom_site_type_symbol
_atom_site_label
_atom_site_fract_x
_atom_site_fract_y
_atom_site_fract_z
Si Si1 0.633234 0.108795 0.904273
Si Si2 0.211278 0.904420 0.019283
Si Si3 0.000000 0.000000 0.250000
Si Si4 0.670305 0.521381 0.321836
Si Si5 0.851786 0.809751 0.350936
O O1 0.594441 0.241825 0.861631
O O2 0.500000 0.000000 0.904057
O O3 0.758378 0.009291 0.875737
O O4 0.664865 0.149065 0.974043
O O5 0.221355 0.888579 0.091419
O O6 0.070067 0.817544 0.997502
O O7 0.104828 0.904691 0.206990
O O8 0.500000 0.500000 0.334243
O O9 0.692101 0.500000 0.250000
O O10 0.746787 0.674997 0.336495
#
# Coordination Sequence:
#
# PCOD9555035 Si02
#       5
#     8   8   2   8   8
#     4   9  18  35  57  81 106 148 192 238 282 343
#     4   9  17  33  54  77 111 138 177 238 294 337
#     4  12  20  32  64  90 116 144 196 254 288 348
#     4  10  21  38  55  77 114 153 192 234 282 346
#     4  10  20  34  57  87 108 145 196 233 292 345
#
# _framework density 17.969691999999998
#
# number of rings (size 3 to 8) (size 9 to 14) (size 15 to 20)
#    0.000    2.353    0.000    4.235    0.000    3.294 
#   12.706    0.000    0.000    1.412    0.000    0.000 
#    0.000    0.000    0.000    0.000    0.000    0.000 
#
# Total GULP energy -189331.268557 kJ/mol
# GULP energy per Si atom -5568.566722 kJ/mol
# Density = 1.792879 g / cm^3
# Si number density = 17.969692 Si / 1000 Ang^3
#
#
#
# Elastic Constant Matrix: (Units=GPa)
#
#
# Indices 1 2 3 4 5 6 
#
# 1 46.7606 13.7229 34.6492 0.0000 0.0000 0.0000
# 2 13.7229 46.7606 34.6492 0.0000 0.0000 0.0000
# 3 34.6492 34.6492 127.9427 0.0000 0.0000 0.0000
# 4 0.0000 0.0000 0.0000 34.4586 0.0000 0.0000
# 5 0.0000 0.0000 0.0000 0.0000 34.4586 0.0000
# 6 0.0000 0.0000 0.0000 0.0000 0.0000 15.5606
#
#
#
# Elastic Compliance Matrix: (Units=1/GPa)
#
#
# Indices 1 2 3 4 5 6 
#
# 1 0.027120 -0.003148 -0.006492 0.000000 0.000000 0.000000
# 2 -0.003148 0.027120 -0.006492 0.000000 0.000000 0.000000
# 3 -0.006492 -0.006492 0.011332 0.000000 0.000000 0.000000
# 4 0.000000 0.000000 0.000000 0.029020 0.000000 0.000000
# 5 0.000000 0.000000 0.000000 0.000000 0.029020 0.000000
# 6 0.000000 0.000000 0.000000 0.000000 0.000000 0.064265
#
#
# Mechanical properties :
#
#
# Convention : Reuss Voigt Hill
#
# Bulk Modulus (GPa) = 30.02318 43.05626 36.53972
# Shear Modulus (GPa) = 21.62210 26.12506 23.87358
#
# Velocity S-wave (km/s) = 3.47256 3.81706 3.64888
# Velocity P-wave (km/s) = 5.72906 6.59084 6.17500
#
# Compressibility (1/GPa) = 0.03330759
#
# Stress axis : x y z
#
# Youngs Moduli (GPa) = 36.87320 36.87320 88.24379
#
# Poissons Ratio (x) = 0.11609 0.57287
# Poissons Ratio (y) = 0.11609 0.57287
# Poissons Ratio (z) = 0.23938 0.23938
#
# Static dielectric constant tensor:
#      x y z
#    x 1.634760 0.000000 0.000000 
#    y 0.000000 1.634760 0.000000 
#    z 0.000000 0.000000 1.636980 
# 
# From -- ./inp_files/4652.got.cif
#   From: 2010.05.17/outbox.cif.g08.bks.cpg/sg112_3_cif.got.tgz:4652.got - 2010.05.20 10:59:04.
