data_PCOD9555204
_publ_section_title
;
Structure prediction by ZEFSAII (Michael W. Deem and Ramdas Pophale) SiO2 
 PCOD9555204
Probable space group: P -4 2 C
;
_chemical_formula_sum "Si O2"
_cell_formula_units_Z 34
_cell_length_a 7.921737
_cell_length_b 7.921737
_cell_length_c 23.680011
_cell_angle_alpha 90.000000
_cell_angle_beta 90.000000
_cell_angle_gamma 90.000000
_cell_volume 1486.013447
_symmetry_space_group_name_H-M "P -4 2 C"
_symmetry_group_IT_number 112
_symmetry_cell_setting 'tetragonal'
loop_
_space_group_symop_operation_xyz
x,y,z
y,-x,-z
-x,-y,z
-y,x,-z
x,-y,1/2-z
-x,y,1/2-z
-y,-x,1/2+z
y,x,1/2+z
loop_
_atom_site_type_symbol
_atom_site_label
_atom_site_fract_x
_atom_site_fract_y
_atom_site_fract_z
Si Si1 0.258309 0.385749 0.418139
Si Si2 0.686580 0.747213 0.669397
Si Si3 0.500000 0.500000 0.250000
Si Si4 0.027174 0.196576 0.896660
Si Si5 0.500000 0.500000 0.500000
Si Si6 0.000000 0.500000 0.250000
Si Si7 0.000000 0.500000 0.513220
O O1 0.260716 0.558164 0.383223
O O2 0.427801 0.364899 0.455727
O O3 0.127091 0.417697 0.467641
O O4 0.215110 0.224984 0.379652
O O5 0.629840 0.592143 0.708035
O O6 0.878325 0.761033 0.647831
O O7 0.624028 0.899048 0.708716
O O8 0.019241 0.337187 0.945630
O O9 0.000000 0.000000 0.913874
#
# Coordination Sequence:
#
# PCOD9555204 Si02
#       7
#     8   8   2   8   2   2   4
#     4  12  25  45  72 109 155 205 250 315 381 473
#     4  11  25  50  77 110 149 205 263 327 400 452
#     4  10  26  50  82 108 152 200 270 342 394 456
#     4  12  28  46  75 113 157 206 256 313 383 478
#     4  12  22  44  68 106 160 200 250 308 392 462
#     4  10  22  50  78 106 152 200 266 346 394 448
#     4  12  27  42  70 116 158 198 251 304 380 472
#
# _framework density 22.880011
#
# number of rings (size 3 to 8) (size 9 to 14) (size 15 to 20)
#    0.000    0.471    2.353    5.647    6.588    0.000 
#    0.000   12.353    0.000    0.000    0.000    0.000 
#    0.000    0.000    0.000    0.000    0.000    0.000 
#
# Total GULP energy -189536.463528 kJ/mol
# GULP energy per Si atom -5574.601868 kJ/mol
# Density = 2.282793 g / cm^3
# Si number density = 22.880011 Si / 1000 Ang^3
#
#
#
# Elastic Constant Matrix: (Units=GPa)
#
#
# Indices 1 2 3 4 5 6 
#
# 1 144.8313 46.4685 48.4122 0.0000 0.0000 0.0000
# 2 46.4685 144.8313 48.4122 0.0000 0.0000 0.0000
# 3 48.4122 48.4122 81.0210 0.0000 0.0000 0.0000
# 4 0.0000 0.0000 0.0000 20.5656 0.0000 0.0000
# 5 0.0000 0.0000 0.0000 0.0000 20.5656 0.0000
# 6 0.0000 0.0000 0.0000 0.0000 0.0000 -343.5817
#
#
#
# Elastic Compliance Matrix: (Units=1/GPa)
#
#
# Indices 1 2 3 4 5 6 
#
# 1 0.008830 -0.001336 -0.004478 0.000000 0.000000 0.000000
# 2 -0.001336 0.008830 -0.004478 0.000000 0.000000 0.000000
# 3 -0.004478 -0.004478 0.017694 0.000000 0.000000 0.000000
# 4 0.000000 0.000000 0.000000 0.048625 0.000000 0.000000
# 5 0.000000 0.000000 0.000000 0.000000 0.048625 0.000000
# 6 0.000000 0.000000 0.000000 0.000000 0.000000 -0.002911
#
#
# Mechanical properties :
#
#
# Convention : Reuss Voigt Hill
#
# Bulk Modulus (GPa) = 67.70377 73.02991 70.36684
# Shear Modulus (GPa) = 32.21649 -45.33073 -6.55712
#
# Velocity S-wave (km/s) = 3.75649 -4.45594 -1.69473
# Velocity P-wave (km/s) = 6.96204 2.34821 5.19539
#
# Compressibility (1/GPa) = 0.01477023
#
# Stress axis : x y z
#
# Youngs Moduli (GPa) = 113.24910 113.24910 56.51775
#
# Poissons Ratio (x) = 0.15134 0.25307
# Poissons Ratio (y) = 0.15134 0.25307
# Poissons Ratio (z) = 0.50710 0.50710
#
# Static dielectric constant tensor:
#      x y z
#    x 1.911410 0.000000 0.000000 
#    y 0.000000 1.911410 0.000000 
#    z 0.000000 0.000000 1.791960 
# 
# From -- ./inp_files/5281.got.cif
#   From: 2010.05.17/outbox.cif.g08.bks.cpg/sg112_3_cif.got.tgz:5281.got - 2010.05.20 10:59:04.
