data_PCOD9555764
_publ_section_title
;
Structure prediction by ZEFSAII (Michael W. Deem and Ramdas Pophale) SiO2 
 PCOD9555764
Probable space group: P -4 21 M 
;
_chemical_formula_sum "Si O2"
_cell_formula_units_Z 40
_cell_length_a 10.959890
_cell_length_b 10.959890
_cell_length_c 16.032214
_cell_angle_alpha 90.000000
_cell_angle_beta 90.000000
_cell_angle_gamma 90.000000
_cell_volume 1925.776541
_symmetry_space_group_name_H-M "P -4 21 M "
_symmetry_group_IT_number 113
_symmetry_cell_setting 'tetragonal'
loop_
_space_group_symop_operation_xyz
x,y,z
y,-x,-z
-x,-y,z
-y,x,-z
1/2+x,1/2-y,-z
1/2-x,1/2+y,-z
1/2-y,1/2-x,z
1/2+y,1/2+x,z
loop_
_atom_site_type_symbol
_atom_site_label
_atom_site_fract_x
_atom_site_fract_y
_atom_site_fract_z
Si Si1 0.007928 0.695560 0.684102
Si Si2 0.595368 0.404629 0.202566
Si Si3 0.507929 0.195560 0.684104
Si Si4 0.295501 0.499998 0.499999
Si Si5 0.853213 0.853207 0.978375
O O1 0.902855 0.597146 0.700431
O O2 0.975028 0.812067 0.737554
O O3 0.007467 0.721932 0.585433
O O4 0.135934 0.635934 0.707359
O O5 0.500000 0.500000 0.166598
O O6 0.687936 0.475023 0.262443
O O7 0.654504 0.345488 0.122011
O O8 0.402858 0.097143 0.700430
O O9 0.507471 0.221934 0.585436
O O10 0.635936 0.135936 0.707363
O O11 0.382328 0.617671 0.494803
O O12 0.750004 0.749997 0.009585
O O13 0.000003 0.828253 0.000001
#
# Coordination Sequence:
#
# PCOD9555764 Si02
#       5
#     8   8   8   8   8
#     4  11  24  40  62  95 132 176 229 281 336 399
#     4  12  24  45  71  98 136 179 223 279 342 409
#     4  11  24  40  62  95 132 176 229 281 336 399
#     4  11  22  37  58  88 128 179 229 278 338 394
#     4  11  25  50  79 111 147 187 232 290 360 436
#
# _framework density 20.770841000000001
#
# number of rings (size 3 to 8) (size 9 to 14) (size 15 to 20)
#    0.000    0.800    4.000    4.200    0.000    8.400 
#    0.000    0.000    0.000    0.000    0.000    0.000 
#    0.000    0.000    0.000    0.000    0.000    0.000 
#
# Total GULP energy -223308.023808 kJ/mol
# GULP energy per Si atom -5582.700595 kJ/mol
# Density = 2.072357 g / cm^3
# Si number density = 20.770841 Si / 1000 Ang^3
#
#
#
# Elastic Constant Matrix: (Units=GPa)
#
#
# Indices 1 2 3 4 5 6 
#
# 1 101.5993 78.1158 24.0384 0.0000 0.0000 0.0000
# 2 78.1158 101.5984 24.0379 0.0000 0.0000 0.0000
# 3 24.0384 24.0379 96.7134 0.0000 0.0000 0.0000
# 4 0.0000 0.0000 0.0000 35.3458 0.0000 0.0000
# 5 0.0000 0.0000 0.0000 0.0000 35.2957 0.0000
# 6 0.0000 0.0000 0.0000 0.0000 0.0000 476.1782
#
#
#
# Elastic Compliance Matrix: (Units=1/GPa)
#
#
# Indices 1 2 3 4 5 6 
#
# 1 0.024272 -0.018312 -0.001482 0.000000 0.000000 0.000000
# 2 -0.018312 0.024272 -0.001481 0.000000 0.000000 0.000000
# 3 -0.001482 -0.001481 0.011076 0.000000 0.000000 0.000000
# 4 0.000000 0.000000 0.000000 0.028292 0.000000 0.000000
# 5 0.000000 0.000000 0.000000 0.000000 0.028332 0.000000
# 6 0.000000 0.000000 0.000000 0.000000 0.000000 0.002100
#
#
# Mechanical properties :
#
#
# Convention : Reuss Voigt Hill
#
# Bulk Modulus (GPa) = 58.57692 61.36616 59.97154
# Shear Modulus (GPa) = 30.01472 120.94520 75.47996
#
# Velocity S-wave (km/s) = 3.80549 7.63903 6.03476
# Velocity P-wave (km/s) = 6.89723 10.36411 8.80303
#
# Compressibility (1/GPa) = 0.01707157
#
# Stress axis : x y z
#
# Youngs Moduli (GPa) = 41.19931 41.19898 90.28288
#
# Poissons Ratio (x) = 0.75442 0.13376
# Poissons Ratio (y) = 0.75443 0.13375
# Poissons Ratio (z) = 0.06104 0.06103
#
# Static dielectric constant tensor:
#      x y z
#    x 1.786520 0.000000 0.000000 
#    y 0.000000 1.786520 0.000000 
#    z 0.000000 0.000000 1.708680 
# 
# From -- ./inp_files/2180.got.cif
#   From: 2010.05.17/outbox.cif.g08.bks.cpg/sg113_cif.got.tgz:2180.got - 2010.05.20 11:03:00.
