data_PCOD9555901
_publ_section_title
;
Structure prediction by ZEFSAII (Michael W. Deem and Ramdas Pophale) SiO2 
 PCOD9555901
Probable space group: P -4 21 C
;
_chemical_formula_sum "Si O2"
_cell_formula_units_Z 48
_cell_length_a 9.567797
_cell_length_b 9.567797
_cell_length_c 22.059209
_cell_angle_alpha 90.000000
_cell_angle_beta 90.000000
_cell_angle_gamma 90.000000
_cell_volume 2019.360422
_symmetry_space_group_name_H-M "P -4 21 C"
_symmetry_group_IT_number 114
_symmetry_cell_setting 'tetragonal'
loop_
_space_group_symop_operation_xyz
x,y,z
y,-x,-z
-x,-y,z
-y,x,-z
1/2+x,1/2-y,1/2-z
1/2-x,1/2+y,1/2-z
1/2-y,1/2-x,1/2+z
1/2+y,1/2+x,1/2+z
loop_
_atom_site_type_symbol
_atom_site_label
_atom_site_fract_x
_atom_site_fract_y
_atom_site_fract_z
Si Si1 0.594865 0.884220 0.753220
Si Si2 0.429046 0.643670 0.248137
Si Si3 0.883902 0.824187 0.423749
Si Si4 0.460998 0.848668 0.624612
Si Si5 0.098484 0.132920 0.105778
Si Si6 0.372207 0.709768 0.931475
O O1 0.644520 0.731450 0.774178
O O2 0.498669 0.843859 0.695441
O O3 0.500000 0.000000 0.788322
O O4 0.729339 0.970349 0.730591
O O5 0.500000 0.500000 0.228250
O O6 0.428798 0.646772 0.322038
O O7 0.814534 0.696571 0.389330
O O8 0.871949 0.799526 0.495668
O O9 0.051804 0.824107 0.410134
O O10 0.801669 0.966809 0.410506
O O11 0.562163 0.745357 0.591347
O O12 0.500000 0.000000 0.601912
O O13 0.146829 0.290106 0.085660
O O14 0.000000 0.000000 0.085493
#
# Coordination Sequence:
#
# PCOD9555901 Si02
#       6
#     8   8   8   8   8   8
#     4  10  21  38  63  91 125 168 218 273 342 397
#     4  10  21  40  64  91 126 168 218 281 332 409
#     4   9  18  36  65  93 127 168 232 279 314 399
#     4  10  19  37  61  89 123 171 218 268 326 409
#     4  10  21  39  60  93 138 169 217 274 346 409
#     4   9  18  37  63  96 128 171 218 282 335 378
#
# _framework density 23.769901999999998
#
# number of rings (size 3 to 8) (size 9 to 14) (size 15 to 20)
#    0.000    2.333    1.667    2.000    0.000    1.333 
#    3.000   15.833    0.000    0.000    0.000    0.000 
#    0.000    0.000    0.000    0.000    0.000    0.000 
#
# Total GULP energy -267290.813854 kJ/mol
# GULP energy per Si atom -5568.558622 kJ/mol
# Density = 2.371580 g / cm^3
# Si number density = 23.769902 Si / 1000 Ang^3
#
#
#
# Elastic Constant Matrix: (Units=GPa)
#
#
# Indices 1 2 3 4 5 6 
#
# 1 106.5583 5.2281 34.1534 0.0000 0.0000 0.0000
# 2 5.2281 106.5583 34.1534 0.0000 0.0000 0.0000
# 3 34.1534 34.1534 45.2167 0.0000 0.0000 0.0000
# 4 0.0000 0.0000 0.0000 5.6480 0.0000 0.0000
# 5 0.0000 0.0000 0.0000 0.0000 5.6480 0.0000
# 6 0.0000 0.0000 0.0000 0.0000 0.0000 42.1911
#
#
#
# Elastic Compliance Matrix: (Units=1/GPa)
#
#
# Indices 1 2 3 4 5 6 
#
# 1 0.013241 0.003372 -0.012549 0.000000 0.000000 0.000000
# 2 0.003372 0.013241 -0.012549 0.000000 0.000000 0.000000
# 3 -0.012549 -0.012549 0.041072 0.000000 0.000000 0.000000
# 4 0.000000 0.000000 0.000000 0.177055 0.000000 0.000000
# 5 0.000000 0.000000 0.000000 0.000000 0.177055 0.000000
# 6 0.000000 0.000000 0.000000 0.000000 0.000000 0.023702
#
#
# Mechanical properties :
#
#
# Convention : Reuss Voigt Hill
#
# Bulk Modulus (GPa) = 41.48546 45.04479 43.26513
# Shear Modulus (GPa) = 10.06338 23.01730 16.54034
#
# Velocity S-wave (km/s) = 2.05982 3.11519 2.64076
# Velocity P-wave (km/s) = 4.81123 5.65072 5.24779
#
# Compressibility (1/GPa) = 0.02410483
#
# Stress axis : x y z
#
# Youngs Moduli (GPa) = 75.52275 75.52275 24.34741
#
# Poissons Ratio (x) = -0.25469 0.30552
# Poissons Ratio (y) = -0.25469 0.30552
# Poissons Ratio (z) = 0.94770 0.94770
#
# Static dielectric constant tensor:
#      x y z
#    x 2.029490 0.000000 0.000000 
#    y 0.000000 2.029490 0.000000 
#    z 0.000000 0.000000 1.925200 
# 
# From -- ./inp_files/3949.got.cif
#   From: 2010.05.17/outbox.cif.g08.bks.cpg/sg114_2_cif.got.tgz:3949.got - 2010.05.20 11:04:54.
