data_PCOD9555328
_publ_section_title
;
Structure prediction by ZEFSAII (Michael W. Deem and Ramdas Pophale) SiO2 
 PCOD9555328
Probable space group: P -4 2 C
;
_chemical_formula_sum "Si O2"
_cell_formula_units_Z 32
_cell_length_a 11.755420
_cell_length_b 11.755420
_cell_length_c 10.956886
_cell_angle_alpha 90.000000
_cell_angle_beta 90.000000
_cell_angle_gamma 90.000000
_cell_volume 1514.130974
_symmetry_space_group_name_H-M "P -4 2 C"
_symmetry_group_IT_number 112
_symmetry_cell_setting 'tetragonal'
loop_
_space_group_symop_operation_xyz
x,y,z
y,-x,-z
-x,-y,z
-y,x,-z
x,-y,1/2-z
-x,y,1/2-z
-y,-x,1/2+z
y,x,1/2+z
loop_
_atom_site_type_symbol
_atom_site_label
_atom_site_fract_x
_atom_site_fract_y
_atom_site_fract_z
Si Si1 0.644463 0.249297 0.862849
Si Si2 0.060823 0.122231 0.865401
Si Si3 0.714428 0.995234 0.913462
Si Si4 0.383245 0.761995 0.585271
O O1 0.663244 0.279568 0.719222
O O2 0.515018 0.272231 0.904454
O O3 0.665464 0.112754 0.864094
O O4 0.717606 0.313532 0.967139
O O5 0.189649 0.083983 0.847400
O O6 0.000000 0.176164 0.750000
O O7 0.000000 0.000000 0.880144
O O8 0.038157 0.209645 0.972652
O O9 0.619767 0.899422 0.930120
#
# Coordination Sequence:
#
# PCOD9555328 Si02
#       4
#     8   8   8   8
#     4  11  26  46  68 100 127 177 220 281 330 396
#     4  11  22  32  54  96 138 179 214 252 312 391
#     4  12  21  39  63  98 135 173 214 262 326 401
#     4  11  26  45  71  96 132 170 228 272 338 391
#
# _framework density 21.134236999999999
#
# number of rings (size 3 to 8) (size 9 to 14) (size 15 to 20)
#    0.000    0.750    5.000    1.500   10.500    3.500 
#    0.000    2.500    0.000    4.500    0.000    0.000 
#    0.000    0.000    0.000    0.000    0.000    0.000 
#
# Total GULP energy -178211.234092 kJ/mol
# GULP energy per Si atom -5569.101065 kJ/mol
# Density = 2.108613 g / cm^3
# Si number density = 21.134237 Si / 1000 Ang^3
#
#
#
# Elastic Constant Matrix: (Units=GPa)
#
#
# Indices 1 2 3 4 5 6 
#
# 1 77.3028 3.5285 44.6483 0.0000 0.0000 0.0000
# 2 3.5285 77.3028 44.6483 0.0000 0.0000 0.0000
# 3 44.6483 44.6483 134.2587 0.0000 0.0000 0.0000
# 4 0.0000 0.0000 0.0000 69.2126 0.0000 0.0000
# 5 0.0000 0.0000 0.0000 0.0000 69.2126 0.0000
# 6 0.0000 0.0000 0.0000 0.0000 0.0000 18.0085
#
#
#
# Elastic Compliance Matrix: (Units=1/GPa)
#
#
# Indices 1 2 3 4 5 6 
#
# 1 0.016555 0.003001 -0.006503 0.000000 0.000000 0.000000
# 2 0.003001 0.016555 -0.006503 0.000000 0.000000 0.000000
# 3 -0.006503 -0.006503 0.011774 0.000000 0.000000 0.000000
# 4 0.000000 0.000000 0.000000 0.014448 0.000000 0.000000
# 5 0.000000 0.000000 0.000000 0.000000 0.014448 0.000000
# 6 0.000000 0.000000 0.000000 0.000000 0.000000 0.055529
#
#
# Mechanical properties :
#
#
# Convention : Reuss Voigt Hill
#
# Bulk Modulus (GPa) = 40.20579 52.72383 46.46481
# Shear Modulus (GPa) = 31.72316 44.35601 38.03958
#
# Velocity S-wave (km/s) = 3.87852 4.58621 4.24713
# Velocity P-wave (km/s) = 6.25480 7.28325 6.78853
#
# Compressibility (1/GPa) = 0.02487204
#
# Stress axis : x y z
#
# Youngs Moduli (GPa) = 60.40320 60.40320 84.93444
#
# Poissons Ratio (x) = -0.18124 0.55236
# Poissons Ratio (y) = -0.18124 0.55236
# Poissons Ratio (z) = 0.39283 0.39283
#
# Static dielectric constant tensor:
#      x y z
#    x 1.684120 0.000000 0.000000 
#    y 0.000000 1.684120 0.000000 
#    z 0.000000 0.000000 1.868640 
# 
# From -- ./inp_files/2217.got.cif
#   From: 2010.05.17/outbox.cif.g08.bks.cpg/sg112_2_cif.got.tgz:2217.got - 2010.05.20 10:59:04.
