data_PCOD9555197
_publ_section_title
;
Structure prediction by ZEFSAII (Michael W. Deem and Ramdas Pophale) SiO2 
 PCOD9555197
Probable space group: P -4 2 C
;
_chemical_formula_sum "Si O2"
_cell_formula_units_Z 50
_cell_length_a 9.102824
_cell_length_b 9.102824
_cell_length_c 30.178222
_cell_angle_alpha 90.000000
_cell_angle_beta 90.000000
_cell_angle_gamma 90.000000
_cell_volume 2500.609869
_symmetry_space_group_name_H-M "P -4 2 C"
_symmetry_group_IT_number 112
_symmetry_cell_setting 'tetragonal'
loop_
_space_group_symop_operation_xyz
x,y,z
y,-x,-z
-x,-y,z
-y,x,-z
x,-y,1/2-z
-x,y,1/2-z
-y,-x,1/2+z
y,x,1/2+z
loop_
_atom_site_type_symbol
_atom_site_label
_atom_site_fract_x
_atom_site_fract_y
_atom_site_fract_z
Si Si1 0.821318 0.657215 0.870024
Si Si2 0.539825 0.737959 0.992176
Si Si3 0.939384 0.713756 0.558255
Si Si4 0.742228 0.683630 0.641147
Si Si5 0.000000 0.000000 0.500000
Si Si6 0.171954 0.975743 0.302297
Si Si7 0.466399 0.830308 0.608477
O O1 0.768713 0.491626 0.859796
O O2 0.694823 0.773746 0.880212
O O3 0.925194 0.653069 0.913232
O O4 0.914316 0.723624 0.829594
O O5 0.509909 0.800491 0.943670
O O6 0.660747 0.607369 0.989630
O O7 0.604565 0.861770 0.023961
O O8 0.820394 0.747158 0.596685
O O9 0.985544 0.857359 0.531022
O O10 0.818311 0.766467 0.681993
O O11 0.574510 0.726288 0.636116
O O12 0.185012 0.000000 0.250000
O O13 0.000000 0.000000 0.314519
O O14 0.500000 0.000000 0.618085
#
# Coordination Sequence:
#
# PCOD9555197 Si02
#       7
#     8   8   8   8   2   8   8
#     4  11  25  42  68  93 134 171 220 274 337 409
#     4  11  24  41  62  89 127 178 233 284 331 397
#     4  11  24  40  60  89 125 171 224 280 328 379
#     4  11  24  43  65  96 131 175 220 270 336 403
#     4  12  28  36  56  92 122 176 224 292 312 400
#     4  10  22  43  74 105 134 168 212 271 339 415
#     4  12  26  41  65  92 129 179 222 282 339 398
#
# _framework density 19.995123
#
# number of rings (size 3 to 8) (size 9 to 14) (size 15 to 20)
#    0.000    0.960    1.600    5.280   11.200    5.120 
#    0.000    0.800    0.000    4.800    0.000    0.000 
#    0.000    0.000    0.000    0.000    0.000    0.000 
#
# Total GULP energy -279758.608873 kJ/mol
# GULP energy per Si atom -5595.172177 kJ/mol
# Density = 1.994961 g / cm^3
# Si number density = 19.995123 Si / 1000 Ang^3
#
#
#
# Elastic Constant Matrix: (Units=GPa)
#
#
# Indices 1 2 3 4 5 6 
#
# 1 125.6362 56.7521 42.1127 0.0000 0.0000 0.0000
# 2 56.7521 125.6362 42.1127 0.0000 0.0000 0.0000
# 3 42.1127 42.1127 90.9493 0.0000 0.0000 0.0000
# 4 0.0000 0.0000 0.0000 19.6197 0.0000 0.0000
# 5 0.0000 0.0000 0.0000 0.0000 19.6197 0.0000
# 6 0.0000 0.0000 0.0000 0.0000 0.0000 37.3489
#
#
#
# Elastic Compliance Matrix: (Units=1/GPa)
#
#
# Indices 1 2 3 4 5 6 
#
# 1 0.010746 -0.003772 -0.003229 0.000000 0.000000 0.000000
# 2 -0.003772 0.010746 -0.003229 0.000000 0.000000 0.000000
# 3 -0.003229 -0.003229 0.013986 0.000000 0.000000 0.000000
# 4 0.000000 0.000000 0.000000 0.050969 0.000000 0.000000
# 5 0.000000 0.000000 0.000000 0.000000 0.050969 0.000000
# 6 0.000000 0.000000 0.000000 0.000000 0.000000 0.026775
#
#
# Mechanical properties :
#
#
# Convention : Reuss Voigt Hill
#
# Bulk Modulus (GPa) = 66.59203 69.35295 67.97249
# Shear Modulus (GPa) = 26.36364 28.73396 27.54880
#
# Velocity S-wave (km/s) = 3.63506 3.79495 3.71587
# Velocity P-wave (km/s) = 7.14105 7.34592 7.24421
#
# Compressibility (1/GPa) = 0.01501681
#
# Stress axis : x y z
#
# Youngs Moduli (GPa) = 93.06154 93.06154 71.50202
#
# Poissons Ratio (x) = 0.35099 0.23090
# Poissons Ratio (y) = 0.35099 0.23090
# Poissons Ratio (z) = 0.30052 0.30052
#
# Static dielectric constant tensor:
#      x y z
#    x 1.719840 0.000000 0.000000 
#    y 0.000000 1.719840 0.000000 
#    z 0.000000 0.000000 1.666500 
# 
# From -- ./inp_files/6340.got.cif
#   From: 2010.05.17/outbox.cif.g08.bks.cpg/sg112_4_cif.got.tgz:6340.got - 2010.05.20 10:59:04.
