data_PCOD9555879
_publ_section_title
;
Structure prediction by ZEFSAII (Michael W. Deem and Ramdas Pophale) SiO2 
 PCOD9555879
Probable space group: P -4 21 C
;
_chemical_formula_sum "Si O2"
_cell_formula_units_Z 48
_cell_length_a 16.915474
_cell_length_b 16.915474
_cell_length_c 7.971320
_cell_angle_alpha 90.000000
_cell_angle_beta 90.000000
_cell_angle_gamma 90.000000
_cell_volume 2280.859783
_symmetry_space_group_name_H-M "P -4 21 C"
_symmetry_group_IT_number 114
_symmetry_cell_setting 'tetragonal'
loop_
_space_group_symop_operation_xyz
x,y,z
y,-x,-z
-x,-y,z
-y,x,-z
1/2+x,1/2-y,1/2-z
1/2-x,1/2+y,1/2-z
1/2-y,1/2-x,1/2+z
1/2+y,1/2+x,1/2+z
loop_
_atom_site_type_symbol
_atom_site_label
_atom_site_fract_x
_atom_site_fract_y
_atom_site_fract_z
Si Si1 0.660612 0.783899 0.076874
Si Si2 0.451470 0.674318 0.878036
Si Si3 0.609840 0.727903 0.708942
Si Si4 0.539336 0.673253 0.215574
Si Si5 0.599115 0.271788 0.419202
Si Si6 0.838386 0.711907 0.723131
O O1 0.694099 0.872383 0.096436
O O2 0.581926 0.755890 0.169468
O O3 0.729097 0.731451 0.163891
O O4 0.647227 0.753358 0.889124
O O5 0.524858 0.695127 0.760112
O O6 0.393795 0.608259 0.794577
O O7 0.406631 0.757988 0.900814
O O8 0.481115 0.649298 0.061919
O O9 0.655037 0.656742 0.619380
O O10 0.487003 0.693355 0.377743
O O11 0.626359 0.200271 0.295189
O O12 0.625211 0.235924 0.598014
#
# Coordination Sequence:
#
# PCOD9555879 Si02
#       6
#     8   8   8   8   8   8
#     4   9  18  33  53  77 104 140 190 230 271 329
#     4  10  21  35  54  79 112 148 183 226 280 338
#     4  10  19  33  56  78 106 147 186 233 278 328
#     4  10  20  35  53  78 112 148 183 224 279 339
#     4  11  20  32  54  77 107 145 187 236 279 327
#     4  10  20  34  52  77 105 142 191 233 273 325
#
# _framework density 21.044696999999999
#
# number of rings (size 3 to 8) (size 9 to 14) (size 15 to 20)
#    0.000    2.000    0.000    8.000    0.000    6.333 
#    0.000    0.000    0.000   11.000    0.000    7.000 
#    0.000    0.000    0.000    0.000    0.000    0.000 
#
# Total GULP energy -267256.740699 kJ/mol
# GULP energy per Si atom -5567.848765 kJ/mol
# Density = 2.099680 g / cm^3
# Si number density = 21.044697 Si / 1000 Ang^3
#
#
#
# Elastic Constant Matrix: (Units=GPa)
#
#
# Indices 1 2 3 4 5 6 
#
# 1 45.1893 53.5849 21.9969 0.0000 0.0000 0.0000
# 2 53.5849 45.1893 21.9969 0.0000 0.0000 0.0000
# 3 21.9969 21.9969 96.3642 0.0000 0.0000 0.0000
# 4 0.0000 0.0000 0.0000 24.8777 0.0000 0.0000
# 5 0.0000 0.0000 0.0000 0.0000 24.8777 0.0000
# 6 0.0000 0.0000 0.0000 0.0000 0.0000 39.3233
#
#
#
# Elastic Compliance Matrix: (Units=1/GPa)
#
#
# Indices 1 2 3 4 5 6 
#
# 1 -0.053920 0.065190 -0.002573 0.000000 0.000000 0.000000
# 2 0.065190 -0.053920 -0.002573 0.000000 0.000000 0.000000
# 3 -0.002573 -0.002573 0.011552 0.000000 0.000000 0.000000
# 4 0.000000 0.000000 0.000000 0.040197 0.000000 0.000000
# 5 0.000000 0.000000 0.000000 0.000000 0.040197 0.000000
# 6 0.000000 0.000000 0.000000 0.000000 0.000000 0.025430
#
#
# Mechanical properties :
#
#
# Convention : Reuss Voigt Hill
#
# Bulk Modulus (GPa) = 42.01441 42.43332 42.22387
# Shear Modulus (GPa) = -48.72297 23.76001 -12.48148
#
# Velocity S-wave (km/s) = -4.81689 3.36374 -2.43799
# Velocity P-wave (km/s) = 3.30588 5.94084 3.49033
#
# Compressibility (1/GPa) = 0.02380136
#
# Stress axis : x y z
#
# Youngs Moduli (GPa) = -18.54595 -18.54595 86.56689
#
# Poissons Ratio (x) = 1.20901 0.22270
# Poissons Ratio (y) = 1.20901 0.22270
# Poissons Ratio (z) = -0.04771 -0.04771
#
# Static dielectric constant tensor:
#      x y z
#    x 1.851880 0.000000 0.000000 
#    y 0.000000 1.851880 0.000000 
#    z 0.000000 0.000000 1.877740 
# 
# From -- ./inp_files/893.got.cif
#   From: 2010.05.17/outbox.cif.g08.bks.cpg/sg114_1_cif.got.tgz:893.got - 2010.05.20 11:04:54.
