data_PCOD9555236
_publ_section_title
;
Structure prediction by ZEFSAII (Michael W. Deem and Ramdas Pophale) SiO2 
 PCOD9555236
Probable space group: P -4 2 C
;
_chemical_formula_sum "Si O2"
_cell_formula_units_Z 48
_cell_length_a 9.153690
_cell_length_b 9.153690
_cell_length_c 26.583628
_cell_angle_alpha 90.000000
_cell_angle_beta 90.000000
_cell_angle_gamma 90.000000
_cell_volume 2227.443270
_symmetry_space_group_name_H-M "P -4 2 C"
_symmetry_group_IT_number 112
_symmetry_cell_setting 'tetragonal'
loop_
_space_group_symop_operation_xyz
x,y,z
y,-x,-z
-x,-y,z
-y,x,-z
x,-y,1/2-z
-x,y,1/2-z
-y,-x,1/2+z
y,x,1/2+z
loop_
_atom_site_type_symbol
_atom_site_label
_atom_site_fract_x
_atom_site_fract_y
_atom_site_fract_z
Si Si1 0.204356 0.834300 0.566784
Si Si2 0.344618 0.073197 0.036288
Si Si3 0.420932 0.129814 0.803332
Si Si4 0.400104 0.376827 0.367828
Si Si5 0.608523 0.144312 0.353372
Si Si6 0.835198 0.955622 0.658806
O O1 0.042138 0.776900 0.555445
O O2 0.281077 0.700119 0.595508
O O3 0.282852 0.856848 0.513879
O O4 0.204754 0.977233 0.602983
O O5 0.500000 0.000000 0.023738
O O6 0.376618 0.166323 0.086156
O O7 0.500000 0.141344 0.750000
O O8 0.441868 0.280144 0.830869
O O9 0.500000 0.000000 0.833960
O O10 0.259894 0.060401 0.804330
O O11 0.500000 0.500000 0.392607
O O12 0.506986 0.274943 0.335406
O O13 0.777830 0.162740 0.335477
O O14 0.500000 0.000000 0.346523
O O15 0.000000 0.000000 0.667021
#
# Coordination Sequence:
#
# PCOD9555236 Si02
#       6
#     8   8   8   8   8   8
#     4  11  23  38  61  94 132 189 246 288 344 394
#     4  11  22  38  57  90 141 184 239 299 328 390
#     4  10  23  45  70 102 135 166 216 285 352 436
#     4  11  23  41  65  95 132 180 227 276 352 420
#     4  11  20  40  61  94 140 178 233 279 336 405
#     4  11  21  39  71 101 128 184 232 282 349 422
#
# _framework density 21.54937
#
# number of rings (size 3 to 8) (size 9 to 14) (size 15 to 20)
#    0.000    1.167    5.000    3.000    0.000    5.667 
#    0.000    2.500    0.000    0.000    0.000    5.833 
#    0.000    0.000    0.000    0.000    0.000    0.000 
#
# Total GULP energy -267373.733645 kJ/mol
# GULP energy per Si atom -5570.286118 kJ/mol
# Density = 2.150032 g / cm^3
# Si number density = 21.549370 Si / 1000 Ang^3
#
#
#
# Elastic Constant Matrix: (Units=GPa)
#
#
# Indices 1 2 3 4 5 6 
#
# 1 110.9765 23.2988 11.4680 0.0000 0.0000 0.0000
# 2 23.2988 110.9765 11.4680 0.0000 0.0000 0.0000
# 3 11.4680 11.4680 49.7954 0.0000 0.0000 0.0000
# 4 0.0000 0.0000 0.0000 1.4738 0.0000 0.0000
# 5 0.0000 0.0000 0.0000 0.0000 1.4738 0.0000
# 6 0.0000 0.0000 0.0000 0.0000 0.0000 17.5058
#
#
#
# Elastic Compliance Matrix: (Units=1/GPa)
#
#
# Indices 1 2 3 4 5 6 
#
# 1 0.009579 -0.001827 -0.001785 0.000000 0.000000 0.000000
# 2 -0.001827 0.009579 -0.001785 0.000000 0.000000 0.000000
# 3 -0.001785 -0.001785 0.020905 0.000000 0.000000 0.000000
# 4 0.000000 0.000000 0.000000 0.678526 0.000000 0.000000
# 5 0.000000 0.000000 0.000000 0.000000 0.678526 0.000000
# 6 0.000000 0.000000 0.000000 0.000000 0.000000 0.057124
#
#
# Mechanical properties :
#
#
# Convention : Reuss Voigt Hill
#
# Bulk Modulus (GPa) = 34.16734 40.46865 37.31799
# Shear Modulus (GPa) = 3.39031 19.12493 11.25762
#
# Velocity S-wave (km/s) = 1.25566 2.98231 2.28811
# Velocity P-wave (km/s) = 4.24170 5.53888 4.93312
#
# Compressibility (1/GPa) = 0.02926772
#
# Stress axis : x y z
#
# Youngs Moduli (GPa) = 104.39637 104.39637 47.83651
#
# Poissons Ratio (x) = 0.19068 0.08541
# Poissons Ratio (y) = 0.19068 0.08541
# Poissons Ratio (z) = 0.18639 0.18639
#
# Static dielectric constant tensor:
#      x y z
#    x 1.716840 0.000000 0.000000 
#    y 0.000000 1.716840 0.000000 
#    z 0.000000 0.000000 1.809860 
# 
# From -- ./inp_files/6259.got.cif
#   From: 2010.05.17/outbox.cif.g08.bks.cpg/sg112_4_cif.got.tgz:6259.got - 2010.05.20 10:59:04.
