data_PCOD9555768
_publ_section_title
;
Structure prediction by ZEFSAII (Michael W. Deem and Ramdas Pophale) SiO2 
 PCOD9555768
Probable space group: P -4 21 M 
;
_chemical_formula_sum "Si O2"
_cell_formula_units_Z 48
_cell_length_a 14.066576
_cell_length_b 14.066576
_cell_length_c 12.539442
_cell_angle_alpha 90.000000
_cell_angle_beta 90.000000
_cell_angle_gamma 90.000000
_cell_volume 2481.161336
_symmetry_space_group_name_H-M "P -4 21 M "
_symmetry_group_IT_number 113
_symmetry_cell_setting 'tetragonal'
loop_
_space_group_symop_operation_xyz
x,y,z
y,-x,-z
-x,-y,z
-y,x,-z
1/2+x,1/2-y,-z
1/2-x,1/2+y,-z
1/2-y,1/2-x,z
1/2+y,1/2+x,z
loop_
_atom_site_type_symbol
_atom_site_label
_atom_site_fract_x
_atom_site_fract_y
_atom_site_fract_z
Si Si1 0.765933 0.003945 0.887733
Si Si2 0.420004 0.079997 0.241788
Si Si3 0.725260 0.504528 0.725804
Si Si4 0.860298 0.073240 0.486605
Si Si5 0.420398 0.079603 0.997439
Si Si6 0.300196 0.356693 0.292827
Si Si7 0.858413 0.803090 0.920371
O O1 0.831462 0.910782 0.891083
O O2 0.761612 0.053488 0.773029
O O3 0.666766 0.965661 0.933995
O O4 0.800231 0.086861 0.967613
O O5 0.461568 0.171895 0.298523
O O6 0.392845 0.107156 0.118996
O O7 0.500000 0.000000 0.237820
O O8 0.687781 0.567523 0.628393
O O9 0.659756 0.410798 0.739378
O O10 0.732742 0.567689 0.831291
O O11 0.802695 0.123422 0.580849
O O12 0.963760 0.121375 0.479394
O O13 0.500000 0.000000 0.007450
O O14 0.234721 0.265280 0.268847
O O15 0.766706 0.733295 0.923510
#
# Coordination Sequence:
#
# PCOD9555768 Si02
#       7
#     8   4   8   8   4   8   8
#     4  12  25  40  63  92 128 167 209 256 318 376
#     4  11  22  38  61  93 123 165 215 257 307 369
#     4  11  22  40  66  93 124 164 211 263 314 366
#     4   9  20  40  64  90 123 162 206 259 317 371
#     4  11  22  42  61  87 129 173 209 247 309 381
#     4  11  23  40  63  94 128 166 208 254 316 383
#     4  12  25  41  62  93 126 164 213 264 311 374
#
# _framework density 19.345780999999999
#
# number of rings (size 3 to 8) (size 9 to 14) (size 15 to 20)
#    0.000    1.000    3.333    4.000    0.000    5.000 
#    0.000    0.833    0.000    1.000    0.000    0.000 
#    0.000    0.000    0.000    0.000    0.000    0.000 
#
# Total GULP energy -268255.462557 kJ/mol
# GULP energy per Si atom -5588.655470 kJ/mol
# Density = 1.930175 g / cm^3
# Si number density = 19.345781 Si / 1000 Ang^3
#
#
#
# Elastic Constant Matrix: (Units=GPa)
#
#
# Indices 1 2 3 4 5 6 
#
# 1 56.2208 0.0949 3.0823 0.0000 0.0000 0.0000
# 2 0.0949 56.2216 3.0819 0.0000 0.0000 0.0000
# 3 3.0823 3.0819 40.5718 0.0000 0.0000 0.0000
# 4 0.0000 0.0000 0.0000 24.0602 0.0000 0.0000
# 5 0.0000 0.0000 0.0000 0.0000 24.0614 0.0000
# 6 0.0000 0.0000 0.0000 0.0000 0.0000 33.5654
#
#
#
# Elastic Compliance Matrix: (Units=1/GPa)
#
#
# Indices 1 2 3 4 5 6 
#
# 1 0.017862 0.000044 -0.001360 0.000000 0.000000 0.000000
# 2 0.000044 0.017861 -0.001360 0.000000 0.000000 0.000000
# 3 -0.001360 -0.001360 0.024854 0.000000 0.000000 0.000000
# 4 0.000000 0.000000 0.000000 0.041562 0.000000 0.000000
# 5 0.000000 0.000000 0.000000 0.000000 0.041560 0.000000
# 6 0.000000 0.000000 0.000000 0.000000 0.000000 0.029793
#
#
# Mechanical properties :
#
#
# Convention : Reuss Voigt Hill
#
# Bulk Modulus (GPa) = 18.10775 18.39248 18.25012
# Shear Modulus (GPa) = 25.34817 26.12107 25.73462
#
# Velocity S-wave (km/s) = 3.62369 3.67852 3.65121
# Velocity P-wave (km/s) = 5.18542 5.25070 5.21816
#
# Compressibility (1/GPa) = 0.05522497
#
# Stress axis : x y z
#
# Youngs Moduli (GPa) = 55.98623 55.98714 40.23444
#
# Poissons Ratio (x) = -0.00249 0.05473
# Poissons Ratio (y) = -0.00249 0.05472
# Poissons Ratio (z) = 0.07616 0.07615
#
# Static dielectric constant tensor:
#      x y z
#    x 1.676630 0.000000 0.000000 
#    y 0.000000 1.676630 0.000000 
#    z 0.000000 0.000000 1.654180 
# 
# From -- ./inp_files/1868.got.cif
#   From: 2010.05.17/outbox.cif.g08.bks.cpg/sg113_cif.got.tgz:1868.got - 2010.05.20 11:03:00.
