data_PCOD9555762
_publ_section_title
;
Structure prediction by ZEFSAII (Michael W. Deem and Ramdas Pophale) SiO2 
 PCOD9555762
Probable space group: P -4 21 M 
;
_chemical_formula_sum "Si O2"
_cell_formula_units_Z 48
_cell_length_a 14.560670
_cell_length_b 14.560670
_cell_length_c 12.716334
_cell_angle_alpha 90.000000
_cell_angle_beta 90.000000
_cell_angle_gamma 90.000000
_cell_volume 2696.029530
_symmetry_space_group_name_H-M "P -4 21 M "
_symmetry_group_IT_number 113
_symmetry_cell_setting 'tetragonal'
loop_
_space_group_symop_operation_xyz
x,y,z
y,-x,-z
-x,-y,z
-y,x,-z
1/2+x,1/2-y,-z
1/2-x,1/2+y,-z
1/2-y,1/2-x,z
1/2+y,1/2+x,z
loop_
_atom_site_type_symbol
_atom_site_label
_atom_site_fract_x
_atom_site_fract_y
_atom_site_fract_z
Si Si1 0.330668 0.671863 0.582275
Si Si2 0.923385 0.576616 0.524398
Si Si3 0.923347 0.576654 0.279756
Si Si4 0.276595 0.463683 0.224980
Si Si5 0.726558 0.539577 0.608986
Si Si6 0.628202 0.581135 0.009155
Si Si7 0.669634 0.324492 0.205959
O O1 0.243380 0.743380 0.581355
O O2 0.399331 0.694212 0.678261
O O3 0.303763 0.565310 0.594839
O O4 0.389735 0.683163 0.475821
O O5 0.901179 0.598822 0.402336
O O6 0.833658 0.542140 0.582584
O O7 0.000000 0.500000 0.524003
O O8 0.832850 0.540143 0.224205
O O9 0.000000 0.500000 0.280146
O O10 0.307129 0.569744 0.235367
O O11 0.317936 0.422578 0.118140
O O12 0.706034 0.584235 0.721803
O O13 0.673525 0.639613 0.916118
O O14 0.617546 0.475180 0.972724
O O15 0.754978 0.254978 0.223422
#
# Coordination Sequence:
#
# PCOD9555762 Si02
#       7
#     8   4   4   8   8   8   8
#     4  12  24  40  61  91 120 162 204 254 308 357
#     4  11  22  42  61  87 125 171 205 241 303 369
#     4  11  22  38  61  89 121 163 213 251 303 353
#     4  11  21  40  62  89 121 159 205 258 302 361
#     4  12  23  40  61  90 126 158 204 252 303 369
#     4   9  20  38  60  87 118 157 200 250 312 367
#     4  11  23  38  61  90 124 161 202 249 309 367
#
# _framework density 17.803961000000001
#
# number of rings (size 3 to 8) (size 9 to 14) (size 15 to 20)
#    0.000    1.000    4.167    3.000    1.167    3.667 
#    0.000    0.000    0.000    4.000    0.000    0.000 
#    0.000    0.000    0.000    0.000    0.000    0.000 
#
# Total GULP energy -268044.910793 kJ/mol
# GULP energy per Si atom -5584.268975 kJ/mol
# Density = 1.776344 g / cm^3
# Si number density = 17.803961 Si / 1000 Ang^3
#
#
#
# Elastic Constant Matrix: (Units=GPa)
#
#
# Indices 1 2 3 4 5 6 
#
# 1 92.6175 38.8916 19.6232 0.0000 0.0000 0.0000
# 2 38.8916 92.6207 19.6219 0.0000 0.0000 0.0000
# 3 19.6232 19.6219 52.9513 0.0000 0.0000 0.0000
# 4 0.0000 0.0000 0.0000 17.4239 0.0000 0.0000
# 5 0.0000 0.0000 0.0000 0.0000 17.4183 0.0000
# 6 0.0000 0.0000 0.0000 0.0000 0.0000 32.1471
#
#
#
# Elastic Compliance Matrix: (Units=1/GPa)
#
#
# Indices 1 2 3 4 5 6 
#
# 1 0.013581 -0.005032 -0.003169 0.000000 0.000000 0.000000
# 2 -0.005032 0.013581 -0.003168 0.000000 0.000000 0.000000
# 3 -0.003169 -0.003168 0.021233 0.000000 0.000000 0.000000
# 4 0.000000 0.000000 0.000000 0.057392 0.000000 0.000000
# 5 0.000000 0.000000 0.000000 0.000000 0.057411 0.000000
# 6 0.000000 0.000000 0.000000 0.000000 0.000000 0.031107
#
#
# Mechanical properties :
#
#
# Convention : Reuss Voigt Hill
#
# Bulk Modulus (GPa) = 38.97213 43.82920 41.40066
# Shear Modulus (GPa) = 22.16366 24.06806 23.11586
#
# Velocity S-wave (km/s) = 3.53210 3.68072 3.60718
# Velocity P-wave (km/s) = 6.21059 6.53718 6.37598
#
# Compressibility (1/GPa) = 0.02565936
#
# Stress axis : x y z
#
# Youngs Moduli (GPa) = 73.63088 73.63450 47.09556
#
# Poissons Ratio (x) = 0.37049 0.14923
# Poissons Ratio (y) = 0.37048 0.14919
# Poissons Ratio (z) = 0.23330 0.23326
#
# Static dielectric constant tensor:
#      x y z
#    x 1.591400 0.000000 0.000000 
#    y 0.000000 1.591400 0.000000 
#    z 0.000000 0.000000 1.597960 
# 
# From -- ./inp_files/1875.got.cif
#   From: 2010.05.17/outbox.cif.g08.bks.cpg/sg113_cif.got.tgz:1875.got - 2010.05.20 11:03:00.
