data_PCOD9555719
_publ_section_title
;
Structure prediction by ZEFSAII (Michael W. Deem and Ramdas Pophale) SiO2 
 PCOD9555719
Probable space group: P -4 21 M 
;
_chemical_formula_sum "Si O2"
_cell_formula_units_Z 32
_cell_length_a 12.056833
_cell_length_b 12.056833
_cell_length_c 11.121948
_cell_angle_alpha 90.000000
_cell_angle_beta 90.000000
_cell_angle_gamma 90.000000
_cell_volume 1616.766684
_symmetry_space_group_name_H-M "P -4 21 M "
_symmetry_group_IT_number 113
_symmetry_cell_setting 'tetragonal'
loop_
_space_group_symop_operation_xyz
x,y,z
y,-x,-z
-x,-y,z
-y,x,-z
1/2+x,1/2-y,-z
1/2-x,1/2+y,-z
1/2-y,1/2-x,z
1/2+y,1/2+x,z
loop_
_atom_site_type_symbol
_atom_site_label
_atom_site_fract_x
_atom_site_fract_y
_atom_site_fract_z
Si Si1 0.242419 0.555029 0.519176
Si Si2 0.594318 0.094318 0.048303
Si Si3 0.904733 0.595268 0.671707
Si Si4 0.105392 0.204004 0.321025
Si Si5 0.542463 0.335744 0.949502
O O1 0.145585 0.645585 0.514074
O O2 0.199114 0.453192 0.600411
O O3 0.341617 0.612737 0.590439
O O4 0.262405 0.507559 0.387253
O O5 0.616068 0.116068 0.189207
O O6 0.500000 0.000000 0.036922
O O7 0.554704 0.208950 0.989765
O O8 0.000000 0.500000 0.667916
O O9 0.192819 0.307182 0.313480
O O10 0.081542 0.158301 0.188597
O O11 0.418252 0.380177 0.972344
#
# Coordination Sequence:
#
# PCOD9555719 Si02
#       5
#     8   4   4   8   8
#     4  10  22  39  66  94 132 175 216 278 346 396
#     4  11  24  41  73 100 132 190 235 279 356 423
#     4   9  18  37  61  91 124 164 219 272 326 409
#     4  11  23  43  66 100 137 173 228 289 337 421
#     4  11  26  46  67  99 141 184 234 299 349 411
#
# _framework density 19.792591000000002
#
# number of rings (size 3 to 8) (size 9 to 14) (size 15 to 20)
#    0.000    1.500    2.500    1.500    1.750    9.500 
#    0.000    0.000    0.000    0.000    0.000    0.000 
#    0.000    0.000    0.000    0.000    0.000    0.000 
#
# Total GULP energy -178784.944706 kJ/mol
# GULP energy per Si atom -5587.029522 kJ/mol
# Density = 1.974754 g / cm^3
# Si number density = 19.792591 Si / 1000 Ang^3
#
#
#
# Elastic Constant Matrix: (Units=GPa)
#
#
# Indices 1 2 3 4 5 6 
#
# 1 73.2331 38.7182 21.1152 0.0000 0.0000 0.0000
# 2 38.7182 73.2328 21.1143 0.0000 0.0000 0.0000
# 3 21.1152 21.1143 90.0250 0.0000 0.0000 0.0000
# 4 0.0000 0.0000 0.0000 32.5192 0.0000 0.0000
# 5 0.0000 0.0000 0.0000 0.0000 32.5191 0.0000
# 6 0.0000 0.0000 0.0000 0.0000 0.0000 12.8610
#
#
#
# Elastic Compliance Matrix: (Units=1/GPa)
#
#
# Indices 1 2 3 4 5 6 
#
# 1 0.019386 -0.009587 -0.002299 0.000000 0.000000 0.000000
# 2 -0.009587 0.019386 -0.002298 0.000000 0.000000 0.000000
# 3 -0.002299 -0.002298 0.012186 0.000000 0.000000 0.000000
# 4 0.000000 0.000000 0.000000 0.030751 0.000000 0.000000
# 5 0.000000 0.000000 0.000000 0.000000 0.030751 0.000000
# 6 0.000000 0.000000 0.000000 0.000000 0.000000 0.077754
#
#
# Mechanical properties :
#
#
# Convention : Reuss Voigt Hill
#
# Bulk Modulus (GPa) = 44.26443 44.26513 44.26478
# Shear Modulus (GPa) = 22.11283 25.94940 24.03111
#
# Velocity S-wave (km/s) = 3.34612 3.62479 3.48824
# Velocity P-wave (km/s) = 6.11076 6.31917 6.21584
#
# Compressibility (1/GPa) = 0.02259150
#
# Stress axis : x y z
#
# Youngs Moduli (GPa) = 51.58284 51.58291 82.06022
#
# Poissons Ratio (x) = 0.49452 0.18862
# Poissons Ratio (y) = 0.49452 0.18860
# Poissons Ratio (z) = 0.11856 0.11855
#
# Static dielectric constant tensor:
#      x y z
#    x 1.704080 0.000000 0.000000 
#    y 0.000000 1.704080 0.000000 
#    z 0.000000 0.000000 1.678030 
# 
# From -- ./inp_files/1570.got.cif
#   From: 2010.05.17/outbox.cif.g08.bks.cpg/sg113_cif.got.tgz:1570.got - 2010.05.20 11:03:00.
