data_PCOD9555470
_publ_section_title
;
Structure prediction by ZEFSAII (Michael W. Deem and Ramdas Pophale) SiO2 
 PCOD9555470
Probable space group: P -4 21 M 
;
_chemical_formula_sum "Si O2"
_cell_formula_units_Z 64
_cell_length_a 18.252460
_cell_length_b 18.252460
_cell_length_c 11.905367
_cell_angle_alpha 90.000000
_cell_angle_beta 90.000000
_cell_angle_gamma 90.000000
_cell_volume 3966.300351
_symmetry_space_group_name_H-M "P -4 21 M "
_symmetry_group_IT_number 113
_symmetry_cell_setting 'tetragonal'
loop_
_space_group_symop_operation_xyz
x,y,z
y,-x,-z
-x,-y,z
-y,x,-z
1/2+x,1/2-y,-z
1/2-x,1/2+y,-z
1/2-y,1/2-x,z
1/2+y,1/2+x,z
loop_
_atom_site_type_symbol
_atom_site_label
_atom_site_fract_x
_atom_site_fract_y
_atom_site_fract_z
Si Si1 0.386708 0.686325 0.027066
Si Si2 0.979115 0.076885 0.259888
Si Si3 0.117957 0.106028 0.401161
Si Si4 0.465531 0.309776 0.924418
Si Si5 0.080625 0.299891 0.787503
Si Si6 0.819557 0.200194 0.806486
Si Si7 0.946369 0.827954 0.614686
Si Si8 0.566417 0.812693 0.075476
O O1 0.345211 0.613234 0.059462
O O2 0.379344 0.749066 0.119007
O O3 0.472627 0.667873 0.014441
O O4 0.354376 0.707056 0.905333
O O5 0.990471 0.151290 0.189972
O O6 0.896004 0.069844 0.301218
O O7 0.036789 0.080740 0.361773
O O8 0.000000 0.000000 0.198151
O O9 0.156553 0.146895 0.297596
O O10 0.106055 0.157214 0.508713
O O11 0.162624 0.031116 0.422292
O O12 0.456003 0.224171 0.955721
O O13 0.131799 0.368202 0.759254
O O14 0.065277 0.247060 0.681804
O O15 0.005094 0.323568 0.848080
O O16 0.753553 0.253553 0.772875
O O17 0.882571 0.252160 0.861374
O O18 0.615337 0.884664 0.061718
#
# Coordination Sequence:
#
# PCOD9555470 Si02
#       8
#     8   8   8   8   8   8   8   8
#     4  10  20  30  47  76 108 134 170 206 260 315
#     4  10  20  29  47  74 109 145 177 207 250 308
#     4  11  20  34  53  74 104 142 179 211 247 308
#     4  10  19  29  47  74 105 142 169 206 254 314
#     4  11  22  36  54  77 108 134 169 226 277 315
#     4  10  19  33  52  72 100 135 170 210 256 309
#     4  11  21  35  50  77 106 141 178 215 256 307
#     4   9  20  37  54  74 101 135 178 220 263 312
#
# _framework density 16.135943000000001
#
# number of rings (size 3 to 8) (size 9 to 14) (size 15 to 20)
#    0.000    1.750    5.000    0.375    1.750    1.250 
#    0.000    0.000    0.000    0.000    0.000    0.000 
#    0.000    0.000    0.000    0.000    0.000    0.000 
#
# Total GULP energy -356451.851414 kJ/mol
# GULP energy per Si atom -5569.560178 kJ/mol
# Density = 1.609922 g / cm^3
# Si number density = 16.135943 Si / 1000 Ang^3
#
#
#
# Elastic Constant Matrix: (Units=GPa)
#
#
# Indices 1 2 3 4 5 6 
#
# 1 69.1969 41.6794 24.7747 0.0000 0.0000 0.0000
# 2 41.6794 69.1968 24.7738 0.0000 0.0000 0.0000
# 3 24.7747 24.7738 61.3741 0.0000 0.0000 0.0000
# 4 0.0000 0.0000 0.0000 14.3352 0.0000 0.0000
# 5 0.0000 0.0000 0.0000 0.0000 14.3356 0.0000
# 6 0.0000 0.0000 0.0000 0.0000 0.0000 32.9492
#
#
#
# Elastic Compliance Matrix: (Units=1/GPa)
#
#
# Indices 1 2 3 4 5 6 
#
# 1 0.023672 -0.012668 -0.004442 0.000000 0.000000 0.000000
# 2 -0.012668 0.023672 -0.004442 0.000000 0.000000 0.000000
# 3 -0.004442 -0.004442 0.019880 0.000000 0.000000 0.000000
# 4 0.000000 0.000000 0.000000 0.069758 0.000000 0.000000
# 5 0.000000 0.000000 0.000000 0.000000 0.069756 0.000000
# 6 0.000000 0.000000 0.000000 0.000000 0.000000 0.030350
#
#
# Mechanical properties :
#
#
# Convention : Reuss Voigt Hill
#
# Bulk Modulus (GPa) = 41.45925 42.46932 41.96428
# Shear Modulus (GPa) = 17.34709 19.55999 18.45354
#
# Velocity S-wave (km/s) = 3.28237 3.48544 3.38543
# Velocity P-wave (km/s) = 6.33362 6.52492 6.42998
#
# Compressibility (1/GPa) = 0.02412007
#
# Stress axis : x y z
#
# Youngs Moduli (GPa) = 42.24318 42.24363 50.30288
#
# Poissons Ratio (x) = 0.53515 0.22346
# Poissons Ratio (y) = 0.53515 0.22342
# Poissons Ratio (z) = 0.18765 0.18763
#
# Static dielectric constant tensor:
#      x y z
#    x 1.548770 0.000000 0.000000 
#    y 0.000000 1.548770 0.000000 
#    z 0.000000 0.000000 1.542380 
# 
# From -- ./inp_files/2043.got.cif
#   From: 2010.05.17/outbox.cif.g08.bks.cpg/sg113_cif.got.tgz:2043.got - 2010.05.20 11:03:00.
