data_PCOD9555699
_publ_section_title
;
Structure prediction by ZEFSAII (Michael W. Deem and Ramdas Pophale) SiO2 
 PCOD9555699
Probable space group: P -4 21 M 
;
_chemical_formula_sum "Si O2"
_cell_formula_units_Z 48
_cell_length_a 19.383615
_cell_length_b 19.383615
_cell_length_c 5.362223
_cell_angle_alpha 90.000000
_cell_angle_beta 90.000000
_cell_angle_gamma 90.000000
_cell_volume 2014.718719
_symmetry_space_group_name_H-M "P -4 21 M "
_symmetry_group_IT_number 113
_symmetry_cell_setting 'tetragonal'
loop_
_space_group_symop_operation_xyz
x,y,z
y,-x,-z
-x,-y,z
-y,x,-z
1/2+x,1/2-y,-z
1/2-x,1/2+y,-z
1/2-y,1/2-x,z
1/2+y,1/2+x,z
loop_
_atom_site_type_symbol
_atom_site_label
_atom_site_fract_x
_atom_site_fract_y
_atom_site_fract_z
Si Si1 0.296712 0.095764 0.022664
Si Si2 0.342849 0.583603 0.213992
Si Si3 0.967500 0.359723 0.477012
Si Si4 0.195992 0.407803 0.756506
Si Si5 0.314215 0.703337 0.566446
Si Si6 0.936841 0.819597 0.061122
O O1 0.328738 0.171263 0.973116
O O2 0.215245 0.097105 0.995114
O O3 0.328402 0.052069 0.790764
O O4 0.323385 0.072080 0.291665
O O5 0.314532 0.627203 0.446644
O O6 0.343021 0.500827 0.232509
O O7 0.413879 0.618302 0.121972
O O8 0.937911 0.437911 0.477122
O O9 0.045661 0.342525 0.550919
O O10 0.136628 0.363373 0.893612
O O11 0.248143 0.353564 0.633169
O O12 0.249063 0.453888 0.914408
O O13 0.241618 0.741618 0.613967
O O14 0.368660 0.701800 0.789616
#
# Coordination Sequence:
#
# PCOD9555699 Si02
#       6
#     8   8   8   8   8   8
#     4  10  21  38  64  95 130 173 224 276 332 399
#     4  11  24  41  64  94 130 172 225 286 353 421
#     4  10  21  38  63  96 134 178 224 273 338 411
#     4  10  21  39  63  93 133 175 223 278 345 418
#     4  10  23  41  67  97 129 175 233 290 355 426
#     4  11  24  43  65  91 131 172 227 289 358 420
#
# _framework density 23.824665
#
# number of rings (size 3 to 8) (size 9 to 14) (size 15 to 20)
#    0.000    1.667    1.667    2.000    2.333    5.333 
#    0.000    0.000    0.000    3.000    0.000    0.000 
#    0.000    0.000    0.000    0.000    0.000    0.000 
#
# Total GULP energy -268007.493077 kJ/mol
# GULP energy per Si atom -5583.489439 kJ/mol
# Density = 2.377044 g / cm^3
# Si number density = 23.824665 Si / 1000 Ang^3
#
#
#
# Elastic Constant Matrix: (Units=GPa)
#
#
# Indices 1 2 3 4 5 6 
#
# 1 294.1082 -147.1703 28.3826 0.0000 0.0000 0.0000
# 2 -147.1703 294.0878 28.3749 0.0000 0.0000 0.0000
# 3 28.3826 28.3749 88.6580 0.0000 0.0000 0.0000
# 4 0.0000 0.0000 0.0000 32.2406 0.0000 0.0000
# 5 0.0000 0.0000 0.0000 0.0000 32.2405 0.0000
# 6 0.0000 0.0000 0.0000 0.0000 0.0000 33.6923
#
#
#
# Elastic Compliance Matrix: (Units=1/GPa)
#
#
# Indices 1 2 3 4 5 6 
#
# 1 0.005016 0.002750 -0.002486 0.000000 0.000000 0.000000
# 2 0.002750 0.005016 -0.002486 0.000000 0.000000 0.000000
# 3 -0.002486 -0.002486 0.012871 0.000000 0.000000 0.000000
# 4 0.000000 0.000000 0.000000 0.031017 0.000000 0.000000
# 5 0.000000 0.000000 0.000000 0.000000 0.031017 0.000000
# 6 0.000000 0.000000 0.000000 0.000000 0.000000 0.029680
#
#
# Mechanical properties :
#
#
# Convention : Reuss Voigt Hill
#
# Bulk Modulus (GPa) = 54.17208 55.11428 54.64318
# Shear Modulus (GPa) = 39.93155 70.78580 55.35868
#
# Velocity S-wave (km/s) = 4.09841 5.45671 4.82559
# Velocity P-wave (km/s) = 6.72184 7.92997 7.35077
#
# Compressibility (1/GPa) = 0.01845969
#
# Stress axis : x y z
#
# Youngs Moduli (GPa) = 199.35598 199.34519 77.69545
#
# Poissons Ratio (x) = -0.54822 0.19315
# Poissons Ratio (y) = -0.54825 0.19314
# Poissons Ratio (z) = 0.49560 0.49555
#
# Static dielectric constant tensor:
#      x y z
#    x 1.972700 0.000000 0.000000 
#    y 0.000000 1.972710 0.000000 
#    z 0.000000 0.000000 1.923830 
# 
# From -- ./inp_files/463.got.cif
#   From: 2010.05.17/outbox.cif.g08.bks.cpg/sg113_cif.got.tgz:463.got - 2010.05.20 11:03:00.
