data_PCOD9555704
_publ_section_title
;
Structure prediction by ZEFSAII (Michael W. Deem and Ramdas Pophale) SiO2 
 PCOD9555704
Probable space group: P -4 21 M 
;
_chemical_formula_sum "Si O2"
_cell_formula_units_Z 32
_cell_length_a 14.324857
_cell_length_b 14.324857
_cell_length_c 7.786729
_cell_angle_alpha 90.000000
_cell_angle_beta 90.000000
_cell_angle_gamma 90.000000
_cell_volume 1597.848689
_symmetry_space_group_name_H-M "P -4 21 M "
_symmetry_group_IT_number 113
_symmetry_cell_setting 'tetragonal'
loop_
_space_group_symop_operation_xyz
x,y,z
y,-x,-z
-x,-y,z
-y,x,-z
1/2+x,1/2-y,-z
1/2-x,1/2+y,-z
1/2-y,1/2-x,z
1/2+y,1/2+x,z
loop_
_atom_site_type_symbol
_atom_site_label
_atom_site_fract_x
_atom_site_fract_y
_atom_site_fract_z
Si Si1 0.919650 0.580351 0.181613
Si Si2 0.771724 0.993601 0.320354
Si Si3 0.349100 0.306123 0.624395
Si Si4 0.921532 0.578469 0.577133
Si Si5 0.218767 0.562514 0.034244
O O1 0.896751 0.603250 0.379469
O O2 0.000000 0.500000 0.184820
O O3 0.832391 0.533642 0.087741
O O4 0.833686 0.083633 0.361953
O O5 0.666740 0.034036 0.330510
O O6 0.782653 0.914188 0.462889
O O7 0.783618 0.953549 0.129628
O O8 0.252279 0.247722 0.609121
O O9 0.398517 0.269828 0.797587
O O10 0.000000 0.500000 0.569205
O O11 0.138142 0.638142 0.989022
#
# Coordination Sequence:
#
# PCOD9555704 Si02
#       5
#     4   8   8   4   8
#     4   9  17  33  63  98 129 155 202 280 337 377
#     4  12  24  42  67  96 132 180 222 264 334 397
#     4  11  25  44  64  98 136 171 222 279 324 391
#     4  11  19  37  69 100 129 164 218 286 339 380
#     4  10  21  39  63  95 131 166 216 278 335 388
#
# _framework density 20.026928999999999
#
# number of rings (size 3 to 8) (size 9 to 14) (size 15 to 20)
#    0.000    1.250    3.750    3.000    0.000    3.500 
#    0.000    0.000    0.000    0.000    0.000    0.000 
#    0.000    0.000    0.000    0.000    0.000    0.000 
#
# Total GULP energy -178913.025394 kJ/mol
# GULP energy per Si atom -5591.032044 kJ/mol
# Density = 1.998135 g / cm^3
# Si number density = 20.026929 Si / 1000 Ang^3
#
#
#
# Elastic Constant Matrix: (Units=GPa)
#
#
# Indices 1 2 3 4 5 6 
#
# 1 44.8199 -0.7045 12.8743 0.0000 0.0000 0.0000
# 2 -0.7045 44.8197 12.8740 0.0000 0.0000 0.0000
# 3 12.8743 12.8740 114.3536 0.0000 0.0000 0.0000
# 4 0.0000 0.0000 0.0000 -14.9205 0.0000 0.0000
# 5 0.0000 0.0000 0.0000 0.0000 -14.9202 0.0000
# 6 0.0000 0.0000 0.0000 0.0000 0.0000 29.3604
#
#
#
# Elastic Compliance Matrix: (Units=1/GPa)
#
#
# Indices 1 2 3 4 5 6 
#
# 1 0.023114 0.001148 -0.002731 0.000000 0.000000 0.000000
# 2 0.001148 0.023114 -0.002731 0.000000 0.000000 0.000000
# 3 -0.002731 -0.002731 0.009360 0.000000 0.000000 0.000000
# 4 0.000000 0.000000 0.000000 -0.067022 0.000000 0.000000
# 5 0.000000 0.000000 0.000000 0.000000 -0.067023 0.000000
# 6 0.000000 0.000000 0.000000 0.000000 0.000000 0.034060
#
#
# Mechanical properties :
#
#
# Convention : Reuss Voigt Hill
#
# Bulk Modulus (GPa) = 21.29554 28.23120 24.76337
# Shear Modulus (GPa) = -248.57601 11.83389 -118.37106
#
# Velocity S-wave (km/s) = -11.15304 2.43348 -7.69638
# Velocity P-wave (km/s) = 12.45782 4.69286 8.16009
#
# Compressibility (1/GPa) = 0.04695818
#
# Stress axis : x y z
#
# Youngs Moduli (GPa) = 43.26354 43.26333 106.83948
#
# Poissons Ratio (x) = -0.04966 0.29183
# Poissons Ratio (y) = -0.04966 0.29183
# Poissons Ratio (z) = 0.11817 0.11817
#
# Static dielectric constant tensor:
#      x y z
#    x 1.703100 0.000000 0.000000 
#    y 0.000000 1.703100 0.000000 
#    z 0.000000 0.000000 1.697620 
# 
# From -- ./inp_files/863.got.cif
#   From: 2010.05.17/outbox.cif.g08.bks.cpg/sg113_cif.got.tgz:863.got - 2010.05.20 11:03:00.
