data_PCOD9555852
_publ_section_title
;
Structure prediction by ZEFSAII (Michael W. Deem and Ramdas Pophale) SiO2 
 PCOD9555852
Probable space group: P -4 21 C
;
_chemical_formula_sum "Si O2"
_cell_formula_units_Z 44
_cell_length_a 8.533108
_cell_length_b 8.533108
_cell_length_c 29.088036
_cell_angle_alpha 90.000000
_cell_angle_beta 90.000000
_cell_angle_gamma 90.000000
_cell_volume 2118.014279
_symmetry_space_group_name_H-M "P -4 21 C"
_symmetry_group_IT_number 114
_symmetry_cell_setting 'tetragonal'
loop_
_space_group_symop_operation_xyz
x,y,z
y,-x,-z
-x,-y,z
-y,x,-z
1/2+x,1/2-y,1/2-z
1/2-x,1/2+y,1/2-z
1/2-y,1/2-x,1/2+z
1/2+y,1/2+x,1/2+z
loop_
_atom_site_type_symbol
_atom_site_label
_atom_site_fract_x
_atom_site_fract_y
_atom_site_fract_z
Si Si1 0.492013 0.697463 0.400282
Si Si2 0.161471 0.290591 0.847131
Si Si3 0.756727 0.474330 0.501977
Si Si4 0.500000 0.000000 0.076521
Si Si5 0.307769 0.001818 0.734593
Si Si6 0.178814 0.815445 0.814612
O O1 0.500000 0.500000 0.407787
O O2 0.647584 0.740720 0.372597
O O3 0.486304 0.800978 0.445891
O O4 0.349307 0.734066 0.366261
O O5 0.114934 0.412903 0.887694
O O6 0.240647 0.378299 0.804953
O O7 0.003073 0.220346 0.824250
O O8 0.631963 0.336779 0.510606
O O9 0.872088 0.435330 0.460219
O O10 0.258915 0.167079 0.713133
O O11 0.500000 0.000000 0.739635
O O12 0.223237 0.959229 0.781760
#
# Coordination Sequence:
#
# PCOD9555852 Si02
#       6
#     8   8   8   4   8   8
#     4  10  18  33  56  83 113 145 191 248 299 347
#     4  10  19  35  56  84 113 151 201 240 296 349
#     4  11  20  34  59  90 115 145 199 255 302 353
#     4  12  20  36  60  90 116 152 200 258 302 360
#     4  10  20  34  53  84 112 153 194 234 294 360
#     4  10  19  33  54  80 117 149 187 247 291 353
#
# _framework density 20.774177000000002
#
# number of rings (size 3 to 8) (size 9 to 14) (size 15 to 20)
#    0.000    1.636    6.364    2.182    0.000    1.455 
#    1.636    0.000    0.000    0.545    9.455    0.000 
#    0.000    0.000    0.000    0.000    0.000    0.000 
#
# Total GULP energy -244965.048025 kJ/mol
# GULP energy per Si atom -5567.387455 kJ/mol
# Density = 2.072689 g / cm^3
# Si number density = 20.774177 Si / 1000 Ang^3
#
#
#
# Elastic Constant Matrix: (Units=GPa)
#
#
# Indices 1 2 3 4 5 6 
#
# 1 34.5598 13.4368 25.4781 0.0000 0.0000 0.0000
# 2 13.4368 34.5598 25.4781 0.0000 0.0000 0.0000
# 3 25.4781 25.4781 168.6558 0.0000 0.0000 0.0000
# 4 0.0000 0.0000 0.0000 28.0359 0.0000 0.0000
# 5 0.0000 0.0000 0.0000 0.0000 28.0359 0.0000
# 6 0.0000 0.0000 0.0000 0.0000 0.0000 13.0863
#
#
#
# Elastic Compliance Matrix: (Units=1/GPa)
#
#
# Indices 1 2 3 4 5 6 
#
# 1 0.036078 -0.011264 -0.003749 0.000000 0.000000 0.000000
# 2 -0.011264 0.036078 -0.003749 0.000000 0.000000 0.000000
# 3 -0.003749 -0.003749 0.007062 0.000000 0.000000 0.000000
# 4 0.000000 0.000000 0.000000 0.035669 0.000000 0.000000
# 5 0.000000 0.000000 0.000000 0.000000 0.035669 0.000000
# 6 0.000000 0.000000 0.000000 0.000000 0.000000 0.076416
#
#
# Mechanical properties :
#
#
# Convention : Reuss Voigt Hill
#
# Bulk Modulus (GPa) = 23.98286 40.72905 32.35596
# Shear Modulus (GPa) = 17.96031 25.39046 21.67539
#
# Velocity S-wave (km/s) = 2.94351 3.49981 3.23365
# Velocity P-wave (km/s) = 4.80853 5.99831 5.43607
#
# Compressibility (1/GPa) = 0.04169644
#
# Stress axis : x y z
#
# Youngs Moduli (GPa) = 27.71759 27.71759 141.60674
#
# Poissons Ratio (x) = 0.31220 0.53083
# Poissons Ratio (y) = 0.31220 0.53083
# Poissons Ratio (z) = 0.10390 0.10390
#
# Static dielectric constant tensor:
#      x y z
#    x 1.836050 0.000000 0.000000 
#    y 0.000000 1.836050 0.000000 
#    z 0.000000 0.000000 1.803850 
# 
# From -- ./inp_files/3827.got.cif
#   From: 2010.05.17/outbox.cif.g08.bks.cpg/sg114_2_cif.got.tgz:3827.got - 2010.05.20 11:04:54.
