data_PCOD9555652
_publ_section_title
;
Structure prediction by ZEFSAII (Michael W. Deem and Ramdas Pophale) SiO2 
 PCOD9555652
Probable space group: P -4 21 M 
;
_chemical_formula_sum "Si O2"
_cell_formula_units_Z 48
_cell_length_a 10.963087
_cell_length_b 10.963087
_cell_length_c 18.847576
_cell_angle_alpha 90.000000
_cell_angle_beta 90.000000
_cell_angle_gamma 90.000000
_cell_volume 2265.276525
_symmetry_space_group_name_H-M "P -4 21 M "
_symmetry_group_IT_number 113
_symmetry_cell_setting 'tetragonal'
loop_
_space_group_symop_operation_xyz
x,y,z
y,-x,-z
-x,-y,z
-y,x,-z
1/2+x,1/2-y,-z
1/2-x,1/2+y,-z
1/2-y,1/2-x,z
1/2+y,1/2+x,z
loop_
_atom_site_type_symbol
_atom_site_label
_atom_site_fract_x
_atom_site_fract_y
_atom_site_fract_z
Si Si1 0.041899 0.723756 0.732092
Si Si2 0.040330 0.259943 0.574377
Si Si3 0.612313 0.401355 0.184370
Si Si4 0.930647 0.754335 0.287788
Si Si5 0.634939 0.654359 0.978138
Si Si6 0.732459 0.430269 0.424329
O O1 0.104581 0.604581 0.762839
O O2 0.144049 0.829021 0.727537
O O3 0.006800 0.700727 0.650620
O O4 0.937618 0.778896 0.779981
O O5 0.147113 0.352888 0.552850
O O6 0.100403 0.128315 0.585167
O O7 0.953596 0.253012 0.507108
O O8 0.500000 0.500000 0.178243
O O9 0.708008 0.456110 0.240168
O O10 0.662440 0.378231 0.106648
O O11 0.875330 0.624671 0.268446
O O12 0.957415 0.757469 0.371570
O O13 0.740855 0.759146 0.999710
O O14 0.669401 0.508722 0.994220
O O15 0.833134 0.333134 0.399646
#
# Coordination Sequence:
#
# PCOD9555652 Si02
#       6
#     8   8   8   8   8   8
#     4  10  21  37  61  92 123 163 217 270 329 399
#     4  11  23  37  54  78 114 161 214 271 332 395
#     4  10  20  41  67  98 131 176 220 272 337 405
#     4  10  21  37  61  92 123 163 217 270 329 399
#     4  11  25  48  77 111 150 192 237 289 351 426
#     4  11  23  37  54  78 114 161 214 271 332 395
#
# _framework density 21.189467
#
# number of rings (size 3 to 8) (size 9 to 14) (size 15 to 20)
#    0.000    1.500    3.333    2.000    0.000    9.667 
#    0.000    0.000    0.000    0.000    0.000    0.000 
#    0.000    0.000    0.000    0.000    0.000    0.000 
#
# Total GULP energy -267739.641920 kJ/mol
# GULP energy per Si atom -5577.909207 kJ/mol
# Density = 2.114124 g / cm^3
# Si number density = 21.189467 Si / 1000 Ang^3
#
#
#
# Elastic Constant Matrix: (Units=GPa)
#
#
# Indices 1 2 3 4 5 6 
#
# 1 -26.0636 162.2349 15.7956 0.0000 0.0000 0.0000
# 2 162.2349 -26.0451 15.8011 0.0000 0.0000 0.0000
# 3 15.7956 15.8011 86.7570 0.0000 0.0000 0.0000
# 4 0.0000 0.0000 0.0000 50.7134 0.0000 0.0000
# 5 0.0000 0.0000 0.0000 0.0000 50.7171 0.0000
# 6 0.0000 0.0000 0.0000 0.0000 0.0000 40.3421
#
#
#
# Elastic Compliance Matrix: (Units=1/GPa)
#
#
# Indices 1 2 3 4 5 6 
#
# 1 0.001178 0.006489 -0.001396 0.000000 0.000000 0.000000
# 2 0.006489 0.001178 -0.001396 0.000000 0.000000 0.000000
# 3 -0.001396 -0.001396 0.012035 0.000000 0.000000 0.000000
# 4 0.000000 0.000000 0.000000 0.019719 0.000000 0.000000
# 5 0.000000 0.000000 0.000000 0.000000 0.019717 0.000000
# 6 0.000000 0.000000 0.000000 0.000000 0.000000 0.024788
#
#
# Mechanical properties :
#
#
# Convention : Reuss Voigt Hill
#
# Bulk Modulus (GPa) = 45.90420 46.92349 46.41385
# Shear Modulus (GPa) = 63.70803 17.74231 40.72517
#
# Velocity S-wave (km/s) = 5.48919 2.89678 4.38877
# Velocity P-wave (km/s) = 7.86674 5.77765 6.90170
#
# Compressibility (1/GPa) = 0.02178450
#
# Stress axis : x y z
#
# Youngs Moduli (GPa) = 849.08261 848.59634 83.09146
#
# Poissons Ratio (x) = -5.50659 0.11602
# Poissons Ratio (y) = -5.50975 0.11600
# Poissons Ratio (z) = 1.18556 1.18470
#
# Static dielectric constant tensor:
#      x y z
#    x 1.818510 0.000000 0.000000 
#    y 0.000000 1.818500 0.000000 
#    z 0.000000 0.000000 1.704870 
# 
# From -- ./inp_files/2473.got.cif
#   From: 2010.05.17/outbox.cif.g08.bks.cpg/sg113_cif.got.tgz:2473.got - 2010.05.20 11:03:00.
