data_PCOD9555676
_publ_section_title
;
Structure prediction by ZEFSAII (Michael W. Deem and Ramdas Pophale) SiO2 
 PCOD9555676
Probable space group: P -4 21 M 
;
_chemical_formula_sum "Si O2"
_cell_formula_units_Z 48
_cell_length_a 15.221622
_cell_length_b 15.221622
_cell_length_c 11.027387
_cell_angle_alpha 90.000000
_cell_angle_beta 90.000000
_cell_angle_gamma 90.000000
_cell_volume 2555.021046
_symmetry_space_group_name_H-M "P -4 21 M "
_symmetry_group_IT_number 113
_symmetry_cell_setting 'tetragonal'
loop_
_space_group_symop_operation_xyz
x,y,z
y,-x,-z
-x,-y,z
-y,x,-z
1/2+x,1/2-y,-z
1/2-x,1/2+y,-z
1/2-y,1/2-x,z
1/2+y,1/2+x,z
loop_
_atom_site_type_symbol
_atom_site_label
_atom_site_fract_x
_atom_site_fract_y
_atom_site_fract_z
Si Si1 0.811969 0.907783 0.960134
Si Si2 0.366218 0.728619 0.233513
Si Si3 0.106183 0.905200 0.458996
Si Si4 0.297398 0.661524 0.667569
Si Si5 0.544600 0.820425 0.168599
Si Si6 0.092703 0.952778 0.830554
O O1 0.826546 0.819289 0.885341
O O2 0.827933 0.981998 0.860211
O O3 0.728374 0.920069 0.046360
O O4 0.893775 0.922384 0.050640
O O5 0.290097 0.790097 0.287931
O O6 0.403519 0.654455 0.327402
O O7 0.444641 0.792049 0.187981
O O8 0.153678 0.826011 0.529647
O O9 0.001865 0.884790 0.477982
O O10 0.256584 0.756584 0.697091
O O11 0.225417 0.593568 0.717462
O O12 0.384396 0.629192 0.734689
O O13 0.580026 0.919975 0.164292
O O14 0.000000 0.000000 0.798940
#
# Coordination Sequence:
#
# PCOD9555676 Si02
#       6
#     8   8   8   8   8   8
#     4  11  18  34  55  89 116 149 188 242 294 343
#     4  12  24  39  59  86 119 156 198 242 293 355
#     4  11  23  38  61  87 116 146 195 249 304 355
#     4  10  21  36  55  82 118 153 186 234 301 355
#     4  10  21  38  57  80 116 155 193 234 284 353
#     4  11  18  30  58  85 119 151 192 234 293 356
#
# _framework density 18.786539000000001
#
# number of rings (size 3 to 8) (size 9 to 14) (size 15 to 20)
#    0.000    1.167    5.000    3.000    2.333    1.000 
#    3.000    0.000    0.000    0.000    0.000    0.000 
#    0.000    4.000    0.000    0.000    0.000    0.000 
#
# Total GULP energy -267294.853553 kJ/mol
# GULP energy per Si atom -5568.642782 kJ/mol
# Density = 1.874378 g / cm^3
# Si number density = 18.786539 Si / 1000 Ang^3
#
#
#
# Elastic Constant Matrix: (Units=GPa)
#
#
# Indices 1 2 3 4 5 6 
#
# 1 46.1448 77.0341 33.5525 0.0000 0.0000 0.0000
# 2 77.0341 46.1422 33.5515 0.0000 0.0000 0.0000
# 3 33.5525 33.5515 58.7612 0.0000 0.0000 0.0000
# 4 0.0000 0.0000 0.0000 8.9460 0.0000 0.0000
# 5 0.0000 0.0000 0.0000 0.0000 8.9468 0.0000
# 6 0.0000 0.0000 0.0000 0.0000 0.0000 40.3019
#
#
#
# Elastic Compliance Matrix: (Units=1/GPa)
#
#
# Indices 1 2 3 4 5 6 
#
# 1 -0.010294 0.022078 -0.006728 0.000000 0.000000 0.000000
# 2 0.022078 -0.010295 -0.006729 0.000000 0.000000 0.000000
# 3 -0.006728 -0.006729 0.024702 0.000000 0.000000 0.000000
# 4 0.000000 0.000000 0.000000 0.111782 0.000000 0.000000
# 5 0.000000 0.000000 0.000000 0.000000 0.111772 0.000000
# 6 0.000000 0.000000 0.000000 0.000000 0.000000 0.024813
#
#
# Mechanical properties :
#
#
# Convention : Reuss Voigt Hill
#
# Bulk Modulus (GPa) = 46.82597 48.81383 47.81990
# Shear Modulus (GPa) = 20.63082 12.09961 16.36521
#
# Velocity S-wave (km/s) = 3.31746 2.54058 2.95467
# Velocity P-wave (km/s) = 6.29710 5.88608 6.09505
#
# Compressibility (1/GPa) = 0.02135567
#
# Stress axis : x y z
#
# Youngs Moduli (GPa) = -97.14442 -97.13908 40.48290
#
# Poissons Ratio (x) = 2.14464 0.27238
# Poissons Ratio (y) = 2.14476 0.27239
# Poissons Ratio (z) = -0.65362 -0.65361
#
# Static dielectric constant tensor:
#      x y z
#    x 1.671250 0.000000 0.000000 
#    y 0.000000 1.671250 0.000000 
#    z 0.000000 0.000000 1.762440 
# 
# From -- ./inp_files/1848.got.cif
#   From: 2010.05.17/outbox.cif.g08.bks.cpg/sg113_cif.got.tgz:1848.got - 2010.05.20 11:03:00.
