data_PCOD9555721
_publ_section_title
;
Structure prediction by ZEFSAII (Michael W. Deem and Ramdas Pophale) SiO2 
 PCOD9555721
Probable space group: P -4 21 M 
;
_chemical_formula_sum "Si O2"
_cell_formula_units_Z 40
_cell_length_a 15.066724
_cell_length_b 15.066724
_cell_length_c 9.898432
_cell_angle_alpha 90.000000
_cell_angle_beta 90.000000
_cell_angle_gamma 90.000000
_cell_volume 2247.005158
_symmetry_space_group_name_H-M "P -4 21 M "
_symmetry_group_IT_number 113
_symmetry_cell_setting 'tetragonal'
loop_
_space_group_symop_operation_xyz
x,y,z
y,-x,-z
-x,-y,z
-y,x,-z
1/2+x,1/2-y,-z
1/2-x,1/2+y,-z
1/2-y,1/2-x,z
1/2+y,1/2+x,z
loop_
_atom_site_type_symbol
_atom_site_label
_atom_site_fract_x
_atom_site_fract_y
_atom_site_fract_z
Si Si1 0.775370 0.871050 0.250112
Si Si2 0.390307 0.593656 0.486682
Si Si3 0.917730 0.929761 0.799596
Si Si4 0.433554 0.694286 0.942128
Si Si5 0.997246 0.644357 0.897379
O O1 0.707185 0.792816 0.271133
O O2 0.824466 0.885351 0.392468
O O3 0.844847 0.837098 0.135977
O O4 0.716193 0.954627 0.200098
O O5 0.488359 0.615700 0.537824
O O6 0.391995 0.627084 0.332412
O O7 0.833946 0.986787 0.844876
O O8 0.941748 0.866855 0.924335
O O9 0.000000 0.000000 0.778993
O O10 0.449401 0.795143 0.988814
O O11 0.921244 0.578757 0.838712
O O12 0.077265 0.577265 0.943016
#
# Coordination Sequence:
#
# PCOD9555721 Si02
#       5
#     8   8   8   8   8
#     4  11  23  40  61  88 122 161 206 252 297 359
#     4  11  20  34  56  84 117 155 190 236 302 360
#     4  12  19  31  59  95 122 150 188 248 311 361
#     4  12  19  36  61  93 121 148 201 256 298 352
#     4  10  22  40  61  86 121 163 202 246 309 372
#
# _framework density 17.801472
#
# number of rings (size 3 to 8) (size 9 to 14) (size 15 to 20)
#    0.000    0.800    8.000    1.800    0.000    0.000 
#    0.000    6.000    0.000    0.000    0.000    0.000 
#    0.000    0.000    0.000    0.000    0.000    0.000 
#
# Total GULP energy -222722.855968 kJ/mol
# GULP energy per Si atom -5568.071399 kJ/mol
# Density = 1.776095 g / cm^3
# Si number density = 17.801472 Si / 1000 Ang^3
#
#
#
# Elastic Constant Matrix: (Units=GPa)
#
#
# Indices 1 2 3 4 5 6 
#
# 1 110.8765 18.8187 43.8804 0.0000 0.0000 0.0000
# 2 18.8187 110.8758 43.8801 0.0000 0.0000 0.0000
# 3 43.8804 43.8801 128.2987 0.0000 0.0000 0.0000
# 4 0.0000 0.0000 0.0000 18.9086 0.0000 0.0000
# 5 0.0000 0.0000 0.0000 0.0000 18.9067 0.0000
# 6 0.0000 0.0000 0.0000 0.0000 0.0000 33.6356
#
#
#
# Elastic Compliance Matrix: (Units=1/GPa)
#
#
# Indices 1 2 3 4 5 6 
#
# 1 0.010447 -0.000415 -0.003431 0.000000 0.000000 0.000000
# 2 -0.000415 0.010447 -0.003431 0.000000 0.000000 0.000000
# 3 -0.003431 -0.003431 0.010141 0.000000 0.000000 0.000000
# 4 0.000000 0.000000 0.000000 0.052886 0.000000 0.000000
# 5 0.000000 0.000000 0.000000 0.000000 0.052891 0.000000
# 6 0.000000 0.000000 0.000000 0.000000 0.000000 0.029730
#
#
# Mechanical properties :
#
#
# Convention : Reuss Voigt Hill
#
# Bulk Modulus (GPa) = 60.67589 62.57885 61.62737
# Shear Modulus (GPa) = 26.79628 30.52162 28.65895
#
# Velocity S-wave (km/s) = 3.88401 4.14521 4.01673
# Velocity P-wave (km/s) = 7.36701 7.62499 7.49711
#
# Compressibility (1/GPa) = 0.01648101
#
# Stress axis : x y z
#
# Youngs Moduli (GPa) = 95.71713 95.71668 98.60630
#
# Poissons Ratio (x) = 0.03975 0.33833
# Poissons Ratio (y) = 0.03975 0.33833
# Poissons Ratio (z) = 0.32842 0.32842
#
# Static dielectric constant tensor:
#      x y z
#    x 1.640740 0.000000 0.000000 
#    y 0.000000 1.640740 0.000000 
#    z 0.000000 0.000000 1.594120 
# 
# From -- ./inp_files/1003.got.cif
#   From: 2010.05.17/outbox.cif.g08.bks.cpg/sg113_cif.got.tgz:1003.got - 2010.05.20 11:03:00.
