data_PCOD9555533
_publ_section_title
;
Structure prediction by ZEFSAII (Michael W. Deem and Ramdas Pophale) SiO2 
 PCOD9555533
Probable space group: P -4 21 M 
;
_chemical_formula_sum "Si O2"
_cell_formula_units_Z 56
_cell_length_a 12.300942
_cell_length_b 12.300942
_cell_length_c 21.009619
_cell_angle_alpha 90.000000
_cell_angle_beta 90.000000
_cell_angle_gamma 90.000000
_cell_volume 3179.032137
_symmetry_space_group_name_H-M "P -4 21 M "
_symmetry_group_IT_number 113
_symmetry_cell_setting 'tetragonal'
loop_
_space_group_symop_operation_xyz
x,y,z
y,-x,-z
-x,-y,z
-y,x,-z
1/2+x,1/2-y,-z
1/2-x,1/2+y,-z
1/2-y,1/2-x,z
1/2+y,1/2+x,z
loop_
_atom_site_type_symbol
_atom_site_label
_atom_site_fract_x
_atom_site_fract_y
_atom_site_fract_z
Si Si1 0.136388 0.186647 0.418527
Si Si2 0.202449 0.117967 0.559343
Si Si3 0.774810 0.099777 0.081832
Si Si4 0.773714 0.448160 0.031799
Si Si5 0.159759 0.846884 0.217139
Si Si6 0.491649 0.820999 0.831326
Si Si7 0.370152 0.482667 0.656946
O O1 0.204255 0.295746 0.412457
O O2 0.167995 0.130926 0.485884
O O3 0.008193 0.212279 0.421602
O O4 0.169797 0.101582 0.363542
O O5 0.310137 0.189864 0.570153
O O6 0.104025 0.161889 0.602700
O O7 0.658241 0.158241 0.085593
O O8 0.857886 0.187296 0.052726
O O9 0.816871 0.084225 0.153303
O O10 0.765784 0.003447 0.032292
O O11 0.888056 0.388056 0.021228
O O12 0.786174 0.522943 0.094701
O O13 0.255060 0.755060 0.222148
O O14 0.158892 0.926443 0.276833
O O15 0.046742 0.778929 0.207073
O O16 0.383180 0.883180 0.808086
O O17 0.587321 0.912680 0.832324
O O18 0.500000 0.500000 0.655257
#
# Coordination Sequence:
#
# PCOD9555533 Si02
#       7
#     8   8   8   8   8   8   8
#     4  10  20  35  57  85 116 146 183 228 269 322
#     4  10  19  34  59  86 111 143 183 226 275 323
#     4   9  18  32  49  72 102 134 171 218 265 320
#     4   9  17  30  48  72 100 132 172 220 272 318
#     4   9  18  34  51  73 106 141 180 219 262 326
#     4   8  14  27  50  76 100 128 168 221 277 325
#     4  10  20  35  57  78 107 147 183 219 269 331
#
# _framework density 17.615424000000001
#
# number of rings (size 3 to 8) (size 9 to 14) (size 15 to 20)
#    0.000    2.714    1.429    2.571    0.000    1.429 
#    5.143    3.571    0.000    6.000    0.000    0.000 
#    0.000    0.000    0.000    0.000    0.000    0.000 
#
# Total GULP energy -311827.184856 kJ/mol
# GULP energy per Si atom -5568.342587 kJ/mol
# Density = 1.757533 g / cm^3
# Si number density = 17.615424 Si / 1000 Ang^3
#
#
#
# Elastic Constant Matrix: (Units=GPa)
#
#
# Indices 1 2 3 4 5 6 
#
# 1 41.1769 45.1584 22.9174 0.0000 0.0000 0.0000
# 2 45.1584 41.1735 22.9142 0.0000 0.0000 0.0000
# 3 22.9174 22.9142 76.1543 0.0000 0.0000 0.0000
# 4 0.0000 0.0000 0.0000 20.6216 0.0000 0.0000
# 5 0.0000 0.0000 0.0000 0.0000 20.6218 0.0000
# 6 0.0000 0.0000 0.0000 0.0000 0.0000 15.3642
#
#
#
# Elastic Compliance Matrix: (Units=1/GPa)
#
#
# Indices 1 2 3 4 5 6 
#
# 1 -0.118631 0.132419 -0.004144 0.000000 0.000000 0.000000
# 2 0.132419 -0.118636 -0.004153 0.000000 0.000000 0.000000
# 3 -0.004144 -0.004153 0.015628 0.000000 0.000000 0.000000
# 4 0.000000 0.000000 0.000000 0.048493 0.000000 0.000000
# 5 0.000000 0.000000 0.000000 0.000000 0.048492 0.000000
# 6 0.000000 0.000000 0.000000 0.000000 0.000000 0.065087
#
#
# Mechanical properties :
#
#
# Convention : Reuss Voigt Hill
#
# Bulk Modulus (GPa) = 37.58639 37.83165 37.70902
# Shear Modulus (GPa) = -16.72548 15.82250 -0.45149
#
# Velocity S-wave (km/s) = -3.08470 3.00028 -0.50681
# Velocity P-wave (km/s) = 2.94895 5.79010 4.59465
#
# Compressibility (1/GPa) = 0.02660538
#
# Stress axis : x y z
#
# Youngs Moduli (GPa) = -8.42948 -8.42912 63.98905
#
# Poissons Ratio (x) = 1.11618 0.26515
# Poissons Ratio (y) = 1.11622 0.26572
# Poissons Ratio (z) = -0.03493 -0.03500
#
# Static dielectric constant tensor:
#      x y z
#    x 1.604520 0.000000 0.000000 
#    y 0.000000 1.604520 0.000000 
#    z 0.000000 0.000000 1.616510 
# 
# From -- ./inp_files/2692.got.cif
#   From: 2010.05.17/outbox.cif.g08.bks.cpg/sg113_cif.got.tgz:2692.got - 2010.05.20 11:03:00.
