data_PCOD9555101
_publ_section_title
;
Structure prediction by ZEFSAII (Michael W. Deem and Ramdas Pophale) SiO2 
 PCOD9555101
Probable space group: P -4 2 C
;
_chemical_formula_sum "Si O2"
_cell_formula_units_Z 56
_cell_length_a 10.950915
_cell_length_b 10.950915
_cell_length_c 24.869982
_cell_angle_alpha 90.000000
_cell_angle_beta 90.000000
_cell_angle_gamma 90.000000
_cell_volume 2982.471395
_symmetry_space_group_name_H-M "P -4 2 C"
_symmetry_group_IT_number 112
_symmetry_cell_setting 'tetragonal'
loop_
_space_group_symop_operation_xyz
x,y,z
y,-x,-z
-x,-y,z
-y,x,-z
x,-y,1/2-z
-x,y,1/2-z
-y,-x,1/2+z
y,x,1/2+z
loop_
_atom_site_type_symbol
_atom_site_label
_atom_site_fract_x
_atom_site_fract_y
_atom_site_fract_z
Si Si1 0.367071 0.048193 0.310911
Si Si2 0.177173 0.145559 0.455219
Si Si3 0.500162 0.765934 0.935386
Si Si4 0.912937 0.792588 0.605761
Si Si5 0.403225 0.262932 0.056680
Si Si6 0.285317 0.935691 0.932817
Si Si7 0.647058 0.724124 0.378038
O O1 0.357340 0.194868 0.323145
O O2 0.500000 0.000000 0.331343
O O3 0.360863 0.000000 0.250000
O O4 0.257541 0.981894 0.342445
O O5 0.228486 0.131810 0.514735
O O6 0.290528 0.182089 0.419074
O O7 0.074372 0.247038 0.444283
O O8 0.142738 0.011801 0.433235
O O9 0.387927 0.672007 0.939835
O O10 0.423760 0.891307 0.926174
O O11 0.597498 0.721257 0.889892
O O12 0.559588 0.761734 0.994891
O O13 0.852289 0.673760 0.578000
O O14 0.800242 0.884454 0.614880
O O15 0.513664 0.288407 0.097288
#
# Coordination Sequence:
#
# PCOD9555101 Si02
#       7
#     8   8   8   8   8   8   8
#     4  10  21  39  63  87 109 146 202 271 331 372
#     4  11  21  33  50  79 117 164 206 251 293 361
#     4  11  22  33  50  80 123 171 202 233 293 384
#     4  10  21  34  55  80 113 154 196 254 317 357
#     4  11  19  33  52  81 120 166 200 236 293 386
#     4  11  21  34  50  77 120 166 206 246 298 367
#     4  11  21  36  53  83 116 158 200 252 305 371
#
# _framework density 18.776374000000001
#
# number of rings (size 3 to 8) (size 9 to 14) (size 15 to 20)
#    0.000    1.286    5.714    1.714    0.000    0.571 
#    0.000    0.000    0.000   10.286    0.000    0.000 
#    0.000    9.143    0.000    0.000    0.000    0.000 
#
# Total GULP energy -311865.248514 kJ/mol
# GULP energy per Si atom -5569.022295 kJ/mol
# Density = 1.873364 g / cm^3
# Si number density = 18.776374 Si / 1000 Ang^3
#
#
#
# Elastic Constant Matrix: (Units=GPa)
#
#
# Indices 1 2 3 4 5 6 
#
# 1 87.2554 48.5613 27.0659 0.0000 0.0000 0.0000
# 2 48.5613 87.2554 27.0659 0.0000 0.0000 0.0000
# 3 27.0659 27.0659 60.2013 0.0000 0.0000 0.0000
# 4 0.0000 0.0000 0.0000 17.4305 0.0000 0.0000
# 5 0.0000 0.0000 0.0000 0.0000 17.4305 0.0000
# 6 0.0000 0.0000 0.0000 0.0000 0.0000 40.2015
#
#
#
# Elastic Compliance Matrix: (Units=1/GPa)
#
#
# Indices 1 2 3 4 5 6 
#
# 1 0.017407 -0.008437 -0.004033 0.000000 0.000000 0.000000
# 2 -0.008437 0.017407 -0.004033 0.000000 0.000000 0.000000
# 3 -0.004033 -0.004033 0.020237 0.000000 0.000000 0.000000
# 4 0.000000 0.000000 0.000000 0.057371 0.000000 0.000000
# 5 0.000000 0.000000 0.000000 0.000000 0.057371 0.000000
# 6 0.000000 0.000000 0.000000 0.000000 0.000000 0.024875
#
#
# Mechanical properties :
#
#
# Convention : Reuss Voigt Hill
#
# Bulk Modulus (GPa) = 45.35961 48.89980 47.12970
# Shear Modulus (GPa) = 21.27466 23.81376 22.54421
#
# Velocity S-wave (km/s) = 3.36974 3.56516 3.46883
# Velocity P-wave (km/s) = 6.27299 6.56102 6.41862
#
# Compressibility (1/GPa) = 0.02204605
#
# Stress axis : x y z
#
# Youngs Moduli (GPa) = 57.44815 57.44815 49.41381
#
# Poissons Ratio (x) = 0.48468 0.19928
# Poissons Ratio (y) = 0.48468 0.19928
# Poissons Ratio (z) = 0.23168 0.23168
#
# Static dielectric constant tensor:
#      x y z
#    x 1.738780 0.000000 0.000000 
#    y 0.000000 1.738780 0.000000 
#    z 0.000000 0.000000 1.644940 
# 
# From -- ./inp_files/5549.got.cif
#   From: 2010.05.17/outbox.cif.g08.bks.cpg/sg112_3_cif.got.tgz:5549.got - 2010.05.20 10:59:04.
