data_PCOD9555942
_publ_section_title
;
Structure prediction by ZEFSAII (Michael W. Deem and Ramdas Pophale) SiO2 
 PCOD9555942
Probable space group: P -4 21 C
;
_chemical_formula_sum "Si O2"
_cell_formula_units_Z 40
_cell_length_a 13.121420
_cell_length_b 13.121420
_cell_length_c 9.160969
_cell_angle_alpha 90.000000
_cell_angle_beta 90.000000
_cell_angle_gamma 90.000000
_cell_volume 1577.259266
_symmetry_space_group_name_H-M "P -4 21 C"
_symmetry_group_IT_number 114
_symmetry_cell_setting 'tetragonal'
loop_
_space_group_symop_operation_xyz
x,y,z
y,-x,-z
-x,-y,z
-y,x,-z
1/2+x,1/2-y,1/2-z
1/2-x,1/2+y,1/2-z
1/2-y,1/2-x,1/2+z
1/2+y,1/2+x,1/2+z
loop_
_atom_site_type_symbol
_atom_site_label
_atom_site_fract_x
_atom_site_fract_y
_atom_site_fract_z
Si Si1 0.250000 0.250000 0.589959
Si Si2 0.153174 0.841006 0.665733
Si Si3 0.500000 0.500000 0.250000
Si Si4 0.668641 0.000000 0.750000
Si Si5 0.846826 0.841006 0.834267
Si Si6 0.000000 0.500000 0.500000
O O1 0.229220 0.159986 0.475284
O O2 0.347424 0.266369 0.694508
O O3 0.152576 0.233631 0.694508
O O4 0.270780 0.340014 0.475284
O O5 0.254302 0.908988 0.700798
O O6 0.066643 0.923501 0.655695
O O7 0.576499 0.566643 0.344305
O O8 0.745698 0.908988 0.799202
O O9 0.595060 0.018878 0.889419
O O10 0.595060 0.981121 0.610581
#
# Coordination Sequence:
#
# PCOD9555942 Si02
#       6
#     8   8   4   8   8   4
#     4  10  22  40  60  84 124 164 206 254 340 406
#     4  10  22  40  61  91 126 170 212 272 331 392
#     4  10  24  40  68 100 132 166 228 284 336 404
#     4  10  20  36  58  86 124 158 212 260 310 382
#     4  10  22  40  61  91 126 170 212 272 331 392
#     4  10  20  34  60  94 124 174 216 254 312 402
#
# _framework density 25.360447000000001
#
# number of rings (size 3 to 8) (size 9 to 14) (size 15 to 20)
#    0.000    2.000    0.000    2.400    0.000    8.000 
#    0.000   16.000    0.000    0.000    0.000    0.000 
#    0.000    0.000    0.000    0.000    0.000    0.000 
#
# Total GULP energy -223045.743887 kJ/mol
# GULP energy per Si atom -5576.143597 kJ/mol
# Density = 2.530273 g / cm^3
# Si number density = 25.360447 Si / 1000 Ang^3
#
#
#
# Elastic Constant Matrix: (Units=GPa)
#
#
# Indices 1 2 3 4 5 6 
#
# 1 127.3608 65.8842 40.7281 0.0000 0.0000 0.0000
# 2 65.8842 127.3608 40.7281 0.0000 0.0000 0.0000
# 3 40.7281 40.7281 192.2139 0.0000 0.0000 0.0000
# 4 0.0000 0.0000 0.0000 15.8112 0.0000 0.0000
# 5 0.0000 0.0000 0.0000 0.0000 15.8112 0.0000
# 6 0.0000 0.0000 0.0000 0.0000 0.0000 75.9958
#
#
#
# Elastic Compliance Matrix: (Units=1/GPa)
#
#
# Indices 1 2 3 4 5 6 
#
# 1 0.010974 -0.005292 -0.001204 0.000000 0.000000 0.000000
# 2 -0.005292 0.010974 -0.001204 0.000000 0.000000 0.000000
# 3 -0.001204 -0.001204 0.005713 0.000000 0.000000 0.000000
# 4 0.000000 0.000000 0.000000 0.063246 0.000000 0.000000
# 5 0.000000 0.000000 0.000000 0.000000 0.063246 0.000000
# 6 0.000000 0.000000 0.000000 0.000000 0.000000 0.013159
#
#
# Mechanical properties :
#
#
# Convention : Reuss Voigt Hill
#
# Bulk Modulus (GPa) = 81.55750 82.40181 81.97966
# Shear Modulus (GPa) = 26.76660 41.49664 34.13162
#
# Velocity S-wave (km/s) = 3.25229 4.04948 3.67258
# Velocity P-wave (km/s) = 6.80678 7.37748 7.09787
#
# Compressibility (1/GPa) = 0.01226129
#
# Stress axis : x y z
#
# Youngs Moduli (GPa) = 91.12186 91.12186 175.04623
#
# Poissons Ratio (x) = 0.48222 0.21076
# Poissons Ratio (y) = 0.48222 0.21076
# Poissons Ratio (z) = 0.10971 0.10971
#
# Static dielectric constant tensor:
#      x y z
#    x 2.100900 0.000000 0.000000 
#    y 0.000000 2.100900 0.000000 
#    z 0.000000 0.000000 2.023200 
# 
# From -- ./inp_files/802.got.cif
#   From: 2010.05.17/outbox.cif.g08.bks.cpg/sg114_1_cif.got.tgz:802.got - 2010.05.20 11:04:54.
