data_PCOD9555486
_publ_section_title
;
Structure prediction by ZEFSAII (Michael W. Deem and Ramdas Pophale) SiO2 
 PCOD9555486
Probable space group: P -4 21 M 
;
_chemical_formula_sum "Si O2"
_cell_formula_units_Z 56
_cell_length_a 14.332267
_cell_length_b 14.332267
_cell_length_c 15.551433
_cell_angle_alpha 90.000000
_cell_angle_beta 90.000000
_cell_angle_gamma 90.000000
_cell_volume 3194.480151
_symmetry_space_group_name_H-M "P -4 21 M "
_symmetry_group_IT_number 113
_symmetry_cell_setting 'tetragonal'
loop_
_space_group_symop_operation_xyz
x,y,z
y,-x,-z
-x,-y,z
-y,x,-z
1/2+x,1/2-y,-z
1/2-x,1/2+y,-z
1/2-y,1/2-x,z
1/2+y,1/2+x,z
loop_
_atom_site_type_symbol
_atom_site_label
_atom_site_fract_x
_atom_site_fract_y
_atom_site_fract_z
Si Si1 0.079638 0.880728 0.026810
Si Si2 0.255438 0.394119 0.850739
Si Si3 0.653830 0.005898 0.813237
Si Si4 0.656505 0.500925 0.503349
Si Si5 0.686610 0.966372 0.008629
Si Si6 0.240652 0.586490 0.345590
Si Si7 0.397992 0.746053 0.340086
O O1 0.139602 0.889207 0.113222
O O2 0.097341 0.779568 0.986889
O O3 0.967839 0.890725 0.032821
O O4 0.207978 0.292023 0.846003
O O5 0.246222 0.437267 0.756304
O O6 0.199729 0.454647 0.920551
O O7 0.602395 0.102395 0.791994
O O8 0.574518 0.925483 0.812444
O O9 0.687511 0.006603 0.911635
O O10 0.725768 0.973824 0.740533
O O11 0.587938 0.412336 0.517870
O O12 0.725374 0.475549 0.425385
O O13 0.714809 0.529942 0.587383
O O14 0.594391 0.905610 0.020254
O O15 0.145862 0.645862 0.362808
O O16 0.321204 0.663464 0.332828
O O17 0.339853 0.839853 0.361672
#
# Coordination Sequence:
#
# PCOD9555486 Si02
#       7
#     8   8   8   8   8   8   8
#     4   9  18  32  48  69  94 125 169 215 256 292
#     4  10  19  32  51  73 100 135 172 208 247 298
#     4   9  17  29  47  73 100 126 164 210 253 300
#     4   9  18  34  53  75 100 128 163 206 256 309
#     4  10  19  32  50  71 101 138 170 205 250 303
#     4   9  17  31  52  74  98 129 165 209 258 303
#     4   9  18  33  53  75  97 129 171 205 242 303
#
# _framework density 17.530238000000001
#
# number of rings (size 3 to 8) (size 9 to 14) (size 15 to 20)
#    0.000    2.714    0.000    1.714    0.000    3.714 
#    0.000   19.286    0.000    0.857    0.000    0.000 
#    0.000    0.000    0.000    0.000    0.000    0.000 
#
# Total GULP energy -311913.265520 kJ/mol
# GULP energy per Si atom -5569.879741 kJ/mol
# Density = 1.749034 g / cm^3
# Si number density = 17.530238 Si / 1000 Ang^3
#
#
#
# Elastic Constant Matrix: (Units=GPa)
#
#
# Indices 1 2 3 4 5 6 
#
# 1 47.9534 14.0462 46.3946 0.0000 0.0000 0.0000
# 2 14.0462 47.9526 46.3955 0.0000 0.0000 0.0000
# 3 46.3946 46.3955 146.9391 0.0000 0.0000 0.0000
# 4 0.0000 0.0000 0.0000 25.7449 0.0000 0.0000
# 5 0.0000 0.0000 0.0000 0.0000 25.7441 0.0000
# 6 0.0000 0.0000 0.0000 0.0000 0.0000 10.7166
#
#
#
# Elastic Compliance Matrix: (Units=1/GPa)
#
#
# Indices 1 2 3 4 5 6 
#
# 1 0.030036 0.000544 -0.009655 0.000000 0.000000 0.000000
# 2 0.000544 0.030037 -0.009656 0.000000 0.000000 0.000000
# 3 -0.009655 -0.009656 0.012903 0.000000 0.000000 0.000000
# 4 0.000000 0.000000 0.000000 0.038843 0.000000 0.000000
# 5 0.000000 0.000000 0.000000 0.000000 0.038844 0.000000
# 6 0.000000 0.000000 0.000000 0.000000 0.000000 0.093313
#
#
# Mechanical properties :
#
#
# Convention : Reuss Voigt Hill
#
# Bulk Modulus (GPa) = 28.21602 50.72419 39.47010
# Shear Modulus (GPa) = 17.04609 21.50839 19.27724
#
# Velocity S-wave (km/s) = 3.12169 3.50656 3.31970
# Velocity P-wave (km/s) = 5.39665 6.73741 6.10395
#
# Compressibility (1/GPa) = 0.03544086
#
# Stress axis : x y z
#
# Youngs Moduli (GPa) = 33.29391 33.29245 77.50279
#
# Poissons Ratio (x) = -0.01810 0.74829
# Poissons Ratio (y) = -0.01810 0.74834
# Poissons Ratio (z) = 0.32145 0.32146
#
# Static dielectric constant tensor:
#      x y z
#    x 1.625470 0.000000 0.000000 
#    y 0.000000 1.625470 0.000000 
#    z 0.000000 0.000000 1.586240 
# 
# From -- ./inp_files/2289.got.cif
#   From: 2010.05.17/outbox.cif.g08.bks.cpg/sg113_cif.got.tgz:2289.got - 2010.05.20 11:03:00.
