data_PCOD9555531
_publ_section_title
;
Structure prediction by ZEFSAII (Michael W. Deem and Ramdas Pophale) SiO2 
 PCOD9555531
Probable space group: P -4 21 M 
;
_chemical_formula_sum "Si O2"
_cell_formula_units_Z 56
_cell_length_a 14.671426
_cell_length_b 14.671426
_cell_length_c 12.399168
_cell_angle_alpha 90.000000
_cell_angle_beta 90.000000
_cell_angle_gamma 90.000000
_cell_volume 2668.930098
_symmetry_space_group_name_H-M "P -4 21 M "
_symmetry_group_IT_number 113
_symmetry_cell_setting 'tetragonal'
loop_
_space_group_symop_operation_xyz
x,y,z
y,-x,-z
-x,-y,z
-y,x,-z
1/2+x,1/2-y,-z
1/2-x,1/2+y,-z
1/2-y,1/2-x,z
1/2+y,1/2+x,z
loop_
_atom_site_type_symbol
_atom_site_label
_atom_site_fract_x
_atom_site_fract_y
_atom_site_fract_z
Si Si1 0.501447 0.846665 0.758689
Si Si2 0.719080 0.931297 0.982134
Si Si3 0.084631 0.893014 0.948699
Si Si4 0.226210 0.875341 0.608929
Si Si5 0.002461 0.645083 0.807799
Si Si6 0.753523 0.110889 0.353078
Si Si7 0.971290 0.099992 0.700297
O O1 0.422873 0.922873 0.777701
O O2 0.459186 0.776421 0.671267
O O3 0.593154 0.906847 0.730952
O O4 0.519543 0.789030 0.867386
O O5 0.627093 0.872908 0.983918
O O6 0.804722 0.865031 0.005687
O O7 0.713107 0.990131 0.092208
O O8 0.065102 0.899195 0.822913
O O9 0.988414 0.879547 0.010331
O O10 0.284222 0.784222 0.638449
O O11 0.239099 0.890378 0.481459
O O12 0.118492 0.867407 0.634961
O O13 0.099609 0.599609 0.786523
O O14 0.932584 0.567417 0.843891
O O15 0.962495 0.684474 0.698073
O O16 0.709476 0.209476 0.321910
O O17 0.845427 0.066755 0.307272
O O18 0.000000 0.000000 0.664849
#
# Coordination Sequence:
#
# PCOD9555531 Si02
#       7
#     8   8   8   8   8   8   8
#     4   9  18  35  60  91 132 176 216 266 326 388
#     4  10  19  34  58  90 123 159 210 261 318 390
#     4  11  22  40  60  86 125 162 205 257 315 385
#     4  10  24  43  65  96 132 171 228 279 325 393
#     4   9  17  32  58  90 124 163 207 263 328 387
#     4  10  23  43  64  94 129 166 221 279 322 386
#     4  12  25  43  70  94 127 176 219 262 332 398
#
# _framework density 20.982192000000001
#
# number of rings (size 3 to 8) (size 9 to 14) (size 15 to 20)
#    0.000    1.857    2.857    1.286    2.000    3.429 
#    0.000    5.714    0.000    0.000    0.000    0.000 
#    0.000    0.000    0.000    0.000    0.000    0.000 
#
# Total GULP energy -311773.210637 kJ/mol
# GULP energy per Si atom -5567.378761 kJ/mol
# Density = 2.093444 g / cm^3
# Si number density = 20.982192 Si / 1000 Ang^3
#
#
#
# Elastic Constant Matrix: (Units=GPa)
#
#
# Indices 1 2 3 4 5 6 
#
# 1 67.1063 14.4693 2.7517 0.0000 0.0000 0.0000
# 2 14.4693 67.1052 2.7517 0.0000 0.0000 0.0000
# 3 2.7517 2.7517 57.4151 0.0000 0.0000 0.0000
# 4 0.0000 0.0000 0.0000 8.0167 0.0000 0.0000
# 5 0.0000 0.0000 0.0000 0.0000 8.0182 0.0000
# 6 0.0000 0.0000 0.0000 0.0000 0.0000 21.5412
#
#
#
# Elastic Compliance Matrix: (Units=1/GPa)
#
#
# Indices 1 2 3 4 5 6 
#
# 1 0.015648 -0.003350 -0.000589 0.000000 0.000000 0.000000
# 2 -0.003350 0.015648 -0.000589 0.000000 0.000000 0.000000
# 3 -0.000589 -0.000589 0.017474 0.000000 0.000000 0.000000
# 4 0.000000 0.000000 0.000000 0.124739 0.000000 0.000000
# 5 0.000000 0.000000 0.000000 0.000000 0.124716 0.000000
# 6 0.000000 0.000000 0.000000 0.000000 0.000000 0.046423
#
#
# Mechanical properties :
#
#
# Convention : Reuss Voigt Hill
#
# Bulk Modulus (GPa) = 25.18088 25.73022 25.45555
# Shear Modulus (GPa) = 13.62608 18.95882 16.29245
#
# Velocity S-wave (km/s) = 2.55112 3.00920 2.78958
# Velocity P-wave (km/s) = 4.55025 4.93591 4.74700
#
# Compressibility (1/GPa) = 0.03971268
#
# Stress axis : x y z
#
# Youngs Moduli (GPa) = 63.90505 63.90405 57.22948
#
# Poissons Ratio (x) = 0.21407 0.03373
# Poissons Ratio (y) = 0.21408 0.03373
# Poissons Ratio (z) = 0.03767 0.03767
#
# Static dielectric constant tensor:
#      x y z
#    x 1.991350 0.000000 0.000000 
#    y 0.000000 1.991350 0.000000 
#    z 0.000000 0.000000 1.726030 
# 
# From -- ./inp_files/1915.got.cif
#   From: 2010.05.17/outbox.cif.g08.bks.cpg/sg113_cif.got.tgz:1915.got - 2010.05.20 11:03:00.
