data_PCOD9555971
_publ_section_title
;
Structure prediction by ZEFSAII (Michael W. Deem and Ramdas Pophale) SiO2 
 PCOD9555971
Probable space group: P -4 21 C
;
_chemical_formula_sum "Si O2"
_cell_formula_units_Z 48
_cell_length_a 9.365088
_cell_length_b 9.365088
_cell_length_c 29.673316
_cell_angle_alpha 90.000000
_cell_angle_beta 90.000000
_cell_angle_gamma 90.000000
_cell_volume 2602.494419
_symmetry_space_group_name_H-M "P -4 21 C"
_symmetry_group_IT_number 114
_symmetry_cell_setting 'tetragonal'
loop_
_space_group_symop_operation_xyz
x,y,z
y,-x,-z
-x,-y,z
-y,x,-z
1/2+x,1/2-y,1/2-z
1/2-x,1/2+y,1/2-z
1/2-y,1/2-x,1/2+z
1/2+y,1/2+x,1/2+z
loop_
_atom_site_type_symbol
_atom_site_label
_atom_site_fract_x
_atom_site_fract_y
_atom_site_fract_z
Si Si1 0.997423 0.332464 0.774447
Si Si2 0.179969 0.834127 0.700760
Si Si3 0.458244 0.259492 0.957153
Si Si4 0.158623 0.496772 0.137592
Si Si5 0.624672 0.757826 0.154341
Si Si6 0.229143 0.026032 0.554182
O O1 0.925929 0.222034 0.739726
O O2 0.901109 0.333237 0.819548
O O3 0.000000 0.500000 0.759071
O O4 0.160584 0.294659 0.784211
O O5 0.127336 0.747432 0.657660
O O6 0.185635 0.999042 0.684688
O O7 0.483988 0.156488 0.915857
O O8 0.591488 0.370970 0.954156
O O9 0.324292 0.362692 0.946657
O O10 0.451395 0.190469 0.006676
O O11 0.245665 0.353761 0.150104
O O12 0.000000 0.500000 0.155982
O O13 0.566705 0.786116 0.103550
#
# Coordination Sequence:
#
# PCOD9555971 Si02
#       6
#     8   8   8   8   8   8
#     4  10  23  39  58  86 111 142 192 239 282 340
#     4  11  21  38  58  79 110 149 185 235 284 335
#     4   8  14  26  50  84 114 143 183 226 271 321
#     4  11  21  34  54  84 118 148 186 230 276 336
#     4  10  20  38  61  83 113 150 186 231 286 332
#     4   8  13  27  54  83 109 144 187 225 268 331
#
# _framework density 18.443846000000001
#
# number of rings (size 3 to 8) (size 9 to 14) (size 15 to 20)
#    0.000    2.333    1.667    3.000    0.000    2.667 
#    0.000    6.667    0.000    0.000    0.000    0.000 
#    0.000    0.000    0.000    0.000    0.000    0.000 
#
# Total GULP energy -267397.068677 kJ/mol
# GULP energy per Si atom -5570.772264 kJ/mol
# Density = 1.840187 g / cm^3
# Si number density = 18.443846 Si / 1000 Ang^3
#
#
#
# Elastic Constant Matrix: (Units=GPa)
#
#
# Indices 1 2 3 4 5 6 
#
# 1 64.2220 27.2438 26.8512 0.0000 0.0000 0.0000
# 2 27.2438 64.2220 26.8512 0.0000 0.0000 0.0000
# 3 26.8512 26.8512 138.2512 0.0000 0.0000 0.0000
# 4 0.0000 0.0000 0.0000 15.6886 0.0000 0.0000
# 5 0.0000 0.0000 0.0000 0.0000 15.6886 0.0000
# 6 0.0000 0.0000 0.0000 0.0000 0.0000 16.6757
#
#
#
# Elastic Compliance Matrix: (Units=1/GPa)
#
#
# Indices 1 2 3 4 5 6 
#
# 1 0.019692 -0.007351 -0.002397 0.000000 0.000000 0.000000
# 2 -0.007351 0.019692 -0.002397 0.000000 0.000000 0.000000
# 3 -0.002397 -0.002397 0.008164 0.000000 0.000000 0.000000
# 4 0.000000 0.000000 0.000000 0.063740 0.000000 0.000000
# 5 0.000000 0.000000 0.000000 0.000000 0.063740 0.000000
# 6 0.000000 0.000000 0.000000 0.000000 0.000000 0.059967
#
#
# Mechanical properties :
#
#
# Convention : Reuss Voigt Hill
#
# Bulk Modulus (GPa) = 42.99639 47.62085 45.30862
# Shear Modulus (GPa) = 18.72392 21.99385 20.35888
#
# Velocity S-wave (km/s) = 3.18965 3.45697 3.32600
# Velocity P-wave (km/s) = 6.07683 6.46604 6.27445
#
# Compressibility (1/GPa) = 0.02325777
#
# Stress axis : x y z
#
# Youngs Moduli (GPa) = 50.78304 50.78304 122.48598
#
# Poissons Ratio (x) = 0.37333 0.29357
# Poissons Ratio (y) = 0.37333 0.29357
# Poissons Ratio (z) = 0.12171 0.12171
#
# Static dielectric constant tensor:
#      x y z
#    x 1.668620 0.000000 0.000000 
#    y 0.000000 1.668620 0.000000 
#    z 0.000000 0.000000 1.699740 
# 
# From -- ./inp_files/3928.got.cif
#   From: 2010.05.17/outbox.cif.g08.bks.cpg/sg114_2_cif.got.tgz:3928.got - 2010.05.20 11:04:54.
