data_PCOD9555761
_publ_section_title
;
Structure prediction by ZEFSAII (Michael W. Deem and Ramdas Pophale) SiO2 
 PCOD9555761
Probable space group: P -4 21 M 
;
_chemical_formula_sum "Si O2"
_cell_formula_units_Z 32
_cell_length_a 13.966973
_cell_length_b 13.966973
_cell_length_c 7.981024
_cell_angle_alpha 90.000000
_cell_angle_beta 90.000000
_cell_angle_gamma 90.000000
_cell_volume 1556.908910
_symmetry_space_group_name_H-M "P -4 21 M "
_symmetry_group_IT_number 113
_symmetry_cell_setting 'tetragonal'
loop_
_space_group_symop_operation_xyz
x,y,z
y,-x,-z
-x,-y,z
-y,x,-z
1/2+x,1/2-y,-z
1/2-x,1/2+y,-z
1/2-y,1/2-x,z
1/2+y,1/2+x,z
loop_
_atom_site_type_symbol
_atom_site_label
_atom_site_fract_x
_atom_site_fract_y
_atom_site_fract_z
Si Si1 0.496759 0.846606 0.859454
Si Si2 0.345645 0.002310 0.453084
Si Si3 0.629006 0.470963 0.084697
Si Si4 0.026746 0.125768 0.599508
O O1 0.395673 0.895673 0.906922
O O2 0.499601 0.841176 0.656395
O O3 0.519704 0.741762 0.924644
O O4 0.578990 0.921011 0.911266
O O5 0.417938 0.917938 0.400255
O O6 0.239141 0.983068 0.391001
O O7 0.397764 0.102237 0.406307
O O8 0.589206 0.414404 0.245967
O O9 0.577614 0.414513 0.932897
O O10 0.920399 0.084248 0.559493
#
# Coordination Sequence:
#
# PCOD9555761 Si02
#       4
#     8   8   8   8
#     4   9  19  39  65  91 120 157 203 251 303 362
#     4   9  19  37  63  95 124 149 194 257 308 358
#     4  11  23  38  59  85 128 163 198 249 299 353
#     4  11  21  36  61  87 118 159 201 247 296 355
#
# _framework density 20.553546999999998
#
# number of rings (size 3 to 8) (size 9 to 14) (size 15 to 20)
#    0.000    2.000    2.500    4.500    0.000    3.000 
#    0.000    1.250    0.000    3.000    0.000    0.000 
#    0.000    0.000    0.000    0.000    0.000    0.000 
#
# Total GULP energy -178342.721700 kJ/mol
# GULP energy per Si atom -5573.210053 kJ/mol
# Density = 2.050677 g / cm^3
# Si number density = 20.553547 Si / 1000 Ang^3
#
#
#
# Elastic Constant Matrix: (Units=GPa)
#
#
# Indices 1 2 3 4 5 6 
#
# 1 192.6341 82.9764 32.1288 0.0000 0.0000 0.0000
# 2 82.9764 192.6293 32.1286 0.0000 0.0000 0.0000
# 3 32.1288 32.1286 57.6242 0.0000 0.0000 0.0000
# 4 0.0000 0.0000 0.0000 20.9320 0.0000 0.0000
# 5 0.0000 0.0000 0.0000 0.0000 20.9320 0.0000
# 6 0.0000 0.0000 0.0000 0.0000 0.0000 10.3849
#
#
#
# Elastic Compliance Matrix: (Units=1/GPa)
#
#
# Indices 1 2 3 4 5 6 
#
# 1 0.006645 -0.002475 -0.002325 0.000000 0.000000 0.000000
# 2 -0.002475 0.006645 -0.002325 0.000000 0.000000 0.000000
# 3 -0.002325 -0.002325 0.019947 0.000000 0.000000 0.000000
# 4 0.000000 0.000000 0.000000 0.047774 0.000000 0.000000
# 5 0.000000 0.000000 0.000000 0.000000 0.047774 0.000000
# 6 0.000000 0.000000 0.000000 0.000000 0.000000 0.096294
#
#
# Mechanical properties :
#
#
# Convention : Reuss Voigt Hill
#
# Bulk Modulus (GPa) = 52.66865 81.92833 67.29849
# Shear Modulus (GPa) = 20.35361 30.16003 25.25682
#
# Velocity S-wave (km/s) = 3.15027 3.83481 3.50927
# Velocity P-wave (km/s) = 6.23803 7.71720 7.01670
#
# Compressibility (1/GPa) = 0.01898663
#
# Stress axis : x y z
#
# Youngs Moduli (GPa) = 150.49154 150.48761 50.13345
#
# Poissons Ratio (x) = 0.37238 0.11657
# Poissons Ratio (y) = 0.37239 0.11658
# Poissons Ratio (z) = 0.34993 0.34993
#
# Static dielectric constant tensor:
#      x y z
#    x 1.727670 0.000000 0.000000 
#    y 0.000000 1.727670 0.000000 
#    z 0.000000 0.000000 1.850700 
# 
# From -- ./inp_files/818.got.cif
#   From: 2010.05.17/outbox.cif.g08.bks.cpg/sg113_cif.got.tgz:818.got - 2010.05.20 11:03:00.
