data_PCOD9555902
_publ_section_title
;
Structure prediction by ZEFSAII (Michael W. Deem and Ramdas Pophale) SiO2 
 PCOD9555902
Probable space group: P -4 21 C
;
_chemical_formula_sum "Si O2"
_cell_formula_units_Z 52
_cell_length_a 15.920838
_cell_length_b 15.920838
_cell_length_c 9.804859
_cell_angle_alpha 90.000000
_cell_angle_beta 90.000000
_cell_angle_gamma 90.000000
_cell_volume 2485.267835
_symmetry_space_group_name_H-M "P -4 21 C"
_symmetry_group_IT_number 114
_symmetry_cell_setting 'tetragonal'
loop_
_space_group_symop_operation_xyz
x,y,z
y,-x,-z
-x,-y,z
-y,x,-z
1/2+x,1/2-y,1/2-z
1/2-x,1/2+y,1/2-z
1/2-y,1/2-x,1/2+z
1/2+y,1/2+x,1/2+z
loop_
_atom_site_type_symbol
_atom_site_label
_atom_site_fract_x
_atom_site_fract_y
_atom_site_fract_z
Si Si1 0.096987 0.921736 0.456232
Si Si2 0.710970 0.736145 0.953598
Si Si3 0.000000 0.500000 0.992918
Si Si4 0.974442 0.743587 0.656861
Si Si5 0.671680 0.204780 0.307491
Si Si6 0.121914 0.618996 0.163833
Si Si7 0.513322 0.170661 0.147501
O O1 0.144853 0.835601 0.497015
O O2 0.155990 0.963479 0.339703
O O3 0.998385 0.904223 0.432704
O O4 0.734500 0.716129 0.798856
O O5 0.674846 0.829387 0.946102
O O6 0.794598 0.727733 0.043870
O O7 0.925212 0.534672 0.898059
O O8 0.951863 0.433586 0.088934
O O9 0.890219 0.703275 0.714210
O O10 0.977471 0.720980 0.493731
O O11 0.054018 0.693849 0.713867
O O12 0.575345 0.204231 0.263403
O O13 0.078337 0.668670 0.285723
#
# Coordination Sequence:
#
# PCOD9555902 Si02
#       7
#     8   8   4   8   8   8   8
#     4  10  19  37  63  89 121 167 225 276 319 382
#     4  11  25  40  63  95 133 172 223 284 332 390
#     4  10  22  36  60  98 130 174 220 266 336 416
#     4  10  21  37  60  91 127 164 219 270 321 396
#     4  11  22  42  59  90 130 172 216 266 328 389
#     4  11  23  38  61  98 131 168 220 276 344 404
#     4  11  20  37  63  88 131 176 213 260 334 412
#
# _framework density 20.923299
#
# number of rings (size 3 to 8) (size 9 to 14) (size 15 to 20)
#    0.000    1.385    4.615    3.231    4.308    0.000 
#    0.000    0.000    0.000    0.000    0.000    0.000 
#    0.000    9.846    0.000    0.000    0.000    0.000 
#
# Total GULP energy -289996.785650 kJ/mol
# GULP energy per Si atom -5576.861262 kJ/mol
# Density = 2.087568 g / cm^3
# Si number density = 20.923299 Si / 1000 Ang^3
#
#
#
# Elastic Constant Matrix: (Units=GPa)
#
#
# Indices 1 2 3 4 5 6 
#
# 1 96.4047 12.0811 24.9026 0.0000 0.0000 0.0000
# 2 12.0811 96.4047 24.9026 0.0000 0.0000 0.0000
# 3 24.9026 24.9026 32.6549 0.0000 0.0000 0.0000
# 4 0.0000 0.0000 0.0000 25.3019 0.0000 0.0000
# 5 0.0000 0.0000 0.0000 0.0000 25.3019 0.0000
# 6 0.0000 0.0000 0.0000 0.0000 0.0000 34.3600
#
#
#
# Elastic Compliance Matrix: (Units=1/GPa)
#
#
# Indices 1 2 3 4 5 6 
#
# 1 0.013021 0.001162 -0.010816 0.000000 0.000000 0.000000
# 2 0.001162 0.013021 -0.010816 0.000000 0.000000 0.000000
# 3 -0.010816 -0.010816 0.047120 0.000000 0.000000 0.000000
# 4 0.000000 0.000000 0.000000 0.039523 0.000000 0.000000
# 5 0.000000 0.000000 0.000000 0.000000 0.039523 0.000000
# 6 0.000000 0.000000 0.000000 0.000000 0.000000 0.029104
#
#
# Mechanical properties :
#
#
# Convention : Reuss Voigt Hill
#
# Bulk Modulus (GPa) = 31.03467 38.80408 34.91938
# Shear Modulus (GPa) = 21.45981 27.89796 24.67889
#
# Velocity S-wave (km/s) = 3.20604 3.65546 3.43810
# Velocity P-wave (km/s) = 5.34506 6.03346 5.69966
#
# Compressibility (1/GPa) = 0.03222203
#
# Stress axis : x y z
#
# Youngs Moduli (GPa) = 76.79723 76.79723 21.22224
#
# Poissons Ratio (x) = -0.08926 0.22955
# Poissons Ratio (y) = -0.08926 0.22955
# Poissons Ratio (z) = 0.83067 0.83067
#
# Static dielectric constant tensor:
#      x y z
#    x 1.838440 0.000000 0.000000 
#    y 0.000000 1.838440 0.000000 
#    z 0.000000 0.000000 1.746860 
# 
# From -- ./inp_files/967.got.cif
#   From: 2010.05.17/outbox.cif.g08.bks.cpg/sg114_1_cif.got.tgz:967.got - 2010.05.20 11:04:54.
