data_PCOD9555970
_publ_section_title
;
Structure prediction by ZEFSAII (Michael W. Deem and Ramdas Pophale) SiO2 
 PCOD9555970
Probable space group: P -4 21 C
;
_chemical_formula_sum "Si O2"
_cell_formula_units_Z 42
_cell_length_a 13.550675
_cell_length_b 13.550675
_cell_length_c 9.155650
_cell_angle_alpha 90.000000
_cell_angle_beta 90.000000
_cell_angle_gamma 90.000000
_cell_volume 1681.167713
_symmetry_space_group_name_H-M "P -4 21 C"
_symmetry_group_IT_number 114
_symmetry_cell_setting 'tetragonal'
loop_
_space_group_symop_operation_xyz
x,y,z
y,-x,-z
-x,-y,z
-y,x,-z
1/2+x,1/2-y,1/2-z
1/2-x,1/2+y,1/2-z
1/2-y,1/2-x,1/2+z
1/2+y,1/2+x,1/2+z
loop_
_atom_site_type_symbol
_atom_site_label
_atom_site_fract_x
_atom_site_fract_y
_atom_site_fract_z
Si Si1 0.500000 0.500000 0.500000
Si Si2 0.835397 0.620853 0.637412
Si Si3 0.314301 0.136306 0.342446
Si Si4 0.957561 0.406414 0.923192
Si Si5 0.768303 0.110346 0.584665
Si Si6 0.683008 0.471337 0.689166
O O1 0.581619 0.452413 0.607877
O O2 0.892892 0.536608 0.551779
O O3 0.867253 0.725950 0.575085
O O4 0.830175 0.621330 0.812064
O O5 0.725831 0.573222 0.613502
O O6 0.326646 0.069343 0.199043
O O7 0.356891 0.082300 0.485182
O O8 0.203232 0.166354 0.369558
O O9 0.384641 0.234846 0.325289
O O10 0.000000 0.500000 0.839342
O O11 0.819617 0.010526 0.642795
#
# Coordination Sequence:
#
# PCOD9555970 Si02
#       6
#     2   8   8   8   8   8
#     4  12  20  40  64  84 126 160 220 272 286 372
#     4   9  21  37  59  88 124 156 206 255 308 380
#     4  11  22  39  62  91 129 161 210 260 322 377
#     4  11  23  37  60  91 127 160 203 264 321 379
#     4  10  20  38  60  87 127 159 211 253 314 381
#     4   9  23  36  62  93 120 164 220 253 310 381
#
# _framework density 24.982634999999998
#
# number of rings (size 3 to 8) (size 9 to 14) (size 15 to 20)
#    1.143    0.762    0.000    4.000    8.000    0.000 
#    0.000    0.000    0.000    2.286    0.000    1.333 
#    0.000    0.000    0.000    0.000    0.000    0.000 
#
# Total GULP energy -233980.139374 kJ/mol
# GULP energy per Si atom -5570.955699 kJ/mol
# Density = 2.492577 g / cm^3
# Si number density = 24.982635 Si / 1000 Ang^3
#
#
#
# Elastic Constant Matrix: (Units=GPa)
#
#
# Indices 1 2 3 4 5 6 
#
# 1 60.0398 16.8528 6.1498 0.0000 0.0000 0.0000
# 2 16.8528 60.0398 6.1498 0.0000 0.0000 0.0000
# 3 6.1498 6.1498 95.1855 0.0000 0.0000 0.0000
# 4 0.0000 0.0000 0.0000 29.3813 0.0000 0.0000
# 5 0.0000 0.0000 0.0000 0.0000 29.3813 0.0000
# 6 0.0000 0.0000 0.0000 0.0000 0.0000 44.3135
#
#
#
# Elastic Compliance Matrix: (Units=1/GPa)
#
#
# Indices 1 2 3 4 5 6 
#
# 1 0.018148 -0.005007 -0.000849 0.000000 0.000000 0.000000
# 2 -0.005007 0.018148 -0.000849 0.000000 0.000000 0.000000
# 3 -0.000849 -0.000849 0.010616 0.000000 0.000000 0.000000
# 4 0.000000 0.000000 0.000000 0.034035 0.000000 0.000000
# 5 0.000000 0.000000 0.000000 0.000000 0.034035 0.000000
# 6 0.000000 0.000000 0.000000 0.000000 0.000000 0.022566
#
#
# Mechanical properties :
#
#
# Convention : Reuss Voigt Hill
#
# Bulk Modulus (GPa) = 29.84957 30.39668 30.12312
# Shear Modulus (GPa) = 30.84025 33.02275 31.93150
#
# Velocity S-wave (km/s) = 3.51731 3.63964 3.57900
# Velocity P-wave (km/s) = 5.33567 5.46408 5.40026
#
# Compressibility (1/GPa) = 0.03350132
#
# Stress axis : x y z
#
# Youngs Moduli (GPa) = 55.10243 55.10243 94.20174
#
# Poissons Ratio (x) = 0.27590 0.07998
# Poissons Ratio (y) = 0.27590 0.07998
# Poissons Ratio (z) = 0.04678 0.04678
#
# Static dielectric constant tensor:
#      x y z
#    x 2.055090 0.000000 0.000000 
#    y 0.000000 2.055090 0.000000 
#    z 0.000000 0.000000 2.043850 
# 
# From -- ./inp_files/813.got.cif
#   From: 2010.05.17/outbox.cif.g08.bks.cpg/sg114_1_cif.got.tgz:813.got - 2010.05.20 11:04:54.
