data_PCOD9555051
_publ_section_title
;
Structure prediction by ZEFSAII (Michael W. Deem and Ramdas Pophale) SiO2 
 PCOD9555051
Probable space group: P -4 2 C
;
_chemical_formula_sum "Si O2"
_cell_formula_units_Z 64
_cell_length_a 16.749615
_cell_length_b 16.749615
_cell_length_c 12.416968
_cell_angle_alpha 90.000000
_cell_angle_beta 90.000000
_cell_angle_gamma 90.000000
_cell_volume 3483.575438
_symmetry_space_group_name_H-M "P -4 2 C"
_symmetry_group_IT_number 112
_symmetry_cell_setting 'tetragonal'
loop_
_space_group_symop_operation_xyz
x,y,z
y,-x,-z
-x,-y,z
-y,x,-z
x,-y,1/2-z
-x,y,1/2-z
-y,-x,1/2+z
y,x,1/2+z
loop_
_atom_site_type_symbol
_atom_site_label
_atom_site_fract_x
_atom_site_fract_y
_atom_site_fract_z
Si Si1 0.797568 0.338455 0.724528
Si Si2 0.776062 0.572857 0.309925
Si Si3 0.525625 0.672200 0.361428
Si Si4 0.496937 0.084452 0.551441
Si Si5 0.093514 0.316816 0.974701
Si Si6 0.616783 0.050593 0.358424
Si Si7 0.785723 0.699846 0.137925
Si Si8 0.629407 0.333398 0.502905
O O1 0.743325 0.413731 0.681549
O O2 0.848090 0.305761 0.624983
O O3 0.862761 0.363468 0.812832
O O4 0.753982 0.264649 0.780652
O O5 0.730768 0.500000 0.250000
O O6 0.846256 0.535337 0.379800
O O7 0.809723 0.627293 0.215339
O O8 0.721651 0.621527 0.391978
O O9 0.500000 0.630234 0.250000
O O10 0.442554 0.691381 0.422826
O O11 0.577728 0.624247 0.448416
O O12 0.408191 0.103411 0.513726
O O13 0.547874 0.068041 0.443830
O O14 0.500000 0.000000 0.612478
O O15 0.003168 0.317901 0.925605
O O16 0.136002 0.269849 0.073431
O O17 0.596676 0.000000 0.250000
O O18 0.715438 0.674156 0.054265
#
# Coordination Sequence:
#
# PCOD9555051 Si02
#       8
#     8   8   8   8   8   8   8   8
#     4  11  21  35  60  82 105 143 196 240 295 356
#     4  12  22  36  56  78 108 151 187 238 299 355
#     4  12  24  39  58  77 105 143 203 266 308 349
#     4  10  21  35  54  81 112 145 182 229 291 366
#     4  10  20  36  51  83 115 142 182 236 288 359
#     4   9  21  35  57  85 115 144 183 242 297 345
#     4  12  21  37  56  81 108 149 194 235 293 366
#     4  12  24  40  56  79 104 145 201 263 309 350
#
# _framework density 18.371928
#
# number of rings (size 3 to 8) (size 9 to 14) (size 15 to 20)
#    0.000    1.000    5.000    2.250    1.750    5.750 
#    0.000    0.625    0.000    0.000    0.000    0.000 
#    0.000    0.500    0.000    5.875    0.000    2.125 
#
# Total GULP energy -356441.252550 kJ/mol
# GULP energy per Si atom -5569.394571 kJ/mol
# Density = 1.833011 g / cm^3
# Si number density = 18.371928 Si / 1000 Ang^3
#
#
#
# Elastic Constant Matrix: (Units=GPa)
#
#
# Indices 1 2 3 4 5 6 
#
# 1 57.4441 12.8855 22.2327 0.0000 0.0000 0.0000
# 2 12.8855 57.4441 22.2327 0.0000 0.0000 0.0000
# 3 22.2327 22.2327 92.6021 0.0000 0.0000 0.0000
# 4 0.0000 0.0000 0.0000 41.6765 0.0000 0.0000
# 5 0.0000 0.0000 0.0000 0.0000 41.6765 0.0000
# 6 0.0000 0.0000 0.0000 0.0000 0.0000 12.7472
#
#
#
# Elastic Compliance Matrix: (Units=1/GPa)
#
#
# Indices 1 2 3 4 5 6 
#
# 1 0.019603 -0.002840 -0.004025 0.000000 0.000000 0.000000
# 2 -0.002840 0.019603 -0.004025 0.000000 0.000000 0.000000
# 3 -0.004025 -0.004025 0.012731 0.000000 0.000000 0.000000
# 4 0.000000 0.000000 0.000000 0.023994 0.000000 0.000000
# 5 0.000000 0.000000 0.000000 0.000000 0.023994 0.000000
# 6 0.000000 0.000000 0.000000 0.000000 0.000000 0.078449
#
#
# Mechanical properties :
#
#
# Convention : Reuss Voigt Hill
#
# Bulk Modulus (GPa) = 33.15716 35.79912 34.47814
# Shear Modulus (GPa) = 23.78624 29.22931 26.50778
#
# Velocity S-wave (km/s) = 3.60211 3.99303 3.80260
# Velocity P-wave (km/s) = 5.94871 6.38648 6.17148
#
# Compressibility (1/GPa) = 0.03015940
#
# Stress axis : x y z
#
# Youngs Moduli (GPa) = 51.01301 51.01301 78.54566
#
# Poissons Ratio (x) = 0.14485 0.31612
# Poissons Ratio (y) = 0.14485 0.31612
# Poissons Ratio (z) = 0.20531 0.20531
#
# Static dielectric constant tensor:
#      x y z
#    x 1.696170 0.000000 0.000000 
#    y 0.000000 1.696170 0.000000 
#    z 0.000000 0.000000 1.684010 
# 
# From -- ./inp_files/2767.got.cif
#   From: 2010.05.17/outbox.cif.g08.bks.cpg/sg112_2_cif.got.tgz:2767.got - 2010.05.20 10:59:04.
