data_PCOD9555919
_publ_section_title
;
Structure prediction by ZEFSAII (Michael W. Deem and Ramdas Pophale) SiO2 
 PCOD9555919
Probable space group: P -4 21 C
;
_chemical_formula_sum "Si O2"
_cell_formula_units_Z 48
_cell_length_a 19.159197
_cell_length_b 19.159197
_cell_length_c 4.988136
_cell_angle_alpha 90.000000
_cell_angle_beta 90.000000
_cell_angle_gamma 90.000000
_cell_volume 1831.019173
_symmetry_space_group_name_H-M "P -4 21 C"
_symmetry_group_IT_number 114
_symmetry_cell_setting 'tetragonal'
loop_
_space_group_symop_operation_xyz
x,y,z
y,-x,-z
-x,-y,z
-y,x,-z
1/2+x,1/2-y,1/2-z
1/2-x,1/2+y,1/2-z
1/2-y,1/2-x,1/2+z
1/2+y,1/2+x,1/2+z
loop_
_atom_site_type_symbol
_atom_site_label
_atom_site_fract_x
_atom_site_fract_y
_atom_site_fract_z
Si Si1 0.999781 0.103773 0.056139
Si Si2 0.149638 0.711103 0.730088
Si Si3 0.410456 0.721302 0.710231
Si Si4 0.027616 0.291149 0.272749
Si Si5 0.398926 0.308550 0.156097
Si Si6 0.465548 0.091343 0.884490
O O1 0.033135 0.167551 0.903763
O O2 0.953352 0.130222 0.298331
O O3 0.060854 0.051885 0.133145
O O4 0.189542 0.704500 0.002830
O O5 0.118053 0.784552 0.644604
O O6 0.090879 0.652495 0.686731
O O7 0.425815 0.784868 0.498097
O O8 0.340249 0.674086 0.727725
O O9 0.432194 0.744719 0.006298
O O10 0.947881 0.257891 0.235024
O O11 0.018201 0.365151 0.425709
O O12 0.436325 0.029973 0.079861
#
# Coordination Sequence:
#
# PCOD9555919 Si02
#       6
#     8   8   8   8   8   8
#     4   8  15  29  45  62  85 115 152 191 226 260
#     4   9  18  30  45  63  81 104 142 187 224 262
#     4  10  20  31  44  62  87 117 149 186 226 261
#     4  10  20  31  44  64  86 111 150 186 215 259
#     4   9  19  31  47  63  86 117 150 187 227 262
#     4   9  16  28  45  62  81 106 137 178 220 255
#
# _framework density 26.21491
#
# number of rings (size 3 to 8) (size 9 to 14) (size 15 to 20)
#    0.000    2.833    0.000    1.000    0.000   14.667 
#    0.000    0.000    0.000    6.000    0.000    0.000 
#    0.000    0.000    0.000    0.000    0.000   58.333 
#
# Total GULP energy -267565.871284 kJ/mol
# GULP energy per Si atom -5574.288985 kJ/mol
# Density = 2.615524 g / cm^3
# Si number density = 26.214910 Si / 1000 Ang^3
#
#
#
# Elastic Constant Matrix: (Units=GPa)
#
#
# Indices 1 2 3 4 5 6 
#
# 1 72.1883 26.0267 21.9559 0.0000 0.0000 0.0000
# 2 26.0267 72.1883 21.9559 0.0000 0.0000 0.0000
# 3 21.9559 21.9559 117.9990 0.0000 0.0000 0.0000
# 4 0.0000 0.0000 0.0000 -0.7364 0.0000 0.0000
# 5 0.0000 0.0000 0.0000 0.0000 -0.7364 0.0000
# 6 0.0000 0.0000 0.0000 0.0000 0.0000 22.9317
#
#
#
# Elastic Compliance Matrix: (Units=1/GPa)
#
#
# Indices 1 2 3 4 5 6 
#
# 1 0.016384 -0.005279 -0.002066 0.000000 0.000000 0.000000
# 2 -0.005279 0.016384 -0.002066 0.000000 0.000000 0.000000
# 3 -0.002066 -0.002066 0.009244 0.000000 0.000000 0.000000
# 4 0.000000 0.000000 0.000000 -1.357941 0.000000 0.000000
# 5 0.000000 0.000000 0.000000 0.000000 -1.357941 0.000000
# 6 0.000000 0.000000 0.000000 0.000000 0.000000 0.043608
#
#
# Mechanical properties :
#
#
# Convention : Reuss Voigt Hill
#
# Bulk Modulus (GPa) = 43.12339 44.69472 43.90906
# Shear Modulus (GPa) = -1.92034 17.12091 7.60029
#
# Velocity S-wave (km/s) = -0.85681 2.55835 1.70456
# Velocity P-wave (km/s) = 3.93787 5.08067 4.54533
#
# Compressibility (1/GPa) = 0.02318927
#
# Stress axis : x y z
#
# Youngs Moduli (GPa) = 61.03390 61.03390 108.18254
#
# Poissons Ratio (x) = 0.32218 0.22355
# Poissons Ratio (y) = 0.32218 0.22355
# Poissons Ratio (z) = 0.12612 0.12612
#
# Static dielectric constant tensor:
#      x y z
#    x 2.163320 0.000000 0.000000 
#    y 0.000000 2.163320 0.000000 
#    z 0.000000 0.000000 2.080800 
# 
# From -- ./inp_files/222.got.cif
#   From: 2010.05.17/outbox.cif.g08.bks.cpg/sg114_1_cif.got.tgz:222.got - 2010.05.20 11:04:54.
