data_PCOD9555842
_publ_section_title
;
Structure prediction by ZEFSAII (Michael W. Deem and Ramdas Pophale) SiO2 
 PCOD9555842
Probable space group: P -4 21 C
;
_chemical_formula_sum "Si O2"
_cell_formula_units_Z 56
_cell_length_a 13.539732
_cell_length_b 13.539732
_cell_length_c 14.733340
_cell_angle_alpha 90.000000
_cell_angle_beta 90.000000
_cell_angle_gamma 90.000000
_cell_volume 2700.979870
_symmetry_space_group_name_H-M "P -4 21 C"
_symmetry_group_IT_number 114
_symmetry_cell_setting 'tetragonal'
loop_
_space_group_symop_operation_xyz
x,y,z
y,-x,-z
-x,-y,z
-y,x,-z
1/2+x,1/2-y,1/2-z
1/2-x,1/2+y,1/2-z
1/2-y,1/2-x,1/2+z
1/2+y,1/2+x,1/2+z
loop_
_atom_site_type_symbol
_atom_site_label
_atom_site_fract_x
_atom_site_fract_y
_atom_site_fract_z
Si Si1 0.232754 0.297705 0.189062
Si Si2 0.656653 0.669843 0.830408
Si Si3 0.550391 0.692632 0.169379
Si Si4 0.385797 0.022066 0.979868
Si Si5 0.328633 0.819789 0.011802
Si Si6 0.730622 0.945361 0.480405
Si Si7 0.888520 0.525818 0.733791
O O1 0.221255 0.193721 0.240269
O O2 0.343196 0.336845 0.207661
O O3 0.212090 0.279565 0.082616
O O4 0.142986 0.365016 0.227450
O O5 0.638879 0.553630 0.813481
O O6 0.569156 0.722524 0.882504
O O7 0.747351 0.685629 0.903418
O O8 0.524488 0.804609 0.203737
O O9 0.566394 0.691928 0.061058
O O10 0.373705 0.137690 0.997636
O O11 0.500000 0.000000 0.004418
O O12 0.318756 0.937779 0.025817
O O13 0.376679 0.009989 0.870580
O O14 0.443697 0.806284 0.987436
O O15 0.000000 0.500000 0.762561
#
# Coordination Sequence:
#
# PCOD9555842 Si02
#       7
#     8   8   8   8   8   8   8
#     4  10  19  33  52  74 110 145 181 236 279 339
#     4  10  20  33  53  78 108 147 183 230 286 343
#     4  10  20  32  51  77 108 145 183 230 285 339
#     4   8  15  28  48  73 101 135 172 225 277 329
#     4   9  18  33  50  75 109 139 181 228 281 336
#     4  10  18  31  51  74 107 143 180 225 277 344
#     4   9  18  32  52  79 107 145 185 233 287 338
#
# _framework density 20.733215999999999
#
# number of rings (size 3 to 8) (size 9 to 14) (size 15 to 20)
#    0.000    2.571    1.429    1.714    0.000    4.000 
#    0.000    0.714    0.000    0.000    0.000    0.000 
#    0.000    0.000    0.000    0.000    0.000    0.000 
#
# Total GULP energy -312059.362758 kJ/mol
# GULP energy per Si atom -5572.488621 kJ/mol
# Density = 2.068603 g / cm^3
# Si number density = 20.733216 Si / 1000 Ang^3
#
#
#
# Elastic Constant Matrix: (Units=GPa)
#
#
# Indices 1 2 3 4 5 6 
#
# 1 57.7951 4.0894 2.7847 0.0000 0.0000 0.0000
# 2 4.0894 57.7951 2.7847 0.0000 0.0000 0.0000
# 3 2.7847 2.7847 55.6098 0.0000 0.0000 0.0000
# 4 0.0000 0.0000 0.0000 26.5642 0.0000 0.0000
# 5 0.0000 0.0000 0.0000 0.0000 26.5642 0.0000
# 6 0.0000 0.0000 0.0000 0.0000 0.0000 13.3038
#
#
#
# Elastic Compliance Matrix: (Units=1/GPa)
#
#
# Indices 1 2 3 4 5 6 
#
# 1 0.017426 -0.001194 -0.000813 0.000000 0.000000 0.000000
# 2 -0.001194 0.017426 -0.000813 0.000000 0.000000 0.000000
# 3 -0.000813 -0.000813 0.018064 0.000000 0.000000 0.000000
# 4 0.000000 0.000000 0.000000 0.037645 0.000000 0.000000
# 5 0.000000 0.000000 0.000000 0.000000 0.037645 0.000000
# 6 0.000000 0.000000 0.000000 0.000000 0.000000 0.075166
#
#
# Mechanical properties :
#
#
# Convention : Reuss Voigt Hill
#
# Bulk Modulus (GPa) = 21.15192 21.16863 21.16028
# Shear Modulus (GPa) = 22.24495 24.05584 23.15040
#
# Velocity S-wave (km/s) = 3.27909 3.40995 3.34516
# Velocity P-wave (km/s) = 4.95587 5.07305 5.01480
#
# Compressibility (1/GPa) = 0.04727703
#
# Stress axis : x y z
#
# Youngs Moduli (GPa) = 57.38508 57.38508 55.35922
#
# Poissons Ratio (x) = 0.06851 0.04500
# Poissons Ratio (y) = 0.06851 0.04500
# Poissons Ratio (z) = 0.04664 0.04664
#
# Static dielectric constant tensor:
#      x y z
#    x 1.812270 0.000000 0.000000 
#    y 0.000000 1.812270 0.000000 
#    z 0.000000 0.000000 1.773110 
# 
# From -- ./inp_files/2704.got.cif
#   From: 2010.05.17/outbox.cif.g08.bks.cpg/sg114_2_cif.got.tgz:2704.got - 2010.05.20 11:04:54.
