data_PCOD9555121
_publ_section_title
;
Structure prediction by ZEFSAII (Michael W. Deem and Ramdas Pophale) SiO2 
 PCOD9555121
Probable space group: P -4 2 C
;
_chemical_formula_sum "Si O2"
_cell_formula_units_Z 56
_cell_length_a 11.627927
_cell_length_b 11.627927
_cell_length_c 19.692140
_cell_angle_alpha 90.000000
_cell_angle_beta 90.000000
_cell_angle_gamma 90.000000
_cell_volume 2662.548380
_symmetry_space_group_name_H-M "P -4 2 C"
_symmetry_group_IT_number 112
_symmetry_cell_setting 'tetragonal'
loop_
_space_group_symop_operation_xyz
x,y,z
y,-x,-z
-x,-y,z
-y,x,-z
x,-y,1/2-z
-x,y,1/2-z
-y,-x,1/2+z
y,x,1/2+z
loop_
_atom_site_type_symbol
_atom_site_label
_atom_site_fract_x
_atom_site_fract_y
_atom_site_fract_z
Si Si1 0.626165 0.649829 0.884202
Si Si2 0.172594 0.789424 0.080903
Si Si3 0.861113 0.006778 0.329567
Si Si4 0.201549 0.205257 0.066452
Si Si5 0.360963 0.621966 0.884649
Si Si6 0.966183 0.636087 0.137157
Si Si7 0.365415 0.221350 0.743289
O O1 0.717597 0.711110 0.931665
O O2 0.491313 0.662549 0.903977
O O3 0.641190 0.514243 0.879303
O O4 0.658372 0.716702 0.814433
O O5 0.078791 0.708791 0.118265
O O6 0.187259 0.898702 0.128772
O O7 0.140341 0.823428 0.003888
O O8 0.822490 0.119192 0.370932
O O9 0.827778 0.000000 0.250000
O O10 0.000000 0.000000 0.332405
O O11 0.329496 0.256370 0.071686
O O12 0.122598 0.318657 0.079635
O O13 0.343420 0.680474 0.811729
O O14 0.000000 0.500000 0.137274
O O15 0.101911 0.672191 0.293207
O O16 0.500000 0.198544 0.750000
#
# Coordination Sequence:
#
# PCOD9555121 Si02
#       7
#     8   8   8   8   8   8   8
#     4  10  21  37  62 102 135 177 220 268 341 421
#     4  12  25  40  68  97 130 179 226 283 353 406
#     4  11  26  46  68  94 126 175 227 278 338 413
#     4  11  24  45  66  95 133 180 225 284 344 416
#     4   9  20  39  64  93 139 179 220 271 334 416
#     4  11  23  40  65 100 133 162 216 291 355 405
#     4   9  18  34  58  93 134 169 206 266 343 407
#
# _framework density 21.03248
#
# number of rings (size 3 to 8) (size 9 to 14) (size 15 to 20)
#    0.000    1.571    1.429    3.857    4.000    6.000 
#    0.000    2.143    0.000    0.857    0.000    0.000 
#    0.000    0.000    0.000    0.000    0.000    0.000 
#
# Total GULP energy -312031.060205 kJ/mol
# GULP energy per Si atom -5571.983218 kJ/mol
# Density = 2.098461 g / cm^3
# Si number density = 21.032480 Si / 1000 Ang^3
#
#
#
# Elastic Constant Matrix: (Units=GPa)
#
#
# Indices 1 2 3 4 5 6 
#
# 1 106.9982 51.6231 43.9138 0.0000 0.0000 0.0000
# 2 51.6231 106.9982 43.9138 0.0000 0.0000 0.0000
# 3 43.9138 43.9138 131.1963 0.0000 0.0000 0.0000
# 4 0.0000 0.0000 0.0000 4.6806 0.0000 0.0000
# 5 0.0000 0.0000 0.0000 0.0000 4.6806 0.0000
# 6 0.0000 0.0000 0.0000 0.0000 0.0000 33.6677
#
#
#
# Elastic Compliance Matrix: (Units=1/GPa)
#
#
# Indices 1 2 3 4 5 6 
#
# 1 0.012899 -0.005160 -0.002590 0.000000 0.000000 0.000000
# 2 -0.005160 0.012899 -0.002590 0.000000 0.000000 0.000000
# 3 -0.002590 -0.002590 0.009356 0.000000 0.000000 0.000000
# 4 0.000000 0.000000 0.000000 0.213650 0.000000 0.000000
# 5 0.000000 0.000000 0.000000 0.000000 0.213650 0.000000
# 6 0.000000 0.000000 0.000000 0.000000 0.000000 0.029702
#
#
# Mechanical properties :
#
#
# Convention : Reuss Voigt Hill
#
# Bulk Modulus (GPa) = 69.09754 69.34379 69.22066
# Shear Modulus (GPa) = 9.65885 22.32188 15.99037
#
# Velocity S-wave (km/s) = 2.14530 3.26130 2.76029
# Velocity P-wave (km/s) = 6.24984 6.87189 6.56823
#
# Compressibility (1/GPa) = 0.01447229
#
# Stress axis : x y z
#
# Youngs Moduli (GPa) = 77.52784 77.52784 106.88146
#
# Poissons Ratio (x) = 0.40005 0.27685
# Poissons Ratio (y) = 0.40005 0.27685
# Poissons Ratio (z) = 0.20081 0.20081
#
# Static dielectric constant tensor:
#      x y z
#    x 1.766920 0.000000 0.000000 
#    y 0.000000 1.766920 0.000000 
#    z 0.000000 0.000000 1.625580 
# 
# From -- ./inp_files/4920.got.cif
#   From: 2010.05.17/outbox.cif.g08.bks.cpg/sg112_3_cif.got.tgz:4920.got - 2010.05.20 10:59:04.
