data_PCOD9555899
_publ_section_title
;
Structure prediction by ZEFSAII (Michael W. Deem and Ramdas Pophale) SiO2 
 PCOD9555899
Probable space group: P -4 21 C
;
_chemical_formula_sum "Si O2"
_cell_formula_units_Z 40
_cell_length_a 8.590757
_cell_length_b 8.590757
_cell_length_c 25.497242
_cell_angle_alpha 90.000000
_cell_angle_beta 90.000000
_cell_angle_gamma 90.000000
_cell_volume 1881.724655
_symmetry_space_group_name_H-M "P -4 21 C"
_symmetry_group_IT_number 114
_symmetry_cell_setting 'tetragonal'
loop_
_space_group_symop_operation_xyz
x,y,z
y,-x,-z
-x,-y,z
-y,x,-z
1/2+x,1/2-y,1/2-z
1/2-x,1/2+y,1/2-z
1/2-y,1/2-x,1/2+z
1/2+y,1/2+x,1/2+z
loop_
_atom_site_type_symbol
_atom_site_label
_atom_site_fract_x
_atom_site_fract_y
_atom_site_fract_z
Si Si1 0.054533 0.827930 0.314530
Si Si2 0.258908 0.589416 0.513454
Si Si3 0.457436 0.675756 0.383875
Si Si4 0.340655 0.094449 0.584805
Si Si5 0.164469 0.417790 0.718337
O O1 0.022896 0.785064 0.375485
O O2 0.234888 0.826472 0.295449
O O3 0.957364 0.713941 0.277093
O O4 0.000000 0.000000 0.304234
O O5 0.416838 0.693212 0.508791
O O6 0.222734 0.553313 0.573969
O O7 0.122551 0.663319 0.478096
O O8 0.500000 0.500000 0.394564
O O9 0.273762 0.672902 0.395976
O O10 0.492155 0.720442 0.324643
O O11 0.500000 0.000000 0.595000
O O12 0.000000 0.500000 0.708840
#
# Coordination Sequence:
#
# PCOD9555899 Si02
#       5
#     8   8   8   8   8
#     4  11  24  43  62  90 134 167 213 267 321 387
#     4   9  15  34  60  88 116 154 205 254 296 362
#     4  10  19  36  64  91 119 157 212 261 306 369
#     4  10  21  35  61  90 121 164 201 254 321 373
#     4  11  24  40  62  95 124 170 213 260 323 389
#
# _framework density 21.257093999999999
#
# number of rings (size 3 to 8) (size 9 to 14) (size 15 to 20)
#    0.000    1.800    4.000    2.400    0.000    7.200 
#    0.000    0.000    8.800    0.000    0.000    0.000 
#    0.000    0.000    0.000    0.000    0.000    0.000 
#
# Total GULP energy -222808.467841 kJ/mol
# GULP energy per Si atom -5570.211696 kJ/mol
# Density = 2.120871 g / cm^3
# Si number density = 21.257094 Si / 1000 Ang^3
#
#
#
# Elastic Constant Matrix: (Units=GPa)
#
#
# Indices 1 2 3 4 5 6 
#
# 1 32.1063 9.8382 22.8387 0.0000 0.0000 0.0000
# 2 9.8382 32.1063 22.8387 0.0000 0.0000 0.0000
# 3 22.8387 22.8387 103.7821 0.0000 0.0000 0.0000
# 4 0.0000 0.0000 0.0000 26.2639 0.0000 0.0000
# 5 0.0000 0.0000 0.0000 0.0000 26.2639 0.0000
# 6 0.0000 0.0000 0.0000 0.0000 0.0000 25.0638
#
#
#
# Elastic Compliance Matrix: (Units=1/GPa)
#
#
# Indices 1 2 3 4 5 6 
#
# 1 0.038131 -0.006776 -0.006900 0.000000 0.000000 0.000000
# 2 -0.006776 0.038131 -0.006900 0.000000 0.000000 0.000000
# 3 -0.006900 -0.006900 0.012673 0.000000 0.000000 0.000000
# 4 0.000000 0.000000 0.000000 0.038075 0.000000 0.000000
# 5 0.000000 0.000000 0.000000 0.000000 0.038075 0.000000
# 6 0.000000 0.000000 0.000000 0.000000 0.000000 0.039898
#
#
# Mechanical properties :
#
#
# Convention : Reuss Voigt Hill
#
# Bulk Modulus (GPa) = 20.92822 31.00290 25.96556
# Shear Modulus (GPa) = 19.07934 23.01694 21.04814
#
# Velocity S-wave (km/s) = 2.99917 3.29415 3.15011
# Velocity P-wave (km/s) = 4.67547 5.39304 5.04702
#
# Compressibility (1/GPa) = 0.04778238
#
# Stress axis : x y z
#
# Youngs Moduli (GPa) = 26.22515 26.22515 78.91082
#
# Poissons Ratio (x) = 0.17770 0.54450
# Poissons Ratio (y) = 0.17770 0.54450
# Poissons Ratio (z) = 0.18096 0.18096
#
# Static dielectric constant tensor:
#      x y z
#    x 1.749650 0.000000 0.000000 
#    y 0.000000 1.749650 0.000000 
#    z 0.000000 0.000000 1.822180 
# 
# From -- ./inp_files/3395.got.cif
#   From: 2010.05.17/outbox.cif.g08.bks.cpg/sg114_2_cif.got.tgz:3395.got - 2010.05.20 11:04:54.
