data_PCOD9555807
_publ_section_title
;
Structure prediction by ZEFSAII (Michael W. Deem and Ramdas Pophale) SiO2 
 PCOD9555807
Probable space group: P -4 21 M 
;
_chemical_formula_sum "Si O2"
_cell_formula_units_Z 48
_cell_length_a 12.000000
_cell_length_b 12.000000
_cell_length_c 18.000000
_cell_angle_alpha 90.000000
_cell_angle_beta 90.000000
_cell_angle_gamma 90.000000
_cell_volume 2592.000000
_symmetry_space_group_name_H-M "P -4 21 M "
_symmetry_group_IT_number 113
_symmetry_cell_setting 'tetragonal'
loop_
_space_group_symop_operation_xyz
x,y,z
y,-x,-z
-x,-y,z
-y,x,-z
1/2+x,1/2-y,-z
1/2-x,1/2+y,-z
1/2-y,1/2-x,z
1/2+y,1/2+x,z
loop_
_atom_site_type_symbol
_atom_site_label
_atom_site_fract_x
_atom_site_fract_y
_atom_site_fract_z
Si Si1 0.509162 0.820590 0.611572
Si Si2 0.914113 0.100570 0.838104
Si Si3 0.318398 0.003325 0.896676
Si Si4 0.497427 0.817473 0.075572
Si Si5 0.658266 0.347659 0.674333
Si Si6 0.025678 0.824765 0.524061
O O1 0.623731 0.876270 0.638824
O O2 0.458465 0.714252 0.653890
O O3 0.521959 0.785100 0.525665
O O4 0.414939 0.914939 0.617554
O O5 0.796470 0.044658 0.863457
O O6 0.898637 0.148118 0.755342
O O7 0.965099 0.201053 0.887899
O O8 0.000000 0.000000 0.838165
O O9 0.412025 0.912025 0.876692
O O10 0.376289 0.123712 0.876969
O O11 0.305392 0.001640 0.986148
O O12 0.378063 0.878063 0.093674
O O13 0.591837 0.908164 0.096058
O O14 0.754248 0.254248 0.673193
O O15 0.683936 0.434532 0.608468
O O16 0.907163 0.885532 0.515837
#
# Coordination Sequence:
#
# PCOD9555807 Si02
#       6
#     8   8   8   8   8   8
#     4   9  18  33  55  82 109 141 186 236 282 335
#     4  12  26  36  58  88 128 158 195 238 297 357
#     4   9  20  40  65  89 114 152 201 250 298 348
#     4   9  20  41  65  86 113 155 204 249 295 349
#     4  10  21  37  56  80 109 152 189 226 282 343
#     4   9  18  32  58  78 106 140 181 233 285 325
#
# _framework density 18.518519000000001
#
# number of rings (size 3 to 8) (size 9 to 14) (size 15 to 20)
#    0.000    2.333    0.000    3.000    7.000    2.000 
#    0.000    2.500    0.000    3.000    0.000    0.000 
#    0.000    0.000    0.000    0.000    0.000    0.000 
#
# Total GULP energy -267523.604564 kJ/mol
# GULP energy per Si atom -5573.408428 kJ/mol
# Density = 1.847637 g / cm^3
# Si number density = 18.518519 Si / 1000 Ang^3
#
#
#
# Elastic Constant Matrix: (Units=GPa)
#
#
# Indices 1 2 3 4 5 6 
#
# 1 44.5406 9.4659 34.1105 0.0000 0.0000 0.0000
# 2 9.4659 44.5407 34.1103 0.0000 0.0000 0.0000
# 3 34.1105 34.1103 55.8083 0.0000 0.0000 0.0000
# 4 0.0000 0.0000 0.0000 17.6471 0.0000 0.0000
# 5 0.0000 0.0000 0.0000 0.0000 17.6485 0.0000
# 6 0.0000 0.0000 0.0000 0.0000 0.0000 19.1554
#
#
#
# Elastic Compliance Matrix: (Units=1/GPa)
#
#
# Indices 1 2 3 4 5 6 
#
# 1 0.054874 0.026363 -0.049653 0.000000 0.000000 0.000000
# 2 0.026363 0.054873 -0.049652 0.000000 0.000000 0.000000
# 3 -0.049653 -0.049652 0.078615 0.000000 0.000000 0.000000
# 4 0.000000 0.000000 0.000000 0.056667 0.000000 0.000000
# 5 0.000000 0.000000 0.000000 0.000000 0.056662 0.000000
# 6 0.000000 0.000000 0.000000 0.000000 0.000000 0.052205
#
#
# Mechanical properties :
#
#
# Convention : Reuss Voigt Hill
#
# Bulk Modulus (GPa) = 23.54152 33.36255 28.45203
# Shear Modulus (GPa) = 9.72878 15.37038 12.54958
#
# Velocity S-wave (km/s) = 2.29455 2.88410 2.60605
# Velocity P-wave (km/s) = 4.44522 5.39867 4.94497
#
# Compressibility (1/GPa) = 0.04247815
#
# Stress axis : x y z
#
# Youngs Moduli (GPa) = 18.22348 18.22377 12.72029
#
# Poissons Ratio (x) = -0.48044 0.63160
# Poissons Ratio (y) = -0.48043 0.63159
# Poissons Ratio (z) = 0.90485 0.90485
#
# Static dielectric constant tensor:
#      x y z
#    x 1.657290 0.000000 0.000000 
#    y 0.000000 1.657290 0.000000 
#    z 0.000000 0.000000 1.628830 
# 
# From -- ./inp_files/2449.got.cif
#   From: 2010.05.17/outbox.ucp.g08.bks.cvg/sg113_cif.got.tgz:2449.got - 2010.06.11 11:33:17.
