data_PCOD9555422
_publ_section_title
;
Structure prediction by ZEFSAII (Michael W. Deem and Ramdas Pophale) SiO2 
 PCOD9555422
Probable space group: P -4 2 C
;
_chemical_formula_sum "Si O2"
_cell_formula_units_Z 20
_cell_length_a 5.368346
_cell_length_b 5.368346
_cell_length_c 28.145733
_cell_angle_alpha 90.000000
_cell_angle_beta 90.000000
_cell_angle_gamma 90.000000
_cell_volume 811.135785
_symmetry_space_group_name_H-M "P -4 2 C"
_symmetry_group_IT_number 112
_symmetry_cell_setting 'tetragonal'
loop_
_space_group_symop_operation_xyz
x,y,z
y,-x,-z
-x,-y,z
-y,x,-z
x,-y,1/2-z
-x,y,1/2-z
-y,-x,1/2+z
y,x,1/2+z
loop_
_atom_site_type_symbol
_atom_site_label
_atom_site_fract_x
_atom_site_fract_y
_atom_site_fract_z
Si Si1 0.000000 0.000000 0.250000
Si Si2 0.500000 0.500000 0.500000
Si Si3 0.749539 0.339357 0.173381
Si Si4 0.151468 0.251387 0.933546
O O1 0.817149 0.157290 0.216298
O O2 0.399089 0.713569 0.535306
O O3 0.500000 0.500000 0.181385
O O4 0.730466 0.206997 0.122506
O O5 0.000000 0.500000 0.169407
O O6 0.000000 0.500000 0.945207
O O7 0.000000 0.000000 0.943094
#
# Coordination Sequence:
#
# PCOD9555422 Si02
#       4
#     2   2   8   8
#     4  12  30  50  84 120 166 226 274 358 436 518
#     4  12  32  48  84 124 170 220 288 344 432 518
#     4  12  28  53  81 119 165 218 285 352 425 515
#     4  12  29  53  84 120 170 223 283 357 432 514
#
# _framework density 24.656783999999998
#
# number of rings (size 3 to 8) (size 9 to 14) (size 15 to 20)
#    0.000    0.000    4.000    3.000    5.600    4.800 
#    0.000    0.000    0.000    0.000    0.000    0.000 
#    0.000    0.000    0.000    0.000    0.000    0.000 
#
# Total GULP energy -112240.301200 kJ/mol
# GULP energy per Si atom -5612.015060 kJ/mol
# Density = 2.460066 g / cm^3
# Si number density = 24.656784 Si / 1000 Ang^3
#
#
#
# Elastic Constant Matrix: (Units=GPa)
#
#
# Indices 1 2 3 4 5 6 
#
# 1 168.5290 87.9371 64.9888 0.0000 0.0000 0.0000
# 2 87.9371 168.5290 64.9888 0.0000 0.0000 0.0000
# 3 64.9888 64.9888 206.6612 0.0000 0.0000 0.0000
# 4 0.0000 0.0000 0.0000 113.8473 0.0000 0.0000
# 5 0.0000 0.0000 0.0000 0.0000 113.8473 0.0000
# 6 0.0000 0.0000 0.0000 0.0000 0.0000 48.3241
#
#
#
# Elastic Compliance Matrix: (Units=1/GPa)
#
#
# Indices 1 2 3 4 5 6 
#
# 1 0.008523 -0.003885 -0.001459 0.000000 0.000000 0.000000
# 2 -0.003885 0.008523 -0.001459 0.000000 0.000000 0.000000
# 3 -0.001459 -0.001459 0.005756 0.000000 0.000000 0.000000
# 4 0.000000 0.000000 0.000000 0.008784 0.000000 0.000000
# 5 0.000000 0.000000 0.000000 0.000000 0.008784 0.000000
# 6 0.000000 0.000000 0.000000 0.000000 0.000000 0.020694
#
#
# Mechanical properties :
#
#
# Convention : Reuss Voigt Hill
#
# Bulk Modulus (GPa) = 108.71372 108.83873 108.77623
# Shear Modulus (GPa) = 64.32165 76.92404 70.62284
#
# Velocity S-wave (km/s) = 5.11306 5.59157 5.35766
# Velocity P-wave (km/s) = 8.89069 9.26957 9.08211
#
# Compressibility (1/GPa) = 0.00919847
#
# Stress axis : x y z
#
# Youngs Moduli (GPa) = 117.32555 117.32555 173.72464
#
# Poissons Ratio (x) = 0.45580 0.25340
# Poissons Ratio (y) = 0.45580 0.25340
# Poissons Ratio (z) = 0.17114 0.17114
#
# Static dielectric constant tensor:
#      x y z
#    x 1.724860 0.000000 0.000000 
#    y 0.000000 1.724860 0.000000 
#    z 0.000000 0.000000 2.030700 
# 
# From -- ./inp_files/5667.got.cif
#   From: 2010.05.17/outbox.cif.g08.bks.cpg/sg112_3_cif.got.tgz:5667.got - 2010.05.20 10:59:04.
