data_PCOD9555049
_publ_section_title
;
Structure prediction by ZEFSAII (Michael W. Deem and Ramdas Pophale) SiO2 
 PCOD9555049
Probable space group: P -4 2 C
;
_chemical_formula_sum "Si O2"
_cell_formula_units_Z 36
_cell_length_a 8.605480
_cell_length_b 8.605480
_cell_length_c 25.634259
_cell_angle_alpha 90.000000
_cell_angle_beta 90.000000
_cell_angle_gamma 90.000000
_cell_volume 1898.326748
_symmetry_space_group_name_H-M "P -4 2 C"
_symmetry_group_IT_number 112
_symmetry_cell_setting 'tetragonal'
loop_
_space_group_symop_operation_xyz
x,y,z
y,-x,-z
-x,-y,z
-y,x,-z
x,-y,1/2-z
-x,y,1/2-z
-y,-x,1/2+z
y,x,1/2+z
loop_
_atom_site_type_symbol
_atom_site_label
_atom_site_fract_x
_atom_site_fract_y
_atom_site_fract_z
Si Si1 0.896421 0.138585 0.394549
Si Si2 0.167742 0.665045 0.159434
Si Si3 0.681532 0.968203 0.309875
Si Si4 0.500000 0.500000 0.000000
Si Si5 0.178431 0.550100 0.439243
Si Si6 0.500000 0.000000 0.750000
O O1 0.821519 0.262790 0.433498
O O2 0.022968 0.239296 0.363491
O O3 0.776810 0.069161 0.352251
O O4 0.000000 0.000000 0.419002
O O5 0.297685 0.790651 0.171843
O O6 0.200258 0.531370 0.117464
O O7 0.110643 0.597525 0.213314
O O8 0.500000 0.000000 0.311134
O O9 0.737484 0.000000 0.250000
O O10 0.500120 0.667749 0.970535
O O11 0.000000 0.500000 0.456556
#
# Coordination Sequence:
#
# PCOD9555049 Si02
#       6
#     8   8   8   2   8   2
#     4   9  18  38  63  87 124 168 207 272 320 401
#     4  10  20  35  63  88 129 167 216 264 326 409
#     4  10  21  33  51  90 131 171 217 251 311 389
#     4  12  28  48  80  94 136 184 224 316 364 398
#     4  10  23  48  64 102 130 166 235 283 352 423
#     4  12  16  32  66  94 124 180 204 268 340 400
#
# _framework density 18.964071000000001
#
# number of rings (size 3 to 8) (size 9 to 14) (size 15 to 20)
#    0.000    2.000    3.333    1.333    3.111    3.111 
#   12.000    0.000    0.000    0.000    0.000    0.000 
#    0.000    0.000    0.000    0.000    0.000    0.000 
#
# Total GULP energy -200476.984234 kJ/mol
# GULP energy per Si atom -5568.805118 kJ/mol
# Density = 1.892091 g / cm^3
# Si number density = 18.964071 Si / 1000 Ang^3
#
#
#
# Elastic Constant Matrix: (Units=GPa)
#
#
# Indices 1 2 3 4 5 6 
#
# 1 103.9141 33.6666 36.3750 0.0000 0.0000 0.0000
# 2 33.6666 103.9141 36.3750 0.0000 0.0000 0.0000
# 3 36.3750 36.3750 49.0673 0.0000 0.0000 0.0000
# 4 0.0000 0.0000 0.0000 100.0956 0.0000 0.0000
# 5 0.0000 0.0000 0.0000 0.0000 100.0956 0.0000
# 6 0.0000 0.0000 0.0000 0.0000 0.0000 65.1401
#
#
#
# Elastic Compliance Matrix: (Units=1/GPa)
#
#
# Indices 1 2 3 4 5 6 
#
# 1 0.013095 -0.001140 -0.008862 0.000000 0.000000 0.000000
# 2 -0.001140 0.013095 -0.008862 0.000000 0.000000 0.000000
# 3 -0.008862 -0.008862 0.033520 0.000000 0.000000 0.000000
# 4 0.000000 0.000000 0.000000 0.009990 0.000000 0.000000
# 5 0.000000 0.000000 0.000000 0.000000 0.009990 0.000000
# 6 0.000000 0.000000 0.000000 0.000000 0.000000 0.015352
#
#
# Mechanical properties :
#
#
# Convention : Reuss Voigt Hill
#
# Bulk Modulus (GPa) = 45.49595 52.19207 48.84401
# Shear Modulus (GPa) = 35.68898 63.09817 49.39358
#
# Velocity S-wave (km/s) = 4.34282 5.77449 5.10905
# Velocity P-wave (km/s) = 7.01352 8.48769 7.78558
#
# Compressibility (1/GPa) = 0.02197998
#
# Stress axis : x y z
#
# Youngs Moduli (GPa) = 76.36480 76.36480 29.83294
#
# Poissons Ratio (x) = 0.08708 0.26439
# Poissons Ratio (y) = 0.08708 0.26439
# Poissons Ratio (z) = 0.67677 0.67677
#
# Static dielectric constant tensor:
#      x y z
#    x 1.692310 0.000000 0.000000 
#    y 0.000000 1.692310 0.000000 
#    z 0.000000 0.000000 1.580430 
# 
# From -- ./inp_files/4723.got.cif
#   From: 2010.05.17/outbox.cif.g08.bks.cpg/sg112_3_cif.got.tgz:4723.got - 2010.05.20 10:59:04.
