data_PCOD9555452
_publ_section_title
;
Structure prediction by ZEFSAII (Michael W. Deem and Ramdas Pophale) SiO2 
 PCOD9555452
Probable space group: P -4 21 M 
;
_chemical_formula_sum "Si O2"
_cell_formula_units_Z 48
_cell_length_a 15.218039
_cell_length_b 15.218039
_cell_length_c 12.190698
_cell_angle_alpha 90.000000
_cell_angle_beta 90.000000
_cell_angle_gamma 90.000000
_cell_volume 2823.228036
_symmetry_space_group_name_H-M "P -4 21 M "
_symmetry_group_IT_number 113
_symmetry_cell_setting 'tetragonal'
loop_
_space_group_symop_operation_xyz
x,y,z
y,-x,-z
-x,-y,z
-y,x,-z
1/2+x,1/2-y,-z
1/2-x,1/2+y,-z
1/2-y,1/2-x,z
1/2+y,1/2+x,z
loop_
_atom_site_type_symbol
_atom_site_label
_atom_site_fract_x
_atom_site_fract_y
_atom_site_fract_z
Si Si1 0.251644 0.018861 0.196420
Si Si2 0.074937 0.574937 0.935883
Si Si3 0.037383 0.311678 0.344733
Si Si4 0.852520 0.497548 0.586703
Si Si5 0.798805 0.150102 0.803813
Si Si6 0.863224 0.052554 0.012370
Si Si7 0.424412 0.075589 0.810233
O O1 0.337781 0.041009 0.124205
O O2 0.286009 0.987783 0.313917
O O3 0.197707 0.108715 0.213028
O O4 0.190464 0.954502 0.125218
O O5 0.000000 0.500000 0.929024
O O6 0.094840 0.594840 0.063286
O O7 0.110469 0.389532 0.347313
O O8 0.086419 0.227577 0.295939
O O9 0.000185 0.307674 0.467354
O O10 0.964651 0.344052 0.258124
O O11 0.906339 0.406339 0.601699
O O12 0.926201 0.573800 0.589338
O O13 0.723245 0.223245 0.814084
O O14 0.805899 0.094881 0.915844
O O15 0.953367 0.107887 0.019992
O O16 0.500000 0.000000 0.811370
#
# Coordination Sequence:
#
# PCOD9555452 Si02
#       7
#     8   4   8   8   8   8   4
#     4  11  20  33  51  79 111 142 177 223 280 327
#     4  11  20  29  49  83 115 139 172 219 275 337
#     4   9  17  30  49  71  98 135 175 212 258 321
#     4  10  18  31  51  75 107 143 177 220 272 326
#     4  10  19  34  54  77 104 143 181 226 278 325
#     4   9  20  37  56  75 104 146 187 222 268 336
#     4   9  16  27  45  73 101 124 168 215 251 308
#
# _framework density 17.001815000000001
#
# number of rings (size 3 to 8) (size 9 to 14) (size 15 to 20)
#    0.000    2.167    2.500    1.500    0.000    2.667 
#    0.000    1.667    0.000    0.000    0.000    0.000 
#    0.000    0.000    0.000    0.000    0.000    0.000 
#
# Total GULP energy -267692.824336 kJ/mol
# GULP energy per Si atom -5576.933840 kJ/mol
# Density = 1.696312 g / cm^3
# Si number density = 17.001815 Si / 1000 Ang^3
#
#
#
# Elastic Constant Matrix: (Units=GPa)
#
#
# Indices 1 2 3 4 5 6 
#
# 1 24.9143 11.8044 18.8627 0.0000 0.0000 0.0000
# 2 11.8044 24.9148 18.8631 0.0000 0.0000 0.0000
# 3 18.8627 18.8631 111.2046 0.0000 0.0000 0.0000
# 4 0.0000 0.0000 0.0000 -10.8221 0.0000 0.0000
# 5 0.0000 0.0000 0.0000 0.0000 -10.8229 0.0000
# 6 0.0000 0.0000 0.0000 0.0000 0.0000 16.6676
#
#
#
# Elastic Compliance Matrix: (Units=1/GPa)
#
#
# Indices 1 2 3 4 5 6 
#
# 1 0.054630 -0.021647 -0.005594 0.000000 0.000000 0.000000
# 2 -0.021647 0.054629 -0.005595 0.000000 0.000000 0.000000
# 3 -0.005594 -0.005595 0.010890 0.000000 0.000000 0.000000
# 4 0.000000 0.000000 0.000000 -0.092403 0.000000 0.000000
# 5 0.000000 0.000000 0.000000 0.000000 -0.092396 0.000000
# 6 0.000000 0.000000 0.000000 0.000000 0.000000 0.059997
#
#
# Mechanical properties :
#
#
# Convention : Reuss Voigt Hill
#
# Bulk Modulus (GPa) = 18.35671 28.89933 23.62802
# Shear Modulus (GPa) = 63.14973 6.43807 34.79390
#
# Velocity S-wave (km/s) = 6.10111 1.94806 4.52871
# Velocity P-wave (km/s) = 7.77507 4.70049 6.42442
#
# Compressibility (1/GPa) = 0.05447601
#
# Stress axis : x y z
#
# Youngs Moduli (GPa) = 18.30512 18.30540 91.82448
#
# Poissons Ratio (x) = 0.39626 0.51371
# Poissons Ratio (y) = 0.39626 0.51371
# Poissons Ratio (z) = 0.10241 0.10241
#
# Static dielectric constant tensor:
#      x y z
#    x 1.571840 0.000000 0.000000 
#    y 0.000000 1.571840 0.000000 
#    z 0.000000 0.000000 1.567100 
# 
# From -- ./inp_files/1863.got.cif
#   From: 2010.05.17/outbox.cif.g08.bks.cpg/sg113_cif.got.tgz:1863.got - 2010.05.20 11:03:00.
