data_PCOD9555071
_publ_section_title
;
Structure prediction by ZEFSAII (Michael W. Deem and Ramdas Pophale) SiO2 
 PCOD9555071
Probable space group: P -4 2 C
;
_chemical_formula_sum "Si O2"
_cell_formula_units_Z 38
_cell_length_a 19.619799
_cell_length_b 19.619799
_cell_length_c 4.997294
_cell_angle_alpha 90.000000
_cell_angle_beta 90.000000
_cell_angle_gamma 90.000000
_cell_volume 1923.640926
_symmetry_space_group_name_H-M "P -4 2 C"
_symmetry_group_IT_number 112
_symmetry_cell_setting 'tetragonal'
loop_
_space_group_symop_operation_xyz
x,y,z
y,-x,-z
-x,-y,z
-y,x,-z
x,-y,1/2-z
-x,y,1/2-z
-y,-x,1/2+z
y,x,1/2+z
loop_
_atom_site_type_symbol
_atom_site_label
_atom_site_fract_x
_atom_site_fract_y
_atom_site_fract_z
Si Si1 0.829544 0.421946 0.158888
Si Si2 0.258857 0.000000 0.250000
Si Si3 0.383324 0.910216 0.133254
Si Si4 0.500000 0.000000 0.250000
Si Si5 0.198413 0.132112 0.005400
Si Si6 0.310833 0.751393 0.431226
O O1 0.823943 0.500000 0.250000
O O2 0.848662 0.382292 0.428588
O O3 0.764303 0.387626 0.023170
O O4 0.886355 0.404195 0.932469
O O5 0.313421 0.951238 0.100057
O O6 0.215538 0.946158 0.423364
O O7 0.448338 0.956954 0.067025
O O8 0.146071 0.165997 0.217073
O O9 0.267331 0.177792 0.036580
O O10 0.275309 0.700057 0.635929
#
# Coordination Sequence:
#
# PCOD9555071 Si02
#       6
#     8   4   8   2   8   8
#     4  12  22  39  55  86 120 156 190 230 283 339
#     4  11  24  41  60  85 112 145 200 236 296 353
#     4  11  24  34  56  81 118 157 187 226 276 345
#     4  10  20  38  44  78 120 164 184 220 258 352
#     4  10  23  39  60  83 109 143 190 247 294 344
#     4  10  21  38  58  80 113 153 195 235 279 331
#
# _framework density 19.754207000000001
#
# number of rings (size 3 to 8) (size 9 to 14) (size 15 to 20)
#    0.000    1.263    4.211    1.263    5.895    6.737 
#    0.000    0.000    0.000    1.895    0.000    0.000 
#    0.000    2.526    0.000    0.000    0.000    0.000 
#
# Total GULP energy -212123.800632 kJ/mol
# GULP energy per Si atom -5582.205280 kJ/mol
# Density = 1.970925 g / cm^3
# Si number density = 19.754207 Si / 1000 Ang^3
#
#
#
# Elastic Constant Matrix: (Units=GPa)
#
#
# Indices 1 2 3 4 5 6 
#
# 1 78.3802 44.7296 17.3816 0.0000 0.0000 0.0000
# 2 44.7296 78.3802 17.3816 0.0000 0.0000 0.0000
# 3 17.3816 17.3816 66.7930 0.0000 0.0000 0.0000
# 4 0.0000 0.0000 0.0000 21.2571 0.0000 0.0000
# 5 0.0000 0.0000 0.0000 0.0000 21.2571 0.0000
# 6 0.0000 0.0000 0.0000 0.0000 0.0000 33.6619
#
#
#
# Elastic Compliance Matrix: (Units=1/GPa)
#
#
# Indices 1 2 3 4 5 6 
#
# 1 0.019242 -0.010475 -0.002281 0.000000 0.000000 0.000000
# 2 -0.010475 0.019242 -0.002281 0.000000 0.000000 0.000000
# 3 -0.002281 -0.002281 0.016159 0.000000 0.000000 0.000000
# 4 0.000000 0.000000 0.000000 0.047043 0.000000 0.000000
# 5 0.000000 0.000000 0.000000 0.000000 0.047043 0.000000
# 6 0.000000 0.000000 0.000000 0.000000 0.000000 0.029707
#
#
# Mechanical properties :
#
#
# Convention : Reuss Voigt Hill
#
# Bulk Modulus (GPa) = 40.70449 42.50435 41.60442
# Shear Modulus (GPa) = 23.07317 24.83923 23.95620
#
# Velocity S-wave (km/s) = 3.42133 3.54985 3.48618
# Velocity P-wave (km/s) = 6.02142 6.19397 6.10830
#
# Compressibility (1/GPa) = 0.02456731
#
# Stress axis : x y z
#
# Youngs Moduli (GPa) = 51.96930 51.96930 61.88482
#
# Poissons Ratio (x) = 0.54438 0.14119
# Poissons Ratio (y) = 0.54438 0.14119
# Poissons Ratio (z) = 0.11857 0.11857
#
# Static dielectric constant tensor:
#      x y z
#    x 1.739900 0.000000 0.000000 
#    y 0.000000 1.739900 0.000000 
#    z 0.000000 0.000000 1.723400 
# 
# From -- ./inp_files/288.got.cif
#   From: 2010.05.17/outbox.cif.g08.bks.cpg/sg112_1_cif.got.tgz:288.got - 2010.05.20 10:59:04.
