data_PCOD9555340
_publ_section_title
;
Structure prediction by ZEFSAII (Michael W. Deem and Ramdas Pophale) SiO2 
 PCOD9555340
Probable space group: P -4 2 C
;
_chemical_formula_sum "Si O2"
_cell_formula_units_Z 24
_cell_length_a 11.039713
_cell_length_b 11.039713
_cell_length_c 9.633840
_cell_angle_alpha 90.000000
_cell_angle_beta 90.000000
_cell_angle_gamma 90.000000
_cell_volume 1174.126785
_symmetry_space_group_name_H-M "P -4 2 C"
_symmetry_group_IT_number 112
_symmetry_cell_setting 'tetragonal'
loop_
_space_group_symop_operation_xyz
x,y,z
y,-x,-z
-x,-y,z
-y,x,-z
x,-y,1/2-z
-x,y,1/2-z
-y,-x,1/2+z
y,x,1/2+z
loop_
_atom_site_type_symbol
_atom_site_label
_atom_site_fract_x
_atom_site_fract_y
_atom_site_fract_z
Si Si1 0.860625 0.131177 0.792362
Si Si2 0.143869 0.500447 0.082232
Si Si3 0.747672 0.241514 0.042277
O O1 0.794004 0.233213 0.702144
O O2 0.000000 0.132419 0.750000
O O3 0.807880 0.000000 0.750000
O O4 0.839561 0.158609 0.952524
O O5 0.153914 0.500000 0.250000
O O6 0.209535 0.620838 0.027477
O O7 0.000000 0.500000 0.048743
O O8 0.207459 0.383262 0.016096
#
# Coordination Sequence:
#
# PCOD9555340 Si02
#       3
#     8   8   8
#     4  11  22  38  64  99 136 172 224 295 356 405
#     4  11  24  46  71  98 142 187 226 283 344 407
#     4  12  24  42  68 100 134 184 232 277 338 413
#
# _framework density 20.440722000000001
#
# number of rings (size 3 to 8) (size 9 to 14) (size 15 to 20)
#    0.000    0.667    3.333    6.000    0.000    4.667 
#    0.000    5.000    0.000    0.000    0.000    0.000 
#    0.000    0.000    0.000    0.000    0.000    0.000 
#
# Total GULP energy -134250.741077 kJ/mol
# GULP energy per Si atom -5593.780878 kJ/mol
# Density = 2.039420 g / cm^3
# Si number density = 20.440722 Si / 1000 Ang^3
#
#
#
# Elastic Constant Matrix: (Units=GPa)
#
#
# Indices 1 2 3 4 5 6 
#
# 1 151.4970 52.1386 20.0230 0.0000 0.0000 0.0000
# 2 52.1386 151.4970 20.0230 0.0000 0.0000 0.0000
# 3 20.0230 20.0230 58.5350 0.0000 0.0000 0.0000
# 4 0.0000 0.0000 0.0000 33.4821 0.0000 0.0000
# 5 0.0000 0.0000 0.0000 0.0000 33.4821 0.0000
# 6 0.0000 0.0000 0.0000 0.0000 0.0000 32.0195
#
#
#
# Elastic Compliance Matrix: (Units=1/GPa)
#
#
# Indices 1 2 3 4 5 6 
#
# 1 0.007665 -0.002400 -0.001801 0.000000 0.000000 0.000000
# 2 -0.002400 0.007665 -0.001801 0.000000 0.000000 0.000000
# 3 -0.001801 -0.001801 0.018316 0.000000 0.000000 0.000000
# 4 0.000000 0.000000 0.000000 0.029867 0.000000 0.000000
# 5 0.000000 0.000000 0.000000 0.000000 0.029867 0.000000
# 6 0.000000 0.000000 0.000000 0.000000 0.000000 0.031231
#
#
# Mechanical properties :
#
#
# Convention : Reuss Voigt Hill
#
# Bulk Modulus (GPa) = 46.20671 60.65534 53.43102
# Shear Modulus (GPa) = 34.76396 37.75306 36.25851
#
# Velocity S-wave (km/s) = 4.12845 4.30228 4.21626
# Velocity P-wave (km/s) = 6.73645 7.37684 7.06390
#
# Compressibility (1/GPa) = 0.02164188
#
# Stress axis : x y z
#
# Youngs Moduli (GPa) = 130.46763 130.46763 54.59737
#
# Poissons Ratio (x) = 0.31310 0.09833
# Poissons Ratio (y) = 0.31310 0.09833
# Poissons Ratio (z) = 0.23497 0.23497
#
# Static dielectric constant tensor:
#      x y z
#    x 1.728060 0.000000 0.000000 
#    y 0.000000 1.728060 0.000000 
#    z 0.000000 0.000000 1.682860 
# 
# From -- ./inp_files/791.got.cif
#   From: 2010.05.17/outbox.cif.g08.bks.cpg/sg112_1_cif.got.tgz:791.got - 2010.05.20 10:59:04.
