data_PCOD9555808
_publ_section_title
;
Structure prediction by ZEFSAII (Michael W. Deem and Ramdas Pophale) SiO2 
 PCOD9555808
Probable space group: P -4 21 M 
;
_chemical_formula_sum "Si O2"
_cell_formula_units_Z 64
_cell_length_a 21.000000
_cell_length_b 21.000000
_cell_length_c 9.000000
_cell_angle_alpha 90.000000
_cell_angle_beta 90.000000
_cell_angle_gamma 90.000000
_cell_volume 3969.000000
_symmetry_space_group_name_H-M "P -4 21 M "
_symmetry_group_IT_number 113
_symmetry_cell_setting 'tetragonal'
loop_
_space_group_symop_operation_xyz
x,y,z
y,-x,-z
-x,-y,z
-y,x,-z
1/2+x,1/2-y,-z
1/2-x,1/2+y,-z
1/2-y,1/2-x,z
1/2+y,1/2+x,z
loop_
_atom_site_type_symbol
_atom_site_label
_atom_site_fract_x
_atom_site_fract_y
_atom_site_fract_z
Si Si1 0.755007 0.151802 0.344601
Si Si2 0.856666 0.251933 0.221568
Si Si3 0.082189 0.124260 0.161680
Si Si4 0.709254 0.688126 0.320871
Si Si5 0.724151 0.503530 0.694060
Si Si6 0.086432 0.020834 0.424485
Si Si7 0.178267 0.045335 0.982222
Si Si8 0.710267 0.891884 0.446011
O O1 0.688326 0.188326 0.314937
O O2 0.809118 0.193456 0.261331
O O3 0.768898 0.159183 0.520978
O O4 0.759834 0.078087 0.302913
O O5 0.810730 0.310730 0.172424
O O6 0.909615 0.227653 0.106359
O O7 0.887941 0.272402 0.379180
O O8 0.132598 0.177162 0.222858
O O9 0.072608 0.069359 0.287821
O O10 0.016012 0.155863 0.112052
O O11 0.116961 0.088327 0.025481
O O12 0.768614 0.731387 0.261386
O O13 0.653373 0.738194 0.362290
O O14 0.661955 0.490065 0.589038
O O15 0.780054 0.460975 0.623574
O O16 0.706424 0.478870 0.859442
O O17 0.050290 0.055666 0.563161
O O18 0.642373 0.857627 0.426188
#
# Coordination Sequence:
#
# PCOD9555808 Si02
#       8
#     8   8   8   8   8   8   8   8
#     4   9  19  35  58  82 105 135 179 236 281 316
#     4   9  20  36  55  79 107 142 182 229 270 313
#     4  11  23  36  46  75 110 152 184 224 267 329
#     4   9  17  34  56  78 101 133 187 238 276 311
#     4  11  21  35  55  80 107 142 182 224 270 334
#     4  10  22  32  47  74  99 143 190 216 261 309
#     4  11  24  35  50  74 115 153 182 213 272 326
#     4   9  18  34  57  83 102 129 181 235 272 311
#
# _framework density 16.124969
#
# number of rings (size 3 to 8) (size 9 to 14) (size 15 to 20)
#    0.000    2.125    2.500    3.000    5.250    6.250 
#    0.000    0.625    0.000    0.375    0.000    0.000 
#    0.000    1.500    0.000    0.000    0.000    0.000 
#
# Total GULP energy -356839.789889 kJ/mol
# GULP energy per Si atom -5575.621717 kJ/mol
# Density = 1.608827 g / cm^3
# Si number density = 16.124969 Si / 1000 Ang^3
#
#
#
# Elastic Constant Matrix: (Units=GPa)
#
#
# Indices 1 2 3 4 5 6 
#
# 1 93.6439 43.4089 38.6626 0.0000 0.0000 0.0000
# 2 43.4089 93.6433 38.6623 0.0000 0.0000 0.0000
# 3 38.6626 38.6623 46.7231 0.0000 0.0000 0.0000
# 4 0.0000 0.0000 0.0000 27.8190 0.0000 0.0000
# 5 0.0000 0.0000 0.0000 0.0000 27.8191 0.0000
# 6 0.0000 0.0000 0.0000 0.0000 0.0000 30.4395
#
#
#
# Elastic Compliance Matrix: (Units=1/GPa)
#
#
# Indices 1 2 3 4 5 6 
#
# 1 0.016796 -0.003110 -0.011325 0.000000 0.000000 0.000000
# 2 -0.003110 0.016796 -0.011325 0.000000 0.000000 0.000000
# 3 -0.011325 -0.011325 0.040145 0.000000 0.000000 0.000000
# 4 0.000000 0.000000 0.000000 0.035947 0.000000 0.000000
# 5 0.000000 0.000000 0.000000 0.000000 0.035947 0.000000
# 6 0.000000 0.000000 0.000000 0.000000 0.000000 0.032852
#
#
# Mechanical properties :
#
#
# Convention : Reuss Voigt Hill
#
# Bulk Modulus (GPa) = 45.00987 52.83089 48.92038
# Shear Modulus (GPa) = 21.06076 24.76728 22.91402
#
# Velocity S-wave (km/s) = 3.61792 3.92338 3.77374
# Velocity P-wave (km/s) = 6.73989 7.30469 7.02797
#
# Compressibility (1/GPa) = 0.02221735
#
# Stress axis : x y z
#
# Youngs Moduli (GPa) = 59.53705 59.53715 24.90982
#
# Poissons Ratio (x) = 0.18518 0.28210
# Poissons Ratio (y) = 0.18518 0.28210
# Poissons Ratio (z) = 0.67425 0.67424
#
# Static dielectric constant tensor:
#      x y z
#    x 1.546140 0.000000 0.000000 
#    y 0.000000 1.546140 0.000000 
#    z 0.000000 0.000000 1.562030 
# 
# From -- ./inp_files/1375.got.cif
#   From: 2010.05.17/outbox.ucp.g08.bks.cvg/sg113_cif.got.tgz:1375.got - 2010.06.11 11:33:17.
