data_PCOD9555023
_publ_section_title
;
Structure prediction by ZEFSAII (Michael W. Deem and Ramdas Pophale) SiO2 
 PCOD9555023
Probable space group: P -4 2 C
;
_chemical_formula_sum "Si O2"
_cell_formula_units_Z 32
_cell_length_a 9.639695
_cell_length_b 9.639695
_cell_length_c 19.735013
_cell_angle_alpha 90.000000
_cell_angle_beta 90.000000
_cell_angle_gamma 90.000000
_cell_volume 1833.850816
_symmetry_space_group_name_H-M "P -4 2 C"
_symmetry_group_IT_number 112
_symmetry_cell_setting 'tetragonal'
loop_
_space_group_symop_operation_xyz
x,y,z
y,-x,-z
-x,-y,z
-y,x,-z
x,-y,1/2-z
-x,y,1/2-z
-y,-x,1/2+z
y,x,1/2+z
loop_
_atom_site_type_symbol
_atom_site_label
_atom_site_fract_x
_atom_site_fract_y
_atom_site_fract_z
Si Si1 0.910491 0.819143 0.966193
Si Si2 0.267970 0.006121 0.175949
Si Si3 0.493879 0.232030 0.175949
Si Si4 0.680857 0.410491 0.533807
O O1 0.966610 0.820696 0.889303
O O2 0.815870 0.684130 0.974865
O O3 0.044157 0.823770 0.014806
O O4 0.390057 0.890057 0.179915
O O5 0.198841 0.000000 0.250000
O O6 0.347801 0.152200 0.165450
O O7 0.500000 0.301159 0.250000
O O8 0.533390 0.320696 0.110697
O O9 0.544157 0.323770 0.514806
#
# Coordination Sequence:
#
# PCOD9555023 Si02
#       4
#     8   8   8   8
#     4  10  20  33  50  75 104 132 164 202 248 298
#     4   8  14  27  49  74  98 128 168 209 243 281
#     4   8  14  27  49  74  98 128 168 209 243 281
#     4  10  20  33  50  75 104 132 164 202 248 298
#
# _framework density 17.449619999999999
#
# number of rings (size 3 to 8) (size 9 to 14) (size 15 to 20)
#    0.000    3.000    0.000    3.000    0.000    3.000 
#    0.000    5.000    0.000    0.000    0.000    3.500 
#    0.000   44.000    0.000    0.000    0.000    0.000 
#
# Total GULP energy -178195.724795 kJ/mol
# GULP energy per Si atom -5568.616400 kJ/mol
# Density = 1.740990 g / cm^3
# Si number density = 17.449620 Si / 1000 Ang^3
#
#
#
# Elastic Constant Matrix: (Units=GPa)
#
#
# Indices 1 2 3 4 5 6 
#
# 1 51.3903 21.8633 72.2441 0.0000 0.0000 0.0000
# 2 21.8633 51.3903 72.2441 0.0000 0.0000 0.0000
# 3 72.2441 72.2441 183.5325 0.0000 0.0000 0.0000
# 4 0.0000 0.0000 0.0000 15.3214 0.0000 0.0000
# 5 0.0000 0.0000 0.0000 0.0000 15.3214 0.0000
# 6 0.0000 0.0000 0.0000 0.0000 0.0000 31.4076
#
#
#
# Elastic Compliance Matrix: (Units=1/GPa)
#
#
# Indices 1 2 3 4 5 6 
#
# 1 0.047461 0.013594 -0.024033 0.000000 0.000000 0.000000
# 2 0.013594 0.047461 -0.024033 0.000000 0.000000 0.000000
# 3 -0.024033 -0.024033 0.024369 0.000000 0.000000 0.000000
# 4 0.000000 0.000000 0.000000 0.065268 0.000000 0.000000
# 5 0.000000 0.000000 0.000000 0.000000 0.065268 0.000000
# 6 0.000000 0.000000 0.000000 0.000000 0.000000 0.031839
#
#
# Mechanical properties :
#
#
# Convention : Reuss Voigt Hill
#
# Bulk Modulus (GPa) = 19.86228 68.77954 44.32091
# Shear Modulus (GPa) = 13.60936 20.40755 17.00846
#
# Velocity S-wave (km/s) = 2.79574 3.42352 3.12543
# Velocity P-wave (km/s) = 4.67214 7.42489 6.20314
#
# Compressibility (1/GPa) = 0.05034669
#
# Stress axis : x y z
#
# Youngs Moduli (GPa) = 21.06981 21.06981 41.03561
#
# Poissons Ratio (x) = -0.28642 0.98622
# Poissons Ratio (y) = -0.28642 0.98622
# Poissons Ratio (z) = 0.50638 0.50638
#
# Static dielectric constant tensor:
#      x y z
#    x 1.598370 0.000000 0.000000 
#    y 0.000000 1.598370 0.000000 
#    z 0.000000 0.000000 1.629990 
# 
# From -- ./inp_files/3146.got.cif
#   From: 2010.05.17/outbox.cif.g08.bks.cpg/sg112_2_cif.got.tgz:3146.got - 2010.05.20 10:59:04.
