data_PCOD9555198
_publ_section_title
;
Structure prediction by ZEFSAII (Michael W. Deem and Ramdas Pophale) SiO2 
 PCOD9555198
Probable space group: P -4 2 C
;
_chemical_formula_sum "Si O2"
_cell_formula_units_Z 44
_cell_length_a 9.376027
_cell_length_b 9.376027
_cell_length_c 23.739469
_cell_angle_alpha 90.000000
_cell_angle_beta 90.000000
_cell_angle_gamma 90.000000
_cell_volume 2086.933926
_symmetry_space_group_name_H-M "P -4 2 C"
_symmetry_group_IT_number 112
_symmetry_cell_setting 'tetragonal'
loop_
_space_group_symop_operation_xyz
x,y,z
y,-x,-z
-x,-y,z
-y,x,-z
x,-y,1/2-z
-x,y,1/2-z
-y,-x,1/2+z
y,x,1/2+z
loop_
_atom_site_type_symbol
_atom_site_label
_atom_site_fract_x
_atom_site_fract_y
_atom_site_fract_z
Si Si1 0.036249 0.849800 0.148635
Si Si2 0.756615 0.196440 0.419902
Si Si3 0.568571 0.854229 0.810818
Si Si4 0.514160 0.668045 0.914848
Si Si5 0.500000 0.000000 0.432059
Si Si6 0.185892 0.767109 0.539118
O O1 0.110158 0.735753 0.188862
O O2 0.140183 0.864371 0.093529
O O3 0.882598 0.802918 0.124966
O O4 0.000000 0.000000 0.175711
O O5 0.723874 0.360669 0.432133
O O6 0.612497 0.110824 0.402950
O O7 0.815267 0.145899 0.480857
O O8 0.500000 0.834680 0.750000
O O9 0.539814 0.722404 0.851260
O O10 0.500000 0.000000 0.835935
O O11 0.500000 0.500000 0.919405
O O12 0.647802 0.730567 0.948695
O O13 0.383077 0.100171 0.462737
#
# Coordination Sequence:
#
# PCOD9555198 Si02
#       6
#     8   8   8   8   4   8
#     4  11  23  40  63  97 129 172 216 270 334 398
#     4  12  23  38  59  89 136 181 219 259 316 395
#     4  10  22  44  68  91 122 161 223 286 330 395
#     4  11  23  39  61  93 126 174 223 273 323 388
#     4  12  22  38  56  86 125 176 213 276 306 376
#     4  11  24  36  60  90 135 180 222 254 316 393
#
# _framework density 21.083561
#
# number of rings (size 3 to 8) (size 9 to 14) (size 15 to 20)
#    0.000    0.909    5.455    2.182    0.000    1.818 
#    0.000    1.818    0.000    0.000    0.000    1.273 
#    0.000    0.000    0.000    0.000    0.000    0.000 
#
# Total GULP energy -245605.711199 kJ/mol
# GULP energy per Si atom -5581.947982 kJ/mol
# Density = 2.103557 g / cm^3
# Si number density = 21.083561 Si / 1000 Ang^3
#
#
#
# Elastic Constant Matrix: (Units=GPa)
#
#
# Indices 1 2 3 4 5 6 
#
# 1 96.7690 16.0369 14.0925 0.0000 0.0000 0.0000
# 2 16.0369 96.7690 14.0925 0.0000 0.0000 0.0000
# 3 14.0925 14.0925 68.8053 0.0000 0.0000 0.0000
# 4 0.0000 0.0000 0.0000 18.9619 0.0000 0.0000
# 5 0.0000 0.0000 0.0000 0.0000 18.9619 0.0000
# 6 0.0000 0.0000 0.0000 0.0000 0.0000 49.4512
#
#
#
# Elastic Compliance Matrix: (Units=1/GPa)
#
#
# Indices 1 2 3 4 5 6 
#
# 1 0.010865 -0.001522 -0.001914 0.000000 0.000000 0.000000
# 2 -0.001522 0.010865 -0.001914 0.000000 0.000000 0.000000
# 3 -0.001914 -0.001914 0.015318 0.000000 0.000000 0.000000
# 4 0.000000 0.000000 0.000000 0.052737 0.000000 0.000000
# 5 0.000000 0.000000 0.000000 0.000000 0.052737 0.000000
# 6 0.000000 0.000000 0.000000 0.000000 0.000000 0.020222
#
#
# Mechanical properties :
#
#
# Convention : Reuss Voigt Hill
#
# Bulk Modulus (GPa) = 37.95199 38.97636 38.46417
# Shear Modulus (GPa) = 27.43865 32.01644 29.72755
#
# Velocity S-wave (km/s) = 3.61144 3.90109 3.75905
# Velocity P-wave (km/s) = 5.95229 6.23041 6.09294
#
# Compressibility (1/GPa) = 0.02634908
#
# Stress axis : x y z
#
# Youngs Moduli (GPa) = 92.04056 92.04056 65.28423
#
# Poissons Ratio (x) = 0.14007 0.12493
# Poissons Ratio (y) = 0.14007 0.12493
# Poissons Ratio (z) = 0.17613 0.17613
#
# Static dielectric constant tensor:
#      x y z
#    x 1.809510 0.000000 0.000000 
#    y 0.000000 1.809510 0.000000 
#    z 0.000000 0.000000 1.768820 
# 
# From -- ./inp_files/6188.got.cif
#   From: 2010.05.17/outbox.cif.g08.bks.cpg/sg112_4_cif.got.tgz:6188.got - 2010.05.20 10:59:04.
