data_PCOD9555763
_publ_section_title
;
Structure prediction by ZEFSAII (Michael W. Deem and Ramdas Pophale) SiO2 
 PCOD9555763
Probable space group: P -4 21 M 
;
_chemical_formula_sum "Si O2"
_cell_formula_units_Z 24
_cell_length_a 10.945210
_cell_length_b 10.945210
_cell_length_c 8.397146
_cell_angle_alpha 90.000000
_cell_angle_beta 90.000000
_cell_angle_gamma 90.000000
_cell_volume 1005.958122
_symmetry_space_group_name_H-M "P -4 21 M "
_symmetry_group_IT_number 113
_symmetry_cell_setting 'tetragonal'
loop_
_space_group_symop_operation_xyz
x,y,z
y,-x,-z
-x,-y,z
-y,x,-z
1/2+x,1/2-y,-z
1/2-x,1/2+y,-z
1/2-y,1/2-x,z
1/2+y,1/2+x,z
loop_
_atom_site_type_symbol
_atom_site_label
_atom_site_fract_x
_atom_site_fract_y
_atom_site_fract_z
Si Si1 0.365939 0.540684 0.281186
Si Si2 0.895543 0.395543 0.821923
Si Si3 0.393714 0.106287 0.549810
Si Si4 0.727107 0.575909 0.975903
O O1 0.500000 0.500000 0.346288
O O2 0.237569 0.556169 0.378765
O O3 0.380989 0.667762 0.188350
O O4 0.350274 0.449002 0.132309
O O5 0.868906 0.368906 0.637849
O O6 0.787941 0.448722 0.926597
O O7 0.000000 0.500000 0.814958
O O8 0.500000 0.000000 0.568564
O O9 0.832178 0.667823 0.024166
#
# Coordination Sequence:
#
# PCOD9555763 Si02
#       4
#     8   4   4   8
#     4  12  23  42  69 112 145 185 251 316 371 438
#     4   9  23  45  69  99 139 202 247 292 360 455
#     4  11  25  51  75 104 153 206 251 295 376 465
#     4  11  21  41  68  96 145 190 246 305 371 439
#
# _framework density 23.857852999999999
#
# number of rings (size 3 to 8) (size 9 to 14) (size 15 to 20)
#    0.000    1.000    5.000    2.000    0.000    1.333 
#    9.000    1.667    0.000    0.000    0.000    0.000 
#    0.000    0.000    0.000    0.000    0.000    0.000 
#
# Total GULP energy -133862.056303 kJ/mol
# GULP energy per Si atom -5577.585679 kJ/mol
# Density = 2.380355 g / cm^3
# Si number density = 23.857853 Si / 1000 Ang^3
#
#
#
# Elastic Constant Matrix: (Units=GPa)
#
#
# Indices 1 2 3 4 5 6 
#
# 1 126.7082 44.9906 45.3974 0.0000 0.0000 0.0000
# 2 44.9906 126.7077 45.3968 0.0000 0.0000 0.0000
# 3 45.3974 45.3968 133.4757 0.0000 0.0000 0.0000
# 4 0.0000 0.0000 0.0000 53.6272 0.0000 0.0000
# 5 0.0000 0.0000 0.0000 0.0000 53.7660 0.0000
# 6 0.0000 0.0000 0.0000 0.0000 0.0000 57.4329
#
#
#
# Elastic Compliance Matrix: (Units=1/GPa)
#
#
# Indices 1 2 3 4 5 6 
#
# 1 0.009669 -0.002568 -0.002415 0.000000 0.000000 0.000000
# 2 -0.002568 0.009669 -0.002415 0.000000 0.000000 0.000000
# 3 -0.002415 -0.002415 0.009135 0.000000 0.000000 0.000000
# 4 0.000000 0.000000 0.000000 0.018647 0.000000 0.000000
# 5 0.000000 0.000000 0.000000 0.000000 0.018599 0.000000
# 6 0.000000 0.000000 0.000000 0.000000 0.000000 0.017412
#
#
# Mechanical properties :
#
#
# Convention : Reuss Voigt Hill
#
# Bulk Modulus (GPa) = 73.11786 73.16236 73.14011
# Shear Modulus (GPa) = 48.78641 49.70565 49.24603
#
# Velocity S-wave (km/s) = 4.52694 4.56939 4.54821
# Velocity P-wave (km/s) = 7.61827 7.65321 7.63576
#
# Compressibility (1/GPa) = 0.01367655
#
# Stress axis : x y z
#
# Youngs Moduli (GPa) = 103.41976 103.41969 109.46965
#
# Poissons Ratio (x) = 0.26558 0.26440
# Poissons Ratio (y) = 0.26558 0.26440
# Poissons Ratio (z) = 0.24979 0.24979
#
# Static dielectric constant tensor:
#      x y z
#    x 2.139340 0.000000 0.000000 
#    y 0.000000 2.139330 0.000000 
#    z 0.000000 0.000000 1.813380 
# 
# From -- ./inp_files/719.got.cif
#   From: 2010.05.17/outbox.cif.g08.bks.cpg/sg113_cif.got.tgz:719.got - 2010.05.20 11:03:00.
