data_PCOD9555072
_publ_section_title
;
Structure prediction by ZEFSAII (Michael W. Deem and Ramdas Pophale) SiO2 
 PCOD9555072
Probable space group: P -4 2 C
;
_chemical_formula_sum "Si O2"
_cell_formula_units_Z 34
_cell_length_a 11.607567
_cell_length_b 11.607567
_cell_length_c 13.468127
_cell_angle_alpha 90.000000
_cell_angle_beta 90.000000
_cell_angle_gamma 90.000000
_cell_volume 1814.636329
_symmetry_space_group_name_H-M "P -4 2 C"
_symmetry_group_IT_number 112
_symmetry_cell_setting 'tetragonal'
loop_
_space_group_symop_operation_xyz
x,y,z
y,-x,-z
-x,-y,z
-y,x,-z
x,-y,1/2-z
-x,y,1/2-z
-y,-x,1/2+z
y,x,1/2+z
loop_
_atom_site_type_symbol
_atom_site_label
_atom_site_fract_x
_atom_site_fract_y
_atom_site_fract_z
Si Si1 0.072414 0.232480 0.569084
Si Si2 0.370541 0.762005 0.282182
Si Si3 0.410556 0.355308 0.545048
Si Si4 0.000000 0.000000 0.000000
Si Si5 0.265264 0.801331 0.075641
O O1 0.144983 0.302936 0.650063
O O2 0.064910 0.092312 0.569959
O O3 0.144218 0.246786 0.466712
O O4 0.939626 0.266632 0.577702
O O5 0.500000 0.796958 0.250000
O O6 0.379138 0.646068 0.348511
O O7 0.297956 0.751739 0.182036
O O8 0.363630 0.453576 0.468927
O O9 0.361212 0.237138 0.503545
#
# Coordination Sequence:
#
# PCOD9555072 Si02
#       5
#     8   8   8   2   8
#     4   9  20  36  60  84 125 157 198 254 299 361
#     4  11  21  37  61  92 116 157 208 256 306 372
#     4  10  21  39  58  84 120 157 197 253 312 364
#     4   8  16  40  58  84 120 166 196 232 306 360
#     4  10  20  38  55  89 119 158 200 247 308 359
#
# _framework density 18.736537999999999
#
# number of rings (size 3 to 8) (size 9 to 14) (size 15 to 20)
#    0.000    2.118    2.353    0.706    0.000    2.824 
#    0.000   25.882    0.000    0.000    0.000   13.176 
#    0.000    0.000    0.000    0.000    0.000    0.000 
#
# Total GULP energy -189276.768628 kJ/mol
# GULP energy per Si atom -5566.963783 kJ/mol
# Density = 1.869389 g / cm^3
# Si number density = 18.736538 Si / 1000 Ang^3
#
#
#
# Elastic Constant Matrix: (Units=GPa)
#
#
# Indices 1 2 3 4 5 6 
#
# 1 28.6296 35.1434 48.6513 0.0000 0.0000 0.0000
# 2 35.1434 28.6296 48.6513 0.0000 0.0000 0.0000
# 3 48.6513 48.6513 123.0650 0.0000 0.0000 0.0000
# 4 0.0000 0.0000 0.0000 23.0315 0.0000 0.0000
# 5 0.0000 0.0000 0.0000 0.0000 23.0315 0.0000
# 6 0.0000 0.0000 0.0000 0.0000 0.0000 23.2063
#
#
#
# Elastic Compliance Matrix: (Units=1/GPa)
#
#
# Indices 1 2 3 4 5 6 
#
# 1 -0.057003 0.096518 -0.015622 0.000000 0.000000 0.000000
# 2 0.096518 -0.057003 -0.015622 0.000000 0.000000 0.000000
# 3 -0.015622 -0.015622 0.020477 0.000000 0.000000 0.000000
# 4 0.000000 0.000000 0.000000 0.043419 0.000000 0.000000
# 5 0.000000 0.000000 0.000000 0.000000 0.043419 0.000000
# 6 0.000000 0.000000 0.000000 0.000000 0.000000 0.043092
#
#
# Mechanical properties :
#
#
# Convention : Reuss Voigt Hill
#
# Bulk Modulus (GPa) = 27.01122 49.46847 38.23985
# Shear Modulus (GPa) = -61.11871 17.04576 -22.03647
#
# Velocity S-wave (km/s) = -5.71759 3.01950 -3.43319
# Velocity P-wave (km/s) = 5.39817 6.21417 2.17666
#
# Compressibility (1/GPa) = 0.03702165
#
# Stress axis : x y z
#
# Youngs Moduli (GPa) = -17.54304 -17.54304 48.83474
#
# Poissons Ratio (x) = 1.69322 0.76288
# Poissons Ratio (y) = 1.69322 0.76288
# Poissons Ratio (z) = -0.27405 -0.27405
#
# Static dielectric constant tensor:
#      x y z
#    x 1.685760 0.000000 0.000000 
#    y 0.000000 1.685760 0.000000 
#    z 0.000000 0.000000 1.648580 
# 
# From -- ./inp_files/2251.got.cif
#   From: 2010.05.17/outbox.cif.g08.bks.cpg/sg112_2_cif.got.tgz:2251.got - 2010.05.20 10:59:04.
