data_PCOD9555929
_publ_section_title
;
Structure prediction by ZEFSAII (Michael W. Deem and Ramdas Pophale) SiO2 
 PCOD9555929
Probable space group: P -4 21 C
;
_chemical_formula_sum "Si O2"
_cell_formula_units_Z 34
_cell_length_a 8.777140
_cell_length_b 8.777140
_cell_length_c 18.806380
_cell_angle_alpha 90.000000
_cell_angle_beta 90.000000
_cell_angle_gamma 90.000000
_cell_volume 1448.809411
_symmetry_space_group_name_H-M "P -4 21 C"
_symmetry_group_IT_number 114
_symmetry_cell_setting 'tetragonal'
loop_
_space_group_symop_operation_xyz
x,y,z
y,-x,-z
-x,-y,z
-y,x,-z
1/2+x,1/2-y,1/2-z
1/2-x,1/2+y,1/2-z
1/2-y,1/2-x,1/2+z
1/2+y,1/2+x,1/2+z
loop_
_atom_site_type_symbol
_atom_site_label
_atom_site_fract_x
_atom_site_fract_y
_atom_site_fract_z
Si Si1 0.935121 0.829335 0.725519
Si Si2 0.143783 0.796028 0.604428
Si Si3 0.500000 0.500000 0.000000
Si Si4 0.553011 0.331641 0.603688
Si Si5 0.646819 0.914273 0.646059
O O1 0.935835 0.810839 0.809844
O O2 0.763028 0.820628 0.695977
O O3 0.051145 0.739688 0.673776
O O4 0.000000 0.000000 0.714998
O O5 0.274869 0.685792 0.577427
O O6 0.019632 0.851542 0.548348
O O7 0.245785 0.949394 0.618207
O O8 0.500000 0.500000 0.587244
O O9 0.430391 0.198472 0.588473
O O10 0.500000 0.000000 0.680453
#
# Coordination Sequence:
#
# PCOD9555929 Si02
#       5
#     8   8   2   8   8
#     4   9  16  32  54  90 121 154 205 248 300 370
#     4  10  20  36  63  88 112 165 206 255 297 358
#     4  12  20  40  72  84 120 152 244 250 268 388
#     4  10  20  33  57  87 130 154 189 256 323 374
#     4   9  17  32  54  80 117 158 203 236 309 360
#
# _framework density 23.467542000000002
#
# number of rings (size 3 to 8) (size 9 to 14) (size 15 to 20)
#    0.000    2.353    3.529    1.412    0.000    1.882 
#    0.000    1.176   15.529    0.000    0.000    0.000 
#    0.000    0.000    0.000    0.000    0.000    0.000 
#
# Total GULP energy -189462.583681 kJ/mol
# GULP energy per Si atom -5572.428932 kJ/mol
# Density = 2.341413 g / cm^3
# Si number density = 23.467542 Si / 1000 Ang^3
#
#
#
# Elastic Constant Matrix: (Units=GPa)
#
#
# Indices 1 2 3 4 5 6 
#
# 1 83.7969 24.4977 6.4483 0.0000 0.0000 0.0000
# 2 24.4977 83.7969 6.4483 0.0000 0.0000 0.0000
# 3 6.4483 6.4483 60.6748 0.0000 0.0000 0.0000
# 4 0.0000 0.0000 0.0000 8.4683 0.0000 0.0000
# 5 0.0000 0.0000 0.0000 0.0000 8.4683 0.0000
# 6 0.0000 0.0000 0.0000 0.0000 0.0000 35.9092
#
#
#
# Elastic Compliance Matrix: (Units=1/GPa)
#
#
# Indices 1 2 3 4 5 6 
#
# 1 0.013108 -0.003756 -0.000994 0.000000 0.000000 0.000000
# 2 -0.003756 0.013108 -0.000994 0.000000 0.000000 0.000000
# 3 -0.000994 -0.000994 0.016693 0.000000 0.000000 0.000000
# 4 0.000000 0.000000 0.000000 0.118087 0.000000 0.000000
# 5 0.000000 0.000000 0.000000 0.000000 0.118087 0.000000
# 6 0.000000 0.000000 0.000000 0.000000 0.000000 0.027848
#
#
# Mechanical properties :
#
#
# Convention : Reuss Voigt Hill
#
# Bulk Modulus (GPa) = 31.82516 33.67301 32.74909
# Shear Modulus (GPa) = 15.20259 23.29414 19.24836
#
# Velocity S-wave (km/s) = 2.54798 3.15399 2.86704
# Velocity P-wave (km/s) = 4.71668 5.25770 4.99452
#
# Compressibility (1/GPa) = 0.03142168
#
# Stress axis : x y z
#
# Youngs Moduli (GPa) = 76.28905 76.28905 59.90691
#
# Poissons Ratio (x) = 0.28651 0.05954
# Poissons Ratio (y) = 0.28651 0.05954
# Poissons Ratio (z) = 0.07583 0.07583
#
# Static dielectric constant tensor:
#      x y z
#    x 1.958150 0.000000 0.000000 
#    y 0.000000 1.958150 0.000000 
#    z 0.000000 0.000000 1.957940 
# 
# From -- ./inp_files/2938.got.cif
#   From: 2010.05.17/outbox.cif.g08.bks.cpg/sg114_2_cif.got.tgz:2938.got - 2010.05.20 11:04:54.
