data_PCOD9555563
_publ_section_title
;
Structure prediction by ZEFSAII (Michael W. Deem and Ramdas Pophale) SiO2 
 PCOD9555563
Probable space group: P -4 21 M 
;
_chemical_formula_sum "Si O2"
_cell_formula_units_Z 48
_cell_length_a 18.884317
_cell_length_b 18.884317
_cell_length_c 7.755935
_cell_angle_alpha 90.000000
_cell_angle_beta 90.000000
_cell_angle_gamma 90.000000
_cell_volume 2765.901596
_symmetry_space_group_name_H-M "P -4 21 M "
_symmetry_group_IT_number 113
_symmetry_cell_setting 'tetragonal'
loop_
_space_group_symop_operation_xyz
x,y,z
y,-x,-z
-x,-y,z
-y,x,-z
1/2+x,1/2-y,-z
1/2-x,1/2+y,-z
1/2-y,1/2-x,z
1/2+y,1/2+x,z
loop_
_atom_site_type_symbol
_atom_site_label
_atom_site_fract_x
_atom_site_fract_y
_atom_site_fract_z
Si Si1 0.800941 0.180175 0.427009
Si Si2 0.066838 0.312598 0.513325
Si Si3 0.616738 0.996004 0.793670
Si Si4 0.764801 0.854435 0.239129
Si Si5 0.228018 0.846442 0.051202
Si Si6 0.710344 0.002370 0.122877
O O1 0.740797 0.240797 0.440554
O O2 0.762302 0.107384 0.482685
O O3 0.857952 0.204212 0.567087
O O4 0.816367 0.173062 0.223915
O O5 0.127925 0.372076 0.507880
O O6 0.017739 0.326049 0.349402
O O7 0.025648 0.320831 0.692448
O O8 0.559374 0.059374 0.802644
O O9 0.574211 0.925790 0.742605
O O10 0.651829 0.987726 0.979065
O O11 0.691860 0.808141 0.239514
O O12 0.753122 0.930965 0.158186
O O13 0.818758 0.810169 0.119126
O O14 0.302029 0.802029 0.065293
O O15 0.245682 0.929259 0.057324
#
# Coordination Sequence:
#
# PCOD9555563 Si02
#       6
#     8   8   8   8   8   8
#     4   8  15  30  50  68  89 121 162 206 245 285
#     4   9  18  33  52  71  94 133 178 208 239 296
#     4  10  20  31  44  68 105 142 168 195 238 295
#     4  10  20  32  49  76 105 129 160 210 264 303
#     4   9  18  34  54  73  97 133 173 207 245 302
#     4  11  20  32  52  76  99 130 172 215 254 298
#
# _framework density 17.354198
#
# number of rings (size 3 to 8) (size 9 to 14) (size 15 to 20)
#    0.000    2.500    0.000    4.000    0.000    5.333 
#    0.000    3.333    0.000    0.500    0.000    0.000 
#    0.000    0.000    0.000    0.000    0.000    0.000 
#
# Total GULP energy -267565.578497 kJ/mol
# GULP energy per Si atom -5574.282885 kJ/mol
# Density = 1.731470 g / cm^3
# Si number density = 17.354198 Si / 1000 Ang^3
#
#
#
# Elastic Constant Matrix: (Units=GPa)
#
#
# Indices 1 2 3 4 5 6 
#
# 1 28.8020 -6.7547 -5.8000 0.0000 0.0000 0.0000
# 2 -6.7547 28.8003 -5.8000 0.0000 0.0000 0.0000
# 3 -5.8000 -5.8000 39.2303 0.0000 0.0000 0.0000
# 4 0.0000 0.0000 0.0000 4.9895 0.0000 0.0000
# 5 0.0000 0.0000 0.0000 0.0000 4.9912 0.0000
# 6 0.0000 0.0000 0.0000 0.0000 0.0000 0.5938
#
#
#
# Elastic Compliance Matrix: (Units=1/GPa)
#
#
# Indices 1 2 3 4 5 6 
#
# 1 0.038654 0.010530 0.007272 0.000000 0.000000 0.000000
# 2 0.010530 0.038656 0.007272 0.000000 0.000000 0.000000
# 3 0.007272 0.007272 0.027641 0.000000 0.000000 0.000000
# 4 0.000000 0.000000 0.000000 0.200421 0.000000 0.000000
# 5 0.000000 0.000000 0.000000 0.000000 0.200353 0.000000
# 6 0.000000 0.000000 0.000000 0.000000 0.000000 1.683945
#
#
# Mechanical properties :
#
#
# Convention : Reuss Voigt Hill
#
# Bulk Modulus (GPa) = 6.44755 6.68034 6.56394
# Shear Modulus (GPa) = 2.28183 9.79406 6.03795
#
# Velocity S-wave (km/s) = 1.14792 2.37821 1.86730
# Velocity P-wave (km/s) = 2.34100 3.37623 2.90510
#
# Compressibility (1/GPa) = 0.15509779
#
# Stress axis : x y z
#
# Youngs Moduli (GPa) = 25.87071 25.86918 36.17858
#
# Poissons Ratio (x) = -0.27241 -0.26308
# Poissons Ratio (y) = -0.27242 -0.26309
# Poissons Ratio (z) = -0.18812 -0.18812
#
# Static dielectric constant tensor:
#      x y z
#    x 1.582430 0.000000 0.000000 
#    y 0.000000 1.582430 0.000000 
#    z 0.000000 0.000000 1.610780 
# 
# From -- ./inp_files/1166.got.cif
#   From: 2010.05.17/outbox.cif.g08.bks.cpg/sg113_cif.got.tgz:1166.got - 2010.05.20 11:03:00.
