data_PCOD9555246
_publ_section_title
;
Structure prediction by ZEFSAII (Michael W. Deem and Ramdas Pophale) SiO2 
 PCOD9555246
Probable space group: P -4 2 C
;
_chemical_formula_sum "Si O2"
_cell_formula_units_Z 36
_cell_length_a 14.362814
_cell_length_b 14.362814
_cell_length_c 8.525020
_cell_angle_alpha 90.000000
_cell_angle_beta 90.000000
_cell_angle_gamma 90.000000
_cell_volume 1758.630007
_symmetry_space_group_name_H-M "P -4 2 C"
_symmetry_group_IT_number 112
_symmetry_cell_setting 'tetragonal'
loop_
_space_group_symop_operation_xyz
x,y,z
y,-x,-z
-x,-y,z
-y,x,-z
x,-y,1/2-z
-x,y,1/2-z
-y,-x,1/2+z
y,x,1/2+z
loop_
_atom_site_type_symbol
_atom_site_label
_atom_site_fract_x
_atom_site_fract_y
_atom_site_fract_z
Si Si1 0.842918 0.660113 0.453141
Si Si2 0.500000 0.500000 0.500000
Si Si3 0.363184 0.060208 0.511431
Si Si4 0.500000 0.000000 0.250000
Si Si5 0.500000 0.853060 0.750000
Si Si6 0.500000 0.658410 0.250000
Si Si7 0.222512 0.313439 0.806932
O O1 0.812107 0.555549 0.398389
O O2 0.815674 0.682241 0.630897
O O3 0.780100 0.719003 0.334849
O O4 0.955414 0.671996 0.458259
O O5 0.472340 0.587631 0.390777
O O6 0.419201 0.090541 0.663865
O O7 0.302599 0.143651 0.442448
O O8 0.435952 0.055798 0.367070
O O9 0.410333 0.717639 0.188740
#
# Coordination Sequence:
#
# PCOD9555246 Si02
#       7
#     8   2   8   2   4   4   8
#     4  12  24  40  62  95 127 168 216 277 341 401
#     4  10  24  42  56  78 128 182 224 274 308 406
#     4  12  22  41  64  97 128 166 214 276 342 397
#     4  12  18  38  70  88 132 166 204 278 336 392
#     4  12  23  38  66  93 126 165 218 276 338 396
#     4  11  23  40  58  84 124 176 227 265 330 390
#     4  12  25  40  63  92 129 170 220 280 335 413
#
# _framework density 20.470479000000001
#
# number of rings (size 3 to 8) (size 9 to 14) (size 15 to 20)
#    0.000    0.222    4.444    6.000    0.000    3.556 
#    0.000    0.000    0.000    0.667    0.000    3.111 
#    0.000    0.000    0.000    0.000    0.000    0.000 
#
# Total GULP energy -200581.920870 kJ/mol
# GULP energy per Si atom -5571.720024 kJ/mol
# Density = 2.042389 g / cm^3
# Si number density = 20.470479 Si / 1000 Ang^3
#
#
#
# Elastic Constant Matrix: (Units=GPa)
#
#
# Indices 1 2 3 4 5 6 
#
# 1 100.8307 56.2778 36.0465 0.0000 0.0000 0.0000
# 2 56.2778 100.8307 36.0465 0.0000 0.0000 0.0000
# 3 36.0465 36.0465 129.4848 0.0000 0.0000 0.0000
# 4 0.0000 0.0000 0.0000 37.7531 0.0000 0.0000
# 5 0.0000 0.0000 0.0000 0.0000 37.7531 0.0000
# 6 0.0000 0.0000 0.0000 0.0000 0.0000 18.5325
#
#
#
# Elastic Compliance Matrix: (Units=1/GPa)
#
#
# Indices 1 2 3 4 5 6 
#
# 1 0.014871 -0.007574 -0.002031 0.000000 0.000000 0.000000
# 2 -0.007574 0.014871 -0.002031 0.000000 0.000000 0.000000
# 3 -0.002031 -0.002031 0.008854 0.000000 0.000000 0.000000
# 4 0.000000 0.000000 0.000000 0.026488 0.000000 0.000000
# 5 0.000000 0.000000 0.000000 0.000000 0.026488 0.000000
# 6 0.000000 0.000000 0.000000 0.000000 0.000000 0.053959
#
#
# Mechanical properties :
#
#
# Convention : Reuss Voigt Hill
#
# Bulk Modulus (GPa) = 65.26285 65.32084 65.29184
# Shear Modulus (GPa) = 28.75006 32.32611 30.53808
#
# Velocity S-wave (km/s) = 3.75168 3.97817 3.86659
# Velocity P-wave (km/s) = 7.12162 7.28562 7.20409
#
# Compressibility (1/GPa) = 0.01532265
#
# Stress axis : x y z
#
# Youngs Moduli (GPa) = 67.24399 67.24399 112.94406
#
# Poissons Ratio (x) = 0.50931 0.22944
# Poissons Ratio (y) = 0.50931 0.22944
# Poissons Ratio (z) = 0.13660 0.13660
#
# Static dielectric constant tensor:
#      x y z
#    x 1.872680 0.000000 0.000000 
#    y 0.000000 1.872680 0.000000 
#    z 0.000000 0.000000 1.785300 
# 
# From -- ./inp_files/1190.got.cif
#   From: 2010.05.17/outbox.cif.g08.bks.cpg/sg112_1_cif.got.tgz:1190.got - 2010.05.20 10:59:04.
