data_PCOD9555301
_publ_section_title
;
Structure prediction by ZEFSAII (Michael W. Deem and Ramdas Pophale) SiO2 
 PCOD9555301
Probable space group: P -4 2 C
;
_chemical_formula_sum "Si O2"
_cell_formula_units_Z 48
_cell_length_a 11.385247
_cell_length_b 11.385247
_cell_length_c 20.064650
_cell_angle_alpha 90.000000
_cell_angle_beta 90.000000
_cell_angle_gamma 90.000000
_cell_volume 2600.857167
_symmetry_space_group_name_H-M "P -4 2 C"
_symmetry_group_IT_number 112
_symmetry_cell_setting 'tetragonal'
loop_
_space_group_symop_operation_xyz
x,y,z
y,-x,-z
-x,-y,z
-y,x,-z
x,-y,1/2-z
-x,y,1/2-z
-y,-x,1/2+z
y,x,1/2+z
loop_
_atom_site_type_symbol
_atom_site_label
_atom_site_fract_x
_atom_site_fract_y
_atom_site_fract_z
Si Si1 0.058328 0.177920 0.486697
Si Si2 0.772605 0.744110 0.896283
Si Si3 0.628012 0.983018 0.095504
Si Si4 0.355332 0.624695 0.483878
Si Si5 0.371293 0.644943 0.714023
Si Si6 0.396465 0.735823 0.341408
O O1 0.122877 0.203789 0.417734
O O2 0.056408 0.285549 0.537093
O O3 0.927171 0.130981 0.478948
O O4 0.664173 0.731237 0.845676
O O5 0.895231 0.681020 0.874992
O O6 0.737412 0.680440 0.965705
O O7 0.605225 0.874568 0.145461
O O8 0.500000 0.000000 0.064650
O O9 0.484520 0.655191 0.512557
O O10 0.353674 0.672629 0.408732
O O11 0.500000 0.639550 0.750000
O O12 0.326360 0.521090 0.680159
O O13 0.289363 0.678227 0.776036
#
# Coordination Sequence:
#
# PCOD9555301 Si02
#       6
#     8   8   8   8   8   8
#     4   9  20  38  62  89 122 158 202 262 319 369
#     4  11  21  37  58  86 122 155 208 253 307 369
#     4  11  20  36  58  93 120 152 201 257 312 364
#     4  11  20  31  53  82 114 156 198 249 302 380
#     4  11  23  38  54  83 125 169 198 241 304 383
#     4  11  21  35  53  80 123 156 198 241 313 365
#
# _framework density 18.455454
#
# number of rings (size 3 to 8) (size 9 to 14) (size 15 to 20)
#    0.000    1.333    5.000    2.000    2.333    0.667 
#    0.000    0.000    0.000    1.000    0.000    7.000 
#    0.000    0.000    0.000    0.000    0.000    0.000 
#
# Total GULP energy -267321.949950 kJ/mol
# GULP energy per Si atom -5569.207291 kJ/mol
# Density = 1.841345 g / cm^3
# Si number density = 18.455454 Si / 1000 Ang^3
#
#
#
# Elastic Constant Matrix: (Units=GPa)
#
#
# Indices 1 2 3 4 5 6 
#
# 1 94.1348 36.0822 37.8294 0.0000 0.0000 0.0000
# 2 36.0822 94.1348 37.8294 0.0000 0.0000 0.0000
# 3 37.8294 37.8294 104.9014 0.0000 0.0000 0.0000
# 4 0.0000 0.0000 0.0000 22.7615 0.0000 0.0000
# 5 0.0000 0.0000 0.0000 0.0000 22.7615 0.0000
# 6 0.0000 0.0000 0.0000 0.0000 0.0000 14.5503
#
#
#
# Elastic Compliance Matrix: (Units=1/GPa)
#
#
# Indices 1 2 3 4 5 6 
#
# 1 0.013470 -0.003755 -0.003503 0.000000 0.000000 0.000000
# 2 -0.003755 0.013470 -0.003503 0.000000 0.000000 0.000000
# 3 -0.003503 -0.003503 0.012060 0.000000 0.000000 0.000000
# 4 0.000000 0.000000 0.000000 0.043934 0.000000 0.000000
# 5 0.000000 0.000000 0.000000 0.000000 0.043934 0.000000
# 6 0.000000 0.000000 0.000000 0.000000 0.000000 0.068727
#
#
# Mechanical properties :
#
#
# Convention : Reuss Voigt Hill
#
# Bulk Modulus (GPa) = 57.22148 57.40589 57.31369
# Shear Modulus (GPa) = 22.42707 24.11000 23.26853
#
# Velocity S-wave (km/s) = 3.48975 3.61832 3.55462
# Velocity P-wave (km/s) = 6.87825 6.97345 6.92601
#
# Compressibility (1/GPa) = 0.01747595
#
# Stress axis : x y z
#
# Youngs Moduli (GPa) = 74.23683 74.23683 82.92172
#
# Poissons Ratio (x) = 0.27879 0.29051
# Poissons Ratio (y) = 0.27879 0.29051
# Poissons Ratio (z) = 0.26008 0.26008
#
# Static dielectric constant tensor:
#      x y z
#    x 1.702010 0.000000 0.000000 
#    y 0.000000 1.702010 0.000000 
#    z 0.000000 0.000000 1.636360 
# 
# From -- ./inp_files/4846.got.cif
#   From: 2010.05.17/outbox.cif.g08.bks.cpg/sg112_3_cif.got.tgz:4846.got - 2010.05.20 10:59:04.
