data_PCOD9555212
_publ_section_title
;
Structure prediction by ZEFSAII (Michael W. Deem and Ramdas Pophale) SiO2 
 PCOD9555212
Probable space group: P -4 2 C
;
_chemical_formula_sum "Si O2"
_cell_formula_units_Z 26
_cell_length_a 9.213862
_cell_length_b 9.213862
_cell_length_c 15.416716
_cell_angle_alpha 90.000000
_cell_angle_beta 90.000000
_cell_angle_gamma 90.000000
_cell_volume 1308.806005
_symmetry_space_group_name_H-M "P -4 2 C"
_symmetry_group_IT_number 112
_symmetry_cell_setting 'tetragonal'
loop_
_space_group_symop_operation_xyz
x,y,z
y,-x,-z
-x,-y,z
-y,x,-z
x,-y,1/2-z
-x,y,1/2-z
-y,-x,1/2+z
y,x,1/2+z
loop_
_atom_site_type_symbol
_atom_site_label
_atom_site_fract_x
_atom_site_fract_y
_atom_site_fract_z
Si Si1 0.474625 0.668736 0.851730
Si Si2 0.000000 0.000000 0.750000
Si Si3 0.088933 0.634380 0.033350
Si Si4 0.834271 0.802798 0.115789
O O1 0.500000 0.500000 0.870980
O O2 0.500000 0.698276 0.750000
O O3 0.570464 0.771359 0.915542
O O4 0.305814 0.704852 0.861718
O O5 0.910191 0.108053 0.811685
O O6 0.000000 0.500000 0.990004
O O7 0.972285 0.699329 0.099649
O O8 0.121476 0.767967 0.969354
#
# Coordination Sequence:
#
# PCOD9555212 Si02
#       4
#     8   2   8   8
#     4  10  23  41  65  97 131 169 218 277 334 395
#     4  12  24  42  64  96 136 178 226 270 348 398
#     4  10  23  40  66  97 128 172 225 273 342 401
#     4  11  23  41  66  92 131 176 216 280 328 409
#
# _framework density 19.865435999999999
#
# number of rings (size 3 to 8) (size 9 to 14) (size 15 to 20)
#    0.000    1.538    0.000    3.692    8.615    4.308 
#    5.538    0.000    0.000    0.000    0.000    0.000 
#    0.000    0.000    0.000    0.000    0.000    0.000 
#
# Total GULP energy -144976.857627 kJ/mol
# GULP energy per Si atom -5576.032986 kJ/mol
# Density = 1.982022 g / cm^3
# Si number density = 19.865436 Si / 1000 Ang^3
#
#
#
# Elastic Constant Matrix: (Units=GPa)
#
#
# Indices 1 2 3 4 5 6 
#
# 1 112.1141 46.4113 38.7283 0.0000 0.0000 0.0000
# 2 46.4113 112.1141 38.7283 0.0000 0.0000 0.0000
# 3 38.7283 38.7283 64.3296 0.0000 0.0000 0.0000
# 4 0.0000 0.0000 0.0000 23.6536 0.0000 0.0000
# 5 0.0000 0.0000 0.0000 0.0000 23.6536 0.0000
# 6 0.0000 0.0000 0.0000 0.0000 0.0000 -157.3919
#
#
#
# Elastic Compliance Matrix: (Units=1/GPa)
#
#
# Indices 1 2 3 4 5 6 
#
# 1 0.012079 -0.003142 -0.005380 0.000000 0.000000 0.000000
# 2 -0.003142 0.012079 -0.005380 0.000000 0.000000 0.000000
# 3 -0.005380 -0.005380 0.022023 0.000000 0.000000 0.000000
# 4 0.000000 0.000000 0.000000 0.042277 0.000000 0.000000
# 5 0.000000 0.000000 0.000000 0.000000 0.042277 0.000000
# 6 0.000000 0.000000 0.000000 0.000000 0.000000 -0.006354
#
#
# Mechanical properties :
#
#
# Convention : Reuss Voigt Hill
#
# Bulk Modulus (GPa) = 54.41925 59.58816 57.00370
# Shear Modulus (GPa) = 31.58358 -11.03762 10.27298
#
# Velocity S-wave (km/s) = 3.99165 -2.35971 2.27651
# Velocity P-wave (km/s) = 6.97838 4.75780 5.97220
#
# Compressibility (1/GPa) = 0.01837585
#
# Stress axis : x y z
#
# Youngs Moduli (GPa) = 82.79152 82.79152 45.40668
#
# Poissons Ratio (x) = 0.26009 0.24430
# Poissons Ratio (y) = 0.26009 0.24430
# Poissons Ratio (z) = 0.44545 0.44545
#
# Static dielectric constant tensor:
#      x y z
#    x 1.545280 0.000000 0.000000 
#    y 0.000000 1.545280 0.000000 
#    z 0.000000 0.000000 3.248950 
# 
# From -- ./inp_files/3721.got.cif
#   From: 2010.05.17/outbox.cif.g08.bks.cpg/sg112_2_cif.got.tgz:3721.got - 2010.05.20 10:59:04.
