data_PCOD9555728
_publ_section_title
;
Structure prediction by ZEFSAII (Michael W. Deem and Ramdas Pophale) SiO2 
 PCOD9555728
Probable space group: P -4 21 M 
;
_chemical_formula_sum "Si O2"
_cell_formula_units_Z 60
_cell_length_a 12.323997
_cell_length_b 12.323997
_cell_length_c 19.601578
_cell_angle_alpha 90.000000
_cell_angle_beta 90.000000
_cell_angle_gamma 90.000000
_cell_volume 2977.105348
_symmetry_space_group_name_H-M "P -4 21 M "
_symmetry_group_IT_number 113
_symmetry_cell_setting 'tetragonal'
loop_
_space_group_symop_operation_xyz
x,y,z
y,-x,-z
-x,-y,z
-y,x,-z
1/2+x,1/2-y,-z
1/2-x,1/2+y,-z
1/2-y,1/2-x,z
1/2+y,1/2+x,z
loop_
_atom_site_type_symbol
_atom_site_label
_atom_site_fract_x
_atom_site_fract_y
_atom_site_fract_z
Si Si1 0.496933 0.821339 0.641749
Si Si2 0.833730 0.922730 0.004287
Si Si3 0.727641 0.587862 0.749150
Si Si4 0.382656 0.293123 0.159933
Si Si5 0.504820 0.823204 0.382739
Si Si6 0.488992 0.282835 0.785103
Si Si7 0.024836 0.822044 0.489159
Si Si8 0.152806 0.652806 0.107547
O O1 0.398542 0.898542 0.618585
O O2 0.470821 0.771326 0.715154
O O3 0.520212 0.731780 0.584859
O O4 0.602513 0.897488 0.649460
O O5 0.788170 0.898042 0.079072
O O6 0.750009 0.885792 0.946294
O O7 0.948907 0.860667 0.998213
O O8 0.819534 0.680467 0.756307
O O9 0.743388 0.492274 0.803115
O O10 0.739408 0.536074 0.674209
O O11 0.612575 0.642166 0.763766
O O12 0.284493 0.215508 0.180831
O O13 0.352579 0.415429 0.181453
O O14 0.603409 0.896592 0.355041
O O15 0.539676 0.767017 0.452308
O O16 0.405853 0.905853 0.396432
O O17 0.440374 0.195265 0.837446
O O18 0.117969 0.911636 0.495181
#
# Coordination Sequence:
#
# PCOD9555728 Si02
#       8
#     8   8   8   8   8   8   8   4
#     4  11  24  43  68  98 137 182 230 285 349 428
#     4  11  24  42  70  98 134 178 234 290 354 424
#     4  11  24  43  72 101 136 181 234 293 352 417
#     4  12  26  44  68 102 140 181 230 289 351 432
#     4  10  22  42  66  95 132 175 219 278 350 418
#     4  12  24  44  69 104 138 187 235 291 353 423
#     4  11  25  42  64  96 134 177 230 290 340 412
#     4  12  22  44  71  99 142 184 234 294 358 424
#
# _framework density 20.153804999999998
#
# number of rings (size 3 to 8) (size 9 to 14) (size 15 to 20)
#    0.000    0.800    3.333    3.600    3.733    5.067 
#    0.000    0.000    2.933    0.000    0.000    0.000 
#    0.000    0.000    0.000    0.000    0.000    0.000 
#
# Total GULP energy -334574.039291 kJ/mol
# GULP energy per Si atom -5576.233988 kJ/mol
# Density = 2.010793 g / cm^3
# Si number density = 20.153805 Si / 1000 Ang^3
#
#
#
# Elastic Constant Matrix: (Units=GPa)
#
#
# Indices 1 2 3 4 5 6 
#
# 1 13.0968 35.9025 14.3941 0.0000 0.0000 0.0000
# 2 35.9025 13.1017 14.3997 0.0000 0.0000 0.0000
# 3 14.3941 14.3997 45.7173 0.0000 0.0000 0.0000
# 4 0.0000 0.0000 0.0000 34.9732 0.0000 0.0000
# 5 0.0000 0.0000 0.0000 0.0000 34.9736 0.0000
# 6 0.0000 0.0000 0.0000 0.0000 0.0000 -2.6631
#
#
#
# Elastic Compliance Matrix: (Units=1/GPa)
#
#
# Indices 1 2 3 4 5 6 
#
# 1 -0.009407 0.034447 -0.007888 0.000000 0.000000 0.000000
# 2 0.034447 -0.009405 -0.007883 0.000000 0.000000 0.000000
# 3 -0.007888 -0.007883 0.026840 0.000000 0.000000 0.000000
# 4 0.000000 0.000000 0.000000 0.028593 0.000000 0.000000
# 5 0.000000 0.000000 0.000000 0.000000 0.028593 0.000000
# 6 0.000000 0.000000 0.000000 0.000000 0.000000 -0.375506
#
#
# Mechanical properties :
#
#
# Convention : Reuss Voigt Hill
#
# Bulk Modulus (GPa) = 22.03639 22.36762 22.20200
# Shear Modulus (GPa) = -15.03682 13.93803 -0.54940
#
# Velocity S-wave (km/s) = -2.73445 2.63265 -0.52268
# Velocity P-wave (km/s) = 0.99408 4.51261 3.26741
#
# Compressibility (1/GPa) = 0.04537949
#
# Stress axis : x y z
#
# Youngs Moduli (GPa) = -106.30516 -106.32299 37.25756
#
# Poissons Ratio (x) = 3.66254 0.29390
# Poissons Ratio (y) = 3.66193 0.29371
# Poissons Ratio (z) = -0.83856 -0.83818
#
# Static dielectric constant tensor:
#      x y z
#    x 1.712520 0.000000 0.000000 
#    y 0.000000 1.712520 0.000000 
#    z 0.000000 0.000000 1.687340 
# 
# From -- ./inp_files/2780.got.cif
#   From: 2010.05.17/outbox.cif.g08.bks.cpg/sg113_cif.got.tgz:2780.got - 2010.05.20 11:03:00.
