data_PCOD9555333
_publ_section_title
;
Structure prediction by ZEFSAII (Michael W. Deem and Ramdas Pophale) SiO2 
 PCOD9555333
Probable space group: P -4 2 C
;
_chemical_formula_sum "Si O2"
_cell_formula_units_Z 48
_cell_length_a 13.854198
_cell_length_b 13.854198
_cell_length_c 13.289326
_cell_angle_alpha 90.000000
_cell_angle_beta 90.000000
_cell_angle_gamma 90.000000
_cell_volume 2550.737315
_symmetry_space_group_name_H-M "P -4 2 C"
_symmetry_group_IT_number 112
_symmetry_cell_setting 'tetragonal'
loop_
_space_group_symop_operation_xyz
x,y,z
y,-x,-z
-x,-y,z
-y,x,-z
x,-y,1/2-z
-x,y,1/2-z
-y,-x,1/2+z
y,x,1/2+z
loop_
_atom_site_type_symbol
_atom_site_label
_atom_site_fract_x
_atom_site_fract_y
_atom_site_fract_z
Si Si1 0.887103 0.528771 0.641395
Si Si2 0.251542 0.801594 0.626404
Si Si3 0.650606 0.859100 0.490360
Si Si4 0.110496 0.109027 0.721991
Si Si5 0.735119 0.069543 0.438719
Si Si6 0.387577 0.110641 0.725610
O O1 0.844743 0.500000 0.750000
O O2 0.851290 0.457512 0.554141
O O3 0.882996 0.642189 0.616949
O O4 0.000000 0.500000 0.645977
O O5 0.229201 0.711076 0.555880
O O6 0.164744 0.819525 0.703472
O O7 0.259487 0.891083 0.550852
O O8 0.341732 0.810619 0.699975
O O9 0.642359 0.867392 0.610699
O O10 0.705904 0.956212 0.449016
O O11 0.104151 0.164783 0.614505
O O12 0.000000 0.105955 0.750000
O O13 0.145814 0.000000 0.750000
O O14 0.500000 0.112025 0.750000
O O15 0.356553 0.000000 0.750000
#
# Coordination Sequence:
#
# PCOD9555333 Si02
#       6
#     8   8   8   8   8   8
#     4   9  19  34  59  81 110 146 199 268 329 370
#     4  12  23  37  58  81 124 160 214 262 312 386
#     4  11  22  38  59  88 118 162 214 267 333 379
#     4  11  24  37  52  76 121 169 213 252 300 364
#     4  11  22  37  54  83 112 161 211 263 312 374
#     4  11  23  40  63  90 126 172 221 275 335 398
#
# _framework density 18.818089000000001
#
# number of rings (size 3 to 8) (size 9 to 14) (size 15 to 20)
#    0.000    1.167    3.333    3.500    9.333    0.000 
#    0.000    1.667    0.000    0.000    0.000    0.000 
#    0.000   54.000    0.000    0.000    0.000    0.000 
#
# Total GULP energy -267352.032726 kJ/mol
# GULP energy per Si atom -5569.834015 kJ/mol
# Density = 1.877526 g / cm^3
# Si number density = 18.818089 Si / 1000 Ang^3
#
#
#
# Elastic Constant Matrix: (Units=GPa)
#
#
# Indices 1 2 3 4 5 6 
#
# 1 83.1448 13.0212 29.9448 0.0000 0.0000 0.0000
# 2 13.0212 83.1448 29.9448 0.0000 0.0000 0.0000
# 3 29.9448 29.9448 136.9075 0.0000 0.0000 0.0000
# 4 0.0000 0.0000 0.0000 26.2843 0.0000 0.0000
# 5 0.0000 0.0000 0.0000 0.0000 26.2843 0.0000
# 6 0.0000 0.0000 0.0000 0.0000 0.0000 17.1647
#
#
#
# Elastic Compliance Matrix: (Units=1/GPa)
#
#
# Indices 1 2 3 4 5 6 
#
# 1 0.013150 -0.001111 -0.002633 0.000000 0.000000 0.000000
# 2 -0.001111 0.013150 -0.002633 0.000000 0.000000 0.000000
# 3 -0.002633 -0.002633 0.008456 0.000000 0.000000 0.000000
# 4 0.000000 0.000000 0.000000 0.038046 0.000000 0.000000
# 5 0.000000 0.000000 0.000000 0.000000 0.038046 0.000000
# 6 0.000000 0.000000 0.000000 0.000000 0.000000 0.058259
#
#
# Mechanical properties :
#
#
# Convention : Reuss Voigt Hill
#
# Bulk Modulus (GPa) = 45.45315 49.89094 47.67205
# Shear Modulus (GPa) = 26.42802 29.29908 27.86355
#
# Velocity S-wave (km/s) = 3.75159 3.95012 3.85213
# Velocity P-wave (km/s) = 6.55533 6.88290 6.72111
#
# Compressibility (1/GPa) = 0.02200067
#
# Stress axis : x y z
#
# Youngs Moduli (GPa) = 76.04837 76.04837 118.25869
#
# Poissons Ratio (x) = 0.08449 0.31139
# Poissons Ratio (y) = 0.08449 0.31139
# Poissons Ratio (z) = 0.20024 0.20024
#
# Static dielectric constant tensor:
#      x y z
#    x 1.691890 0.000000 0.000000 
#    y 0.000000 1.691890 0.000000 
#    z 0.000000 0.000000 1.663330 
# 
# From -- ./inp_files/2554.got.cif
#   From: 2010.05.17/outbox.cif.g08.bks.cpg/sg112_2_cif.got.tgz:2554.got - 2010.05.20 10:59:04.
