data_PCOD9555690
_publ_section_title
;
Structure prediction by ZEFSAII (Michael W. Deem and Ramdas Pophale) SiO2 
 PCOD9555690
Probable space group: P -4 21 M 
;
_chemical_formula_sum "Si O2"
_cell_formula_units_Z 48
_cell_length_a 14.880908
_cell_length_b 14.880908
_cell_length_c 10.837408
_cell_angle_alpha 90.000000
_cell_angle_beta 90.000000
_cell_angle_gamma 90.000000
_cell_volume 2399.851048
_symmetry_space_group_name_H-M "P -4 21 M "
_symmetry_group_IT_number 113
_symmetry_cell_setting 'tetragonal'
loop_
_space_group_symop_operation_xyz
x,y,z
y,-x,-z
-x,-y,z
-y,x,-z
1/2+x,1/2-y,-z
1/2-x,1/2+y,-z
1/2-y,1/2-x,z
1/2+y,1/2+x,z
loop_
_atom_site_type_symbol
_atom_site_label
_atom_site_fract_x
_atom_site_fract_y
_atom_site_fract_z
Si Si1 0.592329 0.762561 0.219736
Si Si2 0.596060 0.241574 0.101861
Si Si3 0.664340 0.310956 0.363595
Si Si4 0.178239 0.469604 0.558710
Si Si5 0.448864 0.198907 0.691660
Si Si6 0.378880 0.729475 0.824674
O O1 0.669858 0.830143 0.176392
O O2 0.510011 0.760110 0.124589
O O3 0.548309 0.803712 0.343726
O O4 0.640848 0.665912 0.235849
O O5 0.643429 0.143429 0.100343
O O6 0.636559 0.291305 0.221604
O O7 0.620586 0.285671 0.972045
O O8 0.745263 0.245263 0.399252
O O9 0.583186 0.273686 0.444524
O O10 0.709940 0.406551 0.365800
O O11 0.101931 0.398070 0.602466
O O12 0.152912 0.503300 0.424538
O O13 0.369192 0.130809 0.736674
O O14 0.523680 0.233709 0.786099
O O15 0.310510 0.810510 0.795037
#
# Coordination Sequence:
#
# PCOD9555690 Si02
#       6
#     8   8   8   8   8   8
#     4  10  21  37  61  87 115 158 200 242 298 354
#     4   9  19  38  60  84 115 154 200 248 290 346
#     4   8  18  37  60  82 111 156 199 234 290 356
#     4  10  21  38  61  88 120 152 198 250 292 353
#     4  11  23  37  61  88 118 159 195 239 301 360
#     4  10  23  38  57  87 123 155 195 246 301 360
#
# _framework density 20.001242999999999
#
# number of rings (size 3 to 8) (size 9 to 14) (size 15 to 20)
#    0.000    2.333    0.000    2.500    4.667    4.000 
#    0.000    5.000    0.000    0.000    0.000    0.000 
#    0.000    0.000    0.000    0.000    0.000    0.000 
#
# Total GULP energy -267326.931458 kJ/mol
# GULP energy per Si atom -5569.311072 kJ/mol
# Density = 1.995572 g / cm^3
# Si number density = 20.001243 Si / 1000 Ang^3
#
#
#
# Elastic Constant Matrix: (Units=GPa)
#
#
# Indices 1 2 3 4 5 6 
#
# 1 22.8302 96.4780 5.1551 0.0000 0.0000 0.0000
# 2 96.4780 22.8374 5.1579 0.0000 0.0000 0.0000
# 3 5.1551 5.1579 23.4966 0.0000 0.0000 0.0000
# 4 0.0000 0.0000 0.0000 15.2492 0.0000 0.0000
# 5 0.0000 0.0000 0.0000 0.0000 15.2491 0.0000
# 6 0.0000 0.0000 0.0000 0.0000 0.0000 37.9560
#
#
#
# Elastic Compliance Matrix: (Units=1/GPa)
#
#
# Indices 1 2 3 4 5 6 
#
# 1 -0.002518 0.011061 -0.001876 0.000000 0.000000 0.000000
# 2 0.011061 -0.002517 -0.001874 0.000000 0.000000 0.000000
# 3 -0.001876 -0.001874 0.043382 0.000000 0.000000 0.000000
# 4 0.000000 0.000000 0.000000 0.065577 0.000000 0.000000
# 5 0.000000 0.000000 0.000000 0.000000 0.065578 0.000000
# 6 0.000000 0.000000 0.000000 0.000000 0.000000 0.026346
#
#
# Mechanical properties :
#
#
# Convention : Reuss Voigt Hill
#
# Bulk Modulus (GPa) = 18.87879 31.41625 25.14752
# Shear Modulus (GPa) = 25.14052 11.18241 18.16146
#
# Velocity S-wave (km/s) = 3.54919 2.36706 3.01660
# Velocity P-wave (km/s) = 5.12396 4.81787 4.97327
#
# Compressibility (1/GPa) = 0.05296949
#
# Stress axis : x y z
#
# Youngs Moduli (GPa) = -397.13819 -397.24758 23.05088
#
# Poissons Ratio (x) = 4.39401 0.04324
# Poissons Ratio (y) = 4.39280 0.04320
# Poissons Ratio (z) = -0.74490 -0.74452
#
# Static dielectric constant tensor:
#      x y z
#    x 1.735230 0.000000 0.000000 
#    y 0.000000 1.735230 0.000000 
#    z 0.000000 0.000000 1.718290 
# 
# From -- ./inp_files/1842.got.cif
#   From: 2010.05.17/outbox.cif.g08.bks.cpg/sg113_cif.got.tgz:1842.got - 2010.05.20 11:03:00.
