data_PCOD9555291
_publ_section_title
;
Structure prediction by ZEFSAII (Michael W. Deem and Ramdas Pophale) SiO2 
 PCOD9555291
Probable space group: P -4 2 C
;
_chemical_formula_sum "Si O2"
_cell_formula_units_Z 40
_cell_length_a 8.886144
_cell_length_b 8.886144
_cell_length_c 23.685044
_cell_angle_alpha 90.000000
_cell_angle_beta 90.000000
_cell_angle_gamma 90.000000
_cell_volume 1870.255279
_symmetry_space_group_name_H-M "P -4 2 C"
_symmetry_group_IT_number 112
_symmetry_cell_setting 'tetragonal'
loop_
_space_group_symop_operation_xyz
x,y,z
y,-x,-z
-x,-y,z
-y,x,-z
x,-y,1/2-z
-x,y,1/2-z
-y,-x,1/2+z
y,x,1/2+z
loop_
_atom_site_type_symbol
_atom_site_label
_atom_site_fract_x
_atom_site_fract_y
_atom_site_fract_z
Si Si1 0.030275 0.249256 0.186660
Si Si2 0.529878 0.341752 0.090374
Si Si3 0.831420 0.213308 0.910948
Si Si4 0.087545 0.343800 0.985949
Si Si5 0.252013 0.460713 0.313068
O O1 0.108974 0.137812 0.142992
O O2 0.150506 0.388154 0.179821
O O3 0.000000 0.191204 0.250000
O O4 0.871008 0.329405 0.177176
O O5 0.500000 0.500000 0.060568
O O6 0.376419 0.246943 0.102314
O O7 0.629116 0.237816 0.050024
O O8 0.618730 0.400985 0.145600
O O9 0.979525 0.242143 0.947778
O O10 0.720519 0.125941 0.953151
O O11 0.000000 0.500000 0.993075
O O12 0.310467 0.500000 0.250000
#
# Coordination Sequence:
#
# PCOD9555291 Si02
#       5
#     8   8   8   8   8
#     4   9  19  38  65  97 136 175 225 283 341 410
#     4  11  23  39  67 100 132 176 231 291 352 421
#     4  11  24  43  66  96 140 185 230 292 357 429
#     4  10  27  43  64 102 140 181 237 292 359 432
#     4   9  19  37  63 102 134 169 226 288 339 409
#
# _framework density 21.387454999999999
#
# number of rings (size 3 to 8) (size 9 to 14) (size 15 to 20)
#    0.000    2.000    2.000    1.200   11.200    0.800 
#    0.000    0.000    0.000   12.000   10.400    0.000 
#    0.000    0.000    0.000    0.000    0.000    0.000 
#
# Total GULP energy -222839.089610 kJ/mol
# GULP energy per Si atom -5570.977240 kJ/mol
# Density = 2.133878 g / cm^3
# Si number density = 21.387455 Si / 1000 Ang^3
#
#
#
# Elastic Constant Matrix: (Units=GPa)
#
#
# Indices 1 2 3 4 5 6 
#
# 1 65.9750 14.8303 44.3083 0.0000 0.0000 0.0000
# 2 14.8303 65.9750 44.3083 0.0000 0.0000 0.0000
# 3 44.3083 44.3083 133.4685 0.0000 0.0000 0.0000
# 4 0.0000 0.0000 0.0000 8.9443 0.0000 0.0000
# 5 0.0000 0.0000 0.0000 0.0000 8.9443 0.0000
# 6 0.0000 0.0000 0.0000 0.0000 0.0000 25.5104
#
#
#
# Elastic Compliance Matrix: (Units=1/GPa)
#
#
# Indices 1 2 3 4 5 6 
#
# 1 0.019506 -0.000046 -0.006460 0.000000 0.000000 0.000000
# 2 -0.000046 0.019506 -0.006460 0.000000 0.000000 0.000000
# 3 -0.006460 -0.006460 0.011782 0.000000 0.000000 0.000000
# 4 0.000000 0.000000 0.000000 0.111802 0.000000 0.000000
# 5 0.000000 0.000000 0.000000 0.000000 0.111802 0.000000
# 6 0.000000 0.000000 0.000000 0.000000 0.000000 0.039200
#
#
# Mechanical properties :
#
#
# Convention : Reuss Voigt Hill
#
# Bulk Modulus (GPa) = 40.22374 52.47917 46.35146
# Shear Modulus (GPa) = 14.37528 19.47793 16.92660
#
# Velocity S-wave (km/s) = 2.59537 3.02108 2.81628
# Velocity P-wave (km/s) = 5.27534 6.06299 5.68283
#
# Compressibility (1/GPa) = 0.02486094
#
# Stress axis : x y z
#
# Youngs Moduli (GPa) = 51.26544 51.26544 84.87697
#
# Poissons Ratio (x) = 0.00236 0.54833
# Poissons Ratio (y) = 0.00236 0.54833
# Poissons Ratio (z) = 0.33119 0.33119
#
# Static dielectric constant tensor:
#      x y z
#    x 1.797740 0.000000 0.000000 
#    y 0.000000 1.797740 0.000000 
#    z 0.000000 0.000000 1.831980 
# 
# From -- ./inp_files/5353.got.cif
#   From: 2010.05.17/outbox.cif.g08.bks.cpg/sg112_3_cif.got.tgz:5353.got - 2010.05.20 10:59:04.
