data_PCOD9555624
_publ_section_title
;
Structure prediction by ZEFSAII (Michael W. Deem and Ramdas Pophale) SiO2 
 PCOD9555624
Probable space group: P -4 21 M 
;
_chemical_formula_sum "Si O2"
_cell_formula_units_Z 40
_cell_length_a 11.036384
_cell_length_b 11.036384
_cell_length_c 16.895500
_cell_angle_alpha 90.000000
_cell_angle_beta 90.000000
_cell_angle_gamma 90.000000
_cell_volume 2057.901835
_symmetry_space_group_name_H-M "P -4 21 M "
_symmetry_group_IT_number 113
_symmetry_cell_setting 'tetragonal'
loop_
_space_group_symop_operation_xyz
x,y,z
y,-x,-z
-x,-y,z
-y,x,-z
1/2+x,1/2-y,-z
1/2-x,1/2+y,-z
1/2-y,1/2-x,z
1/2+y,1/2+x,z
loop_
_atom_site_type_symbol
_atom_site_label
_atom_site_fract_x
_atom_site_fract_y
_atom_site_fract_z
Si Si1 0.758580 0.550691 0.088564
Si Si2 0.703917 0.000001 0.500001
Si Si3 0.147598 0.852403 0.378965
Si Si4 0.602240 0.602240 0.803966
Si Si5 0.258578 0.050694 0.088564
O O1 0.880981 0.619020 0.111288
O O2 0.719019 0.448268 0.150204
O O3 0.652366 0.652363 0.086869
O O4 0.768456 0.499998 0.000000
O O5 0.614180 0.114180 0.516846
O O6 0.791528 0.037593 0.427779
O O7 0.614179 0.885822 0.483157
O O8 0.791530 0.962407 0.572222
O O9 0.250000 0.750000 0.376724
O O10 0.117680 0.882322 0.289054
O O11 0.500000 0.500000 0.815085
O O12 0.719018 0.551731 0.849798
O O13 0.380978 0.119023 0.111290
#
# Coordination Sequence:
#
# PCOD9555624 Si02
#       5
#     8   8   8   8   8
#     4  10  20  36  59  84 116 157 197 238 286 340
#     4   9  20  39  60  86 120 151 188 239 286 340
#     4  10  22  38  60  86 113 154 194 232 291 347
#     4  10  22  36  56  86 121 152 188 243 292 334
#     4  10  20  36  59  84 116 157 197 238 286 340
#
# _framework density 19.437273000000001
#
# number of rings (size 3 to 8) (size 9 to 14) (size 15 to 20)
#    0.000    2.200    2.000    0.000    2.800    3.600 
#    0.000    0.000    0.000    0.000    0.000    0.000 
#    0.000    0.000    0.000    0.000    0.000    0.000 
#
# Total GULP energy -223251.178762 kJ/mol
# GULP energy per Si atom -5581.279469 kJ/mol
# Density = 1.939303 g / cm^3
# Si number density = 19.437273 Si / 1000 Ang^3
#
#
#
# Elastic Constant Matrix: (Units=GPa)
#
#
# Indices 1 2 3 4 5 6 
#
# 1 82.3331 60.4849 71.4014 0.0000 0.0000 0.0000
# 2 60.4849 82.3357 71.4012 0.0000 0.0000 0.0000
# 3 71.4014 71.4012 177.7094 0.0000 0.0000 0.0000
# 4 0.0000 0.0000 0.0000 -16.9252 0.0000 0.0000
# 5 0.0000 0.0000 0.0000 0.0000 -16.9300 0.0000
# 6 0.0000 0.0000 0.0000 0.0000 0.0000 16.1450
#
#
#
# Elastic Compliance Matrix: (Units=1/GPa)
#
#
# Indices 1 2 3 4 5 6 
#
# 1 0.028736 -0.017032 -0.004703 0.000000 0.000000 0.000000
# 2 -0.017032 0.028735 -0.004702 0.000000 0.000000 0.000000
# 3 -0.004703 -0.004702 0.009406 0.000000 0.000000 0.000000
# 4 0.000000 0.000000 0.000000 -0.059083 0.000000 0.000000
# 5 0.000000 0.000000 0.000000 0.000000 -0.059067 0.000000
# 6 0.000000 0.000000 0.000000 0.000000 0.000000 0.061939
#
#
# Mechanical properties :
#
#
# Convention : Reuss Voigt Hill
#
# Bulk Modulus (GPa) = 71.40964 83.21703 77.31333
# Shear Modulus (GPa) = 73.30628 5.73067 39.51847
#
# Velocity S-wave (km/s) = 6.14786 1.71892 4.51391
# Velocity P-wave (km/s) = 9.33880 6.84439 8.18715
#
# Compressibility (1/GPa) = 0.01400371
#
# Stress axis : x y z
#
# Youngs Moduli (GPa) = 34.79914 34.80089 106.31639
#
# Poissons Ratio (x) = 0.59273 0.49997
# Poissons Ratio (y) = 0.59270 0.49991
# Poissons Ratio (z) = 0.16365 0.16364
#
# Static dielectric constant tensor:
#      x y z
#    x 1.706930 0.000000 0.000000 
#    y 0.000000 1.706930 0.000000 
#    z 0.000000 0.000000 1.630130 
# 
# From -- ./inp_files/2151.got.cif
#   From: 2010.05.17/outbox.cif.g08.bks.cpg/sg113_cif.got.tgz:2151.got - 2010.05.20 11:03:00.
