data_PCOD9555887
_publ_section_title
;
Structure prediction by ZEFSAII (Michael W. Deem and Ramdas Pophale) SiO2 
 PCOD9555887
Probable space group: P -4 21 C
;
_chemical_formula_sum "Si O2"
_cell_formula_units_Z 48
_cell_length_a 8.955909
_cell_length_b 8.955909
_cell_length_c 30.031675
_cell_angle_alpha 90.000000
_cell_angle_beta 90.000000
_cell_angle_gamma 90.000000
_cell_volume 2408.789779
_symmetry_space_group_name_H-M "P -4 21 C"
_symmetry_group_IT_number 114
_symmetry_cell_setting 'tetragonal'
loop_
_space_group_symop_operation_xyz
x,y,z
y,-x,-z
-x,-y,z
-y,x,-z
1/2+x,1/2-y,1/2-z
1/2-x,1/2+y,1/2-z
1/2-y,1/2-x,1/2+z
1/2+y,1/2+x,1/2+z
loop_
_atom_site_type_symbol
_atom_site_label
_atom_site_fract_x
_atom_site_fract_y
_atom_site_fract_z
Si Si1 0.778774 0.951185 0.481615
Si Si2 0.836005 0.070370 0.208238
Si Si3 0.336782 0.072357 0.290128
Si Si4 0.228713 0.048146 0.016268
Si Si5 0.334546 0.428054 0.390468
Si Si6 0.068996 0.665533 0.610716
O O1 0.626284 0.874018 0.496892
O O2 0.762360 0.992772 0.429982
O O3 0.909185 0.829576 0.489051
O O4 0.844766 0.248760 0.213941
O O5 0.770358 0.040109 0.158750
O O6 0.750528 0.997141 0.249068
O O7 0.000000 0.000000 0.207856
O O8 0.273581 0.038765 0.339631
O O9 0.500000 0.000000 0.289565
O O10 0.247851 0.995665 0.066915
O O11 0.092793 0.167906 0.011937
O O12 0.500000 0.500000 0.391934
O O13 0.344550 0.248711 0.395063
O O14 0.000000 0.500000 0.608097
#
# Coordination Sequence:
#
# PCOD9555887 Si02
#       6
#     8   8   8   8   8   8
#     4  11  26  42  55  86 127 163 199 250 305 374
#     4  10  21  38  61  89 128 158 198 256 305 371
#     4  10  21  41  63  91 120 158 206 251 313 371
#     4  11  20  36  64  90 117 158 207 260 290 354
#     4  10  19  35  58  98 119 147 207 255 296 355
#     4  10  22  38  65  87 118 162 202 248 308 371
#
# _framework density 19.927021
#
# number of rings (size 3 to 8) (size 9 to 14) (size 15 to 20)
#    0.000    1.667    3.333    1.000    4.667    1.333 
#    3.000    3.333    0.000    0.000    0.000    0.000 
#    0.000    0.000    0.000    0.000    0.000    0.000 
#
# Total GULP energy -268090.318948 kJ/mol
# GULP energy per Si atom -5585.214978 kJ/mol
# Density = 1.988167 g / cm^3
# Si number density = 19.927021 Si / 1000 Ang^3
#
#
#
# Elastic Constant Matrix: (Units=GPa)
#
#
# Indices 1 2 3 4 5 6 
#
# 1 47.9984 23.4495 49.2682 0.0000 0.0000 0.0000
# 2 23.4495 47.9984 49.2682 0.0000 0.0000 0.0000
# 3 49.2682 49.2682 208.9355 0.0000 0.0000 0.0000
# 4 0.0000 0.0000 0.0000 36.4055 0.0000 0.0000
# 5 0.0000 0.0000 0.0000 0.0000 36.4055 0.0000
# 6 0.0000 0.0000 0.0000 0.0000 0.0000 40.7174
#
#
#
# Elastic Compliance Matrix: (Units=1/GPa)
#
#
# Indices 1 2 3 4 5 6 
#
# 1 0.030738 -0.009997 -0.004891 0.000000 0.000000 0.000000
# 2 -0.009997 0.030738 -0.004891 0.000000 0.000000 0.000000
# 3 -0.004891 -0.004891 0.007093 0.000000 0.000000 0.000000
# 4 0.000000 0.000000 0.000000 0.027468 0.000000 0.000000
# 5 0.000000 0.000000 0.000000 0.000000 0.027468 0.000000
# 6 0.000000 0.000000 0.000000 0.000000 0.000000 0.024560
#
#
# Mechanical properties :
#
#
# Convention : Reuss Voigt Hill
#
# Bulk Modulus (GPa) = 34.46853 60.98938 47.72896
# Shear Modulus (GPa) = 25.34294 34.90211 30.12253
#
# Velocity S-wave (km/s) = 3.57008 4.18963 3.89220
# Velocity P-wave (km/s) = 5.85909 7.35369 6.64852
#
# Compressibility (1/GPa) = 0.02901197
#
# Stress axis : x y z
#
# Youngs Moduli (GPa) = 32.53275 32.53275 140.98786
#
# Poissons Ratio (x) = 0.32522 0.68957
# Poissons Ratio (y) = 0.32522 0.68957
# Poissons Ratio (z) = 0.15912 0.15912
#
# Static dielectric constant tensor:
#      x y z
#    x 1.697680 0.000000 0.000000 
#    y 0.000000 1.697680 0.000000 
#    z 0.000000 0.000000 1.736110 
# 
# From -- ./inp_files/3926.got.cif
#   From: 2010.05.17/outbox.cif.g08.bks.cpg/sg114_2_cif.got.tgz:3926.got - 2010.05.20 11:04:54.
