data_PCOD9555611
_publ_section_title
;
Structure prediction by ZEFSAII (Michael W. Deem and Ramdas Pophale) SiO2 
 PCOD9555611
Probable space group: P -4 21 M 
;
_chemical_formula_sum "Si O2"
_cell_formula_units_Z 48
_cell_length_a 13.767518
_cell_length_b 13.767518
_cell_length_c 14.728639
_cell_angle_alpha 90.000000
_cell_angle_beta 90.000000
_cell_angle_gamma 90.000000
_cell_volume 2791.733279
_symmetry_space_group_name_H-M "P -4 21 M "
_symmetry_group_IT_number 113
_symmetry_cell_setting 'tetragonal'
loop_
_space_group_symop_operation_xyz
x,y,z
y,-x,-z
-x,-y,z
-y,x,-z
1/2+x,1/2-y,-z
1/2-x,1/2+y,-z
1/2-y,1/2-x,z
1/2+y,1/2+x,z
loop_
_atom_site_type_symbol
_atom_site_label
_atom_site_fract_x
_atom_site_fract_y
_atom_site_fract_z
Si Si1 0.508585 0.158152 0.176968
Si Si2 0.513507 0.341605 0.521270
Si Si3 0.408470 0.255446 0.016359
Si Si4 0.789565 0.132461 0.691767
Si Si5 0.950573 0.291624 0.634711
Si Si6 0.597389 0.260085 0.903747
O O1 0.422608 0.077393 0.180603
O O2 0.520789 0.191466 0.280131
O O3 0.604149 0.104149 0.142253
O O4 0.470772 0.238112 0.108105
O O5 0.414261 0.403787 0.517745
O O6 0.546014 0.309158 0.621285
O O7 0.500318 0.251492 0.453875
O O8 0.335321 0.164679 0.006044
O O9 0.486763 0.255504 0.936403
O O10 0.340839 0.348020 0.034890
O O11 0.688658 0.188658 0.672300
O O12 0.873525 0.211579 0.671462
O O13 0.788970 0.105292 0.797683
O O14 0.888665 0.388665 0.615481
O O15 0.660193 0.160193 0.913791
#
# Coordination Sequence:
#
# PCOD9555611 Si02
#       6
#     8   8   8   8   8   8
#     4   9  16  28  49  74  98 127 165 211 263 309
#     4   9  18  32  49  73 100 131 168 207 248 301
#     4  10  20  36  54  77 107 139 178 221 266 315
#     4   9  17  33  54  71  97 139 174 202 252 314
#     4   9  16  30  50  71  98 131 167 210 253 301
#     4  10  20  36  56  78 106 141 180 221 263 319
#
# _framework density 17.193619999999999
#
# number of rings (size 3 to 8) (size 9 to 14) (size 15 to 20)
#    0.000    2.667    1.667    0.500    0.000    2.000 
#    3.000    2.500    0.000    1.000    0.000    0.000 
#    0.000    0.000    0.000    0.000    0.000    0.000 
#
# Total GULP energy -267397.889709 kJ/mol
# GULP energy per Si atom -5570.789369 kJ/mol
# Density = 1.715449 g / cm^3
# Si number density = 17.193620 Si / 1000 Ang^3
#
#
#
# Elastic Constant Matrix: (Units=GPa)
#
#
# Indices 1 2 3 4 5 6 
#
# 1 48.6346 23.5291 30.7648 0.0000 0.0000 0.0000
# 2 23.5291 48.6355 30.7646 0.0000 0.0000 0.0000
# 3 30.7648 30.7646 81.7467 0.0000 0.0000 0.0000
# 4 0.0000 0.0000 0.0000 31.1784 0.0000 0.0000
# 5 0.0000 0.0000 0.0000 0.0000 31.1785 0.0000
# 6 0.0000 0.0000 0.0000 0.0000 0.0000 7.3537
#
#
#
# Elastic Compliance Matrix: (Units=1/GPa)
#
#
# Indices 1 2 3 4 5 6 
#
# 1 0.030118 -0.009713 -0.007679 0.000000 0.000000 0.000000
# 2 -0.009713 0.030118 -0.007679 0.000000 0.000000 0.000000
# 3 -0.007679 -0.007679 0.018013 0.000000 0.000000 0.000000
# 4 0.000000 0.000000 0.000000 0.032073 0.000000 0.000000
# 5 0.000000 0.000000 0.000000 0.000000 0.032073 0.000000
# 6 0.000000 0.000000 0.000000 0.000000 0.000000 0.135986
#
#
# Mechanical properties :
#
#
# Convention : Reuss Voigt Hill
#
# Bulk Modulus (GPa) = 35.57983 38.79263 37.18623
# Shear Modulus (GPa) = 14.79757 20.20601 17.50179
#
# Velocity S-wave (km/s) = 2.93685 3.43184 3.19395
# Velocity P-wave (km/s) = 5.67791 6.18988 5.93942
#
# Compressibility (1/GPa) = 0.02810581
#
# Stress axis : x y z
#
# Youngs Moduli (GPa) = 33.20228 33.20317 55.51570
#
# Poissons Ratio (x) = 0.32251 0.42633
# Poissons Ratio (y) = 0.32250 0.42631
# Poissons Ratio (z) = 0.25497 0.25497
#
# Static dielectric constant tensor:
#      x y z
#    x 1.590670 0.000000 0.000000 
#    y 0.000000 1.590670 0.000000 
#    z 0.000000 0.000000 1.574220 
# 
# From -- ./inp_files/1819.got.cif
#   From: 2010.05.17/outbox.cif.g08.bks.cpg/sg113_cif.got.tgz:1819.got - 2010.05.20 11:03:00.
