data_PCOD9555742
_publ_section_title
;
Structure prediction by ZEFSAII (Michael W. Deem and Ramdas Pophale) SiO2 
 PCOD9555742
Probable space group: P -4 21 M 
;
_chemical_formula_sum "Si O2"
_cell_formula_units_Z 40
_cell_length_a 16.842727
_cell_length_b 16.842727
_cell_length_c 6.208050
_cell_angle_alpha 90.000000
_cell_angle_beta 90.000000
_cell_angle_gamma 90.000000
_cell_volume 1761.083811
_symmetry_space_group_name_H-M "P -4 21 M "
_symmetry_group_IT_number 113
_symmetry_cell_setting 'tetragonal'
loop_
_space_group_symop_operation_xyz
x,y,z
y,-x,-z
-x,-y,z
-y,x,-z
1/2+x,1/2-y,-z
1/2-x,1/2+y,-z
1/2-y,1/2-x,z
1/2+y,1/2+x,z
loop_
_atom_site_type_symbol
_atom_site_label
_atom_site_fract_x
_atom_site_fract_y
_atom_site_fract_z
Si Si1 0.716223 0.910482 0.062351
Si Si2 0.708042 0.668752 0.880149
Si Si3 0.504146 0.126492 0.414563
Si Si4 0.068752 0.112723 0.522577
Si Si5 0.760057 0.554951 0.221926
O O1 0.634396 0.865605 0.009521
O O2 0.694333 0.961964 0.271449
O O3 0.783361 0.843814 0.057448
O O4 0.742423 0.967268 0.872980
O O5 0.763917 0.736084 0.767895
O O6 0.651067 0.617127 0.723948
O O7 0.764641 0.611161 0.015659
O O8 0.433458 0.066543 0.486480
O O9 0.549972 0.170196 0.605575
O O10 0.568654 0.068654 0.300253
O O11 0.075128 0.178776 0.340236
O O12 0.973446 0.100757 0.553890
#
# Coordination Sequence:
#
# PCOD9555742 Si02
#       5
#     8   8   8   8   8
#     4  10  23  45  69  98 139 186 232 284 348 414
#     4  11  26  46  71 104 140 182 235 292 352 421
#     4  10  23  44  70 103 143 187 237 288 346 418
#     4  11  26  47  73 102 137 185 238 292 352 421
#     4  12  24  40  74 102 141 180 232 292 347 414
#
# _framework density 22.713284999999999
#
# number of rings (size 3 to 8) (size 9 to 14) (size 15 to 20)
#    0.000    1.200    2.000    2.400    5.600    4.800 
#    0.000    4.000    0.000    0.000    0.000    0.000 
#    0.000    0.000    0.000    0.000    0.000    0.000 
#
# Total GULP energy -223210.746061 kJ/mol
# GULP energy per Si atom -5580.268652 kJ/mol
# Density = 2.266159 g / cm^3
# Si number density = 22.713285 Si / 1000 Ang^3
#
#
#
# Elastic Constant Matrix: (Units=GPa)
#
#
# Indices 1 2 3 4 5 6 
#
# 1 146.5048 55.0460 57.7960 0.0000 0.0000 0.0000
# 2 55.0460 146.5000 57.7935 0.0000 0.0000 0.0000
# 3 57.7960 57.7935 67.2329 0.0000 0.0000 0.0000
# 4 0.0000 0.0000 0.0000 -21.7182 0.0000 0.0000
# 5 0.0000 0.0000 0.0000 0.0000 -21.6450 0.0000
# 6 0.0000 0.0000 0.0000 0.0000 0.0000 41.3370
#
#
#
# Elastic Compliance Matrix: (Units=1/GPa)
#
#
# Indices 1 2 3 4 5 6 
#
# 1 0.010360 -0.000574 -0.008413 0.000000 0.000000 0.000000
# 2 -0.000574 0.010360 -0.008412 0.000000 0.000000 0.000000
# 3 -0.008413 -0.008412 0.029337 0.000000 0.000000 0.000000
# 4 0.000000 0.000000 0.000000 -0.046044 0.000000 0.000000
# 5 0.000000 0.000000 0.000000 0.000000 -0.046200 0.000000
# 6 0.000000 0.000000 0.000000 0.000000 0.000000 0.024191
#
#
# Mechanical properties :
#
#
# Convention : Reuss Voigt Hill
#
# Bulk Modulus (GPa) = 65.53349 77.94543 71.73946
# Shear Modulus (GPa) = 228.43597 12.23489 120.33543
#
# Velocity S-wave (km/s) = 10.03953 2.32344 7.28665
# Velocity P-wave (km/s) = 12.77907 6.44899 10.12161
#
# Compressibility (1/GPa) = 0.01525937
#
# Stress axis : x y z
#
# Youngs Moduli (GPa) = 96.52385 96.52333 34.08714
#
# Poissons Ratio (x) = 0.05541 0.28676
# Poissons Ratio (y) = 0.05541 0.28675
# Poissons Ratio (z) = 0.81201 0.81197
#
# Static dielectric constant tensor:
#      x y z
#    x 1.871860 0.000000 0.000000 
#    y 0.000000 1.871850 0.000000 
#    z 0.000000 0.000000 1.825420 
# 
# From -- ./inp_files/326.got.cif
#   From: 2010.05.17/outbox.cif.g08.bks.cpg/sg113_cif.got.tgz:326.got - 2010.05.20 11:03:00.
