data_PCOD9555571
_publ_section_title
;
Structure prediction by ZEFSAII (Michael W. Deem and Ramdas Pophale) SiO2 
 PCOD9555571
Probable space group: P -4 21 M 
;
_chemical_formula_sum "Si O2"
_cell_formula_units_Z 56
_cell_length_a 13.623906
_cell_length_b 13.623906
_cell_length_c 16.838118
_cell_angle_alpha 90.000000
_cell_angle_beta 90.000000
_cell_angle_gamma 90.000000
_cell_volume 3125.336800
_symmetry_space_group_name_H-M "P -4 21 M "
_symmetry_group_IT_number 113
_symmetry_cell_setting 'tetragonal'
loop_
_space_group_symop_operation_xyz
x,y,z
y,-x,-z
-x,-y,z
-y,x,-z
1/2+x,1/2-y,-z
1/2-x,1/2+y,-z
1/2-y,1/2-x,z
1/2+y,1/2+x,z
loop_
_atom_site_type_symbol
_atom_site_label
_atom_site_fract_x
_atom_site_fract_y
_atom_site_fract_z
Si Si1 0.955433 0.295817 0.620945
Si Si2 0.856667 0.194547 0.081096
Si Si3 0.026865 0.107437 0.182177
Si Si4 0.992197 0.657974 0.788353
Si Si5 0.160982 0.979233 0.515459
Si Si6 0.206019 0.866007 0.672171
Si Si7 0.971461 0.193692 0.925461
O O1 0.897067 0.397067 0.604299
O O2 0.873230 0.216971 0.647831
O O3 0.022690 0.305550 0.698789
O O4 0.009297 0.250525 0.545548
O O5 0.772521 0.272521 0.101457
O O6 0.932741 0.167535 0.151416
O O7 0.815963 0.087042 0.058312
O O8 0.915729 0.230129 0.003200
O O9 0.086787 0.170792 0.245419
O O10 0.091858 0.076050 0.105538
O O11 0.000000 0.000000 0.218420
O O12 0.893797 0.606204 0.818980
O O13 0.075111 0.575111 0.781684
O O14 0.032864 0.737143 0.848732
O O15 0.198385 0.945225 0.601450
O O16 0.081998 0.898792 0.484166
O O17 0.309837 0.809837 0.677498
#
# Coordination Sequence:
#
# PCOD9555571 Si02
#       7
#     8   8   8   8   8   8   8
#     4   9  18  33  52  79 112 146 188 239 292 342
#     4  11  23  38  59  88 119 152 195 245 293 346
#     4  10  22  36  62  83 114 148 194 239 287 340
#     4  10  20  33  52  81 115 149 186 232 291 351
#     4   9  19  32  54  79 110 144 189 235 287 336
#     4  10  20  35  56  85 111 148 197 236 282 347
#     4  11  20  38  59  85 115 150 193 239 290 347
#
# _framework density 17.918068000000002
#
# number of rings (size 3 to 8) (size 9 to 14) (size 15 to 20)
#    0.000    2.000    2.857    0.857    4.000    1.143 
#    0.000    0.714    0.000    3.000    0.000    0.000 
#    0.000    0.000    0.000    0.000    0.000    0.000 
#
# Total GULP energy -312189.512483 kJ/mol
# GULP energy per Si atom -5574.812723 kJ/mol
# Density = 1.787729 g / cm^3
# Si number density = 17.918068 Si / 1000 Ang^3
#
#
#
# Elastic Constant Matrix: (Units=GPa)
#
#
# Indices 1 2 3 4 5 6 
#
# 1 72.9537 44.4276 41.3346 0.0000 0.0000 0.0000
# 2 44.4276 72.9535 41.3347 0.0000 0.0000 0.0000
# 3 41.3346 41.3347 76.8438 0.0000 0.0000 0.0000
# 4 0.0000 0.0000 0.0000 25.0474 0.0000 0.0000
# 5 0.0000 0.0000 0.0000 0.0000 25.0471 0.0000
# 6 0.0000 0.0000 0.0000 0.0000 0.0000 28.0455
#
#
#
# Elastic Compliance Matrix: (Units=1/GPa)
#
#
# Indices 1 2 3 4 5 6 
#
# 1 0.024385 -0.010670 -0.007377 0.000000 0.000000 0.000000
# 2 -0.010670 0.024385 -0.007377 0.000000 0.000000 0.000000
# 3 -0.007377 -0.007377 0.020950 0.000000 0.000000 0.000000
# 4 0.000000 0.000000 0.000000 0.039924 0.000000 0.000000
# 5 0.000000 0.000000 0.000000 0.000000 0.039925 0.000000
# 6 0.000000 0.000000 0.000000 0.000000 0.000000 0.035656
#
#
# Mechanical properties :
#
#
# Convention : Reuss Voigt Hill
#
# Bulk Modulus (GPa) = 52.99251 52.99384 52.99318
# Shear Modulus (GPa) = 20.62992 22.00494 21.31743
#
# Velocity S-wave (km/s) = 3.39683 3.50821 3.45297
# Velocity P-wave (km/s) = 6.70997 6.78601 6.74810
#
# Compressibility (1/GPa) = 0.01887059
#
# Stress axis : x y z
#
# Youngs Moduli (GPa) = 41.00836 41.00813 47.73265
#
# Poissons Ratio (x) = 0.43757 0.35214
# Poissons Ratio (y) = 0.43757 0.35214
# Poissons Ratio (z) = 0.30253 0.30253
#
# Static dielectric constant tensor:
#      x y z
#    x 1.632520 0.000000 0.000000 
#    y 0.000000 1.632520 0.000000 
#    z 0.000000 0.000000 1.610390 
# 
# From -- ./inp_files/2278.got.cif
#   From: 2010.05.17/outbox.cif.g08.bks.cpg/sg113_cif.got.tgz:2278.got - 2010.05.20 11:03:00.
