data_PCOD9555614
_publ_section_title
;
Structure prediction by ZEFSAII (Michael W. Deem and Ramdas Pophale) SiO2 
 PCOD9555614
Probable space group: P -4 21 M 
;
_chemical_formula_sum "Si O2"
_cell_formula_units_Z 64
_cell_length_a 11.880059
_cell_length_b 11.880059
_cell_length_c 21.179533
_cell_angle_alpha 90.000000
_cell_angle_beta 90.000000
_cell_angle_gamma 90.000000
_cell_volume 2989.190373
_symmetry_space_group_name_H-M "P -4 21 M "
_symmetry_group_IT_number 113
_symmetry_cell_setting 'tetragonal'
loop_
_space_group_symop_operation_xyz
x,y,z
y,-x,-z
-x,-y,z
-y,x,-z
1/2+x,1/2-y,-z
1/2-x,1/2+y,-z
1/2-y,1/2-x,z
1/2+y,1/2+x,z
loop_
_atom_site_type_symbol
_atom_site_label
_atom_site_fract_x
_atom_site_fract_y
_atom_site_fract_z
Si Si1 0.605670 0.718241 0.291105
Si Si2 0.613567 0.705010 0.565921
Si Si3 0.221570 0.545237 0.122974
Si Si4 0.856539 0.823150 0.427311
Si Si5 0.166963 0.151430 0.061532
Si Si6 0.210990 0.464159 0.260576
Si Si7 0.321151 0.355204 0.696727
Si Si8 0.290002 0.390419 0.918757
O O1 0.657921 0.842080 0.277524
O O2 0.617961 0.697776 0.366656
O O3 0.691237 0.629670 0.260206
O O4 0.479090 0.684059 0.274402
O O5 0.673241 0.826760 0.565901
O O6 0.485429 0.698734 0.585510
O O7 0.618591 0.659797 0.494672
O O8 0.678059 0.635302 0.619983
O O9 0.117006 0.617006 0.093456
O O10 0.279784 0.440840 0.087550
O O11 0.182219 0.499438 0.189859
O O12 0.321649 0.636339 0.131762
O O13 0.795059 0.704942 0.434336
O O14 0.276014 0.223987 0.078268
O O15 0.187618 0.023565 0.084053
O O16 0.149709 0.156377 0.985858
O O17 0.101603 0.398398 0.288974
O O18 0.271205 0.574523 0.289299
O O19 0.210211 0.289790 0.716698
O O20 0.163766 0.336235 0.917556
#
# Coordination Sequence:
#
# PCOD9555614 Si02
#       8
#     8   8   8   8   8   8   8   8
#     4  10  22  40  62  88 121 166 216 265 324 390
#     4  10  21  34  54  85 117 156 207 260 321 390
#     4  11  24  42  66  96 131 173 219 270 326 390
#     4  10  20  36  56  82 117 160 208 259 320 389
#     4  11  22  38  63  94 131 174 218 271 331 386
#     4  11  24  43  66  93 127 169 219 274 324 382
#     4  11  23  38  60  91 125 164 210 266 330 390
#     4  10  22  39  61  93 131 173 222 270 322 387
#
# _framework density 21.41048
#
# number of rings (size 3 to 8) (size 9 to 14) (size 15 to 20)
#    0.000    1.500    2.500    2.250    0.000    5.750 
#    0.000    2.500    0.000    4.500    0.000    3.500 
#    0.000    0.000    0.000    0.000    0.000    0.000 
#
# Total GULP energy -356894.115781 kJ/mol
# GULP energy per Si atom -5576.470559 kJ/mol
# Density = 2.136175 g / cm^3
# Si number density = 21.410480 Si / 1000 Ang^3
#
#
#
# Elastic Constant Matrix: (Units=GPa)
#
#
# Indices 1 2 3 4 5 6 
#
# 1 127.1397 50.2125 12.5250 0.0000 0.0000 0.0000
# 2 50.2125 127.1357 12.5241 0.0000 0.0000 0.0000
# 3 12.5250 12.5241 35.4824 0.0000 0.0000 0.0000
# 4 0.0000 0.0000 0.0000 23.8153 0.0000 0.0000
# 5 0.0000 0.0000 0.0000 0.0000 23.8159 0.0000
# 6 0.0000 0.0000 0.0000 0.0000 0.0000 22.6312
#
#
#
# Elastic Compliance Matrix: (Units=1/GPa)
#
#
# Indices 1 2 3 4 5 6 
#
# 1 0.009467 -0.003533 -0.002095 0.000000 0.000000 0.000000
# 2 -0.003533 0.009467 -0.002095 0.000000 0.000000 0.000000
# 3 -0.002095 -0.002095 0.029662 0.000000 0.000000 0.000000
# 4 0.000000 0.000000 0.000000 0.041990 0.000000 0.000000
# 5 0.000000 0.000000 0.000000 0.000000 0.041989 0.000000
# 6 0.000000 0.000000 0.000000 0.000000 0.000000 0.044187
#
#
# Mechanical properties :
#
#
# Convention : Reuss Voigt Hill
#
# Bulk Modulus (GPa) = 30.16435 48.92011 39.54223
# Shear Modulus (GPa) = 24.59953 28.35222 26.47587
#
# Velocity S-wave (km/s) = 3.39329 3.64293 3.52033
# Velocity P-wave (km/s) = 5.42879 6.37126 5.91881
#
# Compressibility (1/GPa) = 0.03315172
#
# Stress axis : x y z
#
# Youngs Moduli (GPa) = 105.63124 105.62821 33.71341
#
# Poissons Ratio (x) = 0.37314 0.07062
# Poissons Ratio (y) = 0.37315 0.07062
# Poissons Ratio (z) = 0.22128 0.22125
#
# Static dielectric constant tensor:
#      x y z
#    x 1.771430 0.000000 0.000000 
#    y 0.000000 1.771430 0.000000 
#    z 0.000000 0.000000 1.851720 
# 
# From -- ./inp_files/2870.got.cif
#   From: 2010.05.17/outbox.cif.g08.bks.cpg/sg113_cif.got.tgz:2870.got - 2010.05.20 11:03:00.
