data_PCOD9555645
_publ_section_title
;
Structure prediction by ZEFSAII (Michael W. Deem and Ramdas Pophale) SiO2 
 PCOD9555645
Probable space group: P -4 21 M 
;
_chemical_formula_sum "Si O2"
_cell_formula_units_Z 64
_cell_length_a 11.612672
_cell_length_b 11.612672
_cell_length_c 22.028454
_cell_angle_alpha 90.000000
_cell_angle_beta 90.000000
_cell_angle_gamma 90.000000
_cell_volume 2970.628462
_symmetry_space_group_name_H-M "P -4 21 M "
_symmetry_group_IT_number 113
_symmetry_cell_setting 'tetragonal'
loop_
_space_group_symop_operation_xyz
x,y,z
y,-x,-z
-x,-y,z
-y,x,-z
1/2+x,1/2-y,-z
1/2-x,1/2+y,-z
1/2-y,1/2-x,z
1/2+y,1/2+x,z
loop_
_atom_site_type_symbol
_atom_site_label
_atom_site_fract_x
_atom_site_fract_y
_atom_site_fract_z
Si Si1 0.312354 0.357390 0.362804
Si Si2 0.278451 0.414904 0.082057
Si Si3 0.000806 0.681500 0.828035
Si Si4 0.676469 0.564485 0.497324
Si Si5 0.268139 0.048863 0.039301
Si Si6 0.718606 0.396035 0.311394
Si Si7 0.679242 0.368795 0.171645
Si Si8 0.781032 0.543403 0.627152
O O1 0.202176 0.297825 0.333863
O O2 0.290279 0.378655 0.434287
O O3 0.325078 0.482447 0.335436
O O4 0.418086 0.268594 0.357238
O O5 0.179203 0.320798 0.101703
O O6 0.395844 0.347666 0.066539
O O7 0.305185 0.521210 0.127552
O O8 0.242890 0.465299 0.016782
O O9 0.907554 0.592447 0.801125
O O10 0.947157 0.808836 0.818112
O O11 0.127449 0.627449 0.811153
O O12 0.997389 0.674480 0.900993
O O13 0.634194 0.436184 0.481308
O O14 0.759772 0.557343 0.554603
O O15 0.344017 0.155984 0.017345
O O16 0.843703 0.343703 0.330865
O O17 0.717873 0.402044 0.239004
O O18 0.628314 0.303311 0.336572
O O19 0.765910 0.265910 0.150032
O O20 0.908594 0.591407 0.640142
#
# Coordination Sequence:
#
# PCOD9555645 Si02
#       8
#     8   8   8   8   8   8   8   8
#     4  11  22  37  59  93 130 163 207 262 324 390
#     4  11  23  38  58  88 126 164 209 264 314 371
#     4   9  18  36  61  88 119 153 193 249 314 378
#     4   9  16  31  60  91 121 157 205 261 316 383
#     4  10  21  36  55  85 119 153 198 247 309 377
#     4  10  22  42  65  88 121 167 219 267 315 383
#     4  10  22  40  63  91 119 159 212 258 314 387
#     4  10  20  38  62  87 121 166 212 259 315 379
#
# _framework density 21.544262
#
# number of rings (size 3 to 8) (size 9 to 14) (size 15 to 20)
#    0.000    2.000    1.250    2.250    0.000    6.250 
#    4.500    1.875    0.000    3.750    0.000    0.000 
#    0.000    0.000    0.000    0.000    0.000    0.000 
#
# Total GULP energy -356495.216404 kJ/mol
# GULP energy per Si atom -5570.237756 kJ/mol
# Density = 2.149523 g / cm^3
# Si number density = 21.544262 Si / 1000 Ang^3
#
#
#
# Elastic Constant Matrix: (Units=GPa)
#
#
# Indices 1 2 3 4 5 6 
#
# 1 12.1365 120.2451 18.0901 0.0000 0.0000 0.0000
# 2 120.2451 12.1288 18.0896 0.0000 0.0000 0.0000
# 3 18.0901 18.0896 45.8622 0.0000 0.0000 0.0000
# 4 0.0000 0.0000 0.0000 75.0802 0.0000 0.0000
# 5 0.0000 0.0000 0.0000 0.0000 75.0636 0.0000
# 6 0.0000 0.0000 0.0000 0.0000 0.0000 21.6688
#
#
#
# Elastic Compliance Matrix: (Units=1/GPa)
#
#
# Indices 1 2 3 4 5 6 
#
# 1 -0.000391 0.008858 -0.003340 0.000000 0.000000 0.000000
# 2 0.008858 -0.000392 -0.003340 0.000000 0.000000 0.000000
# 3 -0.003340 -0.003340 0.024439 0.000000 0.000000 0.000000
# 4 0.000000 0.000000 0.000000 0.013319 0.000000 0.000000
# 5 0.000000 0.000000 0.000000 0.000000 0.013322 0.000000
# 6 0.000000 0.000000 0.000000 0.000000 0.000000 0.046149
#
#
# Mechanical properties :
#
#
# Convention : Reuss Voigt Hill
#
# Bulk Modulus (GPa) = 35.69629 42.55302 39.12465
# Shear Modulus (GPa) = 49.29661 28.60938 38.95300
#
# Velocity S-wave (km/s) = 4.78866 3.64804 4.25672
# Velocity P-wave (km/s) = 6.86875 6.12687 6.50839
#
# Compressibility (1/GPa) = 0.02801412
#
# Stress axis : x y z
#
# Youngs Moduli (GPa) = -2557.00036 -2553.29544 40.91816
#
# Poissons Ratio (x) = 22.61776 0.13666
# Poissons Ratio (y) = 22.65058 0.13665
# Poissons Ratio (z) = -8.53971 -8.52702
#
# Static dielectric constant tensor:
#      x y z
#    x 1.827400 0.000000 0.000000 
#    y 0.000000 1.827400 0.000000 
#    z 0.000000 0.000000 1.817170 
# 
# From -- ./inp_files/2897.got.cif
#   From: 2010.05.17/outbox.cif.g08.bks.cpg/sg113_cif.got.tgz:2897.got - 2010.05.20 11:03:00.
