data_PCOD9555946
_publ_section_title
;
Structure prediction by ZEFSAII (Michael W. Deem and Ramdas Pophale) SiO2 
 PCOD9555946
Probable space group: P -4 21 C
;
_chemical_formula_sum "Si O2"
_cell_formula_units_Z 36
_cell_length_a 13.573241
_cell_length_b 13.573241
_cell_length_c 8.320269
_cell_angle_alpha 90.000000
_cell_angle_beta 90.000000
_cell_angle_gamma 90.000000
_cell_volume 1532.867047
_symmetry_space_group_name_H-M "P -4 21 C"
_symmetry_group_IT_number 114
_symmetry_cell_setting 'tetragonal'
loop_
_space_group_symop_operation_xyz
x,y,z
y,-x,-z
-x,-y,z
-y,x,-z
1/2+x,1/2-y,1/2-z
1/2-x,1/2+y,1/2-z
1/2-y,1/2-x,1/2+z
1/2+y,1/2+x,1/2+z
loop_
_atom_site_type_symbol
_atom_site_label
_atom_site_fract_x
_atom_site_fract_y
_atom_site_fract_z
Si Si1 0.800255 0.589809 0.806624
Si Si2 0.312788 0.104585 0.117850
Si Si3 0.000000 0.500000 0.901763
Si Si4 0.738847 0.578527 0.176975
Si Si5 0.289348 0.593414 0.694605
O O1 0.908993 0.541546 0.802486
O O2 0.830364 0.697951 0.751998
O O3 0.727557 0.524262 0.700884
O O4 0.760759 0.582364 0.988136
O O5 0.402421 0.048226 0.022681
O O6 0.360186 0.200938 0.196751
O O7 0.272458 0.025707 0.247662
O O8 0.230153 0.127258 0.987009
O O9 0.629420 0.608838 0.229140
#
# Coordination Sequence:
#
# PCOD9555946 Si02
#       5
#     8   8   4   8   8
#     4  10  20  35  57  87 117 147 187 236 292 344
#     4  10  20  35  57  87 117 147 187 236 292 344
#     4   8  16  30  52  82 108 134 172 234 292 330
#     4  11  22  37  60  87 117 151 189 238 289 341
#     4  11  22  37  60  87 117 151 189 238 289 341
#
# _framework density 23.485402000000001
#
# number of rings (size 3 to 8) (size 9 to 14) (size 15 to 20)
#    0.000    1.778    0.000    6.667    0.000    7.111 
#    0.000    0.000    0.000   10.667    0.000    0.000 
#    0.000    0.000    0.000    0.000    0.000    0.000 
#
# Total GULP energy -200968.471504 kJ/mol
# GULP energy per Si atom -5582.457542 kJ/mol
# Density = 2.343195 g / cm^3
# Si number density = 23.485402 Si / 1000 Ang^3
#
#
#
# Elastic Constant Matrix: (Units=GPa)
#
#
# Indices 1 2 3 4 5 6 
#
# 1 44.1680 15.0446 -9.1531 0.0000 0.0000 0.0000
# 2 15.0446 44.1680 -9.1531 0.0000 0.0000 0.0000
# 3 -9.1531 -9.1531 70.4781 0.0000 0.0000 0.0000
# 4 0.0000 0.0000 0.0000 8.3492 0.0000 0.0000
# 5 0.0000 0.0000 0.0000 0.0000 8.3492 0.0000
# 6 0.0000 0.0000 0.0000 0.0000 0.0000 39.8998
#
#
#
# Elastic Compliance Matrix: (Units=1/GPa)
#
#
# Indices 1 2 3 4 5 6 
#
# 1 0.025966 -0.008371 0.002285 0.000000 0.000000 0.000000
# 2 -0.008371 0.025966 0.002285 0.000000 0.000000 0.000000
# 3 0.002285 0.002285 0.014782 0.000000 0.000000 0.000000
# 4 0.000000 0.000000 0.000000 0.119772 0.000000 0.000000
# 5 0.000000 0.000000 0.000000 0.000000 0.119772 0.000000
# 6 0.000000 0.000000 0.000000 0.000000 0.000000 0.025063
#
#
# Mechanical properties :
#
#
# Convention : Reuss Voigt Hill
#
# Bulk Modulus (GPa) = 16.91700 16.92119 16.91909
# Shear Modulus (GPa) = 13.94206 22.12468 18.03337
#
# Velocity S-wave (km/s) = 2.43913 3.07263 2.77403
# Velocity P-wave (km/s) = 3.89247 4.45070 4.18091
#
# Compressibility (1/GPa) = 0.05911214
#
# Stress axis : x y z
#
# Youngs Moduli (GPa) = 38.51238 38.51238 67.64826
#
# Poissons Ratio (x) = 0.32238 -0.15458
# Poissons Ratio (y) = 0.32238 -0.15458
# Poissons Ratio (z) = -0.08800 -0.08800
#
# Static dielectric constant tensor:
#      x y z
#    x 1.943490 0.000000 0.000000 
#    y 0.000000 1.943490 0.000000 
#    z 0.000000 0.000000 1.869830 
# 
# From -- ./inp_files/704.got.cif
#   From: 2010.05.17/outbox.cif.g08.bks.cpg/sg114_1_cif.got.tgz:704.got - 2010.05.20 11:04:54.
