data_PCOD9555810
_publ_section_title
;
Structure prediction by ZEFSAII (Michael W. Deem and Ramdas Pophale) SiO2 
 PCOD9555810
Probable space group: P -4 21 M 
;
_chemical_formula_sum "Si O2"
_cell_formula_units_Z 40
_cell_length_a 15.000000
_cell_length_b 15.000000
_cell_length_c 9.000000
_cell_angle_alpha 90.000000
_cell_angle_beta 90.000000
_cell_angle_gamma 90.000000
_cell_volume 2025.000000
_symmetry_space_group_name_H-M "P -4 21 M "
_symmetry_group_IT_number 113
_symmetry_cell_setting 'tetragonal'
loop_
_space_group_symop_operation_xyz
x,y,z
y,-x,-z
-x,-y,z
-y,x,-z
1/2+x,1/2-y,-z
1/2-x,1/2+y,-z
1/2-y,1/2-x,z
1/2+y,1/2+x,z
loop_
_atom_site_type_symbol
_atom_site_label
_atom_site_fract_x
_atom_site_fract_y
_atom_site_fract_z
Si Si1 0.243595 0.503009 0.013943
Si Si2 0.575809 0.924192 0.166154
Si Si3 0.421312 0.621992 0.477393
Si Si4 0.702766 0.056064 0.660519
Si Si5 0.822939 0.166315 0.162471
Si Si6 0.923263 0.423263 0.488579
O O1 0.207570 0.457867 0.164272
O O2 0.298588 0.589377 0.073707
O O3 0.163204 0.540166 0.915054
O O4 0.290536 0.423961 0.920874
O O5 0.594186 0.905815 0.339095
O O6 0.500000 0.000000 0.158288
O O7 0.528107 0.610141 0.451925
O O8 0.417007 0.702778 0.593069
O O9 0.365942 0.647030 0.328498
O O10 0.633333 0.133333 0.622067
O O11 0.663057 0.965049 0.589964
O O12 0.743843 0.243843 0.165960
O O13 0.000000 0.500000 0.478328
#
# Coordination Sequence:
#
# PCOD9555810 Si02
#       6
#     8   4   8   8   8   4
#     4  12  26  44  73 104 146 195 240 304 371 442
#     4  11  21  43  71 105 143 188 243 304 375 437
#     4  11  25  45  70 100 141 192 243 296 366 435
#     4  11  22  43  69 102 137 182 241 300 362 432
#     4  12  27  49  72 107 149 191 245 308 369 440
#     4   9  21  39  69 103 139 179 229 296 363 424
#
# _framework density 19.753086
#
# number of rings (size 3 to 8) (size 9 to 14) (size 15 to 20)
#    0.000    0.800    3.000    4.200    2.800    2.800 
#    1.800    0.000    0.000    0.000    0.000    0.000 
#    0.000    0.000    0.000    0.000    0.000    0.000 
#
# Total GULP energy -223573.254269 kJ/mol
# GULP energy per Si atom -5589.331357 kJ/mol
# Density = 1.970813 g / cm^3
# Si number density = 19.753086 Si / 1000 Ang^3
#
#
#
# Elastic Constant Matrix: (Units=GPa)
#
#
# Indices 1 2 3 4 5 6 
#
# 1 105.3649 38.3437 16.3779 0.0000 0.0000 0.0000
# 2 38.3437 105.3641 16.3784 0.0000 0.0000 0.0000
# 3 16.3779 16.3784 88.8556 0.0000 0.0000 0.0000
# 4 0.0000 0.0000 0.0000 35.7657 0.0000 0.0000
# 5 0.0000 0.0000 0.0000 0.0000 35.7659 0.0000
# 6 0.0000 0.0000 0.0000 0.0000 0.0000 44.3722
#
#
#
# Elastic Compliance Matrix: (Units=1/GPa)
#
#
# Indices 1 2 3 4 5 6 
#
# 1 0.011092 -0.003829 -0.001339 0.000000 0.000000 0.000000
# 2 -0.003829 0.011092 -0.001339 0.000000 0.000000 0.000000
# 3 -0.001339 -0.001339 0.011748 0.000000 0.000000 0.000000
# 4 0.000000 0.000000 0.000000 0.027960 0.000000 0.000000
# 5 0.000000 0.000000 0.000000 0.000000 0.027960 0.000000
# 6 0.000000 0.000000 0.000000 0.000000 0.000000 0.022537
#
#
# Mechanical properties :
#
#
# Convention : Reuss Voigt Hill
#
# Bulk Modulus (GPa) = 47.80173 49.08717 48.44445
# Shear Modulus (GPa) = 37.77177 38.41306 38.09242
#
# Velocity S-wave (km/s) = 4.37761 4.41462 4.39615
# Velocity P-wave (km/s) = 7.05716 7.13368 7.09552
#
# Compressibility (1/GPa) = 0.02091975
#
# Stress axis : x y z
#
# Youngs Moduli (GPa) = 90.15364 90.15276 85.12241
#
# Poissons Ratio (x) = 0.34515 0.11396
# Poissons Ratio (y) = 0.34515 0.11397
# Poissons Ratio (z) = 0.12070 0.12071
#
# Static dielectric constant tensor:
#      x y z
#    x 1.702900 0.000000 0.000000 
#    y 0.000000 1.702900 0.000000 
#    z 0.000000 0.000000 1.655900 
# 
# From -- ./inp_files/1047.got.cif
#   From: 2010.05.17/outbox.ucp.g08.bks.cvg/sg113_cif.got.tgz:1047.got - 2010.06.11 11:33:17.
