data_PCOD9555654
_publ_section_title
;
Structure prediction by ZEFSAII (Michael W. Deem and Ramdas Pophale) SiO2 
 PCOD9555654
Probable space group: P -4 21 M 
;
_chemical_formula_sum "Si O2"
_cell_formula_units_Z 48
_cell_length_a 21.144562
_cell_length_b 21.144562
_cell_length_c 5.383001
_cell_angle_alpha 90.000000
_cell_angle_beta 90.000000
_cell_angle_gamma 90.000000
_cell_volume 2406.699386
_symmetry_space_group_name_H-M "P -4 21 M "
_symmetry_group_IT_number 113
_symmetry_cell_setting 'tetragonal'
loop_
_space_group_symop_operation_xyz
x,y,z
y,-x,-z
-x,-y,z
-y,x,-z
1/2+x,1/2-y,-z
1/2-x,1/2+y,-z
1/2-y,1/2-x,z
1/2+y,1/2+x,z
loop_
_atom_site_type_symbol
_atom_site_label
_atom_site_fract_x
_atom_site_fract_y
_atom_site_fract_z
Si Si1 0.475295 0.593503 0.588309
Si Si2 0.708098 0.895264 0.558666
Si Si3 0.805204 0.794723 0.413741
Si Si4 0.964250 0.252810 0.954050
Si Si5 0.128492 0.109026 0.033561
Si Si6 0.575881 0.290661 0.330035
O O1 0.545107 0.564990 0.586921
O O2 0.436435 0.587250 0.841119
O O3 0.471481 0.666803 0.501282
O O4 0.641949 0.858052 0.559278
O O5 0.762035 0.840596 0.587146
O O6 0.720765 0.926648 0.288432
O O7 0.713635 0.943060 0.791289
O O8 0.755456 0.744545 0.304949
O O9 0.837089 0.843288 0.225111
O O10 0.865798 0.758782 0.528722
O O11 0.946029 0.179095 0.999646
O O12 0.036513 0.251006 0.861922
O O13 0.112423 0.153501 0.808250
#
# Coordination Sequence:
#
# PCOD9555654 Si02
#       6
#     8   8   8   8   8   8
#     4  10  21  33  45  64 101 153 203 233 262 309
#     4  10  21  39  60  80 106 146 191 235 279 330
#     4   9  20  36  53  74 105 146 188 230 282 337
#     4  11  22  36  56  81 112 142 187 232 277 324
#     4  10  21  32  48  72 104 146 190 231 274 321
#     4  11  22  32  52  76 109 146 182 237 277 330
#
# _framework density 19.944327000000001
#
# number of rings (size 3 to 8) (size 9 to 14) (size 15 to 20)
#    0.000    1.833    3.333    0.500    7.000    1.333 
#    0.000    1.667    0.000    0.000    0.000    0.000 
#    0.000    4.000    0.000    0.000    0.000    0.000 
#
# Total GULP energy -267692.593097 kJ/mol
# GULP energy per Si atom -5576.929023 kJ/mol
# Density = 1.989893 g / cm^3
# Si number density = 19.944327 Si / 1000 Ang^3
#
#
#
# Elastic Constant Matrix: (Units=GPa)
#
#
# Indices 1 2 3 4 5 6 
#
# 1 27.4503 12.5446 1.1191 0.0000 0.0000 0.0000
# 2 12.5446 27.4374 1.1162 0.0000 0.0000 0.0000
# 3 1.1191 1.1162 63.6246 0.0000 0.0000 0.0000
# 4 0.0000 0.0000 0.0000 13.6464 0.0000 0.0000
# 5 0.0000 0.0000 0.0000 0.0000 13.6468 0.0000
# 6 0.0000 0.0000 0.0000 0.0000 0.0000 10.1592
#
#
#
# Elastic Compliance Matrix: (Units=1/GPa)
#
#
# Indices 1 2 3 4 5 6 
#
# 1 0.046064 -0.021043 -0.000441 0.000000 0.000000 0.000000
# 2 -0.021043 0.046085 -0.000438 0.000000 0.000000 0.000000
# 3 -0.000441 -0.000438 0.015733 0.000000 0.000000 0.000000
# 4 0.000000 0.000000 0.000000 0.073279 0.000000 0.000000
# 5 0.000000 0.000000 0.000000 0.000000 0.073277 0.000000
# 6 0.000000 0.000000 0.000000 0.000000 0.000000 0.098433
#
#
# Mechanical properties :
#
#
# Convention : Reuss Voigt Hill
#
# Bulk Modulus (GPa) = 15.61589 16.45245 16.03417
# Shear Modulus (GPa) = 11.95995 14.40599 13.18297
#
# Velocity S-wave (km/s) = 2.45147 2.69050 2.57376
# Velocity P-wave (km/s) = 3.98242 4.23306 4.10965
#
# Compressibility (1/GPa) = 0.06403735
#
# Stress axis : x y z
#
# Youngs Moduli (GPa) = 21.70896 21.69885 63.56210
#
# Poissons Ratio (x) = 0.45661 0.02803
# Poissons Ratio (y) = 0.45682 0.02786
# Poissons Ratio (z) = 0.00957 0.00951
#
# Static dielectric constant tensor:
#      x y z
#    x 1.727730 0.000000 0.000000 
#    y 0.000000 1.727740 0.000000 
#    z 0.000000 0.000000 1.864590 
# 
# From -- ./inp_files/459.got.cif
#   From: 2010.05.17/outbox.cif.g08.bks.cpg/sg113_cif.got.tgz:459.got - 2010.05.20 11:03:00.
