data_PCOD9555338
_publ_section_title
;
Structure prediction by ZEFSAII (Michael W. Deem and Ramdas Pophale) SiO2 
 PCOD9555338
Probable space group: P -4 2 C
;
_chemical_formula_sum "Si O2"
_cell_formula_units_Z 24
_cell_length_a 10.734080
_cell_length_b 10.734080
_cell_length_c 8.952950
_cell_angle_alpha 90.000000
_cell_angle_beta 90.000000
_cell_angle_gamma 90.000000
_cell_volume 1031.563138
_symmetry_space_group_name_H-M "P -4 2 C"
_symmetry_group_IT_number 112
_symmetry_cell_setting 'tetragonal'
loop_
_space_group_symop_operation_xyz
x,y,z
y,-x,-z
-x,-y,z
-y,x,-z
x,-y,1/2-z
-x,y,1/2-z
-y,-x,1/2+z
y,x,1/2+z
loop_
_atom_site_type_symbol
_atom_site_label
_atom_site_fract_x
_atom_site_fract_y
_atom_site_fract_z
Si Si1 0.672478 0.109015 0.974633
Si Si2 0.115620 0.225857 0.330552
Si Si3 0.684871 0.484083 0.574791
O O1 0.698092 0.168859 0.810055
O O2 0.683422 0.962716 0.939547
O O3 0.785689 0.144782 0.083914
O O4 0.551933 0.173271 0.041454
O O5 0.000000 0.153049 0.250000
O O6 0.601622 0.367915 0.515630
O O7 0.664543 0.500000 0.750000
#
# Coordination Sequence:
#
# PCOD9555338 Si02
#       3
#     8   8   8
#     4   9  19  39  56  87 122 156 203 250 300 373
#     4   8  20  35  60  86 119 165 193 249 304 353
#     4  11  22  37  63  89 115 160 210 261 307 364
#
# _framework density 23.265661000000001
#
# number of rings (size 3 to 8) (size 9 to 14) (size 15 to 20)
#    2.000    0.333    0.000    4.000    0.000    2.000 
#    6.000    1.667    7.333    4.000    0.000    0.000 
#    0.000    0.000    0.000    0.000    0.000    0.000 
#
# Total GULP energy -133805.059563 kJ/mol
# GULP energy per Si atom -5575.210815 kJ/mol
# Density = 2.321271 g / cm^3
# Si number density = 23.265661 Si / 1000 Ang^3
#
#
#
# Elastic Constant Matrix: (Units=GPa)
#
#
# Indices 1 2 3 4 5 6 
#
# 1 51.3540 39.3874 40.9677 0.0000 0.0000 0.0000
# 2 39.3874 51.3540 40.9677 0.0000 0.0000 0.0000
# 3 40.9677 40.9677 158.8962 0.0000 0.0000 0.0000
# 4 0.0000 0.0000 0.0000 20.0673 0.0000 0.0000
# 5 0.0000 0.0000 0.0000 0.0000 20.0673 0.0000
# 6 0.0000 0.0000 0.0000 0.0000 0.0000 26.0677
#
#
#
# Elastic Compliance Matrix: (Units=1/GPa)
#
#
# Indices 1 2 3 4 5 6 
#
# 1 0.048965 -0.034601 -0.003704 0.000000 0.000000 0.000000
# 2 -0.034601 0.048965 -0.003704 0.000000 0.000000 0.000000
# 3 -0.003704 -0.003704 0.008203 0.000000 0.000000 0.000000
# 4 0.000000 0.000000 0.000000 0.049832 0.000000 0.000000
# 5 0.000000 0.000000 0.000000 0.000000 0.049832 0.000000
# 6 0.000000 0.000000 0.000000 0.000000 0.000000 0.038362
#
#
# Mechanical properties :
#
#
# Convention : Reuss Voigt Hill
#
# Bulk Modulus (GPa) = 45.21224 56.02775 50.61999
# Shear Modulus (GPa) = 14.90101 22.59255 18.74678
#
# Velocity S-wave (km/s) = 2.53350 3.11958 2.84169
# Velocity P-wave (km/s) = 5.29466 6.09177 5.70715
#
# Compressibility (1/GPa) = 0.02211791
#
# Stress axis : x y z
#
# Youngs Moduli (GPa) = 20.42272 20.42272 121.90427
#
# Poissons Ratio (x) = 0.70664 0.45148
# Poissons Ratio (y) = 0.70664 0.45148
# Poissons Ratio (z) = 0.07564 0.07564
#
# Static dielectric constant tensor:
#      x y z
#    x 1.902810 0.000000 0.000000 
#    y 0.000000 1.902810 0.000000 
#    z 0.000000 0.000000 1.862100 
# 
# From -- ./inp_files/796.got.cif
#   From: 2010.05.17/outbox.cif.g08.bks.cpg/sg112_1_cif.got.tgz:796.got - 2010.05.20 10:59:04.
