data_PCOD9555249
_publ_section_title
;
Structure prediction by ZEFSAII (Michael W. Deem and Ramdas Pophale) SiO2 
 PCOD9555249
Probable space group: P -4 2 C
;
_chemical_formula_sum "Si O2"
_cell_formula_units_Z 26
_cell_length_a 11.412562
_cell_length_b 11.412562
_cell_length_c 10.009119
_cell_angle_alpha 90.000000
_cell_angle_beta 90.000000
_cell_angle_gamma 90.000000
_cell_volume 1303.653433
_symmetry_space_group_name_H-M "P -4 2 C"
_symmetry_group_IT_number 112
_symmetry_cell_setting 'tetragonal'
loop_
_space_group_symop_operation_xyz
x,y,z
y,-x,-z
-x,-y,z
-y,x,-z
x,-y,1/2-z
-x,y,1/2-z
-y,-x,1/2+z
y,x,1/2+z
loop_
_atom_site_type_symbol
_atom_site_label
_atom_site_fract_x
_atom_site_fract_y
_atom_site_fract_z
Si Si1 0.500000 0.000000 0.750000
Si Si2 0.216693 0.528094 0.106572
Si Si3 0.236496 0.730057 0.473579
Si Si4 0.861992 0.137941 0.224945
O O1 0.571740 0.911305 0.842300
O O2 0.278488 0.500000 0.250000
O O3 0.197485 0.405075 0.033250
O O4 0.271746 0.627887 0.017748
O O5 0.213049 0.786867 0.330131
O O6 0.169118 0.811330 0.579757
O O7 0.000000 0.162418 0.250000
O O8 0.845586 0.000000 0.250000
#
# Coordination Sequence:
#
# PCOD9555249 Si02
#       4
#     2   8   8   8
#     4   8  20  44  68  92 134 192 204 286 334 394
#     4  10  24  42  67  97 134 179 222 273 341 397
#     4  12  24  44  68  98 132 184 222 280 338 406
#     4  11  25  41  65  99 137 175 222 282 345 407
#
# _framework density 19.943951999999999
#
# number of rings (size 3 to 8) (size 9 to 14) (size 15 to 20)
#    0.923    0.308    3.077    1.846   12.923    4.308 
#    0.000    3.077    0.000    0.000    0.000    0.000 
#    0.000    0.000    0.000    0.000    0.000    0.000 
#
# Total GULP energy -145010.619392 kJ/mol
# GULP energy per Si atom -5577.331515 kJ/mol
# Density = 1.989856 g / cm^3
# Si number density = 19.943952 Si / 1000 Ang^3
#
#
#
# Elastic Constant Matrix: (Units=GPa)
#
#
# Indices 1 2 3 4 5 6 
#
# 1 102.0074 7.3862 5.7483 0.0000 0.0000 0.0000
# 2 7.3862 102.0074 5.7483 0.0000 0.0000 0.0000
# 3 5.7483 5.7483 54.9556 0.0000 0.0000 0.0000
# 4 0.0000 0.0000 0.0000 32.0309 0.0000 0.0000
# 5 0.0000 0.0000 0.0000 0.0000 32.0309 0.0000
# 6 0.0000 0.0000 0.0000 0.0000 0.0000 15.9604
#
#
#
# Elastic Compliance Matrix: (Units=1/GPa)
#
#
# Indices 1 2 3 4 5 6 
#
# 1 0.009906 -0.000663 -0.000967 0.000000 0.000000 0.000000
# 2 -0.000663 0.009906 -0.000967 0.000000 0.000000 0.000000
# 3 -0.000967 -0.000967 0.018399 0.000000 0.000000 0.000000
# 4 0.000000 0.000000 0.000000 0.031220 0.000000 0.000000
# 5 0.000000 0.000000 0.000000 0.000000 0.031220 0.000000
# 6 0.000000 0.000000 0.000000 0.000000 0.000000 0.062655
#
#
# Mechanical properties :
#
#
# Convention : Reuss Voigt Hill
#
# Bulk Modulus (GPa) = 30.28709 32.97067 31.62888
# Shear Modulus (GPa) = 27.85462 32.01027 29.93244
#
# Velocity S-wave (km/s) = 3.74123 4.01061 3.87826
# Velocity P-wave (km/s) = 5.82078 6.16556 5.99565
#
# Compressibility (1/GPa) = 0.03301737
#
# Stress axis : x y z
#
# Youngs Moduli (GPa) = 100.95215 100.95215 54.35150
#
# Poissons Ratio (x) = 0.06691 0.05255
# Poissons Ratio (y) = 0.06691 0.05255
# Poissons Ratio (z) = 0.09760 0.09760
#
# Static dielectric constant tensor:
#      x y z
#    x 1.704160 0.000000 0.000000 
#    y 0.000000 1.704160 0.000000 
#    z 0.000000 0.000000 1.689790 
# 
# From -- ./inp_files/858.got.cif
#   From: 2010.05.17/outbox.cif.g08.bks.cpg/sg112_1_cif.got.tgz:858.got - 2010.05.20 10:59:04.
