data_PCOD9555936
_publ_section_title
;
Structure prediction by ZEFSAII (Michael W. Deem and Ramdas Pophale) SiO2 
 PCOD9555936
Probable space group: P -4 21 C
;
_chemical_formula_sum "Si O2"
_cell_formula_units_Z 48
_cell_length_a 7.770543
_cell_length_b 7.770543
_cell_length_c 39.469137
_cell_angle_alpha 90.000000
_cell_angle_beta 90.000000
_cell_angle_gamma 90.000000
_cell_volume 2383.199322
_symmetry_space_group_name_H-M "P -4 21 C"
_symmetry_group_IT_number 114
_symmetry_cell_setting 'tetragonal'
loop_
_space_group_symop_operation_xyz
x,y,z
y,-x,-z
-x,-y,z
-y,x,-z
1/2+x,1/2-y,1/2-z
1/2-x,1/2+y,1/2-z
1/2-y,1/2-x,1/2+z
1/2+y,1/2+x,1/2+z
loop_
_atom_site_type_symbol
_atom_site_label
_atom_site_fract_x
_atom_site_fract_y
_atom_site_fract_z
Si Si1 0.196423 0.210066 0.538114
Si Si2 0.196423 0.789934 0.538114
Si Si3 0.192552 0.292571 0.711897
Si Si4 0.792571 0.307448 0.211898
Si Si5 0.292797 0.500000 0.335064
Si Si6 0.292861 1.000000 0.086179
O O1 0.255035 0.255035 0.500000
O O2 0.330551 0.269500 0.566278
O O3 0.000000 0.268965 0.543541
O O4 0.192391 0.000000 0.538449
O O5 0.330550 0.730500 0.566278
O O6 0.250000 0.250000 0.750000
O O7 0.188094 0.500000 0.709361
O O8 0.332032 0.228065 0.684973
O O9 1.000000 0.226559 0.705965
O O10 0.728065 0.167967 0.184973
O O11 0.500000 0.500000 0.332071
O O12 0.250670 0.500000 0.374463
O O13 0.500000 0.000000 0.083379
#
# Coordination Sequence:
#
# PCOD9555936 Si02
#       6
#     8   8   8   8   8   8
#     4   8  15  31  54  77 105 139 176 226 279 322
#     4   8  15  31  54  77 105 139 176 226 279 322
#     4  10  20  35  57  80 104 140 184 227 275 332
#     4  10  20  35  57  80 104 140 184 227 275 332
#     4  10  22  38  50  74 118 146 168 226 288 326
#     4  10  20  34  54  80 108 142 188 230 270 336
#
# _framework density 20.140991
#
# number of rings (size 3 to 8) (size 9 to 14) (size 15 to 20)
#    0.000    2.667    1.667    1.000    0.000    2.667 
#    3.000    0.000    0.000    0.000    0.000    0.000 
#    0.000    0.000    0.000    0.000    0.000    0.000 
#
# Total GULP energy -267951.688264 kJ/mol
# GULP energy per Si atom -5582.326839 kJ/mol
# Density = 2.009515 g / cm^3
# Si number density = 20.140991 Si / 1000 Ang^3
#
#
#
# Elastic Constant Matrix: (Units=GPa)
#
#
# Indices 1 2 3 4 5 6 
#
# 1 92.6748 33.0458 68.4626 0.0000 0.0000 0.0000
# 2 33.0458 92.6748 68.4626 0.0000 0.0000 0.0000
# 3 68.4626 68.4626 208.0175 0.0000 0.0000 0.0000
# 4 0.0000 0.0000 0.0000 34.3151 0.0000 0.0000
# 5 0.0000 0.0000 0.0000 0.0000 34.3151 0.0000
# 6 0.0000 0.0000 0.0000 0.0000 0.0000 7.2809
#
#
#
# Elastic Compliance Matrix: (Units=1/GPa)
#
#
# Indices 1 2 3 4 5 6 
#
# 1 0.014584 -0.002186 -0.004081 0.000000 0.000000 0.000000
# 2 -0.002186 0.014584 -0.004081 0.000000 0.000000 0.000000
# 3 -0.004081 -0.004081 0.007493 0.000000 0.000000 0.000000
# 4 0.000000 0.000000 0.000000 0.029142 0.000000 0.000000
# 5 0.000000 0.000000 0.000000 0.000000 0.029142 0.000000
# 6 0.000000 0.000000 0.000000 0.000000 0.000000 0.137345
#
#
# Mechanical properties :
#
#
# Convention : Reuss Voigt Hill
#
# Bulk Modulus (GPa) = 62.62602 81.47878 72.05240
# Shear Modulus (GPa) = 19.35682 30.07531 24.71607
#
# Velocity S-wave (km/s) = 3.10347 3.86844 3.50687
# Velocity P-wave (km/s) = 6.63350 7.77786 7.22836
#
# Compressibility (1/GPa) = 0.01596780
#
# Stress axis : x y z
#
# Youngs Moduli (GPa) = 68.56663 68.56663 133.45347
#
# Poissons Ratio (x) = 0.14989 0.54456
# Poissons Ratio (y) = 0.14989 0.54456
# Poissons Ratio (z) = 0.27979 0.27979
#
# Static dielectric constant tensor:
#      x y z
#    x 1.737230 0.000000 0.000000 
#    y 0.000000 1.737230 0.000000 
#    z 0.000000 0.000000 1.656230 
# 
# From -- ./inp_files/3977.got.cif
#   From: 2010.05.17/outbox.cif.g08.bks.cpg/sg114_2_cif.got.tgz:3977.got - 2010.05.20 11:04:54.
