data_PCOD9555629
_publ_section_title
;
Structure prediction by ZEFSAII (Michael W. Deem and Ramdas Pophale) SiO2 
 PCOD9555629
Probable space group: P -4 21 M 
;
_chemical_formula_sum "Si O2"
_cell_formula_units_Z 48
_cell_length_a 14.722682
_cell_length_b 14.722682
_cell_length_c 10.791353
_cell_angle_alpha 90.000000
_cell_angle_beta 90.000000
_cell_angle_gamma 90.000000
_cell_volume 2339.105244
_symmetry_space_group_name_H-M "P -4 21 M "
_symmetry_group_IT_number 113
_symmetry_cell_setting 'tetragonal'
loop_
_space_group_symop_operation_xyz
x,y,z
y,-x,-z
-x,-y,z
-y,x,-z
1/2+x,1/2-y,-z
1/2-x,1/2+y,-z
1/2-y,1/2-x,z
1/2+y,1/2+x,z
loop_
_atom_site_type_symbol
_atom_site_label
_atom_site_fract_x
_atom_site_fract_y
_atom_site_fract_z
Si Si1 0.580598 0.564124 0.169927
Si Si2 0.061428 0.820275 0.373800
Si Si3 0.850778 0.496051 0.807772
Si Si4 0.404655 0.757833 0.969626
Si Si5 0.641760 0.001505 0.739232
Si Si6 0.478111 0.693321 0.357861
O O1 0.500000 0.500000 0.124894
O O2 0.633325 0.503718 0.272304
O O3 0.651713 0.597836 0.066298
O O4 0.534780 0.642629 0.250833
O O5 0.052132 0.713924 0.343759
O O6 0.156046 0.874612 0.359996
O O7 0.022336 0.832660 0.511266
O O8 0.896858 0.396858 0.821296
O O9 0.797804 0.510256 0.679039
O O10 0.932078 0.567923 0.815061
O O11 0.783231 0.529325 0.916991
O O12 0.307350 0.807350 0.991278
O O13 0.448833 0.806239 0.850072
O O14 0.571548 0.928453 0.792710
O O15 0.579532 0.079532 0.675144
#
# Coordination Sequence:
#
# PCOD9555629 Si02
#       6
#     8   8   8   8   8   8
#     4   9  19  36  60  89 120 154 203 254 313 369
#     4  10  20  36  61  87 118 162 204 251 312 369
#     4  10  23  43  64  88 123 167 208 254 318 381
#     4   9  18  38  63  87 119 161 207 254 304 372
#     4   9  18  34  58  88 120 158 206 257 306 362
#     4  11  21  38  62  87 121 161 205 254 311 380
#
# _framework density 20.520668000000001
#
# number of rings (size 3 to 8) (size 9 to 14) (size 15 to 20)
#    0.000    2.333    1.667    0.500    0.000    4.667 
#    9.000    1.667    0.000    0.000    0.000    0.000 
#    0.000    0.000    0.000    0.000    0.000    0.000 
#
# Total GULP energy -267564.303143 kJ/mol
# GULP energy per Si atom -5574.256315 kJ/mol
# Density = 2.047396 g / cm^3
# Si number density = 20.520668 Si / 1000 Ang^3
#
#
#
# Elastic Constant Matrix: (Units=GPa)
#
#
# Indices 1 2 3 4 5 6 
#
# 1 83.9699 29.3650 32.8701 0.0000 0.0000 0.0000
# 2 29.3650 83.9699 32.8703 0.0000 0.0000 0.0000
# 3 32.8701 32.8703 79.8075 0.0000 0.0000 0.0000
# 4 0.0000 0.0000 0.0000 8.7202 0.0000 0.0000
# 5 0.0000 0.0000 0.0000 0.0000 8.7195 0.0000
# 6 0.0000 0.0000 0.0000 0.0000 0.0000 13.3419
#
#
#
# Elastic Compliance Matrix: (Units=1/GPa)
#
#
# Indices 1 2 3 4 5 6 
#
# 1 0.014953 -0.003360 -0.004775 0.000000 0.000000 0.000000
# 2 -0.003360 0.014953 -0.004775 0.000000 0.000000 0.000000
# 3 -0.004775 -0.004775 0.016463 0.000000 0.000000 0.000000
# 4 0.000000 0.000000 0.000000 0.114676 0.000000 0.000000
# 5 0.000000 0.000000 0.000000 0.000000 0.114685 0.000000
# 6 0.000000 0.000000 0.000000 0.000000 0.000000 0.074952
#
#
# Mechanical properties :
#
#
# Convention : Reuss Voigt Hill
#
# Bulk Modulus (GPa) = 48.66132 48.66200 48.66166
# Shear Modulus (GPa) = 13.04284 16.33246 14.68765
#
# Velocity S-wave (km/s) = 2.52384 2.82424 2.67825
# Velocity P-wave (km/s) = 5.67960 5.86517 5.77313
#
# Compressibility (1/GPa) = 0.02055020
#
# Stress axis : x y z
#
# Youngs Moduli (GPa) = 66.87525 66.87519 60.74100
#
# Poissons Ratio (x) = 0.22471 0.29003
# Poissons Ratio (y) = 0.22471 0.29003
# Poissons Ratio (z) = 0.31932 0.31932
#
# Static dielectric constant tensor:
#      x y z
#    x 1.772920 0.000000 0.000000 
#    y 0.000000 1.772920 0.000000 
#    z 0.000000 0.000000 1.717490 
# 
# From -- ./inp_files/1854.got.cif
#   From: 2010.05.17/outbox.cif.g08.bks.cpg/sg113_cif.got.tgz:1854.got - 2010.05.20 11:03:00.
