data_PCOD9555421
_publ_section_title
;
Structure prediction by ZEFSAII (Michael W. Deem and Ramdas Pophale) SiO2 
 PCOD9555421
Probable space group: P -4 2 C
;
_chemical_formula_sum "Si O2"
_cell_formula_units_Z 16
_cell_length_a 5.217982
_cell_length_b 5.217982
_cell_length_c 24.685098
_cell_angle_alpha 90.000000
_cell_angle_beta 90.000000
_cell_angle_gamma 90.000000
_cell_volume 672.109461
_symmetry_space_group_name_H-M "P -4 2 C"
_symmetry_group_IT_number 112
_symmetry_cell_setting 'tetragonal'
loop_
_space_group_symop_operation_xyz
x,y,z
y,-x,-z
-x,-y,z
-y,x,-z
x,-y,1/2-z
-x,y,1/2-z
-y,-x,1/2+z
y,x,1/2+z
loop_
_atom_site_type_symbol
_atom_site_label
_atom_site_fract_x
_atom_site_fract_y
_atom_site_fract_z
Si Si1 0.500000 0.500000 0.250000
Si Si2 0.500000 0.500000 0.500000
Si Si3 0.500000 0.000000 0.067735
Si Si4 0.242170 0.156733 0.839172
O O1 0.338565 0.672708 0.209291
O O2 0.411075 0.754721 0.467262
O O3 0.703893 0.131757 0.107903
O O4 0.500000 0.000000 0.853123
O O5 0.000000 0.000000 0.818813
#
# Coordination Sequence:
#
# PCOD9555421 Si02
#       4
#     2   2   4   8
#     4  12  28  50  76 130 164 214 276 314 436 486
#     4  12  30  52  88 114 164 220 282 364 436 490
#     4  12  30  53  78 120 154 213 284 346 420 508
#     4  12  28  50  81 115 164 215 265 341 405 510
#
# _framework density 23.805647
#
# number of rings (size 3 to 8) (size 9 to 14) (size 15 to 20)
#    0.000    0.000    0.000    8.250   10.500   15.000 
#    0.000    0.000    0.000    0.000    0.000    0.000 
#    0.000    0.000    0.000    0.000    0.000    0.000 
#
# Total GULP energy -89633.970983 kJ/mol
# GULP energy per Si atom -5602.123186 kJ/mol
# Density = 2.375146 g / cm^3
# Si number density = 23.805647 Si / 1000 Ang^3
#
#
#
# Elastic Constant Matrix: (Units=GPa)
#
#
# Indices 1 2 3 4 5 6 
#
# 1 193.4322 101.9700 84.6439 0.0000 0.0000 0.0000
# 2 101.9700 193.4322 84.6439 0.0000 0.0000 0.0000
# 3 84.6439 84.6439 142.2478 0.0000 0.0000 0.0000
# 4 0.0000 0.0000 0.0000 924.2734 0.0000 0.0000
# 5 0.0000 0.0000 0.0000 0.0000 924.2734 0.0000
# 6 0.0000 0.0000 0.0000 0.0000 0.0000 33.1617
#
#
#
# Elastic Compliance Matrix: (Units=1/GPa)
#
#
# Indices 1 2 3 4 5 6 
#
# 1 0.008035 -0.002898 -0.003057 0.000000 0.000000 0.000000
# 2 -0.002898 0.008035 -0.003057 0.000000 0.000000 0.000000
# 3 -0.003057 -0.003057 0.010668 0.000000 0.000000 0.000000
# 4 0.000000 0.000000 0.000000 0.001082 0.000000 0.000000
# 5 0.000000 0.000000 0.000000 0.000000 0.001082 0.000000
# 6 0.000000 0.000000 0.000000 0.000000 0.000000 0.030155
#
#
# Mechanical properties :
#
#
# Convention : Reuss Voigt Hill
#
# Bulk Modulus (GPa) = 114.74753 119.06972 116.90863
# Shear Modulus (GPa) = 62.51122 393.53199 228.02161
#
# Velocity S-wave (km/s) = 5.12991 12.87126 9.79758
# Velocity P-wave (km/s) = 9.13206 16.46263 13.31189
#
# Compressibility (1/GPa) = 0.00871478
#
# Stress axis : x y z
#
# Youngs Moduli (GPa) = 124.45226 124.45226 93.74048
#
# Poissons Ratio (x) = 0.36070 0.28654
# Poissons Ratio (y) = 0.36070 0.28654
# Poissons Ratio (z) = 0.38041 0.38041
#
# Static dielectric constant tensor:
#      x y z
#    x 0.995260 0.000000 0.000000 
#    y 0.000000 0.995260 0.000000 
#    z 0.000000 0.000000 1.905900 
# 
# From -- ./inp_files/4303.got.cif
#   From: 2010.05.17/outbox.cif.g08.bks.cpg/sg112_3_cif.got.tgz:4303.got - 2010.05.20 10:59:04.
