data_PCOD9555152
_publ_section_title
;
Structure prediction by ZEFSAII (Michael W. Deem and Ramdas Pophale) SiO2 
 PCOD9555152
Probable space group: P -4 2 C
;
_chemical_formula_sum "Si O2"
_cell_formula_units_Z 38
_cell_length_a 14.613418
_cell_length_b 14.613418
_cell_length_c 8.879445
_cell_angle_alpha 90.000000
_cell_angle_beta 90.000000
_cell_angle_gamma 90.000000
_cell_volume 1896.223111
_symmetry_space_group_name_H-M "P -4 2 C"
_symmetry_group_IT_number 112
_symmetry_cell_setting 'tetragonal'
loop_
_space_group_symop_operation_xyz
x,y,z
y,-x,-z
-x,-y,z
-y,x,-z
x,-y,1/2-z
-x,y,1/2-z
-y,-x,1/2+z
y,x,1/2+z
loop_
_atom_site_type_symbol
_atom_site_label
_atom_site_fract_x
_atom_site_fract_y
_atom_site_fract_z
Si Si1 0.596189 0.747280 0.820493
Si Si2 0.298601 0.111035 0.246852
Si Si3 0.713619 0.591284 0.667697
Si Si4 0.776752 0.840042 0.924651
Si Si5 0.000000 0.000000 0.500000
Si Si6 0.869989 0.000000 0.750000
O O1 0.500000 0.778649 0.750000
O O2 0.644955 0.671894 0.715842
O O3 0.678083 0.818202 0.851346
O O4 0.578258 0.710911 0.988987
O O5 0.383001 0.182413 0.223669
O O6 0.242124 0.151437 0.389701
O O7 0.313763 0.000000 0.250000
O O8 0.239985 0.137435 0.098495
O O9 0.684615 0.500000 0.750000
O O10 0.814224 0.926239 0.837859
O O11 0.068686 0.045203 0.617861
#
# Coordination Sequence:
#
# PCOD9555152 Si02
#       6
#     8   8   8   8   2   4
#     4  10  21  41  64  91 123 157 199 247 308 367
#     4  10  23  40  59  86 123 165 207 251 305 361
#     4  10  21  40  65  93 121 160 198 253 304 367
#     4  10  23  38  59  85 119 161 203 250 305 354
#     4  10  24  34  56  82 116 158 204 274 296 362
#     4  11  22  38  53  84 116 154 209 252 309 344
#
# _framework density 20.039836000000001
#
# number of rings (size 3 to 8) (size 9 to 14) (size 15 to 20)
#    0.000    1.895    0.000    2.526    8.842    2.526 
#    0.000    2.632    0.000    0.000    0.000    0.000 
#    0.000    0.000    0.000    0.000    0.000    0.000 
#
# Total GULP energy -211857.939068 kJ/mol
# GULP energy per Si atom -5575.208923 kJ/mol
# Density = 1.999422 g / cm^3
# Si number density = 20.039836 Si / 1000 Ang^3
#
#
#
# Elastic Constant Matrix: (Units=GPa)
#
#
# Indices 1 2 3 4 5 6 
#
# 1 71.3472 -8.7147 2.4343 0.0000 0.0000 0.0000
# 2 -8.7147 71.3472 2.4343 0.0000 0.0000 0.0000
# 3 2.4343 2.4343 99.9507 0.0000 0.0000 0.0000
# 4 0.0000 0.0000 0.0000 23.7614 0.0000 0.0000
# 5 0.0000 0.0000 0.0000 0.0000 23.7614 0.0000
# 6 0.0000 0.0000 0.0000 0.0000 0.0000 41.7887
#
#
#
# Elastic Compliance Matrix: (Units=1/GPa)
#
#
# Indices 1 2 3 4 5 6 
#
# 1 0.014243 0.001753 -0.000390 0.000000 0.000000 0.000000
# 2 0.001753 0.014243 -0.000390 0.000000 0.000000 0.000000
# 3 -0.000390 -0.000390 0.010024 0.000000 0.000000 0.000000
# 4 0.000000 0.000000 0.000000 0.042085 0.000000 0.000000
# 5 0.000000 0.000000 0.000000 0.000000 0.042085 0.000000
# 6 0.000000 0.000000 0.000000 0.000000 0.000000 0.023930
#
#
# Mechanical properties :
#
#
# Convention : Reuss Voigt Hill
#
# Bulk Modulus (GPa) = 24.71676 26.10589 25.41132
# Shear Modulus (GPa) = 31.61572 34.29505 32.95538
#
# Velocity S-wave (km/s) = 3.97627 4.14133 4.05964
# Velocity P-wave (km/s) = 5.78286 5.99356 5.88915
#
# Compressibility (1/GPa) = 0.04045838
#
# Stress axis : x y z
#
# Youngs Moduli (GPa) = 70.20804 70.20804 99.76144
#
# Poissons Ratio (x) = -0.12308 0.03887
# Poissons Ratio (y) = -0.12308 0.03887
# Poissons Ratio (z) = 0.02735 0.02735
#
# Static dielectric constant tensor:
#      x y z
#    x 1.731810 0.000000 0.000000 
#    y 0.000000 1.731810 0.000000 
#    z 0.000000 0.000000 1.578090 
# 
# From -- ./inp_files/1178.got.cif
#   From: 2010.05.17/outbox.cif.g08.bks.cpg/sg112_1_cif.got.tgz:1178.got - 2010.05.20 10:59:04.
