data_PCOD9555284
_publ_section_title
;
Structure prediction by ZEFSAII (Michael W. Deem and Ramdas Pophale) SiO2 
 PCOD9555284
Probable space group: P -4 2 C
;
_chemical_formula_sum "Si O2"
_cell_formula_units_Z 20
_cell_length_a 5.072935
_cell_length_b 5.072935
_cell_length_c 32.584213
_cell_angle_alpha 90.000000
_cell_angle_beta 90.000000
_cell_angle_gamma 90.000000
_cell_volume 838.543953
_symmetry_space_group_name_H-M "P -4 2 C"
_symmetry_group_IT_number 112
_symmetry_cell_setting 'tetragonal'
loop_
_space_group_symop_operation_xyz
x,y,z
y,-x,-z
-x,-y,z
-y,x,-z
x,-y,1/2-z
-x,y,1/2-z
-y,-x,1/2+z
y,x,1/2+z
loop_
_atom_site_type_symbol
_atom_site_label
_atom_site_fract_x
_atom_site_fract_y
_atom_site_fract_z
Si Si1 0.500000 0.500000 0.750000
Si Si2 0.500000 0.500000 0.390939
Si Si3 0.000000 0.000000 0.000000
Si Si4 0.000000 0.500000 0.554999
Si Si5 0.825203 0.738890 0.182559
O O1 0.716840 0.396926 0.783452
O O2 0.408675 0.253899 0.418493
O O3 0.710495 0.359001 0.360919
O O4 0.250087 0.079801 0.027563
O O5 0.000000 0.500000 0.198621
O O6 0.000000 0.000000 0.179340
#
# Coordination Sequence:
#
# PCOD9555284 Si02
#       5
#     2   4   2   4   8
#     4  10  26  46  68 110 148 196 266 312 392 460
#     4  11  26  44  76 109 148 196 256 311 380 460
#     4  12  28  48  76 116 152 202 248 312 396 460
#     4  12  26  48  76 111 156 198 254 315 382 474
#     4  11  25  45  72 106 145 200 250 319 382 454
#
# _framework density 23.850868999999999
#
# number of rings (size 3 to 8) (size 9 to 14) (size 15 to 20)
#    0.000    0.800    0.000    5.400    8.400    9.600 
#    0.000    0.000    0.000    0.000    0.000    0.000 
#    0.000    0.000    0.000    0.000    0.000    0.000 
#
# Total GULP energy -111632.383142 kJ/mol
# GULP energy per Si atom -5581.619157 kJ/mol
# Density = 2.379658 g / cm^3
# Si number density = 23.850869 Si / 1000 Ang^3
#
#
#
# Elastic Constant Matrix: (Units=GPa)
#
#
# Indices 1 2 3 4 5 6 
#
# 1 136.7236 36.7075 44.1260 0.0000 0.0000 0.0000
# 2 36.7075 136.7236 44.1260 0.0000 0.0000 0.0000
# 3 44.1260 44.1260 123.4158 0.0000 0.0000 0.0000
# 4 0.0000 0.0000 0.0000 11.0075 0.0000 0.0000
# 5 0.0000 0.0000 0.0000 0.0000 11.0075 0.0000
# 6 0.0000 0.0000 0.0000 0.0000 0.0000 50.6130
#
#
#
# Elastic Compliance Matrix: (Units=1/GPa)
#
#
# Indices 1 2 3 4 5 6 
#
# 1 0.008523 -0.001475 -0.002520 0.000000 0.000000 0.000000
# 2 -0.001475 0.008523 -0.002520 0.000000 0.000000 0.000000
# 3 -0.002520 -0.002520 0.009905 0.000000 0.000000 0.000000
# 4 0.000000 0.000000 0.000000 0.090847 0.000000 0.000000
# 5 0.000000 0.000000 0.000000 0.000000 0.090847 0.000000
# 6 0.000000 0.000000 0.000000 0.000000 0.000000 0.019758
#
#
# Mechanical properties :
#
#
# Convention : Reuss Voigt Hill
#
# Bulk Modulus (GPa) = 71.83305 71.86467 71.84886
# Shear Modulus (GPa) = 20.31912 32.65251 26.48582
#
# Velocity S-wave (km/s) = 2.92194 3.70405 3.33600
# Velocity P-wave (km/s) = 6.44722 6.96345 6.71030
#
# Compressibility (1/GPa) = 0.01392117
#
# Stress axis : x y z
#
# Youngs Moduli (GPa) = 117.32463 117.32463 100.96187
#
# Poissons Ratio (x) = 0.17306 0.25443
# Poissons Ratio (y) = 0.17306 0.25443
# Poissons Ratio (z) = 0.29566 0.29566
#
# Static dielectric constant tensor:
#      x y z
#    x 1.812390 0.000000 0.000000 
#    y 0.000000 1.812390 0.000000 
#    z 0.000000 0.000000 1.940670 
# 
# From -- ./inp_files/5693.got.cif
#   From: 2010.05.17/outbox.cif.g08.bks.cpg/sg112_3_cif.got.tgz:5693.got - 2010.05.20 10:59:04.
