data_PCOD9555270
_publ_section_title
;
Structure prediction by ZEFSAII (Michael W. Deem and Ramdas Pophale) SiO2 
 PCOD9555270
Probable space group: P -4 2 C
;
_chemical_formula_sum "Si O2"
_cell_formula_units_Z 24
_cell_length_a 11.866235
_cell_length_b 11.866235
_cell_length_c 8.887780
_cell_angle_alpha 90.000000
_cell_angle_beta 90.000000
_cell_angle_gamma 90.000000
_cell_volume 1251.466376
_symmetry_space_group_name_H-M "P -4 2 C"
_symmetry_group_IT_number 112
_symmetry_cell_setting 'tetragonal'
loop_
_space_group_symop_operation_xyz
x,y,z
y,-x,-z
-x,-y,z
-y,x,-z
x,-y,1/2-z
-x,y,1/2-z
-y,-x,1/2+z
y,x,1/2+z
loop_
_atom_site_type_symbol
_atom_site_label
_atom_site_fract_x
_atom_site_fract_y
_atom_site_fract_z
Si Si1 0.000000 0.000000 0.000000
Si Si2 0.085643 0.776168 0.141723
Si Si3 0.304266 0.127699 0.190077
Si Si4 0.500000 0.500000 0.000000
Si Si5 0.693697 0.500000 0.750000
O O1 0.985061 0.114452 0.090161
O O2 0.192169 0.824818 0.230128
O O3 0.000000 0.709249 0.250000
O O4 0.119610 0.713130 0.989504
O O5 0.396774 0.220685 0.229158
O O6 0.326317 0.000000 0.250000
O O7 0.510585 0.390250 0.107065
#
# Coordination Sequence:
#
# PCOD9555270 Si02
#       5
#     2   8   8   2   4
#     4  12  18  32  54  88 134 172 202 224 278 360
#     4  12  21  34  60  94 132 175 204 239 293 371
#     4  12  22  38  59  94 131 161 204 252 314 369
#     4  10  24  50  68  86 104 154 232 262 316 382
#     4  11  25  44  70  86 115 159 206 278 320 365
#
# _framework density 19.177503000000002
#
# number of rings (size 3 to 8) (size 9 to 14) (size 15 to 20)
#    0.000    0.333    6.667    3.000    0.000    0.000 
#    0.000    0.000    0.000    6.000    0.000    0.000 
#    0.000    0.000    0.000    0.000    0.000    0.000 
#
# Total GULP energy -134032.136190 kJ/mol
# GULP energy per Si atom -5584.672341 kJ/mol
# Density = 1.913385 g / cm^3
# Si number density = 19.177503 Si / 1000 Ang^3
#
#
#
# Elastic Constant Matrix: (Units=GPa)
#
#
# Indices 1 2 3 4 5 6 
#
# 1 117.4257 85.9132 74.9367 0.0000 0.0000 0.0000
# 2 85.9132 117.4257 74.9367 0.0000 0.0000 0.0000
# 3 74.9367 74.9367 160.5711 0.0000 0.0000 0.0000
# 4 0.0000 0.0000 0.0000 21.6079 0.0000 0.0000
# 5 0.0000 0.0000 0.0000 0.0000 21.6079 0.0000
# 6 0.0000 0.0000 0.0000 0.0000 0.0000 20.8876
#
#
#
# Elastic Compliance Matrix: (Units=1/GPa)
#
#
# Indices 1 2 3 4 5 6 
#
# 1 0.019615 -0.012118 -0.003499 0.000000 0.000000 0.000000
# 2 -0.012118 0.019615 -0.003499 0.000000 0.000000 0.000000
# 3 -0.003499 -0.003499 0.009493 0.000000 0.000000 0.000000
# 4 0.000000 0.000000 0.000000 0.046279 0.000000 0.000000
# 5 0.000000 0.000000 0.000000 0.000000 0.046279 0.000000
# 6 0.000000 0.000000 0.000000 0.000000 0.000000 0.047875
#
#
# Mechanical properties :
#
#
# Convention : Reuss Voigt Hill
#
# Bulk Modulus (GPa) = 95.30960 96.33286 95.82123
# Shear Modulus (GPa) = 21.65572 23.46306 22.55939
#
# Velocity S-wave (km/s) = 3.36404 3.50161 3.43351
# Velocity P-wave (km/s) = 8.05578 8.16637 8.11126
#
# Compressibility (1/GPa) = 0.01049212
#
# Stress axis : x y z
#
# Youngs Moduli (GPa) = 50.98143 50.98143 105.33809
#
# Poissons Ratio (x) = 0.61782 0.36853
# Poissons Ratio (y) = 0.61782 0.36853
# Poissons Ratio (z) = 0.17836 0.17836
#
# Static dielectric constant tensor:
#      x y z
#    x 1.686380 0.000000 0.000000 
#    y 0.000000 1.686380 0.000000 
#    z 0.000000 0.000000 1.746340 
# 
# From -- ./inp_files/877.got.cif
#   From: 2010.05.17/outbox.cif.g08.bks.cpg/sg112_1_cif.got.tgz:877.got - 2010.05.20 10:59:04.
