data_PCOD9555775
_publ_section_title
;
Structure prediction by ZEFSAII (Michael W. Deem and Ramdas Pophale) SiO2 
 PCOD9555775
Probable space group: P -4 21 M 
;
_chemical_formula_sum "Si O2"
_cell_formula_units_Z 64
_cell_length_a 21.163708
_cell_length_b 21.163708
_cell_length_c 8.626951
_cell_angle_alpha 90.000000
_cell_angle_beta 90.000000
_cell_angle_gamma 90.000000
_cell_volume 3864.033234
_symmetry_space_group_name_H-M "P -4 21 M "
_symmetry_group_IT_number 113
_symmetry_cell_setting 'tetragonal'
loop_
_space_group_symop_operation_xyz
x,y,z
y,-x,-z
-x,-y,z
-y,x,-z
1/2+x,1/2-y,-z
1/2-x,1/2+y,-z
1/2-y,1/2-x,z
1/2+y,1/2+x,z
loop_
_atom_site_type_symbol
_atom_site_label
_atom_site_fract_x
_atom_site_fract_y
_atom_site_fract_z
Si Si1 0.475737 0.402775 0.019973
Si Si2 0.926489 0.143118 0.656688
Si Si3 0.276111 0.674167 0.810462
Si Si4 0.666005 0.267597 0.301781
Si Si5 0.942333 0.827537 0.496116
Si Si6 0.365116 0.237753 0.843182
Si Si7 0.126824 0.272637 0.042671
Si Si8 0.503313 0.276454 0.823743
O O1 0.437625 0.386138 0.173842
O O2 0.434639 0.457126 0.936688
O O3 0.487219 0.340742 0.918255
O O4 0.876746 0.199655 0.687427
O O5 0.893538 0.091942 0.546031
O O6 0.994407 0.163488 0.595091
O O7 0.218270 0.718270 0.757064
O O8 0.333454 0.721103 0.857520
O O9 0.256075 0.642709 0.974566
O O10 0.712803 0.212803 0.362285
O O11 0.610048 0.286550 0.415112
O O12 0.709618 0.327458 0.256072
O O13 0.638629 0.244414 0.136772
O O14 0.964439 0.796183 0.336407
O O15 0.327469 0.172532 0.820706
O O16 0.437949 0.239988 0.800402
O O17 0.160272 0.339729 0.072692
O O18 0.054186 0.264599 0.083189
#
# Coordination Sequence:
#
# PCOD9555775 Si02
#       8
#     8   8   8   8   8   8   8   8
#     4  11  23  36  54  71 102 154 197 225 264 313
#     4  12  24  37  48  78 114 151 188 228 274 329
#     4   9  17  35  59  80 101 135 191 241 276 314
#     4   9  20  39  58  78 111 147 185 233 279 325
#     4  12  26  34  50  80 116 155 184 222 279 336
#     4   9  19  35  60  84 104 139 185 236 284 323
#     4   9  18  35  60  85 103 136 187 236 278 318
#     4  12  21  36  57  83 111 142 188 234 272 331
#
# _framework density 16.563003999999999
#
# number of rings (size 3 to 8) (size 9 to 14) (size 15 to 20)
#    0.000    1.625    3.750    3.000    5.250    1.250 
#    0.000    0.625    0.000    0.375    0.000    0.000 
#    0.000    1.500    0.000    0.000    0.000    0.000 
#
# Total GULP energy -357344.744345 kJ/mol
# GULP energy per Si atom -5583.511630 kJ/mol
# Density = 1.652531 g / cm^3
# Si number density = 16.563004 Si / 1000 Ang^3
#
#
#
# Elastic Constant Matrix: (Units=GPa)
#
#
# Indices 1 2 3 4 5 6 
#
# 1 103.4758 67.2463 30.4573 0.0000 0.0000 0.0000
# 2 67.2463 103.4743 30.4568 0.0000 0.0000 0.0000
# 3 30.4573 30.4568 30.0845 0.0000 0.0000 0.0000
# 4 0.0000 0.0000 0.0000 26.1000 0.0000 0.0000
# 5 0.0000 0.0000 0.0000 0.0000 26.0995 0.0000
# 6 0.0000 0.0000 0.0000 0.0000 0.0000 21.7653
#
#
#
# Elastic Compliance Matrix: (Units=1/GPa)
#
#
# Indices 1 2 3 4 5 6 
#
# 1 0.018386 -0.009216 -0.009284 0.000000 0.000000 0.000000
# 2 -0.009216 0.018386 -0.009283 0.000000 0.000000 0.000000
# 3 -0.009284 -0.009283 0.052037 0.000000 0.000000 0.000000
# 4 0.000000 0.000000 0.000000 0.038314 0.000000 0.000000
# 5 0.000000 0.000000 0.000000 0.000000 0.038315 0.000000
# 6 0.000000 0.000000 0.000000 0.000000 0.000000 0.045945
#
#
# Mechanical properties :
#
#
# Convention : Reuss Voigt Hill
#
# Bulk Modulus (GPa) = 30.08192 54.81728 42.44960
# Shear Modulus (GPa) = 17.98369 22.05123 20.01746
#
# Velocity S-wave (km/s) = 3.29868 3.65273 3.48021
# Velocity P-wave (km/s) = 5.71926 7.13849 6.46792
#
# Compressibility (1/GPa) = 0.03324255
#
# Stress axis : x y z
#
# Youngs Moduli (GPa) = 54.38893 54.38869 19.21726
#
# Poissons Ratio (x) = 0.50126 0.17841
# Poissons Ratio (y) = 0.50126 0.17840
# Poissons Ratio (z) = 0.50493 0.50490
#
# Static dielectric constant tensor:
#      x y z
#    x 1.558260 0.000000 0.000000 
#    y 0.000000 1.558260 0.000000 
#    z 0.000000 0.000000 1.578210 
# 
# From -- ./inp_files/1374.got.cif
#   From: 2010.05.17/outbox.cif.g08.bks.cpg/sg113_cif.got.tgz:1374.got - 2010.05.20 11:03:00.
