data_PCOD9555448
_publ_section_title
;
Structure prediction by ZEFSAII (Michael W. Deem and Ramdas Pophale) SiO2 
 PCOD9555448
Probable space group: P -4 21 M 
;
_chemical_formula_sum "Si O2"
_cell_formula_units_Z 48
_cell_length_a 15.360919
_cell_length_b 15.360919
_cell_length_c 10.326304
_cell_angle_alpha 90.000000
_cell_angle_beta 90.000000
_cell_angle_gamma 90.000000
_cell_volume 2436.572310
_symmetry_space_group_name_H-M "P -4 21 M "
_symmetry_group_IT_number 113
_symmetry_cell_setting 'tetragonal'
loop_
_space_group_symop_operation_xyz
x,y,z
y,-x,-z
-x,-y,z
-y,x,-z
1/2+x,1/2-y,-z
1/2-x,1/2+y,-z
1/2-y,1/2-x,z
1/2+y,1/2+x,z
loop_
_atom_site_type_symbol
_atom_site_label
_atom_site_fract_x
_atom_site_fract_y
_atom_site_fract_z
Si Si1 0.327112 0.313756 0.809157
Si Si2 0.286408 0.504433 0.754207
Si Si3 0.585919 0.608745 0.044325
Si Si4 0.144136 0.495222 0.543251
Si Si5 0.142954 0.499285 0.976959
Si Si6 0.970385 0.325948 0.258876
O O1 0.235651 0.264350 0.797894
O O2 0.326496 0.408142 0.744367
O O3 0.350727 0.331034 0.959771
O O4 0.399761 0.250902 0.748994
O O5 0.226959 0.520054 0.629827
O O6 0.359137 0.570617 0.809134
O O7 0.218842 0.501756 0.873987
O O8 0.613256 0.508603 0.027310
O O9 0.089939 0.410062 0.588976
O O10 0.173407 0.480909 0.394788
O O11 0.074959 0.574959 0.547444
O O12 0.073434 0.426567 0.939190
O O13 0.175196 0.480058 0.122584
O O14 0.091269 0.591269 0.978155
O O15 0.916689 0.416689 0.257560
#
# Coordination Sequence:
#
# PCOD9555448 Si02
#       6
#     8   8   8   8   8   8
#     4  10  19  33  54  77 105 140 179 221 271 316
#     4  11  20  32  53  81 108 134 172 228 276 309
#     4   9  19  35  54  76 104 141 181 218 261 321
#     4  10  20  34  52  77 110 145 177 214 268 326
#     4  10  18  29  49  78 107 135 170 211 262 324
#     4   9  18  33  50  68  98 142 178 203 249 323
#
# _framework density 19.699805999999999
#
# number of rings (size 3 to 8) (size 9 to 14) (size 15 to 20)
#    0.000    2.167    1.667    2.500    0.000    4.000 
#    0.000    1.667    0.000    0.000    0.000    0.000 
#    0.000    0.000    0.000    0.000    0.000    0.000 
#
# Total GULP energy -267750.644245 kJ/mol
# GULP energy per Si atom -5578.138422 kJ/mol
# Density = 1.965497 g / cm^3
# Si number density = 19.699806 Si / 1000 Ang^3
#
#
#
# Elastic Constant Matrix: (Units=GPa)
#
#
# Indices 1 2 3 4 5 6 
#
# 1 29.1146 -6.1817 -1.3039 0.0000 0.0000 0.0000
# 2 -6.1817 29.1138 -1.3034 0.0000 0.0000 0.0000
# 3 -1.3039 -1.3034 71.4150 0.0000 0.0000 0.0000
# 4 0.0000 0.0000 0.0000 16.0595 0.0000 0.0000
# 5 0.0000 0.0000 0.0000 0.0000 16.0590 0.0000
# 6 0.0000 0.0000 0.0000 0.0000 0.0000 19.6569
#
#
#
# Elastic Compliance Matrix: (Units=1/GPa)
#
#
# Indices 1 2 3 4 5 6 
#
# 1 0.036014 0.007682 0.000798 0.000000 0.000000 0.000000
# 2 0.007682 0.036015 0.000798 0.000000 0.000000 0.000000
# 3 0.000798 0.000798 0.014032 0.000000 0.000000 0.000000
# 4 0.000000 0.000000 0.000000 0.062268 0.000000 0.000000
# 5 0.000000 0.000000 0.000000 0.000000 0.062270 0.000000
# 6 0.000000 0.000000 0.000000 0.000000 0.000000 0.050873
#
#
# Mechanical properties :
#
#
# Convention : Reuss Voigt Hill
#
# Bulk Modulus (GPa) = 9.55874 12.45171 11.00523
# Shear Modulus (GPa) = 17.99929 19.58390 18.79159
#
# Velocity S-wave (km/s) = 3.02599 3.15638 3.09187
# Velocity P-wave (km/s) = 4.13178 4.42923 4.28309
#
# Compressibility (1/GPa) = 0.10461626
#
# Stress axis : x y z
#
# Youngs Moduli (GPa) = 27.76705 27.76627 71.26673
#
# Poissons Ratio (x) = -0.21331 -0.05685
# Poissons Ratio (y) = -0.21332 -0.05684
# Poissons Ratio (z) = -0.02215 -0.02215
#
# Static dielectric constant tensor:
#      x y z
#    x 1.724420 0.000000 0.000000 
#    y 0.000000 1.724420 0.000000 
#    z 0.000000 0.000000 1.708190 
# 
# From -- ./inp_files/1170.got.cif
#   From: 2010.05.17/outbox.cif.g08.bks.cpg/sg113_cif.got.tgz:1170.got - 2010.05.20 11:03:00.
