data_PCOD9555860
_publ_section_title
;
Structure prediction by ZEFSAII (Michael W. Deem and Ramdas Pophale) SiO2 
 PCOD9555860
Probable space group: P -4 21 C
;
_chemical_formula_sum "Si O2"
_cell_formula_units_Z 60
_cell_length_a 18.240755
_cell_length_b 18.240755
_cell_length_c 9.225504
_cell_angle_alpha 90.000000
_cell_angle_beta 90.000000
_cell_angle_gamma 90.000000
_cell_volume 3069.557137
_symmetry_space_group_name_H-M "P -4 21 C"
_symmetry_group_IT_number 114
_symmetry_cell_setting 'tetragonal'
loop_
_space_group_symop_operation_xyz
x,y,z
y,-x,-z
-x,-y,z
-y,x,-z
1/2+x,1/2-y,1/2-z
1/2-x,1/2+y,1/2-z
1/2-y,1/2-x,1/2+z
1/2+y,1/2+x,1/2+z
loop_
_atom_site_type_symbol
_atom_site_label
_atom_site_fract_x
_atom_site_fract_y
_atom_site_fract_z
Si Si1 0.119381 0.000893 0.030659
Si Si2 0.808390 0.704116 0.974131
Si Si3 0.589078 0.185547 0.792649
Si Si4 0.105479 0.472598 0.755012
Si Si5 0.770381 0.071666 0.824847
Si Si6 0.154749 0.861208 0.545626
Si Si7 0.500250 0.680462 0.846648
Si Si8 0.500000 0.000000 0.501239
O O1 0.138997 0.012834 0.196872
O O2 0.188988 0.985422 0.929146
O O3 0.068640 0.928853 0.022422
O O4 0.824361 0.624754 0.048523
O O5 0.854434 0.756469 0.080321
O O6 0.846562 0.713544 0.817218
O O7 0.719816 0.699691 0.973173
O O8 0.569674 0.107881 0.730191
O O9 0.520027 0.237052 0.803942
O O10 0.192365 0.459246 0.733462
O O11 0.069668 0.500510 0.606543
O O12 0.071561 0.509910 0.896190
O O13 0.820264 0.095444 0.690384
O O14 0.155021 0.924656 0.423564
O O15 0.073587 0.828782 0.560284
#
# Coordination Sequence:
#
# PCOD9555860 Si02
#       8
#     8   8   8   8   8   8   8   4
#     4  11  24  41  64  96 128 169 216 266 319 383
#     4  10  18  35  64  95 118 158 221 260 305 377
#     4  10  19  35  64  93 116 168 218 261 305 391
#     4  10  20  37  62  92 122 165 218 259 317 381
#     4  11  21  39  70  91 121 170 224 261 313 394
#     4  11  24  41  63 100 129 171 210 275 322 388
#     4  11  25  39  64  97 134 165 218 266 330 375
#     4  10  22  34  58  94 128 154 202 276 310 370
#
# _framework density 19.546793000000001
#
# number of rings (size 3 to 8) (size 9 to 14) (size 15 to 20)
#    0.000    1.467    5.333    1.600    3.733    0.267 
#    0.000    0.000    8.800    0.000    0.000    0.000 
#    0.000    0.000    0.000    0.000    0.000    0.000 
#
# Total GULP energy -334373.461132 kJ/mol
# GULP energy per Si atom -5572.891019 kJ/mol
# Density = 1.950230 g / cm^3
# Si number density = 19.546793 Si / 1000 Ang^3
#
#
#
# Elastic Constant Matrix: (Units=GPa)
#
#
# Indices 1 2 3 4 5 6 
#
# 1 46.1869 16.1261 -5.2146 0.0000 0.0000 0.0000
# 2 16.1261 46.1869 -5.2146 0.0000 0.0000 0.0000
# 3 -5.2146 -5.2146 57.7435 0.0000 0.0000 0.0000
# 4 0.0000 0.0000 0.0000 21.1379 0.0000 0.0000
# 5 0.0000 0.0000 0.0000 0.0000 21.1379 0.0000
# 6 0.0000 0.0000 0.0000 0.0000 0.0000 27.9893
#
#
#
# Elastic Compliance Matrix: (Units=1/GPa)
#
#
# Indices 1 2 3 4 5 6 
#
# 1 0.024780 -0.008486 0.001471 0.000000 0.000000 0.000000
# 2 -0.008486 0.024780 0.001471 0.000000 0.000000 0.000000
# 3 0.001471 0.001471 0.017584 0.000000 0.000000 0.000000
# 4 0.000000 0.000000 0.000000 0.047308 0.000000 0.000000
# 5 0.000000 0.000000 0.000000 0.000000 0.047308 0.000000
# 6 0.000000 0.000000 0.000000 0.000000 0.000000 0.035728
#
#
# Mechanical properties :
#
#
# Convention : Reuss Voigt Hill
#
# Bulk Modulus (GPa) = 17.83863 17.94571 17.89217
# Shear Modulus (GPa) = 22.00118 23.68104 22.84111
#
# Velocity S-wave (km/s) = 3.35858 3.48444 3.42209
# Velocity P-wave (km/s) = 4.91793 5.03878 4.97872
#
# Compressibility (1/GPa) = 0.05605812
#
# Stress axis : x y z
#
# Youngs Moduli (GPa) = 40.35496 40.35496 56.87080
#
# Poissons Ratio (x) = 0.34244 -0.08368
# Poissons Ratio (y) = 0.34244 -0.08368
# Poissons Ratio (z) = -0.05938 -0.05938
#
# Static dielectric constant tensor:
#      x y z
#    x 1.707520 0.000000 0.000000 
#    y 0.000000 1.707520 0.000000 
#    z 0.000000 0.000000 1.736230 
# 
# From -- ./inp_files/1044.got.cif
#   From: 2010.05.17/outbox.cif.g08.bks.cpg/sg114_1_cif.got.tgz:1044.got - 2010.05.20 11:04:54.
