data_PCOD9555404
_publ_section_title
;
Structure prediction by ZEFSAII (Michael W. Deem and Ramdas Pophale) SiO2 
 PCOD9555404
Probable space group: P -4 2 C
;
_chemical_formula_sum "Si O2"
_cell_formula_units_Z 20
_cell_length_a 5.317580
_cell_length_b 5.317580
_cell_length_c 28.384822
_cell_angle_alpha 90.000000
_cell_angle_beta 90.000000
_cell_angle_gamma 90.000000
_cell_volume 802.627877
_symmetry_space_group_name_H-M "P -4 2 C"
_symmetry_group_IT_number 112
_symmetry_cell_setting 'tetragonal'
loop_
_space_group_symop_operation_xyz
x,y,z
y,-x,-z
-x,-y,z
-y,x,-z
x,-y,1/2-z
-x,y,1/2-z
-y,-x,1/2+z
y,x,1/2+z
loop_
_atom_site_type_symbol
_atom_site_label
_atom_site_fract_x
_atom_site_fract_y
_atom_site_fract_z
Si Si1 0.750722 0.834085 0.827448
Si Si2 0.000000 0.000000 0.000000
Si Si3 0.500000 0.000000 0.250000
Si Si4 0.343120 0.261956 0.931910
O O1 0.724380 0.693199 0.877238
O O2 0.818172 0.660220 0.783587
O O3 0.500000 0.000000 0.819925
O O4 0.000000 0.000000 0.833350
O O5 0.788371 0.107803 0.034579
O O6 0.500000 0.500000 0.947809
O O7 0.500000 0.000000 0.932794
#
# Coordination Sequence:
#
# PCOD9555404 Si02
#       4
#     8   2   2   8
#     4  11  28  55  79 124 169 219 280 352 425 512
#     4  12  28  52  88 122 168 224 292 364 424 518
#     4  12  30  50  92 116 172 218 290 342 438 500
#     4  11  29  53  85 121 174 222 285 353 434 510
#
# _framework density 24.918146
#
# number of rings (size 3 to 8) (size 9 to 14) (size 15 to 20)
#    0.000    0.800    2.000    0.600   16.800    4.800 
#    0.000    0.000    0.000    0.000    0.000    0.000 
#    0.000    0.000    0.000    0.000    0.000    0.000 
#
# Total GULP energy -112282.653374 kJ/mol
# GULP energy per Si atom -5614.132669 kJ/mol
# Density = 2.486143 g / cm^3
# Si number density = 24.918146 Si / 1000 Ang^3
#
#
#
# Elastic Constant Matrix: (Units=GPa)
#
#
# Indices 1 2 3 4 5 6 
#
# 1 146.9868 70.3218 72.7052 0.0000 0.0000 0.0000
# 2 70.3218 146.9868 72.7052 0.0000 0.0000 0.0000
# 3 72.7052 72.7052 236.9156 0.0000 0.0000 0.0000
# 4 0.0000 0.0000 0.0000 -189.6317 0.0000 0.0000
# 5 0.0000 0.0000 0.0000 0.0000 -189.6317 0.0000
# 6 0.0000 0.0000 0.0000 0.0000 0.0000 28.7911
#
#
#
# Elastic Compliance Matrix: (Units=1/GPa)
#
#
# Indices 1 2 3 4 5 6 
#
# 1 0.009417 -0.003626 -0.001777 0.000000 0.000000 0.000000
# 2 -0.003626 0.009417 -0.001777 0.000000 0.000000 0.000000
# 3 -0.001777 -0.001777 0.005312 0.000000 0.000000 0.000000
# 4 0.000000 0.000000 0.000000 -0.005273 0.000000 0.000000
# 5 0.000000 0.000000 0.000000 0.000000 -0.005273 0.000000
# 6 0.000000 0.000000 0.000000 0.000000 0.000000 0.034733
#
#
# Mechanical properties :
#
#
# Convention : Reuss Voigt Hill
#
# Bulk Modulus (GPa) = 102.19774 106.92816 104.56295
# Shear Modulus (GPa) = 75.80873 -49.08396 13.36238
#
# Velocity S-wave (km/s) = 5.52170 -4.44307 2.31822
# Velocity P-wave (km/s) = 9.04183 4.08458 7.01564
#
# Compressibility (1/GPa) = 0.00978495
#
# Stress axis : x y z
#
# Youngs Moduli (GPa) = 106.18725 106.18725 188.26553
#
# Poissons Ratio (x) = 0.38508 0.33457
# Poissons Ratio (y) = 0.38508 0.33457
# Poissons Ratio (z) = 0.18871 0.18871
#
# Static dielectric constant tensor:
#      x y z
#    x 2.014310 0.000000 0.000000 
#    y 0.000000 2.014310 0.000000 
#    z 0.000000 0.000000 1.989400 
# 
# From -- ./inp_files/5624.got.cif
#   From: 2010.05.17/outbox.cif.g08.bks.cpg/sg112_3_cif.got.tgz:5624.got - 2010.05.20 10:59:04.
