data_PCOD9555574
_publ_section_title
;
Structure prediction by ZEFSAII (Michael W. Deem and Ramdas Pophale) SiO2 
 PCOD9555574
Probable space group: P -4 21 M 
;
_chemical_formula_sum "Si O2"
_cell_formula_units_Z 48
_cell_length_a 11.634336
_cell_length_b 11.634336
_cell_length_c 18.447068
_cell_angle_alpha 90.000000
_cell_angle_beta 90.000000
_cell_angle_gamma 90.000000
_cell_volume 2496.954064
_symmetry_space_group_name_H-M "P -4 21 M "
_symmetry_group_IT_number 113
_symmetry_cell_setting 'tetragonal'
loop_
_space_group_symop_operation_xyz
x,y,z
y,-x,-z
-x,-y,z
-y,x,-z
1/2+x,1/2-y,-z
1/2-x,1/2+y,-z
1/2-y,1/2-x,z
1/2+y,1/2+x,z
loop_
_atom_site_type_symbol
_atom_site_label
_atom_site_fract_x
_atom_site_fract_y
_atom_site_fract_z
Si Si1 0.817206 0.973962 0.022215
Si Si2 0.861671 0.165266 0.667785
Si Si3 0.310267 0.994178 0.436130
Si Si4 0.493951 0.189971 0.606817
Si Si5 0.410405 0.396154 0.172574
Si Si6 0.181091 0.509960 0.115528
O O1 0.810824 0.939195 0.105871
O O2 0.709338 0.979436 0.969878
O O3 0.904247 0.882077 0.985501
O O4 0.761001 0.261001 0.661569
O O5 0.800166 0.043634 0.648962
O O6 0.905694 0.161810 0.749718
O O7 0.962787 0.205985 0.613734
O O8 0.370347 0.870347 0.421547
O O9 0.280611 0.001733 0.521241
O O10 0.411962 0.088039 0.425623
O O11 0.588464 0.088464 0.617297
O O12 0.371410 0.128591 0.623952
O O13 0.500000 0.500000 0.170961
O O14 0.290781 0.458742 0.154899
O O15 0.131399 0.631399 0.142120
O O16 0.083416 0.416585 0.126011
#
# Coordination Sequence:
#
# PCOD9555574 Si02
#       6
#     8   8   8   8   8   8
#     4   9  16  35  58  76 101 145 184 217 270 330
#     4  10  20  33  54  81 109 146 189 232 286 346
#     4   8  15  32  55  76 104 143 186 233 281 333
#     4   8  15  31  55  79 106 143 187 236 289 342
#     4  11  21  39  54  77 117 154 184 218 280 352
#     4  10  21  36  59  89 111 137 187 243 284 325
#
# _framework density 19.223420000000001
#
# number of rings (size 3 to 8) (size 9 to 14) (size 15 to 20)
#    0.000    2.667    3.333    1.500    0.000    4.000 
#    3.000    3.333    0.000    2.000    0.000    0.000 
#    0.000    0.000    0.000    0.000    0.000    0.000 
#
# Total GULP energy -267387.555480 kJ/mol
# GULP energy per Si atom -5570.574072 kJ/mol
# Density = 1.917967 g / cm^3
# Si number density = 19.223420 Si / 1000 Ang^3
#
#
#
# Elastic Constant Matrix: (Units=GPa)
#
#
# Indices 1 2 3 4 5 6 
#
# 1 34.9645 8.8445 7.7750 0.0000 0.0000 0.0000
# 2 8.8445 34.9626 7.7746 0.0000 0.0000 0.0000
# 3 7.7750 7.7746 61.9548 0.0000 0.0000 0.0000
# 4 0.0000 0.0000 0.0000 19.9294 0.0000 0.0000
# 5 0.0000 0.0000 0.0000 0.0000 19.9280 0.0000
# 6 0.0000 0.0000 0.0000 0.0000 0.0000 6.8401
#
#
#
# Elastic Compliance Matrix: (Units=1/GPa)
#
#
# Indices 1 2 3 4 5 6 
#
# 1 0.031088 -0.007198 -0.002998 0.000000 0.000000 0.000000
# 2 -0.007198 0.031089 -0.002998 0.000000 0.000000 0.000000
# 3 -0.002998 -0.002998 0.016893 0.000000 0.000000 0.000000
# 4 0.000000 0.000000 0.000000 0.050177 0.000000 0.000000
# 5 0.000000 0.000000 0.000000 0.000000 0.050181 0.000000
# 6 0.000000 0.000000 0.000000 0.000000 0.000000 0.146196
#
#
# Mechanical properties :
#
#
# Convention : Reuss Voigt Hill
#
# Bulk Modulus (GPa) = 18.98151 20.07445 19.52798
# Shear Modulus (GPa) = 13.52914 16.50537 15.01726
#
# Velocity S-wave (km/s) = 2.65577 2.93338 2.79802
# Velocity P-wave (km/s) = 4.39315 4.68384 4.54082
#
# Compressibility (1/GPa) = 0.05268284
#
# Stress axis : x y z
#
# Youngs Moduli (GPa) = 32.16698 32.16529 59.19523
#
# Poissons Ratio (x) = 0.23151 0.17747
# Poissons Ratio (y) = 0.23153 0.17747
# Poissons Ratio (z) = 0.09644 0.09643
#
# Static dielectric constant tensor:
#      x y z
#    x 1.712050 0.000000 0.000000 
#    y 0.000000 1.712050 0.000000 
#    z 0.000000 0.000000 1.668420 
# 
# From -- ./inp_files/2443.got.cif
#   From: 2010.05.17/outbox.cif.g08.bks.cpg/sg113_cif.got.tgz:2443.got - 2010.05.20 11:03:00.
