data_PCOD9555937
_publ_section_title
;
Structure prediction by ZEFSAII (Michael W. Deem and Ramdas Pophale) SiO2 
 PCOD9555937
Probable space group: P -4 21 C
;
_chemical_formula_sum "Si O2"
_cell_formula_units_Z 40
_cell_length_a 8.164040
_cell_length_b 8.164040
_cell_length_c 29.553360
_cell_angle_alpha 90.000000
_cell_angle_beta 90.000000
_cell_angle_gamma 90.000000
_cell_volume 1969.777226
_symmetry_space_group_name_H-M "P -4 21 C"
_symmetry_group_IT_number 114
_symmetry_cell_setting 'tetragonal'
loop_
_space_group_symop_operation_xyz
x,y,z
y,-x,-z
-x,-y,z
-y,x,-z
1/2+x,1/2-y,1/2-z
1/2-x,1/2+y,1/2-z
1/2-y,1/2-x,1/2+z
1/2+y,1/2+x,1/2+z
loop_
_atom_site_type_symbol
_atom_site_label
_atom_site_fract_x
_atom_site_fract_y
_atom_site_fract_z
Si Si1 0.000000 0.500000 0.945378
Si Si2 0.755271 0.390591 0.790137
Si Si3 0.000000 0.000000 0.639933
Si Si4 0.101445 0.242056 0.799875
Si Si5 0.907946 0.250652 0.011885
Si Si6 0.754731 0.735091 0.395539
O O1 0.087830 0.368246 0.914010
O O2 0.121488 0.595496 0.979333
O O3 0.615989 0.388599 0.828259
O O4 0.827897 0.573742 0.793319
O O5 0.671326 0.359838 0.741932
O O6 0.905374 0.265478 0.798365
O O7 0.885377 0.122426 0.612460
O O8 0.172691 0.182492 0.847920
O O9 0.870080 0.276549 0.064437
O O10 0.801525 0.096360 0.995204
#
# Coordination Sequence:
#
# PCOD9555937 Si02
#       6
#     4   8   4   8   8   8
#     4  10  20  38  58  80 112 146 184 238 294 336
#     4  10  20  36  57  82 117 151 187 234 284 327
#     4  10  20  34  55  86 114 144 191 236 280 342
#     4  10  20  37  58  83 114 153 190 231 279 339
#     4   9  20  39  59  81 111 144 184 234 287 341
#     4  10  20  36  58  82 110 148 192 231 283 349
#
# _framework density 20.306867
#
# number of rings (size 3 to 8) (size 9 to 14) (size 15 to 20)
#    0.000    2.200    0.000    4.800    0.000    3.200 
#    0.000   22.000    0.000    0.000    0.000    0.000 
#    0.000    0.000    0.000    0.000    0.000    0.000 
#
# Total GULP energy -223361.267900 kJ/mol
# GULP energy per Si atom -5584.031697 kJ/mol
# Density = 2.026065 g / cm^3
# Si number density = 20.306867 Si / 1000 Ang^3
#
#
#
# Elastic Constant Matrix: (Units=GPa)
#
#
# Indices 1 2 3 4 5 6 
#
# 1 50.8272 -5.4992 35.0781 0.0000 0.0000 0.0000
# 2 -5.4992 50.8272 35.0781 0.0000 0.0000 0.0000
# 3 35.0781 35.0781 144.9009 0.0000 0.0000 0.0000
# 4 0.0000 0.0000 0.0000 34.8424 0.0000 0.0000
# 5 0.0000 0.0000 0.0000 0.0000 34.8424 0.0000
# 6 0.0000 0.0000 0.0000 0.0000 0.0000 12.5017
#
#
#
# Elastic Compliance Matrix: (Units=1/GPa)
#
#
# Indices 1 2 3 4 5 6 
#
# 1 0.026517 0.008763 -0.008541 0.000000 0.000000 0.000000
# 2 0.008763 0.026517 -0.008541 0.000000 0.000000 0.000000
# 3 -0.008541 -0.008541 0.011036 0.000000 0.000000 0.000000
# 4 0.000000 0.000000 0.000000 0.028701 0.000000 0.000000
# 5 0.000000 0.000000 0.000000 0.000000 0.028701 0.000000
# 6 0.000000 0.000000 0.000000 0.000000 0.000000 0.079989
#
#
# Mechanical properties :
#
#
# Convention : Reuss Voigt Hill
#
# Bulk Modulus (GPa) = 21.08193 41.76326 31.42259
# Shear Modulus (GPa) = 21.37589 28.56386 24.96988
#
# Velocity S-wave (km/s) = 3.24797 3.75455 3.51041
# Velocity P-wave (km/s) = 4.94671 6.27744 5.65138
#
# Compressibility (1/GPa) = 0.04743398
#
# Stress axis : x y z
#
# Youngs Moduli (GPa) = 37.71164 37.71164 90.60897
#
# Poissons Ratio (x) = -0.33048 0.77387
# Poissons Ratio (y) = -0.33048 0.77387
# Poissons Ratio (z) = 0.32209 0.32209
#
# Static dielectric constant tensor:
#      x y z
#    x 1.738940 0.000000 0.000000 
#    y 0.000000 1.738940 0.000000 
#    z 0.000000 0.000000 1.715450 
# 
# From -- ./inp_files/3680.got.cif
#   From: 2010.05.17/outbox.cif.g08.bks.cpg/sg114_2_cif.got.tgz:3680.got - 2010.05.20 11:04:54.
