data_PCOD9555603
_publ_section_title
;
Structure prediction by ZEFSAII (Michael W. Deem and Ramdas Pophale) SiO2 
 PCOD9555603
Probable space group: P -4 21 M 
;
_chemical_formula_sum "Si O2"
_cell_formula_units_Z 40
_cell_length_a 15.992873
_cell_length_b 15.992873
_cell_length_c 7.390223
_cell_angle_alpha 90.000000
_cell_angle_beta 90.000000
_cell_angle_gamma 90.000000
_cell_volume 1890.212020
_symmetry_space_group_name_H-M "P -4 21 M "
_symmetry_group_IT_number 113
_symmetry_cell_setting 'tetragonal'
loop_
_space_group_symop_operation_xyz
x,y,z
y,-x,-z
-x,-y,z
-y,x,-z
1/2+x,1/2-y,-z
1/2-x,1/2+y,-z
1/2-y,1/2-x,z
1/2+y,1/2+x,z
loop_
_atom_site_type_symbol
_atom_site_label
_atom_site_fract_x
_atom_site_fract_y
_atom_site_fract_z
Si Si1 0.995283 0.635774 0.884765
Si Si2 0.930126 0.896979 0.963998
Si Si3 0.468468 0.719538 0.374356
Si Si4 0.344119 0.293530 0.528050
Si Si5 0.375930 0.255773 0.952785
O O1 0.917588 0.582413 0.960577
O O2 0.965437 0.687401 0.710177
O O3 0.067849 0.567849 0.842806
O O4 0.038198 0.705313 0.014120
O O5 0.958575 0.843440 0.795213
O O6 0.844700 0.865785 0.049092
O O7 0.008581 0.905950 0.095359
O O8 0.385860 0.697337 0.490492
O O9 0.561898 0.709434 0.450555
O O10 0.280003 0.219998 0.466310
O O11 0.358760 0.275715 0.743205
O O12 0.305211 0.194790 0.021907
#
# Coordination Sequence:
#
# PCOD9555603 Si02
#       5
#     8   8   8   8   8
#     4  10  20  38  65  93 119 154 206 261 312 365
#     4  10  20  35  56  83 119 152 196 246 296 355
#     4  11  22  39  64  86 126 165 206 249 311 361
#     4  10  23  42  62  89 128 166 208 254 308 374
#     4   9  19  39  62  87 118 153 194 255 309 354
#
# _framework density 21.161646000000001
#
# number of rings (size 3 to 8) (size 9 to 14) (size 15 to 20)
#    0.000    2.000    2.000    1.200    0.000    7.600 
#    0.000    2.000    0.000    4.800    0.000    0.000 
#    0.000    0.000    0.000    0.000    0.000    0.000 
#
# Total GULP energy -222834.528624 kJ/mol
# GULP energy per Si atom -5570.863216 kJ/mol
# Density = 2.111348 g / cm^3
# Si number density = 21.161646 Si / 1000 Ang^3
#
#
#
# Elastic Constant Matrix: (Units=GPa)
#
#
# Indices 1 2 3 4 5 6 
#
# 1 144.2271 64.5078 23.5168 0.0000 0.0000 0.0000
# 2 64.5078 144.2259 23.5170 0.0000 0.0000 0.0000
# 3 23.5168 23.5170 25.9594 0.0000 0.0000 0.0000
# 4 0.0000 0.0000 0.0000 33.8696 0.0000 0.0000
# 5 0.0000 0.0000 0.0000 0.0000 33.8697 0.0000
# 6 0.0000 0.0000 0.0000 0.0000 0.0000 24.5042
#
#
#
# Elastic Compliance Matrix: (Units=1/GPa)
#
#
# Indices 1 2 3 4 5 6 
#
# 1 0.009282 -0.003262 -0.005453 0.000000 0.000000 0.000000
# 2 -0.003262 0.009282 -0.005453 0.000000 0.000000 0.000000
# 3 -0.005453 -0.005453 0.048402 0.000000 0.000000 0.000000
# 4 0.000000 0.000000 0.000000 0.029525 0.000000 0.000000
# 5 0.000000 0.000000 0.000000 0.000000 0.029525 0.000000
# 6 0.000000 0.000000 0.000000 0.000000 0.000000 0.040809
#
#
# Mechanical properties :
#
#
# Convention : Reuss Voigt Hill
#
# Bulk Modulus (GPa) = 25.88782 59.72174 42.80478
# Shear Modulus (GPa) = 24.03410 31.97344 28.00377
#
# Velocity S-wave (km/s) = 3.37373 3.89127 3.64170
# Velocity P-wave (km/s) = 5.23794 6.96220 6.16069
#
# Compressibility (1/GPa) = 0.03862821
#
# Stress axis : x y z
#
# Youngs Moduli (GPa) = 107.73819 107.73682 20.66043
#
# Poissons Ratio (x) = 0.35147 0.11266
# Poissons Ratio (y) = 0.35147 0.11267
# Poissons Ratio (z) = 0.58750 0.58752
#
# Static dielectric constant tensor:
#      x y z
#    x 1.824780 0.000000 0.000000 
#    y 0.000000 1.824780 0.000000 
#    z 0.000000 0.000000 1.775730 
# 
# From -- ./inp_files/1012.got.cif
#   From: 2010.05.17/outbox.cif.g08.bks.cpg/sg113_cif.got.tgz:1012.got - 2010.05.20 11:03:00.
