data_PCOD9555587
_publ_section_title
;
Structure prediction by ZEFSAII (Michael W. Deem and Ramdas Pophale) SiO2 
 PCOD9555587
Probable space group: P -4 21 M 
;
_chemical_formula_sum "Si O2"
_cell_formula_units_Z 48
_cell_length_a 12.442102
_cell_length_b 12.442102
_cell_length_c 15.569897
_cell_angle_alpha 90.000000
_cell_angle_beta 90.000000
_cell_angle_gamma 90.000000
_cell_volume 2410.311952
_symmetry_space_group_name_H-M "P -4 21 M "
_symmetry_group_IT_number 113
_symmetry_cell_setting 'tetragonal'
loop_
_space_group_symop_operation_xyz
x,y,z
y,-x,-z
-x,-y,z
-y,x,-z
1/2+x,1/2-y,-z
1/2-x,1/2+y,-z
1/2-y,1/2-x,z
1/2+y,1/2+x,z
loop_
_atom_site_type_symbol
_atom_site_label
_atom_site_fract_x
_atom_site_fract_y
_atom_site_fract_z
Si Si1 0.178099 0.033295 0.906529
Si Si2 0.596940 0.274057 0.593186
Si Si3 0.226737 0.099638 0.722840
Si Si4 0.547546 0.221990 0.255184
Si Si5 0.052262 0.725132 0.564496
Si Si6 0.542251 0.675547 0.094533
O O1 0.137046 0.911153 0.896107
O O2 0.242069 0.066897 0.822341
O O3 0.069045 0.106025 0.908539
O O4 0.228968 0.049182 0.000540
O O5 0.681632 0.181632 0.618632
O O6 0.503743 0.285985 0.663394
O O7 0.541319 0.242082 0.503688
O O8 0.664821 0.382167 0.579254
O O9 0.324867 0.175134 0.693887
O O10 0.119588 0.172929 0.722075
O O11 0.630978 0.130978 0.226563
O O12 0.491130 0.189974 0.343055
O O13 0.468420 0.250418 0.177464
O O14 0.136727 0.636727 0.531701
#
# Coordination Sequence:
#
# PCOD9555587 Si02
#       6
#     8   8   8   8   8   8
#     4   8  14  27  49  75 103 139 183 227 267 306
#     4  11  24  40  58  81 107 137 175 217 263 316
#     4  10  20  34  54  81 111 143 179 218 263 315
#     4  10  20  34  54  81 111 143 179 218 263 315
#     4  11  24  40  58  81 107 137 175 217 263 316
#     4   8  14  27  49  75 103 139 183 227 267 306
#
# _framework density 19.914435000000001
#
# number of rings (size 3 to 8) (size 9 to 14) (size 15 to 20)
#    0.000    2.333    0.000    4.000    0.000    8.667 
#    0.000    1.667    0.000    6.000    0.000    0.000 
#    0.000    0.000    0.000    0.000    0.000    0.000 
#
# Total GULP energy -267993.044041 kJ/mol
# GULP energy per Si atom -5583.188418 kJ/mol
# Density = 1.986911 g / cm^3
# Si number density = 19.914435 Si / 1000 Ang^3
#
#
#
# Elastic Constant Matrix: (Units=GPa)
#
#
# Indices 1 2 3 4 5 6 
#
# 1 -161.2921 205.9530 -0.0177 0.0000 0.0000 0.0000
# 2 205.9530 -161.3245 -0.0456 0.0000 0.0000 0.0000
# 3 -0.0177 -0.0456 78.3356 0.0000 0.0000 0.0000
# 4 0.0000 0.0000 0.0000 -79.7726 0.0000 0.0000
# 5 0.0000 0.0000 0.0000 0.0000 -79.7666 0.0000
# 6 0.0000 0.0000 0.0000 0.0000 0.0000 3.4454
#
#
#
# Elastic Compliance Matrix: (Units=1/GPa)
#
#
# Indices 1 2 3 4 5 6 
#
# 1 0.009839 0.012561 0.000010 0.000000 0.000000 0.000000
# 2 0.012561 0.009837 0.000009 0.000000 0.000000 0.000000
# 3 0.000010 0.000009 0.012766 0.000000 0.000000 0.000000
# 4 0.000000 0.000000 0.000000 -0.012536 0.000000 0.000000
# 5 0.000000 0.000000 0.000000 0.000000 -0.012537 0.000000
# 6 0.000000 0.000000 0.000000 0.000000 0.000000 0.290240
#
#
# Mechanical properties :
#
#
# Convention : Reuss Voigt Hill
#
# Bulk Modulus (GPa) = 17.36112 18.61093 17.98603
# Shear Modulus (GPa) = 17.14374 -61.23013 -22.04320
#
# Velocity S-wave (km/s) = 2.93724 -5.55098 -3.33061
# Velocity P-wave (km/s) = 4.49889 5.63194 2.39570
#
# Compressibility (1/GPa) = 0.05759997
#
# Stress axis : x y z
#
# Youngs Moduli (GPa) = 101.63532 101.65570 78.33558
#
# Poissons Ratio (x) = -1.27689 -0.00075
# Poissons Ratio (y) = -1.27664 -0.00067
# Poissons Ratio (z) = -0.00097 -0.00087
#
# Static dielectric constant tensor:
#      x y z
#    x 1.685690 0.000000 0.000000 
#    y 0.000000 1.685690 0.000000 
#    z 0.000000 0.000000 1.704750 
# 
# From -- ./inp_files/2478.got.cif
#   From: 2010.05.17/outbox.cif.g08.bks.cpg/sg113_cif.got.tgz:2478.got - 2010.05.20 11:03:00.
