data_PCOD9555523
_publ_section_title
;
Structure prediction by ZEFSAII (Michael W. Deem and Ramdas Pophale) SiO2 
 PCOD9555523
Probable space group: P -4 21 M 
;
_chemical_formula_sum "Si O2"
_cell_formula_units_Z 64
_cell_length_a 12.196173
_cell_length_b 12.196173
_cell_length_c 23.744045
_cell_angle_alpha 90.000000
_cell_angle_beta 90.000000
_cell_angle_gamma 90.000000
_cell_volume 3531.846815
_symmetry_space_group_name_H-M "P -4 21 M "
_symmetry_group_IT_number 113
_symmetry_cell_setting 'tetragonal'
loop_
_space_group_symop_operation_xyz
x,y,z
y,-x,-z
-x,-y,z
-y,x,-z
1/2+x,1/2-y,-z
1/2-x,1/2+y,-z
1/2-y,1/2-x,z
1/2+y,1/2+x,z
loop_
_atom_site_type_symbol
_atom_site_label
_atom_site_fract_x
_atom_site_fract_y
_atom_site_fract_z
Si Si1 0.977989 0.871881 0.669938
Si Si2 0.234566 0.085378 0.435111
Si Si3 0.623786 0.694339 0.053647
Si Si4 0.131849 0.990622 0.856965
Si Si5 0.308719 0.369117 0.928921
Si Si6 0.261296 0.062441 0.668068
Si Si7 0.952285 0.731186 0.450725
Si Si8 0.812114 0.131973 0.743719
O O1 0.849356 0.870434 0.683469
O O2 0.008149 0.798223 0.616651
O O3 0.065691 0.846480 0.719199
O O4 0.000000 0.000000 0.655094
O O5 0.337201 0.162800 0.420622
O O6 0.132142 0.167126 0.445782
O O7 0.260112 0.016861 0.490935
O O8 0.701684 0.798317 0.062685
O O9 0.660236 0.594039 0.093175
O O10 0.498199 0.713638 0.070162
O O11 0.633467 0.659748 0.988433
O O12 0.178312 0.940512 0.799890
O O13 0.165416 0.110288 0.878552
O O14 0.000000 0.000000 0.851388
O O15 0.198064 0.301937 0.926120
O O16 0.367727 0.132274 0.683536
O O17 0.263239 0.035634 0.601584
O O18 0.249088 0.945349 0.698418
O O19 0.878804 0.621197 0.447676
O O20 0.741738 0.241738 0.752105
#
# Coordination Sequence:
#
# PCOD9555523 Si02
#       8
#     8   8   8   8   8   8   8   8
#     4  10  20  38  60  81 110 146 195 242 285 341
#     4  11  22  35  55  81 109 146 189 238 291 344
#     4  10  19  34  56  83 117 157 197 242 293 348
#     4  10  20  35  60  86 116 153 200 243 288 341
#     4  10  20  34  55  83 118 156 197 243 294 348
#     4  11  23  39  60  85 116 155 194 239 295 353
#     4  11  23  37  55  83 116 152 194 242 298 360
#     4  11  22  39  62  89 117 154 196 243 293 349
#
# _framework density 18.120832
#
# number of rings (size 3 to 8) (size 9 to 14) (size 15 to 20)
#    0.000    1.500    3.750    3.375    0.000    4.000 
#    0.000    0.000    0.000    2.250    0.000    0.000 
#    0.000    0.000    0.000    0.000    0.000    0.000 
#
# Total GULP energy -357277.733147 kJ/mol
# GULP energy per Si atom -5582.464580 kJ/mol
# Density = 1.807959 g / cm^3
# Si number density = 18.120832 Si / 1000 Ang^3
#
#
#
# Elastic Constant Matrix: (Units=GPa)
#
#
# Indices 1 2 3 4 5 6 
#
# 1 58.4980 31.9279 4.1463 0.0000 0.0000 0.0000
# 2 31.9279 58.4997 4.1455 0.0000 0.0000 0.0000
# 3 4.1463 4.1455 52.7965 0.0000 0.0000 0.0000
# 4 0.0000 0.0000 0.0000 13.6582 0.0000 0.0000
# 5 0.0000 0.0000 0.0000 0.0000 13.6577 0.0000
# 6 0.0000 0.0000 0.0000 0.0000 0.0000 20.6492
#
#
#
# Elastic Compliance Matrix: (Units=1/GPa)
#
#
# Indices 1 2 3 4 5 6 
#
# 1 0.024387 -0.013248 -0.000875 0.000000 0.000000 0.000000
# 2 -0.013248 0.024387 -0.000874 0.000000 0.000000 0.000000
# 3 -0.000875 -0.000874 0.019078 0.000000 0.000000 0.000000
# 4 0.000000 0.000000 0.000000 0.073216 0.000000 0.000000
# 5 0.000000 0.000000 0.000000 0.000000 0.073219 0.000000
# 6 0.000000 0.000000 0.000000 0.000000 0.000000 0.048428
#
#
# Mechanical properties :
#
#
# Convention : Reuss Voigt Hill
#
# Bulk Modulus (GPa) = 26.41520 27.80375 27.10947
# Shear Modulus (GPa) = 16.37579 18.23132 17.30356
#
# Velocity S-wave (km/s) = 3.00942 3.17535 3.09350
# Velocity P-wave (km/s) = 5.16569 5.36848 5.26806
#
# Compressibility (1/GPa) = 0.03785699
#
# Stress axis : x y z
#
# Youngs Moduli (GPa) = 41.00483 41.00609 52.41635
#
# Poissons Ratio (x) = 0.54325 0.04586
# Poissons Ratio (y) = 0.54324 0.04583
# Poissons Ratio (z) = 0.03588 0.03586
#
# Static dielectric constant tensor:
#      x y z
#    x 1.610960 0.000000 0.000000 
#    y 0.000000 1.610960 0.000000 
#    z 0.000000 0.000000 1.627200 
# 
# From -- ./inp_files/2880.got.cif
#   From: 2010.05.17/outbox.cif.g08.bks.cpg/sg113_cif.got.tgz:2880.got - 2010.05.20 11:03:00.
