data_PCOD9555578
_publ_section_title
;
Structure prediction by ZEFSAII (Michael W. Deem and Ramdas Pophale) SiO2 
 PCOD9555578
Probable space group: P -4 21 M 
;
_chemical_formula_sum "Si O2"
_cell_formula_units_Z 56
_cell_length_a 15.624800
_cell_length_b 15.624800
_cell_length_c 11.635344
_cell_angle_alpha 90.000000
_cell_angle_beta 90.000000
_cell_angle_gamma 90.000000
_cell_volume 2840.587436
_symmetry_space_group_name_H-M "P -4 21 M "
_symmetry_group_IT_number 113
_symmetry_cell_setting 'tetragonal'
loop_
_space_group_symop_operation_xyz
x,y,z
y,-x,-z
-x,-y,z
-y,x,-z
1/2+x,1/2-y,-z
1/2-x,1/2+y,-z
1/2-y,1/2-x,z
1/2+y,1/2+x,z
loop_
_atom_site_type_symbol
_atom_site_label
_atom_site_fract_x
_atom_site_fract_y
_atom_site_fract_z
Si Si1 0.894525 0.252882 0.655089
Si Si2 0.098964 0.018441 0.784391
Si Si3 0.364803 0.269917 0.893031
Si Si4 0.328939 0.354804 0.132183
Si Si5 0.359681 0.996155 0.183030
Si Si6 0.531741 0.632072 0.532080
Si Si7 0.463558 0.830893 0.922211
O O1 0.829341 0.329341 0.629024
O O2 0.849460 0.190176 0.747288
O O3 0.925686 0.206283 0.541133
O O4 0.974747 0.290891 0.725071
O O5 0.140566 0.105293 0.834831
O O6 0.148881 0.007235 0.663657
O O7 0.117405 0.942533 0.873861
O O8 0.000000 0.000000 0.756382
O O9 0.279059 0.220942 0.852156
O O10 0.351086 0.292328 0.027441
O O11 0.444494 0.203470 0.879408
O O12 0.234419 0.392389 0.122853
O O13 0.420106 0.920106 0.226041
O O14 0.322542 0.969079 0.060466
O O15 0.422262 0.077739 0.160760
O O16 0.597989 0.552750 0.531986
O O17 0.426250 0.926250 0.899244
#
# Coordination Sequence:
#
# PCOD9555578 Si02
#       7
#     8   8   8   8   8   8   8
#     4  11  21  36  63  89 118 158 202 253 309 366
#     4  11  24  40  65  90 121 167 214 255 306 382
#     4  11  24  38  59  91 131 160 196 260 314 368
#     4  11  22  37  56  89 127 160 200 254 311 372
#     4   9  18  34  57  87 121 159 202 246 301 369
#     4  11  21  42  63  83 112 153 202 253 305 351
#     4  10  20  33  55  83 120 165 204 243 302 376
#
# _framework density 19.714233
#
# number of rings (size 3 to 8) (size 9 to 14) (size 15 to 20)
#    0.000    1.429    4.286    1.714    4.000    2.571 
#    0.000    0.714    0.000    0.000    0.000    2.000 
#    0.000    0.000    0.000    0.000    0.000    0.000 
#
# Total GULP energy -312265.635734 kJ/mol
# GULP energy per Si atom -5576.172067 kJ/mol
# Density = 1.966936 g / cm^3
# Si number density = 19.714233 Si / 1000 Ang^3
#
#
#
# Elastic Constant Matrix: (Units=GPa)
#
#
# Indices 1 2 3 4 5 6 
#
# 1 66.7705 42.2065 32.2551 0.0000 0.0000 0.0000
# 2 42.2065 66.7676 32.2548 0.0000 0.0000 0.0000
# 3 32.2551 32.2548 58.8720 0.0000 0.0000 0.0000
# 4 0.0000 0.0000 0.0000 0.3723 0.0000 0.0000
# 5 0.0000 0.0000 0.0000 0.0000 0.3702 0.0000
# 6 0.0000 0.0000 0.0000 0.0000 0.0000 31.1383
#
#
#
# Elastic Compliance Matrix: (Units=1/GPa)
#
#
# Indices 1 2 3 4 5 6 
#
# 1 0.027146 -0.013566 -0.007441 0.000000 0.000000 0.000000
# 2 -0.013566 0.027147 -0.007441 0.000000 0.000000 0.000000
# 3 -0.007441 -0.007441 0.025139 0.000000 0.000000 0.000000
# 4 0.000000 0.000000 0.000000 2.685993 0.000000 0.000000
# 5 0.000000 0.000000 0.000000 0.000000 2.701440 0.000000
# 6 0.000000 0.000000 0.000000 0.000000 0.000000 0.032115
#
#
# Mechanical properties :
#
#
# Convention : Reuss Voigt Hill
#
# Bulk Modulus (GPa) = 44.36906 45.09367 44.73137
# Shear Modulus (GPa) = 0.89873 12.08907 6.49390
#
# Velocity S-wave (km/s) = 0.67592 2.47901 1.81691
# Velocity P-wave (km/s) = 4.81291 5.57829 5.20967
#
# Compressibility (1/GPa) = 0.02253823
#
# Stress axis : x y z
#
# Youngs Moduli (GPa) = 36.83780 36.83585 39.77812
#
# Poissons Ratio (x) = 0.49970 0.29597
# Poissons Ratio (y) = 0.49973 0.29600
# Poissons Ratio (z) = 0.27409 0.27410
#
# Static dielectric constant tensor:
#      x y z
#    x 1.750600 0.000000 0.000000 
#    y 0.000000 1.750610 0.000000 
#    z 0.000000 0.000000 1.660160 
# 
# From -- ./inp_files/1934.got.cif
#   From: 2010.05.17/outbox.cif.g08.bks.cpg/sg113_cif.got.tgz:1934.got - 2010.05.20 11:03:00.
