data_PCOD9555458
_publ_section_title
;
Structure prediction by ZEFSAII (Michael W. Deem and Ramdas Pophale) SiO2 
 PCOD9555458
Probable space group: P -4 21 M 
;
_chemical_formula_sum "Si O2"
_cell_formula_units_Z 40
_cell_length_a 13.761145
_cell_length_b 13.761145
_cell_length_c 9.875823
_cell_angle_alpha 90.000000
_cell_angle_beta 90.000000
_cell_angle_gamma 90.000000
_cell_volume 1870.175829
_symmetry_space_group_name_H-M "P -4 21 M "
_symmetry_group_IT_number 113
_symmetry_cell_setting 'tetragonal'
loop_
_space_group_symop_operation_xyz
x,y,z
y,-x,-z
-x,-y,z
-y,x,-z
1/2+x,1/2-y,-z
1/2-x,1/2+y,-z
1/2-y,1/2-x,z
1/2+y,1/2+x,z
loop_
_atom_site_type_symbol
_atom_site_label
_atom_site_fract_x
_atom_site_fract_y
_atom_site_fract_z
Si Si1 0.073162 0.727052 0.597777
Si Si2 0.330453 0.405240 0.028270
Si Si3 0.452007 0.407956 0.765547
Si Si4 0.792274 0.444055 0.917790
Si Si5 0.135543 0.206029 0.547416
O O1 0.130710 0.630710 0.548853
O O2 0.049619 0.712965 0.755383
O O3 0.149106 0.814565 0.575883
O O4 0.973501 0.757153 0.525940
O O5 0.347108 0.461120 0.169245
O O6 0.367609 0.294718 0.040066
O O7 0.395577 0.444117 0.900937
O O8 0.227749 0.449995 0.980701
O O9 0.500000 0.500000 0.692772
O O10 0.371867 0.362009 0.669785
O O11 0.892422 0.392422 0.956930
O O12 0.202856 0.297145 0.581792
#
# Coordination Sequence:
#
# PCOD9555458 Si02
#       5
#     8   8   8   8   8
#     4  10  23  41  60  86 117 156 198 243 303 352
#     4  10  18  32  54  84 114 148 187 229 293 332
#     4  11  17  32  56  87 114 147 188 238 288 338
#     4  10  20  36  56  80 117 154 187 234 291 351
#     4  11  25  39  60  91 118 150 201 249 292 355
#
# _framework density 21.388361
#
# number of rings (size 3 to 8) (size 9 to 14) (size 15 to 20)
#    0.000    1.600    6.000    0.000    5.600    3.600 
#    0.000    0.000    0.000    0.600    0.000    0.000 
#    0.000    0.000    0.000    0.000    0.000    0.000 
#
# Total GULP energy -222917.508346 kJ/mol
# GULP energy per Si atom -5572.937709 kJ/mol
# Density = 2.133968 g / cm^3
# Si number density = 21.388361 Si / 1000 Ang^3
#
#
#
# Elastic Constant Matrix: (Units=GPa)
#
#
# Indices 1 2 3 4 5 6 
#
# 1 51.8311 40.3933 6.2261 0.0000 0.0000 0.0000
# 2 40.3933 51.8322 6.2231 0.0000 0.0000 0.0000
# 3 6.2261 6.2231 31.2875 0.0000 0.0000 0.0000
# 4 0.0000 0.0000 0.0000 18.2048 0.0000 0.0000
# 5 0.0000 0.0000 0.0000 0.0000 18.2047 0.0000
# 6 0.0000 0.0000 0.0000 0.0000 0.0000 41.6950
#
#
#
# Elastic Compliance Matrix: (Units=1/GPa)
#
#
# Indices 1 2 3 4 5 6 
#
# 1 0.049285 -0.038142 -0.002221 0.000000 0.000000 0.000000
# 2 -0.038142 0.049283 -0.002212 0.000000 0.000000 0.000000
# 3 -0.002221 -0.002212 0.032844 0.000000 0.000000 0.000000
# 4 0.000000 0.000000 0.000000 0.054931 0.000000 0.000000
# 5 0.000000 0.000000 0.000000 0.000000 0.054931 0.000000
# 6 0.000000 0.000000 0.000000 0.000000 0.000000 0.023984
#
#
# Mechanical properties :
#
#
# Convention : Reuss Voigt Hill
#
# Bulk Modulus (GPa) = 21.61635 26.73731 24.17683
# Shear Modulus (GPa) = 13.66766 21.09479 17.38123
#
# Velocity S-wave (km/s) = 2.53063 3.14391 2.85379
# Velocity P-wave (km/s) = 4.32057 5.07020 4.71032
#
# Compressibility (1/GPa) = 0.04626127
#
# Stress axis : x y z
#
# Youngs Moduli (GPa) = 20.29016 20.29107 30.44728
#
# Poissons Ratio (x) = 0.77393 0.06763
# Poissons Ratio (y) = 0.77390 0.06736
# Poissons Ratio (z) = 0.04507 0.04489
#
# Static dielectric constant tensor:
#      x y z
#    x 1.825930 0.000000 0.000000 
#    y 0.000000 1.825940 0.000000 
#    z 0.000000 0.000000 1.769280 
# 
# From -- ./inp_files/1000.got.cif
#   From: 2010.05.17/outbox.cif.g08.bks.cpg/sg113_cif.got.tgz:1000.got - 2010.05.20 11:03:00.
