data_PCOD9555320
_publ_section_title
;
Structure prediction by ZEFSAII (Michael W. Deem and Ramdas Pophale) SiO2 
 PCOD9555320
Probable space group: P -4 2 C
;
_chemical_formula_sum "Si O2"
_cell_formula_units_Z 48
_cell_length_a 8.977615
_cell_length_b 8.977615
_cell_length_c 28.560864
_cell_angle_alpha 90.000000
_cell_angle_beta 90.000000
_cell_angle_gamma 90.000000
_cell_volume 2301.936267
_symmetry_space_group_name_H-M "P -4 2 C"
_symmetry_group_IT_number 112
_symmetry_cell_setting 'tetragonal'
loop_
_space_group_symop_operation_xyz
x,y,z
y,-x,-z
-x,-y,z
-y,x,-z
x,-y,1/2-z
-x,y,1/2-z
-y,-x,1/2+z
y,x,1/2+z
loop_
_atom_site_type_symbol
_atom_site_label
_atom_site_fract_x
_atom_site_fract_y
_atom_site_fract_z
Si Si1 0.335446 0.968570 0.103649
Si Si2 0.683390 0.846691 0.905670
Si Si3 0.177076 0.876197 0.849438
Si Si4 0.500000 0.755611 0.750000
Si Si5 0.446426 0.337796 0.647831
Si Si6 0.756693 0.939144 0.003737
Si Si7 0.252036 0.000000 0.750000
O O1 0.194202 0.023267 0.133985
O O2 0.323518 0.050560 0.053417
O O3 0.500000 0.000000 0.123256
O O4 0.293360 0.796985 0.095782
O O5 0.542372 0.790531 0.877299
O O6 0.756108 0.992592 0.881595
O O7 0.658914 0.887718 0.959877
O O8 0.280746 0.728572 0.855602
O O9 0.172065 0.940689 0.796696
O O10 0.527415 0.664860 0.703432
O O11 0.361606 0.863332 0.737831
O O12 0.500000 0.500000 0.630280
O O13 0.898577 0.828409 0.006591
#
# Coordination Sequence:
#
# PCOD9555320 Si02
#       7
#     8   8   8   4   8   8   4
#     4  11  23  39  61  90 129 162 201 262 327 374
#     4  11  21  39  63  89 119 164 212 256 303 376
#     4  11  21  39  64  88 121 163 211 256 306 377
#     4   9  17  34  58  88 116 158 202 256 304 370
#     4  11  22  36  60  91 127 158 202 258 322 371
#     4   9  18  36  61  86 114 157 212 253 298 369
#     4   9  18  34  61  88 114 153 215 254 294 369
#
# _framework density 20.852011999999998
#
# number of rings (size 3 to 8) (size 9 to 14) (size 15 to 20)
#    0.000    1.667    3.333    2.250    0.000    1.333 
#    0.000    1.667    0.000    1.000    0.000    0.000 
#    0.000    0.000    0.000    0.000    0.000    0.000 
#
# Total GULP energy -267784.632949 kJ/mol
# GULP energy per Si atom -5578.846520 kJ/mol
# Density = 2.080455 g / cm^3
# Si number density = 20.852012 Si / 1000 Ang^3
#
#
#
# Elastic Constant Matrix: (Units=GPa)
#
#
# Indices 1 2 3 4 5 6 
#
# 1 77.2701 10.6461 9.8515 0.0000 0.0000 0.0000
# 2 10.6461 77.2701 9.8515 0.0000 0.0000 0.0000
# 3 9.8515 9.8515 87.2665 0.0000 0.0000 0.0000
# 4 0.0000 0.0000 0.0000 24.3615 0.0000 0.0000
# 5 0.0000 0.0000 0.0000 0.0000 24.3615 0.0000
# 6 0.0000 0.0000 0.0000 0.0000 0.0000 18.8982
#
#
#
# Elastic Compliance Matrix: (Units=1/GPa)
#
#
# Indices 1 2 3 4 5 6 
#
# 1 0.013340 -0.001670 -0.001317 0.000000 0.000000 0.000000
# 2 -0.001670 0.013340 -0.001317 0.000000 0.000000 0.000000
# 3 -0.001317 -0.001317 0.011757 0.000000 0.000000 0.000000
# 4 0.000000 0.000000 0.000000 0.041048 0.000000 0.000000
# 5 0.000000 0.000000 0.000000 0.000000 0.041048 0.000000
# 6 0.000000 0.000000 0.000000 0.000000 0.000000 0.052915
#
#
# Mechanical properties :
#
#
# Convention : Reuss Voigt Hill
#
# Bulk Modulus (GPa) = 33.52730 33.61167 33.56949
# Shear Modulus (GPa) = 26.04176 27.62141 26.83158
#
# Velocity S-wave (km/s) = 3.53779 3.64351 3.59104
# Velocity P-wave (km/s) = 5.72726 5.81845 5.77304
#
# Compressibility (1/GPa) = 0.02982644
#
# Stress axis : x y z
#
# Youngs Moduli (GPa) = 74.96445 74.96445 85.05861
#
# Poissons Ratio (x) = 0.12519 0.11206
# Poissons Ratio (y) = 0.12519 0.11206
# Poissons Ratio (z) = 0.09876 0.09876
#
# Static dielectric constant tensor:
#      x y z
#    x 1.779030 0.000000 0.000000 
#    y 0.000000 1.779030 0.000000 
#    z 0.000000 0.000000 1.708830 
# 
# From -- ./inp_files/6349.got.cif
#   From: 2010.05.17/outbox.cif.g08.bks.cpg/sg112_4_cif.got.tgz:6349.got - 2010.05.20 10:59:04.
