data_PCOD9555111
_publ_section_title
;
Structure prediction by ZEFSAII (Michael W. Deem and Ramdas Pophale) SiO2 
 PCOD9555111
Probable space group: P -4 2 C
;
_chemical_formula_sum "Si O2"
_cell_formula_units_Z 56
_cell_length_a 14.334487
_cell_length_b 14.334487
_cell_length_c 11.797212
_cell_angle_alpha 90.000000
_cell_angle_beta 90.000000
_cell_angle_gamma 90.000000
_cell_volume 2424.061836
_symmetry_space_group_name_H-M "P -4 2 C"
_symmetry_group_IT_number 112
_symmetry_cell_setting 'tetragonal'
loop_
_space_group_symop_operation_xyz
x,y,z
y,-x,-z
-x,-y,z
-y,x,-z
x,-y,1/2-z
-x,y,1/2-z
-y,-x,1/2+z
y,x,1/2+z
loop_
_atom_site_type_symbol
_atom_site_label
_atom_site_fract_x
_atom_site_fract_y
_atom_site_fract_z
Si Si1 0.570248 0.184123 0.647870
Si Si2 0.426283 0.634706 0.489627
Si Si3 0.085266 0.113407 0.170620
Si Si4 0.037459 0.214954 0.502337
Si Si5 0.606870 0.248533 0.281174
Si Si6 0.583483 0.064551 0.428778
Si Si7 0.795234 0.227363 0.164554
O O1 0.500000 0.185233 0.750000
O O2 0.576025 0.283038 0.582027
O O3 0.552582 0.108439 0.549862
O O4 0.671727 0.166127 0.699760
O O5 0.536490 0.615190 0.468453
O O6 0.372938 0.672435 0.377248
O O7 0.168818 0.152194 0.246746
O O8 0.000000 0.088508 0.250000
O O9 0.037301 0.192295 0.093091
O O10 0.131020 0.035305 0.091932
O O11 0.017251 0.316054 0.553579
O O12 0.144645 0.213548 0.451503
O O13 0.500000 0.267924 0.250000
O O14 0.602939 0.150524 0.346321
O O15 0.683428 0.236999 0.181406
O O16 0.500000 0.000000 0.387904
#
# Coordination Sequence:
#
# PCOD9555111 Si02
#       7
#     8   8   8   8   8   8   8
#     4  10  21  36  58  90 124 171 227 274 334 404
#     4  10  21  37  57  86 123 167 224 285 337 397
#     4  10  22  43  73  98 132 174 226 282 346 407
#     4  10  22  43  68 100 130 176 224 288 344 410
#     4  11  22  39  63  91 131 176 225 273 349 423
#     4  10  23  40  60  92 134 172 220 273 339 420
#     4  10  21  40  64  95 133 177 224 280 343 407
#
# _framework density 23.10172
#
# number of rings (size 3 to 8) (size 9 to 14) (size 15 to 20)
#    0.000    1.857    1.429    1.714    2.000    2.000 
#    2.571    6.429    0.000    0.000    0.000    0.000 
#    0.000    0.000    0.000    0.000    0.000    0.000 
#
# Total GULP energy -312826.285803 kJ/mol
# GULP energy per Si atom -5586.183675 kJ/mol
# Density = 2.304914 g / cm^3
# Si number density = 23.101720 Si / 1000 Ang^3
#
#
#
# Elastic Constant Matrix: (Units=GPa)
#
#
# Indices 1 2 3 4 5 6 
#
# 1 93.3629 23.1150 19.0906 0.0000 0.0000 0.0000
# 2 23.1150 93.3629 19.0906 0.0000 0.0000 0.0000
# 3 19.0906 19.0906 40.0358 0.0000 0.0000 0.0000
# 4 0.0000 0.0000 0.0000 16.2214 0.0000 0.0000
# 5 0.0000 0.0000 0.0000 0.0000 16.2214 0.0000
# 6 0.0000 0.0000 0.0000 0.0000 0.0000 17.0752
#
#
#
# Elastic Compliance Matrix: (Units=1/GPa)
#
#
# Indices 1 2 3 4 5 6 
#
# 1 0.012206 -0.002030 -0.004852 0.000000 0.000000 0.000000
# 2 -0.002030 0.012206 -0.004852 0.000000 0.000000 0.000000
# 3 -0.004852 -0.004852 0.029605 0.000000 0.000000 0.000000
# 4 0.000000 0.000000 0.000000 0.061647 0.000000 0.000000
# 5 0.000000 0.000000 0.000000 0.000000 0.061647 0.000000
# 6 0.000000 0.000000 0.000000 0.000000 0.000000 0.058565
#
#
# Mechanical properties :
#
#
# Convention : Reuss Voigt Hill
#
# Bulk Modulus (GPa) = 32.73548 38.81711 35.77629
# Shear Modulus (GPa) = 18.55108 20.93461 19.74284
#
# Velocity S-wave (km/s) = 2.83683 3.01357 2.92653
# Velocity P-wave (km/s) = 4.99310 5.38033 5.19033
#
# Compressibility (1/GPa) = 0.03054789
#
# Stress axis : x y z
#
# Youngs Moduli (GPa) = 81.92975 81.92975 33.77794
#
# Poissons Ratio (x) = 0.16629 0.16390
# Poissons Ratio (y) = 0.16629 0.16390
# Poissons Ratio (z) = 0.39754 0.39754
#
# Static dielectric constant tensor:
#      x y z
#    x 1.908520 0.000000 0.000000 
#    y 0.000000 1.908520 0.000000 
#    z 0.000000 0.000000 1.919200 
# 
# From -- ./inp_files/2652.got.cif
#   From: 2010.05.17/outbox.cif.g08.bks.cpg/sg112_2_cif.got.tgz:2652.got - 2010.05.20 10:59:04.
