data_PCOD9555560
_publ_section_title
;
Structure prediction by ZEFSAII (Michael W. Deem and Ramdas Pophale) SiO2 
 PCOD9555560
Probable space group: P -4 21 M 
;
_chemical_formula_sum "Si O2"
_cell_formula_units_Z 56
_cell_length_a 12.405993
_cell_length_b 12.405993
_cell_length_c 21.081939
_cell_angle_alpha 90.000000
_cell_angle_beta 90.000000
_cell_angle_gamma 90.000000
_cell_volume 3244.693031
_symmetry_space_group_name_H-M "P -4 21 M "
_symmetry_group_IT_number 113
_symmetry_cell_setting 'tetragonal'
loop_
_space_group_symop_operation_xyz
x,y,z
y,-x,-z
-x,-y,z
-y,x,-z
1/2+x,1/2-y,-z
1/2-x,1/2+y,-z
1/2-y,1/2-x,z
1/2+y,1/2+x,z
loop_
_atom_site_type_symbol
_atom_site_label
_atom_site_fract_x
_atom_site_fract_y
_atom_site_fract_z
Si Si1 0.395413 0.280270 0.588039
Si Si2 0.073694 0.106760 0.708139
Si Si3 0.035154 0.168374 0.978982
Si Si4 0.419802 0.396788 0.852315
Si Si5 0.177481 0.495343 0.088413
Si Si6 0.322598 0.005269 0.353062
Si Si7 0.765806 0.559735 0.515098
O O1 0.332808 0.167193 0.590243
O O2 0.406252 0.329860 0.657745
O O3 0.504215 0.272643 0.548518
O O4 0.320931 0.361356 0.547087
O O5 0.110637 0.120565 0.780570
O O6 0.010824 0.213726 0.685759
O O7 0.000000 0.000000 0.704284
O O8 0.077201 0.167699 0.907077
O O9 0.029922 0.278161 0.017803
O O10 0.916856 0.113713 0.984888
O O11 0.500000 0.500000 0.855246
O O12 0.478471 0.285586 0.871993
O O13 0.105893 0.394108 0.110944
O O14 0.098778 0.598778 0.088265
O O15 0.397787 0.102214 0.330754
O O16 0.395691 0.895691 0.350499
O O17 0.293328 0.021299 0.427271
O O18 0.871983 0.628018 0.501436
#
# Coordination Sequence:
#
# PCOD9555560 Si02
#       7
#     8   8   8   8   8   8   8
#     4  10  21  35  52  78 110 138 178 230 272 330
#     4  10  22  36  55  81 111 148 186 225 269 325
#     4   9  15  32  58  80 104 137 179 224 262 317
#     4  10  19  39  58  78 111 152 194 219 259 329
#     4  10  21  35  55  87 118 143 178 226 278 325
#     4   9  18  36  59  79 105 141 184 235 285 331
#     4   9  19  33  54  80 104 139 181 228 285 332
#
# _framework density 17.258951
#
# number of rings (size 3 to 8) (size 9 to 14) (size 15 to 20)
#    0.000    2.429    2.857    1.714    4.000    4.286 
#    0.000    4.286    0.000    1.714    0.000    0.000 
#    0.000    0.000    0.000    0.000    0.000    0.000 
#
# Total GULP energy -312027.410654 kJ/mol
# GULP energy per Si atom -5571.918047 kJ/mol
# Density = 1.721967 g / cm^3
# Si number density = 17.258951 Si / 1000 Ang^3
#
#
#
# Elastic Constant Matrix: (Units=GPa)
#
#
# Indices 1 2 3 4 5 6 
#
# 1 74.5616 21.3134 33.7442 0.0000 0.0000 0.0000
# 2 21.3134 74.5653 33.7458 0.0000 0.0000 0.0000
# 3 33.7442 33.7458 136.7926 0.0000 0.0000 0.0000
# 4 0.0000 0.0000 0.0000 12.6822 0.0000 0.0000
# 5 0.0000 0.0000 0.0000 0.0000 12.6816 0.0000
# 6 0.0000 0.0000 0.0000 0.0000 0.0000 11.5522
#
#
#
# Elastic Compliance Matrix: (Units=1/GPa)
#
#
# Indices 1 2 3 4 5 6 
#
# 1 0.015701 -0.003079 -0.003114 0.000000 0.000000 0.000000
# 2 -0.003079 0.015700 -0.003114 0.000000 0.000000 0.000000
# 3 -0.003114 -0.003114 0.008847 0.000000 0.000000 0.000000
# 4 0.000000 0.000000 0.000000 0.078851 0.000000 0.000000
# 5 0.000000 0.000000 0.000000 0.000000 0.078854 0.000000
# 6 0.000000 0.000000 0.000000 0.000000 0.000000 0.086564
#
#
# Mechanical properties :
#
#
# Convention : Reuss Voigt Hill
#
# Bulk Modulus (GPa) = 46.22016 51.50294 48.86155
# Shear Modulus (GPa) = 16.11133 20.52427 18.31780
#
# Velocity S-wave (km/s) = 3.05865 3.45221 3.26137
# Velocity P-wave (km/s) = 6.26995 6.76731 6.52337
#
# Compressibility (1/GPa) = 0.02163558
#
# Stress axis : x y z
#
# Youngs Moduli (GPa) = 63.69057 63.69338 113.03873
#
# Poissons Ratio (x) = 0.19610 0.35196
# Poissons Ratio (y) = 0.19609 0.35196
# Poissons Ratio (z) = 0.19831 0.19832
#
# Static dielectric constant tensor:
#      x y z
#    x 1.597210 0.000000 0.000000 
#    y 0.000000 1.597200 0.000000 
#    z 0.000000 0.000000 1.589490 
# 
# From -- ./inp_files/2662.got.cif
#   From: 2010.05.17/outbox.cif.g08.bks.cpg/sg113_cif.got.tgz:2662.got - 2010.05.20 11:03:00.
