data_PCOD9555916
_publ_section_title
;
Structure prediction by ZEFSAII (Michael W. Deem and Ramdas Pophale) SiO2 
 PCOD9555916
Probable space group: P -4 21 C
;
_chemical_formula_sum "Si O2"
_cell_formula_units_Z 48
_cell_length_a 11.366211
_cell_length_b 11.366211
_cell_length_c 17.938729
_cell_angle_alpha 90.000000
_cell_angle_beta 90.000000
_cell_angle_gamma 90.000000
_cell_volume 2317.517898
_symmetry_space_group_name_H-M "P -4 21 C"
_symmetry_group_IT_number 114
_symmetry_cell_setting 'tetragonal'
loop_
_space_group_symop_operation_xyz
x,y,z
y,-x,-z
-x,-y,z
-y,x,-z
1/2+x,1/2-y,1/2-z
1/2-x,1/2+y,1/2-z
1/2-y,1/2-x,1/2+z
1/2+y,1/2+x,1/2+z
loop_
_atom_site_type_symbol
_atom_site_label
_atom_site_fract_x
_atom_site_fract_y
_atom_site_fract_z
Si Si1 0.812898 0.262068 0.205168
Si Si2 0.497894 0.768099 0.709352
Si Si3 0.278947 0.869130 0.441455
Si Si4 0.225174 0.641943 0.046533
Si Si5 0.614698 0.054102 0.816561
Si Si6 0.504186 0.137693 0.548362
O O1 0.754004 0.371373 0.253288
O O2 0.808865 0.121988 0.223739
O O3 0.761383 0.282327 0.121743
O O4 0.949673 0.298644 0.202045
O O5 0.445451 0.887422 0.745308
O O6 0.512993 0.783893 0.621224
O O7 0.166215 0.806481 0.474780
O O8 0.343538 0.828827 0.366399
O O9 0.373242 0.846296 0.506606
O O10 0.258125 0.006907 0.430816
O O11 0.095685 0.661580 0.012913
O O12 0.500000 0.000000 0.859531
O O13 0.500000 0.000000 0.570111
#
# Coordination Sequence:
#
# PCOD9555916 Si02
#       6
#     8   8   8   8   8   8
#     4  11  22  41  63  93 125 171 213 274 321 399
#     4  11  23  38  64  94 124 162 219 265 331 381
#     4  11  20  38  62  92 122 166 209 262 318 382
#     4  11  22  37  63  91 129 161 214 265 323 379
#     4  10  19  40  65  84 121 170 216 257 318 392
#     4  10  20  36  62  92 111 156 219 265 289 389
#
# _framework density 20.711815000000001
#
# number of rings (size 3 to 8) (size 9 to 14) (size 15 to 20)
#    0.000    1.333    6.667    2.000    2.333    0.333 
#    0.000    0.833    3.667    2.500    0.000    0.000 
#    0.000    0.000    0.000    0.000    0.000    0.000 
#
# Total GULP energy -267238.480752 kJ/mol
# GULP energy per Si atom -5567.468349 kJ/mol
# Density = 2.066467 g / cm^3
# Si number density = 20.711815 Si / 1000 Ang^3
#
#
#
# Elastic Constant Matrix: (Units=GPa)
#
#
# Indices 1 2 3 4 5 6 
#
# 1 51.9057 17.9597 6.7386 0.0000 0.0000 0.0000
# 2 17.9597 51.9057 6.7386 0.0000 0.0000 0.0000
# 3 6.7386 6.7386 67.7623 0.0000 0.0000 0.0000
# 4 0.0000 0.0000 0.0000 29.5517 0.0000 0.0000
# 5 0.0000 0.0000 0.0000 0.0000 29.5517 0.0000
# 6 0.0000 0.0000 0.0000 0.0000 0.0000 29.9407
#
#
#
# Elastic Compliance Matrix: (Units=1/GPa)
#
#
# Indices 1 2 3 4 5 6 
#
# 1 0.022026 -0.007433 -0.001451 0.000000 0.000000 0.000000
# 2 -0.007433 0.022026 -0.001451 0.000000 0.000000 0.000000
# 3 -0.001451 -0.001451 0.015046 0.000000 0.000000 0.000000
# 4 0.000000 0.000000 0.000000 0.033839 0.000000 0.000000
# 5 0.000000 0.000000 0.000000 0.000000 0.033839 0.000000
# 6 0.000000 0.000000 0.000000 0.000000 0.000000 0.033399
#
#
# Mechanical properties :
#
#
# Convention : Reuss Voigt Hill
#
# Bulk Modulus (GPa) = 26.02296 26.04972 26.03634
# Shear Modulus (GPa) = 25.81916 27.15127 26.48522
#
# Velocity S-wave (km/s) = 3.53454 3.62457 3.57984
# Velocity P-wave (km/s) = 5.40822 5.48828 5.44840
#
# Compressibility (1/GPa) = 0.03842761
#
# Stress axis : x y z
#
# Youngs Moduli (GPa) = 45.40118 45.40118 66.46238
#
# Poissons Ratio (x) = 0.33745 0.09645
# Poissons Ratio (y) = 0.33745 0.09645
# Poissons Ratio (z) = 0.06589 0.06589
#
# Static dielectric constant tensor:
#      x y z
#    x 1.850660 0.000000 0.000000 
#    y 0.000000 1.850660 0.000000 
#    z 0.000000 0.000000 1.777460 
# 
# From -- ./inp_files/2636.got.cif
#   From: 2010.05.17/outbox.cif.g08.bks.cpg/sg114_2_cif.got.tgz:2636.got - 2010.05.20 11:04:54.
