data_PCOD9555635
_publ_section_title
;
Structure prediction by ZEFSAII (Michael W. Deem and Ramdas Pophale) SiO2 
 PCOD9555635
Probable space group: P -4 21 M 
;
_chemical_formula_sum "Si O2"
_cell_formula_units_Z 34
_cell_length_a 12.619077
_cell_length_b 12.619077
_cell_length_c 9.532175
_cell_angle_alpha 90.000000
_cell_angle_beta 90.000000
_cell_angle_gamma 90.000000
_cell_volume 1517.914074
_symmetry_space_group_name_H-M "P -4 21 M "
_symmetry_group_IT_number 113
_symmetry_cell_setting 'tetragonal'
loop_
_space_group_symop_operation_xyz
x,y,z
y,-x,-z
-x,-y,z
-y,x,-z
1/2+x,1/2-y,-z
1/2-x,1/2+y,-z
1/2-y,1/2-x,z
1/2+y,1/2+x,z
loop_
_atom_site_type_symbol
_atom_site_label
_atom_site_fract_x
_atom_site_fract_y
_atom_site_fract_z
Si Si1 0.297548 0.628532 0.307323
Si Si2 0.883455 0.205284 0.805336
Si Si3 0.597463 0.276425 0.044149
Si Si4 0.000000 0.500000 0.570529
Si Si5 0.256764 0.484049 0.545807
O O1 0.182793 0.682793 0.294194
O O2 0.353970 0.640969 0.157706
O O3 0.285250 0.518994 0.388781
O O4 0.369916 0.702537 0.407548
O O5 0.794664 0.294664 0.790483
O O6 0.937068 0.185554 0.656236
O O7 0.980108 0.247338 0.903051
O O8 0.829575 0.110765 0.892731
O O9 0.672767 0.172767 0.050769
O O10 0.131572 0.498614 0.568614
#
# Coordination Sequence:
#
# PCOD9555635 Si02
#       5
#     8   8   8   2   8
#     4  10  20  37  56  86 120 153 187 248 292 346
#     4  10  20  37  59  86 111 151 196 244 280 350
#     4   9  21  36  57  81 117 152 189 237 299 340
#     4  12  20  36  64  94 108 152 200 238 280 344
#     4  11  22  36  64  87 117 152 201 238 289 348
#
# _framework density 22.399159999999998
#
# number of rings (size 3 to 8) (size 9 to 14) (size 15 to 20)
#    0.000    1.882    3.529    0.000    1.647    3.294 
#    0.000    4.706    2.588    1.412    0.000    0.000 
#    0.000    0.000    0.000    0.000    0.000    0.000 
#
# Total GULP energy -189341.414258 kJ/mol
# GULP energy per Si atom -5568.865125 kJ/mol
# Density = 2.234818 g / cm^3
# Si number density = 22.399160 Si / 1000 Ang^3
#
#
#
# Elastic Constant Matrix: (Units=GPa)
#
#
# Indices 1 2 3 4 5 6 
#
# 1 37.7071 -23.1401 -2.0688 0.0000 0.0000 0.0000
# 2 -23.1401 37.7071 -2.0688 0.0000 0.0000 0.0000
# 3 -2.0688 -2.0688 86.5352 0.0000 0.0000 0.0000
# 4 0.0000 0.0000 0.0000 19.1374 0.0000 0.0000
# 5 0.0000 0.0000 0.0000 0.0000 19.1374 0.0000
# 6 0.0000 0.0000 0.0000 0.0000 0.0000 15.8085
#
#
#
# Elastic Compliance Matrix: (Units=1/GPa)
#
#
# Indices 1 2 3 4 5 6 
#
# 1 0.042776 0.026341 0.001652 0.000000 0.000000 0.000000
# 2 0.026341 0.042776 0.001652 0.000000 0.000000 0.000000
# 3 0.001652 0.001652 0.011635 0.000000 0.000000 0.000000
# 4 0.000000 0.000000 0.000000 0.052254 0.000000 0.000000
# 5 0.000000 0.000000 0.000000 0.000000 0.052254 0.000000
# 6 0.000000 0.000000 0.000000 0.000000 0.000000 0.063257
#
#
# Mechanical properties :
#
#
# Convention : Reuss Voigt Hill
#
# Bulk Modulus (GPa) = 6.39061 11.93268 9.16164
# Shear Modulus (GPa) = 19.39346 23.43181 21.41263
#
# Velocity S-wave (km/s) = 2.94566 3.23786 3.09521
# Velocity P-wave (km/s) = 3.79848 4.39513 4.10765
#
# Compressibility (1/GPa) = 0.15647964
#
# Stress axis : x y z
#
# Youngs Moduli (GPa) = 23.37754 23.37754 85.94761
#
# Poissons Ratio (x) = -0.61580 -0.14202
# Poissons Ratio (y) = -0.61580 -0.14202
# Poissons Ratio (z) = -0.03863 -0.03863
#
# Static dielectric constant tensor:
#      x y z
#    x 1.807990 0.000000 0.000000 
#    y 0.000000 1.807990 0.000000 
#    z 0.000000 0.000000 1.857570 
# 
# From -- ./inp_files/1639.got.cif
#   From: 2010.05.17/outbox.cif.g08.bks.cpg/sg113_cif.got.tgz:1639.got - 2010.05.20 11:03:00.
