data_PCOD9555940
_publ_section_title
;
Structure prediction by ZEFSAII (Michael W. Deem and Ramdas Pophale) SiO2 
 PCOD9555940
Probable space group: P -4 21 C
;
_chemical_formula_sum "Si O2"
_cell_formula_units_Z 26
_cell_length_a 7.577479
_cell_length_b 7.577479
_cell_length_c 22.630743
_cell_angle_alpha 90.000000
_cell_angle_beta 90.000000
_cell_angle_gamma 90.000000
_cell_volume 1299.416256
_symmetry_space_group_name_H-M "P -4 21 C"
_symmetry_group_IT_number 114
_symmetry_cell_setting 'tetragonal'
loop_
_space_group_symop_operation_xyz
x,y,z
y,-x,-z
-x,-y,z
-y,x,-z
1/2+x,1/2-y,1/2-z
1/2-x,1/2+y,1/2-z
1/2-y,1/2-x,1/2+z
1/2+y,1/2+x,1/2+z
loop_
_atom_site_type_symbol
_atom_site_label
_atom_site_fract_x
_atom_site_fract_y
_atom_site_fract_z
Si Si1 0.187505 0.210884 0.191335
Si Si2 0.267911 0.323022 0.323509
Si Si3 0.713133 0.992308 0.402603
Si Si4 0.500000 0.500000 0.000000
O O1 0.204974 0.247638 0.260750
O O2 0.250089 0.372339 0.151217
O O3 0.980290 0.189348 0.179264
O O4 0.280835 0.028251 0.173929
O O5 0.223321 0.197962 0.378132
O O6 0.500000 0.000000 0.413256
O O7 0.830449 0.036832 0.458909
#
# Coordination Sequence:
#
# PCOD9555940 Si02
#       4
#     8   8   8   2
#     4  10  20  34  58  91 127 159 199 259 322 374
#     4  10  20  34  58  91 127 159 199 259 322 374
#     4  10  24  44  60  90 128 164 212 261 306 368
#     4  12  28  44  68  88 124 180 228 242 292 408
#
# _framework density 20.008987000000001
#
# number of rings (size 3 to 8) (size 9 to 14) (size 15 to 20)
#    0.000    1.846    3.077    0.000    4.308    2.462 
#    0.000    0.000    0.000    0.000    0.000    0.000 
#    0.000    0.000    0.000    0.000    0.000    0.000 
#
# Total GULP energy -145175.663917 kJ/mol
# GULP energy per Si atom -5583.679381 kJ/mol
# Density = 1.996345 g / cm^3
# Si number density = 20.008987 Si / 1000 Ang^3
#
#
#
# Elastic Constant Matrix: (Units=GPa)
#
#
# Indices 1 2 3 4 5 6 
#
# 1 45.8414 -3.5937 0.4826 0.0000 0.0000 0.0000
# 2 -3.5937 45.8414 0.4826 0.0000 0.0000 0.0000
# 3 0.4826 0.4826 64.1408 0.0000 0.0000 0.0000
# 4 0.0000 0.0000 0.0000 25.1961 0.0000 0.0000
# 5 0.0000 0.0000 0.0000 0.0000 25.1961 0.0000
# 6 0.0000 0.0000 0.0000 0.0000 0.0000 7.8814
#
#
#
# Elastic Compliance Matrix: (Units=1/GPa)
#
#
# Indices 1 2 3 4 5 6 
#
# 1 0.021951 0.001723 -0.000178 0.000000 0.000000 0.000000
# 2 0.001723 0.021951 -0.000178 0.000000 0.000000 0.000000
# 3 -0.000178 -0.000178 0.015593 0.000000 0.000000 0.000000
# 4 0.000000 0.000000 0.000000 0.039689 0.000000 0.000000
# 5 0.000000 0.000000 0.000000 0.000000 0.039689 0.000000
# 6 0.000000 0.000000 0.000000 0.000000 0.000000 0.126881
#
#
# Mechanical properties :
#
#
# Convention : Reuss Voigt Hill
#
# Bulk Modulus (GPa) = 16.06973 16.72964 16.39969
# Shear Modulus (GPa) = 17.62023 22.21818 19.91921
#
# Velocity S-wave (km/s) = 2.97074 3.33590 3.15860
# Velocity P-wave (km/s) = 4.45149 4.81838 4.63856
#
# Compressibility (1/GPa) = 0.06222881
#
# Stress axis : x y z
#
# Youngs Moduli (GPa) = 45.55547 45.55547 64.12979
#
# Poissons Ratio (x) = -0.07848 0.01142
# Poissons Ratio (y) = -0.07848 0.01142
# Poissons Ratio (z) = 0.00812 0.00812
#
# Static dielectric constant tensor:
#      x y z
#    x 1.746880 0.000000 0.000000 
#    y 0.000000 1.746880 0.000000 
#    z 0.000000 0.000000 1.640090 
# 
# From -- ./inp_files/2364.got.cif
#   From: 2010.05.17/outbox.cif.g08.bks.cpg/sg114_2_cif.got.tgz:2364.got - 2010.05.20 11:04:54.
