data_PCOD9555004
_publ_section_title
;
Structure prediction by ZEFSAII (Michael W. Deem and Ramdas Pophale) SiO2 
 PCOD9555004
Probable space group: P -4 2 C
;
_chemical_formula_sum "Si O2"
_cell_formula_units_Z 40
_cell_length_a 14.165373
_cell_length_b 14.165373
_cell_length_c 8.052193
_cell_angle_alpha 90.000000
_cell_angle_beta 90.000000
_cell_angle_gamma 90.000000
_cell_volume 1615.735270
_symmetry_space_group_name_H-M "P -4 2 C"
_symmetry_group_IT_number 112
_symmetry_cell_setting 'tetragonal'
loop_
_space_group_symop_operation_xyz
x,y,z
y,-x,-z
-x,-y,z
-y,x,-z
x,-y,1/2-z
-x,y,1/2-z
-y,-x,1/2+z
y,x,1/2+z
loop_
_atom_site_type_symbol
_atom_site_label
_atom_site_fract_x
_atom_site_fract_y
_atom_site_fract_z
Si Si1 0.089190 0.166471 0.672268
Si Si2 0.738610 0.086210 0.676368
Si Si3 0.165568 0.355934 0.828401
Si Si4 0.000000 0.500000 0.750000
Si Si5 0.656419 0.729890 0.979685
Si Si6 0.500000 0.640879 0.750000
Si Si7 0.500000 0.500000 0.000000
O O1 0.067437 0.202323 0.490058
O O2 0.185082 0.109273 0.682758
O O3 0.112171 0.258207 0.786077
O O4 0.000000 0.115450 0.750000
O O5 0.682270 0.176958 0.624890
O O6 0.680104 0.000000 0.750000
O O7 0.247316 0.335361 0.967850
O O8 0.230353 0.371582 0.661645
O O9 0.078643 0.431722 0.843553
O O10 0.571965 0.690831 0.868990
O O11 0.553264 0.571788 0.620552
#
# Coordination Sequence:
#
# PCOD9555004 Si02
#       7
#     8   8   8   2   8   4   2
#     4  10  19  37  59  85 125 168 223 271 338 410
#     4  10  21  37  58  88 122 172 219 276 338 397
#     4  10  23  43  68 102 140 193 229 302 359 441
#     4  12  24  44  76 116 146 180 260 306 376 430
#     4  10  23  43  67  97 140 186 231 283 368 425
#     4  11  22  44  67 104 130 182 235 282 354 439
#     4  10  24  38  68  94 136 162 232 298 320 426
#
# _framework density 24.756532
#
# number of rings (size 3 to 8) (size 9 to 14) (size 15 to 20)
#    0.000    1.800    1.000    2.400    0.000    6.800 
#    7.200    2.000    0.000    1.200    0.000    0.000 
#    0.000    0.000    0.000    0.000    0.000    0.000 
#
# Total GULP energy -223155.181308 kJ/mol
# GULP energy per Si atom -5578.879533 kJ/mol
# Density = 2.470018 g / cm^3
# Si number density = 24.756532 Si / 1000 Ang^3
#
#
#
# Elastic Constant Matrix: (Units=GPa)
#
#
# Indices 1 2 3 4 5 6 
#
# 1 82.1411 26.9611 27.1234 0.0000 0.0000 0.0000
# 2 26.9611 82.1411 27.1234 0.0000 0.0000 0.0000
# 3 27.1234 27.1234 120.4964 0.0000 0.0000 0.0000
# 4 0.0000 0.0000 0.0000 17.0583 0.0000 0.0000
# 5 0.0000 0.0000 0.0000 0.0000 17.0583 0.0000
# 6 0.0000 0.0000 0.0000 0.0000 0.0000 -132.6486
#
#
#
# Elastic Compliance Matrix: (Units=1/GPa)
#
#
# Indices 1 2 3 4 5 6 
#
# 1 0.014222 -0.003901 -0.002323 0.000000 0.000000 0.000000
# 2 -0.003901 0.014222 -0.002323 0.000000 0.000000 0.000000
# 3 -0.002323 -0.002323 0.009345 0.000000 0.000000 0.000000
# 4 0.000000 0.000000 0.000000 0.058622 0.000000 0.000000
# 5 0.000000 0.000000 0.000000 0.000000 0.058622 0.000000
# 6 0.000000 0.000000 0.000000 0.000000 0.000000 -0.007539
#
#
# Mechanical properties :
#
#
# Convention : Reuss Voigt Hill
#
# Bulk Modulus (GPa) = 48.32366 49.68826 49.00596
# Shear Modulus (GPa) = 29.15678 -6.13501 11.51088
#
# Velocity S-wave (km/s) = 3.43555 -1.57592 2.15864
# Velocity P-wave (km/s) = 5.94132 4.09914 5.10403
#
# Compressibility (1/GPa) = 0.02069380
#
# Stress axis : x y z
#
# Youngs Moduli (GPa) = 70.31522 70.31522 107.01035
#
# Poissons Ratio (x) = 0.27429 0.24860
# Poissons Ratio (y) = 0.27429 0.24860
# Poissons Ratio (z) = 0.16336 0.16336
#
# Static dielectric constant tensor:
#      x y z
#    x 2.071070 0.000000 0.000000 
#    y 0.000000 2.071070 0.000000 
#    z 0.000000 0.000000 2.010100 
# 
# From -- ./inp_files/1308.got.cif
#   From: 2010.05.17/outbox.cif.g08.bks.cpg/sg112_1_cif.got.tgz:1308.got - 2010.05.20 10:59:04.
