data_PCOD9555117
_publ_section_title
;
Structure prediction by ZEFSAII (Michael W. Deem and Ramdas Pophale) SiO2 
 PCOD9555117
Probable space group: P -4 2 C
;
_chemical_formula_sum "Si O2"
_cell_formula_units_Z 48
_cell_length_a 8.798090
_cell_length_b 8.798090
_cell_length_c 30.413992
_cell_angle_alpha 90.000000
_cell_angle_beta 90.000000
_cell_angle_gamma 90.000000
_cell_volume 2354.237255
_symmetry_space_group_name_H-M "P -4 2 C"
_symmetry_group_IT_number 112
_symmetry_cell_setting 'tetragonal'
loop_
_space_group_symop_operation_xyz
x,y,z
y,-x,-z
-x,-y,z
-y,x,-z
x,-y,1/2-z
-x,y,1/2-z
-y,-x,1/2+z
y,x,1/2+z
loop_
_atom_site_type_symbol
_atom_site_label
_atom_site_fract_x
_atom_site_fract_y
_atom_site_fract_z
Si Si1 0.181935 0.666883 0.679390
Si Si2 0.695684 0.155122 0.920623
Si Si3 0.678078 0.825016 0.739697
Si Si4 0.703597 0.352683 0.509149
Si Si5 0.833665 0.688605 0.658781
Si Si6 0.337602 0.809097 0.597509
O O1 0.229425 0.713333 0.728262
O O2 0.194369 0.488050 0.669479
O O3 0.291042 0.750665 0.645017
O O4 0.009123 0.717206 0.670437
O O5 0.798483 0.264697 0.891081
O O6 0.519684 0.191488 0.908628
O O7 0.720557 0.980085 0.908973
O O8 0.710196 0.182168 0.972593
O O9 0.500000 0.804473 0.750000
O O10 0.723650 0.786203 0.690094
O O11 0.716765 0.000000 0.750000
O O12 0.535180 0.298800 0.494142
O O13 0.728465 0.295514 0.558451
#
# Coordination Sequence:
#
# PCOD9555117 Si02
#       6
#     8   8   8   8   8   8
#     4  11  24  40  59  85 116 150 190 234 280 333
#     4  10  21  37  58  85 116 150 190 235 283 337
#     4  11  24  41  62  88 116 147 186 231 280 336
#     4   9  18  34  56  81 112 152 194 235 280 331
#     4  11  24  40  59  85 116 150 190 234 280 333
#     4  10  21  37  58  85 116 150 190 235 283 337
#
# _framework density 20.388767999999999
#
# number of rings (size 3 to 8) (size 9 to 14) (size 15 to 20)
#    0.000    1.667    0.000    4.000    0.000   13.333 
#    0.000    3.333    0.000    0.000    0.000    0.000 
#    0.000    0.000    0.000    0.000    0.000    0.000 
#
# Total GULP energy -268408.447534 kJ/mol
# GULP energy per Si atom -5591.842657 kJ/mol
# Density = 2.034236 g / cm^3
# Si number density = 20.388768 Si / 1000 Ang^3
#
#
#
# Elastic Constant Matrix: (Units=GPa)
#
#
# Indices 1 2 3 4 5 6 
#
# 1 20.6253 12.8662 -16.9886 0.0000 0.0000 0.0000
# 2 12.8662 20.6253 -16.9886 0.0000 0.0000 0.0000
# 3 -16.9886 -16.9886 46.5706 0.0000 0.0000 0.0000
# 4 0.0000 0.0000 0.0000 33.1138 0.0000 0.0000
# 5 0.0000 0.0000 0.0000 0.0000 33.1138 0.0000
# 6 0.0000 0.0000 0.0000 0.0000 0.0000 12.9434
#
#
#
# Elastic Compliance Matrix: (Units=1/GPa)
#
#
# Indices 1 2 3 4 5 6 
#
# 1 0.088141 -0.040740 0.017291 0.000000 0.000000 0.000000
# 2 -0.040740 0.088141 0.017291 0.000000 0.000000 0.000000
# 3 0.017291 0.017291 0.034088 0.000000 0.000000 0.000000
# 4 0.000000 0.000000 0.000000 0.030199 0.000000 0.000000
# 5 0.000000 0.000000 0.000000 0.000000 0.030199 0.000000
# 6 0.000000 0.000000 0.000000 0.000000 0.000000 0.077259
#
#
# Mechanical properties :
#
#
# Convention : Reuss Voigt Hill
#
# Bulk Modulus (GPa) = 5.04909 5.06655 5.05782
# Shear Modulus (GPa) = 11.72715 23.09635 17.41175
#
# Velocity S-wave (km/s) = 2.40089 3.36936 2.92548
# Velocity P-wave (km/s) = 3.18865 4.19847 3.72791
#
# Compressibility (1/GPa) = 0.19805543
#
# Stress axis : x y z
#
# Youngs Moduli (GPa) = 11.34546 11.34546 29.33548
#
# Poissons Ratio (x) = 0.46222 -0.50725
# Poissons Ratio (y) = 0.46222 -0.50725
# Poissons Ratio (z) = -0.19618 -0.19618
#
# Static dielectric constant tensor:
#      x y z
#    x 1.709750 0.000000 0.000000 
#    y 0.000000 1.709750 0.000000 
#    z 0.000000 0.000000 1.676750 
# 
# From -- ./inp_files/6267.got.cif
#   From: 2010.05.17/outbox.cif.g08.bks.cpg/sg112_4_cif.got.tgz:6267.got - 2010.05.20 10:59:04.
