data_PCOD9555732
_publ_section_title
;
Structure prediction by ZEFSAII (Michael W. Deem and Ramdas Pophale) SiO2 
 PCOD9555732
Probable space group: P -4 21 M 
;
_chemical_formula_sum "Si O2"
_cell_formula_units_Z 56
_cell_length_a 15.686757
_cell_length_b 15.686757
_cell_length_c 11.138775
_cell_angle_alpha 90.000000
_cell_angle_beta 90.000000
_cell_angle_gamma 90.000000
_cell_volume 2740.966764
_symmetry_space_group_name_H-M "P -4 21 M "
_symmetry_group_IT_number 113
_symmetry_cell_setting 'tetragonal'
loop_
_space_group_symop_operation_xyz
x,y,z
y,-x,-z
-x,-y,z
-y,x,-z
1/2+x,1/2-y,-z
1/2-x,1/2+y,-z
1/2-y,1/2-x,z
1/2+y,1/2+x,z
loop_
_atom_site_type_symbol
_atom_site_label
_atom_site_fract_x
_atom_site_fract_y
_atom_site_fract_z
Si Si1 0.344774 0.982883 0.170464
Si Si2 0.338151 0.707841 0.132446
Si Si3 0.137664 0.505462 0.110810
Si Si4 0.246107 0.121206 0.326452
Si Si5 0.134782 0.028252 0.521906
Si Si6 0.025356 0.902561 0.219956
Si Si7 0.110084 0.198372 0.137026
O O1 0.434276 0.934276 0.197927
O O2 0.274959 0.908499 0.175656
O O3 0.308085 0.058001 0.252215
O O4 0.347234 0.014136 0.032462
O O5 0.246282 0.746282 0.170436
O O6 0.372251 0.617653 0.178282
O O7 0.341558 0.709903 0.987871
O O8 0.095944 0.595944 0.153898
O O9 0.220002 0.452641 0.158732
O O10 0.062847 0.437154 0.125843
O O11 0.303417 0.196584 0.378488
O O12 0.202439 0.067643 0.432156
O O13 0.176249 0.165883 0.238357
O O14 0.153151 0.007404 0.659911
O O15 0.058138 0.096580 0.532109
O O16 0.957464 0.877217 0.119646
O O17 0.000000 0.000000 0.249485
#
# Coordination Sequence:
#
# PCOD9555732 Si02
#       7
#     8   8   8   8   8   8   8
#     4   9  19  38  61  91 130 168 212 261 316 383
#     4  10  23  39  59  95 140 169 204 262 325 386
#     4   9  18  35  58  84 123 172 208 242 306 388
#     4  12  24  39  66  97 125 165 217 269 320 376
#     4  11  21  44  65  84 116 161 211 261 321 373
#     4  12  24  39  66  92 123 168 220 264 314 387
#     4  11  23  38  59  93 132 165 206 265 320 385
#
# _framework density 20.430747
#
# number of rings (size 3 to 8) (size 9 to 14) (size 15 to 20)
#    0.000    1.429    2.857    4.286    6.000    2.000 
#    0.000    0.714    0.000    0.000    0.000    0.000 
#    0.000    0.000    0.000    0.000    0.000    0.000 
#
# Total GULP energy -311967.831187 kJ/mol
# GULP energy per Si atom -5570.854128 kJ/mol
# Density = 2.038425 g / cm^3
# Si number density = 20.430747 Si / 1000 Ang^3
#
#
#
# Elastic Constant Matrix: (Units=GPa)
#
#
# Indices 1 2 3 4 5 6 
#
# 1 51.5665 102.0594 42.6224 0.0000 0.0000 0.0000
# 2 102.0594 51.5589 42.6164 0.0000 0.0000 0.0000
# 3 42.6224 42.6164 51.4839 0.0000 0.0000 0.0000
# 4 0.0000 0.0000 0.0000 31.7305 0.0000 0.0000
# 5 0.0000 0.0000 0.0000 0.0000 31.6675 0.0000
# 6 0.0000 0.0000 0.0000 0.0000 0.0000 36.8957
#
#
#
# Elastic Compliance Matrix: (Units=1/GPa)
#
#
# Indices 1 2 3 4 5 6 
#
# 1 -0.003882 0.015921 -0.009965 0.000000 0.000000 0.000000
# 2 0.015921 -0.003882 -0.009968 0.000000 0.000000 0.000000
# 3 -0.009965 -0.009968 0.035925 0.000000 0.000000 0.000000
# 4 0.000000 0.000000 0.000000 0.031515 0.000000 0.000000
# 5 0.000000 0.000000 0.000000 0.000000 0.031578 0.000000
# 6 0.000000 0.000000 0.000000 0.000000 0.000000 0.027103
#
#
# Mechanical properties :
#
#
# Convention : Reuss Voigt Hill
#
# Bulk Modulus (GPa) = 49.65888 58.80064 54.22976
# Shear Modulus (GPa) = 37.56754 17.87948 27.72351
#
# Velocity S-wave (km/s) = 4.29275 2.96146 3.68768
# Velocity P-wave (km/s) = 6.99492 6.36684 6.68826
#
# Compressibility (1/GPa) = 0.02013739
#
# Stress axis : x y z
#
# Youngs Moduli (GPa) = -257.59023 -257.62502 27.83612
#
# Poissons Ratio (x) = 4.10175 0.27739
# Poissons Ratio (y) = 4.10120 0.27747
# Poissons Ratio (z) = -2.56694 -2.56798
#
# Static dielectric constant tensor:
#      x y z
#    x 1.737750 0.000000 0.000000 
#    y 0.000000 1.737810 0.000000 
#    z 0.000000 0.000000 1.714890 
# 
# From -- ./inp_files/1927.got.cif
#   From: 2010.05.17/outbox.cif.g08.bks.cpg/sg113_cif.got.tgz:1927.got - 2010.05.20 11:03:00.
