data_PCOD9555147
_publ_section_title
;
Structure prediction by ZEFSAII (Michael W. Deem and Ramdas Pophale) SiO2 
 PCOD9555147
Probable space group: P -4 2 C
;
_chemical_formula_sum "Si O2"
_cell_formula_units_Z 34
_cell_length_a 8.488537
_cell_length_b 8.488537
_cell_length_c 19.481737
_cell_angle_alpha 90.000000
_cell_angle_beta 90.000000
_cell_angle_gamma 90.000000
_cell_volume 1403.761633
_symmetry_space_group_name_H-M "P -4 2 C"
_symmetry_group_IT_number 112
_symmetry_cell_setting 'tetragonal'
loop_
_space_group_symop_operation_xyz
x,y,z
y,-x,-z
-x,-y,z
-y,x,-z
x,-y,1/2-z
-x,y,1/2-z
-y,-x,1/2+z
y,x,1/2+z
loop_
_atom_site_type_symbol
_atom_site_label
_atom_site_fract_x
_atom_site_fract_y
_atom_site_fract_z
Si Si1 0.816607 0.482759 0.345579
Si Si2 0.612485 0.802578 0.358979
Si Si3 0.000000 0.000000 0.250000
Si Si4 0.719534 0.175055 0.290039
Si Si5 0.747054 0.403268 0.495111
O O1 0.694133 0.628204 0.356401
O O2 0.743130 0.362502 0.291802
O O3 0.823685 0.398866 0.420830
O O4 0.000000 0.500000 0.327669
O O5 0.428138 0.833363 0.341805
O O6 0.683524 0.875124 0.289182
O O7 0.644817 0.847891 0.437802
O O8 0.894067 0.107812 0.299714
O O9 0.584365 0.305664 0.491554
#
# Coordination Sequence:
#
# PCOD9555147 Si02
#       5
#     8   8   2   8   8
#     4  11  21  37  65 102 136 174 225 308 368 414
#     4  10  21  39  69  99 126 174 236 299 365 425
#     4  12  28  46  62  94 144 198 240 288 360 446
#     4  11  23  42  64  92 134 183 237 289 352 439
#     4   9  17  35  60  96 134 167 217 290 364 435
#
# _framework density 24.220637
#
# number of rings (size 3 to 8) (size 9 to 14) (size 15 to 20)
#    0.000    1.647    2.353    2.824    0.000    4.706 
#    4.235    0.000    0.000    1.412    0.000    0.000 
#    0.000    0.000    0.000    0.000    0.000    0.000 
#
# Total GULP energy -189363.948710 kJ/mol
# GULP energy per Si atom -5569.527903 kJ/mol
# Density = 2.416551 g / cm^3
# Si number density = 24.220637 Si / 1000 Ang^3
#
#
#
# Elastic Constant Matrix: (Units=GPa)
#
#
# Indices 1 2 3 4 5 6 
#
# 1 66.3979 28.2788 10.8034 0.0000 0.0000 0.0000
# 2 28.2788 66.3979 10.8034 0.0000 0.0000 0.0000
# 3 10.8034 10.8034 162.9027 0.0000 0.0000 0.0000
# 4 0.0000 0.0000 0.0000 15.7177 0.0000 0.0000
# 5 0.0000 0.0000 0.0000 0.0000 15.7177 0.0000
# 6 0.0000 0.0000 0.0000 0.0000 0.0000 49.0299
#
#
#
# Elastic Compliance Matrix: (Units=1/GPa)
#
#
# Indices 1 2 3 4 5 6 
#
# 1 0.018479 -0.007755 -0.000711 0.000000 0.000000 0.000000
# 2 -0.007755 0.018479 -0.000711 0.000000 0.000000 0.000000
# 3 -0.000711 -0.000711 0.006233 0.000000 0.000000 0.000000
# 4 0.000000 0.000000 0.000000 0.063622 0.000000 0.000000
# 5 0.000000 0.000000 0.000000 0.000000 0.063622 0.000000
# 6 0.000000 0.000000 0.000000 0.000000 0.000000 0.020396
#
#
# Mechanical properties :
#
#
# Convention : Reuss Voigt Hill
#
# Bulk Modulus (GPa) = 40.26220 43.94107 42.10163
# Shear Modulus (GPa) = 22.99225 32.48061 27.73643
#
# Velocity S-wave (km/s) = 3.08439 3.66598 3.38769
# Velocity P-wave (km/s) = 5.41699 6.00838 5.72033
#
# Compressibility (1/GPa) = 0.02483719
#
# Stress axis : x y z
#
# Youngs Moduli (GPa) = 54.11522 54.11522 160.43717
#
# Poissons Ratio (x) = 0.41964 0.11411
# Poissons Ratio (y) = 0.41964 0.11411
# Poissons Ratio (z) = 0.03849 0.03849
#
# Static dielectric constant tensor:
#      x y z
#    x 2.027990 0.000000 0.000000 
#    y 0.000000 2.027990 0.000000 
#    z 0.000000 0.000000 1.967180 
# 
# From -- ./inp_files/4649.got.cif
#   From: 2010.05.17/outbox.cif.g08.bks.cpg/sg112_3_cif.got.tgz:4649.got - 2010.05.20 10:59:04.
