data_PCOD9555527
_publ_section_title
;
Structure prediction by ZEFSAII (Michael W. Deem and Ramdas Pophale) SiO2 
 PCOD9555527
Probable space group: P -4 21 M 
;
_chemical_formula_sum "Si O2"
_cell_formula_units_Z 56
_cell_length_a 11.280610
_cell_length_b 11.280610
_cell_length_c 20.803310
_cell_angle_alpha 90.000000
_cell_angle_beta 90.000000
_cell_angle_gamma 90.000000
_cell_volume 2647.266174
_symmetry_space_group_name_H-M "P -4 21 M "
_symmetry_group_IT_number 113
_symmetry_cell_setting 'tetragonal'
loop_
_space_group_symop_operation_xyz
x,y,z
y,-x,-z
-x,-y,z
-y,x,-z
1/2+x,1/2-y,-z
1/2-x,1/2+y,-z
1/2-y,1/2-x,z
1/2+y,1/2+x,z
loop_
_atom_site_type_symbol
_atom_site_label
_atom_site_fract_x
_atom_site_fract_y
_atom_site_fract_z
Si Si1 0.758670 0.072441 0.128375
Si Si2 0.868643 0.811055 0.433936
Si Si3 0.752930 0.433950 0.200648
Si Si4 0.324009 0.363383 0.122285
Si Si5 0.000511 0.303370 0.018258
Si Si6 0.435444 0.380566 0.668903
Si Si7 0.550410 0.237638 0.425503
O O1 0.631413 0.131413 0.148302
O O2 0.852320 0.168491 0.154983
O O3 0.817970 0.948998 0.148908
O O4 0.738330 0.039199 0.053001
O O5 0.812241 0.687760 0.412431
O O6 0.979405 0.841456 0.389551
O O7 0.901920 0.797610 0.508607
O O8 0.769355 0.912480 0.427170
O O9 0.883230 0.383230 0.191652
O O10 0.739039 0.567533 0.179363
O O11 0.709595 0.421690 0.273230
O O12 0.252833 0.247168 0.101760
O O13 0.306426 0.459140 0.063992
O O14 0.869596 0.369596 0.021349
O O15 0.091231 0.408770 0.036507
O O16 0.500000 0.500000 0.694201
O O17 0.309169 0.404125 0.636396
O O18 0.606172 0.106172 0.424601
#
# Coordination Sequence:
#
# PCOD9555527 Si02
#       7
#     8   8   8   8   8   8   8
#     4  10  22  40  63  89 123 162 210 268 320 373
#     4  10  20  34  56  87 120 156 202 250 301 365
#     4  11  24  42  62  89 125 164 211 258 315 384
#     4  11  23  38  61  90 124 165 210 258 318 382
#     4   9  19  36  58  87 123 164 208 259 321 383
#     4  10  20  36  62  85 118 159 204 253 306 372
#     4  10  19  34  57  85 120 157 199 248 302 359
#
# _framework density 21.1539
#
# number of rings (size 3 to 8) (size 9 to 14) (size 15 to 20)
#    0.000    1.857    1.429    2.571    2.000    2.571 
#    0.000    0.000    0.000    2.143    0.000    6.000 
#    0.000    0.000    0.000    0.000    0.000    0.000 
#
# Total GULP energy -311758.375505 kJ/mol
# GULP energy per Si atom -5567.113848 kJ/mol
# Density = 2.110575 g / cm^3
# Si number density = 21.153900 Si / 1000 Ang^3
#
#
#
# Elastic Constant Matrix: (Units=GPa)
#
#
# Indices 1 2 3 4 5 6 
#
# 1 63.1314 52.3185 12.2476 0.0000 0.0000 0.0000
# 2 52.3185 63.1331 12.2498 0.0000 0.0000 0.0000
# 3 12.2476 12.2498 55.0082 0.0000 0.0000 0.0000
# 4 0.0000 0.0000 0.0000 9.8543 0.0000 0.0000
# 5 0.0000 0.0000 0.0000 0.0000 9.8546 0.0000
# 6 0.0000 0.0000 0.0000 0.0000 0.0000 36.1789
#
#
#
# Elastic Compliance Matrix: (Units=1/GPa)
#
#
# Indices 1 2 3 4 5 6 
#
# 1 0.050784 -0.041692 -0.002023 0.000000 0.000000 0.000000
# 2 -0.041692 0.050783 -0.002026 0.000000 0.000000 0.000000
# 3 -0.002023 -0.002026 0.019081 0.000000 0.000000 0.000000
# 4 0.000000 0.000000 0.000000 0.101479 0.000000 0.000000
# 5 0.000000 0.000000 0.000000 0.000000 0.101476 0.000000
# 6 0.000000 0.000000 0.000000 0.000000 0.000000 0.027640
#
#
# Mechanical properties :
#
#
# Convention : Reuss Voigt Hill
#
# Bulk Modulus (GPa) = 34.28682 37.21160 35.74921
# Shear Modulus (GPa) = 11.05106 18.14134 14.59620
#
# Velocity S-wave (km/s) = 2.28811 2.93164 2.62964
# Velocity P-wave (km/s) = 4.81914 5.39337 5.11432
#
# Compressibility (1/GPa) = 0.02916573
#
# Stress axis : x y z
#
# Youngs Moduli (GPa) = 19.69138 19.69160 52.40920
#
# Poissons Ratio (x) = 0.82098 0.10600
# Poissons Ratio (y) = 0.82098 0.10619
# Poissons Ratio (z) = 0.03983 0.03990
#
# Static dielectric constant tensor:
#      x y z
#    x 1.798180 0.000000 0.000000 
#    y 0.000000 1.798180 0.000000 
#    z 0.000000 0.000000 1.745710 
# 
# From -- ./inp_files/2727.got.cif
#   From: 2010.05.17/outbox.cif.g08.bks.cpg/sg113_cif.got.tgz:2727.got - 2010.05.20 11:03:00.
