data_PCOD9555349
_publ_section_title
;
Structure prediction by ZEFSAII (Michael W. Deem and Ramdas Pophale) SiO2 
 PCOD9555349
Probable space group: P -4 2 C
;
_chemical_formula_sum "Si O2"
_cell_formula_units_Z 36
_cell_length_a 14.380006
_cell_length_b 14.380006
_cell_length_c 10.467989
_cell_angle_alpha 90.000000
_cell_angle_beta 90.000000
_cell_angle_gamma 90.000000
_cell_volume 2164.618631
_symmetry_space_group_name_H-M "P -4 2 C"
_symmetry_group_IT_number 112
_symmetry_cell_setting 'tetragonal'
loop_
_space_group_symop_operation_xyz
x,y,z
y,-x,-z
-x,-y,z
-y,x,-z
x,-y,1/2-z
-x,y,1/2-z
-y,-x,1/2+z
y,x,1/2+z
loop_
_atom_site_type_symbol
_atom_site_label
_atom_site_fract_x
_atom_site_fract_y
_atom_site_fract_z
Si Si1 0.312236 0.428135 0.578203
Si Si2 0.607494 0.894174 0.711996
Si Si3 0.689698 0.711485 0.818436
Si Si4 0.500000 0.000000 0.250000
Si Si5 0.844709 0.410430 0.581497
Si Si6 0.500000 0.500000 0.000000
O O1 0.321342 0.352326 0.691067
O O2 0.305775 0.379178 0.439039
O O3 0.227315 0.501413 0.589892
O O4 0.407589 0.485146 0.581110
O O5 0.500000 0.876422 0.750000
O O6 0.672140 0.817538 0.778629
O O7 0.608456 0.876739 0.561565
O O8 0.629878 0.000000 0.750000
O O9 0.789983 0.679190 0.867868
O O10 0.562715 0.933363 0.335991
#
# Coordination Sequence:
#
# PCOD9555349 Si02
#       6
#     8   8   8   2   8   2
#     4  12  24  38  54  84 123 165 207 240 286 360
#     4  11  23  39  61  85 120 163 204 248 300 354
#     4  12  23  39  57  81 122 157 199 252 296 349
#     4  12  24  40  62  82 122 152 208 258 308 346
#     4  12  24  40  59  88 120 160 204 253 298 357
#     4  12  24  34  56  78 124 174 200 230 288 346
#
# _framework density 16.631105000000002
#
# number of rings (size 3 to 8) (size 9 to 14) (size 15 to 20)
#    0.000    0.222    8.889    1.333    0.000    0.889 
#    0.000    0.000    0.000    0.000    0.000    0.778 
#    0.000    0.000    0.000    0.000    0.000    0.000 
#
# Total GULP energy -201064.552090 kJ/mol
# GULP energy per Si atom -5585.126447 kJ/mol
# Density = 1.659325 g / cm^3
# Si number density = 16.631105 Si / 1000 Ang^3
#
#
#
# Elastic Constant Matrix: (Units=GPa)
#
#
# Indices 1 2 3 4 5 6 
#
# 1 123.4765 72.2846 61.7479 0.0000 0.0000 0.0000
# 2 72.2846 123.4765 61.7479 0.0000 0.0000 0.0000
# 3 61.7479 61.7479 136.8416 0.0000 0.0000 0.0000
# 4 0.0000 0.0000 0.0000 26.7332 0.0000 0.0000
# 5 0.0000 0.0000 0.0000 0.0000 26.7332 0.0000
# 6 0.0000 0.0000 0.0000 0.0000 0.0000 13.7495
#
#
#
# Elastic Compliance Matrix: (Units=1/GPa)
#
#
# Indices 1 2 3 4 5 6 
#
# 1 0.013338 -0.006197 -0.003222 0.000000 0.000000 0.000000
# 2 -0.006197 0.013338 -0.003222 0.000000 0.000000 0.000000
# 3 -0.003222 -0.003222 0.010216 0.000000 0.000000 0.000000
# 4 0.000000 0.000000 0.000000 0.037407 0.000000 0.000000
# 5 0.000000 0.000000 0.000000 0.000000 0.037407 0.000000
# 6 0.000000 0.000000 0.000000 0.000000 0.000000 0.072730
#
#
# Mechanical properties :
#
#
# Convention : Reuss Voigt Hill
#
# Bulk Modulus (GPa) = 86.14260 86.15059 86.14660
# Shear Modulus (GPa) = 23.40977 25.97749 24.69363
#
# Velocity S-wave (km/s) = 3.75586 3.95648 3.85747
# Velocity P-wave (km/s) = 8.40935 8.53141 8.47060
#
# Compressibility (1/GPa) = 0.01160866
#
# Stress axis : x y z
#
# Youngs Moduli (GPa) = 74.97546 74.97546 97.88803
#
# Poissons Ratio (x) = 0.46460 0.31542
# Poissons Ratio (y) = 0.46460 0.31542
# Poissons Ratio (z) = 0.24159 0.24159
#
# Static dielectric constant tensor:
#      x y z
#    x 1.553450 0.000000 0.000000 
#    y 0.000000 1.553450 0.000000 
#    z 0.000000 0.000000 1.620810 
# 
# From -- ./inp_files/1158.got.cif
#   From: 2010.05.17/outbox.cif.g08.bks.cpg/sg112_1_cif.got.tgz:1158.got - 2010.05.20 10:59:04.
