data_PCOD9555884
_publ_section_title
;
Structure prediction by ZEFSAII (Michael W. Deem and Ramdas Pophale) SiO2 
 PCOD9555884
Probable space group: P -4 21 C
;
_chemical_formula_sum "Si O2"
_cell_formula_units_Z 56
_cell_length_a 11.868975
_cell_length_b 11.868975
_cell_length_c 21.110731
_cell_angle_alpha 90.000000
_cell_angle_beta 90.000000
_cell_angle_gamma 90.000000
_cell_volume 2973.922879
_symmetry_space_group_name_H-M "P -4 21 C"
_symmetry_group_IT_number 114
_symmetry_cell_setting 'tetragonal'
loop_
_space_group_symop_operation_xyz
x,y,z
y,-x,-z
-x,-y,z
-y,x,-z
1/2+x,1/2-y,1/2-z
1/2-x,1/2+y,1/2-z
1/2-y,1/2-x,1/2+z
1/2+y,1/2+x,1/2+z
loop_
_atom_site_type_symbol
_atom_site_label
_atom_site_fract_x
_atom_site_fract_y
_atom_site_fract_z
Si Si1 0.354452 0.125116 0.845460
Si Si2 0.612366 0.116332 0.808203
Si Si3 0.474185 0.875238 0.162791
Si Si4 0.740264 0.181655 0.087341
Si Si5 0.801136 0.291210 0.790075
Si Si6 0.647941 0.595452 0.523672
Si Si7 0.027911 0.870510 0.847032
O O1 0.487308 0.139786 0.833131
O O2 0.298044 0.193842 0.901575
O O3 0.293176 0.171267 0.782565
O O4 0.338784 0.990478 0.846855
O O5 0.609747 0.075651 0.734373
O O6 0.692736 0.222303 0.810643
O O7 0.382568 0.816107 0.118722
O O8 0.594899 0.816932 0.170336
O O9 0.500000 0.000000 0.137625
O O10 0.808306 0.082661 0.125502
O O11 0.746619 0.145536 0.013769
O O12 0.909874 0.208919 0.796620
O O13 0.641749 0.461274 0.515079
O O14 0.617294 0.624373 0.595046
O O15 0.000000 0.000000 0.828480
#
# Coordination Sequence:
#
# PCOD9555884 Si02
#       7
#     8   8   8   8   8   8   8
#     4  10  20  34  53  78 110 149 185 229 290 349
#     4  10  19  35  50  75 115 147 180 232 280 337
#     4  11  19  35  50  78 113 154 179 228 286 346
#     4  11  19  33  57  75 111 149 184 229 302 339
#     4  11  21  33  55  77 112 150 189 228 285 352
#     4   9  17  32  51  81 111 136 176 244 290 329
#     4  11  19  33  56  86 109 142 191 238 292 340
#
# _framework density 18.830345000000001
#
# number of rings (size 3 to 8) (size 9 to 14) (size 15 to 20)
#    0.000    1.571    8.571    0.857    0.000    0.000 
#    0.000    0.714    3.143    0.000    0.000    0.000 
#    0.000    0.000    0.000    0.000    0.000    0.000 
#
# Total GULP energy -312495.000630 kJ/mol
# GULP energy per Si atom -5580.267868 kJ/mol
# Density = 1.878749 g / cm^3
# Si number density = 18.830345 Si / 1000 Ang^3
#
#
#
# Elastic Constant Matrix: (Units=GPa)
#
#
# Indices 1 2 3 4 5 6 
#
# 1 104.4804 51.1823 13.2193 0.0000 0.0000 0.0000
# 2 51.1823 104.4804 13.2193 0.0000 0.0000 0.0000
# 3 13.2193 13.2193 23.9058 0.0000 0.0000 0.0000
# 4 0.0000 0.0000 0.0000 15.9069 0.0000 0.0000
# 5 0.0000 0.0000 0.0000 0.0000 15.9069 0.0000
# 6 0.0000 0.0000 0.0000 0.0000 0.0000 31.2912
#
#
#
# Elastic Compliance Matrix: (Units=1/GPa)
#
#
# Indices 1 2 3 4 5 6 
#
# 1 0.012926 -0.005836 -0.003921 0.000000 0.000000 0.000000
# 2 -0.005836 0.012926 -0.003921 0.000000 0.000000 0.000000
# 3 -0.003921 -0.003921 0.046167 0.000000 0.000000 0.000000
# 4 0.000000 0.000000 0.000000 0.062866 0.000000 0.000000
# 5 0.000000 0.000000 0.000000 0.000000 0.062866 0.000000
# 6 0.000000 0.000000 0.000000 0.000000 0.000000 0.031958
#
#
# Mechanical properties :
#
#
# Convention : Reuss Voigt Hill
#
# Bulk Modulus (GPa) = 22.38917 43.12317 32.75617
# Shear Modulus (GPa) = 18.38562 22.97071 20.67817
#
# Velocity S-wave (km/s) = 3.12810 3.49646 3.31740
# Velocity P-wave (km/s) = 4.99624 6.26506 5.66628
#
# Compressibility (1/GPa) = 0.04466445
#
# Stress axis : x y z
#
# Youngs Moduli (GPa) = 77.36209 77.36209 21.66057
#
# Poissons Ratio (x) = 0.45150 0.08492
# Poissons Ratio (y) = 0.45150 0.08492
# Poissons Ratio (z) = 0.30331 0.30331
#
# Static dielectric constant tensor:
#      x y z
#    x 1.674800 0.000000 0.000000 
#    y 0.000000 1.674800 0.000000 
#    z 0.000000 0.000000 1.681080 
# 
# From -- ./inp_files/3172.got.cif
#   From: 2010.05.17/outbox.cif.g08.bks.cpg/sg114_2_cif.got.tgz:3172.got - 2010.05.20 11:04:54.
