data_PCOD9555243
_publ_section_title
;
Structure prediction by ZEFSAII (Michael W. Deem and Ramdas Pophale) SiO2 
 PCOD9555243
Probable space group: P -4 2 C
;
_chemical_formula_sum "Si O2"
_cell_formula_units_Z 32
_cell_length_a 7.638361
_cell_length_b 7.638361
_cell_length_c 22.739246
_cell_angle_alpha 90.000000
_cell_angle_beta 90.000000
_cell_angle_gamma 90.000000
_cell_volume 1326.711275
_symmetry_space_group_name_H-M "P -4 2 C"
_symmetry_group_IT_number 112
_symmetry_cell_setting 'tetragonal'
loop_
_space_group_symop_operation_xyz
x,y,z
y,-x,-z
-x,-y,z
-y,x,-z
x,-y,1/2-z
-x,y,1/2-z
-y,-x,1/2+z
y,x,1/2+z
loop_
_atom_site_type_symbol
_atom_site_label
_atom_site_fract_x
_atom_site_fract_y
_atom_site_fract_z
Si Si1 0.309470 0.435157 0.631468
Si Si2 0.652430 0.855011 0.018758
Si Si3 0.143323 0.784332 0.596760
Si Si4 0.055711 0.702358 0.316817
O O1 0.500000 0.500000 0.649732
O O2 0.305529 0.386759 0.561968
O O3 0.176366 0.600239 0.630961
O O4 0.269529 0.260936 0.668892
O O5 0.500000 0.000000 0.012057
O O6 0.787255 0.964491 0.059650
O O7 0.715451 0.798941 0.955618
O O8 0.180325 0.936588 0.641730
O O9 0.000000 0.500000 0.329293
O O10 0.000000 0.736718 0.250000
#
# Coordination Sequence:
#
# PCOD9555243 Si02
#       4
#     8   8   8   8
#     4  11  24  41  68  98 136 187 238 299 374 442
#     4  10  24  40  67 103 143 184 234 298 383 464
#     4  11  23  43  66 101 144 180 234 305 372 455
#     4  11  24  44  68 102 138 190 255 309 366 442
#
# _framework density 24.119793000000001
#
# number of rings (size 3 to 8) (size 9 to 14) (size 15 to 20)
#    0.000    1.250    2.500    2.250    7.000    4.500 
#    0.000    2.500    0.000    4.500    0.000    0.000 
#    0.000    0.000    0.000    0.000    0.000    0.000 
#
# Total GULP energy -179050.234032 kJ/mol
# GULP energy per Si atom -5595.319813 kJ/mol
# Density = 2.406489 g / cm^3
# Si number density = 24.119793 Si / 1000 Ang^3
#
#
#
# Elastic Constant Matrix: (Units=GPa)
#
#
# Indices 1 2 3 4 5 6 
#
# 1 137.6368 49.1740 66.8848 0.0000 0.0000 0.0000
# 2 49.1740 137.6368 66.8848 0.0000 0.0000 0.0000
# 3 66.8848 66.8848 122.9623 0.0000 0.0000 0.0000
# 4 0.0000 0.0000 0.0000 29.1472 0.0000 0.0000
# 5 0.0000 0.0000 0.0000 0.0000 29.1472 0.0000
# 6 0.0000 0.0000 0.0000 0.0000 0.0000 34.9905
#
#
#
# Elastic Compliance Matrix: (Units=1/GPa)
#
#
# Indices 1 2 3 4 5 6 
#
# 1 0.010036 -0.001268 -0.004769 0.000000 0.000000 0.000000
# 2 -0.001268 0.010036 -0.004769 0.000000 0.000000 0.000000
# 3 -0.004769 -0.004769 0.013321 0.000000 0.000000 0.000000
# 4 0.000000 0.000000 0.000000 0.034309 0.000000 0.000000
# 5 0.000000 0.000000 0.000000 0.000000 0.034309 0.000000
# 6 0.000000 0.000000 0.000000 0.000000 0.000000 0.028579
#
#
# Mechanical properties :
#
#
# Convention : Reuss Voigt Hill
#
# Bulk Modulus (GPa) = 84.89017 84.90257 84.89637
# Shear Modulus (GPa) = 32.02450 33.00981 32.51716
#
# Velocity S-wave (km/s) = 3.64775 3.70344 3.67570
# Velocity P-wave (km/s) = 7.28101 7.31875 7.29990
#
# Compressibility (1/GPa) = 0.01177993
#
# Stress axis : x y z
#
# Youngs Moduli (GPa) = 99.63891 99.63891 75.06806
#
# Poissons Ratio (x) = 0.12634 0.35804
# Poissons Ratio (y) = 0.12634 0.35804
# Poissons Ratio (z) = 0.47523 0.47523
#
# Static dielectric constant tensor:
#      x y z
#    x 2.048960 0.000000 0.000000 
#    y 0.000000 2.048960 0.000000 
#    z 0.000000 0.000000 1.836880 
# 
# From -- ./inp_files/4546.got.cif
#   From: 2010.05.17/outbox.cif.g08.bks.cpg/sg112_3_cif.got.tgz:4546.got - 2010.05.20 10:59:04.
