data_PCOD9555274
_publ_section_title
;
Structure prediction by ZEFSAII (Michael W. Deem and Ramdas Pophale) SiO2 
 PCOD9555274
Probable space group: P -4 2 C
;
_chemical_formula_sum "Si O2"
_cell_formula_units_Z 34
_cell_length_a 8.149454
_cell_length_b 8.149454
_cell_length_c 21.655985
_cell_angle_alpha 90.000000
_cell_angle_beta 90.000000
_cell_angle_gamma 90.000000
_cell_volume 1438.251936
_symmetry_space_group_name_H-M "P -4 2 C"
_symmetry_group_IT_number 112
_symmetry_cell_setting 'tetragonal'
loop_
_space_group_symop_operation_xyz
x,y,z
y,-x,-z
-x,-y,z
-y,x,-z
x,-y,1/2-z
-x,y,1/2-z
-y,-x,1/2+z
y,x,1/2+z
loop_
_atom_site_type_symbol
_atom_site_label
_atom_site_fract_x
_atom_site_fract_y
_atom_site_fract_z
Si Si1 0.500000 0.000000 0.837940
Si Si2 0.760279 0.230845 0.320093
Si Si3 0.453072 0.185043 0.069059
Si Si4 0.000000 0.000000 0.750000
Si Si5 0.000000 0.000000 0.000000
Si Si6 0.500000 0.000000 0.250000
Si Si7 0.191257 0.293195 0.436867
O O1 0.594772 0.152236 0.805624
O O2 0.364475 0.082918 0.882182
O O3 0.701829 0.241696 0.390922
O O4 0.607765 0.132921 0.288499
O O5 0.898800 0.109578 0.296799
O O6 0.618846 0.283647 0.082239
O O7 0.500000 0.000000 0.085374
O O8 0.408763 0.187453 0.997066
O O9 0.118053 0.117671 0.959387
#
# Coordination Sequence:
#
# PCOD9555274 Si02
#       7
#     4   8   8   2   2   2   8
#     4  12  28  44  70 114 150 192 238 314 388 456
#     4  11  26  48  76 109 141 196 257 325 389 453
#     4  12  24  42  71 107 148 195 245 301 376 455
#     4  10  28  54  80 100 144 196 276 340 372 454
#     4  12  20  38  68  92 152 210 248 274 344 448
#     4  10  24  52  84 104 136 198 272 318 388 454
#     4  12  25  42  67 110 154 194 237 301 365 477
#
# _framework density 23.639809
#
# number of rings (size 3 to 8) (size 9 to 14) (size 15 to 20)
#    0.000    0.471    4.706    2.824    3.294    4.706 
#    0.000    2.353    0.000    0.000    0.000    0.000 
#    0.000    0.000    0.000    0.000    0.000    0.000 
#
# Total GULP energy -189920.757053 kJ/mol
# GULP energy per Si atom -5585.904619 kJ/mol
# Density = 2.358600 g / cm^3
# Si number density = 23.639809 Si / 1000 Ang^3
#
#
#
# Elastic Constant Matrix: (Units=GPa)
#
#
# Indices 1 2 3 4 5 6 
#
# 1 121.8749 48.5862 52.0129 0.0000 0.0000 0.0000
# 2 48.5862 121.8749 52.0129 0.0000 0.0000 0.0000
# 3 52.0129 52.0129 82.7427 0.0000 0.0000 0.0000
# 4 0.0000 0.0000 0.0000 77.4967 0.0000 0.0000
# 5 0.0000 0.0000 0.0000 0.0000 77.4967 0.0000
# 6 0.0000 0.0000 0.0000 0.0000 0.0000 62.2746
#
#
#
# Elastic Compliance Matrix: (Units=1/GPa)
#
#
# Indices 1 2 3 4 5 6 
#
# 1 0.011581 -0.002064 -0.005983 0.000000 0.000000 0.000000
# 2 -0.002064 0.011581 -0.005983 0.000000 0.000000 0.000000
# 3 -0.005983 -0.005983 0.019607 0.000000 0.000000 0.000000
# 4 0.000000 0.000000 0.000000 0.012904 0.000000 0.000000
# 5 0.000000 0.000000 0.000000 0.000000 0.012904 0.000000
# 6 0.000000 0.000000 0.000000 0.000000 0.000000 0.016058
#
#
# Mechanical properties :
#
#
# Convention : Reuss Voigt Hill
#
# Bulk Modulus (GPa) = 67.97557 70.19073 69.08315
# Shear Modulus (GPa) = 42.51803 55.04563 48.78183
#
# Velocity S-wave (km/s) = 4.24556 4.83070 4.54756
# Velocity P-wave (km/s) = 7.26982 7.80195 7.54058
#
# Compressibility (1/GPa) = 0.01471117
#
# Stress axis : x y z
#
# Youngs Moduli (GPa) = 86.34758 86.34758 51.00121
#
# Poissons Ratio (x) = 0.17819 0.30513
# Poissons Ratio (y) = 0.17819 0.30513
# Poissons Ratio (z) = 0.51660 0.51660
#
# Static dielectric constant tensor:
#      x y z
#    x 1.907910 0.000000 0.000000 
#    y 0.000000 1.907910 0.000000 
#    z 0.000000 0.000000 1.907380 
# 
# From -- ./inp_files/4770.got.cif
#   From: 2010.05.17/outbox.cif.g08.bks.cpg/sg112_3_cif.got.tgz:4770.got - 2010.05.20 10:59:04.
