data_PCOD9555813
_publ_section_title
;
Structure prediction by ZEFSAII (Michael W. Deem and Ramdas Pophale) SiO2 
 PCOD9555813
Probable space group: P -4 21 C
;
_chemical_formula_sum "Si O2"
_cell_formula_units_Z 40
_cell_length_a 18.091217
_cell_length_b 18.091217
_cell_length_c 5.410615
_cell_angle_alpha 90.000000
_cell_angle_beta 90.000000
_cell_angle_gamma 90.000000
_cell_volume 1770.851722
_symmetry_space_group_name_H-M "P -4 21 C"
_symmetry_group_IT_number 114
_symmetry_cell_setting 'tetragonal'
loop_
_space_group_symop_operation_xyz
x,y,z
y,-x,-z
-x,-y,z
-y,x,-z
1/2+x,1/2-y,1/2-z
1/2-x,1/2+y,1/2-z
1/2-y,1/2-x,1/2+z
1/2+y,1/2+x,1/2+z
loop_
_atom_site_type_symbol
_atom_site_label
_atom_site_fract_x
_atom_site_fract_y
_atom_site_fract_z
Si Si1 0.196400 0.904435 0.153353
Si Si2 0.399739 0.040947 0.615746
Si Si3 0.729911 0.065849 0.657591
Si Si4 0.944732 0.195097 0.057342
Si Si5 0.673393 0.801292 0.612672
O O1 0.123206 0.856064 0.128458
O O2 0.240248 0.897364 0.408919
O O3 0.250379 0.892552 0.914725
O O4 0.168637 0.989542 0.120030
O O5 0.442691 0.051990 0.359112
O O6 0.353182 0.965531 0.634835
O O7 0.342804 0.111065 0.615570
O O8 0.778277 0.990968 0.705851
O O9 0.905464 0.262541 0.914469
O O10 0.718445 0.786745 0.364595
#
# Coordination Sequence:
#
# PCOD9555813 Si02
#       5
#     8   8   8   8   8
#     4  10  22  32  46  61  89 126 159 203 220 258
#     4  10  15  27  47  70  83 103 137 194 237 276
#     4  10  20  32  46  66  89 113 157 196 232 266
#     4  10  22  33  49  63  92 121 167 188 234 262
#     4  10  17  28  49  69  84 105 146 200 227 280
#
# _framework density 22.588001999999999
#
# number of rings (size 3 to 8) (size 9 to 14) (size 15 to 20)
#    1.200    0.800    4.000    3.600    2.800    0.400 
#    0.000    0.000    0.000    0.000    0.000    0.000 
#    0.000    0.000    0.000    0.000    0.000  244.000 
#
# Total GULP energy -222922.773658 kJ/mol
# GULP energy per Si atom -5573.069341 kJ/mol
# Density = 2.253659 g / cm^3
# Si number density = 22.588002 Si / 1000 Ang^3
#
#
#
# Elastic Constant Matrix: (Units=GPa)
#
#
# Indices 1 2 3 4 5 6 
#
# 1 3.9933 42.2048 17.2183 0.0000 0.0000 0.0000
# 2 42.2048 3.9933 17.2183 0.0000 0.0000 0.0000
# 3 17.2183 17.2183 206.2709 0.0000 0.0000 0.0000
# 4 0.0000 0.0000 0.0000 31.2414 0.0000 0.0000
# 5 0.0000 0.0000 0.0000 0.0000 31.2414 0.0000
# 6 0.0000 0.0000 0.0000 0.0000 0.0000 14.1118
#
#
#
# Elastic Compliance Matrix: (Units=1/GPa)
#
#
# Indices 1 2 3 4 5 6 
#
# 1 -0.001544 0.024626 -0.001927 0.000000 0.000000 0.000000
# 2 0.024626 -0.001544 -0.001927 0.000000 0.000000 0.000000
# 3 -0.001927 -0.001927 0.005170 0.000000 0.000000 0.000000
# 4 0.000000 0.000000 0.000000 0.032009 0.000000 0.000000
# 5 0.000000 0.000000 0.000000 0.000000 0.032009 0.000000
# 6 0.000000 0.000000 0.000000 0.000000 0.000000 0.070863
#
#
# Mechanical properties :
#
#
# Convention : Reuss Voigt Hill
#
# Bulk Modulus (GPa) = 22.92165 40.83781 31.87973
# Shear Modulus (GPa) = 45.47143 24.49333 34.98238
#
# Velocity S-wave (km/s) = 4.49160 3.29652 3.93964
# Velocity P-wave (km/s) = 6.08844 5.71035 5.90242
#
# Compressibility (1/GPa) = 0.04362687
#
# Stress axis : x y z
#
# Youngs Moduli (GPa) = -647.66989 -647.66989 193.43614
#
# Poissons Ratio (x) = 15.94960 0.37271
# Poissons Ratio (y) = 15.94960 0.37271
# Poissons Ratio (z) = -1.24791 -1.24791
#
# Static dielectric constant tensor:
#      x y z
#    x 1.849840 0.000000 0.000000 
#    y 0.000000 1.849840 0.000000 
#    z 0.000000 0.000000 1.935610 
# 
# From -- ./inp_files/194.got.cif
#   From: 2010.05.17/outbox.cif.g08.bks.cpg/sg114_1_cif.got.tgz:194.got - 2010.05.20 11:04:54.
