data_PCOD9555876
_publ_section_title
;
Structure prediction by ZEFSAII (Michael W. Deem and Ramdas Pophale) SiO2 
 PCOD9555876
Probable space group: P -4 21 C
;
_chemical_formula_sum "Si O2"
_cell_formula_units_Z 60
_cell_length_a 11.541890
_cell_length_b 11.541890
_cell_length_c 22.215427
_cell_angle_alpha 90.000000
_cell_angle_beta 90.000000
_cell_angle_gamma 90.000000
_cell_volume 2959.433101
_symmetry_space_group_name_H-M "P -4 21 C"
_symmetry_group_IT_number 114
_symmetry_cell_setting 'tetragonal'
loop_
_space_group_symop_operation_xyz
x,y,z
y,-x,-z
-x,-y,z
-y,x,-z
1/2+x,1/2-y,1/2-z
1/2-x,1/2+y,1/2-z
1/2-y,1/2-x,1/2+z
1/2+y,1/2+x,1/2+z
loop_
_atom_site_type_symbol
_atom_site_label
_atom_site_fract_x
_atom_site_fract_y
_atom_site_fract_z
Si Si1 0.350311 0.302762 0.877510
Si Si2 0.500000 0.500000 0.139644
Si Si3 0.192101 0.152533 0.951725
Si Si4 0.844013 0.731880 0.254942
Si Si5 0.724800 0.617275 0.583352
Si Si6 0.655427 0.402648 0.755524
Si Si7 0.635086 0.501637 0.360688
Si Si8 0.371885 0.952480 0.341680
O O1 0.418712 0.416014 0.896966
O O2 0.294176 0.234924 0.931367
O O3 0.257463 0.338333 0.826296
O O4 0.442685 0.216752 0.847083
O O5 0.424957 0.418230 0.184365
O O6 0.080523 0.190841 0.912130
O O7 0.222187 0.021862 0.929746
O O8 0.167395 0.174252 0.021247
O O9 0.704373 0.745844 0.238799
O O10 0.864488 0.608320 0.223493
O O11 0.968178 0.796298 0.238675
O O12 0.633051 0.663815 0.633397
O O13 0.850818 0.649318 0.608873
O O14 0.566191 0.362475 0.702995
O O15 0.500000 0.500000 0.378138
O O16 0.500000 0.000000 0.351320
#
# Coordination Sequence:
#
# PCOD9555876 Si02
#       8
#     8   4   8   8   8   8   8   8
#     4  11  23  41  66  92 135 175 221 276 333 407
#     4  10  22  38  60  91 129 182 222 260 320 432
#     4  11  20  39  63  98 132 165 216 286 335 386
#     4  11  23  39  65  98 131 179 219 272 338 407
#     4  11  23  37  66  99 132 168 222 281 340 391
#     4  11  20  37  61  94 133 172 219 272 332 408
#     4  10  19  32  58  96 128 165 208 271 335 389
#     4  12  24  41  64  98 139 175 222 275 343 408
#
# _framework density 20.274152999999998
#
# number of rings (size 3 to 8) (size 9 to 14) (size 15 to 20)
#    0.000    1.067    6.000    2.400    1.867    0.000 
#    0.000    1.333    0.000    0.800    0.000    0.000 
#    0.000    0.000    0.000    0.000    0.000    0.000 
#
# Total GULP energy -334079.434945 kJ/mol
# GULP energy per Si atom -5567.990582 kJ/mol
# Density = 2.022801 g / cm^3
# Si number density = 20.274153 Si / 1000 Ang^3
#
#
#
# Elastic Constant Matrix: (Units=GPa)
#
#
# Indices 1 2 3 4 5 6 
#
# 1 89.1686 27.6146 37.0881 0.0000 0.0000 0.0000
# 2 27.6146 89.1686 37.0881 0.0000 0.0000 0.0000
# 3 37.0881 37.0881 59.3993 0.0000 0.0000 0.0000
# 4 0.0000 0.0000 0.0000 25.6967 0.0000 0.0000
# 5 0.0000 0.0000 0.0000 0.0000 25.6967 0.0000
# 6 0.0000 0.0000 0.0000 0.0000 0.0000 33.4092
#
#
#
# Elastic Compliance Matrix: (Units=1/GPa)
#
#
# Indices 1 2 3 4 5 6 
#
# 1 0.015218 -0.001028 -0.008860 0.000000 0.000000 0.000000
# 2 -0.001028 0.015218 -0.008860 0.000000 0.000000 0.000000
# 3 -0.008860 -0.008860 0.027900 0.000000 0.000000 0.000000
# 4 0.000000 0.000000 0.000000 0.038916 0.000000 0.000000
# 5 0.000000 0.000000 0.000000 0.000000 0.038916 0.000000
# 6 0.000000 0.000000 0.000000 0.000000 0.000000 0.029932
#
#
# Mechanical properties :
#
#
# Convention : Reuss Voigt Hill
#
# Bulk Modulus (GPa) = 47.98597 49.03536 48.51066
# Shear Modulus (GPa) = 23.74810 26.02356 24.88583
#
# Velocity S-wave (km/s) = 3.42621 3.58660 3.50732
# Velocity P-wave (km/s) = 6.27470 6.43352 6.35461
#
# Compressibility (1/GPa) = 0.02083943
#
# Stress axis : x y z
#
# Youngs Moduli (GPa) = 65.71037 65.71037 35.84237
#
# Poissons Ratio (x) = 0.06752 0.31758
# Poissons Ratio (y) = 0.06752 0.31758
# Poissons Ratio (z) = 0.58223 0.58223
#
# Static dielectric constant tensor:
#      x y z
#    x 1.782360 0.000000 0.000000 
#    y 0.000000 1.782360 0.000000 
#    z 0.000000 0.000000 1.736200 
# 
# From -- ./inp_files/3220.got.cif
#   From: 2010.05.17/outbox.cif.g08.bks.cpg/sg114_2_cif.got.tgz:3220.got - 2010.05.20 11:04:54.
