data_PCOD9555712
_publ_section_title
;
Structure prediction by ZEFSAII (Michael W. Deem and Ramdas Pophale) SiO2 
 PCOD9555712
Probable space group: P -4 21 M 
;
_chemical_formula_sum "Si O2"
_cell_formula_units_Z 30
_cell_length_a 13.187689
_cell_length_b 13.187689
_cell_length_c 8.911145
_cell_angle_alpha 90.000000
_cell_angle_beta 90.000000
_cell_angle_gamma 90.000000
_cell_volume 1549.783041
_symmetry_space_group_name_H-M "P -4 21 M "
_symmetry_group_IT_number 113
_symmetry_cell_setting 'tetragonal'
loop_
_space_group_symop_operation_xyz
x,y,z
y,-x,-z
-x,-y,z
-y,x,-z
1/2+x,1/2-y,-z
1/2-x,1/2+y,-z
1/2-y,1/2-x,z
1/2+y,1/2+x,z
loop_
_atom_site_type_symbol
_atom_site_label
_atom_site_fract_x
_atom_site_fract_y
_atom_site_fract_z
Si Si1 0.000000 0.500000 0.068026
Si Si2 0.879528 0.379528 0.322036
Si Si3 0.852120 0.064455 0.950701
Si Si4 0.281371 0.781371 0.393092
Si Si5 0.650143 0.150143 0.094065
Si Si6 0.761612 0.575590 0.353383
O O1 0.071314 0.571314 0.172667
O O2 0.070074 0.429927 0.967125
O O3 0.793903 0.293903 0.308307
O O4 0.822690 0.474463 0.398531
O O5 0.819308 0.054211 0.776297
O O6 0.759876 0.118386 0.033803
O O7 0.954567 0.127366 0.977040
O O8 0.344164 0.844164 0.272837
O O9 0.360378 0.723941 0.503576
O O10 0.847765 0.652236 0.287261
#
# Coordination Sequence:
#
# PCOD9555712 Si02
#       6
#     2   4   8   4   4   8
#     4  12  22  38  72 100 128 174 238 288 330 404
#     4  12  18  43  73  90 132 180 219 276 345 399
#     4  11  23  40  67  99 134 177 227 285 341 409
#     4  10  26  37  66  99 135 173 214 288 346 396
#     4  12  23  41  64 105 125 178 239 278 336 401
#     4  10  21  44  64  96 134 174 220 281 340 399
#
# _framework density 19.357547
#
# number of rings (size 3 to 8) (size 9 to 14) (size 15 to 20)
#    0.800    0.267    5.333    1.600    0.000    3.200 
#    0.000    0.000    0.000    3.200    0.000    0.000 
#    0.000    0.000    0.000    0.000    0.000    0.000 
#
# Total GULP energy -167254.130240 kJ/mol
# GULP energy per Si atom -5575.137675 kJ/mol
# Density = 1.931349 g / cm^3
# Si number density = 19.357547 Si / 1000 Ang^3
#
#
#
# Elastic Constant Matrix: (Units=GPa)
#
#
# Indices 1 2 3 4 5 6 
#
# 1 109.8868 68.7200 35.6951 0.0000 0.0000 0.0000
# 2 68.7200 109.8861 35.6952 0.0000 0.0000 0.0000
# 3 35.6951 35.6952 91.9012 0.0000 0.0000 0.0000
# 4 0.0000 0.0000 0.0000 10.7397 0.0000 0.0000
# 5 0.0000 0.0000 0.0000 0.0000 10.7396 0.0000
# 6 0.0000 0.0000 0.0000 0.0000 0.0000 38.4336
#
#
#
# Elastic Compliance Matrix: (Units=1/GPa)
#
#
# Indices 1 2 3 4 5 6 
#
# 1 0.015460 -0.008832 -0.002574 0.000000 0.000000 0.000000
# 2 -0.008832 0.015460 -0.002574 0.000000 0.000000 0.000000
# 3 -0.002574 -0.002574 0.012881 0.000000 0.000000 0.000000
# 4 0.000000 0.000000 0.000000 0.093112 0.000000 0.000000
# 5 0.000000 0.000000 0.000000 0.000000 0.093113 0.000000
# 6 0.000000 0.000000 0.000000 0.000000 0.000000 0.026019
#
#
# Mechanical properties :
#
#
# Convention : Reuss Voigt Hill
#
# Bulk Modulus (GPa) = 63.13331 65.76608 64.44969
# Shear Modulus (GPa) = 17.28394 23.42018 20.35206
#
# Velocity S-wave (km/s) = 2.99135 3.48210 3.24601
# Velocity P-wave (km/s) = 6.67952 7.08624 6.88588
#
# Compressibility (1/GPa) = 0.01583950
#
# Stress axis : x y z
#
# Youngs Moduli (GPa) = 64.68436 64.68384 77.63356
#
# Poissons Ratio (x) = 0.57128 0.19985
# Poissons Ratio (y) = 0.57128 0.19986
# Poissons Ratio (z) = 0.16652 0.16652
#
# Static dielectric constant tensor:
#      x y z
#    x 1.677410 0.000000 0.000000 
#    y 0.000000 1.677410 0.000000 
#    z 0.000000 0.000000 1.683420 
# 
# From -- ./inp_files/810.got.cif
#   From: 2010.05.17/outbox.cif.g08.bks.cpg/sg113_cif.got.tgz:810.got - 2010.05.20 11:03:00.
