data_PCOD9555964
_publ_section_title
;
Structure prediction by ZEFSAII (Michael W. Deem and Ramdas Pophale) SiO2 
 PCOD9555964
Probable space group: P -4 21 C
;
_chemical_formula_sum "Si O2"
_cell_formula_units_Z 34
_cell_length_a 8.434737
_cell_length_b 8.434737
_cell_length_c 24.771861
_cell_angle_alpha 90.000000
_cell_angle_beta 90.000000
_cell_angle_gamma 90.000000
_cell_volume 1762.388806
_symmetry_space_group_name_H-M "P -4 21 C"
_symmetry_group_IT_number 114
_symmetry_cell_setting 'tetragonal'
loop_
_space_group_symop_operation_xyz
x,y,z
y,-x,-z
-x,-y,z
-y,x,-z
1/2+x,1/2-y,1/2-z
1/2-x,1/2+y,1/2-z
1/2-y,1/2-x,1/2+z
1/2+y,1/2+x,1/2+z
loop_
_atom_site_type_symbol
_atom_site_label
_atom_site_fract_x
_atom_site_fract_y
_atom_site_fract_z
Si Si1 0.863858 0.683305 0.680512
Si Si2 0.500000 0.500000 0.000000
Si Si3 0.848930 0.907272 0.868765
Si Si4 0.316565 0.051309 0.429275
Si Si5 0.962130 0.328476 0.792473
O O1 0.767916 0.523820 0.664558
O O2 0.722623 0.797561 0.698863
O O3 0.956208 0.722772 0.625964
O O4 0.984055 0.676063 0.730298
O O5 0.482508 0.332303 0.967885
O O6 0.736532 0.827037 0.912902
O O7 0.931649 0.793189 0.825879
O O8 0.000000 0.000000 0.893496
O O9 0.500000 0.000000 0.445318
O O10 0.000000 0.500000 0.814674
#
# Coordination Sequence:
#
# PCOD9555964 Si02
#       5
#     8   2   8   8   8
#     4  10  20  37  58  86 136 171 208 267 323 395
#     4  12  28  48  76 104 124 180 240 300 344 394
#     4   9  20  39  62  89 131 174 209 263 337 402
#     4  10  23  48  66  92 134 168 218 290 338 394
#     4  11  20  31  57  98 125 173 215 251 327 410
#
# _framework density 19.291996999999999
#
# number of rings (size 3 to 8) (size 9 to 14) (size 15 to 20)
#    0.000    1.882    0.000    4.941    3.294    0.000 
#   19.059    0.000    0.000    0.000    0.000    0.000 
#    0.000    0.000    0.000    0.000    0.000    0.000 
#
# Total GULP energy -189544.150095 kJ/mol
# GULP energy per Si atom -5574.827944 kJ/mol
# Density = 1.924809 g / cm^3
# Si number density = 19.291997 Si / 1000 Ang^3
#
#
#
# Elastic Constant Matrix: (Units=GPa)
#
#
# Indices 1 2 3 4 5 6 
#
# 1 117.4007 57.4598 64.7867 0.0000 0.0000 0.0000
# 2 57.4598 117.4007 64.7867 0.0000 0.0000 0.0000
# 3 64.7867 64.7867 73.8924 0.0000 0.0000 0.0000
# 4 0.0000 0.0000 0.0000 25.3683 0.0000 0.0000
# 5 0.0000 0.0000 0.0000 0.0000 25.3683 0.0000
# 6 0.0000 0.0000 0.0000 0.0000 0.0000 33.3868
#
#
#
# Elastic Compliance Matrix: (Units=1/GPa)
#
#
# Indices 1 2 3 4 5 6 
#
# 1 0.016504 -0.000179 -0.014314 0.000000 0.000000 0.000000
# 2 -0.000179 0.016504 -0.014314 0.000000 0.000000 0.000000
# 3 -0.014314 -0.014314 0.038633 0.000000 0.000000 0.000000
# 4 0.000000 0.000000 0.000000 0.039419 0.000000 0.000000
# 5 0.000000 0.000000 0.000000 0.000000 0.039419 0.000000
# 6 0.000000 0.000000 0.000000 0.000000 0.000000 0.029952
#
#
# Mechanical properties :
#
#
# Convention : Reuss Voigt Hill
#
# Bulk Modulus (GPa) = 71.28091 75.86227 73.57159
# Shear Modulus (GPa) = 20.59985 24.93537 22.76761
#
# Velocity S-wave (km/s) = 3.27125 3.59907 3.43907
# Velocity P-wave (km/s) = 7.16218 7.52859 7.34767
#
# Compressibility (1/GPa) = 0.01402900
#
# Stress axis : x y z
#
# Youngs Moduli (GPa) = 60.59055 60.59055 25.88483
#
# Poissons Ratio (x) = 0.01084 0.37051
# Poissons Ratio (y) = 0.01084 0.37051
# Poissons Ratio (z) = 0.86727 0.86727
#
# Static dielectric constant tensor:
#      x y z
#    x 1.723590 0.000000 0.000000 
#    y 0.000000 1.723590 0.000000 
#    z 0.000000 0.000000 1.648190 
# 
# From -- ./inp_files/2922.got.cif
#   From: 2010.05.17/outbox.cif.g08.bks.cpg/sg114_2_cif.got.tgz:2922.got - 2010.05.20 11:04:54.
