data_PCOD9555570
_publ_section_title
;
Structure prediction by ZEFSAII (Michael W. Deem and Ramdas Pophale) SiO2 
 PCOD9555570
Probable space group: P -4 21 M 
;
_chemical_formula_sum "Si O2"
_cell_formula_units_Z 34
_cell_length_a 13.900028
_cell_length_b 13.900028
_cell_length_c 6.997652
_cell_angle_alpha 90.000000
_cell_angle_beta 90.000000
_cell_angle_gamma 90.000000
_cell_volume 1352.021790
_symmetry_space_group_name_H-M "P -4 21 M "
_symmetry_group_IT_number 113
_symmetry_cell_setting 'tetragonal'
loop_
_space_group_symop_operation_xyz
x,y,z
y,-x,-z
-x,-y,z
-y,x,-z
1/2+x,1/2-y,-z
1/2-x,1/2+y,-z
1/2-y,1/2-x,z
1/2+y,1/2+x,z
loop_
_atom_site_type_symbol
_atom_site_label
_atom_site_fract_x
_atom_site_fract_y
_atom_site_fract_z
Si Si1 0.203068 0.445457 0.504118
Si Si2 0.093948 0.254357 0.077146
Si Si3 0.000000 0.000000 0.500000
Si Si4 0.740152 0.393971 0.950333
Si Si5 0.612492 0.680018 0.611463
O O1 0.101419 0.398582 0.572578
O O2 0.199294 0.442985 0.272314
O O3 0.286250 0.367114 0.553157
O O4 0.244449 0.555200 0.527560
O O5 0.178296 0.321705 0.000596
O O6 0.007870 0.246262 0.929017
O O7 0.144168 0.154201 0.131343
O O8 0.959067 0.088509 0.378842
O O9 0.833727 0.333727 0.893233
O O10 0.724039 0.378284 0.178639
#
# Coordination Sequence:
#
# PCOD9555570 Si02
#       5
#     8   8   2   8   8
#     4   9  17  31  48  67  96 127 154 190 236 282
#     4   9  20  35  50  71  98 129 162 199 246 290
#     4   8  16  28  44  70 100 124 152 194 244 284
#     4  10  20  33  50  73  98 126 164 203 239 287
#     4   9  17  29  48  72  95 122 159 196 234 280
#
# _framework density 25.147523
#
# number of rings (size 3 to 8) (size 9 to 14) (size 15 to 20)
#    0.000    2.824    0.000    0.706    0.000    8.471 
#    0.000    0.000    0.000    2.118    0.000    3.294 
#    0.000    7.529    0.000    0.000    0.000    0.000 
#
# Total GULP energy -189788.722331 kJ/mol
# GULP energy per Si atom -5582.021245 kJ/mol
# Density = 2.509029 g / cm^3
# Si number density = 25.147523 Si / 1000 Ang^3
#
#
#
# Elastic Constant Matrix: (Units=GPa)
#
#
# Indices 1 2 3 4 5 6 
#
# 1 98.1563 47.2920 -6.2099 0.0000 0.0000 0.0000
# 2 47.2920 98.1559 -6.2093 0.0000 0.0000 0.0000
# 3 -6.2099 -6.2093 52.0973 0.0000 0.0000 0.0000
# 4 0.0000 0.0000 0.0000 27.4894 0.0000 0.0000
# 5 0.0000 0.0000 0.0000 0.0000 27.4891 0.0000
# 6 0.0000 0.0000 0.0000 0.0000 0.0000 32.4225
#
#
#
# Elastic Compliance Matrix: (Units=1/GPa)
#
#
# Indices 1 2 3 4 5 6 
#
# 1 0.013303 -0.006357 0.000828 0.000000 0.000000 0.000000
# 2 -0.006357 0.013303 0.000828 0.000000 0.000000 0.000000
# 3 0.000828 0.000828 0.019392 0.000000 0.000000 0.000000
# 4 0.000000 0.000000 0.000000 0.036378 0.000000 0.000000
# 5 0.000000 0.000000 0.000000 0.000000 0.036378 0.000000
# 6 0.000000 0.000000 0.000000 0.000000 0.000000 0.030843
#
#
# Mechanical properties :
#
#
# Convention : Reuss Voigt Hill
#
# Bulk Modulus (GPa) = 27.32552 35.35058 31.33805
# Shear Modulus (GPa) = 29.20593 31.71598 30.46095
#
# Velocity S-wave (km/s) = 3.41161 3.55519 3.48414
# Velocity P-wave (km/s) = 5.13891 5.56240 5.35484
#
# Compressibility (1/GPa) = 0.03659583
#
# Stress axis : x y z
#
# Youngs Moduli (GPa) = 75.17042 75.17022 51.56707
#
# Poissons Ratio (x) = 0.47787 -0.04270
# Poissons Ratio (y) = 0.47787 -0.04269
# Poissons Ratio (z) = -0.06224 -0.06223
#
# Static dielectric constant tensor:
#      x y z
#    x 2.017590 0.000000 0.000000 
#    y 0.000000 2.017600 0.000000 
#    z 0.000000 0.000000 2.057130 
# 
# From -- ./inp_files/932.got.cif
#   From: 2010.05.17/outbox.cif.g08.bks.cpg/sg113_cif.got.tgz:932.got - 2010.05.20 11:03:00.
