data_PCOD9555056
_publ_section_title
;
Structure prediction by ZEFSAII (Michael W. Deem and Ramdas Pophale) SiO2 
 PCOD9555056
Probable space group: P -4 2 C
;
_chemical_formula_sum "Si O2"
_cell_formula_units_Z 40
_cell_length_a 8.482463
_cell_length_b 8.482463
_cell_length_c 28.157054
_cell_angle_alpha 90.000000
_cell_angle_beta 90.000000
_cell_angle_gamma 90.000000
_cell_volume 2025.961377
_symmetry_space_group_name_H-M "P -4 2 C"
_symmetry_group_IT_number 112
_symmetry_cell_setting 'tetragonal'
loop_
_space_group_symop_operation_xyz
x,y,z
y,-x,-z
-x,-y,z
-y,x,-z
x,-y,1/2-z
-x,y,1/2-z
-y,-x,1/2+z
y,x,1/2+z
loop_
_atom_site_type_symbol
_atom_site_label
_atom_site_fract_x
_atom_site_fract_y
_atom_site_fract_z
Si Si1 0.692689 0.234214 0.046940
Si Si2 0.926212 0.172217 0.634552
Si Si3 0.181063 0.438013 0.800857
Si Si4 0.832612 0.434296 0.451443
Si Si5 0.771375 0.383191 0.889987
O O1 0.818916 0.179628 0.086700
O O2 0.726212 0.415553 0.034562
O O3 0.523217 0.210932 0.071982
O O4 0.681245 0.146364 0.996667
O O5 0.837708 0.257565 0.679371
O O6 0.068274 0.289790 0.620256
O O7 0.000000 0.000000 0.644070
O O8 0.241317 0.500000 0.750000
O O9 0.274728 0.529512 0.841695
O O10 0.000000 0.500000 0.801490
O O11 0.742337 0.349753 0.409439
O O12 0.000000 0.500000 0.436902
#
# Coordination Sequence:
#
# PCOD9555056 Si02
#       5
#     8   8   8   8   8
#     4  11  22  37  55  78 116 160 205 240 298 369
#     4  10  20  37  58  88 121 152 194 259 312 356
#     4   8  16  34  60  86 115 152 197 246 311 382
#     4  12  23  36  54  82 112 158 205 247 297 362
#     4  10  20  36  57  81 115 153 197 250 298 361
#
# _framework density 19.743713
#
# number of rings (size 3 to 8) (size 9 to 14) (size 15 to 20)
#    0.000    1.800    2.000    4.800    0.000    0.000 
#    0.000    8.000    0.000    9.600    0.000    5.600 
#    0.000    0.000    0.000    0.000    0.000    0.000 
#
# Total GULP energy -222925.675143 kJ/mol
# GULP energy per Si atom -5573.141879 kJ/mol
# Density = 1.969878 g / cm^3
# Si number density = 19.743713 Si / 1000 Ang^3
#
#
#
# Elastic Constant Matrix: (Units=GPa)
#
#
# Indices 1 2 3 4 5 6 
#
# 1 55.7581 26.1239 43.3850 0.0000 0.0000 0.0000
# 2 26.1239 55.7581 43.3850 0.0000 0.0000 0.0000
# 3 43.3850 43.3850 141.5921 0.0000 0.0000 0.0000
# 4 0.0000 0.0000 0.0000 14.1635 0.0000 0.0000
# 5 0.0000 0.0000 0.0000 0.0000 14.1635 0.0000
# 6 0.0000 0.0000 0.0000 0.0000 0.0000 38.1509
#
#
#
# Elastic Compliance Matrix: (Units=1/GPa)
#
#
# Indices 1 2 3 4 5 6 
#
# 1 0.025915 -0.007830 -0.005541 0.000000 0.000000 0.000000
# 2 -0.007830 0.025915 -0.005541 0.000000 0.000000 0.000000
# 3 -0.005541 -0.005541 0.010458 0.000000 0.000000 0.000000
# 4 0.000000 0.000000 0.000000 0.070604 0.000000 0.000000
# 5 0.000000 0.000000 0.000000 0.000000 0.070604 0.000000
# 6 0.000000 0.000000 0.000000 0.000000 0.000000 0.026212
#
#
# Mechanical properties :
#
#
# Convention : Reuss Voigt Hill
#
# Bulk Modulus (GPa) = 40.87863 53.21068 47.04465
# Shear Modulus (GPa) = 18.13648 22.64320 20.38984
#
# Velocity S-wave (km/s) = 3.03412 3.39020 3.21709
# Velocity P-wave (km/s) = 5.74666 6.50644 6.13832
#
# Compressibility (1/GPa) = 0.02446266
#
# Stress axis : x y z
#
# Youngs Moduli (GPa) = 38.58792 38.58792 95.61717
#
# Poissons Ratio (x) = 0.30214 0.52985
# Poissons Ratio (y) = 0.30214 0.52985
# Poissons Ratio (z) = 0.21383 0.21383
#
# Static dielectric constant tensor:
#      x y z
#    x 1.733820 0.000000 0.000000 
#    y 0.000000 1.733820 0.000000 
#    z 0.000000 0.000000 1.746790 
# 
# From -- ./inp_files/5820.got.cif
#   From: 2010.05.17/outbox.cif.g08.bks.cpg/sg112_3_cif.got.tgz:5820.got - 2010.05.20 10:59:04.
