data_PCOD9555815
_publ_section_title
;
Structure prediction by ZEFSAII (Michael W. Deem and Ramdas Pophale) SiO2 
 PCOD9555815
Probable space group: P -4 21 C
;
_chemical_formula_sum "Si O2"
_cell_formula_units_Z 64
_cell_length_a 26.108326
_cell_length_b 26.108326
_cell_length_c 5.224106
_cell_angle_alpha 90.000000
_cell_angle_beta 90.000000
_cell_angle_gamma 90.000000
_cell_volume 3560.984097
_symmetry_space_group_name_H-M "P -4 21 C"
_symmetry_group_IT_number 114
_symmetry_cell_setting 'tetragonal'
loop_
_space_group_symop_operation_xyz
x,y,z
y,-x,-z
-x,-y,z
-y,x,-z
1/2+x,1/2-y,1/2-z
1/2-x,1/2+y,1/2-z
1/2-y,1/2-x,1/2+z
1/2+y,1/2+x,1/2+z
loop_
_atom_site_type_symbol
_atom_site_label
_atom_site_fract_x
_atom_site_fract_y
_atom_site_fract_z
Si Si1 0.226932 0.310834 0.774304
Si Si2 0.283477 0.503641 0.001456
Si Si3 0.664117 0.091311 0.878668
Si Si4 0.884446 0.814248 0.497854
Si Si5 0.844858 0.979562 0.999801
Si Si6 0.028275 0.319442 0.632770
Si Si7 0.623633 0.597494 0.500317
Si Si8 0.957229 0.570581 0.623516
O O1 0.211882 0.268588 0.987746
O O2 0.272413 0.343363 0.904297
O O3 0.182880 0.353339 0.713014
O O4 0.289818 0.441553 0.997075
O O5 0.320479 0.525437 0.219386
O O6 0.225783 0.512134 0.100922
O O7 0.301453 0.521530 0.722153
O O8 0.678027 0.054366 0.645132
O O9 0.602969 0.088268 0.917723
O O10 0.690503 0.068753 0.135603
O O11 0.884360 0.857291 0.277969
O O12 0.879713 0.839422 0.778002
O O13 0.870060 0.036001 0.997137
O O14 0.884280 0.933888 0.951753
O O15 0.011078 0.378128 0.681156
O O16 0.968829 0.546320 0.352586
#
# Coordination Sequence:
#
# PCOD9555815 Si02
#       8
#     8   8   8   8   8   8   8   8
#     4  12  21  28  42  65  93 122 149 163 183 238
#     4  10  19  30  45  66  83 105 132 168 213 276
#     4  10  17  23  34  53  80 112 137 155 177 217
#     4  10  21  33  48  66  92 115 136 168 214 259
#     4  10  21  35  52  67  82 100 133 178 238 301
#     4  10  16  24  36  51  79 104 131 161 188 227
#     4  10  21  38  53  69  85 106 137 184 239 296
#     4   8  14  21  28  45  68 102 130 149 170 203
#
# _framework density 17.972562
#
# number of rings (size 3 to 8) (size 9 to 14) (size 15 to 20)
#    0.000    2.000    1.250    5.250    3.500    0.250 
#    0.000    0.000    0.000    4.500    0.000    0.000 
#    0.000    0.000    0.000    0.000    0.000    0.000 
#
# Total GULP energy -356399.585731 kJ/mol
# GULP energy per Si atom -5568.743527 kJ/mol
# Density = 1.793166 g / cm^3
# Si number density = 17.972562 Si / 1000 Ang^3
#
#
#
# Elastic Constant Matrix: (Units=GPa)
#
#
# Indices 1 2 3 4 5 6 
#
# 1 23.8639 45.2536 8.8451 0.0000 0.0000 0.0000
# 2 45.2536 23.8639 8.8451 0.0000 0.0000 0.0000
# 3 8.8451 8.8451 107.8545 0.0000 0.0000 0.0000
# 4 0.0000 0.0000 0.0000 -20.4577 0.0000 0.0000
# 5 0.0000 0.0000 0.0000 0.0000 -20.4577 0.0000
# 6 0.0000 0.0000 0.0000 0.0000 0.0000 15.5231
#
#
#
# Elastic Compliance Matrix: (Units=1/GPa)
#
#
# Indices 1 2 3 4 5 6 
#
# 1 -0.015987 0.030765 -0.001212 0.000000 0.000000 0.000000
# 2 0.030765 -0.015987 -0.001212 0.000000 0.000000 0.000000
# 3 -0.001212 -0.001212 0.009471 0.000000 0.000000 0.000000
# 4 0.000000 0.000000 0.000000 -0.048881 0.000000 0.000000
# 5 0.000000 0.000000 0.000000 0.000000 -0.048881 0.000000
# 6 0.000000 0.000000 0.000000 0.000000 0.000000 0.064420
#
#
# Mechanical properties :
#
#
# Convention : Reuss Voigt Hill
#
# Bulk Modulus (GPa) = 29.25748 31.27444 30.26596
# Shear Modulus (GPa) = -49.43933 1.09744 -24.17095
#
# Velocity S-wave (km/s) = -5.25052 0.78227 -3.67124
# Velocity P-wave (km/s) = 4.52139 4.27258 1.04595
#
# Compressibility (1/GPa) = 0.03417929
#
# Stress axis : x y z
#
# Youngs Moduli (GPa) = -62.55237 -62.55237 105.59068
#
# Poissons Ratio (x) = 1.92442 0.12797
# Poissons Ratio (y) = 1.92442 0.12797
# Poissons Ratio (z) = -0.07581 -0.07581
#
# Static dielectric constant tensor:
#      x y z
#    x 1.647980 0.000000 0.000000 
#    y 0.000000 1.647980 0.000000 
#    z 0.000000 0.000000 1.685970 
# 
# From -- ./inp_files/316.got.cif
#   From: 2010.05.17/outbox.cif.g08.bks.cpg/sg114_1_cif.got.tgz:316.got - 2010.05.20 11:04:54.
