data_PCOD9555948
_publ_section_title
;
Structure prediction by ZEFSAII (Michael W. Deem and Ramdas Pophale) SiO2 
 PCOD9555948
Probable space group: P -4 21 C
;
_chemical_formula_sum "Si O2"
_cell_formula_units_Z 48
_cell_length_a 16.114086
_cell_length_b 16.114086
_cell_length_c 8.194306
_cell_angle_alpha 90.000000
_cell_angle_beta 90.000000
_cell_angle_gamma 90.000000
_cell_volume 2127.764369
_symmetry_space_group_name_H-M "P -4 21 C"
_symmetry_group_IT_number 114
_symmetry_cell_setting 'tetragonal'
loop_
_space_group_symop_operation_xyz
x,y,z
y,-x,-z
-x,-y,z
-y,x,-z
1/2+x,1/2-y,1/2-z
1/2-x,1/2+y,1/2-z
1/2-y,1/2-x,1/2+z
1/2+y,1/2+x,1/2+z
loop_
_atom_site_type_symbol
_atom_site_label
_atom_site_fract_x
_atom_site_fract_y
_atom_site_fract_z
Si Si1 0.000000 0.500000 0.707071
Si Si2 0.721934 0.929935 0.568323
Si Si3 0.500000 0.500000 0.500000
Si Si4 0.104234 0.085331 0.748609
Si Si5 0.912867 0.657447 0.238967
Si Si6 0.827796 0.422223 0.305904
Si Si7 0.756994 0.580081 0.426845
Si Si8 0.500000 0.500000 0.000000
O O1 0.917434 0.542745 0.634385
O O2 0.962950 0.420193 0.798327
O O3 0.811298 0.926175 0.650999
O O4 0.668688 0.851185 0.633139
O O5 0.712222 0.925894 0.373452
O O6 0.684377 0.017868 0.630329
O O7 0.579032 0.482647 0.615016
O O8 0.102099 0.172098 0.840406
O O9 0.031915 0.074132 0.613988
O O10 0.830698 0.623279 0.323293
O O11 0.893783 0.730697 0.113365
O O12 0.772193 0.480538 0.419174
#
# Coordination Sequence:
#
# PCOD9555948 Si02
#       8
#     4   8   2   8   8   8   8   2
#     4   8  16  30  52  78 116 158 184 210 280 362
#     4  11  22  37  60  89 124 160 201 245 300 355
#     4  10  24  46  68  82 112 162 208 242 296 366
#     4  11  24  44  66  88 114 157 206 254 298 355
#     4  10  20  35  57  89 124 160 196 241 295 360
#     4  10  20  35  57  89 124 160 196 241 295 360
#     4  11  22  37  60  89 124 160 201 245 300 355
#     4  10  24  46  68  82 112 162 208 242 296 366
#
# _framework density 22.558890000000002
#
# number of rings (size 3 to 8) (size 9 to 14) (size 15 to 20)
#    0.000    1.667    0.000    6.000    0.000    6.667 
#    0.000    3.333    0.000    0.000    0.000    0.000 
#    0.000    0.000    0.000    0.000    0.000    0.000 
#
# Total GULP energy -268016.803297 kJ/mol
# GULP energy per Si atom -5583.683402 kJ/mol
# Density = 2.250754 g / cm^3
# Si number density = 22.558890 Si / 1000 Ang^3
#
#
#
# Elastic Constant Matrix: (Units=GPa)
#
#
# Indices 1 2 3 4 5 6 
#
# 1 43.9336 -3.6677 -13.5643 0.0000 0.0000 0.0000
# 2 -3.6677 43.9336 -13.5643 0.0000 0.0000 0.0000
# 3 -13.5643 -13.5643 60.0701 0.0000 0.0000 0.0000
# 4 0.0000 0.0000 0.0000 7.0737 0.0000 0.0000
# 5 0.0000 0.0000 0.0000 0.0000 7.0737 0.0000
# 6 0.0000 0.0000 0.0000 0.0000 0.0000 18.2193
#
#
#
# Elastic Compliance Matrix: (Units=1/GPa)
#
#
# Indices 1 2 3 4 5 6 
#
# 1 0.025149 0.004142 0.006614 0.000000 0.000000 0.000000
# 2 0.004142 0.025149 0.006614 0.000000 0.000000 0.000000
# 3 0.006614 0.006614 0.019634 0.000000 0.000000 0.000000
# 4 0.000000 0.000000 0.000000 0.141370 0.000000 0.000000
# 5 0.000000 0.000000 0.000000 0.000000 0.141370 0.000000
# 6 0.000000 0.000000 0.000000 0.000000 0.000000 0.054887
#
#
# Mechanical properties :
#
#
# Convention : Reuss Voigt Hill
#
# Bulk Modulus (GPa) = 9.55357 9.59388 9.57372
# Shear Modulus (GPa) = 12.26362 18.38891 15.32626
#
# Velocity S-wave (km/s) = 2.33411 2.85818 2.60934
# Velocity P-wave (km/s) = 3.39238 3.89286 3.65120
#
# Compressibility (1/GPa) = 0.10467291
#
# Stress axis : x y z
#
# Youngs Moduli (GPa) = 39.76233 39.76233 50.93140
#
# Poissons Ratio (x) = -0.16468 -0.33687
# Poissons Ratio (y) = -0.16468 -0.33687
# Poissons Ratio (z) = -0.26299 -0.26299
#
# Static dielectric constant tensor:
#      x y z
#    x 1.898780 0.000000 0.000000 
#    y 0.000000 1.898780 0.000000 
#    z 0.000000 0.000000 1.843110 
# 
# From -- ./inp_files/952.got.cif
#   From: 2010.05.17/outbox.cif.g08.bks.cpg/sg114_1_cif.got.tgz:952.got - 2010.05.20 11:04:54.
