data_PCOD9555381
_publ_section_title
;
Structure prediction by ZEFSAII (Michael W. Deem and Ramdas Pophale) SiO2 
 PCOD9555381
Probable space group: P -4 2 C
;
_chemical_formula_sum "Si O2"
_cell_formula_units_Z 40
_cell_length_a 9.005682
_cell_length_b 9.005682
_cell_length_c 21.760672
_cell_angle_alpha 90.000000
_cell_angle_beta 90.000000
_cell_angle_gamma 90.000000
_cell_volume 1764.840729
_symmetry_space_group_name_H-M "P -4 2 C"
_symmetry_group_IT_number 112
_symmetry_cell_setting 'tetragonal'
loop_
_space_group_symop_operation_xyz
x,y,z
y,-x,-z
-x,-y,z
-y,x,-z
x,-y,1/2-z
-x,y,1/2-z
-y,-x,1/2+z
y,x,1/2+z
loop_
_atom_site_type_symbol
_atom_site_label
_atom_site_fract_x
_atom_site_fract_y
_atom_site_fract_z
Si Si1 0.021484 0.322793 0.430642
Si Si2 0.584584 0.349806 0.421595
Si Si3 0.921527 0.162517 0.308134
Si Si4 0.810516 0.680361 0.967664
Si Si5 0.344890 0.658692 0.781215
O O1 0.943227 0.240315 0.373766
O O2 0.967832 0.285593 0.500681
O O3 0.000000 0.500000 0.423918
O O4 0.189782 0.263840 0.428567
O O5 0.500000 0.500000 0.437247
O O6 0.715194 0.335863 0.470044
O O7 0.472202 0.211978 0.430937
O O8 0.635839 0.375473 0.352860
O O9 0.754205 0.192707 0.285036
O O10 0.000000 0.240957 0.250000
O O11 0.000000 0.000000 0.312956
O O12 0.319636 0.500000 0.750000
O O13 0.500000 0.718443 0.750000
#
# Coordination Sequence:
#
# PCOD9555381 Si02
#       5
#     8   8   8   8   8
#     4  12  27  45  73 110 143 200 256 301 380 459
#     4  12  20  41  67 106 150 179 240 320 371 432
#     4  11  29  51  71 105 157 205 250 315 385 462
#     4  12  25  41  69 105 152 194 240 307 375 452
#     4  11  25  43  79 118 144 195 263 323 384 453
#
# _framework density 22.664936000000001
#
# number of rings (size 3 to 8) (size 9 to 14) (size 15 to 20)
#    0.000    0.400    8.000    0.000    8.400    0.000 
#    0.000    2.000    0.000    0.000    0.000    0.000 
#    0.000    0.000    0.000    0.000    0.000    0.000 
#
# Total GULP energy -223034.449632 kJ/mol
# GULP energy per Si atom -5575.861241 kJ/mol
# Density = 2.261335 g / cm^3
# Si number density = 22.664936 Si / 1000 Ang^3
#
#
#
# Elastic Constant Matrix: (Units=GPa)
#
#
# Indices 1 2 3 4 5 6 
#
# 1 86.9143 32.1521 15.1672 0.0000 0.0000 0.0000
# 2 32.1521 86.9143 15.1672 0.0000 0.0000 0.0000
# 3 15.1672 15.1672 111.1393 0.0000 0.0000 0.0000
# 4 0.0000 0.0000 0.0000 -12.1395 0.0000 0.0000
# 5 0.0000 0.0000 0.0000 0.0000 -12.1395 0.0000
# 6 0.0000 0.0000 0.0000 0.0000 0.0000 29.4042
#
#
#
# Elastic Compliance Matrix: (Units=1/GPa)
#
#
# Indices 1 2 3 4 5 6 
#
# 1 0.013481 -0.004780 -0.001187 0.000000 0.000000 0.000000
# 2 -0.004780 0.013481 -0.001187 0.000000 0.000000 0.000000
# 3 -0.001187 -0.001187 0.009322 0.000000 0.000000 0.000000
# 4 0.000000 0.000000 0.000000 -0.082376 0.000000 0.000000
# 5 0.000000 0.000000 0.000000 0.000000 -0.082376 0.000000
# 6 0.000000 0.000000 0.000000 0.000000 0.000000 0.034009
#
#
# Mechanical properties :
#
#
# Convention : Reuss Voigt Hill
#
# Bulk Modulus (GPa) = 45.50750 45.54900 45.52825
# Shear Modulus (GPa) = -68.65802 15.85714 -26.40044
#
# Velocity S-wave (km/s) = -5.50984 2.64793 -3.41664
# Velocity P-wave (km/s) = 4.51175 5.43038 2.13695
#
# Compressibility (1/GPa) = 0.02197440
#
# Stress axis : x y z
#
# Youngs Moduli (GPa) = 74.17854 74.17854 107.27517
#
# Poissons Ratio (x) = 0.35456 0.12738
# Poissons Ratio (y) = 0.35456 0.12738
# Poissons Ratio (z) = 0.08808 0.08808
#
# Static dielectric constant tensor:
#      x y z
#    x 2.104680 0.000000 0.000000 
#    y 0.000000 2.104680 0.000000 
#    z 0.000000 0.000000 1.834230 
# 
# From -- ./inp_files/5347.got.cif
#   From: 2010.05.17/outbox.cif.g08.bks.cpg/sg112_3_cif.got.tgz:5347.got - 2010.05.20 10:59:04.
