data_PCOD9555202
_publ_section_title
;
Structure prediction by ZEFSAII (Michael W. Deem and Ramdas Pophale) SiO2 
 PCOD9555202
Probable space group: P -4 2 C
;
_chemical_formula_sum "Si O2"
_cell_formula_units_Z 22
_cell_length_a 8.234139
_cell_length_b 8.234139
_cell_length_c 12.437815
_cell_angle_alpha 90.000000
_cell_angle_beta 90.000000
_cell_angle_gamma 90.000000
_cell_volume 843.296855
_symmetry_space_group_name_H-M "P -4 2 C"
_symmetry_group_IT_number 112
_symmetry_cell_setting 'tetragonal'
loop_
_space_group_symop_operation_xyz
x,y,z
y,-x,-z
-x,-y,z
-y,x,-z
x,-y,1/2-z
-x,y,1/2-z
-y,-x,1/2+z
y,x,1/2+z
loop_
_atom_site_type_symbol
_atom_site_label
_atom_site_fract_x
_atom_site_fract_y
_atom_site_fract_z
Si Si1 0.758497 0.858207 0.837067
Si Si2 0.449428 0.232878 0.013565
Si Si3 0.000000 0.000000 0.000000
Si Si4 0.500000 0.783038 0.250000
O O1 0.915190 0.873820 0.916880
O O2 0.721153 0.682337 0.783311
O O3 0.770971 0.000000 0.750000
O O4 0.615077 0.880951 0.921183
O O5 0.453993 0.156805 0.131319
O O6 0.319296 0.381939 0.016964
#
# Coordination Sequence:
#
# PCOD9555202 Si02
#       4
#     8   8   2   4
#     4  11  24  45  73 105 151 204 258 323 394 470
#     4   9  20  40  69 106 149 197 251 319 395 467
#     4  12  26  48  64  98 152 204 258 328 400 466
#     4  10  22  47  75 108 152 201 257 322 391 471
#
# _framework density 26.088087000000002
#
# number of rings (size 3 to 8) (size 9 to 14) (size 15 to 20)
#    0.000    1.818    0.000    2.727    0.000   11.636 
#    0.000   45.455    0.000    0.000    0.000    2.545 
#    0.000    0.000    0.000    0.000    0.000    0.000 
#
# Total GULP energy -122488.863316 kJ/mol
# GULP energy per Si atom -5567.675605 kJ/mol
# Density = 2.602871 g / cm^3
# Si number density = 26.088087 Si / 1000 Ang^3
#
#
#
# Elastic Constant Matrix: (Units=GPa)
#
#
# Indices 1 2 3 4 5 6 
#
# 1 73.4413 56.2830 62.9916 0.0000 0.0000 0.0000
# 2 56.2830 73.4413 62.9916 0.0000 0.0000 0.0000
# 3 62.9916 62.9916 263.0949 0.0000 0.0000 0.0000
# 4 0.0000 0.0000 0.0000 -208.2917 0.0000 0.0000
# 5 0.0000 0.0000 0.0000 0.0000 -208.2917 0.0000
# 6 0.0000 0.0000 0.0000 0.0000 0.0000 -7.8811
#
#
#
# Elastic Compliance Matrix: (Units=1/GPa)
#
#
# Indices 1 2 3 4 5 6 
#
# 1 0.034162 -0.024118 -0.002405 0.000000 0.000000 0.000000
# 2 -0.024118 0.034162 -0.002405 0.000000 0.000000 0.000000
# 3 -0.002405 -0.002405 0.004952 0.000000 0.000000 0.000000
# 4 0.000000 0.000000 0.000000 -0.004801 0.000000 0.000000
# 5 0.000000 0.000000 0.000000 0.000000 -0.004801 0.000000
# 6 0.000000 0.000000 0.000000 0.000000 0.000000 -0.126885
#
#
# Mechanical properties :
#
#
# Convention : Reuss Voigt Hill
#
# Bulk Modulus (GPa) = 64.84479 86.05665 75.45072
# Shear Modulus (GPa) = -23443.37776 -69.71217 -11756.54497
#
# Velocity S-wave (km/s) = -94.89861 -5.17493 -67.20315
# Velocity P-wave (km/s) = 109.46576 1.62724 77.41253
#
# Compressibility (1/GPa) = 0.01542144
#
# Stress axis : x y z
#
# Youngs Moduli (GPa) = 29.27189 29.27189 201.91983
#
# Poissons Ratio (x) = 0.70599 0.48558
# Poissons Ratio (y) = 0.70599 0.48558
# Poissons Ratio (z) = 0.07039 0.07039
#
# Static dielectric constant tensor:
#      x y z
#    x 3.722900 0.000000 0.000000 
#    y 0.000000 3.722900 0.000000 
#    z 0.000000 0.000000 1.981310 
# 
# From -- ./inp_files/2915.got.cif
#   From: 2010.05.17/outbox.cif.g08.bks.cpg/sg112_2_cif.got.tgz:2915.got - 2010.05.20 10:59:04.
