data_PCOD9555851
_publ_section_title
;
Structure prediction by ZEFSAII (Michael W. Deem and Ramdas Pophale) SiO2 
 PCOD9555851
Probable space group: P -4 21 C
;
_chemical_formula_sum "Si O2"
_cell_formula_units_Z 56
_cell_length_a 14.653746
_cell_length_b 14.653746
_cell_length_c 14.273601
_cell_angle_alpha 90.000000
_cell_angle_beta 90.000000
_cell_angle_gamma 90.000000
_cell_volume 3065.002770
_symmetry_space_group_name_H-M "P -4 21 C"
_symmetry_group_IT_number 114
_symmetry_cell_setting 'tetragonal'
loop_
_space_group_symop_operation_xyz
x,y,z
y,-x,-z
-x,-y,z
-y,x,-z
1/2+x,1/2-y,1/2-z
1/2-x,1/2+y,1/2-z
1/2-y,1/2-x,1/2+z
1/2+y,1/2+x,1/2+z
loop_
_atom_site_type_symbol
_atom_site_label
_atom_site_fract_x
_atom_site_fract_y
_atom_site_fract_z
Si Si1 0.599310 0.112193 0.417743
Si Si2 0.840203 0.438816 0.718040
Si Si3 0.879797 0.815690 0.080166
Si Si4 0.200867 0.502847 0.223536
Si Si5 0.329748 0.586891 0.593089
Si Si6 0.988701 0.101055 0.787477
Si Si7 0.586633 0.067997 0.636015
O O1 0.500952 0.112537 0.364418
O O2 0.638847 0.212142 0.392537
O O3 0.661670 0.035741 0.372532
O O4 0.597534 0.096688 0.528693
O O5 0.743387 0.409325 0.676307
O O6 0.838382 0.507721 0.807264
O O7 0.900295 0.349531 0.739055
O O8 0.986199 0.817494 0.049585
O O9 0.881983 0.891771 0.160983
O O10 0.818270 0.844565 0.992782
O O11 0.309229 0.500521 0.225546
O O12 0.157689 0.437579 0.303819
O O13 0.430221 0.598345 0.635770
O O14 0.000000 0.000000 0.743023
O O15 0.500000 0.000000 0.641329
#
# Coordination Sequence:
#
# PCOD9555851 Si02
#       7
#     8   8   8   8   8   8   8
#     4  10  19  34  57  85 116 146 182 235 289 348
#     4   9  20  33  54  88 118 144 183 228 286 357
#     4  10  19  31  53  86 110 139 185 233 283 331
#     4  10  20  35  54  83 116 151 187 228 289 340
#     4  10  18  33  55  84 114 139 179 236 288 330
#     4  10  21  34  53  78 110 147 189 239 278 326
#     4   9  17  32  54  84 117 148 174 221 290 350
#
# _framework density 18.270783000000002
#
# number of rings (size 3 to 8) (size 9 to 14) (size 15 to 20)
#    0.000    2.286    1.429    3.000    2.000    1.143 
#    0.000    2.857    0.000    0.000    0.000    0.000 
#    0.000    0.000    0.000    0.000    0.000    0.000 
#
# Total GULP energy -311844.220694 kJ/mol
# GULP energy per Si atom -5568.646798 kJ/mol
# Density = 1.822920 g / cm^3
# Si number density = 18.270783 Si / 1000 Ang^3
#
#
#
# Elastic Constant Matrix: (Units=GPa)
#
#
# Indices 1 2 3 4 5 6 
#
# 1 73.4043 5.2646 4.5990 0.0000 0.0000 0.0000
# 2 5.2646 73.4043 4.5990 0.0000 0.0000 0.0000
# 3 4.5990 4.5990 63.7308 0.0000 0.0000 0.0000
# 4 0.0000 0.0000 0.0000 14.8535 0.0000 0.0000
# 5 0.0000 0.0000 0.0000 0.0000 14.8535 0.0000
# 6 0.0000 0.0000 0.0000 0.0000 0.0000 11.3502
#
#
#
# Elastic Compliance Matrix: (Units=1/GPa)
#
#
# Indices 1 2 3 4 5 6 
#
# 1 0.013748 -0.000928 -0.000925 0.000000 0.000000 0.000000
# 2 -0.000928 0.013748 -0.000925 0.000000 0.000000 0.000000
# 3 -0.000925 -0.000925 0.015825 0.000000 0.000000 0.000000
# 4 0.000000 0.000000 0.000000 0.067324 0.000000 0.000000
# 5 0.000000 0.000000 0.000000 0.000000 0.067324 0.000000
# 6 0.000000 0.000000 0.000000 0.000000 0.000000 0.088104
#
#
# Mechanical properties :
#
#
# Convention : Reuss Voigt Hill
#
# Bulk Modulus (GPa) = 26.48066 26.60719 26.54393
# Shear Modulus (GPa) = 17.59224 21.28324 19.43774
#
# Velocity S-wave (km/s) = 3.10637 3.41673 3.26524
# Velocity P-wave (km/s) = 5.23364 5.49179 5.36427
#
# Compressibility (1/GPa) = 0.03776341
#
# Stress axis : x y z
#
# Youngs Moduli (GPa) = 72.73943 72.73943 63.19311
#
# Poissons Ratio (x) = 0.06750 0.05846
# Poissons Ratio (y) = 0.06750 0.05846
# Poissons Ratio (z) = 0.06729 0.06729
#
# Static dielectric constant tensor:
#      x y z
#    x 1.655190 0.000000 0.000000 
#    y 0.000000 1.655190 0.000000 
#    z 0.000000 0.000000 1.623680 
# 
# From -- ./inp_files/2265.got.cif
#   From: 2010.05.17/outbox.cif.g08.bks.cpg/sg114_2_cif.got.tgz:2265.got - 2010.05.20 11:04:54.
