data_PCOD9555984
_publ_section_title
;
Structure prediction by ZEFSAII (Michael W. Deem and Ramdas Pophale) SiO2 
 PCOD9555984
Probable space group: P -4 21 C
;
_chemical_formula_sum "Si O2"
_cell_formula_units_Z 48
_cell_length_a 8.713194
_cell_length_b 8.713194
_cell_length_c 29.230450
_cell_angle_alpha 90.000000
_cell_angle_beta 90.000000
_cell_angle_gamma 90.000000
_cell_volume 2219.168447
_symmetry_space_group_name_H-M "P -4 21 C"
_symmetry_group_IT_number 114
_symmetry_cell_setting 'tetragonal'
loop_
_space_group_symop_operation_xyz
x,y,z
y,-x,-z
-x,-y,z
-y,x,-z
1/2+x,1/2-y,1/2-z
1/2-x,1/2+y,1/2-z
1/2-y,1/2-x,1/2+z
1/2+y,1/2+x,1/2+z
loop_
_atom_site_type_symbol
_atom_site_label
_atom_site_fract_x
_atom_site_fract_y
_atom_site_fract_z
Si Si1 0.927333 0.660406 0.201578
Si Si2 0.653457 0.314769 0.491088
Si Si3 0.678821 0.987023 0.629290
Si Si4 0.151874 0.109085 0.441733
Si Si5 0.666979 0.163251 0.398472
Si Si6 0.334746 0.565848 0.779960
O O1 0.935320 0.666515 0.146672
O O2 0.748581 0.666068 0.214971
O O3 0.000000 0.500000 0.216636
O O4 0.014878 0.791229 0.229169
O O5 0.492837 0.306268 0.518237
O O6 0.793493 0.221787 0.515407
O O7 0.603057 0.244349 0.442892
O O8 0.769005 0.101472 0.596361
O O9 0.500000 0.000000 0.621646
O O10 0.745062 0.820847 0.615615
O O11 0.719095 0.005678 0.682751
O O12 0.277778 0.001250 0.417480
O O13 0.000000 0.000000 0.450580
O O14 0.500000 0.500000 0.792839
#
# Coordination Sequence:
#
# PCOD9555984 Si02
#       6
#     8   8   8   8   8   8
#     4  11  24  44  68 101 142 182 238 294 355 428
#     4  11  26  46  66  98 144 184 234 295 366 435
#     4  10  20  39  68 100 141 183 232 295 347 423
#     4  10  23  41  69 102 140 187 244 296 352 429
#     4  10  24  42  66 103 134 183 240 291 359 425
#     4  11  23  43  67 103 141 187 236 288 353 433
#
# _framework density 21.629722999999998
#
# number of rings (size 3 to 8) (size 9 to 14) (size 15 to 20)
#    0.000    1.500    0.000    5.000    7.000    1.333 
#    3.000    0.000    0.000    0.000    0.000    0.000 
#    0.000    0.000    0.000    0.000    0.000    0.000 
#
# Total GULP energy -268277.346576 kJ/mol
# GULP energy per Si atom -5589.111387 kJ/mol
# Density = 2.158049 g / cm^3
# Si number density = 21.629723 Si / 1000 Ang^3
#
#
#
# Elastic Constant Matrix: (Units=GPa)
#
#
# Indices 1 2 3 4 5 6 
#
# 1 94.7153 19.8784 41.1029 0.0000 0.0000 0.0000
# 2 19.8784 94.7153 41.1029 0.0000 0.0000 0.0000
# 3 41.1029 41.1029 109.0540 0.0000 0.0000 0.0000
# 4 0.0000 0.0000 0.0000 -58.9254 0.0000 0.0000
# 5 0.0000 0.0000 0.0000 0.0000 -58.9254 0.0000
# 6 0.0000 0.0000 0.0000 0.0000 0.0000 26.2416
#
#
#
# Elastic Compliance Matrix: (Units=1/GPa)
#
#
# Indices 1 2 3 4 5 6 
#
# 1 0.012661 -0.000701 -0.004508 0.000000 0.000000 0.000000
# 2 -0.000701 0.012661 -0.004508 0.000000 0.000000 0.000000
# 3 -0.004508 -0.004508 0.012568 0.000000 0.000000 0.000000
# 4 0.000000 0.000000 0.000000 -0.016971 0.000000 0.000000
# 5 0.000000 0.000000 0.000000 0.000000 -0.016971 0.000000
# 6 0.000000 0.000000 0.000000 0.000000 0.000000 0.038107
#
#
# Mechanical properties :
#
#
# Convention : Reuss Voigt Hill
#
# Bulk Modulus (GPa) = 54.18030 55.85036 55.01533
# Shear Modulus (GPa) = 73.91781 -5.22848 34.34467
#
# Velocity S-wave (km/s) = 5.85221 -1.55644 3.98910
# Velocity P-wave (km/s) = 8.41236 4.75890 6.83429
#
# Compressibility (1/GPa) = 0.01845689
#
# Stress axis : x y z
#
# Youngs Moduli (GPa) = 78.98057 78.98057 79.56808
#
# Poissons Ratio (x) = 0.05537 0.35868
# Poissons Ratio (y) = 0.05537 0.35868
# Poissons Ratio (z) = 0.35604 0.35604
#
# Static dielectric constant tensor:
#      x y z
#    x 1.834300 0.000000 0.000000 
#    y 0.000000 1.834300 0.000000 
#    z 0.000000 0.000000 1.809770 
# 
# From -- ./inp_files/3978.got.cif
#   From: 2010.05.17/outbox.cif.g08.bks.cpg/sg114_2_cif.got.tgz:3978.got - 2010.05.20 11:04:54.
