data_PCOD9555070
_publ_section_title
;
Structure prediction by ZEFSAII (Michael W. Deem and Ramdas Pophale) SiO2 
 PCOD9555070
Probable space group: P -4 2 C
;
_chemical_formula_sum "Si O2"
_cell_formula_units_Z 46
_cell_length_a 12.469893
_cell_length_b 12.469893
_cell_length_c 15.615591
_cell_angle_alpha 90.000000
_cell_angle_beta 90.000000
_cell_angle_gamma 90.000000
_cell_volume 2428.196783
_symmetry_space_group_name_H-M "P -4 2 C"
_symmetry_group_IT_number 112
_symmetry_cell_setting 'tetragonal'
loop_
_space_group_symop_operation_xyz
x,y,z
y,-x,-z
-x,-y,z
-y,x,-z
x,-y,1/2-z
-x,y,1/2-z
-y,-x,1/2+z
y,x,1/2+z
loop_
_atom_site_type_symbol
_atom_site_label
_atom_site_fract_x
_atom_site_fract_y
_atom_site_fract_z
Si Si1 0.368652 0.368136 0.618591
Si Si2 0.500000 0.000000 0.750000
Si Si3 0.825411 0.957558 0.490924
Si Si4 0.483569 0.149862 0.072440
Si Si5 0.500000 0.500000 0.000000
Si Si6 0.664363 0.033266 0.151891
Si Si7 0.500000 0.500000 0.250000
Si Si8 0.377546 0.879056 0.901580
O O1 0.263919 0.430300 0.586922
O O2 0.464430 0.398080 0.553849
O O3 0.417820 0.420759 0.702558
O O4 0.347718 0.242930 0.621034
O O5 0.426061 0.933069 0.816565
O O6 0.773888 0.943776 0.396958
O O7 0.727689 0.935681 0.557420
O O8 0.923316 0.874750 0.502394
O O9 0.583030 0.132047 0.137697
O O10 0.395146 0.062051 0.099556
O O11 0.532890 0.128553 0.978004
O O12 0.674576 0.000000 0.250000
#
# Coordination Sequence:
#
# PCOD9555070 Si02
#       8
#     8   2   8   8   2   8   2   8
#     4  11  21  40  60  92 130 171 205 258 319 384
#     4  12  26  44  64  96 138 160 226 272 324 424
#     4  10  22  45  66  90 127 168 221 270 329 390
#     4  10  20  37  67  88 130 164 220 254 323 386
#     4  10  20  38  60  90 124 166 216 242 296 390
#     4  10  21  38  63  97 121 161 213 272 315 380
#     4  10  26  34  56  98 140 162 206 270 316 378
#     4  11  23  42  66  93 126 183 212 270 331 393
#
# _framework density 18.944098
#
# number of rings (size 3 to 8) (size 9 to 14) (size 15 to 20)
#    0.000    1.565    1.739    4.696    2.435    0.000 
#    6.261    0.870    0.000    0.000    0.000    0.000 
#    0.000    0.000    0.000    0.000    0.000    0.000 
#
# Total GULP energy -256521.021465 kJ/mol
# GULP energy per Si atom -5576.543945 kJ/mol
# Density = 1.890098 g / cm^3
# Si number density = 18.944098 Si / 1000 Ang^3
#
#
#
# Elastic Constant Matrix: (Units=GPa)
#
#
# Indices 1 2 3 4 5 6 
#
# 1 113.3359 57.2768 61.0760 0.0000 0.0000 0.0000
# 2 57.2768 113.3359 61.0760 0.0000 0.0000 0.0000
# 3 61.0760 61.0760 131.0787 0.0000 0.0000 0.0000
# 4 0.0000 0.0000 0.0000 16.8307 0.0000 0.0000
# 5 0.0000 0.0000 0.0000 0.0000 16.8307 0.0000
# 6 0.0000 0.0000 0.0000 0.0000 0.0000 20.2022
#
#
#
# Elastic Compliance Matrix: (Units=1/GPa)
#
#
# Indices 1 2 3 4 5 6 
#
# 1 0.013317 -0.004521 -0.004098 0.000000 0.000000 0.000000
# 2 -0.004521 0.013317 -0.004098 0.000000 0.000000 0.000000
# 3 -0.004098 -0.004098 0.011448 0.000000 0.000000 0.000000
# 4 0.000000 0.000000 0.000000 0.059415 0.000000 0.000000
# 5 0.000000 0.000000 0.000000 0.000000 0.059415 0.000000
# 6 0.000000 0.000000 0.000000 0.000000 0.000000 0.049500
#
#
# Mechanical properties :
#
#
# Convention : Reuss Voigt Hill
#
# Bulk Modulus (GPa) = 79.07593 79.62310 79.34952
# Shear Modulus (GPa) = 21.18077 22.66082 21.92080
#
# Velocity S-wave (km/s) = 3.34738 3.46236 3.40535
# Velocity P-wave (km/s) = 7.53474 7.62271 7.57885
#
# Compressibility (1/GPa) = 0.01264607
#
# Stress axis : x y z
#
# Youngs Moduli (GPa) = 75.09291 75.09291 87.35071
#
# Poissons Ratio (x) = 0.33953 0.35798
# Poissons Ratio (y) = 0.33953 0.35798
# Poissons Ratio (z) = 0.30775 0.30775
#
# Static dielectric constant tensor:
#      x y z
#    x 1.581740 0.000000 0.000000 
#    y 0.000000 1.581740 0.000000 
#    z 0.000000 0.000000 1.680480 
# 
# From -- ./inp_files/4189.got.cif
#   From: 2010.05.17/outbox.cif.g08.bks.cpg/sg112_3_cif.got.tgz:4189.got - 2010.05.20 10:59:04.
