data_PCOD9555027
_publ_section_title
;
Structure prediction by ZEFSAII (Michael W. Deem and Ramdas Pophale) SiO2 
 PCOD9555027
Probable space group: P -4 2 C
;
_chemical_formula_sum "Si O2"
_cell_formula_units_Z 40
_cell_length_a 15.826937
_cell_length_b 15.826937
_cell_length_c 8.749508
_cell_angle_alpha 90.000000
_cell_angle_beta 90.000000
_cell_angle_gamma 90.000000
_cell_volume 2191.681187
_symmetry_space_group_name_H-M "P -4 2 C"
_symmetry_group_IT_number 112
_symmetry_cell_setting 'tetragonal'
loop_
_space_group_symop_operation_xyz
x,y,z
y,-x,-z
-x,-y,z
-y,x,-z
x,-y,1/2-z
-x,y,1/2-z
-y,-x,1/2+z
y,x,1/2+z
loop_
_atom_site_type_symbol
_atom_site_label
_atom_site_fract_x
_atom_site_fract_y
_atom_site_fract_z
Si Si1 0.641438 0.000000 0.250000
Si Si2 0.122858 0.042994 0.008203
Si Si3 0.000000 0.256107 0.250000
Si Si4 0.319793 0.820022 0.683153
Si Si5 0.500000 0.149123 0.750000
Si Si6 0.000000 0.500000 0.005684
Si Si7 0.746179 0.842442 0.158121
O O1 0.581896 0.003005 0.397808
O O2 0.696929 0.085007 0.249374
O O3 0.195964 0.013626 0.894708
O O4 0.165100 0.112829 0.114539
O O5 0.043370 0.085840 0.922878
O O6 0.085101 0.310008 0.247460
O O7 0.415017 0.796580 0.727515
O O8 0.244015 0.764792 0.753835
O O9 0.302379 0.825142 0.501490
O O10 0.503170 0.084371 0.892955
#
# Coordination Sequence:
#
# PCOD9555027 Si02
#       7
#     4   8   4   8   4   4   8
#     4  11  24  40  60  91 128 162 206 263 320 374
#     4  10  21  33  46  70 107 160 204 250 288 345
#     4  10  20  34  48  74 106 152 208 244 298 344
#     4  11  24  40  59  85 119 164 212 262 315 377
#     4  11  22  42  64  86 120 169 216 259 326 388
#     4  10  22  40  64  88 120 164 210 254 322 392
#     4  11  25  38  58  86 123 164 210 263 313 371
#
# _framework density 18.250830000000001
#
# number of rings (size 3 to 8) (size 9 to 14) (size 15 to 20)
#    0.000    1.400    4.000    1.200   11.200    1.600 
#    0.000    0.000    0.000    0.000    0.000    0.000 
#    0.000   12.000    0.000    0.000    0.000    0.000 
#
# Total GULP energy -223504.263125 kJ/mol
# GULP energy per Si atom -5587.606578 kJ/mol
# Density = 1.820929 g / cm^3
# Si number density = 18.250830 Si / 1000 Ang^3
#
#
#
# Elastic Constant Matrix: (Units=GPa)
#
#
# Indices 1 2 3 4 5 6 
#
# 1 113.6632 37.4528 30.1056 0.0000 0.0000 0.0000
# 2 37.4528 113.6632 30.1056 0.0000 0.0000 0.0000
# 3 30.1056 30.1056 71.1516 0.0000 0.0000 0.0000
# 4 0.0000 0.0000 0.0000 12.3566 0.0000 0.0000
# 5 0.0000 0.0000 0.0000 0.0000 12.3566 0.0000
# 6 0.0000 0.0000 0.0000 0.0000 0.0000 12.3764
#
#
#
# Elastic Compliance Matrix: (Units=1/GPa)
#
#
# Indices 1 2 3 4 5 6 
#
# 1 0.010540 -0.002581 -0.003368 0.000000 0.000000 0.000000
# 2 -0.002581 0.010540 -0.003368 0.000000 0.000000 0.000000
# 3 -0.003368 -0.003368 0.016904 0.000000 0.000000 0.000000
# 4 0.000000 0.000000 0.000000 0.080928 0.000000 0.000000
# 5 0.000000 0.000000 0.000000 0.000000 0.080928 0.000000
# 6 0.000000 0.000000 0.000000 0.000000 0.000000 0.080799
#
#
# Mechanical properties :
#
#
# Convention : Reuss Voigt Hill
#
# Bulk Modulus (GPa) = 51.67408 54.86732 53.27070
# Shear Modulus (GPa) = 16.35457 20.80551 18.58004
#
# Velocity S-wave (km/s) = 2.99674 3.38002 3.19413
# Velocity P-wave (km/s) = 6.35206 6.73505 6.54636
#
# Compressibility (1/GPa) = 0.01935206
#
# Stress axis : x y z
#
# Youngs Moduli (GPa) = 94.87281 94.87281 59.15623
#
# Poissons Ratio (x) = 0.24488 0.19922
# Poissons Ratio (y) = 0.24488 0.19922
# Poissons Ratio (z) = 0.31951 0.31951
#
# Static dielectric constant tensor:
#      x y z
#    x 1.640400 0.000000 0.000000 
#    y 0.000000 1.640400 0.000000 
#    z 0.000000 0.000000 1.671840 
# 
# From -- ./inp_files/1313.got.cif
#   From: 2010.05.17/outbox.cif.g08.bks.cpg/sg112_1_cif.got.tgz:1313.got - 2010.05.20 10:59:04.
