data_PCOD9555456
_publ_section_title
;
Structure prediction by ZEFSAII (Michael W. Deem and Ramdas Pophale) SiO2 
 PCOD9555456
Probable space group: P -4 21 M 
;
_chemical_formula_sum "Si O2"
_cell_formula_units_Z 48
_cell_length_a 14.526021
_cell_length_b 14.526021
_cell_length_c 12.987399
_cell_angle_alpha 90.000000
_cell_angle_beta 90.000000
_cell_angle_gamma 90.000000
_cell_volume 2740.409842
_symmetry_space_group_name_H-M "P -4 21 M "
_symmetry_group_IT_number 113
_symmetry_cell_setting 'tetragonal'
loop_
_space_group_symop_operation_xyz
x,y,z
y,-x,-z
-x,-y,z
-y,x,-z
1/2+x,1/2-y,-z
1/2-x,1/2+y,-z
1/2-y,1/2-x,z
1/2+y,1/2+x,z
loop_
_atom_site_type_symbol
_atom_site_label
_atom_site_fract_x
_atom_site_fract_y
_atom_site_fract_z
Si Si1 0.415809 0.763173 0.314444
Si Si2 0.595976 0.241702 0.069636
Si Si3 0.725367 0.375201 0.675199
Si Si4 0.890045 0.103299 0.482923
Si Si5 0.328960 0.562658 0.018740
Si Si6 0.579695 0.556719 0.178426
O O1 0.348856 0.848856 0.341849
O O2 0.405328 0.746759 0.192604
O O3 0.525365 0.775301 0.330792
O O4 0.391446 0.672773 0.381537
O O5 0.649673 0.149673 0.043765
O O6 0.655304 0.328625 0.026166
O O7 0.493038 0.241286 0.023136
O O8 0.796512 0.296512 0.704498
O O9 0.677749 0.356606 0.565604
O O10 0.640366 0.383369 0.754947
O O11 0.999627 0.119133 0.470970
O O12 0.350166 0.515713 0.128537
O O13 0.398051 0.535013 0.924447
O O14 0.500000 0.500000 0.235619
#
# Coordination Sequence:
#
# PCOD9555456 Si02
#       6
#     8   8   8   8   8   8
#     4  10  20  37  56  73 105 146 182 212 258 328
#     4  10  20  33  53  78 102 139 180 215 260 315
#     4  11  23  34  52  83 114 137 172 223 277 322
#     4   9  20  34  56  84 108 132 170 225 278 319
#     4  10  18  32  51  74 105 134 174 218 261 304
#     4  11  17  30  54  76 103 139 173 218 267 309
#
# _framework density 17.515629000000001
#
# number of rings (size 3 to 8) (size 9 to 14) (size 15 to 20)
#    0.000    1.833    5.000    0.500    7.000    3.000 
#    0.000    0.000    0.000    0.500    0.000    0.000 
#    0.000    0.000    0.000    0.000    0.000    0.000 
#
# Total GULP energy -267214.672343 kJ/mol
# GULP energy per Si atom -5566.972340 kJ/mol
# Density = 1.747576 g / cm^3
# Si number density = 17.515629 Si / 1000 Ang^3
#
#
#
# Elastic Constant Matrix: (Units=GPa)
#
#
# Indices 1 2 3 4 5 6 
#
# 1 48.7228 22.1410 16.0892 0.0000 0.0000 0.0000
# 2 22.1410 48.7228 16.0892 0.0000 0.0000 0.0000
# 3 16.0892 16.0892 45.8254 0.0000 0.0000 0.0000
# 4 0.0000 0.0000 0.0000 21.5844 0.0000 0.0000
# 5 0.0000 0.0000 0.0000 0.0000 21.5844 0.0000
# 6 0.0000 0.0000 0.0000 0.0000 0.0000 38.6402
#
#
#
# Elastic Compliance Matrix: (Units=1/GPa)
#
#
# Indices 1 2 3 4 5 6 
#
# 1 0.027204 -0.010416 -0.005894 0.000000 0.000000 0.000000
# 2 -0.010416 0.027204 -0.005894 0.000000 0.000000 0.000000
# 3 -0.005894 -0.005894 0.025961 0.000000 0.000000 0.000000
# 4 0.000000 0.000000 0.000000 0.046330 0.000000 0.000000
# 5 0.000000 0.000000 0.000000 0.000000 0.046330 0.000000
# 6 0.000000 0.000000 0.000000 0.000000 0.000000 0.025880
#
#
# Mechanical properties :
#
#
# Convention : Reuss Voigt Hill
#
# Bulk Modulus (GPa) = 27.80865 27.98996 27.89931
# Shear Modulus (GPa) = 19.58454 22.29190 20.93822
#
# Velocity S-wave (km/s) = 3.34745 3.57134 3.46121
# Velocity P-wave (km/s) = 5.55442 5.74636 5.65120
#
# Compressibility (1/GPa) = 0.03596003
#
# Stress axis : x y z
#
# Youngs Moduli (GPa) = 36.75944 36.75944 38.51956
#
# Poissons Ratio (x) = 0.38288 0.22704
# Poissons Ratio (y) = 0.38288 0.22704
# Poissons Ratio (z) = 0.21667 0.21667
#
# Static dielectric constant tensor:
#      x y z
#    x 1.633860 0.000000 0.000000 
#    y 0.000000 1.633860 0.000000 
#    z 0.000000 0.000000 1.619410 
# 
# From -- ./inp_files/1836.got.cif
#   From: 2010.05.17/outbox.cif.g08.bks.cpg/sg113_cif.got.tgz:1836.got - 2010.05.20 11:03:00.
