data_PCOD9555539
_publ_section_title
;
Structure prediction by ZEFSAII (Michael W. Deem and Ramdas Pophale) SiO2 
 PCOD9555539
Probable space group: P -4 21 M 
;
_chemical_formula_sum "Si O2"
_cell_formula_units_Z 48
_cell_length_a 12.244796
_cell_length_b 12.244796
_cell_length_c 17.362041
_cell_angle_alpha 90.000000
_cell_angle_beta 90.000000
_cell_angle_gamma 90.000000
_cell_volume 2603.178122
_symmetry_space_group_name_H-M "P -4 21 M "
_symmetry_group_IT_number 113
_symmetry_cell_setting 'tetragonal'
loop_
_space_group_symop_operation_xyz
x,y,z
y,-x,-z
-x,-y,z
-y,x,-z
1/2+x,1/2-y,-z
1/2-x,1/2+y,-z
1/2-y,1/2-x,z
1/2+y,1/2+x,z
loop_
_atom_site_type_symbol
_atom_site_label
_atom_site_fract_x
_atom_site_fract_y
_atom_site_fract_z
Si Si1 0.377966 0.297430 0.096720
Si Si2 0.156155 0.833329 0.323515
Si Si3 0.993628 0.321183 0.629159
Si Si4 0.333614 0.556912 0.489964
Si Si5 0.501218 0.368812 0.810175
Si Si6 0.187422 0.867136 0.073463
O O1 0.317016 0.182984 0.100682
O O2 0.338334 0.377245 0.164874
O O3 0.508187 0.287382 0.094969
O O4 0.344331 0.354725 0.016035
O O5 0.240335 0.740335 0.297764
O O6 0.223370 0.948511 0.322757
O O7 0.120224 0.811436 0.411196
O O8 0.049948 0.835004 0.270577
O O9 0.091602 0.408399 0.615290
O O10 0.892238 0.392238 0.661654
O O11 0.955482 0.264812 0.549661
O O12 0.435612 0.620911 0.528293
O O13 0.500000 0.500000 0.812485
O O14 0.415678 0.330957 0.875328
O O15 0.289334 0.789334 0.089183
#
# Coordination Sequence:
#
# PCOD9555539 Si02
#       6
#     8   8   8   8   8   8
#     4  10  20  36  58  85 113 145 188 230 276 330
#     4  10  20  34  54  81 108 144 181 220 277 337
#     4   9  18  33  53  78 107 139 179 229 279 324
#     4   9  18  31  54  76 106 140 186 227 268 322
#     4  10  21  34  58  79 111 145 186 225 275 328
#     4  10  19  35  59  83 111 147 186 230 276 328
#
# _framework density 18.438998999999999
#
# number of rings (size 3 to 8) (size 9 to 14) (size 15 to 20)
#    0.000    2.333    1.667    1.000    4.667    1.000 
#    0.000    4.167    0.000    7.000    0.000    0.000 
#    0.000    0.000    0.000    0.000    0.000    0.000 
#
# Total GULP energy -267600.859215 kJ/mol
# GULP energy per Si atom -5575.017900 kJ/mol
# Density = 1.839703 g / cm^3
# Si number density = 18.438999 Si / 1000 Ang^3
#
#
#
# Elastic Constant Matrix: (Units=GPa)
#
#
# Indices 1 2 3 4 5 6 
#
# 1 54.0651 18.9033 0.1794 0.0000 0.0000 0.0000
# 2 18.9033 54.0654 0.1793 0.0000 0.0000 0.0000
# 3 0.1794 0.1793 28.1106 0.0000 0.0000 0.0000
# 4 0.0000 0.0000 0.0000 17.5934 0.0000 0.0000
# 5 0.0000 0.0000 0.0000 0.0000 17.5935 0.0000
# 6 0.0000 0.0000 0.0000 0.0000 0.0000 19.0110
#
#
#
# Elastic Compliance Matrix: (Units=1/GPa)
#
#
# Indices 1 2 3 4 5 6 
#
# 1 0.021072 -0.007367 -0.000087 0.000000 0.000000 0.000000
# 2 -0.007367 0.021072 -0.000087 0.000000 0.000000 0.000000
# 3 -0.000087 -0.000087 0.035575 0.000000 0.000000 0.000000
# 4 0.000000 0.000000 0.000000 0.056839 0.000000 0.000000
# 5 0.000000 0.000000 0.000000 0.000000 0.056839 0.000000
# 6 0.000000 0.000000 0.000000 0.000000 0.000000 0.052601
#
#
# Mechanical properties :
#
#
# Convention : Reuss Voigt Hill
#
# Bulk Modulus (GPa) = 15.96550 19.41835 17.69193
# Shear Modulus (GPa) = 17.85953 18.63818 18.24885
#
# Velocity S-wave (km/s) = 3.11557 3.18276 3.14934
# Velocity P-wave (km/s) = 4.64970 4.90516 4.77914
#
# Compressibility (1/GPa) = 0.06263504
#
# Stress axis : x y z
#
# Youngs Moduli (GPa) = 47.45536 47.45557 28.10968
#
# Poissons Ratio (x) = 0.34963 0.00246
# Poissons Ratio (y) = 0.34962 0.00246
# Poissons Ratio (z) = 0.00415 0.00415
#
# Static dielectric constant tensor:
#      x y z
#    x 1.636940 0.000000 0.000000 
#    y 0.000000 1.636940 0.000000 
#    z 0.000000 0.000000 1.647410 
# 
# From -- ./inp_files/2465.got.cif
#   From: 2010.05.17/outbox.cif.g08.bks.cpg/sg113_cif.got.tgz:2465.got - 2010.05.20 11:03:00.
