data_PCOD9555544
_publ_section_title
;
Structure prediction by ZEFSAII (Michael W. Deem and Ramdas Pophale) SiO2 
 PCOD9555544
Probable space group: P -4 21 M 
;
_chemical_formula_sum "Si O2"
_cell_formula_units_Z 56
_cell_length_a 12.390159
_cell_length_b 12.390159
_cell_length_c 19.868096
_cell_angle_alpha 90.000000
_cell_angle_beta 90.000000
_cell_angle_gamma 90.000000
_cell_volume 3050.071421
_symmetry_space_group_name_H-M "P -4 21 M "
_symmetry_group_IT_number 113
_symmetry_cell_setting 'tetragonal'
loop_
_space_group_symop_operation_xyz
x,y,z
y,-x,-z
-x,-y,z
-y,x,-z
1/2+x,1/2-y,-z
1/2-x,1/2+y,-z
1/2-y,1/2-x,z
1/2+y,1/2+x,z
loop_
_atom_site_type_symbol
_atom_site_label
_atom_site_fract_x
_atom_site_fract_y
_atom_site_fract_z
Si Si1 0.370282 0.494638 0.334571
Si Si2 0.836850 0.156126 0.786389
Si Si3 0.371073 0.480328 0.083316
Si Si4 0.619830 0.293793 0.056500
Si Si5 0.495288 0.822442 0.178832
Si Si6 0.804922 0.873281 0.435858
Si Si7 0.802036 0.127500 0.415552
O O1 0.500000 0.500000 0.333070
O O2 0.333182 0.443034 0.264950
O O3 0.338115 0.407472 0.391306
O O4 0.338123 0.613989 0.357467
O O5 0.737650 0.237650 0.777029
O O6 0.838249 0.105274 0.860678
O O7 0.946740 0.228168 0.777980
O O8 0.500000 0.500000 0.088149
O O9 0.328095 0.601705 0.092183
O O10 0.334796 0.440071 0.010176
O O11 0.710751 0.210751 0.035477
O O12 0.542559 0.233657 0.109585
O O13 0.391888 0.891888 0.205015
O O14 0.589497 0.910504 0.166427
O O15 0.702356 0.797645 0.420808
O O16 0.836720 0.856404 0.513693
O O17 0.786071 0.998840 0.419193
O O18 0.690885 0.190885 0.408552
#
# Coordination Sequence:
#
# PCOD9555544 Si02
#       7
#     8   8   8   8   8   8   8
#     4  10  21  36  60  86 117 155 194 240 287 349
#     4  11  22  37  59  84 114 155 196 233 288 351
#     4  12  20  36  55  82 112 144 193 242 280 343
#     4  11  21  34  56  82 112 148 184 239 298 340
#     4   9  19  35  56  85 118 148 187 240 295 344
#     4  10  19  35  60  88 120 154 197 243 290 345
#     4  10  20  36  60  89 121 154 194 245 294 345
#
# _framework density 18.360226000000001
#
# number of rings (size 3 to 8) (size 9 to 14) (size 15 to 20)
#    0.000    1.571    4.286    1.286    0.000    2.000 
#    0.000    3.571    0.000    7.286    0.000    0.000 
#    0.000    0.000    0.000    0.000    0.000    0.000 
#
# Total GULP energy -312288.721205 kJ/mol
# GULP energy per Si atom -5576.584307 kJ/mol
# Density = 1.831844 g / cm^3
# Si number density = 18.360226 Si / 1000 Ang^3
#
#
#
# Elastic Constant Matrix: (Units=GPa)
#
#
# Indices 1 2 3 4 5 6 
#
# 1 72.0869 27.4975 4.0573 0.0000 0.0000 0.0000
# 2 27.4975 72.0886 4.0584 0.0000 0.0000 0.0000
# 3 4.0573 4.0584 23.0199 0.0000 0.0000 0.0000
# 4 0.0000 0.0000 0.0000 21.6610 0.0000 0.0000
# 5 0.0000 0.0000 0.0000 0.0000 21.6612 0.0000
# 6 0.0000 0.0000 0.0000 0.0000 0.0000 25.2890
#
#
#
# Elastic Compliance Matrix: (Units=1/GPa)
#
#
# Indices 1 2 3 4 5 6 
#
# 1 0.016307 -0.006119 -0.001795 0.000000 0.000000 0.000000
# 2 -0.006119 0.016307 -0.001796 0.000000 0.000000 0.000000
# 3 -0.001795 -0.001796 0.044074 0.000000 0.000000 0.000000
# 4 0.000000 0.000000 0.000000 0.046166 0.000000 0.000000
# 5 0.000000 0.000000 0.000000 0.000000 0.046165 0.000000
# 6 0.000000 0.000000 0.000000 0.000000 0.000000 0.039543
#
#
# Mechanical properties :
#
#
# Convention : Reuss Voigt Hill
#
# Bulk Modulus (GPa) = 17.46228 26.49130 21.97679
# Shear Modulus (GPa) = 20.23690 22.49438 21.36564
#
# Velocity S-wave (km/s) = 3.32356 3.50404 3.41499
# Velocity P-wave (km/s) = 4.92541 5.55257 5.24837
#
# Compressibility (1/GPa) = 0.05726629
#
# Stress axis : x y z
#
# Youngs Moduli (GPa) = 61.32200 61.32311 22.68918
#
# Poissons Ratio (x) = 0.37525 0.04074
# Poissons Ratio (y) = 0.37524 0.04076
# Poissons Ratio (z) = 0.11010 0.11016
#
# Static dielectric constant tensor:
#      x y z
#    x 1.647430 0.000000 0.000000 
#    y 0.000000 1.647430 0.000000 
#    z 0.000000 0.000000 1.650380 
# 
# From -- ./inp_files/2695.got.cif
#   From: 2010.05.17/outbox.cif.g08.bks.cpg/sg113_cif.got.tgz:2695.got - 2010.05.20 11:03:00.
