data_PCOD9555859
_publ_section_title
;
Structure prediction by ZEFSAII (Michael W. Deem and Ramdas Pophale) SiO2 
 PCOD9555859
Probable space group: P -4 21 C
;
_chemical_formula_sum "Si O2"
_cell_formula_units_Z 52
_cell_length_a 17.444278
_cell_length_b 17.444278
_cell_length_c 8.674050
_cell_angle_alpha 90.000000
_cell_angle_beta 90.000000
_cell_angle_gamma 90.000000
_cell_volume 2639.538005
_symmetry_space_group_name_H-M "P -4 21 C"
_symmetry_group_IT_number 114
_symmetry_cell_setting 'tetragonal'
loop_
_space_group_symop_operation_xyz
x,y,z
y,-x,-z
-x,-y,z
-y,x,-z
1/2+x,1/2-y,1/2-z
1/2-x,1/2+y,1/2-z
1/2-y,1/2-x,1/2+z
1/2+y,1/2+x,1/2+z
loop_
_atom_site_type_symbol
_atom_site_label
_atom_site_fract_x
_atom_site_fract_y
_atom_site_fract_z
Si Si1 0.413729 0.404946 0.992005
Si Si2 0.797193 0.988162 0.963089
Si Si3 0.845892 0.115826 0.178231
Si Si4 0.518455 0.127328 0.492545
Si Si5 0.821110 0.703454 0.985266
Si Si6 0.365598 0.702281 0.238295
Si Si7 0.000000 0.500000 0.753277
O O1 0.370046 0.380011 0.145911
O O2 0.396824 0.495913 0.979559
O O3 0.381303 0.362115 0.840625
O O4 0.838756 0.911221 0.914604
O O5 0.795213 0.051379 0.823420
O O6 0.840371 0.031413 0.102477
O O7 0.708320 0.975647 0.004571
O O8 0.761890 0.149565 0.147027
O O9 0.607571 0.149724 0.468891
O O10 0.491187 0.074839 0.352218
O O11 0.510130 0.074637 0.641729
O O12 0.756940 0.650853 0.908347
O O13 0.810049 0.762944 0.128320
#
# Coordination Sequence:
#
# PCOD9555859 Si02
#       7
#     8   8   8   8   8   8   4
#     4  11  23  36  58  90 125 158 204 250 304 362
#     4  10  22  39  62  87 126 156 213 243 320 363
#     4  10  22  38  62  89 119 164 197 262 293 378
#     4   9  19  35  57  89 113 154 196 252 298 359
#     4  10  21  38  67  83 123 157 213 244 311 373
#     4  10  20  39  59  91 114 165 202 255 297 375
#     4  10  18  34  62  84 120 150 204 250 306 352
#
# _framework density 19.700417999999999
#
# number of rings (size 3 to 8) (size 9 to 14) (size 15 to 20)
#    0.000    2.308    1.538    2.769    4.308    1.538 
#    0.000    4.615    3.385    0.000    0.000    0.000 
#    0.000    0.000    0.000    0.000    0.000    0.000 
#
# Total GULP energy -289721.347740 kJ/mol
# GULP energy per Si atom -5571.564380 kJ/mol
# Density = 1.965558 g / cm^3
# Si number density = 19.700418 Si / 1000 Ang^3
#
#
#
# Elastic Constant Matrix: (Units=GPa)
#
#
# Indices 1 2 3 4 5 6 
#
# 1 46.1353 6.2159 8.5297 0.0000 0.0000 0.0000
# 2 6.2159 46.1353 8.5297 0.0000 0.0000 0.0000
# 3 8.5297 8.5297 56.7157 0.0000 0.0000 0.0000
# 4 0.0000 0.0000 0.0000 29.3749 0.0000 0.0000
# 5 0.0000 0.0000 0.0000 0.0000 29.3749 0.0000
# 6 0.0000 0.0000 0.0000 0.0000 0.0000 22.7772
#
#
#
# Elastic Compliance Matrix: (Units=1/GPa)
#
#
# Indices 1 2 3 4 5 6 
#
# 1 0.022568 -0.002482 -0.003021 0.000000 0.000000 0.000000
# 2 -0.002482 0.022568 -0.003021 0.000000 0.000000 0.000000
# 3 -0.003021 -0.003021 0.018540 0.000000 0.000000 0.000000
# 4 0.000000 0.000000 0.000000 0.034043 0.000000 0.000000
# 5 0.000000 0.000000 0.000000 0.000000 0.034043 0.000000
# 6 0.000000 0.000000 0.000000 0.000000 0.000000 0.043904
#
#
# Mechanical properties :
#
#
# Convention : Reuss Voigt Hill
#
# Bulk Modulus (GPa) = 21.44570 21.72632 21.58601
# Shear Modulus (GPa) = 24.00884 24.68615 24.34750
#
# Velocity S-wave (km/s) = 3.49477 3.54372 3.51933
# Velocity P-wave (km/s) = 5.21480 5.27222 5.24359
#
# Compressibility (1/GPa) = 0.04662939
#
# Stress axis : x y z
#
# Youngs Moduli (GPa) = 44.30990 44.30990 53.93621
#
# Poissons Ratio (x) = 0.10998 0.16293
# Poissons Ratio (y) = 0.10998 0.16293
# Poissons Ratio (z) = 0.13385 0.13385
#
# Static dielectric constant tensor:
#      x y z
#    x 1.695570 0.000000 0.000000 
#    y 0.000000 1.695570 0.000000 
#    z 0.000000 0.000000 1.744170 
# 
# From -- ./inp_files/963.got.cif
#   From: 2010.05.17/outbox.cif.g08.bks.cpg/sg114_1_cif.got.tgz:963.got - 2010.05.20 11:04:54.
