data_PCOD9555515
_publ_section_title
;
Structure prediction by ZEFSAII (Michael W. Deem and Ramdas Pophale) SiO2 
 PCOD9555515
Probable space group: P -4 21 M 
;
_chemical_formula_sum "Si O2"
_cell_formula_units_Z 64
_cell_length_a 11.855957
_cell_length_b 11.855957
_cell_length_c 23.873328
_cell_angle_alpha 90.000000
_cell_angle_beta 90.000000
_cell_angle_gamma 90.000000
_cell_volume 3355.723706
_symmetry_space_group_name_H-M "P -4 21 M "
_symmetry_group_IT_number 113
_symmetry_cell_setting 'tetragonal'
loop_
_space_group_symop_operation_xyz
x,y,z
y,-x,-z
-x,-y,z
-y,x,-z
1/2+x,1/2-y,-z
1/2-x,1/2+y,-z
1/2-y,1/2-x,z
1/2+y,1/2+x,z
loop_
_atom_site_type_symbol
_atom_site_label
_atom_site_fract_x
_atom_site_fract_y
_atom_site_fract_z
Si Si1 0.100695 0.910474 0.236258
Si Si2 0.284877 0.601276 0.450452
Si Si3 0.253957 0.562556 0.063106
Si Si4 0.130801 0.961898 0.362615
Si Si5 0.814841 0.492042 0.830880
Si Si6 0.252604 0.437975 0.946278
Si Si7 0.150185 0.164458 0.427591
Si Si8 0.505943 0.186720 0.817768
O O1 0.139413 0.911791 0.301049
O O2 0.207092 0.957835 0.201440
O O3 0.046392 0.791119 0.217303
O O4 0.000000 0.000000 0.231010
O O5 0.166824 0.666824 0.450783
O O6 0.371489 0.664589 0.409178
O O7 0.333639 0.599928 0.513314
O O8 0.286091 0.475576 0.426349
O O9 0.148109 0.648109 0.056759
O O10 0.363819 0.639928 0.071934
O O11 0.229792 0.487932 0.117874
O O12 0.269644 0.495602 0.005810
O O13 0.186302 0.081106 0.377524
O O14 0.000000 0.000000 0.371490
O O15 0.909777 0.590224 0.829182
O O16 0.778110 0.478878 0.895706
O O17 0.877654 0.377654 0.811014
O O18 0.149260 0.350741 0.952211
O O19 0.232275 0.267726 0.429382
O O20 0.623018 0.123018 0.801420
O O21 0.410157 0.089844 0.816510
#
# Coordination Sequence:
#
# PCOD9555515 Si02
#       8
#     8   8   8   8   8   8   8   8
#     4  11  23  39  60  88 122 157 199 252 306 370
#     4  10  19  33  57  87 116 154 197 241 293 347
#     4  10  20  35  56  82 113 150 194 248 308 371
#     4   9  20  37  58  83 113 156 199 237 289 355
#     4  10  21  39  62  83 112 159 205 246 297 362
#     4  10  20  35  55  81 113 147 193 246 299 365
#     4  10  19  34  58  85 118 156 197 243 291 349
#     4  10  21  40  65  88 116 158 205 257 316 374
#
# _framework density 19.071891999999998
#
# number of rings (size 3 to 8) (size 9 to 14) (size 15 to 20)
#    0.000    2.000    2.500    1.125    0.000    4.750 
#    0.000    5.000    0.000    0.375    0.000    0.000 
#    0.000    0.000    0.000    0.000    0.000    0.000 
#
# Total GULP energy -356658.311548 kJ/mol
# GULP energy per Si atom -5572.786118 kJ/mol
# Density = 1.902848 g / cm^3
# Si number density = 19.071892 Si / 1000 Ang^3
#
#
#
# Elastic Constant Matrix: (Units=GPa)
#
#
# Indices 1 2 3 4 5 6 
#
# 1 74.6634 32.0874 31.9757 0.0000 0.0000 0.0000
# 2 32.0874 74.6629 31.9746 0.0000 0.0000 0.0000
# 3 31.9757 31.9746 81.0519 0.0000 0.0000 0.0000
# 4 0.0000 0.0000 0.0000 18.0183 0.0000 0.0000
# 5 0.0000 0.0000 0.0000 0.0000 18.0174 0.0000
# 6 0.0000 0.0000 0.0000 0.0000 0.0000 9.1262
#
#
#
# Elastic Compliance Matrix: (Units=1/GPa)
#
#
# Indices 1 2 3 4 5 6 
#
# 1 0.017877 -0.005610 -0.004839 0.000000 0.000000 0.000000
# 2 -0.005610 0.017877 -0.004839 0.000000 0.000000 0.000000
# 3 -0.004839 -0.004839 0.016156 0.000000 0.000000 0.000000
# 4 0.000000 0.000000 0.000000 0.055499 0.000000 0.000000
# 5 0.000000 0.000000 0.000000 0.000000 0.055502 0.000000
# 6 0.000000 0.000000 0.000000 0.000000 0.000000 0.109575
#
#
# Mechanical properties :
#
#
# Convention : Reuss Voigt Hill
#
# Bulk Modulus (GPa) = 46.87717 46.93928 46.90822
# Shear Modulus (GPa) = 16.11999 17.98844 17.05421
#
# Velocity S-wave (km/s) = 2.91042 3.07447 2.99357
# Velocity P-wave (km/s) = 5.99388 6.10478 6.04959
#
# Compressibility (1/GPa) = 0.02133235
#
# Stress axis : x y z
#
# Youngs Moduli (GPa) = 55.93744 55.93772 61.89683
#
# Poissons Ratio (x) = 0.31384 0.29954
# Poissons Ratio (y) = 0.31383 0.29952
# Poissons Ratio (z) = 0.27070 0.27068
#
# Static dielectric constant tensor:
#      x y z
#    x 1.676510 0.000000 0.000000 
#    y 0.000000 1.676510 0.000000 
#    z 0.000000 0.000000 1.678320 
# 
# From -- ./inp_files/2937.got.cif
#   From: 2010.05.17/outbox.cif.g08.bks.cpg/sg113_cif.got.tgz:2937.got - 2010.05.20 11:03:00.
