data_PCOD9555354
_publ_section_title
;
Structure prediction by ZEFSAII (Michael W. Deem and Ramdas Pophale) SiO2 
 PCOD9555354
Probable space group: P -4 2 C
;
_chemical_formula_sum "Si O2"
_cell_formula_units_Z 40
_cell_length_a 8.918525
_cell_length_b 8.918525
_cell_length_c 22.384783
_cell_angle_alpha 90.000000
_cell_angle_beta 90.000000
_cell_angle_gamma 90.000000
_cell_volume 1780.487614
_symmetry_space_group_name_H-M "P -4 2 C"
_symmetry_group_IT_number 112
_symmetry_cell_setting 'tetragonal'
loop_
_space_group_symop_operation_xyz
x,y,z
y,-x,-z
-x,-y,z
-y,x,-z
x,-y,1/2-z
-x,y,1/2-z
-y,-x,1/2+z
y,x,1/2+z
loop_
_atom_site_type_symbol
_atom_site_label
_atom_site_fract_x
_atom_site_fract_y
_atom_site_fract_z
Si Si1 0.172266 0.540734 0.681290
Si Si2 0.793615 0.330464 0.124775
Si Si3 0.819748 0.822828 0.000470
Si Si4 0.956827 0.833334 0.181047
Si Si5 0.323802 0.289892 0.622512
O O1 0.201939 0.500000 0.750000
O O2 0.213777 0.712362 0.669482
O O3 0.287178 0.462241 0.635346
O O4 0.000000 0.500000 0.667612
O O5 0.748168 0.502568 0.132754
O O6 0.964746 0.296736 0.142408
O O7 0.773820 0.273275 0.057468
O O8 0.762521 0.732546 0.057860
O O9 0.997826 0.798199 0.990737
O O10 0.785345 0.791134 0.170241
O O11 0.000000 0.824764 0.250000
O O12 0.000000 0.000000 0.158570
#
# Coordination Sequence:
#
# PCOD9555354 Si02
#       5
#     8   8   8   8   8
#     4  11  25  47  73 101 139 189 236 287 358 437
#     4  12  26  43  68 103 140 183 233 298 361 419
#     4  11  24  44  69  94 136 186 241 290 351 434
#     4  11  23  43  71 103 139 181 232 283 346 427
#     4  12  26  43  68 103 140 183 233 298 361 419
#
# _framework density 22.465754
#
# number of rings (size 3 to 8) (size 9 to 14) (size 15 to 20)
#    0.000    0.600    2.000    6.000    2.800    8.000 
#    0.000    0.000    0.000    0.000    0.000    0.000 
#    0.000    0.000    0.000    0.000    0.000    0.000 
#
# Total GULP energy -223714.775723 kJ/mol
# GULP energy per Si atom -5592.869393 kJ/mol
# Density = 2.241462 g / cm^3
# Si number density = 22.465754 Si / 1000 Ang^3
#
#
#
# Elastic Constant Matrix: (Units=GPa)
#
#
# Indices 1 2 3 4 5 6 
#
# 1 96.7982 26.7249 24.6542 0.0000 0.0000 0.0000
# 2 26.7249 96.7982 24.6542 0.0000 0.0000 0.0000
# 3 24.6542 24.6542 99.3446 0.0000 0.0000 0.0000
# 4 0.0000 0.0000 0.0000 30.3778 0.0000 0.0000
# 5 0.0000 0.0000 0.0000 0.0000 30.3778 0.0000
# 6 0.0000 0.0000 0.0000 0.0000 0.0000 40.5729
#
#
#
# Elastic Compliance Matrix: (Units=1/GPa)
#
#
# Indices 1 2 3 4 5 6 
#
# 1 0.011628 -0.002642 -0.002230 0.000000 0.000000 0.000000
# 2 -0.002642 0.011628 -0.002230 0.000000 0.000000 0.000000
# 3 -0.002230 -0.002230 0.011173 0.000000 0.000000 0.000000
# 4 0.000000 0.000000 0.000000 0.032919 0.000000 0.000000
# 5 0.000000 0.000000 0.000000 0.000000 0.032919 0.000000
# 6 0.000000 0.000000 0.000000 0.000000 0.000000 0.024647
#
#
# Mechanical properties :
#
#
# Convention : Reuss Voigt Hill
#
# Bulk Modulus (GPa) = 49.44508 49.44530 49.44519
# Shear Modulus (GPa) = 34.27936 34.72622 34.50279
#
# Velocity S-wave (km/s) = 3.91045 3.93586 3.92317
# Velocity P-wave (km/s) = 6.51504 6.53541 6.52523
#
# Compressibility (1/GPa) = 0.02022446
#
# Stress axis : x y z
#
# Youngs Moduli (GPa) = 85.99713 85.99713 89.50308
#
# Poissons Ratio (x) = 0.22724 0.19959
# Poissons Ratio (y) = 0.22724 0.19959
# Poissons Ratio (z) = 0.19177 0.19177
#
# Static dielectric constant tensor:
#      x y z
#    x 1.781360 0.000000 0.000000 
#    y 0.000000 1.781360 0.000000 
#    z 0.000000 0.000000 1.772170 
# 
# From -- ./inp_files/5309.got.cif
#   From: 2010.05.17/outbox.cif.g08.bks.cpg/sg112_3_cif.got.tgz:5309.got - 2010.05.20 10:59:04.
