data_PCOD9555391
_publ_section_title
;
Structure prediction by ZEFSAII (Michael W. Deem and Ramdas Pophale) SiO2 
 PCOD9555391
Probable space group: P -4 2 C
;
_chemical_formula_sum "Si O2"
_cell_formula_units_Z 18
_cell_length_a 8.727685
_cell_length_b 8.727685
_cell_length_c 9.128991
_cell_angle_alpha 90.000000
_cell_angle_beta 90.000000
_cell_angle_gamma 90.000000
_cell_volume 695.377934
_symmetry_space_group_name_H-M "P -4 2 C"
_symmetry_group_IT_number 112
_symmetry_cell_setting 'tetragonal'
loop_
_space_group_symop_operation_xyz
x,y,z
y,-x,-z
-x,-y,z
-y,x,-z
x,-y,1/2-z
-x,y,1/2-z
-y,-x,1/2+z
y,x,1/2+z
loop_
_atom_site_type_symbol
_atom_site_label
_atom_site_fract_x
_atom_site_fract_y
_atom_site_fract_z
Si Si1 0.745730 0.567368 0.491694
Si Si2 0.066651 0.806427 0.905636
Si Si3 0.500000 0.000000 0.750000
O O1 0.675457 0.403098 0.530694
O O2 0.844880 0.648762 0.615845
O O3 0.870907 0.571791 0.360307
O O4 0.000000 0.847793 0.750000
O O5 0.930158 0.815761 0.025255
#
# Coordination Sequence:
#
# PCOD9555391 Si02
#       3
#     8   8   2
#     4  11  28  54  87 125 165 233 295 364 442 526
#     4  11  25  48  84 125 175 232 295 360 440 530
#     4  12  28  58  86 118 192 222 270 374 444 530
#
# _framework density 25.885207000000001
#
# number of rings (size 3 to 8) (size 9 to 14) (size 15 to 20)
#    0.000    0.889    0.000    5.333   12.444    3.556 
#    8.000    4.444    0.000    0.000    0.000    0.000 
#    0.000    0.000    0.000    0.000    0.000    0.000 
#
# Total GULP energy -100435.932366 kJ/mol
# GULP energy per Si atom -5579.774020 kJ/mol
# Density = 2.582629 g / cm^3
# Si number density = 25.885207 Si / 1000 Ang^3
#
#
#
# Elastic Constant Matrix: (Units=GPa)
#
#
# Indices 1 2 3 4 5 6 
#
# 1 171.0232 123.0526 79.0872 0.0000 0.0000 0.0000
# 2 123.0526 171.0232 79.0872 0.0000 0.0000 0.0000
# 3 79.0872 79.0872 146.7626 0.0000 0.0000 0.0000
# 4 0.0000 0.0000 0.0000 -10.7854 0.0000 0.0000
# 5 0.0000 0.0000 0.0000 0.0000 -10.7854 0.0000
# 6 0.0000 0.0000 0.0000 0.0000 0.0000 14.8807
#
#
#
# Elastic Compliance Matrix: (Units=1/GPa)
#
#
# Indices 1 2 3 4 5 6 
#
# 1 0.012817 -0.008029 -0.002580 0.000000 0.000000 0.000000
# 2 -0.008029 0.012817 -0.002580 0.000000 0.000000 0.000000
# 3 -0.002580 -0.002580 0.009595 0.000000 0.000000 0.000000
# 4 0.000000 0.000000 0.000000 -0.092718 0.000000 0.000000
# 5 0.000000 0.000000 0.000000 0.000000 -0.092718 0.000000
# 6 0.000000 0.000000 0.000000 0.000000 0.000000 0.067201
#
#
# Mechanical properties :
#
#
# Convention : Reuss Voigt Hill
#
# Bulk Modulus (GPa) = 112.99358 116.80699 114.90028
# Shear Modulus (GPa) = -93.15235 12.50076 -40.32580
#
# Velocity S-wave (km/s) = -6.00540 2.19995 -3.95127
# Velocity P-wave (km/s) = 2.08324 7.18860 4.86498
#
# Compressibility (1/GPa) = 0.00885006
#
# Stress axis : x y z
#
# Youngs Moduli (GPa) = 78.01987 78.01987 104.22408
#
# Poissons Ratio (x) = 0.62641 0.26893
# Poissons Ratio (y) = 0.62641 0.26893
# Poissons Ratio (z) = 0.20132 0.20132
#
# Static dielectric constant tensor:
#      x y z
#    x 2.593220 0.000000 0.000000 
#    y 0.000000 2.593220 0.000000 
#    z 0.000000 0.000000 2.089680 
# 
# From -- ./inp_files/610.got.cif
#   From: 2010.05.17/outbox.cif.g08.bks.cpg/sg112_1_cif.got.tgz:610.got - 2010.05.20 10:59:04.
