data_PCOD9555439
_publ_section_title
;
Structure prediction by ZEFSAII (Michael W. Deem and Ramdas Pophale) SiO2 
 PCOD9555439
Probable space group: P -4 21 M 
;
_chemical_formula_sum "Si O2"
_cell_formula_units_Z 32
_cell_length_a 11.910524
_cell_length_b 11.910524
_cell_length_c 11.330681
_cell_angle_alpha 90.000000
_cell_angle_beta 90.000000
_cell_angle_gamma 90.000000
_cell_volume 1607.377001
_symmetry_space_group_name_H-M "P -4 21 M "
_symmetry_group_IT_number 113
_symmetry_cell_setting 'tetragonal'
loop_
_space_group_symop_operation_xyz
x,y,z
y,-x,-z
-x,-y,z
-y,x,-z
1/2+x,1/2-y,-z
1/2-x,1/2+y,-z
1/2-y,1/2-x,z
1/2+y,1/2+x,z
loop_
_atom_site_type_symbol
_atom_site_label
_atom_site_fract_x
_atom_site_fract_y
_atom_site_fract_z
Si Si1 0.094137 0.594137 0.591310
Si Si2 0.592126 0.092126 0.770376
Si Si3 0.159083 0.659083 0.858171
Si Si4 0.000000 0.000000 0.000000
Si Si5 0.344392 0.537100 0.559676
Si Si6 0.350941 0.411598 0.195591
Si Si7 0.500000 0.000000 0.994928
O O1 0.123444 0.623444 0.726518
O O2 0.212883 0.553059 0.542172
O O3 0.000000 0.500000 0.582015
O O4 0.568423 0.224833 0.753039
O O5 0.500000 0.000000 0.720751
O O6 0.575745 0.075745 0.910085
O O7 0.291571 0.643533 0.869959
O O8 0.081937 0.581937 0.937069
O O9 0.004441 0.102758 0.095179
O O10 0.411959 0.616773 0.469876
O O11 0.388688 0.572054 0.689286
#
# Coordination Sequence:
#
# PCOD9555439 Si02
#       7
#     4   4   4   2   8   8   2
#     4  10  21  37  62  97 122 160 216 256 304 381
#     4   9  21  38  62  85 126 163 198 261 307 362
#     4   9  18  35  59  84 128 158 199 251 298 366
#     4  12  20  32  62  88 120 164 204 258 288 396
#     4  10  22  42  64  84 127 170 206 265 317 364
#     4  10  21  38  59  91 123 161 206 252 312 360
#     4  10  16  32  60  88 124 168 200 236 310 370
#
# _framework density 19.908211999999999
#
# number of rings (size 3 to 8) (size 9 to 14) (size 15 to 20)
#    0.375    1.750    0.625    3.750    1.750    0.000 
#    2.250    0.000    0.000    0.000    0.000    0.000 
#    0.000    0.000    0.000    0.000    0.000    0.000 
#
# Total GULP energy -178188.295481 kJ/mol
# GULP energy per Si atom -5568.384234 kJ/mol
# Density = 1.986290 g / cm^3
# Si number density = 19.908212 Si / 1000 Ang^3
#
#
#
# Elastic Constant Matrix: (Units=GPa)
#
#
# Indices 1 2 3 4 5 6 
#
# 1 108.0557 40.3513 5.4649 0.0000 0.0000 0.0000
# 2 40.3513 108.0557 5.4649 0.0000 0.0000 0.0000
# 3 5.4649 5.4649 45.3514 0.0000 0.0000 0.0000
# 4 0.0000 0.0000 0.0000 29.2620 0.0000 0.0000
# 5 0.0000 0.0000 0.0000 0.0000 29.2620 0.0000
# 6 0.0000 0.0000 0.0000 0.0000 0.0000 25.3893
#
#
#
# Elastic Compliance Matrix: (Units=1/GPa)
#
#
# Indices 1 2 3 4 5 6 
#
# 1 0.010784 -0.003986 -0.000819 0.000000 0.000000 0.000000
# 2 -0.003986 0.010784 -0.000819 0.000000 0.000000 0.000000
# 3 -0.000819 -0.000819 0.022247 0.000000 0.000000 0.000000
# 4 0.000000 0.000000 0.000000 0.034174 0.000000 0.000000
# 5 0.000000 0.000000 0.000000 0.000000 0.034174 0.000000
# 6 0.000000 0.000000 0.000000 0.000000 0.000000 0.039387
#
#
# Mechanical properties :
#
#
# Convention : Reuss Voigt Hill
#
# Bulk Modulus (GPa) = 30.70532 40.44722 35.57627
# Shear Modulus (GPa) = 28.79270 30.79478 29.79374
#
# Velocity S-wave (km/s) = 3.80711 3.93725 3.87273
# Velocity P-wave (km/s) = 5.89766 6.40549 6.15681
#
# Compressibility (1/GPa) = 0.03256764
#
# Stress axis : x y z
#
# Youngs Moduli (GPa) = 92.72714 92.72714 44.94897
#
# Poissons Ratio (x) = 0.36959 0.03682
# Poissons Ratio (y) = 0.36959 0.03682
# Poissons Ratio (z) = 0.07597 0.07597
#
# Static dielectric constant tensor:
#      x y z
#    x 1.672960 0.000000 0.000000 
#    y 0.000000 1.672960 0.000000 
#    z 0.000000 0.000000 1.710950 
# 
# From -- ./inp_files/1518.got.cif
#   From: 2010.05.17/outbox.cif.g08.bks.cpg/sg113_cif.got.tgz:1518.got - 2010.05.20 11:03:00.
