data_PCOD9555673
_publ_section_title
;
Structure prediction by ZEFSAII (Michael W. Deem and Ramdas Pophale) SiO2 
 PCOD9555673
Probable space group: P -4 21 M 
;
_chemical_formula_sum "Si O2"
_cell_formula_units_Z 48
_cell_length_a 11.783435
_cell_length_b 11.783435
_cell_length_c 18.220412
_cell_angle_alpha 90.000000
_cell_angle_beta 90.000000
_cell_angle_gamma 90.000000
_cell_volume 2529.892188
_symmetry_space_group_name_H-M "P -4 21 M "
_symmetry_group_IT_number 113
_symmetry_cell_setting 'tetragonal'
loop_
_space_group_symop_operation_xyz
x,y,z
y,-x,-z
-x,-y,z
-y,x,-z
1/2+x,1/2-y,-z
1/2-x,1/2+y,-z
1/2-y,1/2-x,z
1/2+y,1/2+x,z
loop_
_atom_site_type_symbol
_atom_site_label
_atom_site_fract_x
_atom_site_fract_y
_atom_site_fract_z
Si Si1 0.188069 0.498735 0.514927
Si Si2 0.556989 0.763170 0.032122
Si Si3 0.587088 0.265839 0.898170
Si Si4 0.089952 0.094537 0.242021
Si Si5 0.183731 0.489667 0.817578
Si Si6 0.352966 0.667191 0.601997
O O1 0.099728 0.599728 0.490181
O O2 0.278254 0.564060 0.567422
O O3 0.267402 0.436229 0.454571
O O4 0.102239 0.397762 0.543496
O O5 0.616655 0.883346 0.020841
O O6 0.647023 0.678482 0.068122
O O7 0.467315 0.777163 0.098275
O O8 0.516205 0.722401 0.953577
O O9 0.641659 0.141659 0.903760
O O10 0.572900 0.302016 0.814292
O O11 0.213173 0.039175 0.228506
O O12 0.080040 0.127611 0.326482
O O13 0.000000 0.000000 0.220718
O O14 0.089890 0.589890 0.821145
O O15 0.120835 0.379166 0.787305
O O16 0.260143 0.760143 0.626454
#
# Coordination Sequence:
#
# PCOD9555673 Si02
#       6
#     8   8   8   8   8   8
#     4   9  20  38  63  94 119 149 194 238 287 346
#     4   9  19  33  55  81 103 141 192 241 288 333
#     4  10  21  36  54  76 110 146 186 236 284 337
#     4  11  24  37  53  85 118 156 187 228 286 348
#     4   9  18  36  60  82 109 147 196 251 296 335
#     4  10  21  39  63  85 118 155 188 235 285 342
#
# _framework density 18.973140999999998
#
# number of rings (size 3 to 8) (size 9 to 14) (size 15 to 20)
#    0.000    2.333    0.000    3.000    7.000    1.667 
#    0.000    3.333    0.000    2.000    0.000    0.000 
#    0.000    0.000    0.000    0.000    0.000    0.000 
#
# Total GULP energy -267291.548612 kJ/mol
# GULP energy per Si atom -5568.573929 kJ/mol
# Density = 1.892996 g / cm^3
# Si number density = 18.973141 Si / 1000 Ang^3
#
#
#
# Elastic Constant Matrix: (Units=GPa)
#
#
# Indices 1 2 3 4 5 6 
#
# 1 23.1002 21.5916 15.0156 0.0000 0.0000 0.0000
# 2 21.5916 23.1006 15.0161 0.0000 0.0000 0.0000
# 3 15.0156 15.0161 57.1576 0.0000 0.0000 0.0000
# 4 0.0000 0.0000 0.0000 19.2587 0.0000 0.0000
# 5 0.0000 0.0000 0.0000 0.0000 19.2591 0.0000
# 6 0.0000 0.0000 0.0000 0.0000 0.0000 21.2380
#
#
#
# Elastic Compliance Matrix: (Units=1/GPa)
#
#
# Indices 1 2 3 4 5 6 
#
# 1 0.344984 -0.317811 -0.007135 0.000000 0.000000 0.000000
# 2 -0.317811 0.344982 -0.007141 0.000000 0.000000 0.000000
# 3 -0.007135 -0.007141 0.021246 0.000000 0.000000 0.000000
# 4 0.000000 0.000000 0.000000 0.051924 0.000000 0.000000
# 5 0.000000 0.000000 0.000000 0.000000 0.051924 0.000000
# 6 0.000000 0.000000 0.000000 0.000000 0.000000 0.047085
#
#
# Mechanical properties :
#
#
# Convention : Reuss Voigt Hill
#
# Bulk Modulus (GPa) = 21.25992 22.95612 22.10802
# Shear Modulus (GPa) = 3.24254 15.40018 9.32136
#
# Velocity S-wave (km/s) = 1.30871 2.85210 2.21892
# Velocity P-wave (km/s) = 3.67603 4.79286 4.27111
#
# Compressibility (1/GPa) = 0.04703687
#
# Stress axis : x y z
#
# Youngs Moduli (GPa) = 2.89868 2.89870 47.06737
#
# Poissons Ratio (x) = 0.92124 0.33584
# Poissons Ratio (y) = 0.92123 0.33613
# Poissons Ratio (z) = 0.02068 0.02070
#
# Static dielectric constant tensor:
#      x y z
#    x 1.685020 0.000000 0.000000 
#    y 0.000000 1.685020 0.000000 
#    z 0.000000 0.000000 1.665020 
# 
# From -- ./inp_files/2482.got.cif
#   From: 2010.05.17/outbox.cif.g08.bks.cpg/sg113_cif.got.tgz:2482.got - 2010.05.20 11:03:00.
