data_PCOD9555003
_publ_section_title
;
Structure prediction by ZEFSAII (Michael W. Deem and Ramdas Pophale) SiO2 
 PCOD9555003
Probable space group: P -4 2 C
;
_chemical_formula_sum "Si O2"
_cell_formula_units_Z 60
_cell_length_a 14.777567
_cell_length_b 14.777567
_cell_length_c 13.517655
_cell_angle_alpha 90.000000
_cell_angle_beta 90.000000
_cell_angle_gamma 90.000000
_cell_volume 2951.938004
_symmetry_space_group_name_H-M "P -4 2 C"
_symmetry_group_IT_number 112
_symmetry_cell_setting 'tetragonal'
loop_
_space_group_symop_operation_xyz
x,y,z
y,-x,-z
-x,-y,z
-y,x,-z
x,-y,1/2-z
-x,y,1/2-z
-y,-x,1/2+z
y,x,1/2+z
loop_
_atom_site_type_symbol
_atom_site_label
_atom_site_fract_x
_atom_site_fract_y
_atom_site_fract_z
Si Si1 0.525718 0.756665 0.034421
Si Si2 0.280558 0.328377 0.042596
Si Si3 0.808177 0.157075 0.088678
Si Si4 0.500000 0.171995 0.250000
Si Si5 0.990261 0.219442 0.433987
Si Si6 0.193107 0.200684 0.180375
Si Si7 0.411858 0.952690 0.532858
Si Si8 0.059642 0.664538 0.831398
O O1 0.612705 0.691911 0.036793
O O2 0.495688 0.773225 0.148162
O O3 0.565388 0.848480 0.985902
O O4 0.433818 0.732813 0.978376
O O5 0.234937 0.296716 0.146370
O O6 0.225407 0.262404 0.966239
O O7 0.799865 0.178656 0.204444
O O8 0.915843 0.166294 0.067580
O O9 0.784225 0.059607 0.040959
O O10 0.411347 0.111619 0.232840
O O11 0.909097 0.191623 0.359801
O O12 0.021748 0.321717 0.409679
O O13 0.262992 0.130831 0.128002
O O14 0.389780 0.986277 0.420603
O O15 0.500000 0.000000 0.573807
O O16 0.000000 0.713181 0.750000
#
# Coordination Sequence:
#
# PCOD9555003 Si02
#       8
#     8   8   8   4   8   8   8   8
#     4  11  22  40  66  96 136 176 219 282 346 416
#     4  11  23  42  66  97 134 175 220 280 346 412
#     4  11  23  43  66  92 132 180 227 283 335 407
#     4  10  19  36  64  99 128 166 226 284 353 395
#     4  11  23  41  63  92 130 183 224 278 336 403
#     4  11  22  39  62  94 131 182 222 268 346 405
#     4  11  19  35  59  91 124 161 221 273 334 391
#     4  11  19  32  56  95 127 162 213 282 335 393
#
# _framework density 20.325631000000001
#
# number of rings (size 3 to 8) (size 9 to 14) (size 15 to 20)
#    0.000    1.067    4.000    6.200    0.000    0.533 
#    0.000    0.667    0.000    5.600    0.000    0.000 
#    0.000    0.000    0.000    0.000    0.000    0.000 
#
# Total GULP energy -334701.274503 kJ/mol
# GULP energy per Si atom -5578.354575 kJ/mol
# Density = 2.027937 g / cm^3
# Si number density = 20.325631 Si / 1000 Ang^3
#
#
#
# Elastic Constant Matrix: (Units=GPa)
#
#
# Indices 1 2 3 4 5 6 
#
# 1 123.7009 36.4988 14.6204 0.0000 0.0000 0.0000
# 2 36.4988 123.7009 14.6204 0.0000 0.0000 0.0000
# 3 14.6204 14.6204 77.1332 0.0000 0.0000 0.0000
# 4 0.0000 0.0000 0.0000 22.9041 0.0000 0.0000
# 5 0.0000 0.0000 0.0000 0.0000 22.9041 0.0000
# 6 0.0000 0.0000 0.0000 0.0000 0.0000 30.3909
#
#
#
# Elastic Compliance Matrix: (Units=1/GPa)
#
#
# Indices 1 2 3 4 5 6 
#
# 1 0.008967 -0.002501 -0.001226 0.000000 0.000000 0.000000
# 2 -0.002501 0.008967 -0.001226 0.000000 0.000000 0.000000
# 3 -0.001226 -0.001226 0.013429 0.000000 0.000000 0.000000
# 4 0.000000 0.000000 0.000000 0.043660 0.000000 0.000000
# 5 0.000000 0.000000 0.000000 0.000000 0.043660 0.000000
# 6 0.000000 0.000000 0.000000 0.000000 0.000000 0.032905
#
#
# Mechanical properties :
#
#
# Convention : Reuss Voigt Hill
#
# Bulk Modulus (GPa) = 46.60130 50.66827 48.63479
# Shear Modulus (GPa) = 29.64811 32.49285 31.07048
#
# Velocity S-wave (km/s) = 3.82338 4.00261 3.91402
# Velocity P-wave (km/s) = 6.51676 6.80761 6.66377
#
# Compressibility (1/GPa) = 0.02145863
#
# Stress axis : x y z
#
# Youngs Moduli (GPa) = 111.52291 111.52291 74.46460
#
# Poissons Ratio (x) = 0.27890 0.09126
# Poissons Ratio (y) = 0.27890 0.09126
# Poissons Ratio (z) = 0.13668 0.13668
#
# Static dielectric constant tensor:
#      x y z
#    x 1.739030 0.000000 0.000000 
#    y 0.000000 1.739030 0.000000 
#    z 0.000000 0.000000 1.782710 
# 
# From -- ./inp_files/3496.got.cif
#   From: 2010.05.17/outbox.cif.g08.bks.cpg/sg112_2_cif.got.tgz:3496.got - 2010.05.20 10:59:04.
