data_PCOD9555081
_publ_section_title
;
Structure prediction by ZEFSAII (Michael W. Deem and Ramdas Pophale) SiO2 
 PCOD9555081
Probable space group: P -4 2 C
;
_chemical_formula_sum "Si O2"
_cell_formula_units_Z 34
_cell_length_a 7.729557
_cell_length_b 7.729557
_cell_length_c 26.430661
_cell_angle_alpha 90.000000
_cell_angle_beta 90.000000
_cell_angle_gamma 90.000000
_cell_volume 1579.127631
_symmetry_space_group_name_H-M "P -4 2 C"
_symmetry_group_IT_number 112
_symmetry_cell_setting 'tetragonal'
loop_
_space_group_symop_operation_xyz
x,y,z
y,-x,-z
-x,-y,z
-y,x,-z
x,-y,1/2-z
-x,y,1/2-z
-y,-x,1/2+z
y,x,1/2+z
loop_
_atom_site_type_symbol
_atom_site_label
_atom_site_fract_x
_atom_site_fract_y
_atom_site_fract_z
Si Si1 0.000000 0.500000 0.250000
Si Si2 0.868129 0.341111 0.986268
Si Si3 0.923128 0.682445 0.151044
Si Si4 0.201475 0.861254 0.087017
Si Si5 0.555054 0.691039 0.104655
O O1 0.089446 0.368987 0.210259
O O2 0.701281 0.395619 0.954607
O O3 0.000000 0.500000 0.990147
O O4 0.964203 0.208643 0.947148
O O5 0.830585 0.273022 0.041304
O O6 0.731235 0.730660 0.133994
O O7 0.000000 0.500000 0.128932
O O8 0.061645 0.821444 0.130469
O O9 0.391836 0.819660 0.109733
O O10 0.500000 0.500000 0.119590
#
# Coordination Sequence:
#
# PCOD9555081 Si02
#       5
#     2   8   8   8   8
#     4   8  20  40  62  98 128 158 228 298 342 402
#     4  10  24  36  56  91 127 171 218 262 330 417
#     4  10  20  39  62  89 122 161 219 284 334 398
#     4  11  22  39  57  87 128 168 216 270 330 407
#     4  11  22  36  59  85 120 173 211 261 328 401
#
# _framework density 21.530873
#
# number of rings (size 3 to 8) (size 9 to 14) (size 15 to 20)
#    0.706    0.941    2.353    2.118    6.588    3.294 
#    0.000    5.294    0.000    2.824    0.000    8.235 
#    0.000    0.000    0.000    0.000    0.000    0.000 
#
# Total GULP energy -189490.052682 kJ/mol
# GULP energy per Si atom -5573.236844 kJ/mol
# Density = 2.148187 g / cm^3
# Si number density = 21.530873 Si / 1000 Ang^3
#
#
#
# Elastic Constant Matrix: (Units=GPa)
#
#
# Indices 1 2 3 4 5 6 
#
# 1 106.5835 25.3107 41.1013 0.0000 0.0000 0.0000
# 2 25.3107 106.5835 41.1013 0.0000 0.0000 0.0000
# 3 41.1013 41.1013 123.4253 0.0000 0.0000 0.0000
# 4 0.0000 0.0000 0.0000 23.2524 0.0000 0.0000
# 5 0.0000 0.0000 0.0000 0.0000 23.2524 0.0000
# 6 0.0000 0.0000 0.0000 0.0000 0.0000 26.3426
#
#
#
# Elastic Compliance Matrix: (Units=1/GPa)
#
#
# Indices 1 2 3 4 5 6 
#
# 1 0.010936 -0.001368 -0.003186 0.000000 0.000000 0.000000
# 2 -0.001368 0.010936 -0.003186 0.000000 0.000000 0.000000
# 3 -0.003186 -0.003186 0.010224 0.000000 0.000000 0.000000
# 4 0.000000 0.000000 0.000000 0.043006 0.000000 0.000000
# 5 0.000000 0.000000 0.000000 0.000000 0.043006 0.000000
# 6 0.000000 0.000000 0.000000 0.000000 0.000000 0.037961
#
#
# Mechanical properties :
#
#
# Convention : Reuss Voigt Hill
#
# Bulk Modulus (GPa) = 60.18696 61.29099 60.73898
# Shear Modulus (GPa) = 28.23443 29.84143 29.03793
#
# Velocity S-wave (km/s) = 3.62518 3.72692 3.67640
# Velocity P-wave (km/s) = 6.74811 6.85917 6.80387
#
# Compressibility (1/GPa) = 0.01661489
#
# Stress axis : x y z
#
# Youngs Moduli (GPa) = 91.44212 91.44212 97.80914
#
# Poissons Ratio (x) = 0.12513 0.31162
# Poissons Ratio (y) = 0.12513 0.31162
# Poissons Ratio (z) = 0.29134 0.29134
#
# Static dielectric constant tensor:
#      x y z
#    x 1.916190 0.000000 0.000000 
#    y 0.000000 1.916190 0.000000 
#    z 0.000000 0.000000 1.742630 
# 
# From -- ./inp_files/5200.got.cif
#   From: 2010.05.17/outbox.cif.g08.bks.cpg/sg112_3_cif.got.tgz:5200.got - 2010.05.20 10:59:04.
