data_PCOD9555219
_publ_section_title
;
Structure prediction by ZEFSAII (Michael W. Deem and Ramdas Pophale) SiO2 
 PCOD9555219
Probable space group: P -4 2 C
;
_chemical_formula_sum "Si O2"
_cell_formula_units_Z 40
_cell_length_a 8.932983
_cell_length_b 8.932983
_cell_length_c 23.339181
_cell_angle_alpha 90.000000
_cell_angle_beta 90.000000
_cell_angle_gamma 90.000000
_cell_volume 1862.424290
_symmetry_space_group_name_H-M "P -4 2 C"
_symmetry_group_IT_number 112
_symmetry_cell_setting 'tetragonal'
loop_
_space_group_symop_operation_xyz
x,y,z
y,-x,-z
-x,-y,z
-y,x,-z
x,-y,1/2-z
-x,y,1/2-z
-y,-x,1/2+z
y,x,1/2+z
loop_
_atom_site_type_symbol
_atom_site_label
_atom_site_fract_x
_atom_site_fract_y
_atom_site_fract_z
Si Si1 0.828013 0.051974 0.836833
Si Si2 0.204653 0.348392 0.070597
Si Si3 0.645272 0.397437 0.135806
Si Si4 0.168068 0.516172 0.553883
Si Si5 0.201453 0.324953 0.261169
O O1 0.766173 0.091120 0.899297
O O2 0.780792 0.190541 0.794501
O O3 0.736807 0.920297 0.806050
O O4 0.000000 0.000000 0.835965
O O5 0.228191 0.485367 0.115424
O O6 0.359498 0.258062 0.058733
O O7 0.160427 0.422537 0.010716
O O8 0.500000 0.500000 0.131420
O O9 0.632625 0.263440 0.091112
O O10 0.652561 0.331770 0.199514
O O11 0.000000 0.500000 0.576159
O O12 0.170815 0.500000 0.250000
#
# Coordination Sequence:
#
# PCOD9555219 Si02
#       5
#     8   8   8   8   8
#     4  11  25  42  66 101 139 182 224 295 359 425
#     4  11  23  44  70  95 137 182 236 286 357 429
#     4  10  23  42  67  96 133 175 233 293 342 429
#     4  11  25  43  69 101 133 180 234 296 357 422
#     4  11  22  41  69  99 131 179 240 275 352 433
#
# _framework density 21.477381000000001
#
# number of rings (size 3 to 8) (size 9 to 14) (size 15 to 20)
#    0.000    1.200    4.000    2.400    5.600    0.400 
#    0.000    0.000    0.000    1.200    0.000    0.000 
#    0.000    0.000    0.000    0.000    0.000    0.000 
#
# Total GULP energy -223239.561913 kJ/mol
# GULP energy per Si atom -5580.989048 kJ/mol
# Density = 2.142850 g / cm^3
# Si number density = 21.477381 Si / 1000 Ang^3
#
#
#
# Elastic Constant Matrix: (Units=GPa)
#
#
# Indices 1 2 3 4 5 6 
#
# 1 82.3088 35.9106 36.6485 0.0000 0.0000 0.0000
# 2 35.9106 82.3088 36.6485 0.0000 0.0000 0.0000
# 3 36.6485 36.6485 94.7940 0.0000 0.0000 0.0000
# 4 0.0000 0.0000 0.0000 30.8320 0.0000 0.0000
# 5 0.0000 0.0000 0.0000 0.0000 30.8320 0.0000
# 6 0.0000 0.0000 0.0000 0.0000 0.0000 20.1108
#
#
#
# Elastic Compliance Matrix: (Units=1/GPa)
#
#
# Indices 1 2 3 4 5 6 
#
# 1 0.016339 -0.005213 -0.004301 0.000000 0.000000 0.000000
# 2 -0.005213 0.016339 -0.004301 0.000000 0.000000 0.000000
# 3 -0.004301 -0.004301 0.013875 0.000000 0.000000 0.000000
# 4 0.000000 0.000000 0.000000 0.032434 0.000000 0.000000
# 5 0.000000 0.000000 0.000000 0.000000 0.032434 0.000000
# 6 0.000000 0.000000 0.000000 0.000000 0.000000 0.049725
#
#
# Mechanical properties :
#
#
# Convention : Reuss Voigt Hill
#
# Bulk Modulus (GPa) = 52.85087 53.09189 52.97138
# Shear Modulus (GPa) = 25.62987 26.36854 25.99921
#
# Velocity S-wave (km/s) = 3.45823 3.50771 3.48305
# Velocity P-wave (km/s) = 6.37235 6.41708 6.39476
#
# Compressibility (1/GPa) = 0.01892117
#
# Stress axis : x y z
#
# Youngs Moduli (GPa) = 61.20278 61.20278 72.07161
#
# Poissons Ratio (x) = 0.31908 0.31000
# Poissons Ratio (y) = 0.31908 0.31000
# Poissons Ratio (z) = 0.26325 0.26325
#
# Static dielectric constant tensor:
#      x y z
#    x 1.811930 0.000000 0.000000 
#    y 0.000000 1.811930 0.000000 
#    z 0.000000 0.000000 1.840210 
# 
# From -- ./inp_files/5357.got.cif
#   From: 2010.05.17/outbox.cif.g08.bks.cpg/sg112_3_cif.got.tgz:5357.got - 2010.05.20 10:59:04.
