data_PCOD9555123
_publ_section_title
;
Structure prediction by ZEFSAII (Michael W. Deem and Ramdas Pophale) SiO2 
 PCOD9555123
Probable space group: P -4 2 C
;
_chemical_formula_sum "Si O2"
_cell_formula_units_Z 42
_cell_length_a 11.532455
_cell_length_b 11.532455
_cell_length_c 16.740893
_cell_angle_alpha 90.000000
_cell_angle_beta 90.000000
_cell_angle_gamma 90.000000
_cell_volume 2226.497224
_symmetry_space_group_name_H-M "P -4 2 C"
_symmetry_group_IT_number 112
_symmetry_cell_setting 'tetragonal'
loop_
_space_group_symop_operation_xyz
x,y,z
y,-x,-z
-x,-y,z
-y,x,-z
x,-y,1/2-z
-x,y,1/2-z
-y,-x,1/2+z
y,x,1/2+z
loop_
_atom_site_type_symbol
_atom_site_label
_atom_site_fract_x
_atom_site_fract_y
_atom_site_fract_z
Si Si1 0.819981 0.591531 0.045436
Si Si2 0.834591 0.177950 0.662083
Si Si3 0.202449 0.676182 0.010937
Si Si4 0.003384 0.628688 0.597813
Si Si5 0.000000 0.000000 0.250000
Si Si6 0.629180 0.135706 0.773203
O O1 0.799222 0.453884 0.045599
O O2 0.852160 0.637305 0.132335
O O3 0.714484 0.668138 0.012295
O O4 0.925344 0.613714 0.984936
O O5 0.767572 0.158261 0.577843
O O6 0.922226 0.284467 0.650589
O O7 0.732042 0.198141 0.725875
O O8 0.914779 0.074755 0.694079
O O9 0.120676 0.674882 0.932390
O O10 0.000000 0.500000 0.633779
O O11 0.500000 0.176776 0.750000
O O12 0.636725 0.000000 0.750000
#
# Coordination Sequence:
#
# PCOD9555123 Si02
#       6
#     8   8   8   8   2   8
#     4  10  21  37  63  92 120 162 211 262 312 371
#     4  11  23  39  58  91 127 161 204 255 308 371
#     4  10  21  40  63  89 121 162 214 261 309 366
#     4   9  21  38  61  86 121 164 210 242 307 376
#     4  12  28  36  58  92 132 164 198 240 324 372
#     4  11  21  35  64  94 128 161 207 258 312 368
#
# _framework density 18.863710000000001
#
# number of rings (size 3 to 8) (size 9 to 14) (size 15 to 20)
#    0.000    1.714    2.857    1.143    8.000    1.905 
#    0.000    0.476    4.190    0.000    0.000    0.000 
#    0.000    0.000    0.000    0.000    0.000    0.000 
#
# Total GULP energy -234466.600273 kJ/mol
# GULP energy per Si atom -5582.538102 kJ/mol
# Density = 1.882078 g / cm^3
# Si number density = 18.863710 Si / 1000 Ang^3
#
#
#
# Elastic Constant Matrix: (Units=GPa)
#
#
# Indices 1 2 3 4 5 6 
#
# 1 110.4296 66.9691 38.0711 0.0000 0.0000 0.0000
# 2 66.9691 110.4296 38.0711 0.0000 0.0000 0.0000
# 3 38.0711 38.0711 71.9475 0.0000 0.0000 0.0000
# 4 0.0000 0.0000 0.0000 23.9268 0.0000 0.0000
# 5 0.0000 0.0000 0.0000 0.0000 23.9268 0.0000
# 6 0.0000 0.0000 0.0000 0.0000 0.0000 30.3067
#
#
#
# Elastic Compliance Matrix: (Units=1/GPa)
#
#
# Indices 1 2 3 4 5 6 
#
# 1 0.015151 -0.007858 -0.003859 0.000000 0.000000 0.000000
# 2 -0.007858 0.015151 -0.003859 0.000000 0.000000 0.000000
# 3 -0.003859 -0.003859 0.017983 0.000000 0.000000 0.000000
# 4 0.000000 0.000000 0.000000 0.041794 0.000000 0.000000
# 5 0.000000 0.000000 0.000000 0.000000 0.041794 0.000000
# 6 0.000000 0.000000 0.000000 0.000000 0.000000 0.032996
#
#
# Mechanical properties :
#
#
# Convention : Reuss Voigt Hill
#
# Bulk Modulus (GPa) = 58.36704 64.33656 61.35180
# Shear Modulus (GPa) = 24.78497 25.61173 25.19835
#
# Velocity S-wave (km/s) = 3.62870 3.68873 3.65884
# Velocity P-wave (km/s) = 6.96888 7.23342 7.10238
#
# Compressibility (1/GPa) = 0.01713296
#
# Stress axis : x y z
#
# Youngs Moduli (GPa) = 66.00020 66.00020 55.60681
#
# Poissons Ratio (x) = 0.51863 0.21461
# Poissons Ratio (y) = 0.51863 0.21461
# Poissons Ratio (z) = 0.25472 0.25472
#
# Static dielectric constant tensor:
#      x y z
#    x 1.658570 0.000000 0.000000 
#    y 0.000000 1.658570 0.000000 
#    z 0.000000 0.000000 1.658280 
# 
# From -- ./inp_files/4053.got.cif
#   From: 2010.05.17/outbox.cif.g08.bks.cpg/sg112_3_cif.got.tgz:4053.got - 2010.05.20 10:59:04.
