data_PCOD9555064
_publ_section_title
;
Structure prediction by ZEFSAII (Michael W. Deem and Ramdas Pophale) SiO2 
 PCOD9555064
Probable space group: P -4 2 C
;
_chemical_formula_sum "Si O2"
_cell_formula_units_Z 34
_cell_length_a 17.812748
_cell_length_b 17.812748
_cell_length_c 5.415359
_cell_angle_alpha 90.000000
_cell_angle_beta 90.000000
_cell_angle_gamma 90.000000
_cell_volume 1718.260871
_symmetry_space_group_name_H-M "P -4 2 C"
_symmetry_group_IT_number 112
_symmetry_cell_setting 'tetragonal'
loop_
_space_group_symop_operation_xyz
x,y,z
y,-x,-z
-x,-y,z
-y,x,-z
x,-y,1/2-z
-x,y,1/2-z
-y,-x,1/2+z
y,x,1/2+z
loop_
_atom_site_type_symbol
_atom_site_label
_atom_site_fract_x
_atom_site_fract_y
_atom_site_fract_z
Si Si1 0.265607 0.209800 0.994662
Si Si2 0.239444 0.500000 0.750000
Si Si3 0.500000 0.158345 0.750000
Si Si4 0.627238 0.654094 0.453321
Si Si5 0.500000 0.000000 0.250000
Si Si6 0.072729 0.374396 0.386662
O O1 0.216961 0.217568 0.744631
O O2 0.314789 0.287620 0.987461
O O3 0.315725 0.134157 0.986128
O O4 0.199446 0.475229 0.498381
O O5 0.284684 0.570286 0.647357
O O6 0.574695 0.113182 0.821981
O O7 0.598490 0.629642 0.721360
O O8 0.440226 0.954202 0.422188
O O9 0.000000 0.340266 0.250000
#
# Coordination Sequence:
#
# PCOD9555064 Si02
#       6
#     8   4   4   8   2   8
#     4  10  22  40  61  86 123 175 227 274 316 395
#     4  12  23  36  65  87 121 160 224 281 320 389
#     4  12  21  36  56  90 124 171 204 251 322 400
#     4  10  20  37  54  85 111 153 214 272 330 368
#     4  12  24  44  60 102 146 190 212 280 360 434
#     4  12  25  39  60  94 142 180 221 271 342 425
#
# _framework density 19.78745
#
# number of rings (size 3 to 8) (size 9 to 14) (size 15 to 20)
#    0.000    0.941    2.353    7.765    3.294    0.000 
#    0.000    0.000    0.000    2.118    0.000    0.000 
#    0.000    2.824    0.000    0.000    0.000    0.000 
#
# Total GULP energy -189307.553413 kJ/mol
# GULP energy per Si atom -5567.869218 kJ/mol
# Density = 1.974241 g / cm^3
# Si number density = 19.787450 Si / 1000 Ang^3
#
#
#
# Elastic Constant Matrix: (Units=GPa)
#
#
# Indices 1 2 3 4 5 6 
#
# 1 57.7444 26.7724 -13.3978 0.0000 0.0000 0.0000
# 2 26.7724 57.7444 -13.3978 0.0000 0.0000 0.0000
# 3 -13.3978 -13.3978 81.7930 0.0000 0.0000 0.0000
# 4 0.0000 0.0000 0.0000 18.1419 0.0000 0.0000
# 5 0.0000 0.0000 0.0000 0.0000 18.1419 0.0000
# 6 0.0000 0.0000 0.0000 0.0000 0.0000 67.8806
#
#
#
# Elastic Compliance Matrix: (Units=1/GPa)
#
#
# Indices 1 2 3 4 5 6 
#
# 1 0.022384 -0.009904 0.002044 0.000000 0.000000 0.000000
# 2 -0.009904 0.022384 0.002044 0.000000 0.000000 0.000000
# 3 0.002044 0.002044 0.012896 0.000000 0.000000 0.000000
# 4 0.000000 0.000000 0.000000 0.055121 0.000000 0.000000
# 5 0.000000 0.000000 0.000000 0.000000 0.055121 0.000000
# 6 0.000000 0.000000 0.000000 0.000000 0.000000 0.014732
#
#
# Mechanical properties :
#
#
# Convention : Reuss Voigt Hill
#
# Bulk Modulus (GPa) = 21.72362 21.91506 21.81934
# Shear Modulus (GPa) = 23.85370 33.98655 28.92013
#
# Velocity S-wave (km/s) = 3.47579 4.14887 3.82716
# Velocity P-wave (km/s) = 5.20677 5.83524 5.52994
#
# Compressibility (1/GPa) = 0.04603285
#
# Stress axis : x y z
#
# Youngs Moduli (GPa) = 44.67546 44.67546 77.54531
#
# Poissons Ratio (x) = 0.44245 -0.15852
# Poissons Ratio (y) = 0.44245 -0.15852
# Poissons Ratio (z) = -0.09133 -0.09133
#
# Static dielectric constant tensor:
#      x y z
#    x 1.681580 0.000000 0.000000 
#    y 0.000000 1.681580 0.000000 
#    z 0.000000 0.000000 2.003090 
# 
# From -- ./inp_files/246.got.cif
#   From: 2010.05.17/outbox.cif.g08.bks.cpg/sg112_1_cif.got.tgz:246.got - 2010.05.20 10:59:04.
