data_PCOD9555903
_publ_section_title
;
Structure prediction by ZEFSAII (Michael W. Deem and Ramdas Pophale) SiO2 
 PCOD9555903
Probable space group: P -4 21 C
;
_chemical_formula_sum "Si O2"
_cell_formula_units_Z 48
_cell_length_a 8.550683
_cell_length_b 8.550683
_cell_length_c 30.442235
_cell_angle_alpha 90.000000
_cell_angle_beta 90.000000
_cell_angle_gamma 90.000000
_cell_volume 2225.759042
_symmetry_space_group_name_H-M "P -4 21 C"
_symmetry_group_IT_number 114
_symmetry_cell_setting 'tetragonal'
loop_
_space_group_symop_operation_xyz
x,y,z
y,-x,-z
-x,-y,z
-y,x,-z
1/2+x,1/2-y,1/2-z
1/2-x,1/2+y,1/2-z
1/2-y,1/2-x,1/2+z
1/2+y,1/2+x,1/2+z
loop_
_atom_site_type_symbol
_atom_site_label
_atom_site_fract_x
_atom_site_fract_y
_atom_site_fract_z
Si Si1 0.789548 0.844269 0.005435
Si Si2 0.838283 0.099166 0.663221
Si Si3 0.314331 0.990812 0.268754
Si Si4 0.325518 0.201495 0.687838
Si Si5 0.349714 0.196362 0.915124
Si Si6 0.780222 0.657309 0.597997
O O1 0.760637 0.784080 0.054308
O O2 0.676430 0.782133 0.967087
O O3 0.967059 0.790307 0.994426
O O4 0.886886 0.232004 0.697940
O O5 0.785727 0.171803 0.617093
O O6 0.708070 0.981826 0.681039
O O7 0.000000 0.000000 0.656738
O O8 0.265983 0.028734 0.218916
O O9 0.500000 0.000000 0.273258
O O10 0.259978 0.822370 0.284104
O O11 0.308103 0.281849 0.640761
O O12 0.532654 0.185541 0.901888
O O13 0.266731 0.030321 0.905568
#
# Coordination Sequence:
#
# PCOD9555903 Si02
#       6
#     8   8   8   8   8   8
#     4   9  20  39  61  89 124 154 197 247 300 367
#     4  10  20  36  60  88 119 155 199 250 296 358
#     4  11  22  41  63  85 121 167 200 256 307 364
#     4  11  23  40  62  90 125 159 211 256 306 363
#     4  10  19  37  64  83 118 162 198 240 311 364
#     4  10  20  38  62  86 118 162 200 249 304 372
#
# _framework density 21.565677999999998
#
# number of rings (size 3 to 8) (size 9 to 14) (size 15 to 20)
#    0.000    1.833    3.333    2.000    0.000    1.333 
#    6.000    1.667   11.000    0.000    0.000    0.000 
#    0.000    0.000    0.000    0.000    0.000    0.000 
#
# Total GULP energy -268293.213734 kJ/mol
# GULP energy per Si atom -5589.441953 kJ/mol
# Density = 2.151659 g / cm^3
# Si number density = 21.565678 Si / 1000 Ang^3
#
#
#
# Elastic Constant Matrix: (Units=GPa)
#
#
# Indices 1 2 3 4 5 6 
#
# 1 32.7177 8.9263 43.9769 0.0000 0.0000 0.0000
# 2 8.9263 32.7177 43.9769 0.0000 0.0000 0.0000
# 3 43.9769 43.9769 183.8517 0.0000 0.0000 0.0000
# 4 0.0000 0.0000 0.0000 57.2164 0.0000 0.0000
# 5 0.0000 0.0000 0.0000 0.0000 57.2164 0.0000
# 6 0.0000 0.0000 0.0000 0.0000 0.0000 14.3159
#
#
#
# Elastic Compliance Matrix: (Units=1/GPa)
#
#
# Indices 1 2 3 4 5 6 
#
# 1 0.045281 0.003249 -0.011608 0.000000 0.000000 0.000000
# 2 0.003249 0.045281 -0.011608 0.000000 0.000000 0.000000
# 3 -0.011608 -0.011608 0.010993 0.000000 0.000000 0.000000
# 4 0.000000 0.000000 0.000000 0.017478 0.000000 0.000000
# 5 0.000000 0.000000 0.000000 0.000000 0.017478 0.000000
# 6 0.000000 0.000000 0.000000 0.000000 0.000000 0.069853
#
#
# Mechanical properties :
#
#
# Convention : Reuss Voigt Hill
#
# Bulk Modulus (GPa) = 16.22851 49.22748 32.72799
# Shear Modulus (GPa) = 18.73799 35.91019 27.32409
#
# Velocity S-wave (km/s) = 2.95088 4.08506 3.56338
# Velocity P-wave (km/s) = 4.37627 6.71763 5.66914
#
# Compressibility (1/GPa) = 0.06161997
#
# Stress axis : x y z
#
# Youngs Moduli (GPa) = 22.08422 22.08422 90.97064
#
# Poissons Ratio (x) = -0.07176 1.05602
# Poissons Ratio (y) = -0.07176 1.05602
# Poissons Ratio (z) = 0.25636 0.25636
#
# Static dielectric constant tensor:
#      x y z
#    x 1.739890 0.000000 0.000000 
#    y 0.000000 1.739890 0.000000 
#    z 0.000000 0.000000 1.793230 
# 
# From -- ./inp_files/3961.got.cif
#   From: 2010.05.17/outbox.cif.g08.bks.cpg/sg114_2_cif.got.tgz:3961.got - 2010.05.20 11:04:54.
