data_PCOD9555745
_publ_section_title
;
Structure prediction by ZEFSAII (Michael W. Deem and Ramdas Pophale) SiO2 
 PCOD9555745
Probable space group: P -4 21 M 
;
_chemical_formula_sum "Si O2"
_cell_formula_units_Z 56
_cell_length_a 14.304228
_cell_length_b 14.304228
_cell_length_c 12.640571
_cell_angle_alpha 90.000000
_cell_angle_beta 90.000000
_cell_angle_gamma 90.000000
_cell_volume 2586.399098
_symmetry_space_group_name_H-M "P -4 21 M "
_symmetry_group_IT_number 113
_symmetry_cell_setting 'tetragonal'
loop_
_space_group_symop_operation_xyz
x,y,z
y,-x,-z
-x,-y,z
-y,x,-z
1/2+x,1/2-y,-z
1/2-x,1/2+y,-z
1/2-y,1/2-x,z
1/2+y,1/2+x,z
loop_
_atom_site_type_symbol
_atom_site_label
_atom_site_fract_x
_atom_site_fract_y
_atom_site_fract_z
Si Si1 0.772849 0.083457 0.806643
Si Si2 0.908810 0.741807 0.957115
Si Si3 0.738432 0.912217 0.197524
Si Si4 0.676374 0.028973 0.398861
Si Si5 0.915374 0.926162 0.854841
Si Si6 0.968944 0.320782 0.365056
Si Si7 0.682241 0.665859 0.670117
O O1 0.848962 0.166938 0.792656
O O2 0.829469 0.989735 0.827531
O O3 0.708192 0.057265 0.706913
O O4 0.721848 0.089665 0.918778
O O5 0.827496 0.672505 0.914340
O O6 0.892936 0.854793 0.949300
O O7 0.004696 0.735325 0.889859
O O8 0.661138 0.838863 0.162123
O O9 0.708001 0.954109 0.311547
O O10 0.587702 0.087702 0.356827
O O11 0.760805 0.103551 0.412035
O O12 0.654955 0.993330 0.515048
O O13 0.910917 0.856764 0.753421
O O14 0.000000 0.000000 0.868054
O O15 0.905902 0.405902 0.319651
O O16 0.901115 0.229771 0.371755
O O17 0.758543 0.741458 0.713290
#
# Coordination Sequence:
#
# PCOD9555745 Si02
#       7
#     8   8   8   8   8   8   8
#     4  11  25  43  69 100 140 183 231 287 350 422
#     4  12  25  43  68 102 141 184 229 285 352 423
#     4  12  26  45  70 104 139 183 237 291 347 413
#     4  11  23  42  69  99 136 181 229 288 351 414
#     4  11  20  38  68  97 132 172 222 286 348 408
#     4  10  24  43  67 101 138 183 235 288 354 430
#     4   9  19  39  64  94 132 175 222 279 348 414
#
# _framework density 21.651723
#
# number of rings (size 3 to 8) (size 9 to 14) (size 15 to 20)
#    0.000    1.143    2.857    2.571    2.000    4.286 
#    0.000    0.000    0.000    0.000    0.000    0.000 
#    0.000    0.000    0.000    0.000    0.000    0.000 
#
# Total GULP energy -311928.286499 kJ/mol
# GULP energy per Si atom -5570.147973 kJ/mol
# Density = 2.160244 g / cm^3
# Si number density = 21.651723 Si / 1000 Ang^3
#
#
#
# Elastic Constant Matrix: (Units=GPa)
#
#
# Indices 1 2 3 4 5 6 
#
# 1 163.1714 21.4924 44.9299 0.0000 0.0000 0.0000
# 2 21.4924 163.1545 44.9221 0.0000 0.0000 0.0000
# 3 44.9299 44.9221 109.9451 0.0000 0.0000 0.0000
# 4 0.0000 0.0000 0.0000 40.6767 0.0000 0.0000
# 5 0.0000 0.0000 0.0000 0.0000 40.6761 0.0000
# 6 0.0000 0.0000 0.0000 0.0000 0.0000 59.4231
#
#
#
# Elastic Compliance Matrix: (Units=1/GPa)
#
#
# Indices 1 2 3 4 5 6 
#
# 1 0.006909 -0.000150 -0.002762 0.000000 0.000000 0.000000
# 2 -0.000150 0.006909 -0.002762 0.000000 0.000000 0.000000
# 3 -0.002762 -0.002762 0.011353 0.000000 0.000000 0.000000
# 4 0.000000 0.000000 0.000000 0.024584 0.000000 0.000000
# 5 0.000000 0.000000 0.000000 0.000000 0.024584 0.000000
# 6 0.000000 0.000000 0.000000 0.000000 0.000000 0.016828
#
#
# Mechanical properties :
#
#
# Convention : Reuss Voigt Hill
#
# Bulk Modulus (GPa) = 72.34098 73.21775 72.77937
# Shear Modulus (GPa) = 46.67525 49.81696 48.24611
#
# Velocity S-wave (km/s) = 4.64802 4.80190 4.72559
# Velocity P-wave (km/s) = 7.89235 8.03952 7.96627
#
# Compressibility (1/GPa) = 0.01382342
#
# Stress axis : x y z
#
# Youngs Moduli (GPa) = 144.74264 144.73214 88.08448
#
# Poissons Ratio (x) = 0.02165 0.24331
# Poissons Ratio (y) = 0.02165 0.24328
# Poissons Ratio (z) = 0.39981 0.39974
#
# Static dielectric constant tensor:
#      x y z
#    x 1.854230 0.000000 0.000000 
#    y 0.000000 1.854240 0.000000 
#    z 0.000000 0.000000 1.814150 
# 
# From -- ./inp_files/1941.got.cif
#   From: 2010.05.17/outbox.cif.g08.bks.cpg/sg113_cif.got.tgz:1941.got - 2010.05.20 11:03:00.
