data_PCOD9555640
_publ_section_title
;
Structure prediction by ZEFSAII (Michael W. Deem and Ramdas Pophale) SiO2 
 PCOD9555640
Probable space group: P -4 21 M 
;
_chemical_formula_sum "Si O2"
_cell_formula_units_Z 56
_cell_length_a 15.377754
_cell_length_b 15.377754
_cell_length_c 11.906390
_cell_angle_alpha 90.000000
_cell_angle_beta 90.000000
_cell_angle_gamma 90.000000
_cell_volume 2815.567362
_symmetry_space_group_name_H-M "P -4 21 M "
_symmetry_group_IT_number 113
_symmetry_cell_setting 'tetragonal'
loop_
_space_group_symop_operation_xyz
x,y,z
y,-x,-z
-x,-y,z
-y,x,-z
1/2+x,1/2-y,-z
1/2-x,1/2+y,-z
1/2-y,1/2-x,z
1/2+y,1/2+x,z
loop_
_atom_site_type_symbol
_atom_site_label
_atom_site_fract_x
_atom_site_fract_y
_atom_site_fract_z
Si Si1 0.388026 0.591008 0.972887
Si Si2 0.675058 0.317213 0.755824
Si Si3 0.968120 0.666945 0.208938
Si Si4 0.864268 0.504272 0.468358
Si Si5 0.932620 0.078726 0.332446
Si Si6 0.049332 0.818460 0.562665
Si Si7 0.370968 0.269747 0.834533
O O1 0.352053 0.611561 0.849103
O O2 0.489103 0.616551 0.992114
O O3 0.326536 0.646193 0.055324
O O4 0.766748 0.266748 0.772112
O O5 0.601125 0.244081 0.770853
O O6 0.672339 0.361643 0.632910
O O7 0.914909 0.585092 0.161489
O O8 0.999868 0.643034 0.333750
O O9 0.050685 0.702056 0.142707
O O10 0.898888 0.601113 0.495501
O O11 0.776556 0.471439 0.520818
O O12 0.937358 0.437358 0.505146
O O13 0.956774 0.120390 0.452791
O O14 0.912925 0.159329 0.251087
O O15 0.844719 0.026750 0.352759
O O16 0.000000 0.000000 0.300019
O O17 0.287344 0.212657 0.797642
#
# Coordination Sequence:
#
# PCOD9555640 Si02
#       7
#     8   8   8   8   8   8   8
#     4  11  24  43  67  93 123 169 216 272 337 399
#     4  11  23  40  63  94 128 164 213 268 325 391
#     4  10  20  37  60  87 124 161 204 261 318 375
#     4  10  21  37  57  86 126 169 211 254 306 373
#     4  12  24  39  62  93 134 170 210 265 326 386
#     4  12  21  37  61  90 126 172 210 254 317 389
#     4  12  25  41  66  95 128 165 218 276 327 390
#
# _framework density 19.889417999999999
#
# number of rings (size 3 to 8) (size 9 to 14) (size 15 to 20)
#    0.000    0.857    4.286    3.857    2.000    2.000 
#    2.571    0.000    0.000    0.857    0.000    0.000 
#    0.000    0.000    0.000    0.000    0.000    0.000 
#
# Total GULP energy -312477.203173 kJ/mol
# GULP energy per Si atom -5579.950057 kJ/mol
# Density = 1.984415 g / cm^3
# Si number density = 19.889418 Si / 1000 Ang^3
#
#
#
# Elastic Constant Matrix: (Units=GPa)
#
#
# Indices 1 2 3 4 5 6 
#
# 1 88.7386 40.2523 21.3658 0.0000 0.0000 0.0000
# 2 40.2523 88.7390 21.3660 0.0000 0.0000 0.0000
# 3 21.3658 21.3660 60.3235 0.0000 0.0000 0.0000
# 4 0.0000 0.0000 0.0000 97.7211 0.0000 0.0000
# 5 0.0000 0.0000 0.0000 0.0000 97.7442 0.0000
# 6 0.0000 0.0000 0.0000 0.0000 0.0000 36.1139
#
#
#
# Elastic Compliance Matrix: (Units=1/GPa)
#
#
# Indices 1 2 3 4 5 6 
#
# 1 0.014704 -0.005921 -0.003111 0.000000 0.000000 0.000000
# 2 -0.005921 0.014704 -0.003111 0.000000 0.000000 0.000000
# 3 -0.003111 -0.003111 0.018781 0.000000 0.000000 0.000000
# 4 0.000000 0.000000 0.000000 0.010233 0.000000 0.000000
# 5 0.000000 0.000000 0.000000 0.000000 0.010231 0.000000
# 6 0.000000 0.000000 0.000000 0.000000 0.000000 0.027690
#
#
# Mechanical properties :
#
#
# Convention : Reuss Voigt Hill
#
# Bulk Modulus (GPa) = 41.83470 44.86325 43.34898
# Shear Modulus (GPa) = 38.88178 56.63698 47.75938
#
# Velocity S-wave (km/s) = 4.42622 5.34207 4.90557
# Velocity P-wave (km/s) = 6.87031 7.78817 7.34360
#
# Compressibility (1/GPa) = 0.02390360
#
# Stress axis : x y z
#
# Youngs Moduli (GPa) = 68.01013 68.01044 53.24543
#
# Poissons Ratio (x) = 0.40266 0.16564
# Poissons Ratio (y) = 0.40266 0.16564
# Poissons Ratio (z) = 0.21157 0.21157
#
# Static dielectric constant tensor:
#      x y z
#    x 1.721980 0.000000 0.000000 
#    y 0.000000 1.721990 0.000000 
#    z 0.000000 0.000000 1.716510 
# 
# From -- ./inp_files/1910.got.cif
#   From: 2010.05.17/outbox.cif.g08.bks.cpg/sg113_cif.got.tgz:1910.got - 2010.05.20 11:03:00.
