data_PCOD9555400
_publ_section_title
;
Structure prediction by ZEFSAII (Michael W. Deem and Ramdas Pophale) SiO2 
 PCOD9555400
Probable space group: P -4 2 C
;
_chemical_formula_sum "Si O2"
_cell_formula_units_Z 20
_cell_length_a 5.301919
_cell_length_b 5.301919
_cell_length_c 28.724100
_cell_angle_alpha 90.000000
_cell_angle_beta 90.000000
_cell_angle_gamma 90.000000
_cell_volume 807.444363
_symmetry_space_group_name_H-M "P -4 2 C"
_symmetry_group_IT_number 112
_symmetry_cell_setting 'tetragonal'
loop_
_space_group_symop_operation_xyz
x,y,z
y,-x,-z
-x,-y,z
-y,x,-z
x,-y,1/2-z
-x,y,1/2-z
-y,-x,1/2+z
y,x,1/2+z
loop_
_atom_site_type_symbol
_atom_site_label
_atom_site_fract_x
_atom_site_fract_y
_atom_site_fract_z
Si Si1 0.833660 0.242286 0.070529
Si Si2 0.000000 0.000000 0.750000
Si Si3 0.500000 0.500000 0.000000
Si Si4 0.665549 0.746972 0.825904
O O1 0.726762 0.211956 0.122938
O O2 0.000000 0.500000 0.069500
O O3 0.614292 0.288906 0.033648
O O4 0.000000 0.000000 0.059549
O O5 0.150171 0.186476 0.784090
O O6 0.500000 0.500000 0.817307
O O7 0.500000 0.000000 0.828437
#
# Coordination Sequence:
#
# PCOD9555400 Si02
#       4
#     8   2   2   8
#     4  11  27  51  81 121 170 224 288 356 427 511
#     4  12  26  50  88 116 174 226 282 354 438 504
#     4  12  28  48  88 120 178 224 292 352 440 506
#     4  11  26  51  79 119 165 219 286 352 421 512
#
# _framework density 24.769504000000001
#
# number of rings (size 3 to 8) (size 9 to 14) (size 15 to 20)
#    0.000    0.800    4.000    0.600    5.600    6.400 
#    0.000    0.000    0.000    0.000    0.000    0.000 
#    0.000    0.000    0.000    0.000    0.000    0.000 
#
# Total GULP energy -112265.524494 kJ/mol
# GULP energy per Si atom -5613.276225 kJ/mol
# Density = 2.471313 g / cm^3
# Si number density = 24.769504 Si / 1000 Ang^3
#
#
#
# Elastic Constant Matrix: (Units=GPa)
#
#
# Indices 1 2 3 4 5 6 
#
# 1 164.5571 84.8446 85.2873 0.0000 0.0000 0.0000
# 2 84.8446 164.5571 85.2873 0.0000 0.0000 0.0000
# 3 85.2873 85.2873 255.7551 0.0000 0.0000 0.0000
# 4 0.0000 0.0000 0.0000 -207.5385 0.0000 0.0000
# 5 0.0000 0.0000 0.0000 0.0000 -207.5385 0.0000
# 6 0.0000 0.0000 0.0000 0.0000 0.0000 69.2034
#
#
#
# Elastic Compliance Matrix: (Units=1/GPa)
#
#
# Indices 1 2 3 4 5 6 
#
# 1 0.008870 -0.003675 -0.001732 0.000000 0.000000 0.000000
# 2 -0.003675 0.008870 -0.001732 0.000000 0.000000 0.000000
# 3 -0.001732 -0.001732 0.005065 0.000000 0.000000 0.000000
# 4 0.000000 0.000000 0.000000 -0.004818 0.000000 0.000000
# 5 0.000000 0.000000 0.000000 0.000000 -0.004818 0.000000
# 6 0.000000 0.000000 0.000000 0.000000 0.000000 0.014450
#
#
# Mechanical properties :
#
#
# Convention : Reuss Voigt Hill
#
# Bulk Modulus (GPa) = 117.29938 121.74529 119.52234
# Shear Modulus (GPa) = 111.75898 -47.21140 32.27379
#
# Velocity S-wave (km/s) = 6.72440 -4.37055 3.61358
# Velocity P-wave (km/s) = 10.38023 4.87741 8.10982
#
# Compressibility (1/GPa) = 0.00852519
#
# Stress axis : x y z
#
# Youngs Moduli (GPa) = 112.74361 112.74361 197.42411
#
# Poissons Ratio (x) = 0.41438 0.34197
# Poissons Ratio (y) = 0.41438 0.34197
# Poissons Ratio (z) = 0.19529 0.19529
#
# Static dielectric constant tensor:
#      x y z
#    x 1.942040 0.000000 0.000000 
#    y 0.000000 1.942040 0.000000 
#    z 0.000000 0.000000 1.967250 
# 
# From -- ./inp_files/5656.got.cif
#   From: 2010.05.17/outbox.cif.g08.bks.cpg/sg112_3_cif.got.tgz:5656.got - 2010.05.20 10:59:04.
