data_PCOD9555537
_publ_section_title
;
Structure prediction by ZEFSAII (Michael W. Deem and Ramdas Pophale) SiO2 
 PCOD9555537
Probable space group: P -4 21 M 
;
_chemical_formula_sum "Si O2"
_cell_formula_units_Z 60
_cell_length_a 12.174942
_cell_length_b 12.174942
_cell_length_c 22.305705
_cell_angle_alpha 90.000000
_cell_angle_beta 90.000000
_cell_angle_gamma 90.000000
_cell_volume 3306.357091
_symmetry_space_group_name_H-M "P -4 21 M "
_symmetry_group_IT_number 113
_symmetry_cell_setting 'tetragonal'
loop_
_space_group_symop_operation_xyz
x,y,z
y,-x,-z
-x,-y,z
-y,x,-z
1/2+x,1/2-y,-z
1/2-x,1/2+y,-z
1/2-y,1/2-x,z
1/2+y,1/2+x,z
loop_
_atom_site_type_symbol
_atom_site_label
_atom_site_fract_x
_atom_site_fract_y
_atom_site_fract_z
Si Si1 0.866334 0.366334 0.139824
Si Si2 0.596569 0.724260 0.429963
Si Si3 0.397618 0.581368 0.864086
Si Si4 0.171251 0.850165 0.439038
Si Si5 0.548500 0.233972 0.771198
Si Si6 0.769636 0.545159 0.050756
Si Si7 0.817674 0.503623 0.912685
Si Si8 0.023308 0.123932 0.344136
O O1 0.807877 0.444536 0.191089
O O2 0.800255 0.436180 0.087267
O O3 0.663265 0.836736 0.424170
O O4 0.633685 0.667915 0.492459
O O5 0.465652 0.733782 0.432966
O O6 0.625436 0.641875 0.375934
O O7 0.500000 0.500000 0.857660
O O8 0.396578 0.669164 0.810627
O O9 0.411377 0.654345 0.924462
O O10 0.284797 0.515590 0.869863
O O11 0.250452 0.750452 0.422405
O O12 0.066329 0.855372 0.395875
O O13 0.633706 0.133706 0.765026
O O14 0.517022 0.287233 0.708052
O O15 0.865256 0.634745 0.065259
O O16 0.774832 0.524679 0.980093
O O17 0.892126 0.607875 0.895462
O O18 0.898230 0.398230 0.913388
O O19 0.000000 0.000000 0.320893
#
# Coordination Sequence:
#
# PCOD9555537 Si02
#       8
#     4   8   8   8   8   8   8   8
#     4  10  19  36  58  82 112 154 193 232 293 356
#     4  10  19  35  57  83 119 160 199 237 289 351
#     4  11  24  39  56  83 119 149 195 240 301 354
#     4  10  20  34  56  86 119 155 196 245 295 341
#     4  11  22  39  61  84 116 156 195 243 293 362
#     4  10  19  35  57  82 112 153 193 234 292 360
#     4  10  21  38  61  86 115 151 198 247 297 354
#     4  10  21  36  61  85 117 154 200 241 291 351
#
# _framework density 18.14686
#
# number of rings (size 3 to 8) (size 9 to 14) (size 15 to 20)
#    0.000    1.733    2.000    4.000    2.800    0.267 
#    4.800    0.000    0.000    0.800    0.000    0.000 
#    0.000    0.000    0.000    0.000    0.000    0.000 
#
# Total GULP energy -334016.983970 kJ/mol
# GULP energy per Si atom -5566.949733 kJ/mol
# Density = 1.810556 g / cm^3
# Si number density = 18.146860 Si / 1000 Ang^3
#
#
#
# Elastic Constant Matrix: (Units=GPa)
#
#
# Indices 1 2 3 4 5 6 
#
# 1 34.8367 4.4063 5.8324 0.0000 0.0000 0.0000
# 2 4.4063 34.8356 5.8320 0.0000 0.0000 0.0000
# 3 5.8324 5.8320 44.1532 0.0000 0.0000 0.0000
# 4 0.0000 0.0000 0.0000 20.1381 0.0000 0.0000
# 5 0.0000 0.0000 0.0000 0.0000 20.1380 0.0000
# 6 0.0000 0.0000 0.0000 0.0000 0.0000 17.5685
#
#
#
# Elastic Compliance Matrix: (Units=1/GPa)
#
#
# Indices 1 2 3 4 5 6 
#
# 1 0.029693 -0.003169 -0.003504 0.000000 0.000000 0.000000
# 2 -0.003169 0.029694 -0.003504 0.000000 0.000000 0.000000
# 3 -0.003504 -0.003504 0.023574 0.000000 0.000000 0.000000
# 4 0.000000 0.000000 0.000000 0.049657 0.000000 0.000000
# 5 0.000000 0.000000 0.000000 0.000000 0.049657 0.000000
# 6 0.000000 0.000000 0.000000 0.000000 0.000000 0.056920
#
#
# Mechanical properties :
#
#
# Convention : Reuss Voigt Hill
#
# Bulk Modulus (GPa) = 15.97247 16.21855 16.09551
# Shear Modulus (GPa) = 17.83059 18.08591 17.95825
#
# Velocity S-wave (km/s) = 3.13800 3.16039 3.14921
# Velocity P-wave (km/s) = 4.68511 4.71955 4.70236
#
# Compressibility (1/GPa) = 0.06260774
#
# Stress axis : x y z
#
# Youngs Moduli (GPa) = 33.67816 33.67716 42.41960
#
# Poissons Ratio (x) = 0.10673 0.14862
# Poissons Ratio (y) = 0.10673 0.14862
# Poissons Ratio (z) = 0.11800 0.11799
#
# Static dielectric constant tensor:
#      x y z
#    x 1.625080 0.000000 0.000000 
#    y 0.000000 1.625080 0.000000 
#    z 0.000000 0.000000 1.605360 
# 
# From -- ./inp_files/2772.got.cif
#   From: 2010.05.17/outbox.cif.g08.bks.cpg/sg113_cif.got.tgz:2772.got - 2010.05.20 11:03:00.
