data_PCOD9555947
_publ_section_title
;
Structure prediction by ZEFSAII (Michael W. Deem and Ramdas Pophale) SiO2 
 PCOD9555947
Probable space group: P -4 21 C
;
_chemical_formula_sum "Si O2"
_cell_formula_units_Z 44
_cell_length_a 14.491381
_cell_length_b 14.491381
_cell_length_c 9.425320
_cell_angle_alpha 90.000000
_cell_angle_beta 90.000000
_cell_angle_gamma 90.000000
_cell_volume 1979.318362
_symmetry_space_group_name_H-M "P -4 21 C"
_symmetry_group_IT_number 114
_symmetry_cell_setting 'tetragonal'
loop_
_space_group_symop_operation_xyz
x,y,z
y,-x,-z
-x,-y,z
-y,x,-z
1/2+x,1/2-y,1/2-z
1/2-x,1/2+y,1/2-z
1/2-y,1/2-x,1/2+z
1/2+y,1/2+x,1/2+z
loop_
_atom_site_type_symbol
_atom_site_label
_atom_site_fract_x
_atom_site_fract_y
_atom_site_fract_z
Si Si1 0.421570 0.092263 0.737736
Si Si2 0.643546 0.483834 0.470339
Si Si3 0.713599 0.349736 0.225611
Si Si4 0.500000 0.000000 0.987214
Si Si5 0.042384 0.258566 0.227248
Si Si6 0.364528 0.548395 0.969737
O O1 0.353021 0.178410 0.743074
O O2 0.356985 0.001464 0.741002
O O3 0.483132 0.084065 0.596775
O O4 0.485448 0.085175 0.878035
O O5 0.575017 0.416402 0.558255
O O6 0.671952 0.426173 0.333393
O O7 0.727136 0.513756 0.570226
O O8 0.651802 0.258802 0.251269
O O9 0.697663 0.385935 0.066557
O O10 0.993482 0.187449 0.335987
O O11 0.458848 0.603119 0.939381
#
# Coordination Sequence:
#
# PCOD9555947 Si02
#       6
#     8   8   8   4   8   8
#     4  11  22  42  60  83 117 156 200 246 296 360
#     4   9  17  31  53  83 117 153 198 253 309 361
#     4  10  20  35  59  85 116 162 203 246 306 360
#     4  10  24  42  64  78 108 162 200 238 304 362
#     4  10  20  35  57  88 119 151 199 251 300 355
#     4   9  17  31  53  83 117 153 198 253 309 361
#
# _framework density 22.229876999999998
#
# number of rings (size 3 to 8) (size 9 to 14) (size 15 to 20)
#    0.000    2.182    0.000    3.273    0.000    4.364 
#    0.000   16.364    0.000    0.000    0.000    0.000 
#    0.000    0.000    0.000    0.000    0.000    0.000 
#
# Total GULP energy -245324.112363 kJ/mol
# GULP energy per Si atom -5575.548008 kJ/mol
# Density = 2.217928 g / cm^3
# Si number density = 22.229877 Si / 1000 Ang^3
#
#
#
# Elastic Constant Matrix: (Units=GPa)
#
#
# Indices 1 2 3 4 5 6 
#
# 1 87.9775 38.4630 13.4914 0.0000 0.0000 0.0000
# 2 38.4630 87.9775 13.4914 0.0000 0.0000 0.0000
# 3 13.4914 13.4914 78.9466 0.0000 0.0000 0.0000
# 4 0.0000 0.0000 0.0000 14.4015 0.0000 0.0000
# 5 0.0000 0.0000 0.0000 0.0000 14.4015 0.0000
# 6 0.0000 0.0000 0.0000 0.0000 0.0000 23.5765
#
#
#
# Elastic Compliance Matrix: (Units=1/GPa)
#
#
# Indices 1 2 3 4 5 6 
#
# 1 0.014202 -0.005994 -0.001403 0.000000 0.000000 0.000000
# 2 -0.005994 0.014202 -0.001403 0.000000 0.000000 0.000000
# 3 -0.001403 -0.001403 0.013146 0.000000 0.000000 0.000000
# 4 0.000000 0.000000 0.000000 0.069437 0.000000 0.000000
# 5 0.000000 0.000000 0.000000 0.000000 0.069437 0.000000
# 6 0.000000 0.000000 0.000000 0.000000 0.000000 0.042415
#
#
# Mechanical properties :
#
#
# Convention : Reuss Voigt Hill
#
# Bulk Modulus (GPa) = 41.75061 42.86590 42.30826
# Shear Modulus (GPa) = 20.12699 23.10630 21.61664
#
# Velocity S-wave (km/s) = 3.01226 3.22751 3.12174
# Velocity P-wave (km/s) = 5.56060 5.76316 5.66279
#
# Compressibility (1/GPa) = 0.02395175
#
# Stress axis : x y z
#
# Youngs Moduli (GPa) = 70.41183 70.41183 76.06749
#
# Poissons Ratio (x) = 0.42205 0.10670
# Poissons Ratio (y) = 0.42205 0.10670
# Poissons Ratio (z) = 0.09877 0.09877
#
# Static dielectric constant tensor:
#      x y z
#    x 1.841420 0.000000 0.000000 
#    y 0.000000 1.841420 0.000000 
#    z 0.000000 0.000000 1.816890 
# 
# From -- ./inp_files/1599.got.cif
#   From: 2010.05.17/outbox.cif.g08.bks.cpg/sg114_1_cif.got.tgz:1599.got - 2010.05.20 11:04:54.
