data_PCOD9555269
_publ_section_title
;
Structure prediction by ZEFSAII (Michael W. Deem and Ramdas Pophale) SiO2 
 PCOD9555269
Probable space group: P -4 2 C
;
_chemical_formula_sum "Si O2"
_cell_formula_units_Z 34
_cell_length_a 8.171212
_cell_length_b 8.171212
_cell_length_c 22.594628
_cell_angle_alpha 90.000000
_cell_angle_beta 90.000000
_cell_angle_gamma 90.000000
_cell_volume 1508.614064
_symmetry_space_group_name_H-M "P -4 2 C"
_symmetry_group_IT_number 112
_symmetry_cell_setting 'tetragonal'
loop_
_space_group_symop_operation_xyz
x,y,z
y,-x,-z
-x,-y,z
-y,x,-z
x,-y,1/2-z
-x,y,1/2-z
-y,-x,1/2+z
y,x,1/2+z
loop_
_atom_site_type_symbol
_atom_site_label
_atom_site_fract_x
_atom_site_fract_y
_atom_site_fract_z
Si Si1 0.500000 0.000000 0.250000
Si Si2 0.762236 0.775504 0.180317
Si Si3 0.500000 0.500000 0.000000
Si Si4 0.682388 0.949002 0.068335
Si Si5 0.000000 0.500000 0.157607
Si Si6 0.305226 0.201481 0.939778
Si Si7 0.000000 0.000000 0.250000
O O1 0.605283 0.867171 0.211050
O O2 0.738815 0.801868 0.110241
O O3 0.852567 0.600358 0.190112
O O4 0.897553 0.891366 0.206604
O O5 0.395656 0.373043 0.958691
O O6 0.500000 0.000000 0.084850
O O7 0.780453 0.115536 0.076281
O O8 0.685168 0.900573 0.000156
O O9 0.104773 0.614979 0.113941
#
# Coordination Sequence:
#
# PCOD9555269 Si02
#       7
#     2   8   2   8   4   8   2
#     4  10  24  48  84 104 136 190 264 306 368 438
#     4  11  24  46  74 104 137 189 249 310 368 435
#     4  12  20  36  60  96 148 190 232 292 340 404
#     4  12  23  41  68 101 141 193 236 285 362 443
#     4  12  26  44  70 112 146 186 232 300 380 444
#     4  12  24  40  66 104 151 187 233 293 354 456
#     4  10  24  48  76  96 136 188 244 318 360 438
#
# _framework density 22.537244000000001
#
# number of rings (size 3 to 8) (size 9 to 14) (size 15 to 20)
#    0.000    0.471    4.706    4.235    0.000    2.824 
#    0.000    0.000    5.176    0.000    0.000    0.000 
#    0.000    0.000    0.000    0.000    0.000    0.000 
#
# Total GULP energy -189617.620608 kJ/mol
# GULP energy per Si atom -5576.988841 kJ/mol
# Density = 2.248595 g / cm^3
# Si number density = 22.537244 Si / 1000 Ang^3
#
#
#
# Elastic Constant Matrix: (Units=GPa)
#
#
# Indices 1 2 3 4 5 6 
#
# 1 105.6720 40.5187 27.4216 0.0000 0.0000 0.0000
# 2 40.5187 105.6720 27.4216 0.0000 0.0000 0.0000
# 3 27.4216 27.4216 64.5520 0.0000 0.0000 0.0000
# 4 0.0000 0.0000 0.0000 -8.3028 0.0000 0.0000
# 5 0.0000 0.0000 0.0000 0.0000 -8.3028 0.0000
# 6 0.0000 0.0000 0.0000 0.0000 0.0000 56.3563
#
#
#
# Elastic Compliance Matrix: (Units=1/GPa)
#
#
# Indices 1 2 3 4 5 6 
#
# 1 0.011743 -0.003606 -0.003457 0.000000 0.000000 0.000000
# 2 -0.003606 0.011743 -0.003457 0.000000 0.000000 0.000000
# 3 -0.003457 -0.003457 0.018428 0.000000 0.000000 0.000000
# 4 0.000000 0.000000 0.000000 -0.120442 0.000000 0.000000
# 5 0.000000 0.000000 0.000000 0.000000 -0.120442 0.000000
# 6 0.000000 0.000000 0.000000 0.000000 0.000000 0.017744
#
#
# Mechanical properties :
#
#
# Convention : Reuss Voigt Hill
#
# Bulk Modulus (GPa) = 47.90227 51.84664 49.87446
# Shear Modulus (GPa) = -32.63083 19.98577 -6.32253
#
# Velocity S-wave (km/s) = -3.80921 2.98113 -1.67674
# Velocity P-wave (km/s) = 1.39790 5.90799 4.29293
#
# Compressibility (1/GPa) = 0.02087584
#
# Stress axis : x y z
#
# Youngs Moduli (GPa) = 85.15877 85.15877 54.26491
#
# Poissons Ratio (x) = 0.30705 0.18757
# Poissons Ratio (y) = 0.30705 0.18757
# Poissons Ratio (z) = 0.29436 0.29436
#
# Static dielectric constant tensor:
#      x y z
#    x 1.835970 0.000000 0.000000 
#    y 0.000000 1.835970 0.000000 
#    z 0.000000 0.000000 1.877550 
# 
# From -- ./inp_files/5775.got.cif
#   From: 2010.05.17/outbox.cif.g08.bks.cpg/sg112_3_cif.got.tgz:5775.got - 2010.05.20 10:59:04.
