data_PCOD9555819
_publ_section_title
;
Structure prediction by ZEFSAII (Michael W. Deem and Ramdas Pophale) SiO2 
 PCOD9555819
Probable space group: P -4 21 C
;
_chemical_formula_sum "Si O2"
_cell_formula_units_Z 40
_cell_length_a 10.337698
_cell_length_b 10.337698
_cell_length_c 18.291523
_cell_angle_alpha 90.000000
_cell_angle_beta 90.000000
_cell_angle_gamma 90.000000
_cell_volume 1954.778479
_symmetry_space_group_name_H-M "P -4 21 C"
_symmetry_group_IT_number 114
_symmetry_cell_setting 'tetragonal'
loop_
_space_group_symop_operation_xyz
x,y,z
y,-x,-z
-x,-y,z
-y,x,-z
1/2+x,1/2-y,1/2-z
1/2-x,1/2+y,1/2-z
1/2-y,1/2-x,1/2+z
1/2+y,1/2+x,1/2+z
loop_
_atom_site_type_symbol
_atom_site_label
_atom_site_fract_x
_atom_site_fract_y
_atom_site_fract_z
Si Si1 0.670778 0.742293 0.295792
Si Si2 0.596006 0.229315 0.922820
Si Si3 0.205443 0.779292 0.565500
Si Si4 0.482147 0.348104 0.168485
Si Si5 0.030969 0.358900 0.727717
O O1 0.663986 0.742342 0.383500
O O2 0.544673 0.715709 0.246767
O O3 0.771094 0.632611 0.270081
O O4 0.710485 0.890391 0.276650
O O5 0.448347 0.259021 0.949576
O O6 0.655755 0.353278 0.880937
O O7 0.580682 0.128480 0.856437
O O8 0.684261 0.214017 0.993926
O O9 0.207794 0.902715 0.620123
O O10 0.500000 0.500000 0.180928
O O11 0.000000 0.500000 0.758865
#
# Coordination Sequence:
#
# PCOD9555819 Si02
#       5
#     8   8   8   8   8
#     4  10  21  34  55  84 115 156 189 241 300 369
#     4   9  17  28  52  80 105 141 182 242 292 332
#     4  10  16  29  52  80 110 136 190 241 291 337
#     4   9  17  29  51  80 111 145 186 238 294 341
#     4  10  21  38  55  82 121 150 195 244 300 361
#
# _framework density 20.462676999999999
#
# number of rings (size 3 to 8) (size 9 to 14) (size 15 to 20)
#    0.000    2.400    2.000    2.400    0.000    0.000 
#    0.000    3.000    0.000    0.000    0.000    0.000 
#    0.000    0.000    0.000    0.000    0.000    0.000 
#
# Total GULP energy -222820.161966 kJ/mol
# GULP energy per Si atom -5570.504049 kJ/mol
# Density = 2.041610 g / cm^3
# Si number density = 20.462677 Si / 1000 Ang^3
#
#
#
# Elastic Constant Matrix: (Units=GPa)
#
#
# Indices 1 2 3 4 5 6 
#
# 1 35.2779 -3.9788 3.4955 0.0000 0.0000 0.0000
# 2 -3.9788 35.2779 3.4955 0.0000 0.0000 0.0000
# 3 3.4955 3.4955 95.3033 0.0000 0.0000 0.0000
# 4 0.0000 0.0000 0.0000 34.8937 0.0000 0.0000
# 5 0.0000 0.0000 0.0000 0.0000 34.8937 0.0000
# 6 0.0000 0.0000 0.0000 0.0000 0.0000 22.4350
#
#
#
# Elastic Compliance Matrix: (Units=1/GPa)
#
#
# Indices 1 2 3 4 5 6 
#
# 1 0.028844 0.003370 -0.001182 0.000000 0.000000 0.000000
# 2 0.003370 0.028844 -0.001182 0.000000 0.000000 0.000000
# 3 -0.001182 -0.001182 0.010579 0.000000 0.000000 0.000000
# 4 0.000000 0.000000 0.000000 0.028659 0.000000 0.000000
# 5 0.000000 0.000000 0.000000 0.000000 0.028659 0.000000
# 6 0.000000 0.000000 0.000000 0.000000 0.000000 0.044573
#
#
# Mechanical properties :
#
#
# Convention : Reuss Voigt Hill
#
# Bulk Modulus (GPa) = 14.22864 19.09818 16.66341
# Shear Modulus (GPa) = 26.10021 29.30093 27.70057
#
# Velocity S-wave (km/s) = 3.57529 3.78818 3.68327
# Velocity P-wave (km/s) = 4.90022 5.33734 5.12344
#
# Compressibility (1/GPa) = 0.07028077
#
# Stress axis : x y z
#
# Youngs Moduli (GPa) = 34.66984 34.66984 94.52250
#
# Poissons Ratio (x) = -0.11684 0.11168
# Poissons Ratio (y) = -0.11684 0.11168
# Poissons Ratio (z) = 0.04096 0.04096
#
# Static dielectric constant tensor:
#      x y z
#    x 1.804730 0.000000 0.000000 
#    y 0.000000 1.804730 0.000000 
#    z 0.000000 0.000000 1.755990 
# 
# From -- ./inp_files/2109.got.cif
#   From: 2010.05.17/outbox.cif.g08.bks.cpg/sg114_2_cif.got.tgz:2109.got - 2010.05.20 11:04:54.
