data_PCOD9555646
_publ_section_title
;
Structure prediction by ZEFSAII (Michael W. Deem and Ramdas Pophale) SiO2 
 PCOD9555646
Probable space group: P -4 21 M 
;
_chemical_formula_sum "Si O2"
_cell_formula_units_Z 48
_cell_length_a 14.083169
_cell_length_b 14.083169
_cell_length_c 11.646534
_cell_angle_alpha 90.000000
_cell_angle_beta 90.000000
_cell_angle_gamma 90.000000
_cell_volume 2309.922880
_symmetry_space_group_name_H-M "P -4 21 M "
_symmetry_group_IT_number 113
_symmetry_cell_setting 'tetragonal'
loop_
_space_group_symop_operation_xyz
x,y,z
y,-x,-z
-x,-y,z
-y,x,-z
1/2+x,1/2-y,-z
1/2-x,1/2+y,-z
1/2-y,1/2-x,z
1/2+y,1/2+x,z
loop_
_atom_site_type_symbol
_atom_site_label
_atom_site_fract_x
_atom_site_fract_y
_atom_site_fract_z
Si Si1 0.917723 0.582278 0.584943
Si Si2 0.120458 0.069255 0.437995
Si Si3 0.393032 0.500749 0.818608
Si Si4 0.220405 0.562988 0.961979
Si Si5 0.379945 0.278519 0.787311
Si Si6 0.580959 0.080959 0.149890
Si Si7 0.793254 0.447740 0.445100
O O1 0.894337 0.605664 0.717828
O O2 0.830237 0.539311 0.513606
O O3 0.000000 0.500000 0.590380
O O4 0.222622 0.108797 0.469945
O O5 0.033840 0.121258 0.499028
O O6 0.104558 0.051391 0.305287
O O7 0.500000 0.500000 0.864233
O O8 0.320428 0.557589 0.897705
O O9 0.362903 0.390880 0.800006
O O10 0.152990 0.652990 0.930869
O O11 0.165114 0.468873 0.920191
O O12 0.239979 0.570800 0.097115
O O13 0.282968 0.217033 0.772502
O O14 0.447486 0.258121 0.678145
O O15 0.500000 0.000000 0.157346
O O16 0.887396 0.387396 0.422847
#
# Coordination Sequence:
#
# PCOD9555646 Si02
#       7
#     4   8   8   8   8   4   8
#     4   9  18  33  61  93 127 158 199 255 312 386
#     4  11  20  40  60  84 124 158 202 261 313 373
#     4  12  24  40  68  89 126 175 220 264 333 396
#     4  10  24  42  65  96 132 169 220 278 329 391
#     4  10  23  42  62  93 129 167 218 267 322 390
#     4   9  18  39  63  97 131 168 210 264 337 389
#     4  10  20  38  62  92 125 161 204 258 323 390
#
# _framework density 20.779916
#
# number of rings (size 3 to 8) (size 9 to 14) (size 15 to 20)
#    0.000    1.667    3.333    1.000    3.500    2.667 
#    3.000    3.333    5.500    0.000    0.000    0.000 
#    0.000    0.000    0.000    0.000    0.000    0.000 
#
# Total GULP energy -267899.962234 kJ/mol
# GULP energy per Si atom -5581.249213 kJ/mol
# Density = 2.073262 g / cm^3
# Si number density = 20.779916 Si / 1000 Ang^3
#
#
#
# Elastic Constant Matrix: (Units=GPa)
#
#
# Indices 1 2 3 4 5 6 
#
# 1 68.6169 10.7187 27.8072 0.0000 0.0000 0.0000
# 2 10.7187 68.6165 27.8075 0.0000 0.0000 0.0000
# 3 27.8072 27.8075 106.5613 0.0000 0.0000 0.0000
# 4 0.0000 0.0000 0.0000 21.6406 0.0000 0.0000
# 5 0.0000 0.0000 0.0000 0.0000 21.6415 0.0000
# 6 0.0000 0.0000 0.0000 0.0000 0.0000 21.1057
#
#
#
# Elastic Compliance Matrix: (Units=1/GPa)
#
#
# Indices 1 2 3 4 5 6 
#
# 1 0.016349 -0.000923 -0.004026 0.000000 0.000000 0.000000
# 2 -0.000923 0.016349 -0.004026 0.000000 0.000000 0.000000
# 3 -0.004026 -0.004026 0.011485 0.000000 0.000000 0.000000
# 4 0.000000 0.000000 0.000000 0.046209 0.000000 0.000000
# 5 0.000000 0.000000 0.000000 0.000000 0.046208 0.000000
# 6 0.000000 0.000000 0.000000 0.000000 0.000000 0.047381
#
#
# Mechanical properties :
#
#
# Convention : Reuss Voigt Hill
#
# Bulk Modulus (GPa) = 38.11530 41.82904 39.97217
# Shear Modulus (GPa) = 23.73332 24.70831 24.22081
#
# Velocity S-wave (km/s) = 3.38320 3.45200 3.41777
# Velocity P-wave (km/s) = 5.80031 6.00513 5.90361
#
# Compressibility (1/GPa) = 0.02623618
#
# Stress axis : x y z
#
# Youngs Moduli (GPa) = 61.16522 61.16470 87.06813
#
# Poissons Ratio (x) = 0.05643 0.35050
# Poissons Ratio (y) = 0.05643 0.35051
# Poissons Ratio (z) = 0.24623 0.24623
#
# Static dielectric constant tensor:
#      x y z
#    x 1.810890 0.000000 0.000000 
#    y 0.000000 1.810890 0.000000 
#    z 0.000000 0.000000 1.719010 
# 
# From -- ./inp_files/1873.got.cif
#   From: 2010.05.17/outbox.cif.g08.bks.cpg/sg113_cif.got.tgz:1873.got - 2010.05.20 11:03:00.
