data_PCOD9555107
_publ_section_title
;
Structure prediction by ZEFSAII (Michael W. Deem and Ramdas Pophale) SiO2 
 PCOD9555107
Probable space group: P -4 2 C
;
_chemical_formula_sum "Si O2"
_cell_formula_units_Z 36
_cell_length_a 13.789544
_cell_length_b 13.789544
_cell_length_c 9.211614
_cell_angle_alpha 90.000000
_cell_angle_beta 90.000000
_cell_angle_gamma 90.000000
_cell_volume 1751.602438
_symmetry_space_group_name_H-M "P -4 2 C"
_symmetry_group_IT_number 112
_symmetry_cell_setting 'tetragonal'
loop_
_space_group_symop_operation_xyz
x,y,z
y,-x,-z
-x,-y,z
-y,x,-z
x,-y,1/2-z
-x,y,1/2-z
-y,-x,1/2+z
y,x,1/2+z
loop_
_atom_site_type_symbol
_atom_site_label
_atom_site_fract_x
_atom_site_fract_y
_atom_site_fract_z
Si Si1 0.599101 0.230177 0.840233
Si Si2 0.330131 0.594203 0.654061
Si Si3 0.500000 0.500000 0.000000
Si Si4 0.164468 0.116649 0.868428
Si Si5 0.000000 0.000000 0.500000
Si Si6 0.918773 0.744103 0.073085
O O1 0.500000 0.223966 0.750000
O O2 0.665756 0.307221 0.748769
O O3 0.645074 0.123525 0.862650
O O4 0.593000 0.271360 0.003892
O O5 0.302379 0.500000 0.750000
O O6 0.439910 0.572907 0.599633
O O7 0.180956 0.114136 0.698446
O O8 0.241087 0.035910 0.934163
O O9 0.147607 0.222135 0.937655
O O10 0.061489 0.070974 0.903501
#
# Coordination Sequence:
#
# PCOD9555107 Si02
#       6
#     8   8   2   8   2   8
#     4  12  22  36  54  83 115 153 191 232 293 358
#     4  12  21  34  56  82 113 144 188 244 299 347
#     4  12  18  32  54  80 106 136 174 252 294 332
#     4   9  19  36  55  86 109 144 186 240 301 344
#     4   8  16  30  60  82 108 130 180 250 304 334
#     4  10  21  35  57  81 115 145 187 238 291 353
#
# _framework density 20.552607999999999
#
# number of rings (size 3 to 8) (size 9 to 14) (size 15 to 20)
#    0.000    1.333    4.444    1.667    0.000   13.333 
#    0.000    2.222    0.000    0.000    0.000    1.556 
#    0.000    0.000    0.000    0.000    0.000    0.000 
#
# Total GULP energy -200464.002016 kJ/mol
# GULP energy per Si atom -5568.444500 kJ/mol
# Density = 2.050583 g / cm^3
# Si number density = 20.552608 Si / 1000 Ang^3
#
#
#
# Elastic Constant Matrix: (Units=GPa)
#
#
# Indices 1 2 3 4 5 6 
#
# 1 38.3942 11.0300 -5.8013 0.0000 0.0000 0.0000
# 2 11.0300 38.3942 -5.8013 0.0000 0.0000 0.0000
# 3 -5.8013 -5.8013 77.7511 0.0000 0.0000 0.0000
# 4 0.0000 0.0000 0.0000 21.3674 0.0000 0.0000
# 5 0.0000 0.0000 0.0000 0.0000 21.3674 0.0000
# 6 0.0000 0.0000 0.0000 0.0000 0.0000 26.5763
#
#
#
# Elastic Compliance Matrix: (Units=1/GPa)
#
#
# Indices 1 2 3 4 5 6 
#
# 1 0.028569 -0.007975 0.001537 0.000000 0.000000 0.000000
# 2 -0.007975 0.028569 0.001537 0.000000 0.000000 0.000000
# 3 0.001537 0.001537 0.013091 0.000000 0.000000 0.000000
# 4 0.000000 0.000000 0.000000 0.046800 0.000000 0.000000
# 5 0.000000 0.000000 0.000000 0.000000 0.046800 0.000000
# 6 0.000000 0.000000 0.000000 0.000000 0.000000 0.037627
#
#
# Mechanical properties :
#
#
# Convention : Reuss Voigt Hill
#
# Bulk Modulus (GPa) = 16.54952 17.04378 16.79665
# Shear Modulus (GPa) = 21.60741 24.20305 22.90523
#
# Velocity S-wave (km/s) = 3.24593 3.43536 3.34199
# Velocity P-wave (km/s) = 4.70296 4.90371 4.80438
#
# Compressibility (1/GPa) = 0.06042472
#
# Stress axis : x y z
#
# Youngs Moduli (GPa) = 35.00308 35.00308 76.38915
#
# Poissons Ratio (x) = 0.27916 -0.11738
# Poissons Ratio (y) = 0.27916 -0.11738
# Poissons Ratio (z) = -0.05379 -0.05379
#
# Static dielectric constant tensor:
#      x y z
#    x 1.839080 0.000000 0.000000 
#    y 0.000000 1.839080 0.000000 
#    z 0.000000 0.000000 1.769760 
# 
# From -- ./inp_files/1152.got.cif
#   From: 2010.05.17/outbox.cif.g08.bks.cpg/sg112_1_cif.got.tgz:1152.got - 2010.05.20 10:59:04.
