data_PCOD9555420
_publ_section_title
;
Structure prediction by ZEFSAII (Michael W. Deem and Ramdas Pophale) SiO2 
 PCOD9555420
Probable space group: P -4 2 C
;
_chemical_formula_sum "Si O2"
_cell_formula_units_Z 20
_cell_length_a 5.389363
_cell_length_b 5.389363
_cell_length_c 25.765834
_cell_angle_alpha 90.000000
_cell_angle_beta 90.000000
_cell_angle_gamma 90.000000
_cell_volume 748.374666
_symmetry_space_group_name_H-M "P -4 2 C"
_symmetry_group_IT_number 112
_symmetry_cell_setting 'tetragonal'
loop_
_space_group_symop_operation_xyz
x,y,z
y,-x,-z
-x,-y,z
-y,x,-z
x,-y,1/2-z
-x,y,1/2-z
-y,-x,1/2+z
y,x,1/2+z
loop_
_atom_site_type_symbol
_atom_site_label
_atom_site_fract_x
_atom_site_fract_y
_atom_site_fract_z
Si Si1 0.500000 0.000000 0.250000
Si Si2 0.500000 0.000000 0.011086
Si Si3 0.000000 0.000000 0.918128
Si Si4 0.239379 0.647269 0.331737
Si Si5 0.500000 0.500000 0.500000
O O1 0.665563 0.167170 0.287661
O O2 0.748662 0.028007 0.046076
O O3 0.488770 0.763225 0.973947
O O4 0.206521 0.891872 0.878982
O O5 0.500000 0.500000 0.346355
O O6 0.000000 0.500000 0.311099
#
# Coordination Sequence:
#
# PCOD9555420 Si02
#       5
#     2   4   4   8   2
#     4  12  28  50  68 116 152 210 282 326 404 460
#     4  12  27  50  82 113 164 196 262 323 396 500
#     4  12  28  48  76 114 150 204 260 324 394 484
#     4  12  28  48  75 108 153 211 262 335 395 467
#     4  12  28  52  80 124 148 214 248 320 412 484
#
# _framework density 26.724585000000001
#
# number of rings (size 3 to 8) (size 9 to 14) (size 15 to 20)
#    0.000    0.000    0.000    9.000    8.400   12.000 
#    0.000    0.000    0.000    0.000    0.000    0.000 
#    0.000    0.000    0.000    0.000    0.000    0.000 
#
# Total GULP energy -111381.208278 kJ/mol
# GULP energy per Si atom -5569.060414 kJ/mol
# Density = 2.666376 g / cm^3
# Si number density = 26.724585 Si / 1000 Ang^3
#
#
#
# Elastic Constant Matrix: (Units=GPa)
#
#
# Indices 1 2 3 4 5 6 
#
# 1 308.9799 75.4758 97.6648 0.0000 0.0000 0.0000
# 2 75.4758 308.9799 97.6648 0.0000 0.0000 0.0000
# 3 97.6648 97.6648 153.6176 0.0000 0.0000 0.0000
# 4 0.0000 0.0000 0.0000 56.3488 0.0000 0.0000
# 5 0.0000 0.0000 0.0000 0.0000 56.3488 0.0000
# 6 0.0000 0.0000 0.0000 0.0000 0.0000 43.2177
#
#
#
# Elastic Compliance Matrix: (Units=1/GPa)
#
#
# Indices 1 2 3 4 5 6 
#
# 1 0.004062 -0.000220 -0.002443 0.000000 0.000000 0.000000
# 2 -0.000220 0.004062 -0.002443 0.000000 0.000000 0.000000
# 3 -0.002443 -0.002443 0.009616 0.000000 0.000000 0.000000
# 4 0.000000 0.000000 0.000000 0.017747 0.000000 0.000000
# 5 0.000000 0.000000 0.000000 0.000000 0.017747 0.000000
# 6 0.000000 0.000000 0.000000 0.000000 0.000000 0.023139
#
#
# Mechanical properties :
#
#
# Convention : Reuss Voigt Hill
#
# Bulk Modulus (GPa) = 132.81769 145.90980 139.36374
# Shear Modulus (GPa) = 56.12099 64.56784 60.34441
#
# Velocity S-wave (km/s) = 4.58752 4.92066 4.75701
# Velocity P-wave (km/s) = 8.82423 9.32738 9.07929
#
# Compressibility (1/GPa) = 0.00752912
#
# Stress axis : x y z
#
# Youngs Moduli (GPa) = 246.16246 246.16246 103.99723
#
# Poissons Ratio (x) = 0.05421 0.25403
# Poissons Ratio (y) = 0.05421 0.25403
# Poissons Ratio (z) = 0.60130 0.60130
#
# Static dielectric constant tensor:
#      x y z
#    x 2.150070 0.000000 0.000000 
#    y 0.000000 2.150070 0.000000 
#    z 0.000000 0.000000 2.032220 
# 
# From -- ./inp_files/5630.got.cif
#   From: 2010.05.17/outbox.cif.g08.bks.cpg/sg112_3_cif.got.tgz:5630.got - 2010.05.20 10:59:04.
