data_PCOD9555488
_publ_section_title
;
Structure prediction by ZEFSAII (Michael W. Deem and Ramdas Pophale) SiO2 
 PCOD9555488
Probable space group: P -4 21 M 
;
_chemical_formula_sum "Si O2"
_cell_formula_units_Z 64
_cell_length_a 12.099076
_cell_length_b 12.099076
_cell_length_c 25.249280
_cell_angle_alpha 90.000000
_cell_angle_beta 90.000000
_cell_angle_gamma 90.000000
_cell_volume 3696.182512
_symmetry_space_group_name_H-M "P -4 21 M "
_symmetry_group_IT_number 113
_symmetry_cell_setting 'tetragonal'
loop_
_space_group_symop_operation_xyz
x,y,z
y,-x,-z
-x,-y,z
-y,x,-z
1/2+x,1/2-y,-z
1/2-x,1/2+y,-z
1/2-y,1/2-x,z
1/2+y,1/2+x,z
loop_
_atom_site_type_symbol
_atom_site_label
_atom_site_fract_x
_atom_site_fract_y
_atom_site_fract_z
Si Si1 0.155416 0.833646 0.946305
Si Si2 0.918045 0.246515 0.616730
Si Si3 0.747609 0.072341 0.661956
Si Si4 0.529330 0.622557 0.862583
Si Si5 0.347244 0.596584 0.500911
Si Si6 0.230762 0.910285 0.061787
Si Si7 0.496478 0.817955 0.779884
Si Si8 0.667694 0.339372 0.383300
O O1 0.258574 0.758574 0.930073
O O2 0.042355 0.764768 0.941447
O O3 0.143789 0.940257 0.909211
O O4 0.174527 0.870188 0.006886
O O5 0.870398 0.370398 0.627320
O O6 0.839912 0.164254 0.649903
O O7 0.897979 0.223887 0.553926
O O8 0.043587 0.205996 0.626863
O O9 0.631699 0.131699 0.642998
O O10 0.727764 0.043323 0.723220
O O11 0.794711 0.960230 0.636126
O O12 0.500000 0.500000 0.841167
O O13 0.648926 0.620149 0.890218
O O14 0.519622 0.717854 0.819400
O O15 0.468821 0.639808 0.515353
O O16 0.318070 0.656741 0.446891
O O17 0.345695 0.845695 0.066747
O O18 0.603662 0.896339 0.773000
O O19 0.398644 0.898644 0.800269
O O20 0.752359 0.252359 0.359187
#
# Coordination Sequence:
#
# PCOD9555488 Si02
#       8
#     8   8   8   8   8   8   8   8
#     4  10  19  32  50  72 104 142 180 220 262 314
#     4  10  20  35  54  76 106 145 185 227 270 327
#     4  10  21  38  59  79 105 144 185 231 279 329
#     4  10  20  33  55  80 107 143 180 219 265 320
#     4   9  16  30  52  76 104 138 181 224 267 324
#     4  10  19  32  50  72 104 142 180 221 263 313
#     4  10  21  38  58  82 112 139 176 232 285 326
#     4  11  21  33  53  80 110 143 179 226 279 334
#
# _framework density 17.315162999999998
#
# number of rings (size 3 to 8) (size 9 to 14) (size 15 to 20)
#    0.000    2.000    2.500    1.875    0.000    2.250 
#    0.000    0.000    0.000    1.500    0.000    0.000 
#    0.000    6.000    0.000    0.000    0.000    0.000 
#
# Total GULP energy -356435.479002 kJ/mol
# GULP energy per Si atom -5569.304359 kJ/mol
# Density = 1.727575 g / cm^3
# Si number density = 17.315163 Si / 1000 Ang^3
#
#
#
# Elastic Constant Matrix: (Units=GPa)
#
#
# Indices 1 2 3 4 5 6 
#
# 1 50.5312 19.5713 4.4937 0.0000 0.0000 0.0000
# 2 19.5713 50.5292 4.4932 0.0000 0.0000 0.0000
# 3 4.4937 4.4932 40.2694 0.0000 0.0000 0.0000
# 4 0.0000 0.0000 0.0000 18.9996 0.0000 0.0000
# 5 0.0000 0.0000 0.0000 0.0000 19.0005 0.0000
# 6 0.0000 0.0000 0.0000 0.0000 0.0000 31.0810
#
#
#
# Elastic Compliance Matrix: (Units=1/GPa)
#
#
# Indices 1 2 3 4 5 6 
#
# 1 0.023386 -0.008914 -0.001615 0.000000 0.000000 0.000000
# 2 -0.008914 0.023387 -0.001615 0.000000 0.000000 0.000000
# 3 -0.001615 -0.001615 0.025193 0.000000 0.000000 0.000000
# 4 0.000000 0.000000 0.000000 0.052633 0.000000 0.000000
# 5 0.000000 0.000000 0.000000 0.000000 0.052630 0.000000
# 6 0.000000 0.000000 0.000000 0.000000 0.000000 0.032174
#
#
# Mechanical properties :
#
#
# Convention : Reuss Voigt Hill
#
# Bulk Modulus (GPa) = 20.97412 22.04958 21.51185
# Shear Modulus (GPa) = 20.03333 21.33431 20.68382
#
# Velocity S-wave (km/s) = 3.40513 3.51396 3.45998
# Velocity P-wave (km/s) = 5.25351 5.40609 5.33035
#
# Compressibility (1/GPa) = 0.04767780
#
# Stress axis : x y z
#
# Youngs Moduli (GPa) = 42.76050 42.75890 39.69335
#
# Poissons Ratio (x) = 0.38117 0.06411
# Poissons Ratio (y) = 0.38119 0.06409
# Poissons Ratio (z) = 0.06906 0.06904
#
# Static dielectric constant tensor:
#      x y z
#    x 1.600330 0.000000 0.000000 
#    y 0.000000 1.600330 0.000000 
#    z 0.000000 0.000000 1.546780 
# 
# From -- ./inp_files/2921.got.cif
#   From: 2010.05.17/outbox.cif.g08.bks.cpg/sg113_cif.got.tgz:2921.got - 2010.05.20 11:03:00.
