data_PCOD9555099
_publ_section_title
;
Structure prediction by ZEFSAII (Michael W. Deem and Ramdas Pophale) SiO2 
 PCOD9555099
Probable space group: P -4 2 C
;
_chemical_formula_sum "Si O2"
_cell_formula_units_Z 56
_cell_length_a 20.935290
_cell_length_b 20.935290
_cell_length_c 9.019454
_cell_angle_alpha 90.000000
_cell_angle_beta 90.000000
_cell_angle_gamma 90.000000
_cell_volume 3953.103729
_symmetry_space_group_name_H-M "P -4 2 C"
_symmetry_group_IT_number 112
_symmetry_cell_setting 'tetragonal'
loop_
_space_group_symop_operation_xyz
x,y,z
y,-x,-z
-x,-y,z
-y,x,-z
x,-y,1/2-z
-x,y,1/2-z
-y,-x,1/2+z
y,x,1/2+z
loop_
_atom_site_type_symbol
_atom_site_label
_atom_site_fract_x
_atom_site_fract_y
_atom_site_fract_z
Si Si1 0.850512 0.240724 0.900612
Si Si2 0.144382 0.760438 0.541915
Si Si3 0.922648 0.499279 0.080923
Si Si4 0.954469 0.142130 0.875105
Si Si5 0.044708 0.147067 0.124446
Si Si6 0.632580 0.927952 0.433851
Si Si7 0.632505 0.076728 0.422457
O O1 0.850016 0.234233 0.720852
O O2 0.909347 0.195221 0.946735
O O3 0.872737 0.310835 0.950503
O O4 0.786865 0.209982 0.970146
O O5 0.090113 0.804768 0.465599
O O6 0.118965 0.688977 0.515309
O O7 0.899820 0.500000 0.250000
O O8 0.000000 0.500000 0.082693
O O9 0.906334 0.565192 0.000432
O O10 0.904172 0.434599 0.996021
O O11 0.907559 0.089580 0.807295
O O12 0.000000 0.171219 0.750000
O O13 0.999057 0.115471 0.002807
O O14 0.000000 0.176988 0.250000
O O15 0.627158 0.925962 0.255723
O O16 0.646775 0.002972 0.471992
#
# Coordination Sequence:
#
# PCOD9555099 Si02
#       7
#     8   8   8   8   8   8   8
#     4  10  21  33  49  62  84 111 143 179 214 264
#     4  10  21  35  46  65  83 110 145 177 217 262
#     4   9  17  29  43  70  95 106 131 173 218 261
#     4  11  21  35  46  56  78  98 136 181 226 275
#     4  11  23  33  45  61  73 101 136 182 231 274
#     4   9  17  31  48  66  85 113 145 173 214 268
#     4   9  17  30  50  65  83 117 142 173 216 265
#
# _framework density 14.166083
#
# number of rings (size 3 to 8) (size 9 to 14) (size 15 to 20)
#    0.000    2.143    1.429    2.143    8.000    4.571 
#    5.143    0.000    0.000    0.000    0.000    0.000 
#    0.000    0.000    0.000    0.000    0.000    0.714 
#
# Total GULP energy -311938.059627 kJ/mol
# GULP energy per Si atom -5570.322493 kJ/mol
# Density = 1.413384 g / cm^3
# Si number density = 14.166083 Si / 1000 Ang^3
#
#
#
# Elastic Constant Matrix: (Units=GPa)
#
#
# Indices 1 2 3 4 5 6 
#
# 1 92.1784 43.9898 31.0477 0.0000 0.0000 0.0000
# 2 43.9898 92.1784 31.0477 0.0000 0.0000 0.0000
# 3 31.0477 31.0477 36.4792 0.0000 0.0000 0.0000
# 4 0.0000 0.0000 0.0000 17.6993 0.0000 0.0000
# 5 0.0000 0.0000 0.0000 0.0000 17.6993 0.0000
# 6 0.0000 0.0000 0.0000 0.0000 0.0000 13.7355
#
#
#
# Elastic Compliance Matrix: (Units=1/GPa)
#
#
# Indices 1 2 3 4 5 6 
#
# 1 0.016377 -0.004375 -0.010215 0.000000 0.000000 0.000000
# 2 -0.004375 0.016377 -0.010215 0.000000 0.000000 0.000000
# 3 -0.010215 -0.010215 0.044801 0.000000 0.000000 0.000000
# 4 0.000000 0.000000 0.000000 0.056500 0.000000 0.000000
# 5 0.000000 0.000000 0.000000 0.000000 0.056500 0.000000
# 6 0.000000 0.000000 0.000000 0.000000 0.000000 0.072804
#
#
# Mechanical properties :
#
#
# Convention : Reuss Voigt Hill
#
# Bulk Modulus (GPa) = 35.78455 48.11182 41.94818
# Shear Modulus (GPa) = 15.51431 17.47687 16.49559
#
# Velocity S-wave (km/s) = 3.31293 3.51623 3.41609
# Velocity P-wave (km/s) = 6.32057 7.10786 6.72574
#
# Compressibility (1/GPa) = 0.02794502
#
# Stress axis : x y z
#
# Youngs Moduli (GPa) = 61.06139 61.06139 22.32087
#
# Poissons Ratio (x) = 0.26713 0.22801
# Poissons Ratio (y) = 0.26713 0.22801
# Poissons Ratio (z) = 0.62375 0.62375
#
# Static dielectric constant tensor:
#      x y z
#    x 1.467560 0.000000 0.000000 
#    y 0.000000 1.467560 0.000000 
#    z 0.000000 0.000000 1.506030 
# 
# From -- ./inp_files/1589.got.cif
#   From: 2010.05.17/outbox.cif.g08.bks.cpg/sg112_1_cif.got.tgz:1589.got - 2010.05.20 10:59:04.
