data_PCOD9555923
_publ_section_title
;
Structure prediction by ZEFSAII (Michael W. Deem and Ramdas Pophale) SiO2 
 PCOD9555923
Probable space group: P -4 21 C
;
_chemical_formula_sum "Si O2"
_cell_formula_units_Z 56
_cell_length_a 11.976523
_cell_length_b 11.976523
_cell_length_c 18.781847
_cell_angle_alpha 90.000000
_cell_angle_beta 90.000000
_cell_angle_gamma 90.000000
_cell_volume 2694.013726
_symmetry_space_group_name_H-M "P -4 21 C"
_symmetry_group_IT_number 114
_symmetry_cell_setting 'tetragonal'
loop_
_space_group_symop_operation_xyz
x,y,z
y,-x,-z
-x,-y,z
-y,x,-z
1/2+x,1/2-y,1/2-z
1/2-x,1/2+y,1/2-z
1/2-y,1/2-x,1/2+z
1/2+y,1/2+x,1/2+z
loop_
_atom_site_type_symbol
_atom_site_label
_atom_site_fract_x
_atom_site_fract_y
_atom_site_fract_z
Si Si1 0.977517 0.617756 0.474457
Si Si2 0.943406 0.116049 0.182150
Si Si3 0.627089 0.211939 0.630262
Si Si4 0.154141 0.994739 0.463726
Si Si5 0.178021 0.423017 0.737242
Si Si6 0.363960 0.700031 0.823247
Si Si7 0.123875 0.613569 0.330916
O O1 0.851596 0.632491 0.444953
O O2 0.017833 0.718469 0.521450
O O3 0.000000 0.500000 0.510572
O O4 0.049437 0.616496 0.402100
O O5 0.843046 0.150965 0.129306
O O6 0.876145 0.101108 0.256629
O O7 0.033497 0.212257 0.196997
O O8 0.000000 0.000000 0.161279
O O9 0.702318 0.147867 0.689646
O O10 0.500429 0.192766 0.660926
O O11 0.150603 0.924537 0.391945
O O12 0.104982 0.919934 0.528947
O O13 0.113305 0.331173 0.690264
O O14 0.118003 0.535305 0.765926
O O15 0.229294 0.690553 0.828417
#
# Coordination Sequence:
#
# PCOD9555923 Si02
#       7
#     8   8   8   8   8   8   8
#     4   9  18  36  57  77 102 145 199 228 266 347
#     4  10  20  32  53  84 114 141 177 234 297 344
#     4   9  18  33  56  77 100 147 190 227 284 351
#     4  11  23  37  57  84 114 154 192 235 289 338
#     4   9  18  31  50  79 112 141 182 232 285 340
#     4  10  20  33  52  82 117 150 183 234 282 344
#     4   9  16  33  55  74 105 146 189 224 280 351
#
# _framework density 20.786826999999999
#
# number of rings (size 3 to 8) (size 9 to 14) (size 15 to 20)
#    0.000    2.429    1.429    2.143    2.000    0.000 
#    0.000    8.571    0.000    0.000    0.000    0.000 
#    0.000    0.000    0.000    0.000    0.000    0.000 
#
# Total GULP energy -312241.675031 kJ/mol
# GULP energy per Si atom -5575.744197 kJ/mol
# Density = 2.073952 g / cm^3
# Si number density = 20.786827 Si / 1000 Ang^3
#
#
#
# Elastic Constant Matrix: (Units=GPa)
#
#
# Indices 1 2 3 4 5 6 
#
# 1 68.3653 -4.9822 -4.1397 0.0000 0.0000 0.0000
# 2 -4.9822 68.3653 -4.1397 0.0000 0.0000 0.0000
# 3 -4.1397 -4.1397 16.9215 0.0000 0.0000 0.0000
# 4 0.0000 0.0000 0.0000 5.7227 0.0000 0.0000
# 5 0.0000 0.0000 0.0000 0.0000 5.7227 0.0000
# 6 0.0000 0.0000 0.0000 0.0000 0.0000 26.0546
#
#
#
# Elastic Compliance Matrix: (Units=1/GPa)
#
#
# Indices 1 2 3 4 5 6 
#
# 1 0.014966 0.001332 0.003987 0.000000 0.000000 0.000000
# 2 0.001332 0.014966 0.003987 0.000000 0.000000 0.000000
# 3 0.003987 0.003987 0.061047 0.000000 0.000000 0.000000
# 4 0.000000 0.000000 0.000000 0.174742 0.000000 0.000000
# 5 0.000000 0.000000 0.000000 0.000000 0.174742 0.000000
# 6 0.000000 0.000000 0.000000 0.000000 0.000000 0.038381
#
#
# Mechanical properties :
#
#
# Convention : Reuss Voigt Hill
#
# Bulk Modulus (GPa) = 9.12480 14.12542 11.62511
# Shear Modulus (GPa) = 10.06521 18.62760 14.34641
#
# Velocity S-wave (km/s) = 2.20287 2.99678 2.62996
# Velocity P-wave (km/s) = 3.29688 4.33410 3.85057
#
# Compressibility (1/GPa) = 0.10959147
#
# Stress axis : x y z
#
# Youngs Moduli (GPa) = 66.81891 66.81891 16.38078
#
# Poissons Ratio (x) = -0.08901 -0.06531
# Poissons Ratio (y) = -0.08901 -0.06531
# Poissons Ratio (z) = -0.26642 -0.26642
#
# Static dielectric constant tensor:
#      x y z
#    x 1.786150 0.000000 0.000000 
#    y 0.000000 1.786150 0.000000 
#    z 0.000000 0.000000 1.737940 
# 
# From -- ./inp_files/3135.got.cif
#   From: 2010.05.17/outbox.cif.g08.bks.cpg/sg114_2_cif.got.tgz:3135.got - 2010.05.20 11:04:54.
