data_PCOD9555850
_publ_section_title
;
Structure prediction by ZEFSAII (Michael W. Deem and Ramdas Pophale) SiO2 
 PCOD9555850
Probable space group: P -4 21 C
;
_chemical_formula_sum "Si O2"
_cell_formula_units_Z 56
_cell_length_a 14.917183
_cell_length_b 14.917183
_cell_length_c 14.015473
_cell_angle_alpha 90.000000
_cell_angle_beta 90.000000
_cell_angle_gamma 90.000000
_cell_volume 3118.755969
_symmetry_space_group_name_H-M "P -4 21 C"
_symmetry_group_IT_number 114
_symmetry_cell_setting 'tetragonal'
loop_
_space_group_symop_operation_xyz
x,y,z
y,-x,-z
-x,-y,z
-y,x,-z
1/2+x,1/2-y,1/2-z
1/2-x,1/2+y,1/2-z
1/2-y,1/2-x,1/2+z
1/2+y,1/2+x,1/2+z
loop_
_atom_site_type_symbol
_atom_site_label
_atom_site_fract_x
_atom_site_fract_y
_atom_site_fract_z
Si Si1 0.258485 0.892956 0.012054
Si Si2 0.743605 0.486363 0.317209
Si Si3 0.566968 0.916331 0.127658
Si Si4 0.599203 0.985537 0.926067
Si Si5 0.251910 0.814752 0.210325
Si Si6 0.056281 0.738377 0.239745
Si Si7 0.619455 0.325232 0.309793
O O1 0.262478 0.818251 0.094645
O O2 0.224845 0.978401 0.074455
O O3 0.195720 0.872646 0.922900
O O4 0.355134 0.925054 0.971881
O O5 0.838842 0.436879 0.320677
O O6 0.755383 0.579997 0.261826
O O7 0.667248 0.418387 0.286201
O O8 0.533728 0.822306 0.168315
O O9 0.500000 0.000000 0.144572
O O10 0.586242 0.918550 0.014920
O O11 0.669012 0.952993 0.848176
O O12 0.500000 0.000000 0.885335
O O13 0.155798 0.776680 0.239960
O O14 0.327704 0.755185 0.257910
O O15 0.983382 0.815272 0.220846
#
# Coordination Sequence:
#
# PCOD9555850 Si02
#       7
#     8   8   8   8   8   8   8
#     4   8  21  35  56  81 116 146 194 237 286 350
#     4   9  20  37  56  81 120 149 186 245 284 345
#     4  10  18  33  55  78 114 148 184 242 285 336
#     4   9  19  34  54  82 109 148 189 238 290 341
#     4  10  22  36  55  85 116 148 196 235 288 348
#     4  11  22  33  57  86 109 156 193 231 292 357
#     4  11  21  38  60  82 119 157 191 242 292 342
#
# _framework density 17.955877999999998
#
# number of rings (size 3 to 8) (size 9 to 14) (size 15 to 20)
#    0.857    1.429    1.429    1.286    8.000    1.714 
#    0.000    0.000    0.000    0.000    0.000    0.000 
#    0.000    2.286    0.000    0.000    0.000    0.000 
#
# Total GULP energy -311898.143648 kJ/mol
# GULP energy per Si atom -5569.609708 kJ/mol
# Density = 1.791501 g / cm^3
# Si number density = 17.955878 Si / 1000 Ang^3
#
#
#
# Elastic Constant Matrix: (Units=GPa)
#
#
# Indices 1 2 3 4 5 6 
#
# 1 46.0433 -5.0936 -7.6697 0.0000 0.0000 0.0000
# 2 -5.0936 46.0433 -7.6697 0.0000 0.0000 0.0000
# 3 -7.6697 -7.6697 31.2342 0.0000 0.0000 0.0000
# 4 0.0000 0.0000 0.0000 13.4248 0.0000 0.0000
# 5 0.0000 0.0000 0.0000 0.0000 13.4248 0.0000
# 6 0.0000 0.0000 0.0000 0.0000 0.0000 23.1937
#
#
#
# Elastic Compliance Matrix: (Units=1/GPa)
#
#
# Indices 1 2 3 4 5 6 
#
# 1 0.023225 0.003669 0.006604 0.000000 0.000000 0.000000
# 2 0.003669 0.023225 0.006604 0.000000 0.000000 0.000000
# 3 0.006604 0.006604 0.035260 0.000000 0.000000 0.000000
# 4 0.000000 0.000000 0.000000 0.074489 0.000000 0.000000
# 5 0.000000 0.000000 0.000000 0.000000 0.074489 0.000000
# 6 0.000000 0.000000 0.000000 0.000000 0.000000 0.043115
#
#
# Mechanical properties :
#
#
# Convention : Reuss Voigt Hill
#
# Bulk Modulus (GPa) = 8.66076 9.16163 8.91119
# Shear Modulus (GPa) = 17.95106 19.59225 18.77165
#
# Velocity S-wave (km/s) = 3.16528 3.30681 3.23682
# Velocity P-wave (km/s) = 4.26527 4.43772 4.35235
#
# Compressibility (1/GPa) = 0.11546337
#
# Stress axis : x y z
#
# Youngs Moduli (GPa) = 43.05762 43.05762 28.36115
#
# Poissons Ratio (x) = -0.15799 -0.18730
# Poissons Ratio (y) = -0.15799 -0.18730
# Poissons Ratio (z) = -0.28435 -0.28435
#
# Static dielectric constant tensor:
#      x y z
#    x 1.616730 0.000000 0.000000 
#    y 0.000000 1.616730 0.000000 
#    z 0.000000 0.000000 1.636340 
# 
# From -- ./inp_files/2248.got.cif
#   From: 2010.05.17/outbox.cif.g08.bks.cpg/sg114_2_cif.got.tgz:2248.got - 2010.05.20 11:04:54.
