data_PCOD9555180
_publ_section_title
;
Structure prediction by ZEFSAII (Michael W. Deem and Ramdas Pophale) SiO2 
 PCOD9555180
Probable space group: P -4 2 C
;
_chemical_formula_sum "Si O2"
_cell_formula_units_Z 34
_cell_length_a 9.650356
_cell_length_b 9.650356
_cell_length_c 14.047499
_cell_angle_alpha 90.000000
_cell_angle_beta 90.000000
_cell_angle_gamma 90.000000
_cell_volume 1308.234745
_symmetry_space_group_name_H-M "P -4 2 C"
_symmetry_group_IT_number 112
_symmetry_cell_setting 'tetragonal'
loop_
_space_group_symop_operation_xyz
x,y,z
y,-x,-z
-x,-y,z
-y,x,-z
x,-y,1/2-z
-x,y,1/2-z
-y,-x,1/2+z
y,x,1/2+z
loop_
_atom_site_type_symbol
_atom_site_label
_atom_site_fract_x
_atom_site_fract_y
_atom_site_fract_z
Si Si1 0.113026 0.127475 0.852660
Si Si2 0.459657 0.687958 0.448429
Si Si3 0.077909 0.299204 0.523172
Si Si4 0.709846 0.781737 0.671443
Si Si5 0.500000 0.000000 0.750000
O O1 0.181883 0.185048 0.756351
O O2 0.043572 0.255810 0.906976
O O3 0.237485 0.073938 0.918685
O O4 0.000000 0.000000 0.847998
O O5 0.609898 0.624172 0.465244
O O6 0.449472 0.851623 0.469346
O O7 0.378007 0.660379 0.348884
O O8 0.203365 0.212073 0.574412
O O9 0.589782 0.891800 0.688037
#
# Coordination Sequence:
#
# PCOD9555180 Si02
#       5
#     8   8   8   8   2
#     4  12  21  39  64 108 149 202 233 291 392 451
#     4   9  22  47  72  94 134 195 253 314 372 442
#     4  10  22  39  67 100 141 192 235 306 366 456
#     4  10  26  38  69 101 148 187 250 318 355 470
#     4  12  24  36  62 110 136 190 256 298 382 452
#
# _framework density 25.989222999999999
#
# number of rings (size 3 to 8) (size 9 to 14) (size 15 to 20)
#    1.412    0.235    2.353    2.118    3.294    1.882 
#    0.000    1.176    0.000    0.000    6.118    0.000 
#    0.000    0.000    0.000    0.000    0.000    0.000 
#
# Total GULP energy -189356.655608 kJ/mol
# GULP energy per Si atom -5569.313400 kJ/mol
# Density = 2.593007 g / cm^3
# Si number density = 25.989223 Si / 1000 Ang^3
#
#
#
# Elastic Constant Matrix: (Units=GPa)
#
#
# Indices 1 2 3 4 5 6 
#
# 1 104.7372 16.1362 33.4360 0.0000 0.0000 0.0000
# 2 16.1362 104.7372 33.4360 0.0000 0.0000 0.0000
# 3 33.4360 33.4360 147.2251 0.0000 0.0000 0.0000
# 4 0.0000 0.0000 0.0000 41.9057 0.0000 0.0000
# 5 0.0000 0.0000 0.0000 0.0000 41.9057 0.0000
# 6 0.0000 0.0000 0.0000 0.0000 0.0000 56.5962
#
#
#
# Elastic Compliance Matrix: (Units=1/GPa)
#
#
# Indices 1 2 3 4 5 6 
#
# 1 0.010374 -0.000912 -0.002149 0.000000 0.000000 0.000000
# 2 -0.000912 0.010374 -0.002149 0.000000 0.000000 0.000000
# 3 -0.002149 -0.002149 0.007768 0.000000 0.000000 0.000000
# 4 0.000000 0.000000 0.000000 0.023863 0.000000 0.000000
# 5 0.000000 0.000000 0.000000 0.000000 0.023863 0.000000
# 6 0.000000 0.000000 0.000000 0.000000 0.000000 0.017669
#
#
# Mechanical properties :
#
#
# Convention : Reuss Voigt Hill
#
# Bulk Modulus (GPa) = 55.25853 58.07957 56.66905
# Shear Modulus (GPa) = 45.30442 46.32762 45.81602
#
# Velocity S-wave (km/s) = 4.17969 4.22663 4.20323
# Velocity P-wave (km/s) = 6.67843 6.79818 6.73857
#
# Compressibility (1/GPa) = 0.01809675
#
# Stress axis : x y z
#
# Youngs Moduli (GPa) = 96.39243 96.39243 128.72697
#
# Poissons Ratio (x) = 0.08794 0.27662
# Poissons Ratio (y) = 0.08794 0.27662
# Poissons Ratio (z) = 0.20714 0.20714
#
# Static dielectric constant tensor:
#      x y z
#    x 2.232090 0.000000 0.000000 
#    y 0.000000 2.232090 0.000000 
#    z 0.000000 0.000000 1.978000 
# 
# From -- ./inp_files/3938.got.cif
#   From: 2010.05.17/outbox.cif.g08.bks.cpg/sg112_2_cif.got.tgz:3938.got - 2010.05.20 10:59:04.
