data_PCOD9555225
_publ_section_title
;
Structure prediction by ZEFSAII (Michael W. Deem and Ramdas Pophale) SiO2 
 PCOD9555225
Probable space group: P -4 2 C
;
_chemical_formula_sum "Si O2"
_cell_formula_units_Z 30
_cell_length_a 9.322097
_cell_length_b 9.322097
_cell_length_c 19.134954
_cell_angle_alpha 90.000000
_cell_angle_beta 90.000000
_cell_angle_gamma 90.000000
_cell_volume 1662.856061
_symmetry_space_group_name_H-M "P -4 2 C"
_symmetry_group_IT_number 112
_symmetry_cell_setting 'tetragonal'
loop_
_space_group_symop_operation_xyz
x,y,z
y,-x,-z
-x,-y,z
-y,x,-z
x,-y,1/2-z
-x,y,1/2-z
-y,-x,1/2+z
y,x,1/2+z
loop_
_atom_site_type_symbol
_atom_site_label
_atom_site_fract_x
_atom_site_fract_y
_atom_site_fract_z
Si Si1 0.900563 0.712831 0.313192
Si Si2 0.472688 0.727638 0.023721
Si Si3 0.500000 0.000000 0.930482
Si Si4 0.000000 0.000000 0.250000
Si Si5 0.566525 0.660807 0.320808
O O1 0.736957 0.661237 0.309804
O O2 0.000000 0.658659 0.250000
O O3 0.962292 0.637539 0.382322
O O4 0.913241 0.886474 0.299762
O O5 0.468487 0.741232 0.107273
O O6 0.618874 0.652015 0.999159
O O7 0.458535 0.870408 0.980394
O O8 0.500000 0.500000 0.328987
O O9 0.500000 0.723143 0.250000
#
# Coordination Sequence:
#
# PCOD9555225 Si02
#       5
#     8   8   4   2   8
#     4  10  23  43  65  98 131 174 232 268 336 406
#     4  11  22  43  60  93 136 163 220 279 325 390
#     4  12  23  40  71  94 126 188 220 274 331 406
#     4   8  24  42  66  94 148 170 216 280 320 410
#     4  11  23  40  68  98 128 175 219 280 334 384
#
# _framework density 18.041249000000001
#
# number of rings (size 3 to 8) (size 9 to 14) (size 15 to 20)
#    0.800    0.533    5.333    0.400   11.200    0.000 
#    9.600    0.000    0.000    0.000    0.000    0.000 
#    0.000    0.000    0.000    0.000    0.000    0.000 
#
# Total GULP energy -167104.209997 kJ/mol
# GULP energy per Si atom -5570.140333 kJ/mol
# Density = 1.800019 g / cm^3
# Si number density = 18.041249 Si / 1000 Ang^3
#
#
#
# Elastic Constant Matrix: (Units=GPa)
#
#
# Indices 1 2 3 4 5 6 
#
# 1 128.1611 45.4851 56.6487 0.0000 0.0000 0.0000
# 2 45.4851 128.1611 56.6487 0.0000 0.0000 0.0000
# 3 56.6487 56.6487 188.9813 0.0000 0.0000 0.0000
# 4 0.0000 0.0000 0.0000 26.4813 0.0000 0.0000
# 5 0.0000 0.0000 0.0000 0.0000 26.4813 0.0000
# 6 0.0000 0.0000 0.0000 0.0000 0.0000 38.4861
#
#
#
# Elastic Compliance Matrix: (Units=1/GPa)
#
#
# Indices 1 2 3 4 5 6 
#
# 1 0.009627 -0.002468 -0.002146 0.000000 0.000000 0.000000
# 2 -0.002468 0.009627 -0.002146 0.000000 0.000000 0.000000
# 3 -0.002146 -0.002146 0.006578 0.000000 0.000000 0.000000
# 4 0.000000 0.000000 0.000000 0.037763 0.000000 0.000000
# 5 0.000000 0.000000 0.000000 0.000000 0.037763 0.000000
# 6 0.000000 0.000000 0.000000 0.000000 0.000000 0.025983
#
#
# Mechanical properties :
#
#
# Convention : Reuss Voigt Hill
#
# Bulk Modulus (GPa) = 81.22026 84.76313 82.99169
# Shear Modulus (GPa) = 34.49100 37.39113 35.94107
#
# Velocity S-wave (km/s) = 4.37714 4.55745 4.46820
# Velocity P-wave (km/s) = 8.40611 8.64747 8.52765
#
# Compressibility (1/GPa) = 0.01231220
#
# Stress axis : x y z
#
# Youngs Moduli (GPa) = 103.87231 103.87231 152.02027
#
# Poissons Ratio (x) = 0.25638 0.32623
# Poissons Ratio (y) = 0.25638 0.32623
# Poissons Ratio (z) = 0.22291 0.22291
#
# Static dielectric constant tensor:
#      x y z
#    x 1.587430 0.000000 0.000000 
#    y 0.000000 1.587430 0.000000 
#    z 0.000000 0.000000 1.595840 
# 
# From -- ./inp_files/4556.got.cif
#   From: 2010.05.17/outbox.cif.g08.bks.cpg/sg112_3_cif.got.tgz:4556.got - 2010.05.20 10:59:04.
