data_PCOD9555910
_publ_section_title
;
Structure prediction by ZEFSAII (Michael W. Deem and Ramdas Pophale) SiO2 
 PCOD9555910
Probable space group: P -4 21 C
;
_chemical_formula_sum "Si O2"
_cell_formula_units_Z 40
_cell_length_a 13.549910
_cell_length_b 13.549910
_cell_length_c 9.476893
_cell_angle_alpha 90.000000
_cell_angle_beta 90.000000
_cell_angle_gamma 90.000000
_cell_volume 1739.958133
_symmetry_space_group_name_H-M "P -4 21 C"
_symmetry_group_IT_number 114
_symmetry_cell_setting 'tetragonal'
loop_
_space_group_symop_operation_xyz
x,y,z
y,-x,-z
-x,-y,z
-y,x,-z
1/2+x,1/2-y,1/2-z
1/2-x,1/2+y,1/2-z
1/2-y,1/2-x,1/2+z
1/2+y,1/2+x,1/2+z
loop_
_atom_site_type_symbol
_atom_site_label
_atom_site_fract_x
_atom_site_fract_y
_atom_site_fract_z
Si Si1 0.142180 0.937880 0.020943
Si Si2 0.363821 0.220465 0.003674
Si Si3 0.999102 0.646330 0.074151
Si Si4 0.215799 0.243719 0.774487
Si Si5 0.651956 0.043463 0.624041
O O1 0.170426 0.860000 0.143524
O O2 0.242775 0.955407 0.935392
O O3 0.048514 0.892919 0.937132
O O4 0.291557 0.272190 0.115201
O O5 0.476976 0.236038 0.049603
O O6 0.322750 0.243619 0.849752
O O7 0.353310 0.101810 0.009098
O O8 0.017039 0.619160 0.237060
O O9 0.924086 0.573366 0.997256
O O10 0.176561 0.352307 0.804002
#
# Coordination Sequence:
#
# PCOD9555910 Si02
#       5
#     8   8   8   8   8
#     4  10  19  38  66  97 133 176 226 274 332 414
#     4  12  23  44  68  95 137 180 227 288 353 407
#     4  11  24  42  66 102 134 181 228 283 346 420
#     4  11  24  42  67  98 136 178 229 282 346 418
#     4  11  25  42  67 101 140 176 234 286 348 415
#
# _framework density 22.989058
#
# number of rings (size 3 to 8) (size 9 to 14) (size 15 to 20)
#    0.000    1.000    4.000    3.000    2.800    1.600 
#    0.000    0.000    0.000    0.600    0.000    0.000 
#    0.000    0.000    0.000    0.000    0.000    0.000 
#
# Total GULP energy -223388.158665 kJ/mol
# GULP energy per Si atom -5584.703967 kJ/mol
# Density = 2.293673 g / cm^3
# Si number density = 22.989058 Si / 1000 Ang^3
#
#
#
# Elastic Constant Matrix: (Units=GPa)
#
#
# Indices 1 2 3 4 5 6 
#
# 1 82.9302 3.0641 4.7600 0.0000 0.0000 0.0000
# 2 3.0641 82.9302 4.7600 0.0000 0.0000 0.0000
# 3 4.7600 4.7600 77.3319 0.0000 0.0000 0.0000
# 4 0.0000 0.0000 0.0000 23.4849 0.0000 0.0000
# 5 0.0000 0.0000 0.0000 0.0000 23.4849 0.0000
# 6 0.0000 0.0000 0.0000 0.0000 0.0000 27.0074
#
#
#
# Elastic Compliance Matrix: (Units=1/GPa)
#
#
# Indices 1 2 3 4 5 6 
#
# 1 0.012115 -0.000406 -0.000721 0.000000 0.000000 0.000000
# 2 -0.000406 0.012115 -0.000721 0.000000 0.000000 0.000000
# 3 -0.000721 -0.000721 0.013020 0.000000 0.000000 0.000000
# 4 0.000000 0.000000 0.000000 0.042581 0.000000 0.000000
# 5 0.000000 0.000000 0.000000 0.000000 0.042581 0.000000
# 6 0.000000 0.000000 0.000000 0.000000 0.000000 0.037027
#
#
# Mechanical properties :
#
#
# Convention : Reuss Voigt Hill
#
# Bulk Modulus (GPa) = 29.80256 29.81783 29.81020
# Shear Modulus (GPa) = 28.68329 30.16930 29.42630
#
# Velocity S-wave (km/s) = 3.53610 3.62654 3.58161
# Velocity P-wave (km/s) = 5.44646 5.52579 5.48627
#
# Compressibility (1/GPa) = 0.03355416
#
# Stress axis : x y z
#
# Youngs Moduli (GPa) = 82.54427 82.54427 76.80490
#
# Poissons Ratio (x) = 0.03353 0.05535
# Poissons Ratio (y) = 0.03353 0.05535
# Poissons Ratio (z) = 0.05949 0.05949
#
# Static dielectric constant tensor:
#      x y z
#    x 1.946400 0.000000 0.000000 
#    y 0.000000 1.946400 0.000000 
#    z 0.000000 0.000000 1.849760 
# 
# From -- ./inp_files/779.got.cif
#   From: 2010.05.17/outbox.cif.g08.bks.cpg/sg114_1_cif.got.tgz:779.got - 2010.05.20 11:04:54.
