data_PCOD9555329
_publ_section_title
;
Structure prediction by ZEFSAII (Michael W. Deem and Ramdas Pophale) SiO2 
 PCOD9555329
Probable space group: P -4 2 C
;
_chemical_formula_sum "Si O2"
_cell_formula_units_Z 34
_cell_length_a 7.532127
_cell_length_b 7.532127
_cell_length_c 26.924120
_cell_angle_alpha 90.000000
_cell_angle_beta 90.000000
_cell_angle_gamma 90.000000
_cell_volume 1527.484408
_symmetry_space_group_name_H-M "P -4 2 C"
_symmetry_group_IT_number 112
_symmetry_cell_setting 'tetragonal'
loop_
_space_group_symop_operation_xyz
x,y,z
y,-x,-z
-x,-y,z
-y,x,-z
x,-y,1/2-z
-x,y,1/2-z
-y,-x,1/2+z
y,x,1/2+z
loop_
_atom_site_type_symbol
_atom_site_label
_atom_site_fract_x
_atom_site_fract_y
_atom_site_fract_z
Si Si1 0.746621 0.150670 0.109451
Si Si2 0.242693 0.649743 0.499426
Si Si3 0.251741 0.128054 0.609429
Si Si4 0.567708 0.691226 0.176980
Si Si5 0.500000 0.000000 0.250000
O O1 0.580997 0.224510 0.140120
O O2 0.922010 0.263047 0.121643
O O3 0.801694 0.948301 0.118810
O O4 0.708239 0.156045 0.050712
O O5 0.438635 0.733693 0.498731
O O6 0.148569 0.703208 0.448601
O O7 0.358039 0.261517 0.644033
O O8 0.500000 0.500000 0.196502
O O9 0.602556 0.853638 0.215812
#
# Coordination Sequence:
#
# PCOD9555329 Si02
#       5
#     8   8   8   8   2
#     4  11  23  41  66  99 142 186 229 286 348 419
#     4  11  22  35  58  98 142 185 233 278 340 420
#     4  11  23  41  66  99 142 186 229 286 348 419
#     4  12  25  47  75 104 137 181 238 293 358 415
#     4  12  26  52  78 102 140 186 238 308 358 412
#
# _framework density 22.258818999999999
#
# number of rings (size 3 to 8) (size 9 to 14) (size 15 to 20)
#    0.000    0.706    4.706    3.176    0.000    7.529 
#    0.000    2.353    0.000    2.824    0.000    0.000 
#    0.000    0.000    0.000    0.000    0.000    0.000 
#
# Total GULP energy -190102.918057 kJ/mol
# GULP energy per Si atom -5591.262296 kJ/mol
# Density = 2.220816 g / cm^3
# Si number density = 22.258819 Si / 1000 Ang^3
#
#
#
# Elastic Constant Matrix: (Units=GPa)
#
#
# Indices 1 2 3 4 5 6 
#
# 1 133.1235 -16.4252 31.0702 0.0000 0.0000 0.0000
# 2 -16.4252 133.1235 31.0702 0.0000 0.0000 0.0000
# 3 31.0702 31.0702 106.1673 0.0000 0.0000 0.0000
# 4 0.0000 0.0000 0.0000 -14.0623 0.0000 0.0000
# 5 0.0000 0.0000 0.0000 0.0000 -14.0623 0.0000
# 6 0.0000 0.0000 0.0000 0.0000 0.0000 27.2719
#
#
#
# Elastic Compliance Matrix: (Units=1/GPa)
#
#
# Indices 1 2 3 4 5 6 
#
# 1 0.008419 0.001732 -0.002971 0.000000 0.000000 0.000000
# 2 0.001732 0.008419 -0.002971 0.000000 0.000000 0.000000
# 3 -0.002971 -0.002971 0.011158 0.000000 0.000000 0.000000
# 4 0.000000 0.000000 0.000000 -0.071112 0.000000 0.000000
# 5 0.000000 0.000000 0.000000 0.000000 -0.071112 0.000000
# 6 0.000000 0.000000 0.000000 0.000000 0.000000 0.036668
#
#
# Mechanical properties :
#
#
# Convention : Reuss Voigt Hill
#
# Bulk Modulus (GPa) = 51.08046 51.53831 51.30939
# Shear Modulus (GPa) = -79.85090 21.60940 -29.12075
#
# Velocity S-wave (km/s) = -5.99597 3.11919 -3.62094
# Velocity P-wave (km/s) = 4.99373 6.01472 2.37059
#
# Compressibility (1/GPa) = 0.01957696
#
# Stress axis : x y z
#
# Youngs Moduli (GPa) = 118.78067 118.78067 89.62278
#
# Poissons Ratio (x) = -0.20574 0.26624
# Poissons Ratio (y) = -0.20574 0.26624
# Poissons Ratio (z) = 0.35286 0.35286
#
# Static dielectric constant tensor:
#      x y z
#    x 1.888090 0.000000 0.000000 
#    y 0.000000 1.888090 0.000000 
#    z 0.000000 0.000000 1.831050 
# 
# From -- ./inp_files/5207.got.cif
#   From: 2010.05.17/outbox.cif.g08.bks.cpg/sg112_3_cif.got.tgz:5207.got - 2010.05.20 10:59:04.
