data_PCOD9555770
_publ_section_title
;
Structure prediction by ZEFSAII (Michael W. Deem and Ramdas Pophale) SiO2 
 PCOD9555770
Probable space group: P -4 21 M 
;
_chemical_formula_sum "Si O2"
_cell_formula_units_Z 26
_cell_length_a 12.112395
_cell_length_b 12.112395
_cell_length_c 7.036126
_cell_angle_alpha 90.000000
_cell_angle_beta 90.000000
_cell_angle_gamma 90.000000
_cell_volume 1032.270838
_symmetry_space_group_name_H-M "P -4 21 M "
_symmetry_group_IT_number 113
_symmetry_cell_setting 'tetragonal'
loop_
_space_group_symop_operation_xyz
x,y,z
y,-x,-z
-x,-y,z
-y,x,-z
1/2+x,1/2-y,-z
1/2-x,1/2+y,-z
1/2-y,1/2-x,z
1/2+y,1/2+x,z
loop_
_atom_site_type_symbol
_atom_site_label
_atom_site_fract_x
_atom_site_fract_y
_atom_site_fract_z
Si Si1 0.174522 0.674522 0.588238
Si Si2 0.648956 0.148956 0.776569
Si Si3 0.000000 0.500000 0.517810
Si Si4 0.113230 0.096094 0.581406
Si Si5 0.823955 0.046124 0.039659
O O1 0.258055 0.758055 0.707663
O O2 0.081962 0.581962 0.639491
O O3 0.114777 0.761582 0.455863
O O4 0.579924 0.079924 0.616303
O O5 0.717315 0.068875 0.916496
O O6 0.068485 0.181917 0.734517
O O7 0.036463 0.106157 0.392267
O O8 0.923693 0.130793 0.992911
#
# Coordination Sequence:
#
# PCOD9555770 Si02
#       5
#     4   4   2   8   8
#     4  12  23  43  69  98 144 194 244 311 382 445
#     4  12  27  47  73 109 156 200 253 327 393 447
#     4  12  28  48  76 116 152 202 270 312 374 486
#     4  11  22  40  67  98 133 187 250 305 374 460
#     4  11  22  40  66 101 141 190 249 309 376 454
#
# _framework density 25.187187000000002
#
# number of rings (size 3 to 8) (size 9 to 14) (size 15 to 20)
#    0.000    0.615    0.000   12.000    0.000    1.231 
#    0.000    6.154    0.000    3.692    0.000    0.000 
#    0.000    0.000    0.000    0.000    0.000    0.000 
#
# Total GULP energy -144949.696207 kJ/mol
# GULP energy per Si atom -5574.988316 kJ/mol
# Density = 2.512986 g / cm^3
# Si number density = 25.187187 Si / 1000 Ang^3
#
#
#
# Elastic Constant Matrix: (Units=GPa)
#
#
# Indices 1 2 3 4 5 6 
#
# 1 79.0742 59.5283 19.6031 0.0000 0.0000 0.0000
# 2 59.5283 79.0742 19.6031 0.0000 0.0000 0.0000
# 3 19.6031 19.6031 73.0013 0.0000 0.0000 0.0000
# 4 0.0000 0.0000 0.0000 31.3586 0.0000 0.0000
# 5 0.0000 0.0000 0.0000 0.0000 31.3586 0.0000
# 6 0.0000 0.0000 0.0000 0.0000 0.0000 54.9239
#
#
#
# Elastic Compliance Matrix: (Units=1/GPa)
#
#
# Indices 1 2 3 4 5 6 
#
# 1 0.029485 -0.021677 -0.002097 0.000000 0.000000 0.000000
# 2 -0.021677 0.029485 -0.002097 0.000000 0.000000 0.000000
# 3 -0.002097 -0.002097 0.014824 0.000000 0.000000 0.000000
# 4 0.000000 0.000000 0.000000 0.031889 0.000000 0.000000
# 5 0.000000 0.000000 0.000000 0.000000 0.031889 0.000000
# 6 0.000000 0.000000 0.000000 0.000000 0.000000 0.018207
#
#
# Mechanical properties :
#
#
# Convention : Reuss Voigt Hill
#
# Bulk Modulus (GPa) = 45.34399 47.62430 46.48415
# Shear Modulus (GPa) = 23.26975 32.35589 27.81282
#
# Velocity S-wave (km/s) = 3.04282 3.58804 3.32662
# Velocity P-wave (km/s) = 5.51243 6.00954 5.76635
#
# Compressibility (1/GPa) = 0.02205364
#
# Stress axis : x y z
#
# Youngs Moduli (GPa) = 33.91572 33.91572 67.45627
#
# Poissons Ratio (x) = 0.73519 0.14143
# Poissons Ratio (y) = 0.73519 0.14143
# Poissons Ratio (z) = 0.07111 0.07111
#
# Static dielectric constant tensor:
#      x y z
#    x 2.069540 0.000000 0.000000 
#    y 0.000000 2.069540 0.000000 
#    z 0.000000 0.000000 2.123940 
# 
# From -- ./inp_files/736.got.cif
#   From: 2010.05.17/outbox.cif.g08.bks.cpg/sg113_cif.got.tgz:736.got - 2010.05.20 11:03:00.
