data_PCOD9555981
_publ_section_title
;
Structure prediction by ZEFSAII (Michael W. Deem and Ramdas Pophale) SiO2 
 PCOD9555981
Probable space group: P -4 21 C
;
_chemical_formula_sum "Si O2"
_cell_formula_units_Z 32
_cell_length_a 13.494608
_cell_length_b 13.494608
_cell_length_c 8.829286
_cell_angle_alpha 90.000000
_cell_angle_beta 90.000000
_cell_angle_gamma 90.000000
_cell_volume 1607.852227
_symmetry_space_group_name_H-M "P -4 21 C"
_symmetry_group_IT_number 114
_symmetry_cell_setting 'tetragonal'
loop_
_space_group_symop_operation_xyz
x,y,z
y,-x,-z
-x,-y,z
-y,x,-z
1/2+x,1/2-y,1/2-z
1/2-x,1/2+y,1/2-z
1/2-y,1/2-x,1/2+z
1/2+y,1/2+x,1/2+z
loop_
_atom_site_type_symbol
_atom_site_label
_atom_site_fract_x
_atom_site_fract_y
_atom_site_fract_z
Si Si1 0.887971 0.213335 0.203513
Si Si2 0.802589 0.547884 0.886429
Si Si3 0.225766 0.420769 0.232214
Si Si4 0.164216 0.616558 0.395631
O O1 0.829544 0.111647 0.191984
O O2 0.817573 0.278032 0.316043
O O3 0.994039 0.217528 0.286636
O O4 0.894886 0.276381 0.050510
O O5 0.852712 0.636929 0.796234
O O6 0.879438 0.455617 0.913131
O O7 0.767889 0.581929 0.050923
O O8 0.196801 0.530586 0.283771
#
# Coordination Sequence:
#
# PCOD9555981 Si02
#       4
#     8   8   8   8
#     4  10  22  38  59  92 124 158 200 262 293 376
#     4  10  22  36  59  96 121 149 213 249 304 359
#     4  12  21  38  69  85 125 168 191 257 324 344
#     4  10  20  39  56  94 124 143 212 254 297 356
#
# _framework density 19.902327
#
# number of rings (size 3 to 8) (size 9 to 14) (size 15 to 20)
#    1.500    0.000    2.500    3.750    0.000    2.000 
#    0.000    0.000    0.000   12.000    0.000    0.000 
#    0.000    0.000    0.000    0.000    0.000    0.000 
#
# Total GULP energy -178277.561878 kJ/mol
# GULP energy per Si atom -5571.173809 kJ/mol
# Density = 1.985703 g / cm^3
# Si number density = 19.902327 Si / 1000 Ang^3
#
#
#
# Elastic Constant Matrix: (Units=GPa)
#
#
# Indices 1 2 3 4 5 6 
#
# 1 1.0250 19.7198 -7.3127 0.0000 0.0000 0.0000
# 2 19.7198 1.0250 -7.3127 0.0000 0.0000 0.0000
# 3 -7.3127 -7.3127 70.7363 0.0000 0.0000 0.0000
# 4 0.0000 0.0000 0.0000 18.5576 0.0000 0.0000
# 5 0.0000 0.0000 0.0000 0.0000 18.5576 0.0000
# 6 0.0000 0.0000 0.0000 0.0000 0.0000 24.6583
#
#
#
# Elastic Compliance Matrix: (Units=1/GPa)
#
#
# Indices 1 2 3 4 5 6 
#
# 1 -0.000748 0.052743 0.005375 0.000000 0.000000 0.000000
# 2 0.052743 -0.000748 0.005375 0.000000 0.000000 0.000000
# 3 0.005375 0.005375 0.015248 0.000000 0.000000 0.000000
# 4 0.000000 0.000000 0.000000 0.053886 0.000000 0.000000
# 5 0.000000 0.000000 0.000000 0.000000 0.053886 0.000000
# 6 0.000000 0.000000 0.000000 0.000000 0.000000 0.040554
#
#
# Mechanical properties :
#
#
# Convention : Reuss Voigt Hill
#
# Bulk Modulus (GPa) = 7.10540 9.21945 8.16242
# Shear Modulus (GPa) = 60.97154 16.86750 38.91952
#
# Velocity S-wave (km/s) = 5.54093 2.91437 4.42693
# Velocity P-wave (km/s) = 6.67186 3.99589 5.49913
#
# Compressibility (1/GPa) = 0.14073804
#
# Stress axis : x y z
#
# Youngs Moduli (GPa) = -1336.61656 -1336.61656 65.58069
#
# Poissons Ratio (x) = 70.49666 -0.35251
# Poissons Ratio (y) = 70.49666 -0.35251
# Poissons Ratio (z) = 7.18455 7.18455
#
# Static dielectric constant tensor:
#      x y z
#    x 1.698210 0.000000 0.000000 
#    y 0.000000 1.698210 0.000000 
#    z 0.000000 0.000000 1.695320 
# 
# From -- ./inp_files/626.got.cif
#   From: 2010.05.17/outbox.cif.g08.bks.cpg/sg114_1_cif.got.tgz:626.got - 2010.05.20 11:04:54.
