data_PCOD9555260
_publ_section_title
;
Structure prediction by ZEFSAII (Michael W. Deem and Ramdas Pophale) SiO2 
 PCOD9555260
Probable space group: P -4 2 C
;
_chemical_formula_sum "Si O2"
_cell_formula_units_Z 34
_cell_length_a 10.993411
_cell_length_b 10.993411
_cell_length_c 13.440566
_cell_angle_alpha 90.000000
_cell_angle_beta 90.000000
_cell_angle_gamma 90.000000
_cell_volume 1624.360752
_symmetry_space_group_name_H-M "P -4 2 C"
_symmetry_group_IT_number 112
_symmetry_cell_setting 'tetragonal'
loop_
_space_group_symop_operation_xyz
x,y,z
y,-x,-z
-x,-y,z
-y,x,-z
x,-y,1/2-z
-x,y,1/2-z
-y,-x,1/2+z
y,x,1/2+z
loop_
_atom_site_type_symbol
_atom_site_label
_atom_site_fract_x
_atom_site_fract_y
_atom_site_fract_z
Si Si1 0.000000 0.500000 0.750000
Si Si2 0.398603 0.666320 0.032694
Si Si3 0.135287 0.059078 0.897435
Si Si4 0.810987 0.217481 0.411744
Si Si5 0.689663 0.810733 0.293334
O O1 0.087263 0.588397 0.688560
O O2 0.358360 0.692835 0.146588
O O3 0.541021 0.657287 0.009978
O O4 0.336510 0.775303 0.972421
O O5 0.145414 0.180088 0.833458
O O6 0.221752 0.947332 0.868989
O O7 0.178786 0.108182 0.006488
O O8 0.000000 0.000000 0.889000
O O9 0.713430 0.201833 0.324258
#
# Coordination Sequence:
#
# PCOD9555260 Si02
#       5
#     2   8   8   8   8
#     4  12  24  36  62  98 140 166 232 282 338 416
#     4  10  24  46  67  91 128 178 233 282 343 418
#     4  11  21  38  62  95 140 183 218 276 353 427
#     4  11  21  40  63  97 132 175 227 278 353 410
#     4  11  25  39  64 101 132 182 227 289 346 410
#
# _framework density 20.931312999999999
#
# number of rings (size 3 to 8) (size 9 to 14) (size 15 to 20)
#    0.000    1.176    2.353    3.529    3.294    2.824 
#    0.000    2.353    0.000    5.647    0.000    0.000 
#    0.000    0.000    0.000    0.000    0.000    0.000 
#
# Total GULP energy -189614.728417 kJ/mol
# GULP energy per Si atom -5576.903777 kJ/mol
# Density = 2.088367 g / cm^3
# Si number density = 20.931313 Si / 1000 Ang^3
#
#
#
# Elastic Constant Matrix: (Units=GPa)
#
#
# Indices 1 2 3 4 5 6 
#
# 1 105.0572 49.4794 25.8983 0.0000 0.0000 0.0000
# 2 49.4794 105.0572 25.8983 0.0000 0.0000 0.0000
# 3 25.8983 25.8983 102.3689 0.0000 0.0000 0.0000
# 4 0.0000 0.0000 0.0000 14.2048 0.0000 0.0000
# 5 0.0000 0.0000 0.0000 0.0000 14.2048 0.0000
# 6 0.0000 0.0000 0.0000 0.0000 0.0000 45.5585
#
#
#
# Elastic Compliance Matrix: (Units=1/GPa)
#
#
# Indices 1 2 3 4 5 6 
#
# 1 0.012532 -0.005461 -0.001789 0.000000 0.000000 0.000000
# 2 -0.005461 0.012532 -0.001789 0.000000 0.000000 0.000000
# 3 -0.001789 -0.001789 0.010674 0.000000 0.000000 0.000000
# 4 0.000000 0.000000 0.000000 0.070399 0.000000 0.000000
# 5 0.000000 0.000000 0.000000 0.000000 0.070399 0.000000
# 6 0.000000 0.000000 0.000000 0.000000 0.000000 0.021950
#
#
# Mechanical properties :
#
#
# Convention : Reuss Voigt Hill
#
# Bulk Modulus (GPa) = 56.62639 57.22616 56.92628
# Shear Modulus (GPa) = 22.47718 28.87412 25.67565
#
# Velocity S-wave (km/s) = 3.28053 3.71815 3.50617
# Velocity P-wave (km/s) = 6.43905 6.76995 6.60657
#
# Compressibility (1/GPa) = 0.01765961
#
# Stress axis : x y z
#
# Youngs Moduli (GPa) = 79.79796 79.79796 93.68847
#
# Poissons Ratio (x) = 0.43579 0.16759
# Poissons Ratio (y) = 0.43579 0.16759
# Poissons Ratio (z) = 0.14274 0.14274
#
# Static dielectric constant tensor:
#      x y z
#    x 1.758170 0.000000 0.000000 
#    y 0.000000 1.758170 0.000000 
#    z 0.000000 0.000000 1.863430 
# 
# From -- ./inp_files/3201.got.cif
#   From: 2010.05.17/outbox.cif.g08.bks.cpg/sg112_2_cif.got.tgz:3201.got - 2010.05.20 10:59:04.
