data_PCOD9555715
_publ_section_title
;
Structure prediction by ZEFSAII (Michael W. Deem and Ramdas Pophale) SiO2 
 PCOD9555715
Probable space group: P -4 21 M 
;
_chemical_formula_sum "Si O2"
_cell_formula_units_Z 64
_cell_length_a 11.515879
_cell_length_b 11.515879
_cell_length_c 23.909483
_cell_angle_alpha 90.000000
_cell_angle_beta 90.000000
_cell_angle_gamma 90.000000
_cell_volume 3170.767305
_symmetry_space_group_name_H-M "P -4 21 M "
_symmetry_group_IT_number 113
_symmetry_cell_setting 'tetragonal'
loop_
_space_group_symop_operation_xyz
x,y,z
y,-x,-z
-x,-y,z
-y,x,-z
1/2+x,1/2-y,-z
1/2-x,1/2+y,-z
1/2-y,1/2-x,z
1/2+y,1/2+x,z
loop_
_atom_site_type_symbol
_atom_site_label
_atom_site_fract_x
_atom_site_fract_y
_atom_site_fract_z
Si Si1 0.736713 0.575168 0.377896
Si Si2 0.647993 0.660518 0.691490
Si Si3 0.541375 0.235680 0.022233
Si Si4 0.801362 0.111854 0.186785
Si Si5 0.114228 0.797021 0.879105
Si Si6 0.053893 0.833987 0.078842
Si Si7 0.494298 0.191150 0.504986
Si Si8 0.043001 0.731703 0.621933
O O1 0.864069 0.635932 0.368804
O O2 0.695546 0.469648 0.339508
O O3 0.733029 0.529961 0.442015
O O4 0.644675 0.676312 0.369111
O O5 0.724280 0.775721 0.692892
O O6 0.629531 0.622917 0.755578
O O7 0.726288 0.562897 0.660395
O O8 0.642513 0.142513 0.029401
O O9 0.445989 0.228211 0.070036
O O10 0.595997 0.363937 0.034833
O O11 0.487174 0.228936 0.960625
O O12 0.679757 0.179757 0.193342
O O13 0.867432 0.171206 0.134177
O O14 0.786249 0.977427 0.170961
O O15 0.238006 0.738006 0.867833
O O16 0.118620 0.930947 0.898342
O O17 0.369266 0.130735 0.514985
O O18 0.493267 0.242810 0.443129
O O19 0.589146 0.089146 0.503116
O O20 0.104125 0.604125 0.629596
#
# Coordination Sequence:
#
# PCOD9555715 Si02
#       8
#     8   8   8   8   8   8   8   8
#     4  10  22  39  62  91 125 162 206 262 319 379
#     4  11  24  43  65  88 119 166 218 260 314 380
#     4  11  22  36  59  88 121 159 198 245 301 362
#     4  10  24  43  63  85 116 161 206 256 307 359
#     4  11  23  37  60  93 123 157 199 246 306 369
#     4  11  21  37  61  88 120 157 197 239 293 361
#     4   9  18  34  56  86 125 165 201 245 308 376
#     4  10  22  38  60  93 128 160 204 262 320 381
#
# _framework density 20.18439
#
# number of rings (size 3 to 8) (size 9 to 14) (size 15 to 20)
#    0.000    1.625    1.250    4.500    1.750    5.500 
#    0.000    3.750    0.000    6.000    0.000    0.000 
#    0.000    0.000    0.000    0.000    0.000    0.000 
#
# Total GULP energy -356862.656526 kJ/mol
# GULP energy per Si atom -5575.979008 kJ/mol
# Density = 2.013845 g / cm^3
# Si number density = 20.184390 Si / 1000 Ang^3
#
#
#
# Elastic Constant Matrix: (Units=GPa)
#
#
# Indices 1 2 3 4 5 6 
#
# 1 57.4516 29.5445 22.6640 0.0000 0.0000 0.0000
# 2 29.5445 57.4477 22.6624 0.0000 0.0000 0.0000
# 3 22.6640 22.6624 107.7188 0.0000 0.0000 0.0000
# 4 0.0000 0.0000 0.0000 24.9048 0.0000 0.0000
# 5 0.0000 0.0000 0.0000 0.0000 24.9039 0.0000
# 6 0.0000 0.0000 0.0000 0.0000 0.0000 22.7691
#
#
#
# Elastic Compliance Matrix: (Units=1/GPa)
#
#
# Indices 1 2 3 4 5 6 
#
# 1 0.024372 -0.011463 -0.002716 0.000000 0.000000 0.000000
# 2 -0.011463 0.024374 -0.002716 0.000000 0.000000 0.000000
# 3 -0.002716 -0.002716 0.010426 0.000000 0.000000 0.000000
# 4 0.000000 0.000000 0.000000 0.040153 0.000000 0.000000
# 5 0.000000 0.000000 0.000000 0.000000 0.040154 0.000000
# 6 0.000000 0.000000 0.000000 0.000000 0.000000 0.043919
#
#
# Mechanical properties :
#
#
# Convention : Reuss Voigt Hill
#
# Bulk Modulus (GPa) = 39.39799 41.37332 40.38565
# Shear Modulus (GPa) = 22.15822 24.36536 23.26179
#
# Velocity S-wave (km/s) = 3.31689 3.47816 3.39848
# Velocity P-wave (km/s) = 5.85067 6.05577 5.95410
#
# Compressibility (1/GPa) = 0.02538201
#
# Stress axis : x y z
#
# Youngs Moduli (GPa) = 41.03025 41.02773 95.91064
#
# Poissons Ratio (x) = 0.47029 0.26052
# Poissons Ratio (y) = 0.47032 0.26050
# Poissons Ratio (z) = 0.11145 0.11144
#
# Static dielectric constant tensor:
#      x y z
#    x 1.736760 0.000000 0.000000 
#    y 0.000000 1.736760 0.000000 
#    z 0.000000 0.000000 1.721100 
# 
# From -- ./inp_files/2860.got.cif
#   From: 2010.05.17/outbox.cif.g08.bks.cpg/sg113_cif.got.tgz:2860.got - 2010.05.20 11:03:00.
