data_PCOD9555366
_publ_section_title
;
Structure prediction by ZEFSAII (Michael W. Deem and Ramdas Pophale) SiO2 
 PCOD9555366
Probable space group: P -4 2 C
;
_chemical_formula_sum "Si O2"
_cell_formula_units_Z 40
_cell_length_a 8.865563
_cell_length_b 8.865563
_cell_length_c 23.437082
_cell_angle_alpha 90.000000
_cell_angle_beta 90.000000
_cell_angle_gamma 90.000000
_cell_volume 1842.112630
_symmetry_space_group_name_H-M "P -4 2 C"
_symmetry_group_IT_number 112
_symmetry_cell_setting 'tetragonal'
loop_
_space_group_symop_operation_xyz
x,y,z
y,-x,-z
-x,-y,z
-y,x,-z
x,-y,1/2-z
-x,y,1/2-z
-y,-x,1/2+z
y,x,1/2+z
loop_
_atom_site_type_symbol
_atom_site_label
_atom_site_fract_x
_atom_site_fract_y
_atom_site_fract_z
Si Si1 0.354249 0.797949 0.640281
Si Si2 0.207927 0.909594 0.475677
Si Si3 0.179716 0.680669 0.750919
Si Si4 0.407245 0.701715 0.524374
Si Si5 0.715496 0.145465 0.863964
O O1 0.280991 0.735512 0.697689
O O2 0.333619 0.686471 0.586431
O O3 0.535730 0.818728 0.635436
O O4 0.281407 0.963523 0.634618
O O5 0.367882 0.866952 0.502308
O O6 0.193183 0.830826 0.414390
O O7 0.083865 0.830568 0.517426
O O8 0.198503 0.500000 0.750000
O O9 0.233560 0.770473 0.806659
O O10 0.000000 0.710526 0.750000
O O11 0.582663 0.666282 0.519364
#
# Coordination Sequence:
#
# PCOD9555366 Si02
#       5
#     8   8   8   8   8
#     4  11  24  45  71 100 137 182 233 284 344 416
#     4  11  24  41  66 103 140 182 226 277 346 410
#     4  11  28  47  68 102 136 179 230 293 352 406
#     4  11  24  41  66 103 140 182 226 277 346 410
#     4  11  24  45  71 100 137 182 233 284 344 416
#
# _framework density 21.714200999999999
#
# number of rings (size 3 to 8) (size 9 to 14) (size 15 to 20)
#    0.000    1.000    4.000    1.200    5.600    5.600 
#    0.000    0.000    0.000    0.000    0.000    0.000 
#    0.000    0.000    0.000    0.000    0.000    0.000 
#
# Total GULP energy -223080.946649 kJ/mol
# GULP energy per Si atom -5577.023666 kJ/mol
# Density = 2.166478 g / cm^3
# Si number density = 21.714201 Si / 1000 Ang^3
#
#
#
# Elastic Constant Matrix: (Units=GPa)
#
#
# Indices 1 2 3 4 5 6 
#
# 1 30.3962 48.1529 40.2710 0.0000 0.0000 0.0000
# 2 48.1529 30.3962 40.2710 0.0000 0.0000 0.0000
# 3 40.2710 40.2710 184.3632 0.0000 0.0000 0.0000
# 4 0.0000 0.0000 0.0000 35.1424 0.0000 0.0000
# 5 0.0000 0.0000 0.0000 0.0000 35.1424 0.0000
# 6 0.0000 0.0000 0.0000 0.0000 0.0000 39.4004
#
#
#
# Elastic Compliance Matrix: (Units=1/GPa)
#
#
# Indices 1 2 3 4 5 6 
#
# 1 -0.019956 0.036361 -0.003583 0.000000 0.000000 0.000000
# 2 0.036361 -0.019956 -0.003583 0.000000 0.000000 0.000000
# 3 -0.003583 -0.003583 0.006990 0.000000 0.000000 0.000000
# 4 0.000000 0.000000 0.000000 0.028456 0.000000 0.000000
# 5 0.000000 0.000000 0.000000 0.000000 0.028456 0.000000
# 6 0.000000 0.000000 0.000000 0.000000 0.000000 0.025380
#
#
# Mechanical properties :
#
#
# Convention : Reuss Voigt Hill
#
# Bulk Modulus (GPa) = 39.26763 55.83836 47.55300
# Shear Modulus (GPa) = -9444.98740 29.70109 -4707.64315
#
# Velocity S-wave (km/s) = -66.02367 3.70242 -46.61232
# Velocity P-wave (km/s) = 76.11862 6.63688 53.61901
#
# Compressibility (1/GPa) = 0.02546627
#
# Stress axis : x y z
#
# Youngs Moduli (GPa) = -50.11102 -50.11102 143.07057
#
# Poissons Ratio (x) = 1.82208 0.51268
# Poissons Ratio (y) = 1.82208 0.51268
# Poissons Ratio (z) = -0.17957 -0.17957
#
# Static dielectric constant tensor:
#      x y z
#    x 1.785860 0.000000 0.000000 
#    y 0.000000 1.785860 0.000000 
#    z 0.000000 0.000000 1.806920 
# 
# From -- ./inp_files/5323.got.cif
#   From: 2010.05.17/outbox.cif.g08.bks.cpg/sg112_3_cif.got.tgz:5323.got - 2010.05.20 10:59:04.
