data_PCOD9555799
_publ_section_title
;
Structure prediction by ZEFSAII (Michael W. Deem and Ramdas Pophale) SiO2 
 PCOD9555799
Probable space group: P -4 21 M 
;
_chemical_formula_sum "Si O2"
_cell_formula_units_Z 48
_cell_length_a 10.063615
_cell_length_b 10.063615
_cell_length_c 18.657890
_cell_angle_alpha 90.000000
_cell_angle_beta 90.000000
_cell_angle_gamma 90.000000
_cell_volume 1889.602939
_symmetry_space_group_name_H-M "P -4 21 M "
_symmetry_group_IT_number 113
_symmetry_cell_setting 'tetragonal'
loop_
_space_group_symop_operation_xyz
x,y,z
y,-x,-z
-x,-y,z
-y,x,-z
1/2+x,1/2-y,-z
1/2-x,1/2+y,-z
1/2-y,1/2-x,z
1/2+y,1/2+x,z
loop_
_atom_site_type_symbol
_atom_site_label
_atom_site_fract_x
_atom_site_fract_y
_atom_site_fract_z
Si Si1 0.705675 0.995180 0.857038
Si Si2 0.278884 0.009120 0.623227
Si Si3 0.926030 0.198937 0.836389
Si Si4 0.682511 0.411515 0.682284
Si Si5 0.217334 0.988223 0.012065
Si Si6 0.221818 0.492663 0.536240
O O1 0.648833 0.851168 0.834848
O O2 0.602929 0.102929 0.824414
O O3 0.853177 0.054230 0.844966
O O4 0.691033 0.003466 0.943399
O O5 0.395931 0.895931 0.619973
O O6 0.171211 0.954289 0.678220
O O7 0.354349 0.145652 0.639315
O O8 0.217945 0.010366 0.542758
O O9 0.805294 0.305294 0.837924
O O10 0.986234 0.199879 0.757106
O O11 0.015373 0.244361 0.903374
O O12 0.800643 0.300643 0.680657
O O13 0.696555 0.490568 0.608601
O O14 0.134641 0.123238 0.004357
O O15 0.106232 0.606232 0.537906
O O16 0.148215 0.351786 0.537792
#
# Coordination Sequence:
#
# PCOD9555799 Si02
#       6
#     8   8   8   8   8   8
#     4   9  17  29  46  68  92 118 150 190 233 276
#     4   8  14  25  43  67  93 124 162 198 234 283
#     4   9  17  28  44  70  99 124 153 190 232 279
#     4   9  16  26  44  70  98 125 154 195 243 285
#     4   9  17  30  48  65  85 120 159 188 223 271
#     4   8  14  26  44  65  90 124 164 197 228 276
#
# _framework density 25.402159999999999
#
# number of rings (size 3 to 8) (size 9 to 14) (size 15 to 20)
#    0.000    3.333    0.000    1.500    0.000    1.333 
#    0.000    4.167    0.000   11.500    0.000    2.333 
#    0.000    0.000    0.000    0.000    0.000    0.000 
#
# Total GULP energy -267849.765308 kJ/mol
# GULP energy per Si atom -5580.203444 kJ/mol
# Density = 2.534434 g / cm^3
# Si number density = 25.402160 Si / 1000 Ang^3
#
#
#
# Elastic Constant Matrix: (Units=GPa)
#
#
# Indices 1 2 3 4 5 6 
#
# 1 33.2074 17.3789 8.8760 0.0000 0.0000 0.0000
# 2 17.3789 33.2081 8.8760 0.0000 0.0000 0.0000
# 3 8.8760 8.8760 152.3086 0.0000 0.0000 0.0000
# 4 0.0000 0.0000 0.0000 17.8453 0.0000 0.0000
# 5 0.0000 0.0000 0.0000 0.0000 17.8466 0.0000
# 6 0.0000 0.0000 0.0000 0.0000 0.0000 235.8614
#
#
#
# Elastic Compliance Matrix: (Units=1/GPa)
#
#
# Indices 1 2 3 4 5 6 
#
# 1 0.041679 -0.021498 -0.001176 0.000000 0.000000 0.000000
# 2 -0.021498 0.041678 -0.001176 0.000000 0.000000 0.000000
# 3 -0.001176 -0.001176 0.006703 0.000000 0.000000 0.000000
# 4 0.000000 0.000000 0.000000 0.056037 0.000000 0.000000
# 5 0.000000 0.000000 0.000000 0.000000 0.056033 0.000000
# 6 0.000000 0.000000 0.000000 0.000000 0.000000 0.004240
#
#
# Mechanical properties :
#
#
# Convention : Reuss Voigt Hill
#
# Bulk Modulus (GPa) = 23.60721 32.10954 27.85837
# Shear Modulus (GPa) = 18.64358 66.55021 42.59690
#
# Velocity S-wave (km/s) = 2.71207 5.12401 4.09944
# Velocity P-wave (km/s) = 4.37271 6.90473 5.77910
#
# Compressibility (1/GPa) = 0.04235995
#
# Stress axis : x y z
#
# Youngs Moduli (GPa) = 23.99305 23.99349 149.19384
#
# Poissons Ratio (x) = 0.51580 0.17546
# Poissons Ratio (y) = 0.51579 0.17546
# Poissons Ratio (z) = 0.02822 0.02822
#
# Static dielectric constant tensor:
#      x y z
#    x 2.038730 0.000000 0.000000 
#    y 0.000000 2.038720 0.000000 
#    z 0.000000 0.000000 1.910080 
# 
# From -- ./inp_files/2442.got.cif
#   From: 2010.05.17/outbox.cif.g08.bks.cpg/sg113_cif.got.tgz:2442.got - 2010.05.20 11:03:00.
