data_PCOD9555526
_publ_section_title
;
Structure prediction by ZEFSAII (Michael W. Deem and Ramdas Pophale) SiO2 
 PCOD9555526
Probable space group: P -4 21 M 
;
_chemical_formula_sum "Si O2"
_cell_formula_units_Z 64
_cell_length_a 12.235931
_cell_length_b 12.235931
_cell_length_c 24.168016
_cell_angle_alpha 90.000000
_cell_angle_beta 90.000000
_cell_angle_gamma 90.000000
_cell_volume 3618.387199
_symmetry_space_group_name_H-M "P -4 21 M "
_symmetry_group_IT_number 113
_symmetry_cell_setting 'tetragonal'
loop_
_space_group_symop_operation_xyz
x,y,z
y,-x,-z
-x,-y,z
-y,x,-z
1/2+x,1/2-y,-z
1/2-x,1/2+y,-z
1/2-y,1/2-x,z
1/2+y,1/2+x,z
loop_
_atom_site_type_symbol
_atom_site_label
_atom_site_fract_x
_atom_site_fract_y
_atom_site_fract_z
Si Si1 0.979910 0.873401 0.663993
Si Si2 0.586030 0.261966 0.441357
Si Si3 0.610977 0.708524 0.050676
Si Si4 0.129029 0.973737 0.863723
Si Si5 0.321624 0.357242 0.928326
Si Si6 0.555075 0.761986 0.675792
Si Si7 0.052244 0.729653 0.449741
Si Si8 0.819699 0.139046 0.747150
O O1 0.989880 0.798445 0.609699
O O2 0.851797 0.875755 0.681511
O O3 0.068098 0.846712 0.711578
O O4 0.000000 0.000000 0.647938
O O5 0.654478 0.154478 0.426140
O O6 0.528101 0.245694 0.499722
O O7 0.673143 0.359116 0.449519
O O8 0.680702 0.819299 0.057855
O O9 0.660415 0.612848 0.088929
O O10 0.484548 0.711551 0.068809
O O11 0.621517 0.671747 0.986984
O O12 0.154437 0.917124 0.805776
O O13 0.174697 0.092272 0.880378
O O14 0.000000 0.000000 0.866182
O O15 0.214797 0.285204 0.923114
O O16 0.636723 0.863278 0.684437
O O17 0.509377 0.768913 0.612947
O O18 0.451802 0.751889 0.715183
O O19 0.117445 0.617445 0.457738
O O20 0.749901 0.249901 0.752493
#
# Coordination Sequence:
#
# PCOD9555526 Si02
#       8
#     8   8   8   8   8   8   8   8
#     4   9  19  36  56  79 104 141 188 234 277 330
#     4  10  21  34  53  81 111 142 182 234 287 340
#     4  10  19  34  57  84 119 155 189 235 283 333
#     4  10  20  36  60  82 113 150 194 234 276 331
#     4  10  20  34  56  86 117 153 195 235 281 333
#     4   9  19  38  58  76 106 149 192 233 278 334
#     4   9  20  34  51  77 107 141 182 227 280 339
#     4  11  23  37  56  86 116 146 185 233 286 340
#
# _framework density 17.687439000000001
#
# number of rings (size 3 to 8) (size 9 to 14) (size 15 to 20)
#    0.000    2.250    1.250    2.625    5.250    2.250 
#    0.000    1.250    0.000    3.000    0.000    0.000 
#    0.000    0.000    0.000    0.000    0.000    0.000 
#
# Total GULP energy -356665.929784 kJ/mol
# GULP energy per Si atom -5572.905153 kJ/mol
# Density = 1.764718 g / cm^3
# Si number density = 17.687439 Si / 1000 Ang^3
#
#
#
# Elastic Constant Matrix: (Units=GPa)
#
#
# Indices 1 2 3 4 5 6 
#
# 1 55.3098 29.4436 23.5104 0.0000 0.0000 0.0000
# 2 29.4436 55.3061 23.5093 0.0000 0.0000 0.0000
# 3 23.5104 23.5093 73.9648 0.0000 0.0000 0.0000
# 4 0.0000 0.0000 0.0000 -0.0287 0.0000 0.0000
# 5 0.0000 0.0000 0.0000 0.0000 -0.0283 0.0000
# 6 0.0000 0.0000 0.0000 0.0000 0.0000 14.1640
#
#
#
# Elastic Compliance Matrix: (Units=1/GPa)
#
#
# Indices 1 2 3 4 5 6 
#
# 1 0.026494 -0.012169 -0.004553 0.000000 0.000000 0.000000
# 2 -0.012169 0.026495 -0.004553 0.000000 0.000000 0.000000
# 3 -0.004553 -0.004553 0.016415 0.000000 0.000000 0.000000
# 4 0.000000 0.000000 0.000000-34.783558 0.000000 0.000000
# 5 0.000000 0.000000 0.000000 0.000000-35.275119 0.000000
# 6 0.000000 0.000000 0.000000 0.000000 0.000000 0.070601
#
#
# Mechanical properties :
#
#
# Convention : Reuss Voigt Hill
#
# Bulk Modulus (GPa) = 37.24137 37.50083 37.37110
# Shear Modulus (GPa) = -0.07156 10.02921 4.97882
#
# Velocity S-wave (km/s) = -0.20137 2.38381 1.67958
# Velocity P-wave (km/s) = 4.58769 5.36887 4.99358
#
# Compressibility (1/GPa) = 0.02685186
#
# Stress axis : x y z
#
# Youngs Moduli (GPa) = 37.74507 37.74274 60.92165
#
# Poissons Ratio (x) = 0.45929 0.27740
# Poissons Ratio (y) = 0.45932 0.27740
# Poissons Ratio (z) = 0.17187 0.17185
#
# Static dielectric constant tensor:
#      x y z
#    x 1.612720 0.000000 0.000000 
#    y 0.000000 1.612720 0.000000 
#    z 0.000000 0.000000 1.621510 
# 
# From -- ./inp_files/2881.got.cif
#   From: 2010.05.17/outbox.cif.g08.bks.cpg/sg113_cif.got.tgz:2881.got - 2010.05.20 11:03:00.
