data_PCOD9555469
_publ_section_title
;
Structure prediction by ZEFSAII (Michael W. Deem and Ramdas Pophale) SiO2 
 PCOD9555469
Probable space group: P -4 21 M 
;
_chemical_formula_sum "Si O2"
_cell_formula_units_Z 40
_cell_length_a 14.383723
_cell_length_b 14.383723
_cell_length_c 13.087162
_cell_angle_alpha 90.000000
_cell_angle_beta 90.000000
_cell_angle_gamma 90.000000
_cell_volume 2707.622411
_symmetry_space_group_name_H-M "P -4 21 M "
_symmetry_group_IT_number 113
_symmetry_cell_setting 'tetragonal'
loop_
_space_group_symop_operation_xyz
x,y,z
y,-x,-z
-x,-y,z
-y,x,-z
1/2+x,1/2-y,-z
1/2-x,1/2+y,-z
1/2-y,1/2-x,z
1/2+y,1/2+x,z
loop_
_atom_site_type_symbol
_atom_site_label
_atom_site_fract_x
_atom_site_fract_y
_atom_site_fract_z
Si Si1 0.112976 0.106608 0.613905
Si Si2 0.112977 0.893393 0.613905
Si Si3 0.608307 0.391691 1.000000
Si Si4 0.110700 0.236286 0.802917
Si Si5 0.610702 0.736285 0.197083
O O1 0.139410 0.139411 0.500000
O O2 0.139921 0.174595 0.705026
O O3 1.000000 0.103379 0.613295
O O4 0.144844 0.000000 0.630194
O O5 0.139922 0.825406 0.705025
O O6 0.626439 0.325048 0.095487
O O7 0.619545 0.499999 0.030987
O O8 0.754140 0.499999 0.795534
O O9 0.674949 0.373560 0.904512
O O10 0.170859 0.329142 0.806996
O O11 0.670861 0.829140 0.193003
#
# Coordination Sequence:
#
# PCOD9555469 Si02
#       5
#     8   8   8   8   8
#     4   8  14  26  44  64  84 105 133 173 215 245
#     4   8  14  26  44  64  84 105 133 173 215 245
#     4   9  17  30  48  66  81  99 130 176 222 251
#     4  10  19  29  42  61  86 114 140 165 197 242
#     4  10  19  29  42  61  86 114 140 165 197 242
#
# _framework density 14.773108000000001
#
# number of rings (size 3 to 8) (size 9 to 14) (size 15 to 20)
#    0.000    3.000    0.000    3.000    0.000    6.000 
#    0.000    0.000    0.000    0.000    0.000    0.000 
#    0.000    7.200    0.000    1.600    0.000    0.000 
#
# Total GULP energy -222723.590917 kJ/mol
# GULP energy per Si atom -5568.089773 kJ/mol
# Density = 1.473948 g / cm^3
# Si number density = 14.773108 Si / 1000 Ang^3
#
#
#
# Elastic Constant Matrix: (Units=GPa)
#
#
# Indices 1 2 3 4 5 6 
#
# 1 61.1858 50.1389 59.7248 0.0000 0.0000 0.0000
# 2 50.1389 61.1779 59.7241 0.0000 0.0000 0.0000
# 3 59.7248 59.7241 115.4631 0.0000 0.0000 0.0000
# 4 0.0000 0.0000 0.0000 1.8222 0.0000 0.0000
# 5 0.0000 0.0000 0.0000 0.0000 1.8108 0.0000
# 6 0.0000 0.0000 0.0000 0.0000 0.0000 24.2208
#
#
#
# Elastic Compliance Matrix: (Units=1/GPa)
#
#
# Indices 1 2 3 4 5 6 
#
# 1 0.055365 -0.035184 -0.010439 0.000000 0.000000 0.000000
# 2 -0.035184 0.055379 -0.010446 0.000000 0.000000 0.000000
# 3 -0.010439 -0.010446 0.019464 0.000000 0.000000 0.000000
# 4 0.000000 0.000000 0.000000 0.548800 0.000000 0.000000
# 5 0.000000 0.000000 0.000000 0.000000 0.552248 0.000000
# 6 0.000000 0.000000 0.000000 0.000000 0.000000 0.041287
#
#
# Mechanical properties :
#
#
# Convention : Reuss Voigt Hill
#
# Bulk Modulus (GPa) = 55.34078 64.11138 59.72608
# Shear Modulus (GPa) = 3.59530 10.12001 6.85766
#
# Velocity S-wave (km/s) = 1.56172 2.62015 2.15686
# Velocity P-wave (km/s) = 6.38700 7.25570 6.83516
#
# Compressibility (1/GPa) = 0.01806986
#
# Stress axis : x y z
#
# Youngs Moduli (GPa) = 18.06187 18.05755 51.37787
#
# Poissons Ratio (x) = 0.63534 0.53634
# Poissons Ratio (y) = 0.63549 0.53667
# Poissons Ratio (z) = 0.18855 0.18862
#
# Static dielectric constant tensor:
#      x y z
#    x 1.468810 0.000000 0.000000 
#    y 0.000000 1.468810 0.000000 
#    z 0.000000 0.000000 1.502850 
# 
# From -- ./inp_files/1713.got.cif
#   From: 2010.05.17/outbox.cif.g08.bks.cpg/sg113_cif.got.tgz:1713.got - 2010.05.20 11:03:00.
