data_PCOD9555442
_publ_section_title
;
Structure prediction by ZEFSAII (Michael W. Deem and Ramdas Pophale) SiO2 
 PCOD9555442
Probable space group: P -4 21 M 
;
_chemical_formula_sum "Si O2"
_cell_formula_units_Z 56
_cell_length_a 11.580944
_cell_length_b 11.580944
_cell_length_c 22.876710
_cell_angle_alpha 90.000000
_cell_angle_beta 90.000000
_cell_angle_gamma 90.000000
_cell_volume 3068.184630
_symmetry_space_group_name_H-M "P -4 21 M "
_symmetry_group_IT_number 113
_symmetry_cell_setting 'tetragonal'
loop_
_space_group_symop_operation_xyz
x,y,z
y,-x,-z
-x,-y,z
-y,x,-z
1/2+x,1/2-y,-z
1/2-x,1/2+y,-z
1/2-y,1/2-x,z
1/2+y,1/2+x,z
loop_
_atom_site_type_symbol
_atom_site_label
_atom_site_fract_x
_atom_site_fract_y
_atom_site_fract_z
Si Si1 0.465592 0.779337 0.629166
Si Si2 0.556284 0.757497 0.951113
Si Si3 0.991279 0.311951 0.235743
Si Si4 0.375309 0.687916 0.855554
Si Si5 0.520858 0.362435 0.069949
Si Si6 0.347597 0.665373 0.441304
Si Si7 0.388483 0.294872 0.424947
O O1 0.400010 0.900010 0.613328
O O2 0.509479 0.788710 0.695268
O O3 0.567361 0.732432 0.588083
O O4 0.366759 0.682978 0.622472
O O5 0.620318 0.879683 0.949927
O O6 0.443253 0.745816 0.910684
O O7 0.643112 0.658286 0.926905
O O8 0.525041 0.715745 0.016741
O O9 0.089348 0.410653 0.226536
O O10 0.035598 0.205089 0.197659
O O11 0.871018 0.371018 0.217172
O O12 0.260990 0.760990 0.844031
O O13 0.343088 0.558474 0.873738
O O14 0.500000 0.500000 0.058944
O O15 0.285789 0.785789 0.430454
O O16 0.345534 0.643791 0.510948
O O17 0.477167 0.677883 0.418468
O O18 0.335335 0.164666 0.424542
#
# Coordination Sequence:
#
# PCOD9555442 Si02
#       7
#     8   8   8   8   8   8   8
#     4  10  20  35  56  81 109 144 182 226 284 338
#     4  11  19  30  49  71 101 136 171 216 261 310
#     4   9  18  33  52  79 113 141 174 225 274 318
#     4  10  19  33  54  77 102 136 176 215 263 314
#     4  10  17  32  47  68 100 136 172 207 251 315
#     4  11  21  34  54  78 109 147 184 231 279 328
#     4  10  21  35  52  77 109 145 187 228 274 333
#
# _framework density 18.251836999999998
#
# number of rings (size 3 to 8) (size 9 to 14) (size 15 to 20)
#    0.000    1.857    4.286    1.714    0.000    2.000 
#    0.000    5.714    0.000    1.286    0.000    0.000 
#    0.000    3.429    0.000    0.000    0.000    0.000 
#
# Total GULP energy -311896.574501 kJ/mol
# GULP energy per Si atom -5569.581688 kJ/mol
# Density = 1.821030 g / cm^3
# Si number density = 18.251837 Si / 1000 Ang^3
#
#
#
# Elastic Constant Matrix: (Units=GPa)
#
#
# Indices 1 2 3 4 5 6 
#
# 1 26.8766 41.3569 4.6824 0.0000 0.0000 0.0000
# 2 41.3569 26.8766 4.6837 0.0000 0.0000 0.0000
# 3 4.6824 4.6837 42.4839 0.0000 0.0000 0.0000
# 4 0.0000 0.0000 0.0000 20.3125 0.0000 0.0000
# 5 0.0000 0.0000 0.0000 0.0000 20.3125 0.0000
# 6 0.0000 0.0000 0.0000 0.0000 0.0000 23.1500
#
#
#
# Elastic Compliance Matrix: (Units=1/GPa)
#
#
# Indices 1 2 3 4 5 6 
#
# 1 -0.027089 0.041970 -0.001641 0.000000 0.000000 0.000000
# 2 0.041970 -0.027089 -0.001639 0.000000 0.000000 0.000000
# 3 -0.001641 -0.001639 0.023900 0.000000 0.000000 0.000000
# 4 0.000000 0.000000 0.000000 0.049231 0.000000 0.000000
# 5 0.000000 0.000000 0.000000 0.000000 0.049231 0.000000
# 6 0.000000 0.000000 0.000000 0.000000 0.000000 0.043197
#
#
# Mechanical properties :
#
#
# Convention : Reuss Voigt Hill
#
# Bulk Modulus (GPa) = 21.23137 21.96479 21.59808
# Shear Modulus (GPa) = 100.60110 15.78925 58.19517
#
# Velocity S-wave (km/s) = 7.43223 2.94441 5.65277
# Velocity P-wave (km/s) = 9.23625 4.86002 7.37998
#
# Compressibility (1/GPa) = 0.04710013
#
# Stress axis : x y z
#
# Youngs Moduli (GPa) = -36.91523 -36.91491 41.84104
#
# Poissons Ratio (x) = 1.54932 0.06868
# Poissons Ratio (y) = 1.54933 0.06859
# Poissons Ratio (z) = -0.06059 -0.06051
#
# Static dielectric constant tensor:
#      x y z
#    x 1.659590 0.000000 0.000000 
#    y 0.000000 1.659590 0.000000 
#    z 0.000000 0.000000 1.631880 
# 
# From -- ./inp_files/2669.got.cif
#   From: 2010.05.17/outbox.cif.g08.bks.cpg/sg113_cif.got.tgz:2669.got - 2010.05.20 11:03:00.
