data_PCOD9555934
_publ_section_title
;
Structure prediction by ZEFSAII (Michael W. Deem and Ramdas Pophale) SiO2 
 PCOD9555934
Probable space group: P -4 21 C
;
_chemical_formula_sum "Si O2"
_cell_formula_units_Z 32
_cell_length_a 9.000927
_cell_length_b 9.000927
_cell_length_c 21.754138
_cell_angle_alpha 90.000000
_cell_angle_beta 90.000000
_cell_angle_gamma 90.000000
_cell_volume 1762.448186
_symmetry_space_group_name_H-M "P -4 21 C"
_symmetry_group_IT_number 114
_symmetry_cell_setting 'tetragonal'
loop_
_space_group_symop_operation_xyz
x,y,z
y,-x,-z
-x,-y,z
-y,x,-z
1/2+x,1/2-y,1/2-z
1/2-x,1/2+y,1/2-z
1/2-y,1/2-x,1/2+z
1/2+y,1/2+x,1/2+z
loop_
_atom_site_type_symbol
_atom_site_label
_atom_site_fract_x
_atom_site_fract_y
_atom_site_fract_z
Si Si1 0.499998 0.749277 0.500000
Si Si2 0.437159 0.200601 0.785606
Si Si3 0.500000 0.000000 0.397837
Si Si4 0.562838 0.200602 0.214395
Si Si5 0.500000 0.000000 0.602165
O O1 0.642781 0.642784 0.495163
O O2 0.488003 0.856486 0.441094
O O3 0.511991 0.856485 0.558907
O O4 0.482357 0.141109 0.852654
O O5 0.358568 0.358569 0.785853
O O6 0.578747 0.179226 0.741560
O O7 0.320769 0.078749 0.758442
O O8 0.517639 0.141109 0.147347
#
# Coordination Sequence:
#
# PCOD9555934 Si02
#       5
#     8   8   4   8   4
#     4  10  20  34  54  76  98 132 174 210 248 296
#     4   9  19  34  52  76 105 134 165 204 249 298
#     4   9  19  34  52  74 105 133 164 210 254 293
#     4   9  19  34  52  76 105 134 165 204 249 298
#     4   9  19  34  52  74 105 133 164 210 254 293
#
# _framework density 18.156562999999998
#
# number of rings (size 3 to 8) (size 9 to 14) (size 15 to 20)
#    0.000    3.250    0.000    1.500    0.000    9.000 
#    0.000    0.000    0.000   24.000    0.000    0.000 
#    0.000    0.000    0.000    0.000    0.000    0.000 
#
# Total GULP energy -178381.269737 kJ/mol
# GULP energy per Si atom -5574.414679 kJ/mol
# Density = 1.811524 g / cm^3
# Si number density = 18.156563 Si / 1000 Ang^3
#
#
#
# Elastic Constant Matrix: (Units=GPa)
#
#
# Indices 1 2 3 4 5 6 
#
# 1 82.9442 54.3781 45.7863 0.0000 0.0000 0.0000
# 2 54.3781 82.9442 45.7863 0.0000 0.0000 0.0000
# 3 45.7863 45.7863 133.9715 0.0000 0.0000 0.0000
# 4 0.0000 0.0000 0.0000 0.2263 0.0000 0.0000
# 5 0.0000 0.0000 0.0000 0.0000 0.2263 0.0000
# 6 0.0000 0.0000 0.0000 0.0000 0.0000 44.1505
#
#
#
# Elastic Compliance Matrix: (Units=1/GPa)
#
#
# Indices 1 2 3 4 5 6 
#
# 1 0.022219 -0.012787 -0.003223 0.000000 0.000000 0.000000
# 2 -0.012787 0.022219 -0.003223 0.000000 0.000000 0.000000
# 3 -0.003223 -0.003223 0.009668 0.000000 0.000000 0.000000
# 4 0.000000 0.000000 0.000000 4.418045 0.000000 0.000000
# 5 0.000000 0.000000 0.000000 0.000000 4.418045 0.000000
# 6 0.000000 0.000000 0.000000 0.000000 0.000000 0.022650
#
#
# Mechanical properties :
#
#
# Convention : Reuss Voigt Hill
#
# Bulk Modulus (GPa) = 63.94966 65.75126 64.85046
# Shear Modulus (GPa) = 0.55825 19.18125 9.86975
#
# Velocity S-wave (km/s) = 0.55510 3.25381 2.33403
# Velocity P-wave (km/s) = 5.97566 7.09989 6.56190
#
# Compressibility (1/GPa) = 0.01563730
#
# Stress axis : x y z
#
# Youngs Moduli (GPa) = 45.00646 45.00646 103.43914
#
# Poissons Ratio (x) = 0.57552 0.33342
# Poissons Ratio (y) = 0.57552 0.33342
# Poissons Ratio (z) = 0.14507 0.14507
#
# Static dielectric constant tensor:
#      x y z
#    x 1.622700 0.000000 0.000000 
#    y 0.000000 1.622700 0.000000 
#    z 0.000000 0.000000 1.605680 
# 
# From -- ./inp_files/2888.got.cif
#   From: 2010.05.17/outbox.cif.g08.bks.cpg/sg114_2_cif.got.tgz:2888.got - 2010.05.20 11:04:54.
