data_PCOD9555453
_publ_section_title
;
Structure prediction by ZEFSAII (Michael W. Deem and Ramdas Pophale) SiO2 
 PCOD9555453
Probable space group: P -4 21 M 
;
_chemical_formula_sum "Si O2"
_cell_formula_units_Z 64
_cell_length_a 12.522557
_cell_length_b 12.522557
_cell_length_c 23.407493
_cell_angle_alpha 90.000000
_cell_angle_beta 90.000000
_cell_angle_gamma 90.000000
_cell_volume 3670.632762
_symmetry_space_group_name_H-M "P -4 21 M "
_symmetry_group_IT_number 113
_symmetry_cell_setting 'tetragonal'
loop_
_space_group_symop_operation_xyz
x,y,z
y,-x,-z
-x,-y,z
-y,x,-z
1/2+x,1/2-y,-z
1/2-x,1/2+y,-z
1/2-y,1/2-x,z
1/2+y,1/2+x,z
loop_
_atom_site_type_symbol
_atom_site_label
_atom_site_fract_x
_atom_site_fract_y
_atom_site_fract_z
Si Si1 0.623118 0.455020 0.366234
Si Si2 0.206385 0.876239 0.556418
Si Si3 0.463693 0.664629 0.018094
Si Si4 0.888096 0.062685 0.253239
Si Si5 0.673980 0.006977 0.921491
Si Si6 0.525082 0.281062 0.439301
Si Si7 0.848007 0.167305 0.132398
Si Si8 0.176488 0.500626 0.681611
O O1 0.500000 0.500000 0.363038
O O2 0.700890 0.542913 0.391011
O O3 0.648145 0.415236 0.303042
O O4 0.612799 0.359625 0.411278
O O5 0.271128 0.771128 0.570629
O O6 0.082750 0.845837 0.546147
O O7 0.255368 0.929834 0.499827
O O8 0.417033 0.670632 0.081441
O O9 0.581019 0.612583 0.015519
O O10 0.466938 0.773140 0.982505
O O11 0.854326 0.112036 0.193501
O O12 0.787833 0.000508 0.282996
O O13 0.000000 0.000000 0.243853
O O14 0.586607 0.913394 0.928139
O O15 0.767741 0.956787 0.882730
O O16 0.610532 0.110532 0.899393
O O17 0.500106 0.202673 0.386508
O O18 0.752794 0.252794 0.131238
O O19 0.105415 0.394586 0.693998
O O20 0.102185 0.602185 0.694663
#
# Coordination Sequence:
#
# PCOD9555453 Si02
#       8
#     8   8   8   8   8   8   8   8
#     4   8  17  32  48  71  99 135 172 218 259 314
#     4  11  19  29  51  79 105 135 175 226 277 328
#     4   9  18  31  54  81 109 141 175 226 281 330
#     4  10  21  36  58  79 110 148 189 229 272 326
#     4   9  18  33  52  77 111 148 185 227 276 331
#     4  10  18  31  51  77 105 136 175 221 275 336
#     4  10  20  34  56  82 108 145 188 230 269 325
#     4  10  21  39  60  82 112 147 187 238 295 345
#
# _framework density 17.435686
#
# number of rings (size 3 to 8) (size 9 to 14) (size 15 to 20)
#    0.000    2.375    1.250    2.250    3.500    0.500 
#    0.000    1.875    0.000    2.250    0.000    0.000 
#    0.000    0.000    0.000    0.000    0.000    0.000 
#
# Total GULP energy -356407.854697 kJ/mol
# GULP energy per Si atom -5568.872730 kJ/mol
# Density = 1.739600 g / cm^3
# Si number density = 17.435686 Si / 1000 Ang^3
#
#
#
# Elastic Constant Matrix: (Units=GPa)
#
#
# Indices 1 2 3 4 5 6 
#
# 1 52.1731 17.4688 31.8349 0.0000 0.0000 0.0000
# 2 17.4688 52.1745 31.8355 0.0000 0.0000 0.0000
# 3 31.8349 31.8355 128.3265 0.0000 0.0000 0.0000
# 4 0.0000 0.0000 0.0000 13.8705 0.0000 0.0000
# 5 0.0000 0.0000 0.0000 0.0000 13.8704 0.0000
# 6 0.0000 0.0000 0.0000 0.0000 0.0000 10.4603
#
#
#
# Elastic Compliance Matrix: (Units=1/GPa)
#
#
# Indices 1 2 3 4 5 6 
#
# 1 0.023693 -0.005122 -0.004607 0.000000 0.000000 0.000000
# 2 -0.005122 0.023692 -0.004607 0.000000 0.000000 0.000000
# 3 -0.004607 -0.004607 0.010078 0.000000 0.000000 0.000000
# 4 0.000000 0.000000 0.000000 0.072096 0.000000 0.000000
# 5 0.000000 0.000000 0.000000 0.000000 0.072096 0.000000
# 6 0.000000 0.000000 0.000000 0.000000 0.000000 0.095600
#
#
# Mechanical properties :
#
#
# Convention : Reuss Voigt Hill
#
# Bulk Modulus (GPa) = 34.73168 43.88363 39.30766
# Shear Modulus (GPa) = 14.90206 17.74256 16.32231
#
# Velocity S-wave (km/s) = 2.92668 3.19345 3.06297
# Velocity P-wave (km/s) = 5.60212 6.23065 5.92472
#
# Compressibility (1/GPa) = 0.02879215
#
# Stress axis : x y z
#
# Youngs Moduli (GPa) = 42.20663 42.20769 99.22135
#
# Poissons Ratio (x) = 0.21617 0.45712
# Poissons Ratio (y) = 0.21617 0.45712
# Poissons Ratio (z) = 0.19445 0.19445
#
# Static dielectric constant tensor:
#      x y z
#    x 1.615920 0.000000 0.000000 
#    y 0.000000 1.615920 0.000000 
#    z 0.000000 0.000000 1.586010 
# 
# From -- ./inp_files/2879.got.cif
#   From: 2010.05.17/outbox.cif.g08.bks.cpg/sg113_cif.got.tgz:2879.got - 2010.05.20 11:03:00.
