data_PCOD9555387
_publ_section_title
;
Structure prediction by ZEFSAII (Michael W. Deem and Ramdas Pophale) SiO2 
 PCOD9555387
Probable space group: P -4 2 C
;
_chemical_formula_sum "Si O2"
_cell_formula_units_Z 48
_cell_length_a 8.554716
_cell_length_b 8.554716
_cell_length_c 27.502309
_cell_angle_alpha 90.000000
_cell_angle_beta 90.000000
_cell_angle_gamma 90.000000
_cell_volume 2012.706041
_symmetry_space_group_name_H-M "P -4 2 C"
_symmetry_group_IT_number 112
_symmetry_cell_setting 'tetragonal'
loop_
_space_group_symop_operation_xyz
x,y,z
y,-x,-z
-x,-y,z
-y,x,-z
x,-y,1/2-z
-x,y,1/2-z
-y,-x,1/2+z
y,x,1/2+z
loop_
_atom_site_type_symbol
_atom_site_label
_atom_site_fract_x
_atom_site_fract_y
_atom_site_fract_z
Si Si1 0.302011 0.638753 0.984005
Si Si2 0.829012 0.319546 0.735180
Si Si3 0.875044 0.142180 0.554713
Si Si4 0.667858 0.815763 0.677872
Si Si5 0.677014 0.165354 0.649725
Si Si6 0.893250 0.632113 0.608024
O O1 0.197012 0.776431 0.007726
O O2 0.481139 0.697656 0.983541
O O3 0.239451 0.586439 0.931334
O O4 0.829472 0.500000 0.750000
O O5 0.692763 0.244941 0.768028
O O6 0.785172 0.283562 0.679741
O O7 0.000000 0.254522 0.750000
O O8 0.744643 0.122690 0.596856
O O9 0.981060 0.281298 0.574435
O O10 0.000000 0.000000 0.551431
O O11 0.501633 0.777395 0.652922
O O12 0.807617 0.740198 0.646663
O O13 0.683101 0.001178 0.677637
O O14 0.000000 0.500000 0.631910
#
# Coordination Sequence:
#
# PCOD9555387 Si02
#       6
#     8   8   8   8   8   8
#     4  11  26  48  72 104 146 194 241 300 370 437
#     4  11  26  43  71 105 143 186 240 298 360 431
#     4  12  26  45  74 104 140 186 240 297 362 428
#     4  11  25  46  72 102 145 191 238 298 363 437
#     4  11  25  47  70 104 143 190 240 297 366 434
#     4  12  26  45  71 105 145 187 243 304 363 436
#
# _framework density 23.848492
#
# number of rings (size 3 to 8) (size 9 to 14) (size 15 to 20)
#    0.000    0.667    3.333    3.000    7.000    3.333 
#    3.000    0.000    0.000    0.000    0.000    0.000 
#    0.000    0.000    0.000    0.000    0.000    0.000 
#
# Total GULP energy -268534.231697 kJ/mol
# GULP energy per Si atom -5594.463160 kJ/mol
# Density = 2.379421 g / cm^3
# Si number density = 23.848492 Si / 1000 Ang^3
#
#
#
# Elastic Constant Matrix: (Units=GPa)
#
#
# Indices 1 2 3 4 5 6 
#
# 1 111.7695 50.0286 27.7152 0.0000 0.0000 0.0000
# 2 50.0286 111.7695 27.7152 0.0000 0.0000 0.0000
# 3 27.7152 27.7152 82.3620 0.0000 0.0000 0.0000
# 4 0.0000 0.0000 0.0000 33.2815 0.0000 0.0000
# 5 0.0000 0.0000 0.0000 0.0000 33.2815 0.0000
# 6 0.0000 0.0000 0.0000 0.0000 0.0000 45.2585
#
#
#
# Elastic Compliance Matrix: (Units=1/GPa)
#
#
# Indices 1 2 3 4 5 6 
#
# 1 0.011591 -0.004605 -0.002351 0.000000 0.000000 0.000000
# 2 -0.004605 0.011591 -0.002351 0.000000 0.000000 0.000000
# 3 -0.002351 -0.002351 0.013724 0.000000 0.000000 0.000000
# 4 0.000000 0.000000 0.000000 0.030047 0.000000 0.000000
# 5 0.000000 0.000000 0.000000 0.000000 0.030047 0.000000
# 6 0.000000 0.000000 0.000000 0.000000 0.000000 0.022095
#
#
# Mechanical properties :
#
#
# Convention : Reuss Voigt Hill
#
# Bulk Modulus (GPa) = 54.66792 57.42435 56.04613
# Shear Modulus (GPa) = 34.76899 35.72711 35.24805
#
# Velocity S-wave (km/s) = 3.82240 3.87471 3.84865
# Velocity P-wave (km/s) = 6.51566 6.64447 6.58038
#
# Compressibility (1/GPa) = 0.01829226
#
# Stress axis : x y z
#
# Youngs Moduli (GPa) = 86.27154 86.27154 72.86704
#
# Poissons Ratio (x) = 0.39732 0.17130
# Poissons Ratio (y) = 0.39732 0.17130
# Poissons Ratio (z) = 0.20281 0.20281
#
# Static dielectric constant tensor:
#      x y z
#    x 1.914240 0.000000 0.000000 
#    y 0.000000 1.914240 0.000000 
#    z 0.000000 0.000000 1.980910 
# 
# From -- ./inp_files/6323.got.cif
#   From: 2010.05.17/outbox.cif.g08.bks.cpg/sg112_4_cif.got.tgz:6323.got - 2010.05.20 10:59:04.
