data_PCOD9555697
_publ_section_title
;
Structure prediction by ZEFSAII (Michael W. Deem and Ramdas Pophale) SiO2 
 PCOD9555697
Probable space group: P -4 21 M 
;
_chemical_formula_sum "Si O2"
_cell_formula_units_Z 32
_cell_length_a 9.873040
_cell_length_b 9.873040
_cell_length_c 16.533172
_cell_angle_alpha 90.000000
_cell_angle_beta 90.000000
_cell_angle_gamma 90.000000
_cell_volume 1611.602665
_symmetry_space_group_name_H-M "P -4 21 M "
_symmetry_group_IT_number 113
_symmetry_cell_setting 'tetragonal'
loop_
_space_group_symop_operation_xyz
x,y,z
y,-x,-z
-x,-y,z
-y,x,-z
1/2+x,1/2-y,-z
1/2-x,1/2+y,-z
1/2-y,1/2-x,z
1/2+y,1/2+x,z
loop_
_atom_site_type_symbol
_atom_site_label
_atom_site_fract_x
_atom_site_fract_y
_atom_site_fract_z
Si Si1 0.825057 0.099680 0.035869
Si Si2 0.909008 0.175688 0.628476
Si Si3 0.501377 0.773915 0.205960
Si Si4 0.507343 0.776786 0.540921
O O1 0.703188 0.203188 0.019600
O O2 0.969060 0.172282 0.022534
O O3 0.806147 0.042074 0.126166
O O4 0.794967 0.294967 0.631886
O O5 0.979911 0.184040 0.714445
O O6 0.832237 0.037398 0.606912
O O7 0.994466 0.213186 0.548680
O O8 0.638204 0.861797 0.190134
O O9 0.384847 0.884847 0.222741
O O10 0.394409 0.894409 0.542681
O O11 0.651197 0.848804 0.554434
#
# Coordination Sequence:
#
# PCOD9555697 Si02
#       4
#     8   8   8   8
#     4  10  21  38  62  92 123 155 193 240 296 357
#     4   9  17  30  50  77 108 143 183 227 274 325
#     4   9  17  32  58  88 114 144 186 233 279 336
#     4   9  17  30  49  74 105 139 177 224 276 327
#
# _framework density 19.856010000000001
#
# number of rings (size 3 to 8) (size 9 to 14) (size 15 to 20)
#    0.000    2.750    0.000    1.500    0.000    5.000 
#    0.000    5.000    0.000   13.500    0.000   15.750 
#    0.000    8.000    0.000    0.000    0.000    0.000 
#
# Total GULP energy -178673.155149 kJ/mol
# GULP energy per Si atom -5583.536098 kJ/mol
# Density = 1.981082 g / cm^3
# Si number density = 19.856010 Si / 1000 Ang^3
#
#
#
# Elastic Constant Matrix: (Units=GPa)
#
#
# Indices 1 2 3 4 5 6 
#
# 1 87.2249 56.7200 78.6049 0.0000 0.0000 0.0000
# 2 56.7200 87.2259 78.6048 0.0000 0.0000 0.0000
# 3 78.6049 78.6048 135.3536 0.0000 0.0000 0.0000
# 4 0.0000 0.0000 0.0000 32.1432 0.0000 0.0000
# 5 0.0000 0.0000 0.0000 0.0000 32.1429 0.0000
# 6 0.0000 0.0000 0.0000 0.0000 0.0000 30.9468
#
#
#
# Elastic Compliance Matrix: (Units=1/GPa)
#
#
# Indices 1 2 3 4 5 6 
#
# 1 0.025888 -0.006893 -0.011031 0.000000 0.000000 0.000000
# 2 -0.006893 0.025887 -0.011030 0.000000 0.000000 0.000000
# 3 -0.011031 -0.011030 0.020200 0.000000 0.000000 0.000000
# 4 0.000000 0.000000 0.000000 0.031111 0.000000 0.000000
# 5 0.000000 0.000000 0.000000 0.000000 0.031111 0.000000
# 6 0.000000 0.000000 0.000000 0.000000 0.000000 0.032314
#
#
# Mechanical properties :
#
#
# Convention : Reuss Voigt Hill
#
# Bulk Modulus (GPa) = 71.09504 81.96265 76.52885
# Shear Modulus (GPa) = 21.82374 25.43822 23.63098
#
# Velocity S-wave (km/s) = 3.31886 3.58318 3.45355
# Velocity P-wave (km/s) = 7.11122 7.64768 7.38433
#
# Compressibility (1/GPa) = 0.01406568
#
# Stress axis : x y z
#
# Youngs Moduli (GPa) = 38.62805 38.62900 49.50547
#
# Poissons Ratio (x) = 0.26629 0.54608
# Poissons Ratio (y) = 0.26628 0.54606
# Poissons Ratio (z) = 0.42610 0.42609
#
# Static dielectric constant tensor:
#      x y z
#    x 1.730230 0.000000 0.000000 
#    y 0.000000 1.730230 0.000000 
#    z 0.000000 0.000000 1.653530 
# 
# From -- ./inp_files/2112.got.cif
#   From: 2010.05.17/outbox.cif.g08.bks.cpg/sg113_cif.got.tgz:2112.got - 2010.05.20 11:03:00.
