data_PCOD9555005
_publ_section_title
;
Structure prediction by ZEFSAII (Michael W. Deem and Ramdas Pophale) SiO2 
 PCOD9555005
Probable space group: P -4 2 C
;
_chemical_formula_sum "Si O2"
_cell_formula_units_Z 54
_cell_length_a 15.808653
_cell_length_b 15.808653
_cell_length_c 10.617099
_cell_angle_alpha 90.000000
_cell_angle_beta 90.000000
_cell_angle_gamma 90.000000
_cell_volume 2653.356474
_symmetry_space_group_name_H-M "P -4 2 C"
_symmetry_group_IT_number 112
_symmetry_cell_setting 'tetragonal'
loop_
_space_group_symop_operation_xyz
x,y,z
y,-x,-z
-x,-y,z
-y,x,-z
x,-y,1/2-z
-x,y,1/2-z
-y,-x,1/2+z
y,x,1/2+z
loop_
_atom_site_type_symbol
_atom_site_label
_atom_site_fract_x
_atom_site_fract_y
_atom_site_fract_z
Si Si1 0.184067 0.369709 0.764567
Si Si2 0.812683 0.248757 0.163519
Si Si3 0.612170 0.740288 0.990899
Si Si4 0.500000 0.500000 0.500000
Si Si5 0.049103 0.212203 0.553033
Si Si6 0.159266 0.924537 0.845270
Si Si7 0.000000 0.354214 0.750000
Si Si8 0.561011 0.677791 0.449933
O O1 0.194161 0.272496 0.813608
O O2 0.205551 0.375782 0.616957
O O3 0.087779 0.399379 0.787470
O O4 0.257477 0.420570 0.837104
O O5 0.869617 0.235379 0.286325
O O6 0.782000 0.342252 0.128042
O O7 0.873252 0.223387 0.046370
O O8 0.514078 0.719559 0.970342
O O9 0.660611 0.651136 0.014433
O O10 0.526340 0.583102 0.420265
O O11 0.080429 0.137070 0.641563
O O12 0.028629 0.294194 0.634515
O O13 0.967250 0.184729 0.475457
O O14 0.140251 0.000000 0.750000
#
# Coordination Sequence:
#
# PCOD9555005 Si02
#       8
#     8   8   8   2   8   8   4   8
#     4  11  21  36  62  90 125 171 215 258 317 391
#     4  10  19  39  60  83 118 166 208 256 319 389
#     4  10  19  38  61  91 127 159 208 260 315 401
#     4   8  16  40  62  96 132 166 204 272 334 408
#     4  11  22  39  56  84 122 156 214 269 323 391
#     4  10  22  36  54  82 116 164 205 269 331 388
#     4  12  22  36  62  88 120 174 220 262 316 379
#     4   9  20  36  63  94 131 166 204 263 333 388
#
# _framework density 20.351583000000002
#
# number of rings (size 3 to 8) (size 9 to 14) (size 15 to 20)
#    0.000    1.778    2.963    1.333    2.074    1.481 
#    0.000   17.778    0.000    0.000    0.000    0.000 
#    0.000    0.000    0.000    0.000    0.000    0.000 
#
# Total GULP energy -301245.171348 kJ/mol
# GULP energy per Si atom -5578.614284 kJ/mol
# Density = 2.030526 g / cm^3
# Si number density = 20.351583 Si / 1000 Ang^3
#
#
#
# Elastic Constant Matrix: (Units=GPa)
#
#
# Indices 1 2 3 4 5 6 
#
# 1 116.4924 41.3595 28.5777 0.0000 0.0000 0.0000
# 2 41.3595 116.4924 28.5777 0.0000 0.0000 0.0000
# 3 28.5777 28.5777 44.1358 0.0000 0.0000 0.0000
# 4 0.0000 0.0000 0.0000 23.6511 0.0000 0.0000
# 5 0.0000 0.0000 0.0000 0.0000 23.6511 0.0000
# 6 0.0000 0.0000 0.0000 0.0000 0.0000 17.4516
#
#
#
# Elastic Compliance Matrix: (Units=1/GPa)
#
#
# Indices 1 2 3 4 5 6 
#
# 1 0.010792 -0.002517 -0.005358 0.000000 0.000000 0.000000
# 2 -0.002517 0.010792 -0.005358 0.000000 0.000000 0.000000
# 3 -0.005358 -0.005358 0.029596 0.000000 0.000000 0.000000
# 4 0.000000 0.000000 0.000000 0.042281 0.000000 0.000000
# 5 0.000000 0.000000 0.000000 0.000000 0.042281 0.000000
# 6 0.000000 0.000000 0.000000 0.000000 0.000000 0.057301
#
#
# Mechanical properties :
#
#
# Convention : Reuss Voigt Hill
#
# Bulk Modulus (GPa) = 40.46309 52.68339 46.57324
# Shear Modulus (GPa) = 21.95392 24.85782 23.40587
#
# Velocity S-wave (km/s) = 3.28797 3.49867 3.39496
# Velocity P-wave (km/s) = 5.85999 6.50106 6.18883
#
# Compressibility (1/GPa) = 0.02471388
#
# Stress axis : x y z
#
# Youngs Moduli (GPa) = 92.65751 92.65751 33.78833
#
# Poissons Ratio (x) = 0.23325 0.18104
# Poissons Ratio (y) = 0.23325 0.18104
# Poissons Ratio (z) = 0.49647 0.49647
#
# Static dielectric constant tensor:
#      x y z
#    x 1.757800 0.000000 0.000000 
#    y 0.000000 1.757800 0.000000 
#    z 0.000000 0.000000 1.716100 
# 
# From -- ./inp_files/2700.got.cif
#   From: 2010.05.17/outbox.cif.g08.bks.cpg/sg112_2_cif.got.tgz:2700.got - 2010.05.20 10:59:04.
