data_PCOD9555076
_publ_section_title
;
Structure prediction by ZEFSAII (Michael W. Deem and Ramdas Pophale) SiO2 
 PCOD9555076
Probable space group: P -4 2 C
;
_chemical_formula_sum "Si O2"
_cell_formula_units_Z 48
_cell_length_a 9.043055
_cell_length_b 9.043055
_cell_length_c 28.543431
_cell_angle_alpha 90.000000
_cell_angle_beta 90.000000
_cell_angle_gamma 90.000000
_cell_volume 2334.191696
_symmetry_space_group_name_H-M "P -4 2 C"
_symmetry_group_IT_number 112
_symmetry_cell_setting 'tetragonal'
loop_
_space_group_symop_operation_xyz
x,y,z
y,-x,-z
-x,-y,z
-y,x,-z
x,-y,1/2-z
-x,y,1/2-z
-y,-x,1/2+z
y,x,1/2+z
loop_
_atom_site_type_symbol
_atom_site_label
_atom_site_fract_x
_atom_site_fract_y
_atom_site_fract_z
Si Si1 0.301726 0.171965 0.241572
Si Si2 0.663719 0.011384 0.902624
Si Si3 0.671684 0.547231 0.820821
Si Si4 0.156296 0.702845 0.604837
Si Si5 0.853836 0.097893 0.342504
Si Si6 0.056095 0.242850 0.996700
O O1 0.416312 0.240532 0.204559
O O2 0.314455 0.276525 0.287147
O O3 0.155827 0.156361 0.210437
O O4 0.339378 0.000000 0.250000
O O5 0.762730 0.131112 0.876164
O O6 0.500000 0.000000 0.882923
O O7 0.749664 0.855678 0.897600
O O8 0.658521 0.054431 0.957163
O O9 0.500000 0.500000 0.820218
O O10 0.737330 0.582820 0.871570
O O11 0.100330 0.680383 0.551886
O O12 0.014247 0.727835 0.638752
O O13 0.000000 0.000000 0.347249
O O14 0.894524 0.166970 0.993220
#
# Coordination Sequence:
#
# PCOD9555076 Si02
#       6
#     8   8   8   8   8   8
#     4  11  22  40  63  86 120 158 217 264 306 377
#     4  10  21  37  58  94 129 157 201 263 335 383
#     4  11  24  41  59  90 123 167 212 260 321 378
#     4  10  20  38  63  88 120 166 213 257 316 381
#     4  10  21  39  62  91 120 156 205 264 318 382
#     4   9  16  34  62  88 120 159 207 258 309 378
#
# _framework density 20.563865
#
# number of rings (size 3 to 8) (size 9 to 14) (size 15 to 20)
#    0.000    1.833    3.333    2.000    2.333    0.333 
#    3.000    0.000    0.000    1.000    0.000    0.000 
#    0.000    0.000    0.000    0.000    0.000    0.000 
#
# Total GULP energy -267639.711397 kJ/mol
# GULP energy per Si atom -5575.827321 kJ/mol
# Density = 2.051706 g / cm^3
# Si number density = 20.563865 Si / 1000 Ang^3
#
#
#
# Elastic Constant Matrix: (Units=GPa)
#
#
# Indices 1 2 3 4 5 6 
#
# 1 77.3137 27.6014 40.3480 0.0000 0.0000 0.0000
# 2 27.6014 77.3137 40.3480 0.0000 0.0000 0.0000
# 3 40.3480 40.3480 117.5096 0.0000 0.0000 0.0000
# 4 0.0000 0.0000 0.0000 27.5992 0.0000 0.0000
# 5 0.0000 0.0000 0.0000 0.0000 27.5992 0.0000
# 6 0.0000 0.0000 0.0000 0.0000 0.0000 14.0121
#
#
#
# Elastic Compliance Matrix: (Units=1/GPa)
#
#
# Indices 1 2 3 4 5 6 
#
# 1 0.016534 -0.003582 -0.004447 0.000000 0.000000 0.000000
# 2 -0.003582 0.016534 -0.004447 0.000000 0.000000 0.000000
# 3 -0.004447 -0.004447 0.011564 0.000000 0.000000 0.000000
# 4 0.000000 0.000000 0.000000 0.036233 0.000000 0.000000
# 5 0.000000 0.000000 0.000000 0.000000 0.036233 0.000000
# 6 0.000000 0.000000 0.000000 0.000000 0.000000 0.071367
#
#
# Mechanical properties :
#
#
# Convention : Reuss Voigt Hill
#
# Bulk Modulus (GPa) = 50.81488 54.30350 52.55919
# Shear Modulus (GPa) = 22.72966 24.76475 23.74720
#
# Velocity S-wave (km/s) = 3.32824 3.47405 3.40193
# Velocity P-wave (km/s) = 6.28761 6.52354 6.40666
#
# Compressibility (1/GPa) = 0.01967927
#
# Stress axis : x y z
#
# Youngs Moduli (GPa) = 60.48162 60.48162 86.47575
#
# Poissons Ratio (x) = 0.21663 0.38458
# Poissons Ratio (y) = 0.21663 0.38458
# Poissons Ratio (z) = 0.26898 0.26898
#
# Static dielectric constant tensor:
#      x y z
#    x 1.758970 0.000000 0.000000 
#    y 0.000000 1.758970 0.000000 
#    z 0.000000 0.000000 1.788810 
# 
# From -- ./inp_files/6307.got.cif
#   From: 2010.05.17/outbox.cif.g08.bks.cpg/sg112_4_cif.got.tgz:6307.got - 2010.05.20 10:59:04.
