data_PCOD9555437
_publ_section_title
;
Structure prediction by ZEFSAII (Michael W. Deem and Ramdas Pophale) SiO2 
 PCOD9555437
Probable space group: P -4 21 M 
;
_chemical_formula_sum "Si O2"
_cell_formula_units_Z 48
_cell_length_a 11.569071
_cell_length_b 11.569071
_cell_length_c 18.699432
_cell_angle_alpha 90.000000
_cell_angle_beta 90.000000
_cell_angle_gamma 90.000000
_cell_volume 2502.795628
_symmetry_space_group_name_H-M "P -4 21 M "
_symmetry_group_IT_number 113
_symmetry_cell_setting 'tetragonal'
loop_
_space_group_symop_operation_xyz
x,y,z
y,-x,-z
-x,-y,z
-y,x,-z
1/2+x,1/2-y,-z
1/2-x,1/2+y,-z
1/2-y,1/2-x,z
1/2+y,1/2+x,z
loop_
_atom_site_type_symbol
_atom_site_label
_atom_site_fract_x
_atom_site_fract_y
_atom_site_fract_z
Si Si1 0.144401 0.177527 0.428129
Si Si2 0.879386 0.948945 0.685944
Si Si3 0.591276 0.388540 0.922768
Si Si4 0.252881 0.936947 0.416312
Si Si5 0.914378 0.765710 0.922271
Si Si6 0.929981 0.249194 0.170833
O O1 0.204813 0.295188 0.404067
O O2 0.109733 0.193434 0.510697
O O3 0.035239 0.149336 0.379100
O O4 0.235823 0.073686 0.420743
O O5 0.897284 0.823738 0.651059
O O6 0.783679 0.944274 0.746746
O O7 0.000000 0.000000 0.717374
O O8 0.500000 0.500000 0.920606
O O9 0.711103 0.451945 0.904669
O O10 0.545269 0.290272 0.870071
O O11 0.601088 0.327748 0.000070
O O12 0.378611 0.878611 0.412942
O O13 0.862122 0.637879 0.925889
O O14 0.837295 0.835508 0.864946
O O15 0.876460 0.376460 0.160760
#
# Coordination Sequence:
#
# PCOD9555437 Si02
#       6
#     8   8   8   8   8   8
#     4  10  20  34  53  77 108 149 190 230 288 344
#     4  10  19  32  55  79 110 145 188 237 285 331
#     4  10  15  32  51  73 107 141 182 232 278 335
#     4  10  19  33  54  79 108 143 188 238 279 336
#     4  10  17  28  53  79 105 146 188 231 283 335
#     4  10  19  31  54  85 111 144 187 232 289 348
#
# _framework density 19.178553000000001
#
# number of rings (size 3 to 8) (size 9 to 14) (size 15 to 20)
#    0.000    2.000    5.000    2.000    0.000    0.333 
#    0.000    0.833    0.000    5.000    0.000    0.000 
#    0.000   10.667    0.000    0.000    0.000    0.000 
#
# Total GULP energy -267236.928525 kJ/mol
# GULP energy per Si atom -5567.436011 kJ/mol
# Density = 1.913490 g / cm^3
# Si number density = 19.178553 Si / 1000 Ang^3
#
#
#
# Elastic Constant Matrix: (Units=GPa)
#
#
# Indices 1 2 3 4 5 6 
#
# 1 42.3868 43.1355 11.6803 0.0000 0.0000 0.0000
# 2 43.1355 42.3842 11.6801 0.0000 0.0000 0.0000
# 3 11.6803 11.6801 56.8821 0.0000 0.0000 0.0000
# 4 0.0000 0.0000 0.0000 1.8832 0.0000 0.0000
# 5 0.0000 0.0000 0.0000 0.0000 1.8821 0.0000
# 6 0.0000 0.0000 0.0000 0.0000 0.0000 33.2799
#
#
#
# Elastic Compliance Matrix: (Units=1/GPa)
#
#
# Indices 1 2 3 4 5 6 
#
# 1 -0.660433 0.672842 -0.002546 0.000000 0.000000 0.000000
# 2 0.672842 -0.660475 -0.002542 0.000000 0.000000 0.000000
# 3 -0.002546 -0.002542 0.018625 0.000000 0.000000 0.000000
# 4 0.000000 0.000000 0.000000 0.531003 0.000000 0.000000
# 5 0.000000 0.000000 0.000000 0.000000 0.531326 0.000000
# 6 0.000000 0.000000 0.000000 0.000000 0.000000 0.030048
#
#
# Mechanical properties :
#
#
# Convention : Reuss Voigt Hill
#
# Bulk Modulus (GPa) = 30.09717 30.51608 30.30663
# Shear Modulus (GPa) = -3.25873 12.41952 4.58040
#
# Velocity S-wave (km/s) = -1.30493 2.54751 1.54709
# Velocity P-wave (km/s) = 3.66834 4.95975 4.36210
#
# Compressibility (1/GPa) = 0.03322571
#
# Stress axis : x y z
#
# Youngs Moduli (GPa) = -1.51416 -1.51406 53.69160
#
# Poissons Ratio (x) = 1.01872 0.13669
# Poissons Ratio (y) = 1.01879 0.13647
# Poissons Ratio (z) = -0.00385 -0.00385
#
# Static dielectric constant tensor:
#      x y z
#    x 1.696080 0.000000 0.000000 
#    y 0.000000 1.696080 0.000000 
#    z 0.000000 0.000000 1.652270 
# 
# From -- ./inp_files/2504.got.cif
#   From: 2010.05.17/outbox.cif.g08.bks.cpg/sg113_cif.got.tgz:2504.got - 2010.05.20 11:03:00.
