data_PCOD9555647
_publ_section_title
;
Structure prediction by ZEFSAII (Michael W. Deem and Ramdas Pophale) SiO2 
 PCOD9555647
Probable space group: P -4 21 M 
;
_chemical_formula_sum "Si O2"
_cell_formula_units_Z 40
_cell_length_a 15.945173
_cell_length_b 15.945173
_cell_length_c 7.945917
_cell_angle_alpha 90.000000
_cell_angle_beta 90.000000
_cell_angle_gamma 90.000000
_cell_volume 2020.237812
_symmetry_space_group_name_H-M "P -4 21 M "
_symmetry_group_IT_number 113
_symmetry_cell_setting 'tetragonal'
loop_
_space_group_symop_operation_xyz
x,y,z
y,-x,-z
-x,-y,z
-y,x,-z
1/2+x,1/2-y,-z
1/2-x,1/2+y,-z
1/2-y,1/2-x,z
1/2+y,1/2+x,z
loop_
_atom_site_type_symbol
_atom_site_label
_atom_site_fract_x
_atom_site_fract_y
_atom_site_fract_z
Si Si1 0.438577 0.306489 0.655851
Si Si2 0.322088 0.177913 0.480484
Si Si3 0.807756 0.692245 0.587674
Si Si4 0.304133 0.449117 0.647917
Si Si5 0.745702 0.013027 0.995476
Si Si6 0.789216 0.710785 0.980465
Si Si7 0.649464 0.850537 0.091205
O O1 0.395794 0.221352 0.586295
O O2 0.366125 0.373202 0.682414
O O3 0.494938 0.337153 0.502020
O O4 0.487195 0.294637 0.828542
O O5 0.249412 0.250588 0.465969
O O6 0.350471 0.149530 0.295463
O O7 0.781631 0.595272 0.579729
O O8 0.783477 0.716524 0.778644
O O9 0.291674 0.495365 0.823964
O O10 0.726296 0.112405 0.978091
O O11 0.674616 0.941431 0.017546
O O12 0.720901 0.779100 0.045521
#
# Coordination Sequence:
#
# PCOD9555647 Si02
#       7
#     8   4   4   8   8   4   4
#     4  11  23  39  63  89 129 165 217 270 331 392
#     4  10  20  38  64  90 119 167 215 266 318 390
#     4   8  18  38  59  83 123 151 214 264 308 379
#     4  10  22  39  58  93 121 168 212 270 326 393
#     4  11  23  41  67  95 130 169 220 272 328 390
#     4  10  24  41  67 100 127 176 224 269 329 392
#     4  12  22  41  68  95 131 174 221 267 335 389
#
# _framework density 19.799651000000001
#
# number of rings (size 3 to 8) (size 9 to 14) (size 15 to 20)
#    0.000    1.600    2.000    4.200    5.600    2.400 
#    0.000    0.000    0.000    7.200    0.000    0.000 
#    0.000    0.000    0.000    0.000    0.000    0.000 
#
# Total GULP energy -222987.282899 kJ/mol
# GULP energy per Si atom -5574.682072 kJ/mol
# Density = 1.975459 g / cm^3
# Si number density = 19.799651 Si / 1000 Ang^3
#
#
#
# Elastic Constant Matrix: (Units=GPa)
#
#
# Indices 1 2 3 4 5 6 
#
# 1 67.8460 9.1362 15.9094 0.0000 0.0000 0.0000
# 2 9.1362 67.8466 15.9118 0.0000 0.0000 0.0000
# 3 15.9094 15.9118 69.5994 0.0000 0.0000 0.0000
# 4 0.0000 0.0000 0.0000 30.4403 0.0000 0.0000
# 5 0.0000 0.0000 0.0000 0.0000 30.4404 0.0000
# 6 0.0000 0.0000 0.0000 0.0000 0.0000 18.8359
#
#
#
# Elastic Compliance Matrix: (Units=1/GPa)
#
#
# Indices 1 2 3 4 5 6 
#
# 1 0.015689 -0.001344 -0.003279 0.000000 0.000000 0.000000
# 2 -0.001344 0.015689 -0.003280 0.000000 0.000000 0.000000
# 3 -0.003279 -0.003280 0.015867 0.000000 0.000000 0.000000
# 4 0.000000 0.000000 0.000000 0.032851 0.000000 0.000000
# 5 0.000000 0.000000 0.000000 0.000000 0.032851 0.000000
# 6 0.000000 0.000000 0.000000 0.000000 0.000000 0.053090
#
#
# Mechanical properties :
#
#
# Convention : Reuss Voigt Hill
#
# Bulk Modulus (GPa) = 31.80592 31.91186 31.85889
# Shear Modulus (GPa) = 25.99788 26.89895 26.44842
#
# Velocity S-wave (km/s) = 3.62753 3.68986 3.65883
# Velocity P-wave (km/s) = 5.80035 5.85711 5.82880
#
# Compressibility (1/GPa) = 0.03144069
#
# Stress axis : x y z
#
# Youngs Moduli (GPa) = 63.73835 63.73788 63.02261
#
# Poissons Ratio (x) = 0.08564 0.20666
# Poissons Ratio (y) = 0.08564 0.20670
# Poissons Ratio (z) = 0.20901 0.20904
#
# Static dielectric constant tensor:
#      x y z
#    x 1.762880 0.000000 0.000000 
#    y 0.000000 1.762870 0.000000 
#    z 0.000000 0.000000 1.676480 
# 
# From -- ./inp_files/1082.got.cif
#   From: 2010.05.17/outbox.cif.g08.bks.cpg/sg113_cif.got.tgz:1082.got - 2010.05.20 11:03:00.
