data_PCOD9555389
_publ_section_title
;
Structure prediction by ZEFSAII (Michael W. Deem and Ramdas Pophale) SiO2 
 PCOD9555389
Probable space group: P -4 2 C
;
_chemical_formula_sum "Si O2"
_cell_formula_units_Z 18
_cell_length_a 6.992770
_cell_length_b 6.992770
_cell_length_c 13.289142
_cell_angle_alpha 90.000000
_cell_angle_beta 90.000000
_cell_angle_gamma 90.000000
_cell_volume 649.823526
_symmetry_space_group_name_H-M "P -4 2 C"
_symmetry_group_IT_number 112
_symmetry_cell_setting 'tetragonal'
loop_
_space_group_symop_operation_xyz
x,y,z
y,-x,-z
-x,-y,z
-y,x,-z
x,-y,1/2-z
-x,y,1/2-z
-y,-x,1/2+z
y,x,1/2+z
loop_
_atom_site_type_symbol
_atom_site_label
_atom_site_fract_x
_atom_site_fract_y
_atom_site_fract_z
Si Si1 0.198182 0.826456 0.810405
Si Si2 0.230843 0.481221 0.550703
Si Si3 0.000000 0.000000 0.500000
O O1 0.000000 0.790437 0.750000
O O2 0.293506 0.000000 0.750000
O O3 0.280719 0.625563 0.844951
O O4 0.145815 0.911295 0.920230
O O5 0.348503 0.677517 0.537897
O O6 0.000000 0.500000 0.546164
#
# Coordination Sequence:
#
# PCOD9555389 Si02
#       3
#     8   8   2
#     4   9  19  38  74 116 153 207 277 341 415 496
#     4  11  25  46  79 117 160 219 279 340 420 506
#     4   8  14  32  68 106 144 196 246 316 416 482
#
# _framework density 27.699826999999999
#
# number of rings (size 3 to 8) (size 9 to 14) (size 15 to 20)
#    0.000    2.667    0.000    2.667    0.000    8.889 
#    0.000    0.000    0.000  150.667    0.000    0.000 
#    0.000    0.000    0.000    0.000    0.000    0.000 
#
# Total GULP energy -100460.175373 kJ/mol
# GULP energy per Si atom -5581.120854 kJ/mol
# Density = 2.763678 g / cm^3
# Si number density = 27.699827 Si / 1000 Ang^3
#
#
#
# Elastic Constant Matrix: (Units=GPa)
#
#
# Indices 1 2 3 4 5 6 
#
# 1 172.7025 59.9885 64.3175 0.0000 0.0000 0.0000
# 2 59.9885 172.7025 64.3175 0.0000 0.0000 0.0000
# 3 64.3175 64.3175 187.8744 0.0000 0.0000 0.0000
# 4 0.0000 0.0000 0.0000 27.9552 0.0000 0.0000
# 5 0.0000 0.0000 0.0000 0.0000 27.9552 0.0000
# 6 0.0000 0.0000 0.0000 0.0000 0.0000 46.6130
#
#
#
# Elastic Compliance Matrix: (Units=1/GPa)
#
#
# Indices 1 2 3 4 5 6 
#
# 1 0.007086 -0.001786 -0.001815 0.000000 0.000000 0.000000
# 2 -0.001786 0.007086 -0.001815 0.000000 0.000000 0.000000
# 3 -0.001815 -0.001815 0.006565 0.000000 0.000000 0.000000
# 4 0.000000 0.000000 0.000000 0.035771 0.000000 0.000000
# 5 0.000000 0.000000 0.000000 0.000000 0.035771 0.000000
# 6 0.000000 0.000000 0.000000 0.000000 0.000000 0.021453
#
#
# Mechanical properties :
#
#
# Convention : Reuss Voigt Hill
#
# Bulk Modulus (GPa) = 100.92894 101.16959 101.04927
# Shear Modulus (GPa) = 39.10322 43.48175 41.29249
#
# Velocity S-wave (km/s) = 3.76131 3.96630 3.86516
# Velocity P-wave (km/s) = 7.44171 7.58803 7.51523
#
# Compressibility (1/GPa) = 0.00990796
#
# Stress axis : x y z
#
# Youngs Moduli (GPa) = 141.11604 141.11604 152.31872
#
# Poissons Ratio (x) = 0.25198 0.27641
# Poissons Ratio (y) = 0.25198 0.27641
# Poissons Ratio (z) = 0.25608 0.25608
#
# Static dielectric constant tensor:
#      x y z
#    x 2.349230 0.000000 0.000000 
#    y 0.000000 2.349230 0.000000 
#    z 0.000000 0.000000 2.153530 
# 
# From -- ./inp_files/1783.got.cif
#   From: 2010.05.17/outbox.cif.g08.bks.cpg/sg112_1_cif.got.tgz:1783.got - 2010.05.20 10:59:04.
