data_PCOD9555127
_publ_section_title
;
Structure prediction by ZEFSAII (Michael W. Deem and Ramdas Pophale) SiO2 
 PCOD9555127
Probable space group: P -4 2 C
;
_chemical_formula_sum "Si O2"
_cell_formula_units_Z 52
_cell_length_a 16.854671
_cell_length_b 16.854671
_cell_length_c 9.166828
_cell_angle_alpha 90.000000
_cell_angle_beta 90.000000
_cell_angle_gamma 90.000000
_cell_volume 2604.111898
_symmetry_space_group_name_H-M "P -4 2 C"
_symmetry_group_IT_number 112
_symmetry_cell_setting 'tetragonal'
loop_
_space_group_symop_operation_xyz
x,y,z
y,-x,-z
-x,-y,z
-y,x,-z
x,-y,1/2-z
-x,y,1/2-z
-y,-x,1/2+z
y,x,1/2+z
loop_
_atom_site_type_symbol
_atom_site_label
_atom_site_fract_x
_atom_site_fract_y
_atom_site_fract_z
Si Si1 0.783491 0.738000 0.992877
Si Si2 0.282588 0.043217 0.971609
Si Si3 0.500000 0.168424 0.750000
Si Si4 0.000000 0.825869 0.750000
Si Si5 0.613442 0.798312 0.003152
Si Si6 0.099580 0.398075 0.005649
Si Si7 0.140108 0.824038 0.242158
Si Si8 0.500000 0.142775 0.250000
O O1 0.689728 0.741684 0.023025
O O2 0.818778 0.651104 0.997939
O O3 0.839012 0.793230 0.097087
O O4 0.800949 0.777552 0.837723
O O5 0.225303 0.073184 0.842566
O O6 0.338125 0.968398 0.948751
O O7 0.229528 0.020705 0.111690
O O8 0.341884 0.116565 0.997877
O O9 0.565445 0.213826 0.649512
O O10 0.540014 0.111909 0.867664
O O11 0.081966 0.873393 0.728978
O O12 0.552097 0.804789 0.137178
O O13 0.090607 0.441891 0.851494
#
# Coordination Sequence:
#
# PCOD9555127 Si02
#       8
#     8   8   4   4   8   8   8   4
#     4  11  21  39  64  91 121 166 212 259 314 392
#     4  11  23  37  63  89 121 166 210 263 323 389
#     4  10  24  37  54  90 130 157 198 258 304 387
#     4  12  20  42  62  88 122 152 220 292 312 375
#     4  10  21  38  56  90 126 161 208 249 320 373
#     4  11  22  39  61  88 128 161 204 254 317 378
#     4  11  22  38  62  94 115 160 224 271 331 368
#     4  10  22  37  60  90 122 165 204 254 306 397
#
# _framework density 19.968419000000001
#
# number of rings (size 3 to 8) (size 9 to 14) (size 15 to 20)
#    0.000    1.231    4.615    3.692    0.000    6.154 
#    0.000    0.000    0.000    6.923    0.000    0.000 
#    0.000   43.077    0.000    0.000    0.000    0.000 
#
# Total GULP energy -290421.312847 kJ/mol
# GULP energy per Si atom -5585.025247 kJ/mol
# Density = 1.992297 g / cm^3
# Si number density = 19.968419 Si / 1000 Ang^3
#
#
#
# Elastic Constant Matrix: (Units=GPa)
#
#
# Indices 1 2 3 4 5 6 
#
# 1 96.5054 45.5478 31.0746 0.0000 0.0000 0.0000
# 2 45.5478 96.5054 31.0746 0.0000 0.0000 0.0000
# 3 31.0746 31.0746 78.7678 0.0000 0.0000 0.0000
# 4 0.0000 0.0000 0.0000 25.7602 0.0000 0.0000
# 5 0.0000 0.0000 0.0000 0.0000 25.7602 0.0000
# 6 0.0000 0.0000 0.0000 0.0000 0.0000 6.0484
#
#
#
# Elastic Compliance Matrix: (Units=1/GPa)
#
#
# Indices 1 2 3 4 5 6 
#
# 1 0.014066 -0.005558 -0.003357 0.000000 0.000000 0.000000
# 2 -0.005558 0.014066 -0.003357 0.000000 0.000000 0.000000
# 3 -0.003357 -0.003357 0.015344 0.000000 0.000000 0.000000
# 4 0.000000 0.000000 0.000000 0.038820 0.000000 0.000000
# 5 0.000000 0.000000 0.000000 0.000000 0.038820 0.000000
# 6 0.000000 0.000000 0.000000 0.000000 0.000000 0.165334
#
#
# Mechanical properties :
#
#
# Convention : Reuss Voigt Hill
#
# Bulk Modulus (GPa) = 52.81498 54.13031 53.47265
# Shear Modulus (GPa) = 15.75780 22.45251 19.10516
#
# Velocity S-wave (km/s) = 2.81220 3.35685 3.09652
# Velocity P-wave (km/s) = 6.08698 6.49549 6.29455
#
# Compressibility (1/GPa) = 0.01893402
#
# Stress axis : x y z
#
# Youngs Moduli (GPa) = 71.09275 71.09275 65.17249
#
# Poissons Ratio (x) = 0.39513 0.21875
# Poissons Ratio (y) = 0.39513 0.21875
# Poissons Ratio (z) = 0.23862 0.23862
#
# Static dielectric constant tensor:
#      x y z
#    x 1.756270 0.000000 0.000000 
#    y 0.000000 1.756270 0.000000 
#    z 0.000000 0.000000 1.753450 
# 
# From -- ./inp_files/1513.got.cif
#   From: 2010.05.17/outbox.cif.g08.bks.cpg/sg112_1_cif.got.tgz:1513.got - 2010.05.20 10:59:04.
