data_PCOD9555976
_publ_section_title
;
Structure prediction by ZEFSAII (Michael W. Deem and Ramdas Pophale) SiO2 
 PCOD9555976
Probable space group: P -4 21 C
;
_chemical_formula_sum "Si O2"
_cell_formula_units_Z 34
_cell_length_a 10.953906
_cell_length_b 10.953906
_cell_length_c 13.077162
_cell_angle_alpha 90.000000
_cell_angle_beta 90.000000
_cell_angle_gamma 90.000000
_cell_volume 1569.103255
_symmetry_space_group_name_H-M "P -4 21 C"
_symmetry_group_IT_number 114
_symmetry_cell_setting 'tetragonal'
loop_
_space_group_symop_operation_xyz
x,y,z
y,-x,-z
-x,-y,z
-y,x,-z
1/2+x,1/2-y,1/2-z
1/2-x,1/2+y,1/2-z
1/2-y,1/2-x,1/2+z
1/2+y,1/2+x,1/2+z
loop_
_atom_site_type_symbol
_atom_site_label
_atom_site_fract_x
_atom_site_fract_y
_atom_site_fract_z
Si Si1 0.500000 0.500000 0.500000
Si Si2 0.975366 0.690179 0.203305
Si Si3 0.137406 0.551469 0.924825
Si Si4 0.963503 0.303160 0.645250
Si Si5 0.677516 0.421652 0.347902
O O1 0.616409 0.515419 0.426119
O O2 0.887335 0.579510 0.171357
O O3 0.917430 0.810956 0.158766
O O4 0.982494 0.689750 0.326182
O O5 0.110158 0.654710 0.164447
O O6 0.120340 0.692257 0.892245
O O7 0.000000 0.500000 0.945659
O O8 0.219922 0.535663 0.024862
O O9 0.964734 0.199846 0.731559
#
# Coordination Sequence:
#
# PCOD9555976 Si02
#       5
#     2   8   8   8   8
#     4  12  28  44  64  98 140 180 228 280 372 390
#     4  10  20  38  62  94 129 174 223 275 332 399
#     4  11  20  41  68  96 127 176 226 279 339 403
#     4  10  21  39  66  94 131 173 231 272 328 409
#     4  11  25  41  66  99 135 176 223 290 333 418
#
# _framework density 21.668429
#
# number of rings (size 3 to 8) (size 9 to 14) (size 15 to 20)
#    0.000    1.412    7.059    1.412    0.000    7.529 
#    0.000    0.000    0.000    0.000    0.000    0.000 
#    0.000    0.000    0.000    0.000    0.000    0.000 
#
# Total GULP energy -189938.707724 kJ/mol
# GULP energy per Si atom -5586.432580 kJ/mol
# Density = 2.161911 g / cm^3
# Si number density = 21.668429 Si / 1000 Ang^3
#
#
#
# Elastic Constant Matrix: (Units=GPa)
#
#
# Indices 1 2 3 4 5 6 
#
# 1 41.5094 13.9866 22.6381 0.0000 0.0000 0.0000
# 2 13.9866 41.5094 22.6381 0.0000 0.0000 0.0000
# 3 22.6381 22.6381 175.9176 0.0000 0.0000 0.0000
# 4 0.0000 0.0000 0.0000 26.9259 0.0000 0.0000
# 5 0.0000 0.0000 0.0000 0.0000 26.9259 0.0000
# 6 0.0000 0.0000 0.0000 0.0000 0.0000 22.6276
#
#
#
# Elastic Compliance Matrix: (Units=1/GPa)
#
#
# Indices 1 2 3 4 5 6 
#
# 1 0.028233 -0.008100 -0.002591 0.000000 0.000000 0.000000
# 2 -0.008100 0.028233 -0.002591 0.000000 0.000000 0.000000
# 3 -0.002591 -0.002591 0.006351 0.000000 0.000000 0.000000
# 4 0.000000 0.000000 0.000000 0.037139 0.000000 0.000000
# 5 0.000000 0.000000 0.000000 0.000000 0.037139 0.000000
# 6 0.000000 0.000000 0.000000 0.000000 0.000000 0.044194
#
#
# Mechanical properties :
#
#
# Convention : Reuss Voigt Hill
#
# Bulk Modulus (GPa) = 27.58316 41.94022 34.76169
# Shear Modulus (GPa) = 22.73369 28.60747 25.67058
#
# Velocity S-wave (km/s) = 3.24259 3.63745 3.44568
# Velocity P-wave (km/s) = 5.17460 6.08596 5.64869
#
# Compressibility (1/GPa) = 0.03625400
#
# Stress axis : x y z
#
# Youngs Moduli (GPa) = 35.41922 35.41922 157.44847
#
# Poissons Ratio (x) = 0.28690 0.40792
# Poissons Ratio (y) = 0.28690 0.40792
# Poissons Ratio (z) = 0.09177 0.09177
#
# Static dielectric constant tensor:
#      x y z
#    x 1.784760 0.000000 0.000000 
#    y 0.000000 1.784760 0.000000 
#    z 0.000000 0.000000 1.813050 
# 
# From -- ./inp_files/1405.got.cif
#   From: 2010.05.17/outbox.cif.g08.bks.cpg/sg114_1_cif.got.tgz:1405.got - 2010.05.20 11:04:54.
