data_PCOD9555087
_publ_section_title
;
Structure prediction by ZEFSAII (Michael W. Deem and Ramdas Pophale) SiO2 
 PCOD9555087
Probable space group: P -4 2 C
;
_chemical_formula_sum "Si O2"
_cell_formula_units_Z 40
_cell_length_a 8.151074
_cell_length_b 8.151074
_cell_length_c 24.896856
_cell_angle_alpha 90.000000
_cell_angle_beta 90.000000
_cell_angle_gamma 90.000000
_cell_volume 1654.147296
_symmetry_space_group_name_H-M "P -4 2 C"
_symmetry_group_IT_number 112
_symmetry_cell_setting 'tetragonal'
loop_
_space_group_symop_operation_xyz
x,y,z
y,-x,-z
-x,-y,z
-y,x,-z
x,-y,1/2-z
-x,y,1/2-z
-y,-x,1/2+z
y,x,1/2+z
loop_
_atom_site_type_symbol
_atom_site_label
_atom_site_fract_x
_atom_site_fract_y
_atom_site_fract_z
Si Si1 0.816141 0.190817 0.763494
Si Si2 0.323041 0.579297 0.695410
Si Si3 0.304516 0.195436 0.891727
Si Si4 0.173887 0.297896 0.120474
Si Si5 0.290169 0.677850 0.992774
O O1 0.671530 0.241928 0.722629
O O2 0.767948 0.247089 0.823824
O O3 0.000000 0.251985 0.750000
O O4 0.826463 0.000000 0.750000
O O5 0.500000 0.500000 0.687006
O O6 0.245740 0.500000 0.750000
O O7 0.246782 0.638065 0.638899
O O8 0.504041 0.193725 0.884350
O O9 0.248249 0.016287 0.873786
O O10 0.260731 0.198675 0.954480
O O11 0.253013 0.236893 0.064839
O O12 0.480911 0.720718 0.003843
#
# Coordination Sequence:
#
# PCOD9555087 Si02
#       5
#     8   8   8   8   8
#     4  11  24  45  66  95 141 191 231 281 358 441
#     4  11  23  38  64 100 133 170 229 288 351 413
#     4  10  21  38  62  98 129 167 232 287 345 419
#     4  10  20  40  64  90 130 177 227 285 341 419
#     4   9  20  36  63  91 127 172 224 287 350 407
#
# _framework density 24.181646000000001
#
# number of rings (size 3 to 8) (size 9 to 14) (size 15 to 20)
#    0.000    1.800    2.000    2.400    8.400    0.400 
#    3.600    0.000    0.000    0.000    0.000    0.000 
#    0.000    0.000    0.000    0.000    0.000    0.000 
#
# Total GULP energy -222735.316113 kJ/mol
# GULP energy per Si atom -5568.382903 kJ/mol
# Density = 2.412661 g / cm^3
# Si number density = 24.181646 Si / 1000 Ang^3
#
#
#
# Elastic Constant Matrix: (Units=GPa)
#
#
# Indices 1 2 3 4 5 6 
#
# 1 26.6241 20.0440 17.9625 0.0000 0.0000 0.0000
# 2 20.0440 26.6241 17.9625 0.0000 0.0000 0.0000
# 3 17.9625 17.9625 203.8943 0.0000 0.0000 0.0000
# 4 0.0000 0.0000 0.0000 29.8182 0.0000 0.0000
# 5 0.0000 0.0000 0.0000 0.0000 29.8182 0.0000
# 6 0.0000 0.0000 0.0000 0.0000 0.0000 26.8536
#
#
#
# Elastic Compliance Matrix: (Units=1/GPa)
#
#
# Indices 1 2 3 4 5 6 
#
# 1 0.087480 -0.064493 -0.002025 0.000000 0.000000 0.000000
# 2 -0.064493 0.087480 -0.002025 0.000000 0.000000 0.000000
# 3 -0.002025 -0.002025 0.005261 0.000000 0.000000 0.000000
# 4 0.000000 0.000000 0.000000 0.033537 0.000000 0.000000
# 5 0.000000 0.000000 0.000000 0.000000 0.033537 0.000000
# 6 0.000000 0.000000 0.000000 0.000000 0.000000 0.037239
#
#
# Mechanical properties :
#
#
# Convention : Reuss Voigt Hill
#
# Bulk Modulus (GPa) = 23.18323 41.00896 32.09610
# Shear Modulus (GPa) = 11.46795 30.70956 21.08875
#
# Velocity S-wave (km/s) = 2.18007 3.56751 2.95633
# Velocity P-wave (km/s) = 3.99310 5.82795 4.99549
#
# Compressibility (1/GPa) = 0.04313462
#
# Stress axis : x y z
#
# Youngs Moduli (GPa) = 11.43120 11.43120 190.06675
#
# Poissons Ratio (x) = 0.73723 0.38490
# Poissons Ratio (y) = 0.73723 0.38490
# Poissons Ratio (z) = 0.02315 0.02315
#
# Static dielectric constant tensor:
#      x y z
#    x 2.145580 0.000000 0.000000 
#    y 0.000000 2.145580 0.000000 
#    z 0.000000 0.000000 2.031530 
# 
# From -- ./inp_files/5335.got.cif
#   From: 2010.05.17/outbox.cif.g08.bks.cpg/sg112_3_cif.got.tgz:5335.got - 2010.05.20 10:59:04.
