data_PCOD9555565
_publ_section_title
;
Structure prediction by ZEFSAII (Michael W. Deem and Ramdas Pophale) SiO2 
 PCOD9555565
Probable space group: P -4 21 M 
;
_chemical_formula_sum "Si O2"
_cell_formula_units_Z 56
_cell_length_a 13.801477
_cell_length_b 13.801477
_cell_length_c 18.347193
_cell_angle_alpha 90.000000
_cell_angle_beta 90.000000
_cell_angle_gamma 90.000000
_cell_volume 3494.787402
_symmetry_space_group_name_H-M "P -4 21 M "
_symmetry_group_IT_number 113
_symmetry_cell_setting 'tetragonal'
loop_
_space_group_symop_operation_xyz
x,y,z
y,-x,-z
-x,-y,z
-y,x,-z
1/2+x,1/2-y,-z
1/2-x,1/2+y,-z
1/2-y,1/2-x,z
1/2+y,1/2+x,z
loop_
_atom_site_type_symbol
_atom_site_label
_atom_site_fract_x
_atom_site_fract_y
_atom_site_fract_z
Si Si1 0.226708 0.115659 0.774475
Si Si2 0.885022 0.226085 0.649109
Si Si3 0.386559 0.386558 0.500000
Si Si4 0.773294 0.115660 0.774475
Si Si5 0.114978 0.226086 0.649109
Si Si6 0.611257 0.382334 0.080235
Si Si7 0.888744 0.117666 0.919765
O O1 0.327701 0.172300 0.767152
O O2 0.157017 0.154272 0.710515
O O3 0.177591 0.143371 0.851634
O O4 0.236885 1.000000 0.771097
O O5 0.825657 0.325657 0.655518
O O6 0.865727 0.178880 0.569999
O O7 0.842986 0.154271 0.710515
O O8 0.000000 0.238045 0.657484
O O9 0.373597 0.500000 0.480414
O O10 0.321121 0.365726 0.569999
O O11 0.672302 0.172302 0.767151
O O12 0.822410 0.143372 0.851634
O O13 0.174342 0.325659 0.655517
O O14 0.500001 0.349126 0.091104
O O15 0.608094 0.500000 0.077440
O O16 0.647630 0.352371 1.000000
#
# Coordination Sequence:
#
# PCOD9555565 Si02
#       7
#     8   8   8   8   8   8   8
#     4  10  20  32  47  68  93 123 159 197 237 280
#     4  10  20  33  50  72  97 125 157 193 233 277
#     4   9  17  30  50  74  97 123 156 192 227 265
#     4  10  20  32  47  68  93 123 159 197 237 280
#     4  10  20  33  50  72  97 125 157 193 233 277
#     4   8  14  26  45  68  92 117 148 189 233 275
#     4   8  14  26  45  68  92 117 148 189 233 275
#
# _framework density 16.023865000000001
#
# number of rings (size 3 to 8) (size 9 to 14) (size 15 to 20)
#    0.000    2.714    0.000    3.000    0.000    4.000 
#    0.000    0.000    0.000    0.000    0.000    4.000 
#    0.000    6.857    0.000    0.000    0.000    0.000 
#
# Total GULP energy -312052.507911 kJ/mol
# GULP energy per Si atom -5572.366213 kJ/mol
# Density = 1.598739 g / cm^3
# Si number density = 16.023865 Si / 1000 Ang^3
#
#
#
# Elastic Constant Matrix: (Units=GPa)
#
#
# Indices 1 2 3 4 5 6 
#
# 1 77.0445 67.3757 57.5139 0.0000 0.0000 0.0000
# 2 67.3757 77.0447 57.5149 0.0000 0.0000 0.0000
# 3 57.5139 57.5149 116.5627 0.0000 0.0000 0.0000
# 4 0.0000 0.0000 0.0000 10.9165 0.0000 0.0000
# 5 0.0000 0.0000 0.0000 0.0000 10.9162 0.0000
# 6 0.0000 0.0000 0.0000 0.0000 0.0000 10.0466
#
#
#
# Elastic Compliance Matrix: (Units=1/GPa)
#
#
# Indices 1 2 3 4 5 6 
#
# 1 0.057415 -0.046009 -0.005628 0.000000 0.000000 0.000000
# 2 -0.046009 0.057416 -0.005629 0.000000 0.000000 0.000000
# 3 -0.005628 -0.005629 0.014134 0.000000 0.000000 0.000000
# 4 0.000000 0.000000 0.000000 0.091604 0.000000 0.000000
# 5 0.000000 0.000000 0.000000 0.000000 0.091607 0.000000
# 6 0.000000 0.000000 0.000000 0.000000 0.000000 0.099536
#
#
# Mechanical properties :
#
#
# Convention : Reuss Voigt Hill
#
# Bulk Modulus (GPa) = 69.28159 70.60678 69.94418
# Shear Modulus (GPa) = 9.41521 12.25902 10.83711
#
# Velocity S-wave (km/s) = 2.42662 2.76895 2.60342
# Velocity P-wave (km/s) = 7.15414 7.37441 7.26511
#
# Compressibility (1/GPa) = 0.01443385
#
# Stress axis : x y z
#
# Youngs Moduli (GPa) = 17.41691 17.41666 70.75320
#
# Poissons Ratio (x) = 0.80131 0.39820
# Poissons Ratio (y) = 0.80133 0.39829
# Poissons Ratio (z) = 0.09802 0.09804
#
# Static dielectric constant tensor:
#      x y z
#    x 1.516600 0.000000 0.000000 
#    y 0.000000 1.516600 0.000000 
#    z 0.000000 0.000000 1.546660 
# 
# From -- ./inp_files/2734.got.cif
#   From: 2010.05.17/outbox.cif.g08.bks.cpg/sg113_cif.got.tgz:2734.got - 2010.05.20 11:03:00.
