data_PCOD9555812
_publ_section_title
;
Structure prediction by ZEFSAII (Michael W. Deem and Ramdas Pophale) SiO2 
 PCOD9555812
Probable space group: P -4 21 C
;
_chemical_formula_sum "Si O2"
_cell_formula_units_Z 48
_cell_length_a 13.690033
_cell_length_b 13.690033
_cell_length_c 9.210002
_cell_angle_alpha 90.000000
_cell_angle_beta 90.000000
_cell_angle_gamma 90.000000
_cell_volume 1726.110977
_symmetry_space_group_name_H-M "P -4 21 C"
_symmetry_group_IT_number 114
_symmetry_cell_setting 'tetragonal'
loop_
_space_group_symop_operation_xyz
x,y,z
y,-x,-z
-x,-y,z
-y,x,-z
1/2+x,1/2-y,1/2-z
1/2-x,1/2+y,1/2-z
1/2-y,1/2-x,1/2+z
1/2+y,1/2+x,1/2+z
loop_
_atom_site_type_symbol
_atom_site_label
_atom_site_fract_x
_atom_site_fract_y
_atom_site_fract_z
Si Si1 0.716310 0.742578 0.950286
Si Si2 0.288968 0.377461 0.663033
Si Si3 0.356454 0.389694 0.378645
Si Si4 0.635534 0.976008 0.804846
Si Si5 0.127081 0.063136 0.578257
Si Si6 0.007170 0.356833 0.854015
O O1 0.694959 0.683564 0.805078
O O2 0.619256 0.727972 0.043436
O O3 0.590307 0.876998 0.739967
O O4 0.806128 0.717465 0.064054
O O5 0.375259 0.404397 0.550368
O O6 0.242058 0.477967 0.711299
O O7 0.337881 0.271222 0.389220
O O8 0.252216 0.446691 0.348947
O O9 0.421605 0.410171 0.241393
O O10 0.579194 0.064112 0.717693
O O11 0.617874 0.983737 0.978469
O O12 0.044279 0.121818 0.485674
#
# Coordination Sequence:
#
# PCOD9555812 Si02
#       6
#     8   8   8   8   8   8
#     4  10  16  36  65  91 119 168 212 264 331 376
#     4   9  16  29  61  86 115 168 204 255 316 399
#     4   9  18  36  60  85 120 162 217 256 320 388
#     4  10  15  23  35  73 110 147 197 234 295 366
#     4  11  24  42  68  96 128 170 222 273 318 383
#     4  10  17  22  42  71 112 154 193 242 289 378
#
# _framework density 27.808176
#
# number of rings (size 3 to 8) (size 9 to 14) (size 15 to 20)
#    1.000    1.167    3.333    2.000    0.000    1.333 
#    0.000    1.667   11.000    2.000    0.000    0.000 
#    0.000    0.000    0.000    0.000    0.000    0.000 
#
# Total GULP energy -267804.736661 kJ/mol
# GULP energy per Si atom -5579.265347 kJ/mol
# Density = 2.774488 g / cm^3
# Si number density = 27.808176 Si / 1000 Ang^3
#
#
#
# Elastic Constant Matrix: (Units=GPa)
#
#
# Indices 1 2 3 4 5 6 
#
# 1 101.3028 20.7186 43.0196 0.0000 0.0000 0.0000
# 2 20.7186 101.3028 43.0196 0.0000 0.0000 0.0000
# 3 43.0196 43.0196 228.3468 0.0000 0.0000 0.0000
# 4 0.0000 0.0000 0.0000 39.3119 0.0000 0.0000
# 5 0.0000 0.0000 0.0000 0.0000 39.3119 0.0000
# 6 0.0000 0.0000 0.0000 0.0000 0.0000 41.9239
#
#
#
# Elastic Compliance Matrix: (Units=1/GPa)
#
#
# Indices 1 2 3 4 5 6 
#
# 1 0.010930 -0.001479 -0.001780 0.000000 0.000000 0.000000
# 2 -0.001479 0.010930 -0.001780 0.000000 0.000000 0.000000
# 3 -0.001780 -0.001780 0.005050 0.000000 0.000000 0.000000
# 4 0.000000 0.000000 0.000000 0.025438 0.000000 0.000000
# 5 0.000000 0.000000 0.000000 0.000000 0.025438 0.000000
# 6 0.000000 0.000000 0.000000 0.000000 0.000000 0.023853
#
#
# Mechanical properties :
#
#
# Convention : Reuss Voigt Hill
#
# Bulk Modulus (GPa) = 59.41869 71.60755 65.51312
# Shear Modulus (GPa) = 42.61532 45.72251 44.16892
#
# Velocity S-wave (km/s) = 3.91893 4.05929 3.98973
# Velocity P-wave (km/s) = 6.47233 6.91208 6.69582
#
# Compressibility (1/GPa) = 0.01682972
#
# Stress axis : x y z
#
# Youngs Moduli (GPa) = 91.49083 91.49083 198.01303
#
# Poissons Ratio (x) = 0.13534 0.35256
# Poissons Ratio (y) = 0.13534 0.35256
# Poissons Ratio (z) = 0.16290 0.16290
#
# Static dielectric constant tensor:
#      x y z
#    x 2.318220 0.000000 0.000000 
#    y 0.000000 2.318220 0.000000 
#    z 0.000000 0.000000 2.165270 
# 
# From -- ./inp_files/920.got.cif
#   From: 2010.05.17/outbox.cif.g08.bks.cpg/sg114_1_cif.got.tgz:920.got - 2010.05.20 11:04:54.
