data_PCOD9555613
_publ_section_title
;
Structure prediction by ZEFSAII (Michael W. Deem and Ramdas Pophale) SiO2 
 PCOD9555613
Probable space group: P -4 21 M 
;
_chemical_formula_sum "Si O2"
_cell_formula_units_Z 40
_cell_length_a 18.821440
_cell_length_b 18.821440
_cell_length_c 5.267426
_cell_angle_alpha 90.000000
_cell_angle_beta 90.000000
_cell_angle_gamma 90.000000
_cell_volume 1865.967771
_symmetry_space_group_name_H-M "P -4 21 M "
_symmetry_group_IT_number 113
_symmetry_cell_setting 'tetragonal'
loop_
_space_group_symop_operation_xyz
x,y,z
y,-x,-z
-x,-y,z
-y,x,-z
1/2+x,1/2-y,-z
1/2-x,1/2+y,-z
1/2-y,1/2-x,z
1/2+y,1/2+x,z
loop_
_atom_site_type_symbol
_atom_site_label
_atom_site_fract_x
_atom_site_fract_y
_atom_site_fract_z
Si Si1 0.914341 0.700253 0.813196
Si Si2 0.713923 0.414576 0.323036
Si Si3 0.583047 0.416955 0.999997
Si Si4 0.799750 0.414343 0.813193
Si Si5 0.286080 0.414577 0.323040
O O1 0.874384 0.625617 0.795721
O O2 0.888474 0.749609 0.579825
O O3 0.999999 0.692936 0.801348
O O4 0.896261 0.737701 0.079462
O O5 0.634124 0.397875 0.232360
O O6 0.750394 0.388475 0.579824
O O7 0.714268 0.500000 0.346936
O O8 0.762303 0.396262 0.079462
O O9 0.500001 0.406354 0.065427
O O10 0.602124 0.365880 0.767626
O O11 0.874387 0.374387 0.795713
#
# Coordination Sequence:
#
# PCOD9555613 Si02
#       5
#     8   8   8   8   8
#     4  10  20  36  56  78 108 144 180 220 268 318
#     4   9  19  35  54  79 111 141 172 221 276 313
#     4   9  18  36  61  84 106 140 185 222 258 319
#     4  10  20  36  56  78 108 144 180 220 268 318
#     4   9  19  35  54  79 111 141 172 221 276 313
#
# _framework density 21.436596999999999
#
# number of rings (size 3 to 8) (size 9 to 14) (size 15 to 20)
#    0.000    2.600    0.000    1.200    0.000    2.000 
#    0.000   12.000    0.000   24.000    0.000    0.000 
#    0.000    0.000    0.000    0.000    0.000    0.000 
#
# Total GULP energy -223430.953486 kJ/mol
# GULP energy per Si atom -5585.773837 kJ/mol
# Density = 2.138781 g / cm^3
# Si number density = 21.436597 Si / 1000 Ang^3
#
#
#
# Elastic Constant Matrix: (Units=GPa)
#
#
# Indices 1 2 3 4 5 6 
#
# 1 77.7125 58.6278 45.1961 0.0000 0.0000 0.0000
# 2 58.6278 77.7211 45.1959 0.0000 0.0000 0.0000
# 3 45.1961 45.1959 130.8413 0.0000 0.0000 0.0000
# 4 0.0000 0.0000 0.0000 10.5595 0.0000 0.0000
# 5 0.0000 0.0000 0.0000 0.0000 10.5601 0.0000
# 6 0.0000 0.0000 0.0000 0.0000 0.0000 13.8517
#
#
#
# Elastic Compliance Matrix: (Units=1/GPa)
#
#
# Indices 1 2 3 4 5 6 
#
# 1 0.030952 -0.021437 -0.003287 0.000000 0.000000 0.000000
# 2 -0.021437 0.030947 -0.003285 0.000000 0.000000 0.000000
# 3 -0.003287 -0.003285 0.009913 0.000000 0.000000 0.000000
# 4 0.000000 0.000000 0.000000 0.094701 0.000000 0.000000
# 5 0.000000 0.000000 0.000000 0.000000 0.094696 0.000000
# 6 0.000000 0.000000 0.000000 0.000000 0.000000 0.072193
#
#
# Mechanical properties :
#
#
# Convention : Reuss Voigt Hill
#
# Bulk Modulus (GPa) = 63.31221 64.92383 64.11802
# Shear Modulus (GPa) = 12.66835 16.14460 14.40647
#
# Velocity S-wave (km/s) = 2.43362 2.74730 2.59521
# Velocity P-wave (km/s) = 6.12335 6.35734 6.24144
#
# Compressibility (1/GPa) = 0.01579474
#
# Stress axis : x y z
#
# Youngs Moduli (GPa) = 32.30843 32.31302 100.87776
#
# Poissons Ratio (x) = 0.69268 0.33156
# Poissons Ratio (y) = 0.69258 0.33140
# Poissons Ratio (z) = 0.10619 0.10615
#
# Static dielectric constant tensor:
#      x y z
#    x 1.769580 0.000000 0.000000 
#    y 0.000000 1.769580 0.000000 
#    z 0.000000 0.000000 1.808390 
# 
# From -- ./inp_files/324.got.cif
#   From: 2010.05.17/outbox.cif.g08.bks.cpg/sg113_cif.got.tgz:324.got - 2010.05.20 11:03:00.
