data_PCOD9555582
_publ_section_title
;
Structure prediction by ZEFSAII (Michael W. Deem and Ramdas Pophale) SiO2 
 PCOD9555582
Probable space group: P -4 21 M 
;
_chemical_formula_sum "Si O2"
_cell_formula_units_Z 64
_cell_length_a 12.622397
_cell_length_b 12.622397
_cell_length_c 21.529207
_cell_angle_alpha 90.000000
_cell_angle_beta 90.000000
_cell_angle_gamma 90.000000
_cell_volume 3430.138882
_symmetry_space_group_name_H-M "P -4 21 M "
_symmetry_group_IT_number 113
_symmetry_cell_setting 'tetragonal'
loop_
_space_group_symop_operation_xyz
x,y,z
y,-x,-z
-x,-y,z
-y,x,-z
1/2+x,1/2-y,-z
1/2-x,1/2+y,-z
1/2-y,1/2-x,z
1/2+y,1/2+x,z
loop_
_atom_site_type_symbol
_atom_site_label
_atom_site_fract_x
_atom_site_fract_y
_atom_site_fract_z
Si Si1 0.585312 0.268151 0.271813
Si Si2 0.995803 0.321186 0.849823
Si Si3 0.505720 0.175007 0.622340
Si Si4 0.500744 0.179883 0.015274
Si Si5 0.320611 0.996732 0.880621
Si Si6 0.019199 0.824944 0.491552
Si Si7 0.744868 0.937576 0.750652
Si Si8 0.824647 0.498600 0.607069
O O1 0.674268 0.174268 0.272107
O O2 0.516622 0.249360 0.210133
O O3 0.648133 0.377128 0.266698
O O4 0.522200 0.252827 0.335498
O O5 0.089537 0.410464 0.851033
O O6 0.887692 0.387692 0.843648
O O7 0.000017 0.265386 0.917437
O O8 0.408253 0.091748 0.618699
O O9 0.483679 0.269347 0.575170
O O10 0.512147 0.212680 0.693593
O O11 0.610481 0.110481 0.604179
O O12 0.401206 0.098795 0.017182
O O13 0.498516 0.235342 0.948117
O O14 0.603948 0.103948 0.013369
O O15 0.389749 0.889749 0.875822
O O16 0.408112 0.091889 0.881434
O O17 0.252896 0.011264 0.818668
O O18 0.909992 0.887339 0.503427
O O19 0.029856 0.737173 0.544865
O O20 0.652611 0.847390 0.753394
O O21 0.897515 0.602486 0.596035
O O22 0.905186 0.405186 0.624741
#
# Coordination Sequence:
#
# PCOD9555582 Si02
#       8
#     8   8   8   8   8   8   8   8
#     4   9  16  25  39  62  93 126 157 193 239 287
#     4   8  12  19  32  52  80 113 150 193 239 285
#     4  10  20  34  53  76 100 128 163 201 241 286
#     4   7  10  16  28  48  74 104 140 187 240 286
#     4   8  12  19  32  52  80 113 150 193 239 285
#     4  11  24  39  54  74 100 129 160 195 238 288
#     4   9  16  25  39  62  93 126 157 193 239 287
#     4  10  20  34  53  76 100 128 163 201 241 286
#
# _framework density 18.658137
#
# number of rings (size 3 to 8) (size 9 to 14) (size 15 to 20)
#    0.000    3.000    0.000    3.750    0.000    7.000 
#    0.000    0.000    0.000    0.000    0.000    1.750 
#    0.000    6.000    0.000    0.000    0.000    0.000 
#
# Total GULP energy -356522.919701 kJ/mol
# GULP energy per Si atom -5570.670620 kJ/mol
# Density = 1.861567 g / cm^3
# Si number density = 18.658137 Si / 1000 Ang^3
#
#
#
# Elastic Constant Matrix: (Units=GPa)
#
#
# Indices 1 2 3 4 5 6 
#
# 1 20.1597 -1.4143 -2.5882 0.0000 0.0000 0.0000
# 2 -1.4143 20.1594 -2.5882 0.0000 0.0000 0.0000
# 3 -2.5882 -2.5882 75.1056 0.0000 0.0000 0.0000
# 4 0.0000 0.0000 0.0000 -6.0935 0.0000 0.0000
# 5 0.0000 0.0000 0.0000 0.0000 -6.0933 0.0000
# 6 0.0000 0.0000 0.0000 0.0000 0.0000 4.1945
#
#
#
# Elastic Compliance Matrix: (Units=1/GPa)
#
#
# Indices 1 2 3 4 5 6 
#
# 1 0.050105 0.003754 0.001856 0.000000 0.000000 0.000000
# 2 0.003754 0.050106 0.001856 0.000000 0.000000 0.000000
# 3 0.001856 0.001856 0.013443 0.000000 0.000000 0.000000
# 4 0.000000 0.000000 0.000000 -0.164109 0.000000 0.000000
# 5 0.000000 0.000000 0.000000 0.000000 -0.164115 0.000000
# 6 0.000000 0.000000 0.000000 0.000000 0.000000 0.238406
#
#
# Mechanical properties :
#
#
# Convention : Reuss Voigt Hill
#
# Bulk Modulus (GPa) = 7.77694 11.36038 9.56866
# Shear Modulus (GPa) = 96.58689 6.53591 51.56140
#
# Velocity S-wave (km/s) = 7.20271 1.87366 5.26258
# Velocity P-wave (km/s) = 8.56441 3.28370 6.48583
#
# Compressibility (1/GPa) = 0.12858523
#
# Stress axis : x y z
#
# Youngs Moduli (GPa) = 19.95792 19.95762 74.39089
#
# Poissons Ratio (x) = -0.07491 -0.13807
# Poissons Ratio (y) = -0.07491 -0.13807
# Poissons Ratio (z) = -0.03704 -0.03704
#
# Static dielectric constant tensor:
#      x y z
#    x 1.634170 0.000000 0.000000 
#    y 0.000000 1.634170 0.000000 
#    z 0.000000 0.000000 1.668860 
# 
# From -- ./inp_files/2888.got.cif
#   From: 2010.05.17/outbox.cif.g08.bks.cpg/sg113_cif.got.tgz:2888.got - 2010.05.20 11:03:00.
