data_PCOD9555373
_publ_section_title
;
Structure prediction by ZEFSAII (Michael W. Deem and Ramdas Pophale) SiO2 
 PCOD9555373
Probable space group: P -4 2 C
;
_chemical_formula_sum "Si O2"
_cell_formula_units_Z 48
_cell_length_a 8.845728
_cell_length_b 8.845728
_cell_length_c 27.293168
_cell_angle_alpha 90.000000
_cell_angle_beta 90.000000
_cell_angle_gamma 90.000000
_cell_volume 2135.605892
_symmetry_space_group_name_H-M "P -4 2 C"
_symmetry_group_IT_number 112
_symmetry_cell_setting 'tetragonal'
loop_
_space_group_symop_operation_xyz
x,y,z
y,-x,-z
-x,-y,z
-y,x,-z
x,-y,1/2-z
-x,y,1/2-z
-y,-x,1/2+z
y,x,1/2+z
loop_
_atom_site_type_symbol
_atom_site_label
_atom_site_fract_x
_atom_site_fract_y
_atom_site_fract_z
Si Si1 0.307140 0.837381 0.864702
Si Si2 0.672517 0.017186 0.965224
Si Si3 0.325864 0.025795 0.162658
Si Si4 0.917034 0.165261 0.566697
Si Si5 0.189213 0.895546 0.702050
Si Si6 0.672024 0.452207 0.193482
O O1 0.310350 0.855058 0.923242
O O2 0.465339 0.794563 0.840851
O O3 0.201939 0.700640 0.846853
O O4 0.238498 0.990778 0.841389
O O5 0.500000 0.000000 0.977669
O O6 0.740636 0.869706 0.939074
O O7 0.765437 0.035952 0.014818
O O8 0.279160 0.951897 0.110465
O O9 0.183006 0.974341 0.196256
O O10 0.500000 0.000000 0.177501
O O11 0.000000 0.000000 0.573454
O O12 0.283361 0.738270 0.696614
O O13 0.215392 0.000000 0.750000
O O14 0.500000 0.500000 0.178966
O O15 0.686204 0.500000 0.250000
#
# Coordination Sequence:
#
# PCOD9555373 Si02
#       6
#     8   8   8   8   8   8
#     4  12  24  43  69 101 132 184 238 286 352 431
#     4  12  23  39  70 103 133 176 232 289 340 418
#     4  12  26  45  69 105 143 182 233 307 370 420
#     4  12  21  44  72  99 137 184 234 283 349 441
#     4  12  24  44  70  99 135 185 239 291 350 436
#     4  11  24  44  67  99 139 183 231 295 364 426
#
# _framework density 22.476057999999998
#
# number of rings (size 3 to 8) (size 9 to 14) (size 15 to 20)
#    0.000    0.167    6.667    3.500    0.000    1.333 
#    0.000    0.833    0.000    0.000    0.000    0.000 
#    0.000    0.000    0.000    0.000    0.000    0.000 
#
# Total GULP energy -267888.153368 kJ/mol
# GULP energy per Si atom -5581.003195 kJ/mol
# Density = 2.242490 g / cm^3
# Si number density = 22.476058 Si / 1000 Ang^3
#
#
#
# Elastic Constant Matrix: (Units=GPa)
#
#
# Indices 1 2 3 4 5 6 
#
# 1 106.3119 9.5591 12.8882 0.0000 0.0000 0.0000
# 2 9.5591 106.3119 12.8882 0.0000 0.0000 0.0000
# 3 12.8882 12.8882 126.4645 0.0000 0.0000 0.0000
# 4 0.0000 0.0000 0.0000 20.5362 0.0000 0.0000
# 5 0.0000 0.0000 0.0000 0.0000 20.5362 0.0000
# 6 0.0000 0.0000 0.0000 0.0000 0.0000 29.0522
#
#
#
# Elastic Compliance Matrix: (Units=1/GPa)
#
#
# Indices 1 2 3 4 5 6 
#
# 1 0.009583 -0.000753 -0.000900 0.000000 0.000000 0.000000
# 2 -0.000753 0.009583 -0.000900 0.000000 0.000000 0.000000
# 3 -0.000900 -0.000900 0.008091 0.000000 0.000000 0.000000
# 4 0.000000 0.000000 0.000000 0.048695 0.000000 0.000000
# 5 0.000000 0.000000 0.000000 0.000000 0.048695 0.000000
# 6 0.000000 0.000000 0.000000 0.000000 0.000000 0.034421
#
#
# Mechanical properties :
#
#
# Convention : Reuss Voigt Hill
#
# Bulk Modulus (GPa) = 45.14259 45.52883 45.33571
# Shear Modulus (GPa) = 29.14507 34.27510 31.71008
#
# Velocity S-wave (km/s) = 3.60490 3.90931 3.76019
# Velocity P-wave (km/s) = 6.12008 6.37789 6.25032
#
# Compressibility (1/GPa) = 0.02215203
#
# Stress axis : x y z
#
# Youngs Moduli (GPa) = 104.35092 104.35092 123.59742
#
# Poissons Ratio (x) = 0.07853 0.11123
# Poissons Ratio (y) = 0.07853 0.11123
# Poissons Ratio (z) = 0.09391 0.09391
#
# Static dielectric constant tensor:
#      x y z
#    x 2.042900 0.000000 0.000000 
#    y 0.000000 2.042900 0.000000 
#    z 0.000000 0.000000 1.876300 
# 
# From -- ./inp_files/6319.got.cif
#   From: 2010.05.17/outbox.cif.g08.bks.cpg/sg112_4_cif.got.tgz:6319.got - 2010.05.20 10:59:04.
