data_PCOD9555814
_publ_section_title
;
Structure prediction by ZEFSAII (Michael W. Deem and Ramdas Pophale) SiO2 
 PCOD9555814
Probable space group: P -4 21 C
;
_chemical_formula_sum "Si O2"
_cell_formula_units_Z 48
_cell_length_a 12.240678
_cell_length_b 12.240678
_cell_length_c 18.050201
_cell_angle_alpha 90.000000
_cell_angle_beta 90.000000
_cell_angle_gamma 90.000000
_cell_volume 2704.537389
_symmetry_space_group_name_H-M "P -4 21 C"
_symmetry_group_IT_number 114
_symmetry_cell_setting 'tetragonal'
loop_
_space_group_symop_operation_xyz
x,y,z
y,-x,-z
-x,-y,z
-y,x,-z
1/2+x,1/2-y,1/2-z
1/2-x,1/2+y,1/2-z
1/2-y,1/2-x,1/2+z
1/2+y,1/2+x,1/2+z
loop_
_atom_site_type_symbol
_atom_site_label
_atom_site_fract_x
_atom_site_fract_y
_atom_site_fract_z
Si Si1 0.134219 0.994376 0.416388
Si Si2 0.307254 0.651101 0.405125
Si Si3 0.527722 0.624117 0.317305
Si Si4 0.117960 0.790512 0.330107
Si Si5 0.777920 0.101281 0.064611
Si Si6 0.227148 0.903541 0.571413
O O1 0.156934 0.913659 0.349444
O O2 0.194817 0.941750 0.487578
O O3 0.165921 0.119678 0.405765
O O4 0.000000 0.000000 0.423772
O O5 0.412439 0.656428 0.352175
O O6 0.211431 0.711594 0.360596
O O7 0.268322 0.529116 0.427343
O O8 0.351176 0.699509 0.482697
O O9 0.500000 0.500000 0.289638
O O10 0.575140 0.701660 0.253394
O O11 0.618234 0.623445 0.382254
O O12 0.012586 0.767647 0.380722
O O13 0.668394 0.166506 0.084822
#
# Coordination Sequence:
#
# PCOD9555814 Si02
#       6
#     8   8   8   8   8   8
#     4  10  15  31  56  87 118 152 199 251 302 366
#     4  11  22  41  64  88 125 162 212 255 305 383
#     4  10  23  40  63  90 120 165 211 256 308 373
#     4  11  22  37  61  93 122 156 206 262 319 363
#     4  11  22  38  64  89 119 167 207 254 308 373
#     4  11  18  33  58  89 120 154 199 254 308 370
#
# _framework density 17.747952000000002
#
# number of rings (size 3 to 8) (size 9 to 14) (size 15 to 20)
#    0.000    1.333    6.667    1.500    2.333    0.667 
#    0.000    0.000    0.000    1.000    0.000    0.000 
#    0.000    0.000    0.000    0.000    0.000    0.000 
#
# Total GULP energy -267225.121395 kJ/mol
# GULP energy per Si atom -5567.190029 kJ/mol
# Density = 1.770756 g / cm^3
# Si number density = 17.747952 Si / 1000 Ang^3
#
#
#
# Elastic Constant Matrix: (Units=GPa)
#
#
# Indices 1 2 3 4 5 6 
#
# 1 48.4885 32.8135 38.1519 0.0000 0.0000 0.0000
# 2 32.8135 48.4885 38.1519 0.0000 0.0000 0.0000
# 3 38.1519 38.1519 74.4801 0.0000 0.0000 0.0000
# 4 0.0000 0.0000 0.0000 18.0039 0.0000 0.0000
# 5 0.0000 0.0000 0.0000 0.0000 18.0039 0.0000
# 6 0.0000 0.0000 0.0000 0.0000 0.0000 34.9913
#
#
#
# Elastic Compliance Matrix: (Units=1/GPa)
#
#
# Indices 1 2 3 4 5 6 
#
# 1 0.043742 -0.020054 -0.012134 0.000000 0.000000 0.000000
# 2 -0.020054 0.043742 -0.012134 0.000000 0.000000 0.000000
# 3 -0.012134 -0.012134 0.025857 0.000000 0.000000 0.000000
# 4 0.000000 0.000000 0.000000 0.055544 0.000000 0.000000
# 5 0.000000 0.000000 0.000000 0.000000 0.055544 0.000000
# 6 0.000000 0.000000 0.000000 0.000000 0.000000 0.028579
#
#
# Mechanical properties :
#
#
# Convention : Reuss Voigt Hill
#
# Bulk Modulus (GPa) = 40.49017 43.29907 41.89462
# Shear Modulus (GPa) = 14.29052 18.35580 16.32316
#
# Velocity S-wave (km/s) = 2.84067 3.21946 3.03598
# Velocity P-wave (km/s) = 5.79851 6.18624 5.99551
#
# Compressibility (1/GPa) = 0.02469735
#
# Stress axis : x y z
#
# Youngs Moduli (GPa) = 22.86148 22.86148 38.67373
#
# Poissons Ratio (x) = 0.45846 0.46926
# Poissons Ratio (y) = 0.45846 0.46926
# Poissons Ratio (z) = 0.27740 0.27740
#
# Static dielectric constant tensor:
#      x y z
#    x 1.625360 0.000000 0.000000 
#    y 0.000000 1.625360 0.000000 
#    z 0.000000 0.000000 1.647800 
# 
# From -- ./inp_files/2640.got.cif
#   From: 2010.05.17/outbox.cif.g08.bks.cpg/sg114_2_cif.got.tgz:2640.got - 2010.05.20 11:04:54.
