data_PCOD9555254
_publ_section_title
;
Structure prediction by ZEFSAII (Michael W. Deem and Ramdas Pophale) SiO2 
 PCOD9555254
Probable space group: P -4 2 C
;
_chemical_formula_sum "Si O2"
_cell_formula_units_Z 38
_cell_length_a 9.035804
_cell_length_b 9.035804
_cell_length_c 21.193797
_cell_angle_alpha 90.000000
_cell_angle_beta 90.000000
_cell_angle_gamma 90.000000
_cell_volume 1730.383535
_symmetry_space_group_name_H-M "P -4 2 C"
_symmetry_group_IT_number 112
_symmetry_cell_setting 'tetragonal'
loop_
_space_group_symop_operation_xyz
x,y,z
y,-x,-z
-x,-y,z
-y,x,-z
x,-y,1/2-z
-x,y,1/2-z
-y,-x,1/2+z
y,x,1/2+z
loop_
_atom_site_type_symbol
_atom_site_label
_atom_site_fract_x
_atom_site_fract_y
_atom_site_fract_z
Si Si1 0.500000 0.500000 0.750000
Si Si2 0.500000 0.000000 0.250000
Si Si3 0.005690 0.677818 0.178487
Si Si4 0.659657 0.746061 0.333078
Si Si5 0.266728 0.829884 0.938894
Si Si6 0.000000 0.000000 0.000000
Si Si7 0.500995 0.835109 0.454163
O O1 0.605449 0.396831 0.707279
O O2 0.601032 0.889931 0.293582
O O3 0.164616 0.736856 0.155753
O O4 0.000000 0.500000 0.178553
O O5 0.000000 0.731625 0.250000
O O6 0.867658 0.720334 0.134654
O O7 0.588045 0.740762 0.402437
O O8 0.217781 0.665592 0.955410
O O9 0.417308 0.847204 0.978717
O O10 0.141773 0.943100 0.962166
O O11 0.500000 0.000000 0.427567
#
# Coordination Sequence:
#
# PCOD9555254 Si02
#       7
#     2   2   8   8   8   2   8
#     4  10  24  42  74 108 156 198 254 316 372 466
#     4  10  24  46  74 110 160 190 252 310 384 468
#     4  11  27  48  77 108 150 198 253 316 379 464
#     4  11  25  46  74 109 149 201 248 310 381 451
#     4  12  28  48  74 110 148 196 254 312 388 454
#     4  12  24  48  78 104 148 208 240 314 376 456
#     4  12  27  47  74 108 149 194 250 318 378 462
#
# _framework density 21.960450000000002
#
# number of rings (size 3 to 8) (size 9 to 14) (size 15 to 20)
#    0.000    0.632    3.158    3.158   11.789    0.421 
#    0.000    0.000    0.000    0.000    0.000    0.000 
#    0.000    0.000    0.000    0.000    0.000    0.000 
#
# Total GULP energy -212472.109417 kJ/mol
# GULP energy per Si atom -5591.371300 kJ/mol
# Density = 2.191047 g / cm^3
# Si number density = 21.960450 Si / 1000 Ang^3
#
#
#
# Elastic Constant Matrix: (Units=GPa)
#
#
# Indices 1 2 3 4 5 6 
#
# 1 114.4743 19.9774 30.9289 0.0000 0.0000 0.0000
# 2 19.9774 114.4743 30.9289 0.0000 0.0000 0.0000
# 3 30.9289 30.9289 122.7305 0.0000 0.0000 0.0000
# 4 0.0000 0.0000 0.0000 41.0918 0.0000 0.0000
# 5 0.0000 0.0000 0.0000 0.0000 41.0918 0.0000
# 6 0.0000 0.0000 0.0000 0.0000 0.0000 35.0459
#
#
#
# Elastic Compliance Matrix: (Units=1/GPa)
#
#
# Indices 1 2 3 4 5 6 
#
# 1 0.009498 -0.001085 -0.002120 0.000000 0.000000 0.000000
# 2 -0.001085 0.009498 -0.002120 0.000000 0.000000 0.000000
# 3 -0.002120 -0.002120 0.009217 0.000000 0.000000 0.000000
# 4 0.000000 0.000000 0.000000 0.024336 0.000000 0.000000
# 5 0.000000 0.000000 0.000000 0.000000 0.024336 0.000000
# 6 0.000000 0.000000 0.000000 0.000000 0.000000 0.028534
#
#
# Mechanical properties :
#
#
# Convention : Reuss Voigt Hill
#
# Bulk Modulus (GPa) = 56.94105 57.26106 57.10105
# Shear Modulus (GPa) = 41.01007 41.43551 41.22279
#
# Velocity S-wave (km/s) = 4.32609 4.34847 4.33730
# Velocity P-wave (km/s) = 7.13713 7.16544 7.15130
#
# Compressibility (1/GPa) = 0.01756202
#
# Stress axis : x y z
#
# Youngs Moduli (GPa) = 105.28864 105.28864 108.50091
#
# Poissons Ratio (x) = 0.11420 0.23004
# Poissons Ratio (y) = 0.11420 0.23004
# Poissons Ratio (z) = 0.22323 0.22323
#
# Static dielectric constant tensor:
#      x y z
#    x 1.781370 0.000000 0.000000 
#    y 0.000000 1.781370 0.000000 
#    z 0.000000 0.000000 1.831600 
# 
# From -- ./inp_files/5440.got.cif
#   From: 2010.05.17/outbox.cif.g08.bks.cpg/sg112_3_cif.got.tgz:5440.got - 2010.05.20 10:59:04.
