data_PCOD9555384
_publ_section_title
;
Structure prediction by ZEFSAII (Michael W. Deem and Ramdas Pophale) SiO2 
 PCOD9555384
Probable space group: P -4 2 C
;
_chemical_formula_sum "Si O2"
_cell_formula_units_Z 20
_cell_length_a 10.111506
_cell_length_b 10.111506
_cell_length_c 9.903949
_cell_angle_alpha 90.000000
_cell_angle_beta 90.000000
_cell_angle_gamma 90.000000
_cell_volume 1012.605036
_symmetry_space_group_name_H-M "P -4 2 C"
_symmetry_group_IT_number 112
_symmetry_cell_setting 'tetragonal'
loop_
_space_group_symop_operation_xyz
x,y,z
y,-x,-z
-x,-y,z
-y,x,-z
x,-y,1/2-z
-x,y,1/2-z
-y,-x,1/2+z
y,x,1/2+z
loop_
_atom_site_type_symbol
_atom_site_label
_atom_site_fract_x
_atom_site_fract_y
_atom_site_fract_z
Si Si1 0.000000 0.000000 0.500000
Si Si2 0.351322 0.156694 0.722334
Si Si3 0.733738 0.867817 0.417703
Si Si4 0.000000 0.500000 0.750000
O O1 0.033928 0.862235 0.577306
O O2 0.500000 0.202872 0.750000
O O3 0.301343 0.173850 0.569930
O O4 0.254469 0.223520 0.827539
O O5 0.347395 0.000000 0.750000
O O6 0.602186 0.926022 0.349411
#
# Coordination Sequence:
#
# PCOD9555384 Si02
#       4
#     2   8   8   2
#     4  12  24  46  76 118 132 190 248 322 348 426
#     4  11  25  45  72 108 149 187 236 305 376 443
#     4  12  26  44  74 106 148 188 248 303 370 433
#     4  12  28  42  72 104 148 202 238 306 368 438
#
# _framework density 19.75104
#
# number of rings (size 3 to 8) (size 9 to 14) (size 15 to 20)
#    0.000    0.400    4.000    4.800    5.600    1.600 
#    0.000    1.000    0.000    0.000    0.000    0.000 
#    0.000    0.000    0.000    0.000    0.000    0.000 
#
# Total GULP energy -111800.838318 kJ/mol
# GULP energy per Si atom -5590.041916 kJ/mol
# Density = 1.970609 g / cm^3
# Si number density = 19.751040 Si / 1000 Ang^3
#
#
#
# Elastic Constant Matrix: (Units=GPa)
#
#
# Indices 1 2 3 4 5 6 
#
# 1 150.0013 78.0421 69.4978 0.0000 0.0000 0.0000
# 2 78.0421 150.0013 69.4978 0.0000 0.0000 0.0000
# 3 69.4978 69.4978 196.9116 0.0000 0.0000 0.0000
# 4 0.0000 0.0000 0.0000 33.5520 0.0000 0.0000
# 5 0.0000 0.0000 0.0000 0.0000 33.5520 0.0000
# 6 0.0000 0.0000 0.0000 0.0000 0.0000 26.1408
#
#
#
# Elastic Compliance Matrix: (Units=1/GPa)
#
#
# Indices 1 2 3 4 5 6 
#
# 1 0.009742 -0.004155 -0.001972 0.000000 0.000000 0.000000
# 2 -0.004155 0.009742 -0.001972 0.000000 0.000000 0.000000
# 3 -0.001972 -0.001972 0.006470 0.000000 0.000000 0.000000
# 4 0.000000 0.000000 0.000000 0.029805 0.000000 0.000000
# 5 0.000000 0.000000 0.000000 0.000000 0.029805 0.000000
# 6 0.000000 0.000000 0.000000 0.000000 0.000000 0.038254
#
#
# Mechanical properties :
#
#
# Convention : Reuss Voigt Hill
#
# Bulk Modulus (GPa) = 102.49207 103.44329 102.96768
# Shear Modulus (GPa) = 34.89986 37.30738 36.10362
#
# Velocity S-wave (km/s) = 4.20812 4.35084 4.28007
# Velocity P-wave (km/s) = 8.69573 8.81629 8.75622
#
# Compressibility (1/GPa) = 0.00975685
#
# Stress axis : x y z
#
# Youngs Moduli (GPa) = 102.64949 102.64949 154.55179
#
# Poissons Ratio (x) = 0.42650 0.30476
# Poissons Ratio (y) = 0.42650 0.30476
# Poissons Ratio (z) = 0.20241 0.20241
#
# Static dielectric constant tensor:
#      x y z
#    x 1.695410 0.000000 0.000000 
#    y 0.000000 1.695410 0.000000 
#    z 0.000000 0.000000 1.698880 
# 
# From -- ./inp_files/1914.got.cif
#   From: 2010.05.17/outbox.cif.g08.bks.cpg/sg112_1_cif.got.tgz:1914.got - 2010.05.20 10:59:04.
