data_PCOD9555392
_publ_section_title
;
Structure prediction by ZEFSAII (Michael W. Deem and Ramdas Pophale) SiO2 
 PCOD9555392
Probable space group: P -4 2 C
;
_chemical_formula_sum "Si O2"
_cell_formula_units_Z 24
_cell_length_a 11.053808
_cell_length_b 11.053808
_cell_length_c 8.504507
_cell_angle_alpha 90.000000
_cell_angle_beta 90.000000
_cell_angle_gamma 90.000000
_cell_volume 1039.137401
_symmetry_space_group_name_H-M "P -4 2 C"
_symmetry_group_IT_number 112
_symmetry_cell_setting 'tetragonal'
loop_
_space_group_symop_operation_xyz
x,y,z
y,-x,-z
-x,-y,z
-y,x,-z
x,-y,1/2-z
-x,y,1/2-z
-y,-x,1/2+z
y,x,1/2+z
loop_
_atom_site_type_symbol
_atom_site_label
_atom_site_fract_x
_atom_site_fract_y
_atom_site_fract_z
Si Si1 0.207678 0.000000 0.250000
Si Si2 0.179030 0.000000 0.750000
Si Si3 0.534222 0.683755 0.937941
Si Si4 0.374930 0.060523 0.985057
O O1 0.303949 0.021646 0.388255
O O2 0.109507 0.903172 0.315545
O O3 0.271012 0.928009 0.642172
O O4 0.500000 0.699458 0.750000
O O5 0.584457 0.803966 0.020897
O O6 0.634945 0.581064 0.965420
O O7 0.500000 0.000000 0.934463
#
# Coordination Sequence:
#
# PCOD9555392 Si02
#       4
#     4   4   8   8
#     4  11  27  46  76 104 145 197 256 302 390 451
#     4  11  25  50  72 104 147 199 244 320 378 445
#     4  11  26  46  73 107 150 199 249 313 389 464
#     4  12  27  44  73 110 142 192 250 315 375 455
#
# _framework density 23.096080000000001
#
# number of rings (size 3 to 8) (size 9 to 14) (size 15 to 20)
#    0.000    0.667    0.000    7.000   14.000    5.333 
#    0.000    0.000    0.000    0.000    0.000    0.000 
#    0.000    0.000    0.000    0.000    0.000    0.000 
#
# Total GULP energy -133622.816289 kJ/mol
# GULP energy per Si atom -5567.617345 kJ/mol
# Density = 2.304351 g / cm^3
# Si number density = 23.096080 Si / 1000 Ang^3
#
#
#
# Elastic Constant Matrix: (Units=GPa)
#
#
# Indices 1 2 3 4 5 6 
#
# 1 107.5506 54.7634 1.3119 0.0000 0.0000 0.0000
# 2 54.7634 107.5506 1.3119 0.0000 0.0000 0.0000
# 3 1.3119 1.3119 12.1753 0.0000 0.0000 0.0000
# 4 0.0000 0.0000 0.0000 37.6640 0.0000 0.0000
# 5 0.0000 0.0000 0.0000 0.0000 37.6640 0.0000
# 6 0.0000 0.0000 0.0000 0.0000 0.0000 23.2393
#
#
#
# Elastic Compliance Matrix: (Units=1/GPa)
#
#
# Indices 1 2 3 4 5 6 
#
# 1 0.012558 -0.006386 -0.000665 0.000000 0.000000 0.000000
# 2 -0.006386 0.012558 -0.000665 0.000000 0.000000 0.000000
# 3 -0.000665 -0.000665 0.082277 0.000000 0.000000 0.000000
# 4 0.000000 0.000000 0.000000 0.026551 0.000000 0.000000
# 5 0.000000 0.000000 0.000000 0.000000 0.026551 0.000000
# 6 0.000000 0.000000 0.000000 0.000000 0.000000 0.043030
#
#
# Mechanical properties :
#
#
# Convention : Reuss Voigt Hill
#
# Bulk Modulus (GPa) = 10.87426 38.00565 24.43996
# Shear Modulus (GPa) = 20.03125 31.03941 25.53533
#
# Velocity S-wave (km/s) = 2.94819 3.66994 3.32868
# Velocity P-wave (km/s) = 4.03827 5.86933 5.03769
#
# Compressibility (1/GPa) = 0.09196024
#
# Stress axis : x y z
#
# Youngs Moduli (GPa) = 79.63167 79.63167 12.15407
#
# Poissons Ratio (x) = 0.50854 0.00808
# Poissons Ratio (y) = 0.50854 0.00808
# Poissons Ratio (z) = 0.05296 0.05296
#
# Static dielectric constant tensor:
#      x y z
#    x 1.859620 0.000000 0.000000 
#    y 0.000000 1.859620 0.000000 
#    z 0.000000 0.000000 2.069820 
# 
# From -- ./inp_files/825.got.cif
#   From: 2010.05.17/outbox.cif.g08.bks.cpg/sg112_1_cif.got.tgz:825.got - 2010.05.20 10:59:04.
