data_PCOD9555317
_publ_section_title
;
Structure prediction by ZEFSAII (Michael W. Deem and Ramdas Pophale) SiO2 
 PCOD9555317
Probable space group: P -4 2 C
;
_chemical_formula_sum "Si O2"
_cell_formula_units_Z 32
_cell_length_a 7.902819
_cell_length_b 7.902819
_cell_length_c 20.995100
_cell_angle_alpha 90.000000
_cell_angle_beta 90.000000
_cell_angle_gamma 90.000000
_cell_volume 1311.239484
_symmetry_space_group_name_H-M "P -4 2 C"
_symmetry_group_IT_number 112
_symmetry_cell_setting 'tetragonal'
loop_
_space_group_symop_operation_xyz
x,y,z
y,-x,-z
-x,-y,z
-y,x,-z
x,-y,1/2-z
-x,y,1/2-z
-y,-x,1/2+z
y,x,1/2+z
loop_
_atom_site_type_symbol
_atom_site_label
_atom_site_fract_x
_atom_site_fract_y
_atom_site_fract_z
Si Si1 0.181791 0.247965 0.781081
Si Si2 0.793221 0.863463 0.918093
Si Si3 0.318064 0.584693 0.831432
Si Si4 0.738943 0.149608 0.449307
O O1 0.238922 0.139796 0.842524
O O2 0.189127 0.437167 0.810344
O O3 0.303138 0.265276 0.720068
O O4 0.000000 0.203767 0.750000
O O5 0.953257 0.736399 0.927618
O O6 0.824802 0.058078 0.939001
O O7 0.677501 0.814687 0.978619
O O8 0.500000 0.500000 0.829414
O O9 0.267892 0.647195 0.899993
#
# Coordination Sequence:
#
# PCOD9555317 Si02
#       4
#     8   8   8   8
#     4  11  21  38  65  95 123 177 230 270 315 404
#     4   9  19  38  66  98 129 158 224 278 332 385
#     4  11  23  40  60  90 135 176 216 270 330 398
#     4   9  19  39  64  96 132 165 206 289 334 389
#
# _framework density 24.404391
#
# number of rings (size 3 to 8) (size 9 to 14) (size 15 to 20)
#    0.000    2.000    2.500    4.500    0.000    1.000 
#    4.500    2.500    0.000    6.000    0.000    0.000 
#    0.000    0.000    0.000    0.000    0.000    0.000 
#
# Total GULP energy -178333.367661 kJ/mol
# GULP energy per Si atom -5572.917739 kJ/mol
# Density = 2.434885 g / cm^3
# Si number density = 24.404391 Si / 1000 Ang^3
#
#
#
# Elastic Constant Matrix: (Units=GPa)
#
#
# Indices 1 2 3 4 5 6 
#
# 1 40.5129 22.3389 30.8110 0.0000 0.0000 0.0000
# 2 22.3389 40.5129 30.8110 0.0000 0.0000 0.0000
# 3 30.8110 30.8110 197.0083 0.0000 0.0000 0.0000
# 4 0.0000 0.0000 0.0000 26.3976 0.0000 0.0000
# 5 0.0000 0.0000 0.0000 0.0000 26.3976 0.0000
# 6 0.0000 0.0000 0.0000 0.0000 0.0000 1.8225
#
#
#
# Elastic Compliance Matrix: (Units=1/GPa)
#
#
# Indices 1 2 3 4 5 6 
#
# 1 0.036908 -0.018116 -0.002939 0.000000 0.000000 0.000000
# 2 -0.018116 0.036908 -0.002939 0.000000 0.000000 0.000000
# 3 -0.002939 -0.002939 0.005995 0.000000 0.000000 0.000000
# 4 0.000000 0.000000 0.000000 0.037882 0.000000 0.000000
# 5 0.000000 0.000000 0.000000 0.000000 0.037882 0.000000
# 6 0.000000 0.000000 0.000000 0.000000 0.000000 0.548707
#
#
# Mechanical properties :
#
#
# Convention : Reuss Voigt Hill
#
# Bulk Modulus (GPa) = 31.42364 49.55066 40.48715
# Shear Modulus (GPa) = 6.55413 23.86175 15.20794
#
# Velocity S-wave (km/s) = 1.64057 3.13031 2.49903
# Velocity P-wave (km/s) = 4.06113 5.78042 4.99530
#
# Compressibility (1/GPa) = 0.03182318
#
# Stress axis : x y z
#
# Youngs Moduli (GPa) = 27.09460 27.09460 166.80009
#
# Poissons Ratio (x) = 0.49084 0.49022
# Poissons Ratio (y) = 0.49084 0.49022
# Poissons Ratio (z) = 0.07963 0.07963
#
# Static dielectric constant tensor:
#      x y z
#    x 2.008260 0.000000 0.000000 
#    y 0.000000 2.008260 0.000000 
#    z 0.000000 0.000000 2.048940 
# 
# From -- ./inp_files/4538.got.cif
#   From: 2010.05.17/outbox.cif.g08.bks.cpg/sg112_3_cif.got.tgz:4538.got - 2010.05.20 10:59:04.
