data_PCOD9555221
_publ_section_title
;
Structure prediction by ZEFSAII (Michael W. Deem and Ramdas Pophale) SiO2 
 PCOD9555221
Probable space group: P -4 2 C
;
_chemical_formula_sum "Si O2"
_cell_formula_units_Z 40
_cell_length_a 14.250743
_cell_length_b 14.250743
_cell_length_c 8.995881
_cell_angle_alpha 90.000000
_cell_angle_beta 90.000000
_cell_angle_gamma 90.000000
_cell_volume 1826.916583
_symmetry_space_group_name_H-M "P -4 2 C"
_symmetry_group_IT_number 112
_symmetry_cell_setting 'tetragonal'
loop_
_space_group_symop_operation_xyz
x,y,z
y,-x,-z
-x,-y,z
-y,x,-z
x,-y,1/2-z
-x,y,1/2-z
-y,-x,1/2+z
y,x,1/2+z
loop_
_atom_site_type_symbol
_atom_site_label
_atom_site_fract_x
_atom_site_fract_y
_atom_site_fract_z
Si Si1 0.822878 0.318428 0.101010
Si Si2 0.805939 0.500000 0.250000
Si Si3 0.370437 0.500000 0.750000
Si Si4 0.669506 0.386783 0.467780
Si Si5 0.099568 0.821880 0.334370
Si Si6 0.766840 0.982017 0.097640
O O1 0.855185 0.420805 0.155393
O O2 0.830091 0.244525 0.239674
O O3 0.723586 0.326290 0.012983
O O4 0.902816 0.284430 0.993085
O O5 0.745789 0.434515 0.361752
O O6 0.412382 0.424819 0.629112
O O7 0.321827 0.566677 0.630152
O O8 0.138528 0.926092 0.356123
O O9 0.000000 0.823399 0.250000
O O10 0.073460 0.782765 0.497610
O O11 0.714493 0.000000 0.250000
#
# Coordination Sequence:
#
# PCOD9555221 Si02
#       6
#     8   4   4   8   8   8
#     4  11  24  45  66  94 138 183 227 272 342 403
#     4  12  24  43  67  96 134 192 230 282 331 397
#     4  12  24  41  62 100 141 174 228 282 339 392
#     4  12  24  42  65  99 139 186 227 284 334 396
#     4  10  23  42  70 102 139 171 208 275 349 420
#     4  11  23  42  71 105 131 170 217 281 341 418
#
# _framework density 21.894815999999999
#
# number of rings (size 3 to 8) (size 9 to 14) (size 15 to 20)
#    0.000    0.800    4.000    3.600    0.000    5.600 
#    0.000    4.500    0.000    3.600    0.000    0.000 
#    0.000    0.000    0.000    0.000    0.000    0.000 
#
# Total GULP energy -222910.515967 kJ/mol
# GULP energy per Si atom -5572.762899 kJ/mol
# Density = 2.184498 g / cm^3
# Si number density = 21.894816 Si / 1000 Ang^3
#
#
#
# Elastic Constant Matrix: (Units=GPa)
#
#
# Indices 1 2 3 4 5 6 
#
# 1 59.8628 38.0188 41.4708 0.0000 0.0000 0.0000
# 2 38.0188 59.8628 41.4708 0.0000 0.0000 0.0000
# 3 41.4708 41.4708 154.2327 0.0000 0.0000 0.0000
# 4 0.0000 0.0000 0.0000 28.1854 0.0000 0.0000
# 5 0.0000 0.0000 0.0000 0.0000 28.1854 0.0000
# 6 0.0000 0.0000 0.0000 0.0000 0.0000 29.3993
#
#
#
# Elastic Compliance Matrix: (Units=1/GPa)
#
#
# Indices 1 2 3 4 5 6 
#
# 1 0.029505 -0.016274 -0.003558 0.000000 0.000000 0.000000
# 2 -0.016274 0.029505 -0.003558 0.000000 0.000000 0.000000
# 3 -0.003558 -0.003558 0.008397 0.000000 0.000000 0.000000
# 4 0.000000 0.000000 0.000000 0.035479 0.000000 0.000000
# 5 0.000000 0.000000 0.000000 0.000000 0.035479 0.000000
# 6 0.000000 0.000000 0.000000 0.000000 0.000000 0.034014
#
#
# Mechanical properties :
#
#
# Convention : Reuss Voigt Hill
#
# Bulk Modulus (GPa) = 48.47673 57.31992 52.89833
# Shear Modulus (GPa) = 22.12046 27.35387 24.73717
#
# Velocity S-wave (km/s) = 3.18198 3.53842 3.36492
# Velocity P-wave (km/s) = 5.97401 6.55213 6.26974
#
# Compressibility (1/GPa) = 0.02062845
#
# Stress axis : x y z
#
# Youngs Moduli (GPa) = 33.89246 33.89246 119.09170
#
# Poissons Ratio (x) = 0.55157 0.42368
# Poissons Ratio (y) = 0.55157 0.42368
# Poissons Ratio (z) = 0.12058 0.12058
#
# Static dielectric constant tensor:
#      x y z
#    x 1.827130 0.000000 0.000000 
#    y 0.000000 1.827130 0.000000 
#    z 0.000000 0.000000 1.578800 
# 
# From -- ./inp_files/1302.got.cif
#   From: 2010.05.17/outbox.cif.g08.bks.cpg/sg112_1_cif.got.tgz:1302.got - 2010.05.20 10:59:04.
