data_PCOD9555625
_publ_section_title
;
Structure prediction by ZEFSAII (Michael W. Deem and Ramdas Pophale) SiO2 
 PCOD9555625
Probable space group: P -4 21 M 
;
_chemical_formula_sum "Si O2"
_cell_formula_units_Z 56
_cell_length_a 14.102653
_cell_length_b 14.102653
_cell_length_c 16.017550
_cell_angle_alpha 90.000000
_cell_angle_beta 90.000000
_cell_angle_gamma 90.000000
_cell_volume 3185.647575
_symmetry_space_group_name_H-M "P -4 21 M "
_symmetry_group_IT_number 113
_symmetry_cell_setting 'tetragonal'
loop_
_space_group_symop_operation_xyz
x,y,z
y,-x,-z
-x,-y,z
-y,x,-z
1/2+x,1/2-y,-z
1/2-x,1/2+y,-z
1/2-y,1/2-x,z
1/2+y,1/2+x,z
loop_
_atom_site_type_symbol
_atom_site_label
_atom_site_fract_x
_atom_site_fract_y
_atom_site_fract_z
Si Si1 0.598429 0.625819 0.991487
Si Si2 0.311798 0.964408 0.244283
Si Si3 0.611244 0.528201 0.277930
Si Si4 0.190117 0.156010 0.806752
Si Si5 0.138008 0.786400 0.834195
Si Si6 0.498023 0.157425 0.437795
Si Si7 0.646001 0.516161 0.468920
O O1 0.635464 0.663543 0.903086
O O2 0.627518 0.516048 0.004166
O O3 0.636261 0.685545 0.069126
O O4 0.410874 0.910874 0.226971
O O5 0.229819 0.886739 0.229968
O O6 0.313442 0.997681 0.340331
O O7 0.285380 0.052487 0.186649
O O8 0.500000 0.500000 0.276088
O O9 0.673960 0.441911 0.242096
O O10 0.622138 0.619778 0.220171
O O11 0.640707 0.547220 0.372999
O O12 0.291529 0.208472 0.800037
O O13 0.235163 0.735163 0.811601
O O14 0.586047 0.086047 0.451691
O O15 0.506467 0.249578 0.494672
O O16 0.402864 0.097137 0.452847
O O17 0.590666 0.416239 0.477823
#
# Coordination Sequence:
#
# PCOD9555625 Si02
#       7
#     8   8   8   8   8   8   8
#     4  11  20  38  62  87 118 155 191 242 293 344
#     4  10  20  36  59  88 121 153 191 243 298 349
#     4  12  21  40  62  85 124 155 198 245 291 344
#     4  11  22  37  62  90 116 153 198 240 290 351
#     4  12  24  37  61  93 120 155 198 243 294 348
#     4  10  22  40  60  84 118 158 199 242 290 349
#     4  11  22  37  59  86 120 157 194 243 296 345
#
# _framework density 17.578842999999999
#
# number of rings (size 3 to 8) (size 9 to 14) (size 15 to 20)
#    0.000    1.000    5.714    2.571    0.000    2.571 
#    0.000    0.000    0.000    0.429    0.000    0.000 
#    0.000    0.000    0.000    0.000    0.000    0.000 
#
# Total GULP energy -312888.253409 kJ/mol
# GULP energy per Si atom -5587.290239 kJ/mol
# Density = 1.753883 g / cm^3
# Si number density = 17.578843 Si / 1000 Ang^3
#
#
#
# Elastic Constant Matrix: (Units=GPa)
#
#
# Indices 1 2 3 4 5 6 
#
# 1 56.8398 17.9948 7.4936 0.0000 0.0000 0.0000
# 2 17.9948 56.8385 7.4929 0.0000 0.0000 0.0000
# 3 7.4936 7.4929 50.1863 0.0000 0.0000 0.0000
# 4 0.0000 0.0000 0.0000 22.0932 0.0000 0.0000
# 5 0.0000 0.0000 0.0000 0.0000 22.0932 0.0000
# 6 0.0000 0.0000 0.0000 0.0000 0.0000 24.3030
#
#
#
# Elastic Compliance Matrix: (Units=1/GPa)
#
#
# Indices 1 2 3 4 5 6 
#
# 1 0.019759 -0.005984 -0.002057 0.000000 0.000000 0.000000
# 2 -0.005984 0.019759 -0.002057 0.000000 0.000000 0.000000
# 3 -0.002057 -0.002057 0.020540 0.000000 0.000000 0.000000
# 4 0.000000 0.000000 0.000000 0.045263 0.000000 0.000000
# 5 0.000000 0.000000 0.000000 0.000000 0.045263 0.000000
# 6 0.000000 0.000000 0.000000 0.000000 0.000000 0.041147
#
#
# Mechanical properties :
#
#
# Convention : Reuss Voigt Hill
#
# Bulk Modulus (GPa) = 25.08609 25.53636 25.31122
# Shear Modulus (GPa) = 22.20103 22.42341 22.31222
#
# Velocity S-wave (km/s) = 3.55764 3.57542 3.56654
# Velocity P-wave (km/s) = 5.58367 5.62166 5.60270
#
# Compressibility (1/GPa) = 0.03986273
#
# Stress axis : x y z
#
# Youngs Moduli (GPa) = 50.60960 50.60863 48.68565
#
# Poissons Ratio (x) = 0.30287 0.10014
# Poissons Ratio (y) = 0.30287 0.10012
# Poissons Ratio (z) = 0.10410 0.10408
#
# Static dielectric constant tensor:
#      x y z
#    x 1.591270 0.000000 0.000000 
#    y 0.000000 1.591270 0.000000 
#    z 0.000000 0.000000 1.573520 
# 
# From -- ./inp_files/2299.got.cif
#   From: 2010.05.17/outbox.cif.g08.bks.cpg/sg113_cif.got.tgz:2299.got - 2010.05.20 11:03:00.
