data_PCOD9555731
_publ_section_title
;
Structure prediction by ZEFSAII (Michael W. Deem and Ramdas Pophale) SiO2 
 PCOD9555731
Probable space group: P -4 21 M 
;
_chemical_formula_sum "Si O2"
_cell_formula_units_Z 32
_cell_length_a 16.420647
_cell_length_b 16.420647
_cell_length_c 5.222091
_cell_angle_alpha 90.000000
_cell_angle_beta 90.000000
_cell_angle_gamma 90.000000
_cell_volume 1408.072334
_symmetry_space_group_name_H-M "P -4 21 M "
_symmetry_group_IT_number 113
_symmetry_cell_setting 'tetragonal'
loop_
_space_group_symop_operation_xyz
x,y,z
y,-x,-z
-x,-y,z
-y,x,-z
1/2+x,1/2-y,-z
1/2-x,1/2+y,-z
1/2-y,1/2-x,z
1/2+y,1/2+x,z
loop_
_atom_site_type_symbol
_atom_site_label
_atom_site_fract_x
_atom_site_fract_y
_atom_site_fract_z
Si Si1 0.784131 0.960493 0.967383
Si Si2 0.945258 0.313065 0.546170
Si Si3 0.088224 0.916453 0.394874
Si Si4 0.239452 0.390802 0.727196
O O1 0.747073 0.919053 0.221069
O O2 0.770265 0.056509 0.028048
O O3 0.729036 0.933940 0.726834
O O4 0.874215 0.942348 0.865272
O O5 0.042448 0.318358 0.590670
O O6 0.986017 0.099402 0.590710
O O7 0.178210 0.880976 0.436508
O O8 0.104043 0.604043 0.563209
O O9 0.190700 0.309301 0.780348
#
# Coordination Sequence:
#
# PCOD9555731 Si02
#       4
#     8   8   8   8
#     4  10  23  45  70 110 146 201 255 320 389 464
#     4  10  22  45  74 109 152 201 260 317 392 472
#     4  11  23  46  75 107 150 205 262 317 389 474
#     4  10  25  46  73 114 157 201 262 332 402 465
#
# _framework density 22.726105
#
# number of rings (size 3 to 8) (size 9 to 14) (size 15 to 20)
#    1.500    0.250    2.500    0.750    0.000    9.500 
#    0.000    0.000    0.000    0.000    0.000    0.000 
#    0.000    0.000    0.000    0.000    0.000    0.000 
#
# Total GULP energy -178271.087012 kJ/mol
# GULP energy per Si atom -5570.971469 kJ/mol
# Density = 2.267438 g / cm^3
# Si number density = 22.726105 Si / 1000 Ang^3
#
#
#
# Elastic Constant Matrix: (Units=GPa)
#
#
# Indices 1 2 3 4 5 6 
#
# 1 119.4872 101.4927 29.7699 0.0000 0.0000 0.0000
# 2 101.4927 119.4895 29.7708 0.0000 0.0000 0.0000
# 3 29.7699 29.7708 107.1191 0.0000 0.0000 0.0000
# 4 0.0000 0.0000 0.0000 25.4753 0.0000 0.0000
# 5 0.0000 0.0000 0.0000 0.0000 25.4757 0.0000
# 6 0.0000 0.0000 0.0000 0.0000 0.0000 55.4854
#
#
#
# Elastic Compliance Matrix: (Units=1/GPa)
#
#
# Indices 1 2 3 4 5 6 
#
# 1 0.030230 -0.025339 -0.001359 0.000000 0.000000 0.000000
# 2 -0.025339 0.030230 -0.001360 0.000000 0.000000 0.000000
# 3 -0.001359 -0.001360 0.010091 0.000000 0.000000 0.000000
# 4 0.000000 0.000000 0.000000 0.039254 0.000000 0.000000
# 5 0.000000 0.000000 0.000000 0.000000 0.039253 0.000000
# 6 0.000000 0.000000 0.000000 0.000000 0.000000 0.018023
#
#
# Mechanical properties :
#
#
# Convention : Reuss Voigt Hill
#
# Bulk Modulus (GPa) = 69.26961 74.24029 71.75495
# Shear Modulus (GPa) = 21.92902 33.62477 27.77689
#
# Velocity S-wave (km/s) = 3.10970 3.85069 3.49986
# Velocity P-wave (km/s) = 6.59090 7.24629 6.92635
#
# Compressibility (1/GPa) = 0.01443635
#
# Stress axis : x y z
#
# Youngs Moduli (GPa) = 33.07918 33.07973 99.09787
#
# Poissons Ratio (x) = 0.83820 0.13470
# Poissons Ratio (y) = 0.83818 0.13473
# Poissons Ratio (z) = 0.04496 0.04498
#
# Static dielectric constant tensor:
#      x y z
#    x 1.860760 0.000000 0.000000 
#    y 0.000000 1.860760 0.000000 
#    z 0.000000 0.000000 1.895640 
# 
# From -- ./inp_files/284.got.cif
#   From: 2010.05.17/outbox.cif.g08.bks.cpg/sg113_cif.got.tgz:284.got - 2010.05.20 11:03:00.
