data_PCOD9555605
_publ_section_title
;
Structure prediction by ZEFSAII (Michael W. Deem and Ramdas Pophale) SiO2 
 PCOD9555605
Probable space group: P -4 21 M 
;
_chemical_formula_sum "Si O2"
_cell_formula_units_Z 56
_cell_length_a 11.268151
_cell_length_b 11.268151
_cell_length_c 22.590359
_cell_angle_alpha 90.000000
_cell_angle_beta 90.000000
_cell_angle_gamma 90.000000
_cell_volume 2868.325600
_symmetry_space_group_name_H-M "P -4 21 M "
_symmetry_group_IT_number 113
_symmetry_cell_setting 'tetragonal'
loop_
_space_group_symop_operation_xyz
x,y,z
y,-x,-z
-x,-y,z
-y,x,-z
1/2+x,1/2-y,-z
1/2-x,1/2+y,-z
1/2-y,1/2-x,z
1/2+y,1/2+x,z
loop_
_atom_site_type_symbol
_atom_site_label
_atom_site_fract_x
_atom_site_fract_y
_atom_site_fract_z
Si Si1 0.944873 0.259831 0.572291
Si Si2 0.716405 0.594608 0.366310
Si Si3 0.197095 0.495247 0.240250
Si Si4 0.374474 0.324477 0.859319
Si Si5 0.008078 0.690198 0.892540
Si Si6 0.308900 0.523163 0.012462
Si Si7 0.686048 0.366886 0.442740
O O1 0.893644 0.393644 0.571656
O O2 0.885583 0.193371 0.627886
O O3 0.891821 0.199358 0.512511
O O4 0.081514 0.226009 0.569396
O O5 0.836315 0.663686 0.387479
O O6 0.744515 0.545297 0.301674
O O7 0.673681 0.488292 0.407811
O O8 0.105378 0.605378 0.250064
O O9 0.296787 0.536231 0.193808
O O10 0.113642 0.386359 0.218668
O O11 0.265541 0.234459 0.850319
O O12 0.314196 0.454723 0.867092
O O13 0.435383 0.286542 0.921109
O O14 0.134363 0.634363 0.873221
O O15 0.909609 0.590392 0.879184
O O16 0.011875 0.707576 0.963686
O O17 0.399473 0.621056 0.986343
O O18 0.808407 0.308407 0.422237
#
# Coordination Sequence:
#
# PCOD9555605 Si02
#       7
#     8   8   8   8   8   8   8
#     4  10  21  35  54  82 115 148 185 228 276 334
#     4  10  20  35  57  84 112 145 186 230 281 340
#     4   9  18  33  53  79 110 140 175 224 275 325
#     4   9  17  30  50  76 105 137 175 218 266 319
#     4   9  17  29  47  72 102 136 174 215 264 325
#     4   9  17  29  47  71 101 135 170 214 268 323
#     4  11  21  34  56  83 113 150 185 228 282 330
#
# _framework density 19.523585000000001
#
# number of rings (size 3 to 8) (size 9 to 14) (size 15 to 20)
#    0.000    2.429    1.429    1.286    0.000    2.286 
#    0.000    2.857   12.571    0.857    0.000    2.000 
#    0.000    0.000    0.000    0.000    0.000    0.000 
#
# Total GULP energy -311872.139691 kJ/mol
# GULP energy per Si atom -5569.145352 kJ/mol
# Density = 1.947915 g / cm^3
# Si number density = 19.523585 Si / 1000 Ang^3
#
#
#
# Elastic Constant Matrix: (Units=GPa)
#
#
# Indices 1 2 3 4 5 6 
#
# 1 62.6049 8.1084 32.5086 0.0000 0.0000 0.0000
# 2 8.1084 62.5934 32.5178 0.0000 0.0000 0.0000
# 3 32.5086 32.5178 66.1945 0.0000 0.0000 0.0000
# 4 0.0000 0.0000 0.0000 23.5672 0.0000 0.0000
# 5 0.0000 0.0000 0.0000 0.0000 23.5674 0.0000
# 6 0.0000 0.0000 0.0000 0.0000 0.0000 12.3827
#
#
#
# Elastic Compliance Matrix: (Units=1/GPa)
#
#
# Indices 1 2 3 4 5 6 
#
# 1 0.022068 0.003721 -0.012666 0.000000 0.000000 0.000000
# 2 0.003721 0.022078 -0.012673 0.000000 0.000000 0.000000
# 3 -0.012666 -0.012673 0.027553 0.000000 0.000000 0.000000
# 4 0.000000 0.000000 0.000000 0.042432 0.000000 0.000000
# 5 0.000000 0.000000 0.000000 0.000000 0.042432 0.000000
# 6 0.000000 0.000000 0.000000 0.000000 0.000000 0.080758
#
#
# Mechanical properties :
#
#
# Convention : Reuss Voigt Hill
#
# Bulk Modulus (GPa) = 35.13286 37.51805 36.32546
# Shear Modulus (GPa) = 17.23876 19.78731 18.51304
#
# Velocity S-wave (km/s) = 2.97471 3.18702 3.08269
# Velocity P-wave (km/s) = 5.46193 5.72724 5.59616
#
# Compressibility (1/GPa) = 0.02846338
#
# Stress axis : x y z
#
# Youngs Moduli (GPa) = 45.31405 45.29419 36.29372
#
# Poissons Ratio (x) = -0.16855 0.45969
# Poissons Ratio (y) = -0.16863 0.45996
# Poissons Ratio (z) = 0.57394 0.57402
#
# Static dielectric constant tensor:
#      x y z
#    x 1.715870 0.000000 0.000000 
#    y 0.000000 1.715870 0.000000 
#    z 0.000000 0.000000 1.655540 
# 
# From -- ./inp_files/2736.got.cif
#   From: 2010.05.17/outbox.cif.g08.bks.cpg/sg113_cif.got.tgz:2736.got - 2010.05.20 11:03:00.
