data_PCOD9555293
_publ_section_title
;
Structure prediction by ZEFSAII (Michael W. Deem and Ramdas Pophale) SiO2 
 PCOD9555293
Probable space group: P -4 2 C
;
_chemical_formula_sum "Si O2"
_cell_formula_units_Z 20
_cell_length_a 4.970124
_cell_length_b 4.970124
_cell_length_c 32.394813
_cell_angle_alpha 90.000000
_cell_angle_beta 90.000000
_cell_angle_gamma 90.000000
_cell_volume 800.220965
_symmetry_space_group_name_H-M "P -4 2 C"
_symmetry_group_IT_number 112
_symmetry_cell_setting 'tetragonal'
loop_
_space_group_symop_operation_xyz
x,y,z
y,-x,-z
-x,-y,z
-y,x,-z
x,-y,1/2-z
-x,y,1/2-z
-y,-x,1/2+z
y,x,1/2+z
loop_
_atom_site_type_symbol
_atom_site_label
_atom_site_fract_x
_atom_site_fract_y
_atom_site_fract_z
Si Si1 0.500000 0.500000 0.750000
Si Si2 0.000000 0.000000 0.641965
Si Si3 0.000000 0.000000 0.000000
Si Si4 0.243410 0.314286 0.066611
Si Si5 0.000000 0.500000 0.694986
O O1 0.264821 0.381609 0.719421
O O2 0.110848 0.756360 0.669729
O O3 0.802824 0.841512 0.610898
O O4 0.231844 0.086718 0.031917
O O5 0.500000 0.500000 0.069265
O O6 0.000000 0.500000 0.053147
#
# Coordination Sequence:
#
# PCOD9555293 Si02
#       5
#     2   4   2   8   4
#     4  10  28  48  76 116 152 202 248 312 396 460
#     4  11  26  46  76 113 148 204 256 321 382 464
#     4  10  28  44  68 114 152 202 272 322 392 468
#     4  11  26  46  75 108 151 206 259 325 390 459
#     4  11  26  48  78 112 156 196 254 316 382 474
#
# _framework density 24.993099999999998
#
# number of rings (size 3 to 8) (size 9 to 14) (size 15 to 20)
#    0.000    1.200    0.000    2.400   14.000    8.000 
#    0.000    0.000    0.000    0.000    0.000    0.000 
#    0.000    0.000    0.000    0.000    0.000    0.000 
#
# Total GULP energy -111509.383527 kJ/mol
# GULP energy per Si atom -5575.469176 kJ/mol
# Density = 2.493621 g / cm^3
# Si number density = 24.993100 Si / 1000 Ang^3
#
#
#
# Elastic Constant Matrix: (Units=GPa)
#
#
# Indices 1 2 3 4 5 6 
#
# 1 170.5860 49.6891 48.2698 0.0000 0.0000 0.0000
# 2 49.6891 170.5860 48.2698 0.0000 0.0000 0.0000
# 3 48.2698 48.2698 115.5841 0.0000 0.0000 0.0000
# 4 0.0000 0.0000 0.0000 27.4067 0.0000 0.0000
# 5 0.0000 0.0000 0.0000 0.0000 27.4067 0.0000
# 6 0.0000 0.0000 0.0000 0.0000 0.0000 55.0288
#
#
#
# Elastic Compliance Matrix: (Units=1/GPa)
#
#
# Indices 1 2 3 4 5 6 
#
# 1 0.006914 -0.001357 -0.002321 0.000000 0.000000 0.000000
# 2 -0.001357 0.006914 -0.002321 0.000000 0.000000 0.000000
# 3 -0.002321 -0.002321 0.010590 0.000000 0.000000 0.000000
# 4 0.000000 0.000000 0.000000 0.036487 0.000000 0.000000
# 5 0.000000 0.000000 0.000000 0.000000 0.036487 0.000000
# 6 0.000000 0.000000 0.000000 0.000000 0.000000 0.018172
#
#
# Mechanical properties :
#
#
# Convention : Reuss Voigt Hill
#
# Bulk Modulus (GPa) = 80.50792 83.24595 81.87693
# Shear Modulus (GPa) = 37.96419 42.67027 40.31723
#
# Velocity S-wave (km/s) = 3.90165 4.13641 4.02074
# Velocity P-wave (km/s) = 7.25115 7.49620 7.37469
#
# Compressibility (1/GPa) = 0.01242114
#
# Stress axis : x y z
#
# Youngs Moduli (GPa) = 144.63052 144.63052 94.42899
#
# Poissons Ratio (x) = 0.19631 0.21913
# Poissons Ratio (y) = 0.19631 0.21913
# Poissons Ratio (z) = 0.33563 0.33563
#
# Static dielectric constant tensor:
#      x y z
#    x 1.972190 0.000000 0.000000 
#    y 0.000000 1.972190 0.000000 
#    z 0.000000 0.000000 2.076700 
# 
# From -- ./inp_files/6038.got.cif
#   From: 2010.05.17/outbox.cif.g08.bks.cpg/sg112_4_cif.got.tgz:6038.got - 2010.05.20 10:59:04.
