data_PCOD9555240
_publ_section_title
;
Structure prediction by ZEFSAII (Michael W. Deem and Ramdas Pophale) SiO2 
 PCOD9555240
Probable space group: P -4 2 C
;
_chemical_formula_sum "Si O2"
_cell_formula_units_Z 24
_cell_length_a 11.590324
_cell_length_b 11.590324
_cell_length_c 7.956829
_cell_angle_alpha 90.000000
_cell_angle_beta 90.000000
_cell_angle_gamma 90.000000
_cell_volume 1068.885481
_symmetry_space_group_name_H-M "P -4 2 C"
_symmetry_group_IT_number 112
_symmetry_cell_setting 'tetragonal'
loop_
_space_group_symop_operation_xyz
x,y,z
y,-x,-z
-x,-y,z
-y,x,-z
x,-y,1/2-z
-x,y,1/2-z
-y,-x,1/2+z
y,x,1/2+z
loop_
_atom_site_type_symbol
_atom_site_label
_atom_site_fract_x
_atom_site_fract_y
_atom_site_fract_z
Si Si1 0.804978 0.425756 0.474860
Si Si2 0.000000 0.500000 0.250000
Si Si3 0.212981 0.662270 0.855801
Si Si4 0.000000 0.188669 0.750000
Si Si5 0.000000 0.000000 0.500000
O O1 0.799265 0.385973 0.667048
O O2 0.785714 0.562975 0.501453
O O3 0.723213 0.336532 0.378095
O O4 0.923628 0.422150 0.373594
O O5 0.097642 0.740725 0.850959
O O6 0.946355 0.100749 0.614285
#
# Coordination Sequence:
#
# PCOD9555240 Si02
#       5
#     8   2   8   4   2
#     4  11  25  43  69 100 137 185 241 301 369 438
#     4  12  24  42  68 100 136 190 244 304 368 438
#     4  11  24  44  68 100 139 185 240 305 367 444
#     4  11  22  41  64  98 140 181 236 293 362 436
#     4  10  24  38  64  98 136 190 232 290 364 438
#
# _framework density 22.453294
#
# number of rings (size 3 to 8) (size 9 to 14) (size 15 to 20)
#    0.000    1.000    0.000    6.000    0.000    8.667 
#    0.000    3.333    0.000    0.000    0.000    0.000 
#    0.000    0.000    0.000    0.000    0.000    0.000 
#
# Total GULP energy -133712.637907 kJ/mol
# GULP energy per Si atom -5571.359913 kJ/mol
# Density = 2.240219 g / cm^3
# Si number density = 22.453294 Si / 1000 Ang^3
#
#
#
# Elastic Constant Matrix: (Units=GPa)
#
#
# Indices 1 2 3 4 5 6 
#
# 1 134.1968 76.6176 55.3866 0.0000 0.0000 0.0000
# 2 76.6176 134.1968 55.3866 0.0000 0.0000 0.0000
# 3 55.3866 55.3866 114.2860 0.0000 0.0000 0.0000
# 4 0.0000 0.0000 0.0000 66.8813 0.0000 0.0000
# 5 0.0000 0.0000 0.0000 0.0000 66.8813 0.0000
# 6 0.0000 0.0000 0.0000 0.0000 0.0000 22.6395
#
#
#
# Elastic Compliance Matrix: (Units=1/GPa)
#
#
# Indices 1 2 3 4 5 6 
#
# 1 0.011866 -0.005502 -0.003084 0.000000 0.000000 0.000000
# 2 -0.005502 0.011866 -0.003084 0.000000 0.000000 0.000000
# 3 -0.003084 -0.003084 0.011739 0.000000 0.000000 0.000000
# 4 0.000000 0.000000 0.000000 0.014952 0.000000 0.000000
# 5 0.000000 0.000000 0.000000 0.000000 0.014952 0.000000
# 6 0.000000 0.000000 0.000000 0.000000 0.000000 0.044171
#
#
# Mechanical properties :
#
#
# Convention : Reuss Voigt Hill
#
# Bulk Modulus (GPa) = 82.43568 84.16237 83.29902
# Shear Modulus (GPa) = 36.51523 44.29969 40.40746
#
# Velocity S-wave (km/s) = 4.03709 4.44663 4.24680
# Velocity P-wave (km/s) = 7.65015 7.99550 7.82473
#
# Compressibility (1/GPa) = 0.01213067
#
# Stress axis : x y z
#
# Youngs Moduli (GPa) = 84.27612 84.27612 85.18296
#
# Poissons Ratio (x) = 0.46365 0.26273
# Poissons Ratio (y) = 0.46365 0.26273
# Poissons Ratio (z) = 0.25993 0.25993
#
# Static dielectric constant tensor:
#      x y z
#    x 1.831480 0.000000 0.000000 
#    y 0.000000 1.831480 0.000000 
#    z 0.000000 0.000000 1.856190 
# 
# From -- ./inp_files/896.got.cif
#   From: 2010.05.17/outbox.cif.g08.bks.cpg/sg112_1_cif.got.tgz:896.got - 2010.05.20 10:59:04.
