data_PCOD9555648
_publ_section_title
;
Structure prediction by ZEFSAII (Michael W. Deem and Ramdas Pophale) SiO2 
 PCOD9555648
Probable space group: P -4 21 M 
;
_chemical_formula_sum "Si O2"
_cell_formula_units_Z 34
_cell_length_a 11.127330
_cell_length_b 11.127330
_cell_length_c 13.621959
_cell_angle_alpha 90.000000
_cell_angle_beta 90.000000
_cell_angle_gamma 90.000000
_cell_volume 1686.636540
_symmetry_space_group_name_H-M "P -4 21 M "
_symmetry_group_IT_number 113
_symmetry_cell_setting 'tetragonal'
loop_
_space_group_symop_operation_xyz
x,y,z
y,-x,-z
-x,-y,z
-y,x,-z
1/2+x,1/2-y,-z
1/2-x,1/2+y,-z
1/2-y,1/2-x,z
1/2+y,1/2+x,z
loop_
_atom_site_type_symbol
_atom_site_label
_atom_site_fract_x
_atom_site_fract_y
_atom_site_fract_z
Si Si1 0.344454 0.344454 0.850363
Si Si2 0.257674 0.051863 0.284930
Si Si3 0.500000 0.500000 0.000000
Si Si4 0.702597 0.500001 0.500000
Si Si5 0.742328 0.051865 0.715069
O O1 0.250002 0.249999 0.893027
O O2 0.274990 0.439440 0.781592
O O3 0.417147 0.417148 0.931815
O O4 0.439441 0.274992 0.781591
O O5 0.372870 0.127131 0.251505
O O6 0.272727 0.014932 0.398710
O O7 0.143514 0.143512 0.282339
O O8 0.615069 0.384932 0.488624
O O9 0.772726 0.514934 0.398709
O O10 0.627133 0.127133 0.748495
#
# Coordination Sequence:
#
# PCOD9555648 Si02
#       5
#     8   8   2   8   8
#     4  12  26  46  73  97 124 165 213 268 331 392
#     4  10  20  38  66  98 135 177 217 258 309 377
#     4  12  28  52  72  94 124 160 208 276 348 390
#     4   9  16  30  58  95 136 182 221 251 298 368
#     4  10  20  38  66  98 135 177 217 258 309 377
#
# _framework density 20.158462
#
# number of rings (size 3 to 8) (size 9 to 14) (size 15 to 20)
#    0.000    1.647    4.706    0.000    0.000    4.706 
#    0.000    0.000    0.000    0.000    0.000    0.000 
#    0.000    0.000    0.000    0.000    0.000    0.000 
#
# Total GULP energy -190106.154147 kJ/mol
# GULP energy per Si atom -5591.357475 kJ/mol
# Density = 2.011258 g / cm^3
# Si number density = 20.158462 Si / 1000 Ang^3
#
#
#
# Elastic Constant Matrix: (Units=GPa)
#
#
# Indices 1 2 3 4 5 6 
#
# 1 86.8918 76.8811 54.5010 0.0000 0.0000 0.0000
# 2 76.8811 86.8911 54.5006 0.0000 0.0000 0.0000
# 3 54.5010 54.5006 99.5537 0.0000 0.0000 0.0000
# 4 0.0000 0.0000 0.0000 -13.7545 0.0000 0.0000
# 5 0.0000 0.0000 0.0000 0.0000 -13.7549 0.0000
# 6 0.0000 0.0000 0.0000 0.0000 0.0000 24.5224
#
#
#
# Elastic Compliance Matrix: (Units=1/GPa)
#
#
# Indices 1 2 3 4 5 6 
#
# 1 0.054751 -0.045145 -0.005259 0.000000 0.000000 0.000000
# 2 -0.045145 0.054752 -0.005259 0.000000 0.000000 0.000000
# 3 -0.005259 -0.005259 0.015803 0.000000 0.000000 0.000000
# 4 0.000000 0.000000 0.000000 -0.072703 0.000000 0.000000
# 5 0.000000 0.000000 0.000000 0.000000 -0.072701 0.000000
# 6 0.000000 0.000000 0.000000 0.000000 0.000000 0.040779
#
#
# Mechanical properties :
#
#
# Convention : Reuss Voigt Hill
#
# Bulk Modulus (GPa) = 71.53314 71.67800 71.60557
# Shear Modulus (GPa) = 36.58553 5.23286 20.90920
#
# Velocity S-wave (km/s) = 4.26478 1.61292 3.22412
# Velocity P-wave (km/s) = 7.73393 6.25325 7.03266
#
# Compressibility (1/GPa) = 0.01397953
#
# Stress axis : x y z
#
# Youngs Moduli (GPa) = 18.26441 18.26432 63.27987
#
# Poissons Ratio (x) = 0.82455 0.33279
# Poissons Ratio (y) = 0.82455 0.33277
# Poissons Ratio (z) = 0.09605 0.09605
#
# Static dielectric constant tensor:
#      x y z
#    x 1.721520 0.000000 0.000000 
#    y 0.000000 1.721520 0.000000 
#    z 0.000000 0.000000 1.672410 
# 
# From -- ./inp_files/1646.got.cif
#   From: 2010.05.17/outbox.cif.g08.bks.cpg/sg113_cif.got.tgz:1646.got - 2010.05.20 11:03:00.
