data_PCOD9555342
_publ_section_title
;
Structure prediction by ZEFSAII (Michael W. Deem and Ramdas Pophale) SiO2 
 PCOD9555342
Probable space group: P -4 2 C
;
_chemical_formula_sum "Si O2"
_cell_formula_units_Z 26
_cell_length_a 8.016041
_cell_length_b 8.016041
_cell_length_c 16.533789
_cell_angle_alpha 90.000000
_cell_angle_beta 90.000000
_cell_angle_gamma 90.000000
_cell_volume 1062.410247
_symmetry_space_group_name_H-M "P -4 2 C"
_symmetry_group_IT_number 112
_symmetry_cell_setting 'tetragonal'
loop_
_space_group_symop_operation_xyz
x,y,z
y,-x,-z
-x,-y,z
-y,x,-z
x,-y,1/2-z
-x,y,1/2-z
-y,-x,1/2+z
y,x,1/2+z
loop_
_atom_site_type_symbol
_atom_site_label
_atom_site_fract_x
_atom_site_fract_y
_atom_site_fract_z
Si Si1 0.256206 0.074014 0.120647
Si Si2 0.064107 0.267535 0.341035
Si Si3 0.424324 0.762595 0.521277
Si Si4 0.500000 0.000000 0.250000
O O1 0.388890 0.112898 0.190756
O O2 0.103131 0.200373 0.117008
O O3 0.184095 0.895069 0.148216
O O4 0.347802 0.094424 0.035972
O O5 0.164189 0.411072 0.388159
O O6 0.000000 0.298413 0.250000
O O7 0.601677 0.696169 0.490472
#
# Coordination Sequence:
#
# PCOD9555342 Si02
#       4
#     8   8   8   2
#     4  11  22  40  71 104 143 187 250 313 379 459
#     4  11  22  44  70 109 143 186 253 319 376 463
#     4  11  26  46  70 104 150 204 255 313 395 476
#     4  12  20  38  72 106 138 190 236 310 384 434
#
# _framework density 24.472656000000001
#
# number of rings (size 3 to 8) (size 9 to 14) (size 15 to 20)
#    0.000    0.923    3.077    4.615    0.000    6.154 
#    0.000    4.615    0.000    0.000    0.000    0.000 
#    0.000    0.000    0.000    0.000    0.000    0.000 
#
# Total GULP energy -145426.099673 kJ/mol
# GULP energy per Si atom -5593.311526 kJ/mol
# Density = 2.441695 g / cm^3
# Si number density = 24.472656 Si / 1000 Ang^3
#
#
#
# Elastic Constant Matrix: (Units=GPa)
#
#
# Indices 1 2 3 4 5 6 
#
# 1 132.2342 35.3204 53.9459 0.0000 0.0000 0.0000
# 2 35.3204 132.2342 53.9459 0.0000 0.0000 0.0000
# 3 53.9459 53.9459 166.2881 0.0000 0.0000 0.0000
# 4 0.0000 0.0000 0.0000 30.8463 0.0000 0.0000
# 5 0.0000 0.0000 0.0000 0.0000 30.8463 0.0000
# 6 0.0000 0.0000 0.0000 0.0000 0.0000 44.8812
#
#
#
# Elastic Compliance Matrix: (Units=1/GPa)
#
#
# Indices 1 2 3 4 5 6 
#
# 1 0.008931 -0.001387 -0.002447 0.000000 0.000000 0.000000
# 2 -0.001387 0.008931 -0.002447 0.000000 0.000000 0.000000
# 3 -0.002447 -0.002447 0.007602 0.000000 0.000000 0.000000
# 4 0.000000 0.000000 0.000000 0.032419 0.000000 0.000000
# 5 0.000000 0.000000 0.000000 0.000000 0.032419 0.000000
# 6 0.000000 0.000000 0.000000 0.000000 0.000000 0.022281
#
#
# Mechanical properties :
#
#
# Convention : Reuss Voigt Hill
#
# Bulk Modulus (GPa) = 77.51797 79.68677 78.60237
# Shear Modulus (GPa) = 38.62590 40.48439 39.55514
#
# Velocity S-wave (km/s) = 3.97713 4.07168 4.02468
# Velocity P-wave (km/s) = 7.26871 7.39845 7.33387
#
# Compressibility (1/GPa) = 0.01290023
#
# Stress axis : x y z
#
# Youngs Moduli (GPa) = 111.96585 111.96585 131.55117
#
# Poissons Ratio (x) = 0.15531 0.32196
# Poissons Ratio (y) = 0.15531 0.32196
# Poissons Ratio (z) = 0.27403 0.27403
#
# Static dielectric constant tensor:
#      x y z
#    x 1.993800 0.000000 0.000000 
#    y 0.000000 1.993800 0.000000 
#    z 0.000000 0.000000 1.966670 
# 
# From -- ./inp_files/3806.got.cif
#   From: 2010.05.17/outbox.cif.g08.bks.cpg/sg112_2_cif.got.tgz:3806.got - 2010.05.20 10:59:04.
