data_PCOD9555580
_publ_section_title
;
Structure prediction by ZEFSAII (Michael W. Deem and Ramdas Pophale) SiO2 
 PCOD9555580
Probable space group: P -4 21 M 
;
_chemical_formula_sum "Si O2"
_cell_formula_units_Z 56
_cell_length_a 11.358809
_cell_length_b 11.358809
_cell_length_c 21.204817
_cell_angle_alpha 90.000000
_cell_angle_beta 90.000000
_cell_angle_gamma 90.000000
_cell_volume 2735.899390
_symmetry_space_group_name_H-M "P -4 21 M "
_symmetry_group_IT_number 113
_symmetry_cell_setting 'tetragonal'
loop_
_space_group_symop_operation_xyz
x,y,z
y,-x,-z
-x,-y,z
-y,x,-z
1/2+x,1/2-y,-z
1/2-x,1/2+y,-z
1/2-y,1/2-x,z
1/2+y,1/2+x,z
loop_
_atom_site_type_symbol
_atom_site_label
_atom_site_fract_x
_atom_site_fract_y
_atom_site_fract_z
Si Si1 0.668088 0.629330 0.767682
Si Si2 0.135059 0.164880 0.908950
Si Si3 0.312860 0.490347 0.641194
Si Si4 0.186529 0.507467 0.519164
Si Si5 0.499316 0.684412 0.600148
Si Si6 0.313860 0.991546 0.720290
Si Si7 0.198661 0.498684 0.016925
O O1 0.771026 0.728975 0.764943
O O2 0.653396 0.584711 0.838720
O O3 0.701078 0.533302 0.714955
O O4 0.545639 0.694076 0.748256
O O5 0.236014 0.263987 0.904406
O O6 0.042832 0.219502 0.958615
O O7 0.207205 0.049833 0.932597
O O8 0.206878 0.509857 0.593696
O O9 0.401725 0.596178 0.627121
O O10 0.375228 0.373006 0.614447
O O11 0.092716 0.407285 0.505245
O O12 0.295315 0.483155 0.473592
O O13 0.132092 0.632092 0.499231
O O14 0.490107 0.797499 0.644722
O O15 0.365517 0.865517 0.740881
O O16 0.412467 0.087534 0.737108
O O17 0.113072 0.386929 0.034340
O O18 0.106361 0.606361 0.002891
#
# Coordination Sequence:
#
# PCOD9555580 Si02
#       7
#     8   8   8   8   8   8   8
#     4   9  18  34  56  79 109 146 178 215 266 329
#     4   9  18  34  57  85 113 147 190 227 276 343
#     4  10  21  36  52  74 103 134 169 210 261 321
#     4  11  23  36  52  75  99 127 171 222 268 315
#     4  10  20  34  52  73  99 132 169 215 265 317
#     4   9  17  30  50  76 103 133 173 218 265 319
#     4   9  18  34  56  83 116 150 190 243 289 334
#
# _framework density 20.468588
#
# number of rings (size 3 to 8) (size 9 to 14) (size 15 to 20)
#    0.000    2.429    0.000    2.143    0.000    7.143 
#    0.000    9.286    0.000    4.286    0.000    0.000 
#    0.000    0.000    0.000    0.000    0.000    0.000 
#
# Total GULP energy -311957.646985 kJ/mol
# GULP energy per Si atom -5570.672268 kJ/mol
# Density = 2.042200 g / cm^3
# Si number density = 20.468588 Si / 1000 Ang^3
#
#
#
# Elastic Constant Matrix: (Units=GPa)
#
#
# Indices 1 2 3 4 5 6 
#
# 1 40.8627 17.6860 30.0318 0.0000 0.0000 0.0000
# 2 17.6860 40.8628 30.0317 0.0000 0.0000 0.0000
# 3 30.0318 30.0317 146.9000 0.0000 0.0000 0.0000
# 4 0.0000 0.0000 0.0000 248.4708 0.0000 0.0000
# 5 0.0000 0.0000 0.0000 0.0000 249.6617 0.0000
# 6 0.0000 0.0000 0.0000 0.0000 0.0000 14.6821
#
#
#
# Elastic Compliance Matrix: (Units=1/GPa)
#
#
# Indices 1 2 3 4 5 6 
#
# 1 0.032380 -0.010767 -0.004418 0.000000 0.000000 0.000000
# 2 -0.010767 0.032379 -0.004418 0.000000 0.000000 0.000000
# 3 -0.004418 -0.004418 0.008614 0.000000 0.000000 0.000000
# 4 0.000000 0.000000 0.000000 0.004025 0.000000 0.000000
# 5 0.000000 0.000000 0.000000 0.000000 0.004005 0.000000
# 6 0.000000 0.000000 0.000000 0.000000 0.000000 0.068110
#
#
# Mechanical properties :
#
#
# Convention : Reuss Voigt Hill
#
# Bulk Modulus (GPa) = 29.26944 42.68049 35.97496
# Shear Modulus (GPa) = 24.98635 112.62133 68.80384
#
# Velocity S-wave (km/s) = 3.49767 7.42570 5.80408
# Velocity P-wave (km/s) = 5.53555 9.71691 7.90761
#
# Compressibility (1/GPa) = 0.03416533
#
# Stress axis : x y z
#
# Youngs Moduli (GPa) = 30.88366 30.88374 116.09128
#
# Poissons Ratio (x) = 0.33253 0.51294
# Poissons Ratio (y) = 0.33253 0.51293
# Poissons Ratio (z) = 0.13646 0.13646
#
# Static dielectric constant tensor:
#      x y z
#    x 1.691180 0.000000 0.000000 
#    y 0.000000 1.690830 0.000000 
#    z 0.000000 0.000000 1.744830 
# 
# From -- ./inp_files/2743.got.cif
#   From: 2010.05.17/outbox.cif.g08.bks.cpg/sg113_cif.got.tgz:2743.got - 2010.05.20 11:03:00.
