data_PCOD9555900
_publ_section_title
;
Structure prediction by ZEFSAII (Michael W. Deem and Ramdas Pophale) SiO2 
 PCOD9555900
Probable space group: P -4 21 C
;
_chemical_formula_sum "Si O2"
_cell_formula_units_Z 48
_cell_length_a 8.912364
_cell_length_b 8.912364
_cell_length_c 30.159188
_cell_angle_alpha 90.000000
_cell_angle_beta 90.000000
_cell_angle_gamma 90.000000
_cell_volume 2395.551302
_symmetry_space_group_name_H-M "P -4 21 C"
_symmetry_group_IT_number 114
_symmetry_cell_setting 'tetragonal'
loop_
_space_group_symop_operation_xyz
x,y,z
y,-x,-z
-x,-y,z
-y,x,-z
1/2+x,1/2-y,1/2-z
1/2-x,1/2+y,1/2-z
1/2-y,1/2-x,1/2+z
1/2+y,1/2+x,1/2+z
loop_
_atom_site_type_symbol
_atom_site_label
_atom_site_fract_x
_atom_site_fract_y
_atom_site_fract_z
Si Si1 0.069365 0.332767 0.889587
Si Si2 0.219337 0.049142 0.019878
Si Si3 0.335097 0.929441 0.208827
Si Si4 0.546427 0.732599 0.984900
Si Si5 0.430084 0.333235 0.889338
Si Si6 0.665436 0.430621 0.208366
O O1 0.032783 0.272145 0.840266
O O2 0.249647 0.343129 0.892029
O O3 0.000000 0.500000 0.893115
O O4 0.007934 0.234480 0.930029
O O5 0.375015 0.124424 0.005842
O O6 0.088105 0.170554 0.011737
O O7 0.340932 0.749304 0.212649
O O8 0.500000 0.000000 0.209502
O O9 0.249123 0.998592 0.250172
O O10 0.513558 0.752192 0.932934
O O11 0.668576 0.597484 0.989696
O O12 0.500000 0.500000 0.892195
O O13 0.467123 0.269119 0.840662
O O14 0.500000 0.500000 0.208066
#
# Coordination Sequence:
#
# PCOD9555900 Si02
#       6
#     8   8   8   8   8   8
#     4  10  21  39  63  88 119 164 208 252 312 376
#     4  11  24  40  57  85 128 168 200 251 309 378
#     4  10  21  40  64  91 123 160 209 258 312 377
#     4  11  21  36  63  91 117 161 213 265 299 361
#     4  10  19  37  61  89 120 152 207 258 307 357
#     4  10  21  38  64  92 122 161 199 259 313 376
#
# _framework density 20.037140000000001
#
# number of rings (size 3 to 8) (size 9 to 14) (size 15 to 20)
#    0.000    1.667    3.333    2.000    0.000    1.333 
#    3.000    1.667    0.000    0.000    0.000    0.000 
#    0.000    0.000    0.000    0.000    0.000    0.000 
#
# Total GULP energy -268049.460724 kJ/mol
# GULP energy per Si atom -5584.363765 kJ/mol
# Density = 1.999153 g / cm^3
# Si number density = 20.037140 Si / 1000 Ang^3
#
#
#
# Elastic Constant Matrix: (Units=GPa)
#
#
# Indices 1 2 3 4 5 6 
#
# 1 48.7694 35.8589 54.4846 0.0000 0.0000 0.0000
# 2 35.8589 48.7694 54.4846 0.0000 0.0000 0.0000
# 3 54.4846 54.4846 227.5684 0.0000 0.0000 0.0000
# 4 0.0000 0.0000 0.0000 34.0217 0.0000 0.0000
# 5 0.0000 0.0000 0.0000 0.0000 34.0217 0.0000
# 6 0.0000 0.0000 0.0000 0.0000 0.0000 38.4704
#
#
#
# Elastic Compliance Matrix: (Units=1/GPa)
#
#
# Indices 1 2 3 4 5 6 
#
# 1 0.047269 -0.030187 -0.004090 0.000000 0.000000 0.000000
# 2 -0.030187 0.047269 -0.004090 0.000000 0.000000 0.000000
# 3 -0.004090 -0.004090 0.006353 0.000000 0.000000 0.000000
# 4 0.000000 0.000000 0.000000 0.029393 0.000000 0.000000
# 5 0.000000 0.000000 0.000000 0.000000 0.029393 0.000000
# 6 0.000000 0.000000 0.000000 0.000000 0.000000 0.025994
#
#
# Mechanical properties :
#
#
# Convention : Reuss Voigt Hill
#
# Bulk Modulus (GPa) = 41.39370 68.30704 54.85037
# Shear Modulus (GPa) = 18.48716 33.32138 25.90427
#
# Velocity S-wave (km/s) = 3.04080 4.08239 3.59947
# Velocity P-wave (km/s) = 5.74734 7.50902 6.68646
#
# Compressibility (1/GPa) = 0.02415826
#
# Stress axis : x y z
#
# Youngs Moduli (GPa) = 21.15529 21.15529 157.41306
#
# Poissons Ratio (x) = 0.63861 0.64381
# Poissons Ratio (y) = 0.63861 0.64381
# Poissons Ratio (z) = 0.08652 0.08652
#
# Static dielectric constant tensor:
#      x y z
#    x 1.702640 0.000000 0.000000 
#    y 0.000000 1.702640 0.000000 
#    z 0.000000 0.000000 1.735680 
# 
# From -- ./inp_files/3925.got.cif
#   From: 2010.05.17/outbox.cif.g08.bks.cpg/sg114_2_cif.got.tgz:3925.got - 2010.05.20 11:04:54.
