data_PCOD9555622
_publ_section_title
;
Structure prediction by ZEFSAII (Michael W. Deem and Ramdas Pophale) SiO2 
 PCOD9555622
Probable space group: P -4 21 M 
;
_chemical_formula_sum "Si O2"
_cell_formula_units_Z 64
_cell_length_a 12.292435
_cell_length_b 12.292435
_cell_length_c 23.837100
_cell_angle_alpha 90.000000
_cell_angle_beta 90.000000
_cell_angle_gamma 90.000000
_cell_volume 3601.880163
_symmetry_space_group_name_H-M "P -4 21 M "
_symmetry_group_IT_number 113
_symmetry_cell_setting 'tetragonal'
loop_
_space_group_symop_operation_xyz
x,y,z
y,-x,-z
-x,-y,z
-y,x,-z
1/2+x,1/2-y,-z
1/2-x,1/2+y,-z
1/2-y,1/2-x,z
1/2+y,1/2+x,z
loop_
_atom_site_type_symbol
_atom_site_label
_atom_site_fract_x
_atom_site_fract_y
_atom_site_fract_z
Si Si1 0.224930 0.096597 0.077804
Si Si2 0.010475 0.677519 0.133651
Si Si3 0.435492 0.757912 0.379270
Si Si4 0.980551 0.124998 0.406800
Si Si5 0.325077 0.642514 0.681475
Si Si6 0.998751 0.680883 0.494103
Si Si7 0.166059 0.853335 0.809511
Si Si8 0.764352 0.559593 0.018930
O O1 0.340972 0.159029 0.078726
O O2 0.182156 0.083827 0.141239
O O3 0.142228 0.178981 0.046727
O O4 0.227920 0.992184 0.038871
O O5 0.913354 0.586647 0.132063
O O6 0.963706 0.774796 0.170735
O O7 0.025656 0.714389 0.069230
O O8 0.116776 0.616776 0.155232
O O9 0.353424 0.853424 0.362842
O O10 0.373983 0.642298 0.383570
O O11 0.538528 0.743124 0.339244
O O12 0.480386 0.784989 0.441526
O O13 0.069885 0.148436 0.358753
O O14 0.994139 0.213113 0.455587
O O15 0.000000 0.000000 0.425858
O O16 0.249891 0.749891 0.676858
O O17 0.358498 0.626399 0.746152
O O18 0.896749 0.603251 0.478166
O O19 0.106549 0.606549 0.489310
O O20 0.259337 0.759337 0.811235
O O21 0.874672 0.625329 0.009092
#
# Coordination Sequence:
#
# PCOD9555622 Si02
#       8
#     8   8   8   8   8   8   8   8
#     4   9  17  30  49  73 104 131 168 216 259 313
#     4   8  13  24  45  72  99 128 166 212 264 319
#     4  10  22  37  56  79 109 149 185 219 262 320
#     4  10  22  35  56  82 110 142 178 219 271 325
#     4  10  20  36  59  81 107 143 188 228 268 319
#     4  10  21  37  57  84 114 138 171 223 276 320
#     4   8  16  31  50  75 102 136 173 216 264 309
#     4   9  17  28  46  71 102 137 169 212 267 321
#
# _framework density 17.768498999999998
#
# number of rings (size 3 to 8) (size 9 to 14) (size 15 to 20)
#    0.000    2.750    0.000    3.000    3.500    1.750 
#    0.000    1.875   16.500    5.250    0.000    0.000 
#    0.000    0.000    0.000    0.000    0.000    0.000 
#
# Total GULP energy -356784.742402 kJ/mol
# GULP energy per Si atom -5574.761600 kJ/mol
# Density = 1.772806 g / cm^3
# Si number density = 17.768499 Si / 1000 Ang^3
#
#
#
# Elastic Constant Matrix: (Units=GPa)
#
#
# Indices 1 2 3 4 5 6 
#
# 1 62.5930 28.1775 55.7142 0.0000 0.0000 0.0000
# 2 28.1775 62.5926 55.7134 0.0000 0.0000 0.0000
# 3 55.7142 55.7134 125.7832 0.0000 0.0000 0.0000
# 4 0.0000 0.0000 0.0000 20.6797 0.0000 0.0000
# 5 0.0000 0.0000 0.0000 0.0000 20.6797 0.0000
# 6 0.0000 0.0000 0.0000 0.0000 0.0000 19.8532
#
#
#
# Elastic Compliance Matrix: (Units=1/GPa)
#
#
# Indices 1 2 3 4 5 6 
#
# 1 0.026601 -0.002455 -0.010695 0.000000 0.000000 0.000000
# 2 -0.002455 0.026601 -0.010695 0.000000 0.000000 0.000000
# 3 -0.010695 -0.010695 0.017425 0.000000 0.000000 0.000000
# 4 0.000000 0.000000 0.000000 0.048357 0.000000 0.000000
# 5 0.000000 0.000000 0.000000 0.000000 0.048357 0.000000
# 6 0.000000 0.000000 0.000000 0.000000 0.000000 0.050370
#
#
# Mechanical properties :
#
#
# Convention : Reuss Voigt Hill
#
# Bulk Modulus (GPa) = 43.59941 58.90878 51.25410
# Shear Modulus (GPa) = 18.31190 19.66677 18.98934
#
# Velocity S-wave (km/s) = 3.21375 3.33052 3.27266
# Velocity P-wave (km/s) = 6.19368 6.92931 6.57179
#
# Compressibility (1/GPa) = 0.02293609
#
# Stress axis : x y z
#
# Youngs Moduli (GPa) = 37.59205 37.59231 57.39019
#
# Poissons Ratio (x) = 0.09231 0.61380
# Poissons Ratio (y) = 0.09231 0.61378
# Poissons Ratio (z) = 0.40205 0.40205
#
# Static dielectric constant tensor:
#      x y z
#    x 1.618950 0.000000 0.000000 
#    y 0.000000 1.618950 0.000000 
#    z 0.000000 0.000000 1.594440 
# 
# From -- ./inp_files/2875.got.cif
#   From: 2010.05.17/outbox.cif.g08.bks.cpg/sg113_cif.got.tgz:2875.got - 2010.05.20 11:03:00.
