data_PCOD9555642
_publ_section_title
;
Structure prediction by ZEFSAII (Michael W. Deem and Ramdas Pophale) SiO2 
 PCOD9555642
Probable space group: P -4 21 M 
;
_chemical_formula_sum "Si O2"
_cell_formula_units_Z 64
_cell_length_a 12.237006
_cell_length_b 12.237006
_cell_length_c 23.827043
_cell_angle_alpha 90.000000
_cell_angle_beta 90.000000
_cell_angle_gamma 90.000000
_cell_volume 3567.964253
_symmetry_space_group_name_H-M "P -4 21 M "
_symmetry_group_IT_number 113
_symmetry_cell_setting 'tetragonal'
loop_
_space_group_symop_operation_xyz
x,y,z
y,-x,-z
-x,-y,z
-y,x,-z
1/2+x,1/2-y,-z
1/2-x,1/2+y,-z
1/2-y,1/2-x,z
1/2+y,1/2+x,z
loop_
_atom_site_type_symbol
_atom_site_label
_atom_site_fract_x
_atom_site_fract_y
_atom_site_fract_z
Si Si1 0.455228 0.225082 0.946649
Si Si2 0.909123 0.767183 0.942262
Si Si3 0.323376 0.008671 0.422529
Si Si4 0.326670 0.644902 0.240867
Si Si5 0.236871 0.439392 0.175968
Si Si6 0.669709 0.474452 0.479780
Si Si7 0.660333 0.653204 0.629474
Si Si8 0.126906 0.025252 0.156948
O O1 0.384586 0.115415 0.955043
O O2 0.368594 0.324761 0.944679
O O3 0.517078 0.220317 0.887451
O O4 0.537272 0.245619 0.997622
O O5 0.837446 0.662555 0.925053
O O6 0.999468 0.798600 0.896477
O O7 0.416005 0.916005 0.420945
O O8 0.222758 0.958641 0.387626
O O9 0.379817 0.120184 0.402321
O O10 0.281611 0.023159 0.486098
O O11 0.253925 0.753925 0.235644
O O12 0.258681 0.544775 0.214414
O O13 0.349850 0.624229 0.306249
O O14 0.438091 0.654220 0.205475
O O15 0.135223 0.364778 0.192698
O O16 0.349674 0.370836 0.175805
O O17 0.590946 0.388428 0.512179
O O18 0.673369 0.434033 0.416104
O O19 0.748844 0.751157 0.623596
O O20 0.000000 0.000000 0.141382
#
# Coordination Sequence:
#
# PCOD9555642 Si02
#       8
#     8   8   8   8   8   8   8   8
#     4  11  23  37  57  86 115 149 190 236 290 346
#     4  11  22  35  56  84 113 146 188 232 280 339
#     4   9  17  31  52  78 109 148 191 235 284 335
#     4  10  20  38  62  86 110 152 198 235 285 339
#     4  11  23  40  60  85 115 149 190 239 292 345
#     4   9  17  31  49  80 113 148 184 227 278 337
#     4   9  18  33  56  82 112 146 187 232 276 334
#     4  10  20  38  58  79 109 148 188 233 274 337
#
# _framework density 17.937398999999999
#
# number of rings (size 3 to 8) (size 9 to 14) (size 15 to 20)
#    0.000    2.000    2.500    2.250    0.000    3.750 
#   13.500    1.250    0.000    2.625    0.000    0.000 
#    0.000    0.000    0.000    0.000    0.000    0.000 
#
# Total GULP energy -357145.798071 kJ/mol
# GULP energy per Si atom -5580.403095 kJ/mol
# Density = 1.789657 g / cm^3
# Si number density = 17.937399 Si / 1000 Ang^3
#
#
#
# Elastic Constant Matrix: (Units=GPa)
#
#
# Indices 1 2 3 4 5 6 
#
# 1 32.6075 15.0133 22.1228 0.0000 0.0000 0.0000
# 2 15.0133 32.6033 22.1214 0.0000 0.0000 0.0000
# 3 22.1228 22.1214 119.0317 0.0000 0.0000 0.0000
# 4 0.0000 0.0000 0.0000 18.2596 0.0000 0.0000
# 5 0.0000 0.0000 0.0000 0.0000 18.2596 0.0000
# 6 0.0000 0.0000 0.0000 0.0000 0.0000 18.7004
#
#
#
# Elastic Compliance Matrix: (Units=1/GPa)
#
#
# Indices 1 2 3 4 5 6 
#
# 1 0.041111 -0.015730 -0.004717 0.000000 0.000000 0.000000
# 2 -0.015730 0.041116 -0.004718 0.000000 0.000000 0.000000
# 3 -0.004717 -0.004718 0.010155 0.000000 0.000000 0.000000
# 4 0.000000 0.000000 0.000000 0.054766 0.000000 0.000000
# 5 0.000000 0.000000 0.000000 0.000000 0.054766 0.000000
# 6 0.000000 0.000000 0.000000 0.000000 0.000000 0.053475
#
#
# Mechanical properties :
#
#
# Convention : Reuss Voigt Hill
#
# Bulk Modulus (GPa) = 23.78049 33.63972 28.71011
# Shear Modulus (GPa) = 15.63792 19.37625 17.50708
#
# Velocity S-wave (km/s) = 2.95584 3.29023 3.12751
# Velocity P-wave (km/s) = 4.99355 5.76444 5.39279
#
# Compressibility (1/GPa) = 0.04205128
#
# Stress axis : x y z
#
# Youngs Moduli (GPa) = 24.32441 24.32130 98.47732
#
# Poissons Ratio (x) = 0.38258 0.46455
# Poissons Ratio (y) = 0.38263 0.46458
# Poissons Ratio (z) = 0.11475 0.11474
#
# Static dielectric constant tensor:
#      x y z
#    x 1.625290 0.000000 0.000000 
#    y 0.000000 1.625290 0.000000 
#    z 0.000000 0.000000 1.588520 
# 
# From -- ./inp_files/2915.got.cif
#   From: 2010.05.17/outbox.cif.g08.bks.cpg/sg113_cif.got.tgz:2915.got - 2010.05.20 11:03:00.
