data_PCOD9555993
_publ_section_title
;
Structure prediction by ZEFSAII (Michael W. Deem and Ramdas Pophale) SiO2 
 PCOD9555993
Probable space group: P -4 21 C
;
_chemical_formula_sum "Si O2"
_cell_formula_units_Z 48
_cell_length_a 8.824475
_cell_length_b 8.824475
_cell_length_c 32.218037
_cell_angle_alpha 90.000000
_cell_angle_beta 90.000000
_cell_angle_gamma 90.000000
_cell_volume 2508.862326
_symmetry_space_group_name_H-M "P -4 21 C"
_symmetry_group_IT_number 114
_symmetry_cell_setting 'tetragonal'
loop_
_space_group_symop_operation_xyz
x,y,z
y,-x,-z
-x,-y,z
-y,x,-z
1/2+x,1/2-y,1/2-z
1/2-x,1/2+y,1/2-z
1/2-y,1/2-x,1/2+z
1/2+y,1/2+x,1/2+z
loop_
_atom_site_type_symbol
_atom_site_label
_atom_site_fract_x
_atom_site_fract_y
_atom_site_fract_z
Si Si1 0.461763 0.249360 0.568418
Si Si2 0.500000 0.500000 0.000000
Si Si3 0.171438 0.031950 0.162698
Si Si4 0.000000 0.000000 0.361093
Si Si5 0.118423 0.364067 0.280742
Si Si6 0.833538 0.175818 0.297038
Si Si7 0.000000 0.000000 0.000000
Si Si8 0.253371 0.458682 0.931462
O O1 0.448258 0.326446 0.613360
O O2 0.448778 0.365170 0.530520
O O3 0.626376 0.170098 0.567853
O O4 0.336625 0.117417 0.566289
O O5 0.365013 0.445596 0.970395
O O6 0.283965 0.898416 0.178061
O O7 0.246192 0.181346 0.182821
O O8 0.000000 0.000000 0.176842
O O9 0.040024 0.141691 0.390581
O O10 0.859810 0.049858 0.332060
O O11 0.236114 0.365179 0.243054
O O12 0.000000 0.500000 0.274550
O O13 0.005460 0.222485 0.284318
#
# Coordination Sequence:
#
# PCOD9555993 Si02
#       8
#     8   2   8   4   8   8   2   8
#     4  11  22  41  62  93 123 169 205 262 313 396
#     4  10  20  40  64  96 114 156 196 260 312 378
#     4  11  22  41  63  89 123 171 217 263 319 383
#     4  11  22  37  65  92 122 162 213 261 314 381
#     4  10  24  39  62  90 125 168 218 257 323 382
#     4  11  23  40  62  93 127 168 214 270 323 382
#     4  12  24  40  66  96 126 156 222 264 320 372
#     4  10  22  40  65  88 125 160 205 252 324 383
#
# _framework density 19.132176000000001
#
# number of rings (size 3 to 8) (size 9 to 14) (size 15 to 20)
#    0.000    1.333    2.500    3.000   10.500    0.000 
#    3.000    0.000    0.000    0.000    0.000    0.000 
#    0.000    0.000    0.000    0.000    0.000    0.000 
#
# Total GULP energy -268102.362527 kJ/mol
# GULP energy per Si atom -5585.465886 kJ/mol
# Density = 1.908863 g / cm^3
# Si number density = 19.132176 Si / 1000 Ang^3
#
#
#
# Elastic Constant Matrix: (Units=GPa)
#
#
# Indices 1 2 3 4 5 6 
#
# 1 65.6505 8.4485 19.5504 0.0000 0.0000 0.0000
# 2 8.4485 65.6505 19.5504 0.0000 0.0000 0.0000
# 3 19.5504 19.5504 112.4900 0.0000 0.0000 0.0000
# 4 0.0000 0.0000 0.0000 23.2218 0.0000 0.0000
# 5 0.0000 0.0000 0.0000 0.0000 23.2218 0.0000
# 6 0.0000 0.0000 0.0000 0.0000 0.0000 15.4201
#
#
#
# Elastic Compliance Matrix: (Units=1/GPa)
#
#
# Indices 1 2 3 4 5 6 
#
# 1 0.016170 -0.001312 -0.002582 0.000000 0.000000 0.000000
# 2 -0.001312 0.016170 -0.002582 0.000000 0.000000 0.000000
# 3 -0.002582 -0.002582 0.009787 0.000000 0.000000 0.000000
# 4 0.000000 0.000000 0.000000 0.043063 0.000000 0.000000
# 5 0.000000 0.000000 0.000000 0.000000 0.043063 0.000000
# 6 0.000000 0.000000 0.000000 0.000000 0.000000 0.064850
#
#
# Mechanical properties :
#
#
# Convention : Reuss Voigt Hill
#
# Bulk Modulus (GPa) = 34.27676 37.65441 35.96559
# Shear Modulus (GPa) = 23.17160 25.45552 24.31356
#
# Velocity S-wave (km/s) = 3.48391 3.65157 3.56872
# Velocity P-wave (km/s) = 5.84279 6.12393 5.98501
#
# Compressibility (1/GPa) = 0.02917428
#
# Stress axis : x y z
#
# Youngs Moduli (GPa) = 61.84291 61.84291 102.17360
#
# Poissons Ratio (x) = 0.08113 0.26384
# Poissons Ratio (y) = 0.08113 0.26384
# Poissons Ratio (z) = 0.15970 0.15970
#
# Static dielectric constant tensor:
#      x y z
#    x 1.675320 0.000000 0.000000 
#    y 0.000000 1.675320 0.000000 
#    z 0.000000 0.000000 1.654280 
# 
# From -- ./inp_files/4054.got.cif
#   From: 2010.05.17/outbox.cif.g08.bks.cpg/sg114_3_cif.got.tgz:4054.got - 2010.05.20 11:04:54.
