data_PCOD9555593
_publ_section_title
;
Structure prediction by ZEFSAII (Michael W. Deem and Ramdas Pophale) SiO2 
 PCOD9555593
Probable space group: P -4 21 M 
;
_chemical_formula_sum "Si O2"
_cell_formula_units_Z 40
_cell_length_a 13.083648
_cell_length_b 13.083648
_cell_length_c 10.454537
_cell_angle_alpha 90.000000
_cell_angle_beta 90.000000
_cell_angle_gamma 90.000000
_cell_volume 1789.626932
_symmetry_space_group_name_H-M "P -4 21 M "
_symmetry_group_IT_number 113
_symmetry_cell_setting 'tetragonal'
loop_
_space_group_symop_operation_xyz
x,y,z
y,-x,-z
-x,-y,z
-y,x,-z
1/2+x,1/2-y,-z
1/2-x,1/2+y,-z
1/2-y,1/2-x,z
1/2+y,1/2+x,z
loop_
_atom_site_type_symbol
_atom_site_label
_atom_site_fract_x
_atom_site_fract_y
_atom_site_fract_z
Si Si1 0.470296 0.345345 0.458800
Si Si2 0.637414 0.446362 0.811709
Si Si3 0.746129 0.246129 0.183548
Si Si4 0.260779 0.239222 0.244207
Si Si5 0.788917 0.288917 0.476303
Si Si6 0.865638 0.634363 0.035131
Si Si7 0.791990 0.975748 0.911991
O O1 0.383778 0.434334 0.460047
O O2 0.514126 0.356115 0.314272
O O3 0.408688 0.245087 0.506063
O O4 0.735316 0.376132 0.784566
O O5 0.541361 0.368530 0.821928
O O6 0.654910 0.491510 0.949916
O O7 0.750021 0.250021 0.338519
O O8 0.669821 0.169821 0.106967
O O9 0.859901 0.218883 0.132724
O O10 0.240069 0.259932 0.393756
O O11 0.199229 0.300772 0.138805
O O12 0.821547 0.523097 0.067901
#
# Coordination Sequence:
#
# PCOD9555593 Si02
#       7
#     8   8   4   4   4   4   8
#     4  10  22  38  56  86 123 159 200 250 308 361
#     4  10  20  34  57  83 118 156 194 247 304 352
#     4  12  22  39  60  92 118 151 207 254 287 362
#     4   8  16  40  52  78 119 162 178 237 313 347
#     4  10  22  36  63  85 118 158 205 249 294 357
#     4  10  22  39  59  89 123 159 196 242 308 358
#     4  11  21  38  61  87 120 155 199 251 301 357
#
# _framework density 22.351029
#
# number of rings (size 3 to 8) (size 9 to 14) (size 15 to 20)
#    0.000    1.800    4.000    1.200    2.800    4.000 
#    0.000    0.000    0.000    1.800    0.000    1.400 
#    0.000    0.000    0.000    0.000    0.000    0.000 
#
# Total GULP energy -222785.304784 kJ/mol
# GULP energy per Si atom -5569.632620 kJ/mol
# Density = 2.230016 g / cm^3
# Si number density = 22.351029 Si / 1000 Ang^3
#
#
#
# Elastic Constant Matrix: (Units=GPa)
#
#
# Indices 1 2 3 4 5 6 
#
# 1 51.2714 18.1148 -5.9271 0.0000 0.0000 0.0000
# 2 18.1148 51.2707 -5.9264 0.0000 0.0000 0.0000
# 3 -5.9271 -5.9264 163.5465 0.0000 0.0000 0.0000
# 4 0.0000 0.0000 0.0000 11.1856 0.0000 0.0000
# 5 0.0000 0.0000 0.0000 0.0000 11.1858 0.0000
# 6 0.0000 0.0000 0.0000 0.0000 0.0000 41.1470
#
#
#
# Elastic Compliance Matrix: (Units=1/GPa)
#
#
# Indices 1 2 3 4 5 6 
#
# 1 0.022331 -0.007829 0.000526 0.000000 0.000000 0.000000
# 2 -0.007829 0.022331 0.000525 0.000000 0.000000 0.000000
# 3 0.000526 0.000525 0.006153 0.000000 0.000000 0.000000
# 4 0.000000 0.000000 0.000000 0.089400 0.000000 0.000000
# 5 0.000000 0.000000 0.000000 0.000000 0.089399 0.000000
# 6 0.000000 0.000000 0.000000 0.000000 0.000000 0.024303
#
#
# Mechanical properties :
#
#
# Convention : Reuss Voigt Hill
#
# Bulk Modulus (GPa) = 26.83944 30.95679 28.89812
# Shear Modulus (GPa) = 17.86400 30.02551 23.94475
#
# Velocity S-wave (km/s) = 2.83016 3.66917 3.27663
# Velocity P-wave (km/s) = 4.76592 5.64187 5.22229
#
# Compressibility (1/GPa) = 0.03725860
#
# Stress axis : x y z
#
# Youngs Moduli (GPa) = 44.78090 44.78035 162.53396
#
# Poissons Ratio (x) = 0.35059 -0.08543
# Poissons Ratio (y) = 0.35060 -0.08541
# Poissons Ratio (z) = -0.02354 -0.02353
#
# Static dielectric constant tensor:
#      x y z
#    x 1.880030 0.000000 0.000000 
#    y 0.000000 1.880040 0.000000 
#    z 0.000000 0.000000 1.920850 
# 
# From -- ./inp_files/1086.got.cif
#   From: 2010.05.17/outbox.cif.g08.bks.cpg/sg113_cif.got.tgz:1086.got - 2010.05.20 11:03:00.
