data_PCOD9555999
_publ_section_title
;
Structure prediction by ZEFSAII (Michael W. Deem and Ramdas Pophale) SiO2 
 PCOD9555999
Probable space group: P -4 21 C
;
_chemical_formula_sum "Si O2"
_cell_formula_units_Z 56
_cell_length_a 15.232242
_cell_length_b 15.232242
_cell_length_c 10.610051
_cell_angle_alpha 90.000000
_cell_angle_beta 90.000000
_cell_angle_gamma 90.000000
_cell_volume 2461.756726
_symmetry_space_group_name_H-M "P -4 21 C"
_symmetry_group_IT_number 114
_symmetry_cell_setting 'tetragonal'
loop_
_space_group_symop_operation_xyz
x,y,z
y,-x,-z
-x,-y,z
-y,x,-z
1/2+x,1/2-y,1/2-z
1/2-x,1/2+y,1/2-z
1/2-y,1/2-x,1/2+z
1/2+y,1/2+x,1/2+z
loop_
_atom_site_type_symbol
_atom_site_label
_atom_site_fract_x
_atom_site_fract_y
_atom_site_fract_z
Si Si1 0.827991 0.608257 0.778562
Si Si2 0.631411 0.792721 0.871201
Si Si3 0.601911 0.503995 0.333440
Si Si4 0.832717 0.827353 0.152864
Si Si5 0.617183 0.436238 0.050397
Si Si6 0.036478 0.403299 0.546131
Si Si7 0.180011 0.201469 0.889257
O O1 0.724844 0.596798 0.739520
O O2 0.891983 0.587979 0.660189
O O3 0.826421 0.713510 0.800830
O O4 0.859129 0.566941 0.912408
O O5 0.646061 0.752864 0.731768
O O6 0.621888 0.704916 0.959349
O O7 0.544627 0.847494 0.895932
O O8 0.723577 0.842102 0.888213
O O9 0.500000 0.500000 0.354901
O O10 0.639902 0.420559 0.406466
O O11 0.620025 0.475693 0.190027
O O12 0.643865 0.597244 0.354394
O O13 0.823833 0.765488 0.033022
O O14 0.524457 0.387341 0.033086
O O15 0.000000 0.500000 0.515521
#
# Coordination Sequence:
#
# PCOD9555999 Si02
#       7
#     8   8   8   8   8   8   8
#     4  11  24  49  76 106 150 200 261 324 389 461
#     4  10  26  43  72 107 146 199 259 313 394 470
#     4  11  24  40  63 105 142 191 241 305 394 459
#     4  10  24  45  70 107 141 194 258 311 392 464
#     4  10  20  40  70 105 145 181 252 325 384 461
#     4  12  27  47  76 111 154 208 261 326 390 484
#     4  11  25  45  73 103 151 201 251 318 391 475
#
# _framework density 22.747980999999999
#
# number of rings (size 3 to 8) (size 9 to 14) (size 15 to 20)
#    0.000    1.286    2.857    2.143    8.000    6.857 
#    0.000    0.000    0.000    0.000    0.000    0.000 
#    0.000    0.000    0.000    0.000    0.000    0.000 
#
# Total GULP energy -312148.242238 kJ/mol
# GULP energy per Si atom -5574.075754 kJ/mol
# Density = 2.269621 g / cm^3
# Si number density = 22.747981 Si / 1000 Ang^3
#
#
#
# Elastic Constant Matrix: (Units=GPa)
#
#
# Indices 1 2 3 4 5 6 
#
# 1 90.9858 55.1052 2.0764 0.0000 0.0000 0.0000
# 2 55.1052 90.9858 2.0764 0.0000 0.0000 0.0000
# 3 2.0764 2.0764 68.1794 0.0000 0.0000 0.0000
# 4 0.0000 0.0000 0.0000 -13.2425 0.0000 0.0000
# 5 0.0000 0.0000 0.0000 0.0000 -13.2425 0.0000
# 6 0.0000 0.0000 0.0000 0.0000 0.0000 36.4377
#
#
#
# Elastic Compliance Matrix: (Units=1/GPa)
#
#
# Indices 1 2 3 4 5 6 
#
# 1 0.017361 -0.010510 -0.000209 0.000000 0.000000 0.000000
# 2 -0.010510 0.017361 -0.000209 0.000000 0.000000 0.000000
# 3 -0.000209 -0.000209 0.014680 0.000000 0.000000 0.000000
# 4 0.000000 0.000000 0.000000 -0.075515 0.000000 0.000000
# 5 0.000000 0.000000 0.000000 0.000000 -0.075515 0.000000
# 6 0.000000 0.000000 0.000000 0.000000 0.000000 0.027444
#
#
# Mechanical properties :
#
#
# Convention : Reuss Voigt Hill
#
# Bulk Modulus (GPa) = 36.30124 40.96301 38.63212
# Shear Modulus (GPa) = -115.88032 14.71676 -50.58178
#
# Velocity S-wave (km/s) = -7.14503 2.54628 -4.72059
# Velocity P-wave (km/s) = 7.21637 5.16634 3.56265
#
# Compressibility (1/GPa) = 0.02754727
#
# Stress axis : x y z
#
# Youngs Moduli (GPa) = 57.60178 57.60178 68.12032
#
# Poissons Ratio (x) = 0.60537 0.01421
# Poissons Ratio (y) = 0.60537 0.01421
# Poissons Ratio (z) = 0.01202 0.01202
#
# Static dielectric constant tensor:
#      x y z
#    x 2.137630 0.000000 0.000000 
#    y 0.000000 2.137630 0.000000 
#    z 0.000000 0.000000 1.988040 
# 
# From -- ./inp_files/1737.got.cif
#   From: 2010.05.17/outbox.cif.g08.bks.cpg/sg114_1_cif.got.tgz:1737.got - 2010.05.20 11:04:54.
