data_PCOD9555700
_publ_section_title
;
Structure prediction by ZEFSAII (Michael W. Deem and Ramdas Pophale) SiO2 
 PCOD9555700
Probable space group: P -4 21 M 
;
_chemical_formula_sum "Si O2"
_cell_formula_units_Z 32
_cell_length_a 17.183051
_cell_length_b 17.183051
_cell_length_c 5.040281
_cell_angle_alpha 90.000000
_cell_angle_beta 90.000000
_cell_angle_gamma 90.000000
_cell_volume 1488.179465
_symmetry_space_group_name_H-M "P -4 21 M "
_symmetry_group_IT_number 113
_symmetry_cell_setting 'tetragonal'
loop_
_space_group_symop_operation_xyz
x,y,z
y,-x,-z
-x,-y,z
-y,x,-z
1/2+x,1/2-y,-z
1/2-x,1/2+y,-z
1/2-y,1/2-x,z
1/2+y,1/2+x,z
loop_
_atom_site_type_symbol
_atom_site_label
_atom_site_fract_x
_atom_site_fract_y
_atom_site_fract_z
Si Si1 0.650546 0.719596 0.976150
Si Si2 0.620480 0.997296 0.828691
Si Si3 0.546850 0.743776 0.492416
Si Si4 0.399321 0.773104 0.210518
O O1 0.702736 0.797265 0.923791
O O2 0.604557 0.729637 0.248981
O O3 0.586772 0.704862 0.747411
O O4 0.712113 0.649646 0.962069
O O5 0.561594 0.061594 0.721027
O O6 0.568378 0.931622 0.966811
O O7 0.667546 0.959515 0.590943
O O8 0.678072 0.041756 0.025979
O O9 0.456777 0.728579 0.413207
O O10 0.334846 0.834846 0.322545
#
# Coordination Sequence:
#
# PCOD9555700 Si02
#       4
#     8   8   8   8
#     4  11  25  41  66  96 132 175 225 273 323 389
#     4  10  21  38  63  98 138 176 214 266 337 407
#     4  12  23  41  66  96 131 169 223 271 325 386
#     4  10  24  44  67  99 138 178 219 272 334 398
#
# _framework density 21.502783000000001
#
# number of rings (size 3 to 8) (size 9 to 14) (size 15 to 20)
#    0.000    1.250    2.500    3.000    3.500    2.000 
#    0.000    2.500    0.000    4.500    0.000    0.000 
#    0.000    0.000    0.000    0.000    0.000    0.000 
#
# Total GULP energy -178647.035551 kJ/mol
# GULP energy per Si atom -5582.719861 kJ/mol
# Density = 2.145384 g / cm^3
# Si number density = 21.502783 Si / 1000 Ang^3
#
#
#
# Elastic Constant Matrix: (Units=GPa)
#
#
# Indices 1 2 3 4 5 6 
#
# 1 6.3173 103.3835 25.4643 0.0000 0.0000 0.0000
# 2 103.3835 6.3182 25.4603 0.0000 0.0000 0.0000
# 3 25.4643 25.4603 96.5985 0.0000 0.0000 0.0000
# 4 0.0000 0.0000 0.0000 24.6061 0.0000 0.0000
# 5 0.0000 0.0000 0.0000 0.0000 24.6058 0.0000
# 6 0.0000 0.0000 0.0000 0.0000 0.0000 61.0389
#
#
#
# Elastic Compliance Matrix: (Units=1/GPa)
#
#
# Indices 1 2 3 4 5 6 
#
# 1 0.000042 0.010344 -0.002738 0.000000 0.000000 0.000000
# 2 0.010344 0.000042 -0.002738 0.000000 0.000000 0.000000
# 3 -0.002738 -0.002738 0.011795 0.000000 0.000000 0.000000
# 4 0.000000 0.000000 0.000000 0.040640 0.000000 0.000000
# 5 0.000000 0.000000 0.000000 0.000000 0.040641 0.000000
# 6 0.000000 0.000000 0.000000 0.000000 0.000000 0.016383
#
#
# Mechanical properties :
#
#
# Convention : Reuss Voigt Hill
#
# Bulk Modulus (GPa) = 46.25896 46.42781 46.34339
# Shear Modulus (GPa) = 46.72379 19.04523 32.88451
#
# Velocity S-wave (km/s) = 4.66651 2.97932 3.91489
# Velocity P-wave (km/s) = 7.11301 5.78563 6.48338
#
# Compressibility (1/GPa) = 0.02161743
#
# Stress axis : x y z
#
# Youngs Moduli (GPa) = 23821.61912 23636.62771 84.77863
#
# Poissons Ratio (x) = -244.50751 0.23208
# Poissons Ratio (y) = -246.42114 0.23213
# Poissons Ratio (z) = 65.21239 64.71809
#
# Static dielectric constant tensor:
#      x y z
#    x 1.811830 0.000000 0.000000 
#    y 0.000000 1.811830 0.000000 
#    z 0.000000 0.000000 1.823700 
# 
# From -- ./inp_files/273.got.cif
#   From: 2010.05.17/outbox.cif.g08.bks.cpg/sg113_cif.got.tgz:273.got - 2010.05.20 11:03:00.
