data_PCOD9555322
_publ_section_title
;
Structure prediction by ZEFSAII (Michael W. Deem and Ramdas Pophale) SiO2 
 PCOD9555322
Probable space group: P -4 2 C
;
_chemical_formula_sum "Si O2"
_cell_formula_units_Z 48
_cell_length_a 8.407088
_cell_length_b 8.407088
_cell_length_c 28.718143
_cell_angle_alpha 90.000000
_cell_angle_beta 90.000000
_cell_angle_gamma 90.000000
_cell_volume 2029.773323
_symmetry_space_group_name_H-M "P -4 2 C"
_symmetry_group_IT_number 112
_symmetry_cell_setting 'tetragonal'
loop_
_space_group_symop_operation_xyz
x,y,z
y,-x,-z
-x,-y,z
-y,x,-z
x,-y,1/2-z
-x,y,1/2-z
-y,-x,1/2+z
y,x,1/2+z
loop_
_atom_site_type_symbol
_atom_site_label
_atom_site_fract_x
_atom_site_fract_y
_atom_site_fract_z
Si Si1 0.125504 0.127292 0.335133
Si Si2 0.685346 0.305120 0.746890
Si Si3 0.638144 0.381253 0.401625
Si Si4 0.703375 0.328770 0.997297
Si Si5 0.883700 0.364974 0.831159
Si Si6 0.116814 0.634356 0.087397
O O1 0.218196 0.230900 0.296468
O O2 0.055270 0.241914 0.374729
O O3 0.256637 0.010179 0.358157
O O4 0.000000 0.000000 0.315934
O O5 0.687452 0.500000 0.750000
O O6 0.500000 0.258431 0.750000
O O7 0.793297 0.266222 0.791529
O O8 0.500000 0.500000 0.419610
O O9 0.714358 0.275754 0.443082
O O10 0.575193 0.259616 0.363474
O O11 0.760825 0.516186 0.385166
O O12 0.520273 0.280916 0.004443
O O13 0.804197 0.281353 0.042435
O O14 0.000000 0.500000 0.810768
O O15 0.000000 0.500000 0.068330
#
# Coordination Sequence:
#
# PCOD9555322 Si02
#       6
#     8   8   8   8   8   8
#     4  12  27  48  69 102 149 192 234 294 376 449
#     4  11  25  45  73 104 141 185 247 309 367 429
#     4  11  21  40  70 103 138 187 245 297 347 423
#     4   9  17  36  65  99 135 174 235 295 337 395
#     4  12  25  40  67 107 143 182 233 298 366 425
#     4  11  23  43  70  98 143 194 239 293 352 435
#
# _framework density 23.647957999999999
#
# number of rings (size 3 to 8) (size 9 to 14) (size 15 to 20)
#    0.000    1.000    5.000    3.500    2.333    2.000 
#    3.000    0.833    0.000    0.000    0.000    0.000 
#    0.000    0.000    0.000    0.000    0.000    0.000 
#
# Total GULP energy -267433.914164 kJ/mol
# GULP energy per Si atom -5571.539878 kJ/mol
# Density = 2.359413 g / cm^3
# Si number density = 23.647958 Si / 1000 Ang^3
#
#
#
# Elastic Constant Matrix: (Units=GPa)
#
#
# Indices 1 2 3 4 5 6 
#
# 1 82.4799 38.9414 37.5993 0.0000 0.0000 0.0000
# 2 38.9414 82.4799 37.5993 0.0000 0.0000 0.0000
# 3 37.5993 37.5993 133.9490 0.0000 0.0000 0.0000
# 4 0.0000 0.0000 0.0000 26.7872 0.0000 0.0000
# 5 0.0000 0.0000 0.0000 0.0000 26.7872 0.0000
# 6 0.0000 0.0000 0.0000 0.0000 0.0000 36.7646
#
#
#
# Elastic Compliance Matrix: (Units=1/GPa)
#
#
# Indices 1 2 3 4 5 6 
#
# 1 0.016468 -0.006500 -0.002798 0.000000 0.000000 0.000000
# 2 -0.006500 0.016468 -0.002798 0.000000 0.000000 0.000000
# 3 -0.002798 -0.002798 0.009036 0.000000 0.000000 0.000000
# 4 0.000000 0.000000 0.000000 0.037331 0.000000 0.000000
# 5 0.000000 0.000000 0.000000 0.000000 0.037331 0.000000
# 6 0.000000 0.000000 0.000000 0.000000 0.000000 0.027200
#
#
# Mechanical properties :
#
#
# Convention : Reuss Voigt Hill
#
# Bulk Modulus (GPa) = 56.23946 58.57655 57.40800
# Shear Modulus (GPa) = 28.74301 30.38572 29.56436
#
# Velocity S-wave (km/s) = 3.49012 3.58847 3.53963
# Velocity P-wave (km/s) = 6.33047 6.48024 6.40579
#
# Compressibility (1/GPa) = 0.01778111
#
# Stress axis : x y z
#
# Youngs Moduli (GPa) = 60.72209 60.72209 110.66298
#
# Poissons Ratio (x) = 0.39467 0.30966
# Poissons Ratio (y) = 0.39467 0.30966
# Poissons Ratio (z) = 0.16991 0.16991
#
# Static dielectric constant tensor:
#      x y z
#    x 1.968840 0.000000 0.000000 
#    y 0.000000 1.968840 0.000000 
#    z 0.000000 0.000000 1.929740 
# 
# From -- ./inp_files/6290.got.cif
#   From: 2010.05.17/outbox.cif.g08.bks.cpg/sg112_4_cif.got.tgz:6290.got - 2010.05.20 10:59:04.
