data_PCOD9555011
_publ_section_title
;
Structure prediction by ZEFSAII (Michael W. Deem and Ramdas Pophale) SiO2 
 PCOD9555011
Probable space group: P -4 2 C
;
_chemical_formula_sum "Si O2"
_cell_formula_units_Z 34
_cell_length_a 9.915420
_cell_length_b 9.915420
_cell_length_c 17.408493
_cell_angle_alpha 90.000000
_cell_angle_beta 90.000000
_cell_angle_gamma 90.000000
_cell_volume 1711.525630
_symmetry_space_group_name_H-M "P -4 2 C"
_symmetry_group_IT_number 112
_symmetry_cell_setting 'tetragonal'
loop_
_space_group_symop_operation_xyz
x,y,z
y,-x,-z
-x,-y,z
-y,x,-z
x,-y,1/2-z
-x,y,1/2-z
-y,-x,1/2+z
y,x,1/2+z
loop_
_atom_site_type_symbol
_atom_site_label
_atom_site_fract_x
_atom_site_fract_y
_atom_site_fract_z
Si Si1 0.500000 0.000000 0.750000
Si Si2 0.341086 0.537778 0.662359
Si Si3 0.339279 0.154994 0.876968
Si Si4 0.056107 0.190168 0.025684
Si Si5 0.474332 0.848819 0.027441
O O1 0.587105 0.908051 0.804891
O O2 0.500000 0.500000 0.653701
O O3 0.304330 0.500000 0.750000
O O4 0.305662 0.694808 0.649083
O O5 0.257580 0.477379 0.590895
O O6 0.232325 0.042474 0.904886
O O7 0.440640 0.167002 0.949465
O O8 0.145615 0.316450 0.998141
O O9 0.942269 0.146629 0.962830
O O10 0.500000 0.000000 0.057464
#
# Coordination Sequence:
#
# PCOD9555011 Si02
#       5
#     2   8   8   8   8
#     4  12  20  40  62  90 134 164 220 278 338 400
#     4  11  25  43  63 100 138 176 224 279 346 412
#     4  11  23  39  64  97 128 174 223 275 344 407
#     4  10  19  38  68  94 125 166 224 277 324 405
#     4  10  22  41  66  97 130 177 220 279 346 406
#
# _framework density 19.865316
#
# number of rings (size 3 to 8) (size 9 to 14) (size 15 to 20)
#    0.000    1.412    5.882    1.412    3.294    0.471 
#    8.471    0.000    0.000    2.824    0.000    0.000 
#    0.000    0.000    0.000    0.000    0.000    0.000 
#
# Total GULP energy -189479.642338 kJ/mol
# GULP energy per Si atom -5572.930657 kJ/mol
# Density = 1.982010 g / cm^3
# Si number density = 19.865316 Si / 1000 Ang^3
#
#
#
# Elastic Constant Matrix: (Units=GPa)
#
#
# Indices 1 2 3 4 5 6 
#
# 1 70.0974 -3.3921 45.6481 0.0000 0.0000 0.0000
# 2 -3.3921 70.0974 45.6481 0.0000 0.0000 0.0000
# 3 45.6481 45.6481 152.2136 0.0000 0.0000 0.0000
# 4 0.0000 0.0000 0.0000 54.8740 0.0000 0.0000
# 5 0.0000 0.0000 0.0000 0.0000 54.8740 0.0000
# 6 0.0000 0.0000 0.0000 0.0000 0.0000 26.5270
#
#
#
# Elastic Compliance Matrix: (Units=1/GPa)
#
#
# Indices 1 2 3 4 5 6 
#
# 1 0.019518 0.005911 -0.007626 0.000000 0.000000 0.000000
# 2 0.005911 0.019518 -0.007626 0.000000 0.000000 0.000000
# 3 -0.007626 -0.007626 0.011144 0.000000 0.000000 0.000000
# 4 0.000000 0.000000 0.000000 0.018224 0.000000 0.000000
# 5 0.000000 0.000000 0.000000 0.000000 0.018224 0.000000
# 6 0.000000 0.000000 0.000000 0.000000 0.000000 0.037697
#
#
# Mechanical properties :
#
#
# Convention : Reuss Voigt Hill
#
# Bulk Modulus (GPa) = 31.74897 52.02409 41.88653
# Shear Modulus (GPa) = 32.57212 40.88861 36.73036
#
# Velocity S-wave (km/s) = 4.05365 4.54176 4.30463
# Velocity P-wave (km/s) = 6.15843 7.33135 6.77034
#
# Compressibility (1/GPa) = 0.03149709
#
# Stress axis : x y z
#
# Youngs Moduli (GPa) = 51.23492 51.23492 89.73725
#
# Poissons Ratio (x) = -0.30283 0.68433
# Poissons Ratio (y) = -0.30283 0.68433
# Poissons Ratio (z) = 0.39071 0.39071
#
# Static dielectric constant tensor:
#      x y z
#    x 1.453710 0.000000 0.000000 
#    y 0.000000 1.453710 0.000000 
#    z 0.000000 0.000000 1.662660 
# 
# From -- ./inp_files/3219.got.cif
#   From: 2010.05.17/outbox.cif.g08.bks.cpg/sg112_2_cif.got.tgz:3219.got - 2010.05.20 10:59:04.
