data_PCOD9555210
_publ_section_title
;
Structure prediction by ZEFSAII (Michael W. Deem and Ramdas Pophale) SiO2 
 PCOD9555210
Probable space group: P -4 2 C
;
_chemical_formula_sum "Si O2"
_cell_formula_units_Z 48
_cell_length_a 22.383589
_cell_length_b 22.383589
_cell_length_c 5.448088
_cell_angle_alpha 90.000000
_cell_angle_beta 90.000000
_cell_angle_gamma 90.000000
_cell_volume 2729.628598
_symmetry_space_group_name_H-M "P -4 2 C"
_symmetry_group_IT_number 112
_symmetry_cell_setting 'tetragonal'
loop_
_space_group_symop_operation_xyz
x,y,z
y,-x,-z
-x,-y,z
-y,x,-z
x,-y,1/2-z
-x,y,1/2-z
-y,-x,1/2+z
y,x,1/2+z
loop_
_atom_site_type_symbol
_atom_site_label
_atom_site_fract_x
_atom_site_fract_y
_atom_site_fract_z
Si Si1 0.627189 0.148820 0.558342
Si Si2 0.223752 0.000000 0.250000
Si Si3 0.263545 0.786009 0.404539
Si Si4 0.837222 0.888727 0.066737
Si Si5 0.063384 0.569877 0.647903
Si Si6 0.942068 0.309945 0.392926
Si Si7 0.135078 0.500000 0.250000
O O1 0.666605 0.198654 0.429115
O O2 0.603999 0.103486 0.349257
O O3 0.677370 0.117633 0.737099
O O4 0.564179 0.166143 0.690174
O O5 0.183151 0.042268 0.079794
O O6 0.266161 0.050890 0.376454
O O7 0.244150 0.748102 0.642145
O O8 0.220162 0.844177 0.420670
O O9 0.874021 0.871444 0.313157
O O10 0.046100 0.622213 0.462195
O O11 0.095809 0.518701 0.488613
O O12 0.000000 0.554121 0.750000
O O13 0.000000 0.288359 0.250000
#
# Coordination Sequence:
#
# PCOD9555210 Si02
#       7
#     8   4   8   8   8   8   4
#     4  11  23  38  55  79 116 149 197 236 291 336
#     4  12  24  36  64  83 109 140 176 230 300 356
#     4  10  23  40  62  85 114 148 186 247 296 342
#     4  10  24  41  59  87 113 136 177 230 294 365
#     4  11  21  38  49  76 110 151 194 236 279 331
#     4  11  20  33  53  82 101 142 181 231 277 342
#     4  10  26  35  56  74 116 160 194 245 276 346
#
# _framework density 17.584810000000001
#
# number of rings (size 3 to 8) (size 9 to 14) (size 15 to 20)
#    0.000    1.333    2.500    2.500   14.000    2.000 
#    0.000    0.000    0.000    1.500    0.000    0.000 
#    0.000    0.000    0.000    0.000    0.000    2.500 
#
# Total GULP energy -267296.830330 kJ/mol
# GULP energy per Si atom -5568.683965 kJ/mol
# Density = 1.754479 g / cm^3
# Si number density = 17.584810 Si / 1000 Ang^3
#
#
#
# Elastic Constant Matrix: (Units=GPa)
#
#
# Indices 1 2 3 4 5 6 
#
# 1 69.6722 34.6688 24.8345 0.0000 0.0000 0.0000
# 2 34.6688 69.6722 24.8345 0.0000 0.0000 0.0000
# 3 24.8345 24.8345 80.8010 0.0000 0.0000 0.0000
# 4 0.0000 0.0000 0.0000 -18.2927 0.0000 0.0000
# 5 0.0000 0.0000 0.0000 0.0000 -18.2927 0.0000
# 6 0.0000 0.0000 0.0000 0.0000 0.0000 -22.7784
#
#
#
# Elastic Compliance Matrix: (Units=1/GPa)
#
#
# Indices 1 2 3 4 5 6 
#
# 1 0.019898 -0.008671 -0.003451 0.000000 0.000000 0.000000
# 2 -0.008671 0.019898 -0.003451 0.000000 0.000000 0.000000
# 3 -0.003451 -0.003451 0.014497 0.000000 0.000000 0.000000
# 4 0.000000 0.000000 0.000000 -0.054667 0.000000 0.000000
# 5 0.000000 0.000000 0.000000 0.000000 -0.054667 0.000000
# 6 0.000000 0.000000 0.000000 0.000000 0.000000 -0.043901
#
#
# Mechanical properties :
#
#
# Convention : Reuss Voigt Hill
#
# Bulk Modulus (GPa) = 43.20013 43.20236 43.20124
# Shear Modulus (GPa) = -83.21955 -2.81892 -43.01923
#
# Velocity S-wave (km/s) = -6.88676 -1.26749 -4.95146
# Velocity P-wave (km/s) = 6.21422 4.74123 2.84053
#
# Compressibility (1/GPa) = 0.02314808
#
# Stress axis : x y z
#
# Youngs Moduli (GPa) = 50.25738 50.25738 68.97914
#
# Poissons Ratio (x) = 0.43579 0.23801
# Poissons Ratio (y) = 0.43579 0.23801
# Poissons Ratio (z) = 0.17341 0.17341
#
# Static dielectric constant tensor:
#      x y z
#    x 1.679520 0.000000 0.000000 
#    y 0.000000 1.679520 0.000000 
#    z 0.000000 0.000000 2.450340 
# 
# From -- ./inp_files/391.got.cif
#   From: 2010.05.17/outbox.cif.g08.bks.cpg/sg112_1_cif.got.tgz:391.got - 2010.05.20 10:59:04.
