data_PCOD9555683
_publ_section_title
;
Structure prediction by ZEFSAII (Michael W. Deem and Ramdas Pophale) SiO2 
 PCOD9555683
Probable space group: P -4 21 M 
;
_chemical_formula_sum "Si O2"
_cell_formula_units_Z 40
_cell_length_a 10.798637
_cell_length_b 10.798637
_cell_length_c 16.575117
_cell_angle_alpha 90.000000
_cell_angle_beta 90.000000
_cell_angle_gamma 90.000000
_cell_volume 1932.833693
_symmetry_space_group_name_H-M "P -4 21 M "
_symmetry_group_IT_number 113
_symmetry_cell_setting 'tetragonal'
loop_
_space_group_symop_operation_xyz
x,y,z
y,-x,-z
-x,-y,z
-y,x,-z
1/2+x,1/2-y,-z
1/2-x,1/2+y,-z
1/2-y,1/2-x,z
1/2+y,1/2+x,z
loop_
_atom_site_type_symbol
_atom_site_label
_atom_site_fract_x
_atom_site_fract_y
_atom_site_fract_z
Si Si1 0.027780 0.716544 0.164574
Si Si2 0.235427 0.924961 0.183917
Si Si3 0.006365 0.208172 0.992354
Si Si4 0.628870 0.345047 0.529070
Si Si5 0.850168 0.157190 0.716560
O O1 0.093241 0.593241 0.194511
O O2 0.132879 0.821791 0.165810
O O3 0.923056 0.767755 0.222544
O O4 0.993371 0.705920 0.070561
O O5 0.356700 0.856700 0.216212
O O6 0.264276 0.985215 0.096787
O O7 0.170295 0.015685 0.245768
O O8 0.122022 0.115420 0.005658
O O9 0.487849 0.328643 0.493028
O O10 0.735593 0.235593 0.510877
O O11 0.609944 0.344049 0.625735
O O12 0.794172 0.294172 0.715498
#
# Coordination Sequence:
#
# PCOD9555683 Si02
#       5
#     8   8   8   8   8
#     4  10  21  36  60  90 121 165 215 261 311 367
#     4  10  21  36  60  90 121 165 215 261 311 367
#     4   9  16  32  54  81 122 170 213 264 313 358
#     4  10  25  47  74 105 136 176 220 272 343 416
#     4  11  24  42  62  89 130 163 199 262 322 381
#
# _framework density 20.695004000000001
#
# number of rings (size 3 to 8) (size 9 to 14) (size 15 to 20)
#    0.000    2.000    2.000    0.600    5.600    4.400 
#    0.000    4.000    0.000    0.000    0.000    0.000 
#    0.000    0.000    0.000    0.000    0.000    0.000 
#
# Total GULP energy -222983.143093 kJ/mol
# GULP energy per Si atom -5574.578577 kJ/mol
# Density = 2.064790 g / cm^3
# Si number density = 20.695004 Si / 1000 Ang^3
#
#
#
# Elastic Constant Matrix: (Units=GPa)
#
#
# Indices 1 2 3 4 5 6 
#
# 1 31.9571 88.5999 20.4679 0.0000 0.0000 0.0000
# 2 88.5999 31.9571 20.4679 0.0000 0.0000 0.0000
# 3 20.4679 20.4679 77.1400 0.0000 0.0000 0.0000
# 4 0.0000 0.0000 0.0000 -127.3372 0.0000 0.0000
# 5 0.0000 0.0000 0.0000 0.0000 -127.3372 0.0000
# 6 0.0000 0.0000 0.0000 0.0000 0.0000 18.4350
#
#
#
# Elastic Compliance Matrix: (Units=1/GPa)
#
#
# Indices 1 2 3 4 5 6 
#
# 1 -0.004269 0.013385 -0.002419 0.000000 0.000000 0.000000
# 2 0.013385 -0.004269 -0.002419 0.000000 0.000000 0.000000
# 3 -0.002419 -0.002419 0.014247 0.000000 0.000000 0.000000
# 4 0.000000 0.000000 0.000000 -0.007853 0.000000 0.000000
# 5 0.000000 0.000000 0.000000 0.000000 -0.007853 0.000000
# 6 0.000000 0.000000 0.000000 0.000000 0.000000 0.054245
#
#
# Mechanical properties :
#
#
# Convention : Reuss Voigt Hill
#
# Bulk Modulus (GPa) = 43.85191 44.45841 44.15516
# Shear Modulus (GPa) = 143.87174 -46.48000 48.69587
#
# Velocity S-wave (km/s) = 8.34691 -4.74429 4.85606
# Velocity P-wave (km/s) = 10.68317 2.91234 7.26803
#
# Compressibility (1/GPa) = 0.02280402
#
# Stress axis : x y z
#
# Youngs Moduli (GPa) = -234.23815 -234.23815 70.19002
#
# Poissons Ratio (x) = 3.13535 0.16978
# Poissons Ratio (y) = 3.13535 0.16978
# Poissons Ratio (z) = -0.56658 -0.56658
#
# Static dielectric constant tensor:
#      x y z
#    x 1.798190 0.000000 0.000000 
#    y 0.000000 1.798190 0.000000 
#    z 0.000000 0.000000 1.726590 
# 
# From -- ./inp_files/2146.got.cif
#   From: 2010.05.17/outbox.cif.g08.bks.cpg/sg113_cif.got.tgz:2146.got - 2010.05.20 11:03:00.
