data_PCOD9555115
_publ_section_title
;
Structure prediction by ZEFSAII (Michael W. Deem and Ramdas Pophale) SiO2 
 PCOD9555115
Probable space group: P -4 2 C
;
_chemical_formula_sum "Si O2"
_cell_formula_units_Z 34
_cell_length_a 12.062690
_cell_length_b 12.062690
_cell_length_c 12.288172
_cell_angle_alpha 90.000000
_cell_angle_beta 90.000000
_cell_angle_gamma 90.000000
_cell_volume 1788.033353
_symmetry_space_group_name_H-M "P -4 2 C"
_symmetry_group_IT_number 112
_symmetry_cell_setting 'tetragonal'
loop_
_space_group_symop_operation_xyz
x,y,z
y,-x,-z
-x,-y,z
-y,x,-z
x,-y,1/2-z
-x,y,1/2-z
-y,-x,1/2+z
y,x,1/2+z
loop_
_atom_site_type_symbol
_atom_site_label
_atom_site_fract_x
_atom_site_fract_y
_atom_site_fract_z
Si Si1 0.557365 0.122324 0.891446
Si Si2 0.000000 0.500000 0.750000
Si Si3 0.674163 0.168179 0.663442
Si Si4 0.024640 0.822987 0.997614
Si Si5 0.674564 0.130684 0.115940
O O1 0.632453 0.129245 0.782707
O O2 0.445845 0.196893 0.888401
O O3 0.500000 0.000000 0.899344
O O4 0.633178 0.152059 0.993105
O O5 0.081899 0.427620 0.821260
O O6 0.740803 0.079918 0.586275
O O7 0.762357 0.267616 0.667038
O O8 0.916366 0.888730 0.040407
O O9 0.973502 0.757754 0.896495
#
# Coordination Sequence:
#
# PCOD9555115 Si02
#       5
#     8   2   8   8   8
#     4  11  21  40  63  90 123 165 215 262 297 377
#     4  12  24  44  56  86 124 160 204 252 340 386
#     4  10  21  36  63  90 116 165 214 255 312 378
#     4   9  18  34  56  90 128 159 199 253 313 382
#     4  11  23  38  62  87 124 164 200 264 320 385
#
# _framework density 19.015305999999999
#
# number of rings (size 3 to 8) (size 9 to 14) (size 15 to 20)
#    0.000    1.647    3.529    1.412    0.000    5.647 
#    0.000    0.000    0.000   17.647    0.000    0.000 
#    0.000    0.000    0.000    0.000    0.000    0.000 
#
# Total GULP energy -189469.973262 kJ/mol
# GULP energy per Si atom -5572.646272 kJ/mol
# Density = 1.897203 g / cm^3
# Si number density = 19.015306 Si / 1000 Ang^3
#
#
#
# Elastic Constant Matrix: (Units=GPa)
#
#
# Indices 1 2 3 4 5 6 
#
# 1 108.0957 52.6681 33.0913 0.0000 0.0000 0.0000
# 2 52.6681 108.0957 33.0913 0.0000 0.0000 0.0000
# 3 33.0913 33.0913 55.9504 0.0000 0.0000 0.0000
# 4 0.0000 0.0000 0.0000 56.2838 0.0000 0.0000
# 5 0.0000 0.0000 0.0000 0.0000 56.2838 0.0000
# 6 0.0000 0.0000 0.0000 0.0000 0.0000 27.9987
#
#
#
# Elastic Compliance Matrix: (Units=1/GPa)
#
#
# Indices 1 2 3 4 5 6 
#
# 1 0.013132 -0.004910 -0.004863 0.000000 0.000000 0.000000
# 2 -0.004910 0.013132 -0.004863 0.000000 0.000000 0.000000
# 3 -0.004863 -0.004863 0.023625 0.000000 0.000000 0.000000
# 4 0.000000 0.000000 0.000000 0.017767 0.000000 0.000000
# 5 0.000000 0.000000 0.000000 0.000000 0.017767 0.000000
# 6 0.000000 0.000000 0.000000 0.000000 0.000000 0.035716
#
#
# Mechanical properties :
#
#
# Convention : Reuss Voigt Hill
#
# Bulk Modulus (GPa) = 48.50150 56.64925 52.57538
# Shear Modulus (GPa) = 31.78981 38.33267 35.06124
#
# Velocity S-wave (km/s) = 4.09320 4.49473 4.29866
# Velocity P-wave (km/s) = 6.92106 7.53611 7.23512
#
# Compressibility (1/GPa) = 0.02061792
#
# Stress axis : x y z
#
# Youngs Moduli (GPa) = 76.15033 76.15033 42.32754
#
# Poissons Ratio (x) = 0.37387 0.20584
# Poissons Ratio (y) = 0.37387 0.20584
# Poissons Ratio (z) = 0.37032 0.37032
#
# Static dielectric constant tensor:
#      x y z
#    x 1.708400 0.000000 0.000000 
#    y 0.000000 1.708400 0.000000 
#    z 0.000000 0.000000 1.717150 
# 
# From -- ./inp_files/2263.got.cif
#   From: 2010.05.17/outbox.cif.g08.bks.cpg/sg112_2_cif.got.tgz:2263.got - 2010.05.20 10:59:04.
