data_PCOD9555778
_publ_section_title
;
Structure prediction by ZEFSAII (Michael W. Deem and Ramdas Pophale) SiO2 
 PCOD9555778
Probable space group: P -4 21 M 
;
_chemical_formula_sum "Si O2"
_cell_formula_units_Z 40
_cell_length_a 11.050664
_cell_length_b 11.050664
_cell_length_c 16.625970
_cell_angle_alpha 90.000000
_cell_angle_beta 90.000000
_cell_angle_gamma 90.000000
_cell_volume 2030.316485
_symmetry_space_group_name_H-M "P -4 21 M "
_symmetry_group_IT_number 113
_symmetry_cell_setting 'tetragonal'
loop_
_space_group_symop_operation_xyz
x,y,z
y,-x,-z
-x,-y,z
-y,x,-z
1/2+x,1/2-y,-z
1/2-x,1/2+y,-z
1/2-y,1/2-x,z
1/2+y,1/2+x,z
loop_
_atom_site_type_symbol
_atom_site_label
_atom_site_fract_x
_atom_site_fract_y
_atom_site_fract_z
Si Si1 0.226889 0.463442 0.922260
Si Si2 0.362532 0.344037 0.377694
Si Si3 0.258905 0.572811 0.095581
Si Si4 0.499379 0.203407 0.510533
Si Si5 0.150664 0.849932 0.802974
O O1 0.104737 0.395264 0.897678
O O2 0.331514 0.362667 0.926212
O O3 0.271915 0.562104 0.859104
O O4 0.215805 0.515256 0.011791
O O5 0.263828 0.236173 0.374193
O O6 0.465504 0.290000 0.435826
O O7 0.291714 0.456140 0.418278
O O8 0.400977 0.368669 0.286421
O O9 0.147463 0.647463 0.132708
O O10 0.316929 0.473866 0.153018
O O11 0.382964 0.117036 0.528635
O O12 0.610321 0.110321 0.493173
O O13 0.274492 0.774492 0.796176
#
# Coordination Sequence:
#
# PCOD9555778 Si02
#       5
#     8   8   8   8   8
#     4  11  23  40  61  86 121 164 205 249 300 356
#     4   9  20  38  60  88 118 153 200 243 292 358
#     4  11  23  40  61  86 121 164 205 249 300 356
#     4   9  18  37  62  86 120 159 194 243 298 352
#     4  11  23  39  61  91 124 157 200 255 304 356
#
# _framework density 19.701360000000001
#
# number of rings (size 3 to 8) (size 9 to 14) (size 15 to 20)
#    0.000    1.800    2.000    1.800    0.000    4.800 
#    7.200    4.000    0.000    0.000    0.000    0.000 
#    0.000    0.000    0.000    0.000    0.000    0.000 
#
# Total GULP energy -223355.088740 kJ/mol
# GULP energy per Si atom -5583.877219 kJ/mol
# Density = 1.965652 g / cm^3
# Si number density = 19.701360 Si / 1000 Ang^3
#
#
#
# Elastic Constant Matrix: (Units=GPa)
#
#
# Indices 1 2 3 4 5 6 
#
# 1 9.6656 75.8949 14.3775 0.0000 0.0000 0.0000
# 2 75.8949 9.6607 14.3797 0.0000 0.0000 0.0000
# 3 14.3775 14.3797 94.1800 0.0000 0.0000 0.0000
# 4 0.0000 0.0000 0.0000 32.3531 0.0000 0.0000
# 5 0.0000 0.0000 0.0000 0.0000 32.3537 0.0000
# 6 0.0000 0.0000 0.0000 0.0000 0.0000 34.7005
#
#
#
# Elastic Compliance Matrix: (Units=1/GPa)
#
#
# Indices 1 2 3 4 5 6 
#
# 1 -0.001389 0.013709 -0.001881 0.000000 0.000000 0.000000
# 2 0.013709 -0.001390 -0.001881 0.000000 0.000000 0.000000
# 3 -0.001881 -0.001881 0.011192 0.000000 0.000000 0.000000
# 4 0.000000 0.000000 0.000000 0.030909 0.000000 0.000000
# 5 0.000000 0.000000 0.000000 0.000000 0.030908 0.000000
# 6 0.000000 0.000000 0.000000 0.000000 0.000000 0.028818
#
#
# Mechanical properties :
#
#
# Convention : Reuss Voigt Hill
#
# Bulk Modulus (GPa) = 35.32458 35.86784 35.59621
# Shear Modulus (GPa) = 56.43937 20.47175 38.45556
#
# Velocity S-wave (km/s) = 5.35814 3.22701 4.42285
# Velocity P-wave (km/s) = 7.49990 5.66834 6.64750
#
# Compressibility (1/GPa) = 0.02830890
#
# Stress axis : x y z
#
# Youngs Moduli (GPa) = -720.12807 -719.59295 89.34716
#
# Poissons Ratio (x) = 9.86515 0.16808
# Poissons Ratio (y) = 9.87248 0.16803
# Poissons Ratio (z) = -1.35470 -1.35333
#
# Static dielectric constant tensor:
#      x y z
#    x 1.696290 0.000000 0.000000 
#    y 0.000000 1.696290 0.000000 
#    z 0.000000 0.000000 1.668290 
# 
# From -- ./inp_files/2152.got.cif
#   From: 2010.05.17/outbox.cif.g08.bks.cpg/sg113_cif.got.tgz:2152.got - 2010.05.20 11:03:00.
