data_PCOD9555244
_publ_section_title
;
Structure prediction by ZEFSAII (Michael W. Deem and Ramdas Pophale) SiO2 
 PCOD9555244
Probable space group: P -4 2 C
;
_chemical_formula_sum "Si O2"
_cell_formula_units_Z 30
_cell_length_a 8.693158
_cell_length_b 8.693158
_cell_length_c 18.626892
_cell_angle_alpha 90.000000
_cell_angle_beta 90.000000
_cell_angle_gamma 90.000000
_cell_volume 1407.652781
_symmetry_space_group_name_H-M "P -4 2 C"
_symmetry_group_IT_number 112
_symmetry_cell_setting 'tetragonal'
loop_
_space_group_symop_operation_xyz
x,y,z
y,-x,-z
-x,-y,z
-y,x,-z
x,-y,1/2-z
-x,y,1/2-z
-y,-x,1/2+z
y,x,1/2+z
loop_
_atom_site_type_symbol
_atom_site_label
_atom_site_fract_x
_atom_site_fract_y
_atom_site_fract_z
Si Si1 0.325597 0.033057 0.592458
Si Si2 0.738621 0.000000 0.250000
Si Si3 0.292004 0.233589 0.461024
Si Si4 0.000000 0.237879 0.250000
Si Si5 0.000000 0.500000 0.870451
Si Si6 0.500000 0.500000 0.000000
O O1 0.234332 0.878222 0.571654
O O2 0.500000 0.000000 0.571515
O O3 0.272827 0.174202 0.542913
O O4 0.321346 0.054261 0.677919
O O5 0.854747 0.133906 0.227112
O O6 0.631486 0.942417 0.184972
O O7 0.410398 0.122800 0.419124
O O8 0.370477 0.401772 0.458556
#
# Coordination Sequence:
#
# PCOD9555244 Si02
#       6
#     8   4   8   4   4   2
#     4  12  26  44  67 102 140 183 230 289 351 419
#     4  10  24  40  70  94 138 176 230 286 354 424
#     4  12  25  44  73 100 138 181 237 293 347 417
#     4  11  25  42  64 100 137 187 220 288 352 414
#     4  11  22  46  68 103 132 180 232 291 354 414
#     4  12  24  44  68 102 136 176 228 298 352 400
#
# _framework density 21.312072000000001
#
# number of rings (size 3 to 8) (size 9 to 14) (size 15 to 20)
#    0.000    0.533    6.667    0.400    7.467    0.533 
#    0.000    0.000    0.000    1.600    0.000    0.000 
#    0.000    0.000    0.000    0.000    0.000    0.000 
#
# Total GULP energy -167469.529579 kJ/mol
# GULP energy per Si atom -5582.317653 kJ/mol
# Density = 2.126356 g / cm^3
# Si number density = 21.312072 Si / 1000 Ang^3
#
#
#
# Elastic Constant Matrix: (Units=GPa)
#
#
# Indices 1 2 3 4 5 6 
#
# 1 70.7785 10.2091 22.2194 0.0000 0.0000 0.0000
# 2 10.2091 70.7785 22.2194 0.0000 0.0000 0.0000
# 3 22.2194 22.2194 142.6470 0.0000 0.0000 0.0000
# 4 0.0000 0.0000 0.0000 28.6835 0.0000 0.0000
# 5 0.0000 0.0000 0.0000 0.0000 28.6835 0.0000
# 6 0.0000 0.0000 0.0000 0.0000 0.0000 24.1913
#
#
#
# Elastic Compliance Matrix: (Units=1/GPa)
#
#
# Indices 1 2 3 4 5 6 
#
# 1 0.015006 -0.001504 -0.002103 0.000000 0.000000 0.000000
# 2 -0.001504 0.015006 -0.002103 0.000000 0.000000 0.000000
# 3 -0.002103 -0.002103 0.007665 0.000000 0.000000 0.000000
# 4 0.000000 0.000000 0.000000 0.034863 0.000000 0.000000
# 5 0.000000 0.000000 0.000000 0.000000 0.034863 0.000000
# 6 0.000000 0.000000 0.000000 0.000000 0.000000 0.041337
#
#
# Mechanical properties :
#
#
# Convention : Reuss Voigt Hill
#
# Bulk Modulus (GPa) = 38.08611 43.72221 40.90416
# Shear Modulus (GPa) = 29.60093 31.61538 30.60816
#
# Velocity S-wave (km/s) = 3.73088 3.85574 3.79382
# Velocity P-wave (km/s) = 6.03893 6.35469 6.19882
#
# Compressibility (1/GPa) = 0.02625629
#
# Stress axis : x y z
#
# Youngs Moduli (GPa) = 66.64106 66.64106 130.45496
#
# Poissons Ratio (x) = 0.10024 0.27436
# Poissons Ratio (y) = 0.10024 0.27436
# Poissons Ratio (z) = 0.14015 0.14015
#
# Static dielectric constant tensor:
#      x y z
#    x 1.775440 0.000000 0.000000 
#    y 0.000000 1.775440 0.000000 
#    z 0.000000 0.000000 1.800550 
# 
# From -- ./inp_files/4465.got.cif
#   From: 2010.05.17/outbox.cif.g08.bks.cpg/sg112_3_cif.got.tgz:4465.got - 2010.05.20 10:59:04.
