data_PCOD9555863
_publ_section_title
;
Structure prediction by ZEFSAII (Michael W. Deem and Ramdas Pophale) SiO2 
 PCOD9555863
Probable space group: P -4 21 C
;
_chemical_formula_sum "Si O2"
_cell_formula_units_Z 48
_cell_length_a 9.361206
_cell_length_b 9.361206
_cell_length_c 27.529000
_cell_angle_alpha 90.000000
_cell_angle_beta 90.000000
_cell_angle_gamma 90.000000
_cell_volume 2412.426222
_symmetry_space_group_name_H-M "P -4 21 C"
_symmetry_group_IT_number 114
_symmetry_cell_setting 'tetragonal'
loop_
_space_group_symop_operation_xyz
x,y,z
y,-x,-z
-x,-y,z
-y,x,-z
1/2+x,1/2-y,1/2-z
1/2-x,1/2+y,1/2-z
1/2-y,1/2-x,1/2+z
1/2+y,1/2+x,1/2+z
loop_
_atom_site_type_symbol
_atom_site_label
_atom_site_fract_x
_atom_site_fract_y
_atom_site_fract_z
Si Si1 0.302402 0.149347 0.542159
Si Si2 0.653967 0.074671 0.291561
Si Si3 0.959771 0.841756 0.613741
Si Si4 0.152554 0.079482 0.210382
Si Si5 0.235656 0.824371 0.553002
Si Si6 0.522919 0.166752 0.619756
O O1 0.276596 0.238416 0.493690
O O2 0.450506 0.183773 0.567182
O O3 0.190138 0.169570 0.586054
O O4 0.284711 0.979680 0.533821
O O5 0.644020 0.247536 0.283693
O O6 0.500000 0.000000 0.289872
O O7 0.728710 0.042969 0.343205
O O8 0.751602 0.996984 0.251367
O O9 0.072722 0.824417 0.570501
O O10 0.000000 0.000000 0.633897
O O11 0.231791 0.043352 0.159767
O O12 0.000000 0.000000 0.210807
O O13 0.315835 0.799011 0.604334
O O14 0.500000 0.000000 0.634092
#
# Coordination Sequence:
#
# PCOD9555863 Si02
#       6
#     8   8   8   8   8   8
#     4  10  18  39  58  94 127 176 222 276 322 389
#     4  12  27  47  71 103 132 174 219 277 338 407
#     4  10  21  38  69  95 131 171 227 270 325 391
#     4  12  27  48  72  98 135 172 221 277 340 407
#     4  10  20  34  65  92 129 176 227 272 324 388
#     4  10  23  42  65  94 134 175 220 276 335 390
#
# _framework density 19.896982999999999
#
# number of rings (size 3 to 8) (size 9 to 14) (size 15 to 20)
#    0.000    1.333    3.333    2.000    4.667    0.000 
#    6.000    0.000    0.000    0.000    0.000    0.000 
#    0.000    0.000    0.000    0.000    0.000    0.000 
#
# Total GULP energy -267667.715181 kJ/mol
# GULP energy per Si atom -5576.410733 kJ/mol
# Density = 1.985170 g / cm^3
# Si number density = 19.896983 Si / 1000 Ang^3
#
#
#
# Elastic Constant Matrix: (Units=GPa)
#
#
# Indices 1 2 3 4 5 6 
#
# 1 72.5513 44.8072 28.0577 0.0000 0.0000 0.0000
# 2 44.8072 72.5513 28.0577 0.0000 0.0000 0.0000
# 3 28.0577 28.0577 58.6498 0.0000 0.0000 0.0000
# 4 0.0000 0.0000 0.0000 16.3209 0.0000 0.0000
# 5 0.0000 0.0000 0.0000 0.0000 16.3209 0.0000
# 6 0.0000 0.0000 0.0000 0.0000 0.0000 26.2130
#
#
#
# Elastic Compliance Matrix: (Units=1/GPa)
#
#
# Indices 1 2 3 4 5 6 
#
# 1 0.023546 -0.012498 -0.005285 0.000000 0.000000 0.000000
# 2 -0.012498 0.023546 -0.005285 0.000000 0.000000 0.000000
# 3 -0.005285 -0.005285 0.022107 0.000000 0.000000 0.000000
# 4 0.000000 0.000000 0.000000 0.061271 0.000000 0.000000
# 5 0.000000 0.000000 0.000000 0.000000 0.061271 0.000000
# 6 0.000000 0.000000 0.000000 0.000000 0.000000 0.038149
#
#
# Mechanical properties :
#
#
# Convention : Reuss Voigt Hill
#
# Bulk Modulus (GPa) = 43.36111 45.06639 44.21375
# Shear Modulus (GPa) = 17.62336 18.62630 18.12483
#
# Velocity S-wave (km/s) = 2.97935 3.06295 3.02144
# Velocity P-wave (km/s) = 5.80306 5.93363 5.86871
#
# Compressibility (1/GPa) = 0.02306214
#
# Stress axis : x y z
#
# Youngs Moduli (GPa) = 42.47022 42.47022 45.23386
#
# Poissons Ratio (x) = 0.53078 0.23908
# Poissons Ratio (y) = 0.53078 0.23908
# Poissons Ratio (z) = 0.22447 0.22447
#
# Static dielectric constant tensor:
#      x y z
#    x 1.705710 0.000000 0.000000 
#    y 0.000000 1.705710 0.000000 
#    z 0.000000 0.000000 1.669910 
# 
# From -- ./inp_files/3970.got.cif
#   From: 2010.05.17/outbox.cif.g08.bks.cpg/sg114_2_cif.got.tgz:3970.got - 2010.05.20 11:04:54.
