data_PCOD9555425
_publ_section_title
;
Structure prediction by ZEFSAII (Michael W. Deem and Ramdas Pophale) SiO2 
 PCOD9555425
Probable space group: P -4 2 C
;
_chemical_formula_sum "Si O2"
_cell_formula_units_Z 12
_cell_length_a 5.237267
_cell_length_b 5.237267
_cell_length_c 17.789390
_cell_angle_alpha 90.000000
_cell_angle_beta 90.000000
_cell_angle_gamma 90.000000
_cell_volume 487.944567
_symmetry_space_group_name_H-M "P -4 2 C"
_symmetry_group_IT_number 112
_symmetry_cell_setting 'tetragonal'
loop_
_space_group_symop_operation_xyz
x,y,z
y,-x,-z
-x,-y,z
-y,x,-z
x,-y,1/2-z
-x,y,1/2-z
-y,-x,1/2+z
y,x,1/2+z
loop_
_atom_site_type_symbol
_atom_site_label
_atom_site_fract_x
_atom_site_fract_y
_atom_site_fract_z
Si Si1 0.669515 0.746409 0.622366
Si Si2 0.000000 0.500000 0.750000
Si Si3 0.000000 0.000000 0.500000
O O1 0.500000 0.500000 0.605302
O O2 0.826887 0.675512 0.696760
O O3 0.500000 0.000000 0.632618
O O4 0.861117 0.801670 0.554383
#
# Coordination Sequence:
#
# PCOD9555425 Si02
#       3
#     8   2   2
#     4  12  31  53  87 123 175 232 294 371 445 533
#     4  12  30  58  84 132 172 228 306 362 450 534
#     4  12  32  50  80 128 172 226 304 360 448 530
#
# _framework density 24.592960000000001
#
# number of rings (size 3 to 8) (size 9 to 14) (size 15 to 20)
#    0.000    0.000    0.000    5.000   14.000   20.000 
#    0.000    0.000    0.000    0.000    0.000    0.000 
#    0.000    0.000    0.000    0.000    0.000    0.000 
#
# Total GULP energy -67523.703684 kJ/mol
# GULP energy per Si atom -5626.975307 kJ/mol
# Density = 2.453699 g / cm^3
# Si number density = 24.592960 Si / 1000 Ang^3
#
#
#
# Elastic Constant Matrix: (Units=GPa)
#
#
# Indices 1 2 3 4 5 6 
#
# 1 176.4403 97.7707 91.9251 0.0000 0.0000 0.0000
# 2 97.7707 176.4403 91.9251 0.0000 0.0000 0.0000
# 3 91.9251 91.9251 206.7167 0.0000 0.0000 0.0000
# 4 0.0000 0.0000 0.0000 24.1874 0.0000 0.0000
# 5 0.0000 0.0000 0.0000 0.0000 24.1874 0.0000
# 6 0.0000 0.0000 0.0000 0.0000 0.0000 49.2721
#
#
#
# Elastic Compliance Matrix: (Units=1/GPa)
#
#
# Indices 1 2 3 4 5 6 
#
# 1 0.008954 -0.003758 -0.002311 0.000000 0.000000 0.000000
# 2 -0.003758 0.008954 -0.002311 0.000000 0.000000 0.000000
# 3 -0.002311 -0.002311 0.006893 0.000000 0.000000 0.000000
# 4 0.000000 0.000000 0.000000 0.041344 0.000000 0.000000
# 5 0.000000 0.000000 0.000000 0.000000 0.041344 0.000000
# 6 0.000000 0.000000 0.000000 0.000000 0.000000 0.020295
#
#
# Mechanical properties :
#
#
# Convention : Reuss Voigt Hill
#
# Bulk Modulus (GPa) = 124.34533 124.75989 124.55261
# Shear Modulus (GPa) = 33.96237 38.06114 36.01176
#
# Velocity S-wave (km/s) = 3.72018 3.93828 3.83078
# Velocity P-wave (km/s) = 8.31409 8.45696 8.38583
#
# Compressibility (1/GPa) = 0.00804212
#
# Stress axis : x y z
#
# Youngs Moduli (GPa) = 111.68552 111.68552 145.08375
#
# Poissons Ratio (x) = 0.41968 0.33523
# Poissons Ratio (y) = 0.41968 0.33523
# Poissons Ratio (z) = 0.25806 0.25806
#
# Static dielectric constant tensor:
#      x y z
#    x 1.940280 0.000000 0.000000 
#    y 0.000000 1.940280 0.000000 
#    z 0.000000 0.000000 1.886600 
# 
# From -- ./inp_files/3514.got.cif
#   From: 2010.05.17/outbox.cif.g08.bks.cpg/sg112_2_cif.got.tgz:3514.got - 2010.05.20 10:59:04.
