data_PCOD9555282
_publ_section_title
;
Structure prediction by ZEFSAII (Michael W. Deem and Ramdas Pophale) SiO2 
 PCOD9555282
Probable space group: P -4 2 C
;
_chemical_formula_sum "Si O2"
_cell_formula_units_Z 54
_cell_length_a 14.555886
_cell_length_b 14.555886
_cell_length_c 12.159990
_cell_angle_alpha 90.000000
_cell_angle_beta 90.000000
_cell_angle_gamma 90.000000
_cell_volume 2576.383499
_symmetry_space_group_name_H-M "P -4 2 C"
_symmetry_group_IT_number 112
_symmetry_cell_setting 'tetragonal'
loop_
_space_group_symop_operation_xyz
x,y,z
y,-x,-z
-x,-y,z
-y,x,-z
x,-y,1/2-z
-x,y,1/2-z
-y,-x,1/2+z
y,x,1/2+z
loop_
_atom_site_type_symbol
_atom_site_label
_atom_site_fract_x
_atom_site_fract_y
_atom_site_fract_z
Si Si1 0.188753 0.628615 0.656450
Si Si2 0.777445 0.673524 0.374969
Si Si3 0.913063 0.163950 0.101775
Si Si4 0.582792 0.155712 0.404665
Si Si5 0.379484 0.101789 0.698400
Si Si6 0.000000 0.500000 0.026864
Si Si7 0.902754 0.245741 0.476790
Si Si8 0.000000 0.000000 0.750000
O O1 0.288689 0.675715 0.643696
O O2 0.187027 0.523673 0.613095
O O3 0.161154 0.627567 0.784594
O O4 0.121168 0.692253 0.582451
O O5 0.841405 0.763147 0.348298
O O6 0.791561 0.637634 0.499147
O O7 0.822711 0.601888 0.290706
O O8 0.943285 0.074785 0.174151
O O9 0.994042 0.228610 0.060192
O O10 0.857482 0.129218 0.996743
O O11 0.572081 0.052284 0.450592
O O12 0.454439 0.073958 0.607554
O O13 0.297327 0.141901 0.624903
O O14 0.359909 0.000000 0.750000
#
# Coordination Sequence:
#
# PCOD9555282 Si02
#       8
#     8   8   8   8   8   4   8   2
#     4  10  26  44  69  98 140 188 224 296 365 444
#     4  11  25  43  71  97 138 182 236 300 349 439
#     4  11  23  40  60  90 126 187 241 292 333 406
#     4  11  24  47  66 104 142 180 237 291 370 434
#     4  12  22  40  62  94 136 175 229 284 346 417
#     4  12  23  39  66 104 136 179 231 288 356 434
#     4  11  22  43  61  90 132 182 241 285 347 410
#     4  12  24  46  64  88 140 194 254 308 340 406
#
# _framework density 20.959612
#
# number of rings (size 3 to 8) (size 9 to 14) (size 15 to 20)
#    0.000    0.889    4.444    2.000    4.148    1.185 
#    8.000    0.000    0.000    0.444    0.000    2.074 
#    0.000    0.000    0.000    0.000    0.000    0.000 
#
# Total GULP energy -301011.153030 kJ/mol
# GULP energy per Si atom -5574.280612 kJ/mol
# Density = 2.091191 g / cm^3
# Si number density = 20.959612 Si / 1000 Ang^3
#
#
#
# Elastic Constant Matrix: (Units=GPa)
#
#
# Indices 1 2 3 4 5 6 
#
# 1 78.5560 23.9597 52.4511 0.0000 0.0000 0.0000
# 2 23.9597 78.5560 52.4511 0.0000 0.0000 0.0000
# 3 52.4511 52.4511 171.4738 0.0000 0.0000 0.0000
# 4 0.0000 0.0000 0.0000 22.8053 0.0000 0.0000
# 5 0.0000 0.0000 0.0000 0.0000 22.8053 0.0000
# 6 0.0000 0.0000 0.0000 0.0000 0.0000 35.0614
#
#
#
# Elastic Compliance Matrix: (Units=1/GPa)
#
#
# Indices 1 2 3 4 5 6 
#
# 1 0.016258 -0.002059 -0.004343 0.000000 0.000000 0.000000
# 2 -0.002059 0.016258 -0.004343 0.000000 0.000000 0.000000
# 3 -0.004343 -0.004343 0.008489 0.000000 0.000000 0.000000
# 4 0.000000 0.000000 0.000000 0.043850 0.000000 0.000000
# 5 0.000000 0.000000 0.000000 0.000000 0.043850 0.000000
# 6 0.000000 0.000000 0.000000 0.000000 0.000000 0.028521
#
#
# Mechanical properties :
#
#
# Convention : Reuss Voigt Hill
#
# Bulk Modulus (GPa) = 51.24576 65.14552 58.19564
# Shear Modulus (GPa) = 26.99502 29.44931 28.22216
#
# Velocity S-wave (km/s) = 3.59270 3.75247 3.67345
# Velocity P-wave (km/s) = 6.45855 7.06566 6.76892
#
# Compressibility (1/GPa) = 0.01951381
#
# Stress axis : x y z
#
# Youngs Moduli (GPa) = 61.50973 61.50973 117.80160
#
# Poissons Ratio (x) = 0.12663 0.51164
# Poissons Ratio (y) = 0.12663 0.51164
# Poissons Ratio (z) = 0.26715 0.26715
#
# Static dielectric constant tensor:
#      x y z
#    x 1.892080 0.000000 0.000000 
#    y 0.000000 1.892080 0.000000 
#    z 0.000000 0.000000 1.834630 
# 
# From -- ./inp_files/2693.got.cif
#   From: 2010.05.17/outbox.cif.g08.bks.cpg/sg112_2_cif.got.tgz:2693.got - 2010.05.20 10:59:04.
