data_PCOD9555167
_publ_section_title
;
Structure prediction by ZEFSAII (Michael W. Deem and Ramdas Pophale) SiO2 
 PCOD9555167
Probable space group: P -4 2 C
;
_chemical_formula_sum "Si O2"
_cell_formula_units_Z 56
_cell_length_a 15.798781
_cell_length_b 15.798781
_cell_length_c 10.525614
_cell_angle_alpha 90.000000
_cell_angle_beta 90.000000
_cell_angle_gamma 90.000000
_cell_volume 2627.208844
_symmetry_space_group_name_H-M "P -4 2 C"
_symmetry_group_IT_number 112
_symmetry_cell_setting 'tetragonal'
loop_
_space_group_symop_operation_xyz
x,y,z
y,-x,-z
-x,-y,z
-y,x,-z
x,-y,1/2-z
-x,y,1/2-z
-y,-x,1/2+z
y,x,1/2+z
loop_
_atom_site_type_symbol
_atom_site_label
_atom_site_fract_x
_atom_site_fract_y
_atom_site_fract_z
Si Si1 0.409036 0.391768 0.009298
Si Si2 0.909531 0.163308 0.724145
Si Si3 0.735904 0.912905 0.881267
Si Si4 0.310537 0.344209 0.251822
Si Si5 0.299519 0.087652 0.486081
Si Si6 0.870920 0.411610 0.312261
Si Si7 0.755373 0.798110 0.091138
O O1 0.363565 0.341355 0.894036
O O2 0.384823 0.490365 0.002982
O O3 0.382901 0.362095 0.148830
O O4 0.831553 0.112764 0.659564
O O5 0.922481 0.253141 0.649825
O O6 0.873785 0.186709 0.860659
O O7 0.000000 0.121028 0.750000
O O8 0.668772 0.905842 0.767612
O O9 0.735601 0.005154 0.941682
O O10 0.701515 0.842419 0.982067
O O11 0.230278 0.401504 0.210146
O O12 0.284480 0.248235 0.212977
O O13 0.395541 0.096974 0.542482
O O14 0.266866 0.179774 0.529221
O O15 0.897495 0.500000 0.250000
#
# Coordination Sequence:
#
# PCOD9555167 Si02
#       7
#     8   8   8   8   8   8   8
#     4  11  23  39  61  92 127 164 205 260 325 387
#     4  11  21  40  65  89 121 169 209 252 326 386
#     4  11  21  40  62  90 125 157 207 263 316 384
#     4  11  22  39  62  88 126 163 211 261 313 384
#     4  10  22  37  62  87 124 159 204 258 315 375
#     4  11  23  38  62  92 120 162 213 261 317 377
#     4  10  22  38  62  88 117 165 204 255 311 381
#
# _framework density 21.315396
#
# number of rings (size 3 to 8) (size 9 to 14) (size 15 to 20)
#    0.000    1.286    4.286    3.000    4.000    2.286 
#    0.000    1.429    0.000    0.000    0.000    0.000 
#    0.000    0.000    0.000    0.000    0.000    0.000 
#
# Total GULP energy -311873.958295 kJ/mol
# GULP energy per Si atom -5569.177827 kJ/mol
# Density = 2.126688 g / cm^3
# Si number density = 21.315396 Si / 1000 Ang^3
#
#
#
# Elastic Constant Matrix: (Units=GPa)
#
#
# Indices 1 2 3 4 5 6 
#
# 1 82.1258 15.7232 8.8064 0.0000 0.0000 0.0000
# 2 15.7232 82.1258 8.8064 0.0000 0.0000 0.0000
# 3 8.8064 8.8064 62.1031 0.0000 0.0000 0.0000
# 4 0.0000 0.0000 0.0000 34.4537 0.0000 0.0000
# 5 0.0000 0.0000 0.0000 0.0000 34.4537 0.0000
# 6 0.0000 0.0000 0.0000 0.0000 0.0000 5.2525
#
#
#
# Elastic Compliance Matrix: (Units=1/GPa)
#
#
# Indices 1 2 3 4 5 6 
#
# 1 0.012774 -0.002286 -0.001487 0.000000 0.000000 0.000000
# 2 -0.002286 0.012774 -0.001487 0.000000 0.000000 0.000000
# 3 -0.001487 -0.001487 0.016524 0.000000 0.000000 0.000000
# 4 0.000000 0.000000 0.000000 0.029024 0.000000 0.000000
# 5 0.000000 0.000000 0.000000 0.000000 0.029024 0.000000
# 6 0.000000 0.000000 0.000000 0.000000 0.000000 0.190386
#
#
# Mechanical properties :
#
#
# Convention : Reuss Voigt Hill
#
# Bulk Modulus (GPa) = 31.69533 32.55855 32.12694
# Shear Modulus (GPa) = 16.04910 27.69990 21.87450
#
# Velocity S-wave (km/s) = 2.74694 3.60880 3.20696
# Velocity P-wave (km/s) = 4.99629 5.71598 5.36821
#
# Compressibility (1/GPa) = 0.03155039
#
# Stress axis : x y z
#
# Youngs Moduli (GPa) = 78.28657 78.28657 60.51791
#
# Poissons Ratio (x) = 0.17897 0.09000
# Poissons Ratio (y) = 0.17897 0.09000
# Poissons Ratio (z) = 0.11643 0.11643
#
# Static dielectric constant tensor:
#      x y z
#    x 1.829020 0.000000 0.000000 
#    y 0.000000 1.829020 0.000000 
#    z 0.000000 0.000000 1.859160 
# 
# From -- ./inp_files/2658.got.cif
#   From: 2010.05.17/outbox.cif.g08.bks.cpg/sg112_2_cif.got.tgz:2658.got - 2010.05.20 10:59:04.
