data_PCOD9555520
_publ_section_title
;
Structure prediction by ZEFSAII (Michael W. Deem and Ramdas Pophale) SiO2 
 PCOD9555520
Probable space group: P -4 21 M 
;
_chemical_formula_sum "Si O2"
_cell_formula_units_Z 48
_cell_length_a 11.606062
_cell_length_b 11.606062
_cell_length_c 18.400927
_cell_angle_alpha 90.000000
_cell_angle_beta 90.000000
_cell_angle_gamma 90.000000
_cell_volume 2478.617290
_symmetry_space_group_name_H-M "P -4 21 M "
_symmetry_group_IT_number 113
_symmetry_cell_setting 'tetragonal'
loop_
_space_group_symop_operation_xyz
x,y,z
y,-x,-z
-x,-y,z
-y,x,-z
1/2+x,1/2-y,-z
1/2-x,1/2+y,-z
1/2-y,1/2-x,z
1/2+y,1/2+x,z
loop_
_atom_site_type_symbol
_atom_site_label
_atom_site_fract_x
_atom_site_fract_y
_atom_site_fract_z
Si Si1 0.324614 0.646845 0.571986
Si Si2 0.341482 0.658936 0.913338
Si Si3 0.451768 0.621173 0.312058
Si Si4 0.565442 0.751438 0.585858
Si Si5 0.452487 0.769054 0.171984
Si Si6 0.103456 0.787678 0.079384
O O1 0.207949 0.707949 0.597257
O O2 0.353444 0.537039 0.620738
O O3 0.429017 0.736732 0.580146
O O4 0.307590 0.613155 0.488070
O O5 0.282770 0.782770 0.912660
O O6 0.266400 0.574884 0.862362
O O7 0.474851 0.680597 0.895314
O O8 0.326126 0.611430 0.995224
O O9 0.500000 0.500000 0.279836
O O10 0.325532 0.603924 0.345690
O O11 0.453077 0.722590 0.254035
O O12 0.623379 0.876622 0.589936
O O13 0.397275 0.897275 0.167034
O O14 0.365517 0.688455 0.126589
O O15 0.157710 0.657710 0.083514
#
# Coordination Sequence:
#
# PCOD9555520 Si02
#       6
#     8   8   8   8   8   8
#     4  10  20  34  55  82 113 151 194 235 289 351
#     4  11  22  37  60  87 119 163 202 244 304 362
#     4  10  20  35  60  84 113 154 198 241 295 348
#     4  10  19  34  56  82 114 149 190 240 286 345
#     4  11  23  39  60  90 121 157 201 246 300 361
#     4  10  21  37  60  88 119 157 203 250 299 360
#
# _framework density 19.365637
#
# number of rings (size 3 to 8) (size 9 to 14) (size 15 to 20)
#    0.000    1.667    3.333    2.000    0.000    1.667 
#    0.000    1.667    0.000    1.500    0.000    4.667 
#    0.000    0.000    0.000    0.000    0.000    0.000 
#
# Total GULP energy -267621.443676 kJ/mol
# GULP energy per Si atom -5575.446743 kJ/mol
# Density = 1.932156 g / cm^3
# Si number density = 19.365637 Si / 1000 Ang^3
#
#
#
# Elastic Constant Matrix: (Units=GPa)
#
#
# Indices 1 2 3 4 5 6 
#
# 1 29.4595 48.1413 2.1325 0.0000 0.0000 0.0000
# 2 48.1413 29.4560 2.1310 0.0000 0.0000 0.0000
# 3 2.1325 2.1310 53.8353 0.0000 0.0000 0.0000
# 4 0.0000 0.0000 0.0000 42.8436 0.0000 0.0000
# 5 0.0000 0.0000 0.0000 0.0000 42.8426 0.0000
# 6 0.0000 0.0000 0.0000 0.0000 0.0000 28.0213
#
#
#
# Elastic Compliance Matrix: (Units=1/GPa)
#
#
# Indices 1 2 3 4 5 6 
#
# 1 -0.020303 0.033219 -0.000511 0.000000 0.000000 0.000000
# 2 0.033219 -0.020305 -0.000512 0.000000 0.000000 0.000000
# 3 -0.000511 -0.000512 0.018616 0.000000 0.000000 0.000000
# 4 0.000000 0.000000 0.000000 0.023341 0.000000 0.000000
# 5 0.000000 0.000000 0.000000 0.000000 0.023341 0.000000
# 6 0.000000 0.000000 0.000000 0.000000 0.000000 0.035687
#
#
# Mechanical properties :
#
#
# Convention : Reuss Voigt Hill
#
# Bulk Modulus (GPa) = 23.58502 24.17338 23.87920
# Shear Modulus (GPa) = 494.18790 26.76459 260.47625
#
# Velocity S-wave (km/s) = 15.99194 3.72165 11.61018
# Velocity P-wave (km/s) = 18.79347 5.56572 13.85951
#
# Compressibility (1/GPa) = 0.04239979
#
# Stress axis : x y z
#
# Youngs Moduli (GPa) = -49.25410 -49.24841 53.71820
#
# Poissons Ratio (x) = 1.63598 0.02743
# Poissons Ratio (y) = 1.63617 0.02751
# Poissons Ratio (z) = -0.02515 -0.02522
#
# Static dielectric constant tensor:
#      x y z
#    x 1.677580 0.000000 0.000000 
#    y 0.000000 1.677580 0.000000 
#    z 0.000000 0.000000 1.658410 
# 
# From -- ./inp_files/2454.got.cif
#   From: 2010.05.17/outbox.cif.g08.bks.cpg/sg113_cif.got.tgz:2454.got - 2010.05.20 11:03:00.
