data_PCOD9555002
_publ_section_title
;
Structure prediction by ZEFSAII (Michael W. Deem and Ramdas Pophale) SiO2 
 PCOD9555002
Probable space group: P -4 2 C
;
_chemical_formula_sum "Si O2"
_cell_formula_units_Z 40
_cell_length_a 8.281230
_cell_length_b 8.281230
_cell_length_c 24.637646
_cell_angle_alpha 90.000000
_cell_angle_beta 90.000000
_cell_angle_gamma 90.000000
_cell_volume 1689.619466
_symmetry_space_group_name_H-M "P -4 2 C"
_symmetry_group_IT_number 112
_symmetry_cell_setting 'tetragonal'
loop_
_space_group_symop_operation_xyz
x,y,z
y,-x,-z
-x,-y,z
-y,x,-z
x,-y,1/2-z
-x,y,1/2-z
-y,-x,1/2+z
y,x,1/2+z
loop_
_atom_site_type_symbol
_atom_site_label
_atom_site_fract_x
_atom_site_fract_y
_atom_site_fract_z
Si Si1 0.066457 0.185846 0.805710
Si Si2 0.379884 0.685865 0.918780
Si Si3 0.182184 0.429806 0.968826
Si Si4 0.451598 0.811289 0.689829
Si Si5 0.810709 0.021190 0.419792
O O1 0.258293 0.190809 0.810731
O O2 0.002463 0.265961 0.860088
O O3 0.000000 0.258400 0.750000
O O4 0.000000 0.000000 0.805773
O O5 0.315702 0.503039 0.927941
O O6 0.460295 0.725913 0.861214
O O7 0.208684 0.776512 0.929190
O O8 0.474424 0.752006 0.971677
O O9 0.129851 0.248358 0.955911
O O10 0.000000 0.500000 0.961745
O O11 0.500000 0.749995 0.750000
O O12 0.500000 0.000000 0.686448
O O13 0.000000 0.000000 0.417629
#
# Coordination Sequence:
#
# PCOD9555002 Si02
#       5
#     8   8   8   8   8
#     4  10  19  35  62  98 134 171 231 304 367 418
#     4  11  24  42  64  96 142 181 240 296 372 434
#     4  10  25  41  64  98 137 186 238 300 362 431
#     4  11  21  37  67 102 141 185 243 303 365 434
#     4  10  22  39  67  98 134 182 240 303 358 435
#
# _framework density 23.673967999999999
#
# number of rings (size 3 to 8) (size 9 to 14) (size 15 to 20)
#    0.000    1.600    0.000    6.600    8.400    0.400 
#    0.000    0.000    0.000   15.000    0.000    0.000 
#    0.000    0.000    0.000    0.000    0.000    0.000 
#
# Total GULP energy -223243.096184 kJ/mol
# GULP energy per Si atom -5581.077405 kJ/mol
# Density = 2.362009 g / cm^3
# Si number density = 23.673968 Si / 1000 Ang^3
#
#
#
# Elastic Constant Matrix: (Units=GPa)
#
#
# Indices 1 2 3 4 5 6 
#
# 1 101.7547 27.1821 60.7656 0.0000 0.0000 0.0000
# 2 27.1821 101.7547 60.7656 0.0000 0.0000 0.0000
# 3 60.7656 60.7656 217.9012 0.0000 0.0000 0.0000
# 4 0.0000 0.0000 0.0000 27.1883 0.0000 0.0000
# 5 0.0000 0.0000 0.0000 0.0000 27.1883 0.0000
# 6 0.0000 0.0000 0.0000 0.0000 0.0000 30.6445
#
#
#
# Elastic Compliance Matrix: (Units=1/GPa)
#
#
# Indices 1 2 3 4 5 6 
#
# 1 0.011966 -0.001444 -0.002934 0.000000 0.000000 0.000000
# 2 -0.001444 0.011966 -0.002934 0.000000 0.000000 0.000000
# 3 -0.002934 -0.002934 0.006226 0.000000 0.000000 0.000000
# 4 0.000000 0.000000 0.000000 0.036781 0.000000 0.000000
# 5 0.000000 0.000000 0.000000 0.000000 0.036781 0.000000
# 6 0.000000 0.000000 0.000000 0.000000 0.000000 0.032632
#
#
# Mechanical properties :
#
#
# Convention : Reuss Voigt Hill
#
# Bulk Modulus (GPa) = 64.38315 79.87080 72.12698
# Shear Modulus (GPa) = 32.02009 35.18404 33.60207
#
# Velocity S-wave (km/s) = 3.68169 3.85930 3.77154
# Velocity P-wave (km/s) = 6.73260 7.32598 7.03555
#
# Compressibility (1/GPa) = 0.01553201
#
# Stress axis : x y z
#
# Youngs Moduli (GPa) = 83.57356 83.57356 160.62576
#
# Poissons Ratio (x) = 0.12070 0.47128
# Poissons Ratio (y) = 0.12070 0.47128
# Poissons Ratio (z) = 0.24521 0.24521
#
# Static dielectric constant tensor:
#      x y z
#    x 2.364750 0.000000 0.000000 
#    y 0.000000 2.364750 0.000000 
#    z 0.000000 0.000000 1.994250 
# 
# From -- ./inp_files/5343.got.cif
#   From: 2010.05.17/outbox.cif.g08.bks.cpg/sg112_3_cif.got.tgz:5343.got - 2010.05.20 10:59:04.
