data_PCOD9555920
_publ_section_title
;
Structure prediction by ZEFSAII (Michael W. Deem and Ramdas Pophale) SiO2 
 PCOD9555920
Probable space group: P -4 21 C
;
_chemical_formula_sum "Si O2"
_cell_formula_units_Z 40
_cell_length_a 13.910290
_cell_length_b 13.910290
_cell_length_c 8.360339
_cell_angle_alpha 90.000000
_cell_angle_beta 90.000000
_cell_angle_gamma 90.000000
_cell_volume 1617.693559
_symmetry_space_group_name_H-M "P -4 21 C"
_symmetry_group_IT_number 114
_symmetry_cell_setting 'tetragonal'
loop_
_space_group_symop_operation_xyz
x,y,z
y,-x,-z
-x,-y,z
-y,x,-z
1/2+x,1/2-y,1/2-z
1/2-x,1/2+y,1/2-z
1/2-y,1/2-x,1/2+z
1/2+y,1/2+x,1/2+z
loop_
_atom_site_type_symbol
_atom_site_label
_atom_site_fract_x
_atom_site_fract_y
_atom_site_fract_z
Si Si1 0.393337 0.303588 0.180779
Si Si2 0.089533 0.255632 0.489709
Si Si3 0.884504 0.557218 0.286157
Si Si4 0.041960 0.135620 0.951507
Si Si5 0.533664 0.832430 0.417580
O O1 0.316107 0.325346 0.042806
O O2 0.378396 0.395960 0.293945
O O3 0.383795 0.214758 0.307456
O O4 0.499601 0.291617 0.104336
O O5 0.131926 0.344162 0.387618
O O6 0.044917 0.304792 0.649464
O O7 0.883765 0.467662 0.409520
O O8 0.977506 0.592496 0.190207
O O9 0.028208 0.238257 0.031330
O O10 0.935574 0.094232 0.924162
#
# Coordination Sequence:
#
# PCOD9555920 Si02
#       5
#     8   8   8   8   8
#     4  10  20  31  46  74  99 140 171 210 233 312
#     4  10  20  33  50  71 106 133 178 208 257 293
#     4   9  18  34  48  66  96 143 165 217 252 298
#     4   9  17  28  43  67 100 135 163 196 243 292
#     4   9  17  31  49  64  95 131 170 200 253 288
#
# _framework density 24.726562999999999
#
# number of rings (size 3 to 8) (size 9 to 14) (size 15 to 20)
#    0.000    2.600    2.000    0.000    0.000    8.400 
#    0.000    0.000    0.000    0.000    0.000    0.000 
#    0.000   76.800    0.000    0.000    0.000    0.000 
#
# Total GULP energy -222984.927197 kJ/mol
# GULP energy per Si atom -5574.623180 kJ/mol
# Density = 2.467028 g / cm^3
# Si number density = 24.726563 Si / 1000 Ang^3
#
#
#
# Elastic Constant Matrix: (Units=GPa)
#
#
# Indices 1 2 3 4 5 6 
#
# 1 82.7490 39.0346 47.5055 0.0000 0.0000 0.0000
# 2 39.0346 82.7490 47.5055 0.0000 0.0000 0.0000
# 3 47.5055 47.5055 148.3103 0.0000 0.0000 0.0000
# 4 0.0000 0.0000 0.0000 50.6519 0.0000 0.0000
# 5 0.0000 0.0000 0.0000 0.0000 50.6519 0.0000
# 6 0.0000 0.0000 0.0000 0.0000 0.0000 21.0558
#
#
#
# Elastic Compliance Matrix: (Units=1/GPa)
#
#
# Indices 1 2 3 4 5 6 
#
# 1 0.016911 -0.005964 -0.003506 0.000000 0.000000 0.000000
# 2 -0.005964 0.016911 -0.003506 0.000000 0.000000 0.000000
# 3 -0.003506 -0.003506 0.008989 0.000000 0.000000 0.000000
# 4 0.000000 0.000000 0.000000 0.019743 0.000000 0.000000
# 5 0.000000 0.000000 0.000000 0.000000 0.019743 0.000000
# 6 0.000000 0.000000 0.000000 0.000000 0.000000 0.047493
#
#
# Mechanical properties :
#
#
# Convention : Reuss Voigt Hill
#
# Bulk Modulus (GPa) = 59.32258 64.65552 61.98905
# Shear Modulus (GPa) = 30.98605 36.45612 33.72109
#
# Velocity S-wave (km/s) = 3.54382 3.84392 3.69692
# Velocity P-wave (km/s) = 6.38658 6.77539 6.58386
#
# Compressibility (1/GPa) = 0.01685699
#
# Stress axis : x y z
#
# Youngs Moduli (GPa) = 59.13211 59.13211 111.24819
#
# Poissons Ratio (x) = 0.35269 0.39008
# Poissons Ratio (y) = 0.35269 0.39008
# Poissons Ratio (z) = 0.20734 0.20734
#
# Static dielectric constant tensor:
#      x y z
#    x 2.003320 0.000000 0.000000 
#    y 0.000000 2.003320 0.000000 
#    z 0.000000 0.000000 2.042590 
# 
# From -- ./inp_files/862.got.cif
#   From: 2010.05.17/outbox.cif.g08.bks.cpg/sg114_1_cif.got.tgz:862.got - 2010.05.20 11:04:54.
