data_PCOD9555766
_publ_section_title
;
Structure prediction by ZEFSAII (Michael W. Deem and Ramdas Pophale) SiO2 
 PCOD9555766
Probable space group: P -4 21 M 
;
_chemical_formula_sum "Si O2"
_cell_formula_units_Z 60
_cell_length_a 11.095832
_cell_length_b 11.095832
_cell_length_c 20.619466
_cell_angle_alpha 90.000000
_cell_angle_beta 90.000000
_cell_angle_gamma 90.000000
_cell_volume 2538.616853
_symmetry_space_group_name_H-M "P -4 21 M "
_symmetry_group_IT_number 113
_symmetry_cell_setting 'tetragonal'
loop_
_space_group_symop_operation_xyz
x,y,z
y,-x,-z
-x,-y,z
-y,x,-z
1/2+x,1/2-y,-z
1/2-x,1/2+y,-z
1/2-y,1/2-x,z
1/2+y,1/2+x,z
loop_
_atom_site_type_symbol
_atom_site_label
_atom_site_fract_x
_atom_site_fract_y
_atom_site_fract_z
Si Si1 0.039745 0.140084 0.218316
Si Si2 0.510967 0.699884 0.510792
Si Si3 0.501938 0.202771 0.898625
Si Si4 0.256048 0.557995 0.345475
Si Si5 0.140167 0.640167 0.593874
Si Si6 0.949579 0.736973 0.679071
Si Si7 0.300197 0.004733 0.038111
Si Si8 0.274210 0.033019 0.179835
O O1 0.175589 0.132978 0.194564
O O2 0.973923 0.208322 0.160058
O O3 0.023757 0.212708 0.284456
O O4 0.000000 0.000000 0.226874
O O5 0.623905 0.606826 0.508013
O O6 0.496886 0.744717 0.584375
O O7 0.546880 0.802829 0.460739
O O8 0.396631 0.103370 0.902993
O O9 0.624316 0.124316 0.887973
O O10 0.506999 0.266372 0.969410
O O11 0.134978 0.634978 0.335912
O O12 0.365984 0.655338 0.344755
O O13 0.231954 0.580806 0.648801
O O14 0.889573 0.610428 0.657659
O O15 0.949950 0.736171 0.756999
O O16 0.407939 0.907939 0.032257
O O17 0.363135 0.136866 0.041825
O O18 0.245135 0.981964 0.108755
O O19 0.405167 0.094834 0.178627
#
# Coordination Sequence:
#
# PCOD9555766 Si02
#       8
#     8   8   8   8   4   8   8   8
#     4  12  25  40  60  93 131 171 215 271 330 395
#     4  11  25  41  68  96 131 166 206 259 331 399
#     4   9  19  42  71  93 121 173 227 276 324 386
#     4  11  24  44  64  87 123 170 217 263 315 389
#     4  12  23  42  66 103 120 168 216 262 315 388
#     4  11  23  39  63  91 126 164 206 259 317 374
#     4   8  16  35  64  92 123 163 217 266 318 386
#     4  11  22  37  60  96 129 163 209 267 326 387
#
# _framework density 23.634920000000001
#
# number of rings (size 3 to 8) (size 9 to 14) (size 15 to 20)
#    0.000    1.467    4.000    2.200    3.733    0.533 
#    3.600    0.000    0.000    0.000    0.000    0.000 
#    0.000    0.000    0.000    0.000    0.000    0.000 
#
# Total GULP energy -334226.616318 kJ/mol
# GULP energy per Si atom -5570.443605 kJ/mol
# Density = 2.358113 g / cm^3
# Si number density = 23.634920 Si / 1000 Ang^3
#
#
#
# Elastic Constant Matrix: (Units=GPa)
#
#
# Indices 1 2 3 4 5 6 
#
# 1 24.1185 16.4324 16.5316 0.0000 0.0000 0.0000
# 2 16.4324 24.1191 16.5315 0.0000 0.0000 0.0000
# 3 16.5316 16.5315 209.2775 0.0000 0.0000 0.0000
# 4 0.0000 0.0000 0.0000 48.7540 0.0000 0.0000
# 5 0.0000 0.0000 0.0000 0.0000 48.7308 0.0000
# 6 0.0000 0.0000 0.0000 0.0000 0.0000 6.6017
#
#
#
# Elastic Compliance Matrix: (Units=1/GPa)
#
#
# Indices 1 2 3 4 5 6 
#
# 1 0.078230 -0.051871 -0.002082 0.000000 0.000000 0.000000
# 2 -0.051871 0.078228 -0.002082 0.000000 0.000000 0.000000
# 3 -0.002082 -0.002082 0.005107 0.000000 0.000000 0.000000
# 4 0.000000 0.000000 0.000000 0.020511 0.000000 0.000000
# 5 0.000000 0.000000 0.000000 0.000000 0.020521 0.000000
# 6 0.000000 0.000000 0.000000 0.000000 0.000000 0.151476
#
#
# Mechanical properties :
#
#
# Convention : Reuss Voigt Hill
#
# Bulk Modulus (GPa) = 20.20422 39.61177 29.90800
# Shear Modulus (GPa) = 10.35966 34.68529 22.52247
#
# Velocity S-wave (km/s) = 2.09588 3.83501 3.09031
# Velocity P-wave (km/s) = 3.79789 6.03374 5.04133
#
# Compressibility (1/GPa) = 0.04949460
#
# Stress axis : x y z
#
# Youngs Moduli (GPa) = 12.78282 12.78318 195.79865
#
# Poissons Ratio (x) = 0.66308 0.40770
# Poissons Ratio (y) = 0.66306 0.40764
# Poissons Ratio (z) = 0.02662 0.02661
#
# Static dielectric constant tensor:
#      x y z
#    x 1.895850 0.000000 0.000000 
#    y 0.000000 1.895890 0.000000 
#    z 0.000000 0.000000 1.924480 
# 
# From -- ./inp_files/2791.got.cif
#   From: 2010.05.17/outbox.cif.g08.bks.cpg/sg113_cif.got.tgz:2791.got - 2010.05.20 11:03:00.
