data_PCOD9555413
_publ_section_title
;
Structure prediction by ZEFSAII (Michael W. Deem and Ramdas Pophale) SiO2 
 PCOD9555413
Probable space group: P -4 2 C
;
_chemical_formula_sum "Si O2"
_cell_formula_units_Z 22
_cell_length_a 5.521878
_cell_length_b 5.521878
_cell_length_c 27.291413
_cell_angle_alpha 90.000000
_cell_angle_beta 90.000000
_cell_angle_gamma 90.000000
_cell_volume 832.146203
_symmetry_space_group_name_H-M "P -4 2 C"
_symmetry_group_IT_number 112
_symmetry_cell_setting 'tetragonal'
loop_
_space_group_symop_operation_xyz
x,y,z
y,-x,-z
-x,-y,z
-y,x,-z
x,-y,1/2-z
-x,y,1/2-z
-y,-x,1/2+z
y,x,1/2+z
loop_
_atom_site_type_symbol
_atom_site_label
_atom_site_fract_x
_atom_site_fract_y
_atom_site_fract_z
Si Si1 0.216630 0.639690 0.578841
Si Si2 0.500000 0.500000 0.000000
Si Si3 0.000000 0.500000 0.750000
Si Si4 0.859355 0.740273 0.323235
Si Si5 0.000000 0.000000 0.500000
O O1 0.308064 0.429989 0.541320
O O2 0.351314 0.749741 0.624741
O O3 0.000000 0.500000 0.604416
O O4 0.160436 0.845021 0.538713
O O5 0.827396 0.335823 0.716235
O O6 0.000000 0.500000 0.305765
O O7 0.000000 0.000000 0.333197
#
# Coordination Sequence:
#
# PCOD9555413 Si02
#       5
#     8   2   2   8   2
#     4  12  26  45  72 115 163 218 268 335 417 504
#     4  12  28  40  72 118 164 220 272 324 420 514
#     4  12  30  62  88 120 168 226 290 370 460 502
#     4  12  31  54  86 124 166 220 289 362 438 533
#     4  12  24  44  72 106 160 212 260 328 392 506
#
# _framework density 26.437660999999999
#
# number of rings (size 3 to 8) (size 9 to 14) (size 15 to 20)
#    0.000    0.000    7.273    0.545   10.182    5.818 
#    0.000    0.000    0.000    0.000    0.000    0.000 
#    0.000    0.000    0.000    0.000    0.000    0.000 
#
# Total GULP energy -122587.861466 kJ/mol
# GULP energy per Si atom -5572.175521 kJ/mol
# Density = 2.637749 g / cm^3
# Si number density = 26.437661 Si / 1000 Ang^3
#
#
#
# Elastic Constant Matrix: (Units=GPa)
#
#
# Indices 1 2 3 4 5 6 
#
# 1 94.0078 50.7395 72.3558 0.0000 0.0000 0.0000
# 2 50.7395 94.0078 72.3558 0.0000 0.0000 0.0000
# 3 72.3558 72.3558 245.6889 0.0000 0.0000 0.0000
# 4 0.0000 0.0000 0.0000 33.8887 0.0000 0.0000
# 5 0.0000 0.0000 0.0000 0.0000 33.8887 0.0000
# 6 0.0000 0.0000 0.0000 0.0000 0.0000 49.3344
#
#
#
# Elastic Compliance Matrix: (Units=1/GPa)
#
#
# Indices 1 2 3 4 5 6 
#
# 1 0.016452 -0.006660 -0.002884 0.000000 0.000000 0.000000
# 2 -0.006660 0.016452 -0.002884 0.000000 0.000000 0.000000
# 3 -0.002884 -0.002884 0.005769 0.000000 0.000000 0.000000
# 4 0.000000 0.000000 0.000000 0.029508 0.000000 0.000000
# 5 0.000000 0.000000 0.000000 0.000000 0.029508 0.000000
# 6 0.000000 0.000000 0.000000 0.000000 0.000000 0.020270
#
#
# Mechanical properties :
#
#
# Convention : Reuss Voigt Hill
#
# Bulk Modulus (GPa) = 72.37366 91.62296 81.99831
# Shear Modulus (GPa) = 33.91701 39.30590 36.61146
#
# Velocity S-wave (km/s) = 3.58565 3.86001 3.72536
# Velocity P-wave (km/s) = 6.67661 7.38902 7.04183
#
# Compressibility (1/GPa) = 0.01381718
#
# Stress axis : x y z
#
# Youngs Moduli (GPa) = 60.78457 60.78457 173.35110
#
# Poissons Ratio (x) = 0.40483 0.49988
# Poissons Ratio (y) = 0.40483 0.49988
# Poissons Ratio (z) = 0.17528 0.17528
#
# Static dielectric constant tensor:
#      x y z
#    x 2.673020 0.000000 0.000000 
#    y 0.000000 2.673020 0.000000 
#    z 0.000000 0.000000 1.857170 
# 
# From -- ./inp_files/6077.got.cif
#   From: 2010.05.17/outbox.cif.g08.bks.cpg/sg112_4_cif.got.tgz:6077.got - 2010.05.20 10:59:04.
