data_PCOD9555273
_publ_section_title
;
Structure prediction by ZEFSAII (Michael W. Deem and Ramdas Pophale) SiO2 
 PCOD9555273
Probable space group: P -4 2 C
;
_chemical_formula_sum "Si O2"
_cell_formula_units_Z 16
_cell_length_a 5.013684
_cell_length_b 5.013684
_cell_length_c 25.553669
_cell_angle_alpha 90.000000
_cell_angle_beta 90.000000
_cell_angle_gamma 90.000000
_cell_volume 642.343274
_symmetry_space_group_name_H-M "P -4 2 C"
_symmetry_group_IT_number 112
_symmetry_cell_setting 'tetragonal'
loop_
_space_group_symop_operation_xyz
x,y,z
y,-x,-z
-x,-y,z
-y,x,-z
x,-y,1/2-z
-x,y,1/2-z
-y,-x,1/2+z
y,x,1/2+z
loop_
_atom_site_type_symbol
_atom_site_label
_atom_site_fract_x
_atom_site_fract_y
_atom_site_fract_z
Si Si1 0.000000 0.500000 0.679787
Si Si2 0.000000 0.000000 0.750000
Si Si3 0.500000 0.500000 0.500000
Si Si4 0.749227 0.190591 0.909699
O O1 0.885575 0.236363 0.711121
O O2 0.784183 0.625166 0.640989
O O3 0.710220 0.634049 0.538739
O O4 0.500000 0.000000 0.903997
O O5 0.000000 0.000000 0.914584
#
# Coordination Sequence:
#
# PCOD9555273 Si02
#       4
#     4   2   2   8
#     4  11  24  54  86 124 168 218 294 343 436 490
#     4  10  24  50  94 120 166 226 282 366 418 504
#     4  12  32  44  84 122 168 224 276 340 424 506
#     4  12  29  52  85 121 170 222 276 349 415 515
#
# _framework density 24.908798999999998
#
# number of rings (size 3 to 8) (size 9 to 14) (size 15 to 20)
#    0.000    0.500    2.500    3.000   10.500    0.000 
#    0.000    1.250   11.000    0.000    0.000    0.000 
#    0.000    0.000    0.000    0.000    0.000    0.000 
#
# Total GULP energy -89396.142337 kJ/mol
# GULP energy per Si atom -5587.258896 kJ/mol
# Density = 2.485211 g / cm^3
# Si number density = 24.908799 Si / 1000 Ang^3
#
#
#
# Elastic Constant Matrix: (Units=GPa)
#
#
# Indices 1 2 3 4 5 6 
#
# 1 188.5689 75.4981 67.6697 0.0000 0.0000 0.0000
# 2 75.4981 188.5689 67.6697 0.0000 0.0000 0.0000
# 3 67.6697 67.6697 165.8240 0.0000 0.0000 0.0000
# 4 0.0000 0.0000 0.0000 -15.7188 0.0000 0.0000
# 5 0.0000 0.0000 0.0000 0.0000 -15.7188 0.0000
# 6 0.0000 0.0000 0.0000 0.0000 0.0000 57.9939
#
#
#
# Elastic Compliance Matrix: (Units=1/GPa)
#
#
# Indices 1 2 3 4 5 6 
#
# 1 0.006816 -0.002028 -0.001954 0.000000 0.000000 0.000000
# 2 -0.002028 0.006816 -0.001954 0.000000 0.000000 0.000000
# 3 -0.001954 -0.001954 0.007625 0.000000 0.000000 0.000000
# 4 0.000000 0.000000 0.000000 -0.063618 0.000000 0.000000
# 5 0.000000 0.000000 0.000000 0.000000 -0.063618 0.000000
# 6 0.000000 0.000000 0.000000 0.000000 0.000000 0.017243
#
#
# Mechanical properties :
#
#
# Convention : Reuss Voigt Hill
#
# Bulk Modulus (GPa) = 106.54281 107.18187 106.86234
# Shear Modulus (GPa) = -67.81081 27.45288 -20.17896
#
# Velocity S-wave (km/s) = -5.22329 3.32344 -2.84934
# Velocity P-wave (km/s) = 2.54736 7.60593 5.67183
#
# Compressibility (1/GPa) = 0.00938590
#
# Stress axis : x y z
#
# Youngs Moduli (GPa) = 146.70904 146.70904 131.14203
#
# Poissons Ratio (x) = 0.29750 0.25626
# Poissons Ratio (y) = 0.29750 0.25626
# Poissons Ratio (z) = 0.28668 0.28668
#
# Static dielectric constant tensor:
#      x y z
#    x 1.943750 0.000000 0.000000 
#    y 0.000000 1.943750 0.000000 
#    z 0.000000 0.000000 2.049930 
# 
# From -- ./inp_files/4311.got.cif
#   From: 2010.05.17/outbox.cif.g08.bks.cpg/sg112_3_cif.got.tgz:4311.got - 2010.05.20 10:59:04.
