data_PCOD9555617
_publ_section_title
;
Structure prediction by ZEFSAII (Michael W. Deem and Ramdas Pophale) SiO2 
 PCOD9555617
Probable space group: P -4 21 M 
;
_chemical_formula_sum "Si O2"
_cell_formula_units_Z 48
_cell_length_a 14.795789
_cell_length_b 14.795789
_cell_length_c 12.594223
_cell_angle_alpha 90.000000
_cell_angle_beta 90.000000
_cell_angle_gamma 90.000000
_cell_volume 2757.069015
_symmetry_space_group_name_H-M "P -4 21 M "
_symmetry_group_IT_number 113
_symmetry_cell_setting 'tetragonal'
loop_
_space_group_symop_operation_xyz
x,y,z
y,-x,-z
-x,-y,z
-y,x,-z
1/2+x,1/2-y,-z
1/2-x,1/2+y,-z
1/2-y,1/2-x,z
1/2+y,1/2+x,z
loop_
_atom_site_type_symbol
_atom_site_label
_atom_site_fract_x
_atom_site_fract_y
_atom_site_fract_z
Si Si1 0.577379 0.077379 0.031764
Si Si2 0.523985 0.284044 0.740064
Si Si3 0.444422 0.208703 0.123976
Si Si4 0.638191 0.459445 0.032828
Si Si5 0.922814 0.577187 0.218865
Si Si6 0.950491 0.139508 0.475356
Si Si7 0.368002 0.283967 0.322535
O O1 0.538133 0.165510 0.087238
O O2 0.500000 0.000000 0.040416
O O3 0.591250 0.091250 0.907305
O O4 0.483852 0.322242 0.851139
O O5 0.542698 0.175646 0.740733
O O6 0.464041 0.316776 0.639959
O O7 0.620212 0.332121 0.719823
O O8 0.369977 0.130024 0.122689
O O9 0.443680 0.250238 0.240635
O O10 0.417248 0.283374 0.038388
O O11 0.550907 0.394937 0.027518
O O12 0.000000 0.500000 0.234869
O O13 0.905257 0.205848 0.559605
O O14 0.047970 0.108839 0.522269
O O15 0.286070 0.213931 0.319233
#
# Coordination Sequence:
#
# PCOD9555617 Si02
#       7
#     4   8   8   8   4   8   8
#     4   9  18  34  55  81 113 153 187 223 283 347
#     4  11  21  37  59  84 114 152 194 235 293 341
#     4  10  20  36  58  82 114 150 188 230 285 348
#     4  11  23  34  55  87 121 149 188 243 288 342
#     4  11  22  36  59  85 117 152 189 235 289 350
#     4   9  21  37  59  83 113 152 192 239 289 342
#     4  10  20  37  60  83 111 153 200 237 280 345
#
# _framework density 17.409793000000001
#
# number of rings (size 3 to 8) (size 9 to 14) (size 15 to 20)
#    0.000    1.833    4.167    0.000    2.333    2.000 
#    1.500    0.833    0.000    1.000    0.000    0.000 
#    0.000    0.000    0.000    0.000    0.000    0.000 
#
# Total GULP energy -267575.521318 kJ/mol
# GULP energy per Si atom -5574.490027 kJ/mol
# Density = 1.737017 g / cm^3
# Si number density = 17.409793 Si / 1000 Ang^3
#
#
#
# Elastic Constant Matrix: (Units=GPa)
#
#
# Indices 1 2 3 4 5 6 
#
# 1 29.8951 -0.6031 17.7925 0.0000 0.0000 0.0000
# 2 -0.6031 29.8966 17.7935 0.0000 0.0000 0.0000
# 3 17.7925 17.7935 96.6447 0.0000 0.0000 0.0000
# 4 0.0000 0.0000 0.0000 27.6028 0.0000 0.0000
# 5 0.0000 0.0000 0.0000 0.0000 27.6036 0.0000
# 6 0.0000 0.0000 0.0000 0.0000 0.0000 13.6788
#
#
#
# Elastic Compliance Matrix: (Units=1/GPa)
#
#
# Indices 1 2 3 4 5 6 
#
# 1 0.038382 0.005593 -0.008096 0.000000 0.000000 0.000000
# 2 0.005593 0.038380 -0.008096 0.000000 0.000000 0.000000
# 3 -0.008096 -0.008096 0.013328 0.000000 0.000000 0.000000
# 4 0.000000 0.000000 0.000000 0.036228 0.000000 0.000000
# 5 0.000000 0.000000 0.000000 0.000000 0.036227 0.000000
# 6 0.000000 0.000000 0.000000 0.000000 0.000000 0.073106
#
#
# Mechanical properties :
#
#
# Convention : Reuss Voigt Hill
#
# Bulk Modulus (GPa) = 14.51556 25.15579 19.83568
# Shear Modulus (GPa) = 17.86911 21.87394 19.87153
#
# Velocity S-wave (km/s) = 3.20720 3.54844 3.38213
# Velocity P-wave (km/s) = 4.69792 5.59188 5.16428
#
# Compressibility (1/GPa) = 0.06889160
#
# Stress axis : x y z
#
# Youngs Moduli (GPa) = 26.05421 26.05532 75.02897
#
# Poissons Ratio (x) = -0.14572 0.60742
# Poissons Ratio (y) = -0.14571 0.60742
# Poissons Ratio (z) = 0.21093 0.21094
#
# Static dielectric constant tensor:
#      x y z
#    x 1.602110 0.000000 0.000000 
#    y 0.000000 1.602110 0.000000 
#    z 0.000000 0.000000 1.569230 
# 
# From -- ./inp_files/1857.got.cif
#   From: 2010.05.17/outbox.cif.g08.bks.cpg/sg113_cif.got.tgz:1857.got - 2010.05.20 11:03:00.
