data_PCOD9555726
_publ_section_title
;
Structure prediction by ZEFSAII (Michael W. Deem and Ramdas Pophale) SiO2 
 PCOD9555726
Probable space group: P -4 21 M 
;
_chemical_formula_sum "Si O2"
_cell_formula_units_Z 32
_cell_length_a 10.338231
_cell_length_b 10.338231
_cell_length_c 15.055703
_cell_angle_alpha 90.000000
_cell_angle_beta 90.000000
_cell_angle_gamma 90.000000
_cell_volume 1609.138785
_symmetry_space_group_name_H-M "P -4 21 M "
_symmetry_group_IT_number 113
_symmetry_cell_setting 'tetragonal'
loop_
_space_group_symop_operation_xyz
x,y,z
y,-x,-z
-x,-y,z
-y,x,-z
1/2+x,1/2-y,-z
1/2-x,1/2+y,-z
1/2-y,1/2-x,z
1/2+y,1/2+x,z
loop_
_atom_site_type_symbol
_atom_site_label
_atom_site_fract_x
_atom_site_fract_y
_atom_site_fract_z
Si Si1 0.001092 0.293266 0.026303
Si Si2 0.377596 0.586705 0.861021
Si Si3 0.704837 0.997086 0.298641
Si Si4 0.164059 0.882782 0.467492
O O1 0.105544 0.394457 0.989909
O O2 0.064706 0.223818 0.110293
O O3 0.873236 0.373236 0.050231
O O4 0.965470 0.192707 0.949713
O O5 0.500000 0.500000 0.839732
O O6 0.280587 0.572635 0.779978
O O7 0.609724 0.890277 0.342230
O O8 0.609581 0.109581 0.262958
O O9 0.797999 0.063088 0.370234
O O10 0.271157 0.771157 0.489401
O O11 0.015601 0.832516 0.473683
#
# Coordination Sequence:
#
# PCOD9555726 Si02
#       4
#     8   8   8   8
#     4  11  22  38  60  85 119 162 207 255 307 362
#     4  12  23  37  59  89 121 163 203 259 309 360
#     4  10  22  41  66  94 126 165 208 254 308 379
#     4  10  22  41  69 101 133 169 212 263 322 389
#
# _framework density 19.886415
#
# number of rings (size 3 to 8) (size 9 to 14) (size 15 to 20)
#    0.000    1.250    2.500    3.750    3.500    4.500 
#    0.000    0.000    0.000    0.000    0.000    0.000 
#    0.000    0.000    0.000    0.000    0.000    0.000 
#
# Total GULP energy -178572.103459 kJ/mol
# GULP energy per Si atom -5580.378233 kJ/mol
# Density = 1.984115 g / cm^3
# Si number density = 19.886415 Si / 1000 Ang^3
#
#
#
# Elastic Constant Matrix: (Units=GPa)
#
#
# Indices 1 2 3 4 5 6 
#
# 1 106.8484 54.7545 35.7226 0.0000 0.0000 0.0000
# 2 54.7545 106.8483 35.7226 0.0000 0.0000 0.0000
# 3 35.7226 35.7226 66.0157 0.0000 0.0000 0.0000
# 4 0.0000 0.0000 0.0000 26.0248 0.0000 0.0000
# 5 0.0000 0.0000 0.0000 0.0000 26.0261 0.0000
# 6 0.0000 0.0000 0.0000 0.0000 0.0000 48.7569
#
#
#
# Elastic Compliance Matrix: (Units=1/GPa)
#
#
# Indices 1 2 3 4 5 6 
#
# 1 0.013665 -0.005531 -0.004401 0.000000 0.000000 0.000000
# 2 -0.005531 0.013665 -0.004401 0.000000 0.000000 0.000000
# 3 -0.004401 -0.004401 0.019911 0.000000 0.000000 0.000000
# 4 0.000000 0.000000 0.000000 0.038425 0.000000 0.000000
# 5 0.000000 0.000000 0.000000 0.000000 0.038423 0.000000
# 6 0.000000 0.000000 0.000000 0.000000 0.000000 0.020510
#
#
# Mechanical properties :
#
#
# Convention : Reuss Voigt Hill
#
# Bulk Modulus (GPa) = 53.84043 59.12352 56.48198
# Shear Modulus (GPa) = 27.86163 30.39573 29.12868
#
# Velocity S-wave (km/s) = 3.74711 3.91380 3.83136
# Velocity P-wave (km/s) = 6.77154 7.08653 6.93083
#
# Compressibility (1/GPa) = 0.01857340
#
# Stress axis : x y z
#
# Youngs Moduli (GPa) = 73.17960 73.17953 50.22264
#
# Poissons Ratio (x) = 0.40476 0.22105
# Poissons Ratio (y) = 0.40477 0.22105
# Poissons Ratio (z) = 0.32209 0.32210
#
# Static dielectric constant tensor:
#      x y z
#    x 1.758610 0.000000 0.000000 
#    y 0.000000 1.758610 0.000000 
#    z 0.000000 0.000000 1.668860 
# 
# From -- ./inp_files/1561.got.cif
#   From: 2010.05.17/outbox.cif.g08.bks.cpg/sg113_cif.got.tgz:1561.got - 2010.05.20 11:03:00.
