data_PCOD9555986
_publ_section_title
;
Structure prediction by ZEFSAII (Michael W. Deem and Ramdas Pophale) SiO2 
 PCOD9555986
Probable space group: P -4 21 C
;
_chemical_formula_sum "Si O2"
_cell_formula_units_Z 44
_cell_length_a 13.162970
_cell_length_b 13.162970
_cell_length_c 9.466221
_cell_angle_alpha 90.000000
_cell_angle_beta 90.000000
_cell_angle_gamma 90.000000
_cell_volume 1640.153225
_symmetry_space_group_name_H-M "P -4 21 C"
_symmetry_group_IT_number 114
_symmetry_cell_setting 'tetragonal'
loop_
_space_group_symop_operation_xyz
x,y,z
y,-x,-z
-x,-y,z
-y,x,-z
1/2+x,1/2-y,1/2-z
1/2-x,1/2+y,1/2-z
1/2-y,1/2-x,1/2+z
1/2+y,1/2+x,1/2+z
loop_
_atom_site_type_symbol
_atom_site_label
_atom_site_fract_x
_atom_site_fract_y
_atom_site_fract_z
Si Si1 0.490971 0.178680 0.904133
Si Si2 0.000000 0.000000 0.000000
Si Si3 0.103193 0.138559 0.697758
Si Si4 0.113629 0.414502 0.380139
Si Si5 0.794738 0.966115 0.034864
Si Si6 0.758440 0.277808 0.614610
Si Si7 0.500000 0.500000 0.000000
O O1 0.574991 0.267821 0.903786
O O2 0.523279 0.115224 0.765109
O O3 0.378864 0.224724 0.889338
O O4 0.509763 0.113893 0.044384
O O5 0.112620 0.000787 0.931572
O O6 0.016960 0.161577 0.820096
O O7 0.214896 0.149984 0.760097
O O8 0.085023 0.040411 0.605548
O O9 0.187818 0.478802 0.485398
O O10 0.178992 0.310207 0.359908
O O11 0.777470 0.846168 0.020689
#
# Coordination Sequence:
#
# PCOD9555986 Si02
#       7
#     8   2   8   8   8   8   2
#     4  10  24  49  71 107 153 202 252 319 389 474
#     4  12  14  36  68 110 132 174 244 300 362 428
#     4  10  25  44  68 112 147 198 243 325 387 453
#     4  10  24  46  71 109 149 195 257 313 390 460
#     4  10  20  39  73 106 139 188 250 305 378 457
#     4  10  22  45  77 107 146 199 254 317 387 464
#     4  12  26  44  70 116 160 186 268 322 400 448
#
# _framework density 26.82676
#
# number of rings (size 3 to 8) (size 9 to 14) (size 15 to 20)
#    0.000    2.182    3.636    0.545    2.545    6.545 
#    3.273    3.636    0.000    0.000    0.000    0.000 
#    0.000    0.000    0.000    0.000    0.000    0.000 
#
# Total GULP energy -245611.404269 kJ/mol
# GULP energy per Si atom -5582.077370 kJ/mol
# Density = 2.676570 g / cm^3
# Si number density = 26.826760 Si / 1000 Ang^3
#
#
#
# Elastic Constant Matrix: (Units=GPa)
#
#
# Indices 1 2 3 4 5 6 
#
# 1 99.9731 5.6040 16.9454 0.0000 0.0000 0.0000
# 2 5.6040 99.9731 16.9454 0.0000 0.0000 0.0000
# 3 16.9454 16.9454 68.5074 0.0000 0.0000 0.0000
# 4 0.0000 0.0000 0.0000 37.3651 0.0000 0.0000
# 5 0.0000 0.0000 0.0000 0.0000 37.3651 0.0000
# 6 0.0000 0.0000 0.0000 0.0000 0.0000 36.3849
#
#
#
# Elastic Compliance Matrix: (Units=1/GPa)
#
#
# Indices 1 2 3 4 5 6 
#
# 1 0.010443 -0.000154 -0.002545 0.000000 0.000000 0.000000
# 2 -0.000154 0.010443 -0.002545 0.000000 0.000000 0.000000
# 3 -0.002545 -0.002545 0.015856 0.000000 0.000000 0.000000
# 4 0.000000 0.000000 0.000000 0.026763 0.000000 0.000000
# 5 0.000000 0.000000 0.000000 0.000000 0.026763 0.000000
# 6 0.000000 0.000000 0.000000 0.000000 0.000000 0.027484
#
#
# Mechanical properties :
#
#
# Convention : Reuss Voigt Hill
#
# Bulk Modulus (GPa) = 38.08997 38.60480 38.34739
# Shear Modulus (GPa) = 36.49901 37.48693 36.99297
#
# Velocity S-wave (km/s) = 3.69256 3.74220 3.71746
# Velocity P-wave (km/s) = 5.69292 5.75271 5.72289
#
# Compressibility (1/GPa) = 0.02625363
#
# Stress axis : x y z
#
# Youngs Moduli (GPa) = 95.76080 95.76080 63.06789
#
# Poissons Ratio (x) = 0.01475 0.16050
# Poissons Ratio (y) = 0.01475 0.16050
# Poissons Ratio (z) = 0.24370 0.24370
#
# Static dielectric constant tensor:
#      x y z
#    x 2.173490 0.000000 0.000000 
#    y 0.000000 2.173490 0.000000 
#    z 0.000000 0.000000 2.247720 
# 
# From -- ./inp_files/1620.got.cif
#   From: 2010.05.17/outbox.cif.g08.bks.cpg/sg114_1_cif.got.tgz:1620.got - 2010.05.20 11:04:54.
