data_PCOD9555158
_publ_section_title
;
Structure prediction by ZEFSAII (Michael W. Deem and Ramdas Pophale) SiO2 
 PCOD9555158
Probable space group: P -4 2 C
;
_chemical_formula_sum "Si O2"
_cell_formula_units_Z 40
_cell_length_a 8.763818
_cell_length_b 8.763818
_cell_length_c 23.797902
_cell_angle_alpha 90.000000
_cell_angle_beta 90.000000
_cell_angle_gamma 90.000000
_cell_volume 1827.786105
_symmetry_space_group_name_H-M "P -4 2 C"
_symmetry_group_IT_number 112
_symmetry_cell_setting 'tetragonal'
loop_
_space_group_symop_operation_xyz
x,y,z
y,-x,-z
-x,-y,z
-y,x,-z
x,-y,1/2-z
-x,y,1/2-z
-y,-x,1/2+z
y,x,1/2+z
loop_
_atom_site_type_symbol
_atom_site_label
_atom_site_fract_x
_atom_site_fract_y
_atom_site_fract_z
Si Si1 0.187829 0.664454 0.633336
Si Si2 0.168161 0.331173 0.671937
Si Si3 0.957867 0.672892 0.980432
Si Si4 0.826518 0.676391 0.267884
Si Si5 0.094862 0.844631 0.412496
O O1 0.232588 0.490030 0.648149
O O2 0.178393 0.692284 0.566139
O O3 0.288327 0.787311 0.667061
O O4 0.013137 0.673169 0.657979
O O5 0.217806 0.296459 0.735042
O O6 0.227243 0.181316 0.639533
O O7 0.000000 0.500000 0.973854
O O8 0.086855 0.777190 0.953610
O O9 0.965674 0.717935 0.045492
O O10 0.803227 0.500000 0.250000
O O11 0.000000 0.717483 0.250000
O O12 0.000000 0.000000 0.398228
#
# Coordination Sequence:
#
# PCOD9555158 Si02
#       5
#     8   8   8   8   8
#     4  10  21  41  67  88 124 165 211 259 309 380
#     4  10  22  41  64  94 121 164 212 255 311 381
#     4  11  20  39  64  95 127 161 207 262 311 370
#     4  11  26  43  60  92 128 162 209 265 323 377
#     4  11  21  38  65  95 124 164 209 259 314 369
#
# _framework density 21.884399999999999
#
# number of rings (size 3 to 8) (size 9 to 14) (size 15 to 20)
#    0.000    1.400    6.000    1.200    5.600    4.000 
#    7.200    0.000    0.000    0.600    0.000    0.000 
#    0.000    0.000    0.000    0.000    0.000    0.000 
#
# Total GULP energy -222804.252307 kJ/mol
# GULP energy per Si atom -5570.106308 kJ/mol
# Density = 2.183459 g / cm^3
# Si number density = 21.884400 Si / 1000 Ang^3
#
#
#
# Elastic Constant Matrix: (Units=GPa)
#
#
# Indices 1 2 3 4 5 6 
#
# 1 53.1161 6.9082 5.9233 0.0000 0.0000 0.0000
# 2 6.9082 53.1161 5.9233 0.0000 0.0000 0.0000
# 3 5.9233 5.9233 101.5057 0.0000 0.0000 0.0000
# 4 0.0000 0.0000 0.0000 29.4828 0.0000 0.0000
# 5 0.0000 0.0000 0.0000 0.0000 29.4828 0.0000
# 6 0.0000 0.0000 0.0000 0.0000 0.0000 15.3228
#
#
#
# Elastic Compliance Matrix: (Units=1/GPa)
#
#
# Indices 1 2 3 4 5 6 
#
# 1 0.019248 -0.002394 -0.000984 0.000000 0.000000 0.000000
# 2 -0.002394 0.019248 -0.000984 0.000000 0.000000 0.000000
# 3 -0.000984 -0.000984 0.009966 0.000000 0.000000 0.000000
# 4 0.000000 0.000000 0.000000 0.033918 0.000000 0.000000
# 5 0.000000 0.000000 0.000000 0.000000 0.033918 0.000000
# 6 0.000000 0.000000 0.000000 0.000000 0.000000 0.065262
#
#
# Mechanical properties :
#
#
# Convention : Reuss Voigt Hill
#
# Bulk Modulus (GPa) = 25.16324 27.24972 26.20648
# Shear Modulus (GPa) = 24.56658 27.45653 26.01156
#
# Velocity S-wave (km/s) = 3.35410 3.54590 3.45133
# Velocity P-wave (km/s) = 5.15007 5.40770 5.28046
#
# Compressibility (1/GPa) = 0.03974051
#
# Stress axis : x y z
#
# Youngs Moduli (GPa) = 51.95429 51.95429 100.33665
#
# Poissons Ratio (x) = 0.12436 0.09868
# Poissons Ratio (y) = 0.12436 0.09868
# Poissons Ratio (z) = 0.05110 0.05110
#
# Static dielectric constant tensor:
#      x y z
#    x 1.828520 0.000000 0.000000 
#    y 0.000000 1.828520 0.000000 
#    z 0.000000 0.000000 1.987110 
# 
# From -- ./inp_files/5365.got.cif
#   From: 2010.05.17/outbox.cif.g08.bks.cpg/sg112_3_cif.got.tgz:5365.got - 2010.05.20 10:59:04.
