data_PCOD9555058
_publ_section_title
;
Structure prediction by ZEFSAII (Michael W. Deem and Ramdas Pophale) SiO2 
 PCOD9555058
Probable space group: P -4 2 C
;
_chemical_formula_sum "Si O2"
_cell_formula_units_Z 36
_cell_length_a 15.680292
_cell_length_b 15.680292
_cell_length_c 7.210009
_cell_angle_alpha 90.000000
_cell_angle_beta 90.000000
_cell_angle_gamma 90.000000
_cell_volume 1772.736140
_symmetry_space_group_name_H-M "P -4 2 C"
_symmetry_group_IT_number 112
_symmetry_cell_setting 'tetragonal'
loop_
_space_group_symop_operation_xyz
x,y,z
y,-x,-z
-x,-y,z
-y,x,-z
x,-y,1/2-z
-x,y,1/2-z
-y,-x,1/2+z
y,x,1/2+z
loop_
_atom_site_type_symbol
_atom_site_label
_atom_site_fract_x
_atom_site_fract_y
_atom_site_fract_z
Si Si1 0.890654 0.771309 0.080307
Si Si2 0.380049 0.795559 0.432735
Si Si3 0.922575 0.235786 0.983922
Si Si4 0.742174 0.642040 0.971486
Si Si5 0.500000 0.229965 0.750000
O O1 0.910864 0.756006 0.294586
O O2 0.827155 0.695623 0.022728
O O3 0.976524 0.772955 0.959071
O O4 0.843113 0.862357 0.071043
O O5 0.318525 0.876170 0.402296
O O6 0.450959 0.819303 0.584698
O O7 0.327407 0.717411 0.526984
O O8 0.399921 0.758936 0.228732
O O9 0.721872 0.570974 0.126068
#
# Coordination Sequence:
#
# PCOD9555058 Si02
#       5
#     8   8   8   8   4
#     4  10  20  36  58  85 122 162 204 253 297 348
#     4  11  21  39  64  89 121 161 199 243 298 358
#     4  10  20  36  58  85 122 162 204 253 297 348
#     4  11  21  39  64  89 121 161 199 243 298 358
#     4  12  22  40  65  95 118 158 206 238 298 373
#
# _framework density 20.307589
#
# number of rings (size 3 to 8) (size 9 to 14) (size 15 to 20)
#    0.000    1.333    4.444    4.667    0.000    4.000 
#    0.000    4.444    0.000    4.667    0.000    0.000 
#    0.000    0.000    0.000    0.000    0.000    0.000 
#
# Total GULP energy -200706.224376 kJ/mol
# GULP energy per Si atom -5575.172899 kJ/mol
# Density = 2.026137 g / cm^3
# Si number density = 20.307589 Si / 1000 Ang^3
#
#
#
# Elastic Constant Matrix: (Units=GPa)
#
#
# Indices 1 2 3 4 5 6 
#
# 1 90.1516 12.4036 8.5943 0.0000 0.0000 0.0000
# 2 12.4036 90.1516 8.5943 0.0000 0.0000 0.0000
# 3 8.5943 8.5943 106.4741 0.0000 0.0000 0.0000
# 4 0.0000 0.0000 0.0000 18.6587 0.0000 0.0000
# 5 0.0000 0.0000 0.0000 0.0000 18.6587 0.0000
# 6 0.0000 0.0000 0.0000 0.0000 0.0000 1.6824
#
#
#
# Elastic Compliance Matrix: (Units=1/GPa)
#
#
# Indices 1 2 3 4 5 6 
#
# 1 0.011373 -0.001489 -0.000798 0.000000 0.000000 0.000000
# 2 -0.001489 0.011373 -0.000798 0.000000 0.000000 0.000000
# 3 -0.000798 -0.000798 0.009521 0.000000 0.000000 0.000000
# 4 0.000000 0.000000 0.000000 0.053594 0.000000 0.000000
# 5 0.000000 0.000000 0.000000 0.000000 0.053594 0.000000
# 6 0.000000 0.000000 0.000000 0.000000 0.000000 0.594391
#
#
# Mechanical properties :
#
#
# Convention : Reuss Voigt Hill
#
# Bulk Modulus (GPa) = 38.31644 38.44021 38.37832
# Shear Modulus (GPa) = 6.67811 24.94565 15.81188
#
# Velocity S-wave (km/s) = 1.81538 3.50864 2.79340
# Velocity P-wave (km/s) = 4.82733 5.94846 5.41698
#
# Compressibility (1/GPa) = 0.02609846
#
# Stress axis : x y z
#
# Youngs Moduli (GPa) = 87.92512 87.92512 105.03367
#
# Poissons Ratio (x) = 0.13090 0.08380
# Poissons Ratio (y) = 0.13090 0.08380
# Poissons Ratio (z) = 0.07015 0.07015
#
# Static dielectric constant tensor:
#      x y z
#    x 1.734810 0.000000 0.000000 
#    y 0.000000 1.734810 0.000000 
#    z 0.000000 0.000000 1.790850 
# 
# From -- ./inp_files/1126.got.cif
#   From: 2010.05.17/outbox.cif.g08.bks.cpg/sg112_1_cif.got.tgz:1126.got - 2010.05.20 10:59:04.
