data_PCOD9555080
_publ_section_title
;
Structure prediction by ZEFSAII (Michael W. Deem and Ramdas Pophale) SiO2 
 PCOD9555080
Probable space group: P -4 2 C
;
_chemical_formula_sum "Si O2"
_cell_formula_units_Z 34
_cell_length_a 8.154875
_cell_length_b 8.154875
_cell_length_c 25.746966
_cell_angle_alpha 90.000000
_cell_angle_beta 90.000000
_cell_angle_gamma 90.000000
_cell_volume 1712.224379
_symmetry_space_group_name_H-M "P -4 2 C"
_symmetry_group_IT_number 112
_symmetry_cell_setting 'tetragonal'
loop_
_space_group_symop_operation_xyz
x,y,z
y,-x,-z
-x,-y,z
-y,x,-z
x,-y,1/2-z
-x,y,1/2-z
-y,-x,1/2+z
y,x,1/2+z
loop_
_atom_site_type_symbol
_atom_site_label
_atom_site_fract_x
_atom_site_fract_y
_atom_site_fract_z
Si Si1 0.508711 0.823740 0.878002
Si Si2 0.500000 0.000000 0.250000
Si Si3 0.305493 0.144156 0.100417
Si Si4 0.342868 0.829704 0.154873
Si Si5 0.753887 0.601884 0.493019
O O1 0.320387 0.770231 0.884917
O O2 0.644369 0.719321 0.847801
O O3 0.585338 0.830709 0.936362
O O4 0.500000 0.000000 0.852901
O O5 0.612049 0.109953 0.212388
O O6 0.488493 0.166292 0.122658
O O7 0.239338 0.977008 0.126935
O O8 0.318647 0.136199 0.037987
O O9 0.701068 0.417539 0.509898
#
# Coordination Sequence:
#
# PCOD9555080 Si02
#       5
#     8   2   8   8   8
#     4  11  22  32  54  88 126 157 190 234 304 367
#     4   8  20  40  70  86  96 150 212 262 318 322
#     4   9  19  34  56  81 114 158 202 240 287 338
#     4  10  20  39  62  83 112 149 204 262 286 350
#     4   9  16  29  51  80 118 161 195 231 278 347
#
# _framework density 19.857209000000001
#
# number of rings (size 3 to 8) (size 9 to 14) (size 15 to 20)
#    0.000    2.588    2.353    0.706    3.294    0.941 
#    0.000    9.412    0.000   19.765    0.000    0.000 
#    0.000    0.000    0.000    0.000    0.000    0.000 
#
# Total GULP energy -189354.042828 kJ/mol
# GULP energy per Si atom -5569.236554 kJ/mol
# Density = 1.981201 g / cm^3
# Si number density = 19.857209 Si / 1000 Ang^3
#
#
#
# Elastic Constant Matrix: (Units=GPa)
#
#
# Indices 1 2 3 4 5 6 
#
# 1 39.9612 -1.1159 -13.8091 0.0000 0.0000 0.0000
# 2 -1.1159 39.9612 -13.8091 0.0000 0.0000 0.0000
# 3 -13.8091 -13.8091 61.8104 0.0000 0.0000 0.0000
# 4 0.0000 0.0000 0.0000 45.4966 0.0000 0.0000
# 5 0.0000 0.0000 0.0000 0.0000 45.4966 0.0000
# 6 0.0000 0.0000 0.0000 0.0000 0.0000 -3.3675
#
#
#
# Elastic Compliance Matrix: (Units=1/GPa)
#
#
# Indices 1 2 3 4 5 6 
#
# 1 0.027474 0.003130 0.006837 0.000000 0.000000 0.000000
# 2 0.003130 0.027474 0.006837 0.000000 0.000000 0.000000
# 3 0.006837 0.006837 0.019234 0.000000 0.000000 0.000000
# 4 0.000000 0.000000 0.000000 0.021980 0.000000 0.000000
# 5 0.000000 0.000000 0.000000 0.000000 0.021980 0.000000
# 6 0.000000 0.000000 0.000000 0.000000 0.000000 -0.296958
#
#
# Mechanical properties :
#
#
# Convention : Reuss Voigt Hill
#
# Bulk Modulus (GPa) = 9.27716 9.36273 9.31994
# Shear Modulus (GPa) = -28.32935 28.88960 0.28013
#
# Velocity S-wave (km/s) = -3.78120 3.81841 0.37600
# Velocity P-wave (km/s) = 3.79226 4.91585 2.21183
#
# Compressibility (1/GPa) = 0.10779163
#
# Stress axis : x y z
#
# Youngs Moduli (GPa) = 36.39751 36.39751 51.99241
#
# Poissons Ratio (x) = -0.11392 -0.35549
# Poissons Ratio (y) = -0.11392 -0.35549
# Poissons Ratio (z) = -0.24886 -0.24886
#
# Static dielectric constant tensor:
#      x y z
#    x 1.571990 0.000000 0.000000 
#    y 0.000000 1.571990 0.000000 
#    z 0.000000 0.000000 1.708580 
# 
# From -- ./inp_files/5201.got.cif
#   From: 2010.05.17/outbox.cif.g08.bks.cpg/sg112_3_cif.got.tgz:5201.got - 2010.05.20 10:59:04.
