data_PCOD9555671
_publ_section_title
;
Structure prediction by ZEFSAII (Michael W. Deem and Ramdas Pophale) SiO2 
 PCOD9555671
Probable space group: P -4 21 M 
;
_chemical_formula_sum "Si O2"
_cell_formula_units_Z 64
_cell_length_a 11.491012
_cell_length_b 11.491012
_cell_length_c 23.474925
_cell_angle_alpha 90.000000
_cell_angle_beta 90.000000
_cell_angle_gamma 90.000000
_cell_volume 3099.707897
_symmetry_space_group_name_H-M "P -4 21 M "
_symmetry_group_IT_number 113
_symmetry_cell_setting 'tetragonal'
loop_
_space_group_symop_operation_xyz
x,y,z
y,-x,-z
-x,-y,z
-y,x,-z
1/2+x,1/2-y,-z
1/2-x,1/2+y,-z
1/2-y,1/2-x,z
1/2+y,1/2+x,z
loop_
_atom_site_type_symbol
_atom_site_label
_atom_site_fract_x
_atom_site_fract_y
_atom_site_fract_z
Si Si1 0.426937 0.263980 0.942949
Si Si2 0.953360 0.737643 0.939691
Si Si3 0.492246 0.184300 0.409854
Si Si4 0.391693 0.590149 0.241061
Si Si5 0.256564 0.425721 0.163039
Si Si6 0.685928 0.491407 0.481565
Si Si7 0.636394 0.666837 0.631533
Si Si8 0.271522 0.048807 0.184812
O O1 0.341575 0.158426 0.926447
O O2 0.357897 0.383244 0.932445
O O3 0.539791 0.260437 0.903256
O O4 0.456727 0.252351 0.009271
O O5 0.859930 0.640071 0.957201
O O6 0.005189 0.703783 0.878961
O O7 0.586653 0.086653 0.394363
O O8 0.495613 0.202660 0.478129
O O9 0.542072 0.303422 0.383525
O O10 0.366791 0.133210 0.393013
O O11 0.500000 0.500000 0.240907
O O12 0.295538 0.539615 0.197873
O O13 0.340254 0.595446 0.304043
O O14 0.445126 0.713840 0.221090
O O15 0.133033 0.366967 0.176988
O O16 0.353625 0.328800 0.177053
O O17 0.608346 0.386649 0.507994
O O18 0.695068 0.461183 0.415410
O O19 0.735022 0.764979 0.624852
O O20 0.385064 0.114937 0.208588
#
# Coordination Sequence:
#
# PCOD9555671 Si02
#       8
#     8   8   8   8   8   8   8   8
#     4  11  23  37  57  85 116 152 193 241 300 361
#     4  11  23  37  56  86 118 150 192 242 300 360
#     4   9  18  33  53  80 116 152 186 233 292 346
#     4  10  22  38  60  81 117 155 193 240 293 341
#     4  10  21  40  62  84 110 149 200 243 292 356
#     4   9  18  32  56  82 111 146 189 231 280 332
#     4  10  21  35  56  84 114 149 190 236 281 342
#     4  10  21  39  61  85 113 150 196 243 296 355
#
# _framework density 20.647106000000001
#
# number of rings (size 3 to 8) (size 9 to 14) (size 15 to 20)
#    0.000    2.000    1.250    1.875    3.500    7.000 
#    0.000    0.625    0.000    0.750    0.000    0.000 
#    0.000    0.000    0.000    0.000    0.000    0.000 
#
# Total GULP energy -357283.002629 kJ/mol
# GULP energy per Si atom -5582.546916 kJ/mol
# Density = 2.060011 g / cm^3
# Si number density = 20.647106 Si / 1000 Ang^3
#
#
#
# Elastic Constant Matrix: (Units=GPa)
#
#
# Indices 1 2 3 4 5 6 
#
# 1 33.5198 22.3056 3.6667 0.0000 0.0000 0.0000
# 2 22.3056 33.5174 3.6667 0.0000 0.0000 0.0000
# 3 3.6667 3.6667 88.7169 0.0000 0.0000 0.0000
# 4 0.0000 0.0000 0.0000 9.2070 0.0000 0.0000
# 5 0.0000 0.0000 0.0000 0.0000 9.2057 0.0000
# 6 0.0000 0.0000 0.0000 0.0000 0.0000 14.0316
#
#
#
# Elastic Compliance Matrix: (Units=1/GPa)
#
#
# Indices 1 2 3 4 5 6 
#
# 1 0.053595 -0.035586 -0.000744 0.000000 0.000000 0.000000
# 2 -0.035586 0.053599 -0.000745 0.000000 0.000000 0.000000
# 3 -0.000744 -0.000745 0.011333 0.000000 0.000000 0.000000
# 4 0.000000 0.000000 0.000000 0.108613 0.000000 0.000000
# 5 0.000000 0.000000 0.000000 0.000000 0.108628 0.000000
# 6 0.000000 0.000000 0.000000 0.000000 0.000000 0.071267
#
#
# Mechanical properties :
#
#
# Convention : Reuss Voigt Hill
#
# Bulk Modulus (GPa) = 22.53368 23.89247 23.21307
# Shear Modulus (GPa) = 10.08111 14.89654 12.48882
#
# Velocity S-wave (km/s) = 2.21205 2.68896 2.46208
# Velocity P-wave (km/s) = 4.17871 4.60843 4.39882
#
# Compressibility (1/GPa) = 0.04437802
#
# Stress axis : x y z
#
# Youngs Moduli (GPa) = 18.65853 18.65714 88.23522
#
# Poissons Ratio (x) = 0.66393 0.06567
# Poissons Ratio (y) = 0.66398 0.06569
# Poissons Ratio (z) = 0.01389 0.01389
#
# Static dielectric constant tensor:
#      x y z
#    x 1.760900 0.000000 0.000000 
#    y 0.000000 1.760900 0.000000 
#    z 0.000000 0.000000 1.712600 
# 
# From -- ./inp_files/2917.got.cif
#   From: 2010.05.17/outbox.cif.g08.bks.cpg/sg113_cif.got.tgz:2917.got - 2010.05.20 11:03:00.
