data_PCOD9555075
_publ_section_title
;
Structure prediction by ZEFSAII (Michael W. Deem and Ramdas Pophale) SiO2 
 PCOD9555075
Probable space group: P -4 2 C
;
_chemical_formula_sum "Si O2"
_cell_formula_units_Z 48
_cell_length_a 8.860998
_cell_length_b 8.860998
_cell_length_c 31.163768
_cell_angle_alpha 90.000000
_cell_angle_beta 90.000000
_cell_angle_gamma 90.000000
_cell_volume 2446.894471
_symmetry_space_group_name_H-M "P -4 2 C"
_symmetry_group_IT_number 112
_symmetry_cell_setting 'tetragonal'
loop_
_space_group_symop_operation_xyz
x,y,z
y,-x,-z
-x,-y,z
-y,x,-z
x,-y,1/2-z
-x,y,1/2-z
-y,-x,1/2+z
y,x,1/2+z
loop_
_atom_site_type_symbol
_atom_site_label
_atom_site_fract_x
_atom_site_fract_y
_atom_site_fract_z
Si Si1 0.332870 0.065249 0.067210
Si Si2 0.822332 0.033649 0.296500
Si Si3 0.579472 0.731725 0.990745
Si Si4 0.820780 0.835566 0.379702
Si Si5 0.677424 0.539376 0.395807
Si Si6 0.167457 0.266658 0.136586
O O1 0.278342 0.192903 0.100672
O O2 0.500000 0.000000 0.076566
O O3 0.210610 0.934799 0.077604
O O4 0.345587 0.140546 0.020137
O O5 0.804092 0.199434 0.316188
O O6 0.752835 0.000000 0.250000
O O7 0.781833 0.932795 0.337649
O O8 0.000000 0.000000 0.292403
O O9 0.538365 0.762617 0.941794
O O10 0.682293 0.580972 0.988877
O O11 0.696857 0.707266 0.380109
O O12 0.993753 0.775885 0.375951
O O13 0.500000 0.500000 0.399955
O O14 0.779485 0.437192 0.365205
#
# Coordination Sequence:
#
# PCOD9555075 Si02
#       6
#     8   8   8   8   8   8
#     4  11  21  37  59  83 114 159 200 247 304 368
#     4   8  16  35  63  89 117 155 198 247 309 386
#     4  11  20  37  57  79 106 151 214 249 281 354
#     4  10  22  37  60  90 123 151 199 255 320 364
#     4  12  22  39  62  84 116 165 208 250 304 377
#     4  10  20  38  62  88 122 155 198 256 308 367
#
# _framework density 19.616703999999999
#
# number of rings (size 3 to 8) (size 9 to 14) (size 15 to 20)
#    0.000    1.667    3.333    4.000    0.000    1.333 
#    3.000    0.833    0.000   23.000    0.000    0.000 
#    0.000    0.000    0.000    0.000    0.000    0.000 
#
# Total GULP energy -267340.906220 kJ/mol
# GULP energy per Si atom -5569.602213 kJ/mol
# Density = 1.957206 g / cm^3
# Si number density = 19.616704 Si / 1000 Ang^3
#
#
#
# Elastic Constant Matrix: (Units=GPa)
#
#
# Indices 1 2 3 4 5 6 
#
# 1 73.7778 24.8337 39.1268 0.0000 0.0000 0.0000
# 2 24.8337 73.7778 39.1268 0.0000 0.0000 0.0000
# 3 39.1268 39.1268 118.8595 0.0000 0.0000 0.0000
# 4 0.0000 0.0000 0.0000 33.2653 0.0000 0.0000
# 5 0.0000 0.0000 0.0000 0.0000 33.2653 0.0000
# 6 0.0000 0.0000 0.0000 0.0000 0.0000 33.6307
#
#
#
# Elastic Compliance Matrix: (Units=1/GPa)
#
#
# Indices 1 2 3 4 5 6 
#
# 1 0.017079 -0.003352 -0.004519 0.000000 0.000000 0.000000
# 2 -0.003352 0.017079 -0.004519 0.000000 0.000000 0.000000
# 3 -0.004519 -0.004519 0.011388 0.000000 0.000000 0.000000
# 4 0.000000 0.000000 0.000000 0.030061 0.000000 0.000000
# 5 0.000000 0.000000 0.000000 0.000000 0.030061 0.000000
# 6 0.000000 0.000000 0.000000 0.000000 0.000000 0.029735
#
#
# Mechanical properties :
#
#
# Convention : Reuss Voigt Hill
#
# Bulk Modulus (GPa) = 48.15338 52.50996 50.33167
# Shear Modulus (GPa) = 29.92129 30.92081 30.42105
#
# Velocity S-wave (km/s) = 3.90974 3.97451 3.94226
# Velocity P-wave (km/s) = 6.70685 6.92014 6.81433
#
# Compressibility (1/GPa) = 0.02076697
#
# Stress axis : x y z
#
# Youngs Moduli (GPa) = 58.55143 58.55143 87.81024
#
# Poissons Ratio (x) = 0.19629 0.39678
# Poissons Ratio (y) = 0.19629 0.39678
# Poissons Ratio (z) = 0.26457 0.26457
#
# Static dielectric constant tensor:
#      x y z
#    x 1.741700 0.000000 0.000000 
#    y 0.000000 1.741700 0.000000 
#    z 0.000000 0.000000 1.732570 
# 
# From -- ./inp_files/6300.got.cif
#   From: 2010.05.17/outbox.cif.g08.bks.cpg/sg112_4_cif.got.tgz:6300.got - 2010.05.20 10:59:04.
