data_PCOD9555679
_publ_section_title
;
Structure prediction by ZEFSAII (Michael W. Deem and Ramdas Pophale) SiO2 
 PCOD9555679
Probable space group: P -4 21 M 
;
_chemical_formula_sum "Si O2"
_cell_formula_units_Z 56
_cell_length_a 12.473332
_cell_length_b 12.473332
_cell_length_c 21.114366
_cell_angle_alpha 90.000000
_cell_angle_beta 90.000000
_cell_angle_gamma 90.000000
_cell_volume 3285.057756
_symmetry_space_group_name_H-M "P -4 21 M "
_symmetry_group_IT_number 113
_symmetry_cell_setting 'tetragonal'
loop_
_space_group_symop_operation_xyz
x,y,z
y,-x,-z
-x,-y,z
-y,x,-z
1/2+x,1/2-y,-z
1/2-x,1/2+y,-z
1/2-y,1/2-x,z
1/2+y,1/2+x,z
loop_
_atom_site_type_symbol
_atom_site_label
_atom_site_fract_x
_atom_site_fract_y
_atom_site_fract_z
Si Si1 0.399801 0.276367 0.587243
Si Si2 0.141851 0.175070 0.715482
Si Si3 0.034099 0.166720 0.978325
Si Si4 0.423909 0.395569 0.852154
Si Si5 0.177318 0.496139 0.085895
Si Si6 0.324762 0.009674 0.356207
Si Si7 0.761546 0.563600 0.515483
O O1 0.337471 0.162530 0.586488
O O2 0.402782 0.317369 0.659315
O O3 0.509238 0.272975 0.549134
O O4 0.324020 0.357657 0.547913
O O5 0.233172 0.266828 0.720872
O O6 0.121957 0.123008 0.782821
O O7 0.035327 0.232072 0.688257
O O8 0.077504 0.163530 0.906940
O O9 0.027819 0.277659 0.015402
O O10 0.916680 0.111748 0.984058
O O11 0.500000 0.500000 0.852361
O O12 0.481624 0.285230 0.873986
O O13 0.103737 0.396264 0.107074
O O14 0.100651 0.600651 0.086717
O O15 0.413987 0.913987 0.358329
O O16 0.285647 0.021489 0.428572
O O17 0.384496 0.115505 0.333783
O O18 0.867986 0.632015 0.504170
#
# Coordination Sequence:
#
# PCOD9555679 Si02
#       7
#     8   8   8   8   8   8   8
#     4   9  18  33  49  72 104 130 172 223 264 324
#     4   9  19  34  51  73 104 145 180 216 267 320
#     4   9  16  34  56  81 106 136 175 220 269 317
#     4  11  20  38  57  78 110 149 189 217 264 328
#     4  10  21  36  58  88 115 142 181 228 274 321
#     4   8  14  28  50  73  97 127 169 219 271 321
#     4   9  17  30  50  74  99 132 172 221 277 324
#
# _framework density 17.046883999999999
#
# number of rings (size 3 to 8) (size 9 to 14) (size 15 to 20)
#    0.000    2.714    2.857    2.571    0.000    4.000 
#    5.143    2.143    0.000    2.571    0.000    0.000 
#    0.000    0.000    0.000    0.000    0.000    0.000 
#
# Total GULP energy -311836.275543 kJ/mol
# GULP energy per Si atom -5568.504920 kJ/mol
# Density = 1.700808 g / cm^3
# Si number density = 17.046884 Si / 1000 Ang^3
#
#
#
# Elastic Constant Matrix: (Units=GPa)
#
#
# Indices 1 2 3 4 5 6 
#
# 1 67.0953 29.2148 44.7860 0.0000 0.0000 0.0000
# 2 29.2148 67.0968 44.7862 0.0000 0.0000 0.0000
# 3 44.7860 44.7862 151.1223 0.0000 0.0000 0.0000
# 4 0.0000 0.0000 0.0000 18.9633 0.0000 0.0000
# 5 0.0000 0.0000 0.0000 0.0000 18.9629 0.0000
# 6 0.0000 0.0000 0.0000 0.0000 0.0000 12.1924
#
#
#
# Elastic Compliance Matrix: (Units=1/GPa)
#
#
# Indices 1 2 3 4 5 6 
#
# 1 0.020366 -0.006032 -0.004248 0.000000 0.000000 0.000000
# 2 -0.006032 0.020366 -0.004248 0.000000 0.000000 0.000000
# 3 -0.004248 -0.004248 0.009135 0.000000 0.000000 0.000000
# 4 0.000000 0.000000 0.000000 0.052734 0.000000 0.000000
# 5 0.000000 0.000000 0.000000 0.000000 0.052735 0.000000
# 6 0.000000 0.000000 0.000000 0.000000 0.000000 0.082018
#
#
# Mechanical properties :
#
#
# Convention : Reuss Voigt Hill
#
# Bulk Modulus (GPa) = 48.05193 58.09871 53.07532
# Shear Modulus (GPa) = 18.29181 21.12554 19.70867
#
# Velocity S-wave (km/s) = 3.27927 3.52413 3.40390
# Velocity P-wave (km/s) = 6.52590 7.12145 6.83017
#
# Compressibility (1/GPa) = 0.02081082
#
# Stress axis : x y z
#
# Youngs Moduli (GPa) = 49.10082 49.10206 109.46973
#
# Poissons Ratio (x) = 0.29620 0.46502
# Poissons Ratio (y) = 0.29619 0.46501
# Poissons Ratio (z) = 0.20858 0.20858
#
# Static dielectric constant tensor:
#      x y z
#    x 1.589910 0.000000 0.000000 
#    y 0.000000 1.589910 0.000000 
#    z 0.000000 0.000000 1.576450 
# 
# From -- ./inp_files/2663.got.cif
#   From: 2010.05.17/outbox.cif.g08.bks.cpg/sg113_cif.got.tgz:2663.got - 2010.05.20 11:03:00.
