data_PCOD9555774
_publ_section_title
;
Structure prediction by ZEFSAII (Michael W. Deem and Ramdas Pophale) SiO2 
 PCOD9555774
Probable space group: P -4 21 M 
;
_chemical_formula_sum "Si O2"
_cell_formula_units_Z 42
_cell_length_a 14.061183
_cell_length_b 14.061183
_cell_length_c 9.588666
_cell_angle_alpha 90.000000
_cell_angle_beta 90.000000
_cell_angle_gamma 90.000000
_cell_volume 1895.841004
_symmetry_space_group_name_H-M "P -4 21 M "
_symmetry_group_IT_number 113
_symmetry_cell_setting 'tetragonal'
loop_
_space_group_symop_operation_xyz
x,y,z
y,-x,-z
-x,-y,z
-y,x,-z
1/2+x,1/2-y,-z
1/2-x,1/2+y,-z
1/2-y,1/2-x,z
1/2+y,1/2+x,z
loop_
_atom_site_type_symbol
_atom_site_label
_atom_site_fract_x
_atom_site_fract_y
_atom_site_fract_z
Si Si1 0.663997 0.425685 0.663555
Si Si2 0.850716 0.649285 0.611167
Si Si3 0.490317 0.280374 0.650413
Si Si4 0.648157 0.851844 0.187454
Si Si5 0.000000 0.500000 0.724637
Si Si6 0.224124 0.275877 0.027563
Si Si7 0.364731 0.864731 0.693430
Si Si8 0.885730 0.829760 0.797985
O O1 0.583361 0.345932 0.669893
O O2 0.689422 0.453712 0.503853
O O3 0.762699 0.392708 0.728917
O O4 0.628001 0.511412 0.763263
O O5 0.825520 0.674481 0.453795
O O6 0.882436 0.744451 0.686424
O O7 0.931332 0.568669 0.633225
O O8 0.526908 0.172658 0.677020
O O9 0.408498 0.308735 0.758156
O O10 0.567646 0.932355 0.182479
O O11 0.695749 0.804252 0.053058
O O12 0.180773 0.319228 0.168704
O O13 0.140752 0.223434 0.940634
#
# Coordination Sequence:
#
# PCOD9555774 Si02
#       8
#     8   4   8   4   2   4   4   8
#     4  12  22  42  76 109 147 186 247 315 369 442
#     4  11  22  46  78 106 143 187 246 312 371 433
#     4  12  23  41  74 111 146 187 249 314 377 430
#     4  12  25  45  70 109 145 199 245 295 373 449
#     4  12  22  46  80 116 134 188 256 316 366 442
#     4  11  28  48  66  99 153 206 239 287 389 446
#     4  12  22  46  70 104 142 198 236 303 364 443
#     4  11  25  43  69 106 147 191 240 305 368 440
#
# _framework density 22.153758
#
# number of rings (size 3 to 8) (size 9 to 14) (size 15 to 20)
#    0.000    0.381    7.619    0.571    0.000    2.286 
#    0.000    0.952    4.190    3.429    0.000    0.000 
#    0.000    0.000    0.000    0.000    0.000    0.000 
#
# Total GULP energy -234511.980203 kJ/mol
# GULP energy per Si atom -5583.618576 kJ/mol
# Density = 2.210334 g / cm^3
# Si number density = 22.153758 Si / 1000 Ang^3
#
#
#
# Elastic Constant Matrix: (Units=GPa)
#
#
# Indices 1 2 3 4 5 6 
#
# 1 75.4872 10.0881 10.0675 0.0000 0.0000 0.0000
# 2 10.0881 75.4842 10.0691 0.0000 0.0000 0.0000
# 3 10.0675 10.0691 105.6213 0.0000 0.0000 0.0000
# 4 0.0000 0.0000 0.0000 122.5986 0.0000 0.0000
# 5 0.0000 0.0000 0.0000 0.0000 122.8627 0.0000
# 6 0.0000 0.0000 0.0000 0.0000 0.0000 47.9946
#
#
#
# Elastic Compliance Matrix: (Units=1/GPa)
#
#
# Indices 1 2 3 4 5 6 
#
# 1 0.013622 -0.001669 -0.001139 0.000000 0.000000 0.000000
# 2 -0.001669 0.013623 -0.001140 0.000000 0.000000 0.000000
# 3 -0.001139 -0.001140 0.009685 0.000000 0.000000 0.000000
# 4 0.000000 0.000000 0.000000 0.008157 0.000000 0.000000
# 5 0.000000 0.000000 0.000000 0.000000 0.008139 0.000000
# 6 0.000000 0.000000 0.000000 0.000000 0.000000 0.020836
#
#
# Mechanical properties :
#
#
# Convention : Reuss Voigt Hill
#
# Bulk Modulus (GPa) = 34.44127 35.22689 34.83408
# Shear Modulus (GPa) = 54.56429 73.78239 64.17334
#
# Velocity S-wave (km/s) = 4.96823 5.77728 5.38796
# Velocity P-wave (km/s) = 6.96357 7.77420 7.38002
#
# Compressibility (1/GPa) = 0.02903494
#
# Stress axis : x y z
#
# Youngs Moduli (GPa) = 73.40954 73.40629 103.25217
#
# Poissons Ratio (x) = 0.12248 0.11764
# Poissons Ratio (y) = 0.12249 0.11767
# Poissons Ratio (z) = 0.08364 0.08366
#
# Static dielectric constant tensor:
#      x y z
#    x 1.763910 0.000000 0.000000 
#    y 0.000000 1.763580 0.000000 
#    z 0.000000 0.000000 1.808200 
# 
# From -- ./inp_files/1098.got.cif
#   From: 2010.05.17/outbox.cif.g08.bks.cpg/sg113_cif.got.tgz:1098.got - 2010.05.20 11:03:00.
