data_PCOD9555266
_publ_section_title
;
Structure prediction by ZEFSAII (Michael W. Deem and Ramdas Pophale) SiO2 
 PCOD9555266
Probable space group: P -4 2 C
;
_chemical_formula_sum "Si O2"
_cell_formula_units_Z 18
_cell_length_a 10.350287
_cell_length_b 10.350287
_cell_length_c 7.741566
_cell_angle_alpha 90.000000
_cell_angle_beta 90.000000
_cell_angle_gamma 90.000000
_cell_volume 829.341896
_symmetry_space_group_name_H-M "P -4 2 C"
_symmetry_group_IT_number 112
_symmetry_cell_setting 'tetragonal'
loop_
_space_group_symop_operation_xyz
x,y,z
y,-x,-z
-x,-y,z
-y,x,-z
x,-y,1/2-z
-x,y,1/2-z
-y,-x,1/2+z
y,x,1/2+z
loop_
_atom_site_type_symbol
_atom_site_label
_atom_site_fract_x
_atom_site_fract_y
_atom_site_fract_z
Si Si1 0.719716 0.500000 0.750000
Si Si2 0.000000 0.000000 0.000000
Si Si3 0.226282 0.611682 0.386170
Si Si4 0.789711 0.000000 0.750000
O O1 0.649478 0.623532 0.656576
O O2 0.787106 0.433744 0.584433
O O3 0.887008 0.938809 0.888098
O O4 0.198147 0.500000 0.250000
O O5 0.116264 0.713876 0.338283
#
# Coordination Sequence:
#
# PCOD9555266 Si02
#       4
#     4   2   8   4
#     4  12  25  42  77 110 152 199 243 300 384 439
#     4  10  24  46  80  90 144 206 248 302 376 442
#     4  12  25  44  72 111 152 192 246 305 368 446
#     4  11  25  50  70 108 145 197 256 306 368 447
#
# _framework density 21.703952999999998
#
# number of rings (size 3 to 8) (size 9 to 14) (size 15 to 20)
#    0.000    0.444    4.444    4.000    0.000    0.000 
#    0.000    2.222    0.000    0.000    0.000    0.000 
#    0.000    0.000    0.000    0.000    0.000    0.000 
#
# Total GULP energy -100314.951505 kJ/mol
# GULP energy per Si atom -5573.052861 kJ/mol
# Density = 2.165455 g / cm^3
# Si number density = 21.703953 Si / 1000 Ang^3
#
#
#
# Elastic Constant Matrix: (Units=GPa)
#
#
# Indices 1 2 3 4 5 6 
#
# 1 86.1388 74.4515 65.0494 0.0000 0.0000 0.0000
# 2 74.4515 86.1388 65.0494 0.0000 0.0000 0.0000
# 3 65.0494 65.0494 206.7801 0.0000 0.0000 0.0000
# 4 0.0000 0.0000 0.0000 2572.7480 0.0000 0.0000
# 5 0.0000 0.0000 0.0000 0.0000 2572.7480 0.0000
# 6 0.0000 0.0000 0.0000 0.0000 0.0000 41.0642
#
#
#
# Elastic Compliance Matrix: (Units=1/GPa)
#
#
# Indices 1 2 3 4 5 6 
#
# 1 0.046960 -0.038603 -0.002629 0.000000 0.000000 0.000000
# 2 -0.038603 0.046960 -0.002629 0.000000 0.000000 0.000000
# 3 -0.002629 -0.002629 0.006490 0.000000 0.000000 0.000000
# 4 0.000000 0.000000 0.000000 0.000389 0.000000 0.000000
# 5 0.000000 0.000000 0.000000 0.000000 0.000389 0.000000
# 6 0.000000 0.000000 0.000000 0.000000 0.000000 0.024352
#
#
# Mechanical properties :
#
#
# Convention : Reuss Voigt Hill
#
# Bulk Modulus (GPa) = 78.81445 87.57313 83.19379
# Shear Modulus (GPa) = 22.98949 1048.94587 535.96768
#
# Velocity S-wave (km/s) = 3.25811 22.00787 15.73152
# Velocity P-wave (km/s) = 7.10957 26.19602 19.19346
#
# Compressibility (1/GPa) = 0.01268803
#
# Stress axis : x y z
#
# Youngs Moduli (GPa) = 21.29474 21.29474 154.08173
#
# Poissons Ratio (x) = 0.82204 0.40506
# Poissons Ratio (y) = 0.82204 0.40506
# Poissons Ratio (z) = 0.05598 0.05598
#
# Static dielectric constant tensor:
#      x y z
#    x 1.420870 0.000000 0.000000 
#    y 0.000000 1.420870 0.000000 
#    z 0.000000 0.000000 1.812120 
# 
# From -- ./inp_files/753.got.cif
#   From: 2010.05.17/outbox.cif.g08.bks.cpg/sg112_1_cif.got.tgz:753.got - 2010.05.20 10:59:04.
