data_PCOD9555311
_publ_section_title
;
Structure prediction by ZEFSAII (Michael W. Deem and Ramdas Pophale) SiO2 
 PCOD9555311
Probable space group: P -4 2 C
;
_chemical_formula_sum "Si O2"
_cell_formula_units_Z 40
_cell_length_a 15.020489
_cell_length_b 15.020489
_cell_length_c 9.911393
_cell_angle_alpha 90.000000
_cell_angle_beta 90.000000
_cell_angle_gamma 90.000000
_cell_volume 2236.159822
_symmetry_space_group_name_H-M "P -4 2 C"
_symmetry_group_IT_number 112
_symmetry_cell_setting 'tetragonal'
loop_
_space_group_symop_operation_xyz
x,y,z
y,-x,-z
-x,-y,z
-y,x,-z
x,-y,1/2-z
-x,y,1/2-z
-y,-x,1/2+z
y,x,1/2+z
loop_
_atom_site_type_symbol
_atom_site_label
_atom_site_fract_x
_atom_site_fract_y
_atom_site_fract_z
Si Si1 0.639395 0.000000 0.250000
Si Si2 0.614112 0.408584 0.527669
Si Si3 0.861948 0.219529 0.795658
Si Si4 0.139395 0.500000 0.750000
Si Si5 0.361948 0.280471 0.204342
Si Si6 0.908584 0.885888 0.972331
O O1 0.707231 0.061984 0.333187
O O2 0.572106 0.072106 0.182439
O O3 0.509739 0.382780 0.525277
O O4 0.659123 0.397861 0.673115
O O5 0.659202 0.342569 0.421485
O O6 0.776517 0.276517 0.752507
O O7 0.840798 0.157431 0.921485
O O8 0.897861 0.159123 0.673115
O O9 0.207231 0.561984 0.833187
O O10 0.009739 0.882780 0.025277
#
# Coordination Sequence:
#
# PCOD9555311 Si02
#       6
#     4   8   8   4   8   8
#     4   9  18  34  55  76 100 134 179 222 256 301
#     4  11  21  36  54  78 109 141 172 212 266 313
#     4  11  21  36  56  80 105 137 179 218 258 308
#     4   9  18  34  55  76 100 134 179 222 256 301
#     4  11  21  36  56  80 105 137 179 218 258 308
#     4  11  21  36  54  78 109 141 172 212 266 313
#
# _framework density 17.887809000000001
#
# number of rings (size 3 to 8) (size 9 to 14) (size 15 to 20)
#    0.000    1.400    4.000    2.400    0.000    3.200 
#    0.000    0.000    0.000    0.000    0.000    0.000 
#    0.000   22.400    0.000    0.000    0.000    0.000 
#
# Total GULP energy -222671.952251 kJ/mol
# GULP energy per Si atom -5566.798806 kJ/mol
# Density = 1.784710 g / cm^3
# Si number density = 17.887809 Si / 1000 Ang^3
#
#
#
# Elastic Constant Matrix: (Units=GPa)
#
#
# Indices 1 2 3 4 5 6 
#
# 1 67.8105 27.5792 18.6405 0.0000 0.0000 0.0000
# 2 27.5792 67.8105 18.6405 0.0000 0.0000 0.0000
# 3 18.6405 18.6405 59.9734 0.0000 0.0000 0.0000
# 4 0.0000 0.0000 0.0000 20.4565 0.0000 0.0000
# 5 0.0000 0.0000 0.0000 0.0000 20.4565 0.0000
# 6 0.0000 0.0000 0.0000 0.0000 0.0000 29.4437
#
#
#
# Elastic Compliance Matrix: (Units=1/GPa)
#
#
# Indices 1 2 3 4 5 6 
#
# 1 0.018395 -0.006462 -0.003709 0.000000 0.000000 0.000000
# 2 -0.006462 0.018395 -0.003709 0.000000 0.000000 0.000000
# 3 -0.003709 -0.003709 0.018980 0.000000 0.000000 0.000000
# 4 0.000000 0.000000 0.000000 0.048884 0.000000 0.000000
# 5 0.000000 0.000000 0.000000 0.000000 0.048884 0.000000
# 6 0.000000 0.000000 0.000000 0.000000 0.000000 0.033963
#
#
# Mechanical properties :
#
#
# Convention : Reuss Voigt Hill
#
# Bulk Modulus (GPa) = 35.70180 36.14605 35.92393
# Shear Modulus (GPa) = 22.26223 22.78696 22.52459
#
# Velocity S-wave (km/s) = 3.53164 3.57302 3.55239
# Velocity P-wave (km/s) = 6.05244 6.10516 6.07886
#
# Compressibility (1/GPa) = 0.02800979
#
# Stress axis : x y z
#
# Youngs Moduli (GPa) = 54.36389 54.36389 52.68815
#
# Poissons Ratio (x) = 0.35128 0.19541
# Poissons Ratio (y) = 0.35128 0.19541
# Poissons Ratio (z) = 0.20163 0.20163
#
# Static dielectric constant tensor:
#      x y z
#    x 1.646640 0.000000 0.000000 
#    y 0.000000 1.646640 0.000000 
#    z 0.000000 0.000000 1.549030 
# 
# From -- ./inp_files/1271.got.cif
#   From: 2010.05.17/outbox.cif.g08.bks.cpg/sg112_1_cif.got.tgz:1271.got - 2010.05.20 10:59:04.
