data_PCOD9555562
_publ_section_title
;
Structure prediction by ZEFSAII (Michael W. Deem and Ramdas Pophale) SiO2 
 PCOD9555562
Probable space group: P -4 21 M 
;
_chemical_formula_sum "Si O2"
_cell_formula_units_Z 56
_cell_length_a 14.431232
_cell_length_b 14.431232
_cell_length_c 12.505449
_cell_angle_alpha 90.000000
_cell_angle_beta 90.000000
_cell_angle_gamma 90.000000
_cell_volume 2604.390524
_symmetry_space_group_name_H-M "P -4 21 M "
_symmetry_group_IT_number 113
_symmetry_cell_setting 'tetragonal'
loop_
_space_group_symop_operation_xyz
x,y,z
y,-x,-z
-x,-y,z
-y,x,-z
1/2+x,1/2-y,-z
1/2-x,1/2+y,-z
1/2-y,1/2-x,z
1/2+y,1/2+x,z
loop_
_atom_site_type_symbol
_atom_site_label
_atom_site_fract_x
_atom_site_fract_y
_atom_site_fract_z
Si Si1 0.159031 0.939380 0.267382
Si Si2 0.312315 0.966452 0.949458
Si Si3 0.871037 0.109037 0.634836
Si Si4 0.874790 0.076256 0.030344
Si Si5 0.919368 0.197467 0.434321
Si Si6 0.850804 0.491448 0.817011
Si Si7 0.032117 0.313855 0.287596
O O1 0.124664 0.898692 0.154529
O O2 0.146289 0.860244 0.355131
O O3 0.107020 0.034799 0.297781
O O4 0.263775 0.971740 0.247593
O O5 0.400881 0.900881 0.945059
O O6 0.309175 0.010076 0.831824
O O7 0.221097 0.904434 0.971585
O O8 0.322592 0.024077 0.058599
O O9 0.878092 0.194245 0.552369
O O10 0.776243 0.100642 0.702065
O O11 0.861765 0.015537 0.563649
O O12 0.964746 0.116067 0.974558
O O13 0.955083 0.291311 0.377598
O O14 0.899265 0.399265 0.774478
O O15 0.927710 0.572291 0.817353
O O16 0.093754 0.406247 0.302467
#
# Coordination Sequence:
#
# PCOD9555562 Si02
#       7
#     8   8   8   8   8   8   8
#     4  11  19  30  53  78 106 146 189 235 291 363
#     4   9  17  34  53  74 104 146 188 227 278 344
#     4  10  20  32  54  78 110 149 195 247 311 360
#     4  10  20  28  42  73 108 136 171 219 284 344
#     4  10  20  33  54  78 113 147 197 250 307 363
#     4   9  20  38  58  80 111 149 193 240 290 356
#     4   9  19  31  52  79 112 148 190 240 298 363
#
# _framework density 21.502151000000001
#
# number of rings (size 3 to 8) (size 9 to 14) (size 15 to 20)
#    0.857    1.429    1.429    2.143    4.000    0.571 
#    0.000    7.143    0.000    5.143    0.000    1.000 
#    0.000    2.286    0.000    0.000    0.000    0.000 
#
# Total GULP energy -311983.248676 kJ/mol
# GULP energy per Si atom -5571.129441 kJ/mol
# Density = 2.145321 g / cm^3
# Si number density = 21.502151 Si / 1000 Ang^3
#
#
#
# Elastic Constant Matrix: (Units=GPa)
#
#
# Indices 1 2 3 4 5 6 
#
# 1 41.3717 31.9859 6.9474 0.0000 0.0000 0.0000
# 2 31.9859 41.3715 6.9476 0.0000 0.0000 0.0000
# 3 6.9474 6.9476 71.1731 0.0000 0.0000 0.0000
# 4 0.0000 0.0000 0.0000 12.7532 0.0000 0.0000
# 5 0.0000 0.0000 0.0000 0.0000 12.7532 0.0000
# 6 0.0000 0.0000 0.0000 0.0000 0.0000 22.2945
#
#
#
# Elastic Compliance Matrix: (Units=1/GPa)
#
#
# Indices 1 2 3 4 5 6 
#
# 1 0.060217 -0.046328 -0.001356 0.000000 0.000000 0.000000
# 2 -0.046328 0.060217 -0.001356 0.000000 0.000000 0.000000
# 3 -0.001356 -0.001356 0.014315 0.000000 0.000000 0.000000
# 4 0.000000 0.000000 0.000000 0.078412 0.000000 0.000000
# 5 0.000000 0.000000 0.000000 0.000000 0.078412 0.000000
# 6 0.000000 0.000000 0.000000 0.000000 0.000000 0.044854
#
#
# Mechanical properties :
#
#
# Convention : Reuss Voigt Hill
#
# Bulk Modulus (GPa) = 27.27072 27.29755 27.28414
# Shear Modulus (GPa) = 11.19248 16.76252 13.97750
#
# Velocity S-wave (km/s) = 2.28398 2.79511 2.55238
# Velocity P-wave (km/s) = 4.43461 4.81038 4.62631
#
# Compressibility (1/GPa) = 0.03666936
#
# Stress axis : x y z
#
# Youngs Moduli (GPa) = 16.60673 16.60666 69.85711
#
# Poissons Ratio (x) = 0.76935 0.09470
# Poissons Ratio (y) = 0.76936 0.09471
# Poissons Ratio (z) = 0.02251 0.02252
#
# Static dielectric constant tensor:
#      x y z
#    x 1.804860 0.000000 0.000000 
#    y 0.000000 1.804860 0.000000 
#    z 0.000000 0.000000 1.801750 
# 
# From -- ./inp_files/2274.got.cif
#   From: 2010.05.17/outbox.cif.g08.bks.cpg/sg113_cif.got.tgz:2274.got - 2010.05.20 11:03:00.
