data_PCOD9555148
_publ_section_title
;
Structure prediction by ZEFSAII (Michael W. Deem and Ramdas Pophale) SiO2 
 PCOD9555148
Probable space group: P -4 2 C
;
_chemical_formula_sum "Si O2"
_cell_formula_units_Z 52
_cell_length_a 16.549082
_cell_length_b 16.549082
_cell_length_c 9.323971
_cell_angle_alpha 90.000000
_cell_angle_beta 90.000000
_cell_angle_gamma 90.000000
_cell_volume 2553.575658
_symmetry_space_group_name_H-M "P -4 2 C"
_symmetry_group_IT_number 112
_symmetry_cell_setting 'tetragonal'
loop_
_space_group_symop_operation_xyz
x,y,z
y,-x,-z
-x,-y,z
-y,x,-z
x,-y,1/2-z
-x,y,1/2-z
-y,-x,1/2+z
y,x,1/2+z
loop_
_atom_site_type_symbol
_atom_site_label
_atom_site_fract_x
_atom_site_fract_y
_atom_site_fract_z
Si Si1 0.618726 0.000000 0.250000
Si Si2 0.500000 0.798125 0.750000
Si Si3 0.159365 0.216440 0.100520
Si Si4 0.639335 0.293331 0.907214
Si Si5 0.265676 0.407637 0.775181
Si Si6 0.266899 0.132933 0.299133
Si Si7 0.000000 0.711217 0.250000
Si Si8 0.568889 0.064010 0.548908
O O1 0.680625 0.055566 0.163764
O O2 0.576010 0.053363 0.374773
O O3 0.430397 0.742115 0.809465
O O4 0.463859 0.853392 0.620036
O O5 0.222855 0.291965 0.106012
O O6 0.208349 0.140739 0.163941
O O7 0.075757 0.239427 0.181280
O O8 0.147747 0.208642 0.932070
O O9 0.674401 0.376610 0.847579
O O10 0.605910 0.302194 0.067199
O O11 0.240382 0.500000 0.750000
O O12 0.196182 0.339616 0.775598
O O13 0.038805 0.651271 0.129423
O O14 0.500000 0.000000 0.587712
#
# Coordination Sequence:
#
# PCOD9555148 Si02
#       8
#     4   4   8   8   8   8   4   8
#     4  12  27  38  60  97 140 162 208 268 330 389
#     4  12  23  38  69  88 128 174 214 258 333 415
#     4  10  21  40  61  91 124 169 216 252 313 383
#     4  10  23  40  64  90 121 167 216 268 330 391
#     4  10  24  43  64  88 122 165 222 275 325 390
#     4  10  24  40  62  93 127 170 213 264 318 390
#     4  12  19  40  64  89 128 168 208 256 318 393
#     4  12  23  38  59  96 134 165 200 258 329 407
#
# _framework density 20.363600999999999
#
# number of rings (size 3 to 8) (size 9 to 14) (size 15 to 20)
#    0.000    1.231    4.615    0.231    8.615    1.231 
#    0.000    0.385    0.000    0.462    0.000    2.154 
#    0.000    0.000    0.000    0.000    0.000    0.000 
#
# Total GULP energy -289821.910512 kJ/mol
# GULP energy per Si atom -5573.498279 kJ/mol
# Density = 2.031725 g / cm^3
# Si number density = 20.363601 Si / 1000 Ang^3
#
#
#
# Elastic Constant Matrix: (Units=GPa)
#
#
# Indices 1 2 3 4 5 6 
#
# 1 41.2998 2.4137 14.5932 0.0000 0.0000 0.0000
# 2 2.4137 41.2998 14.5932 0.0000 0.0000 0.0000
# 3 14.5932 14.5932 90.4647 0.0000 0.0000 0.0000
# 4 0.0000 0.0000 0.0000 35.1127 0.0000 0.0000
# 5 0.0000 0.0000 0.0000 0.0000 35.1127 0.0000
# 6 0.0000 0.0000 0.0000 0.0000 0.0000 17.7259
#
#
#
# Elastic Compliance Matrix: (Units=1/GPa)
#
#
# Indices 1 2 3 4 5 6 
#
# 1 0.025677 -0.000039 -0.004136 0.000000 0.000000 0.000000
# 2 -0.000039 0.025677 -0.004136 0.000000 0.000000 0.000000
# 3 -0.004136 -0.004136 0.012388 0.000000 0.000000 0.000000
# 4 0.000000 0.000000 0.000000 0.028480 0.000000 0.000000
# 5 0.000000 0.000000 0.000000 0.000000 0.028480 0.000000
# 6 0.000000 0.000000 0.000000 0.000000 0.000000 0.056415
#
#
# Mechanical properties :
#
#
# Convention : Reuss Voigt Hill
#
# Bulk Modulus (GPa) = 21.22215 26.25162 23.73688
# Shear Modulus (GPa) = 23.87270 27.02119 25.44695
#
# Velocity S-wave (km/s) = 3.42763 3.64666 3.53884
# Velocity P-wave (km/s) = 5.10971 5.53627 5.32726
#
# Compressibility (1/GPa) = 0.04712057
#
# Stress axis : x y z
#
# Youngs Moduli (GPa) = 38.94567 38.94567 80.72119
#
# Poissons Ratio (x) = 0.00153 0.33384
# Poissons Ratio (y) = 0.00153 0.33384
# Poissons Ratio (z) = 0.16107 0.16107
#
# Static dielectric constant tensor:
#      x y z
#    x 1.821240 0.000000 0.000000 
#    y 0.000000 1.821240 0.000000 
#    z 0.000000 0.000000 1.773510 
# 
# From -- ./inp_files/1514.got.cif
#   From: 2010.05.17/outbox.cif.g08.bks.cpg/sg112_1_cif.got.tgz:1514.got - 2010.05.20 10:59:04.
