data_PCOD9555839
_publ_section_title
;
Structure prediction by ZEFSAII (Michael W. Deem and Ramdas Pophale) SiO2 
 PCOD9555839
Probable space group: P -4 21 C
;
_chemical_formula_sum "Si O2"
_cell_formula_units_Z 60
_cell_length_a 15.443492
_cell_length_b 15.443492
_cell_length_c 13.930002
_cell_angle_alpha 90.000000
_cell_angle_beta 90.000000
_cell_angle_gamma 90.000000
_cell_volume 3322.325608
_symmetry_space_group_name_H-M "P -4 21 C"
_symmetry_group_IT_number 114
_symmetry_cell_setting 'tetragonal'
loop_
_space_group_symop_operation_xyz
x,y,z
y,-x,-z
-x,-y,z
-y,x,-z
1/2+x,1/2-y,1/2-z
1/2-x,1/2+y,1/2-z
1/2-y,1/2-x,1/2+z
1/2+y,1/2+x,1/2+z
loop_
_atom_site_type_symbol
_atom_site_label
_atom_site_fract_x
_atom_site_fract_y
_atom_site_fract_z
Si Si1 0.104255 0.926504 0.032338
Si Si2 0.814337 0.334712 0.305489
Si Si3 0.847541 0.515474 0.759066
Si Si4 0.026589 0.254178 0.856424
Si Si5 0.217716 0.312130 0.819895
Si Si6 0.348944 0.029735 0.955621
Si Si7 0.801344 0.252602 0.012376
Si Si8 0.500000 0.000000 0.596238
O O1 0.151324 0.965047 0.126062
O O2 0.156995 0.842507 0.000255
O O3 0.004730 0.898528 0.043968
O O4 0.915237 0.326282 0.280033
O O5 0.787213 0.437243 0.309185
O O6 0.749657 0.280597 0.239697
O O7 0.798414 0.296307 0.411032
O O8 0.778156 0.588511 0.787507
O O9 0.866092 0.518574 0.644572
O O10 0.927934 0.535372 0.830736
O O11 0.116544 0.283606 0.808909
O O12 0.020557 0.288808 0.967283
O O13 0.242096 0.286824 0.929053
O O14 0.305834 0.122494 0.933538
O O15 0.432406 0.042441 0.022933
#
# Coordination Sequence:
#
# PCOD9555839 Si02
#       8
#     8   8   8   8   8   8   8   4
#     4  10  18  29  54  85 113 155 200 245 302 378
#     4  11  22  41  62  86 132 166 200 272 318 377
#     4  12  23  37  61  95 122 161 216 259 320 383
#     4  10  21  39  58  88 127 157 205 261 314 381
#     4  11  24  38  62  92 125 163 219 254 311 397
#     4  11  21  38  60  85 123 162 193 263 325 373
#     4  10  21  40  57  84 125 165 199 260 325 367
#     4  12  22  40  60  90 126 158 206 262 322 396
#
# _framework density 18.059639000000001
#
# number of rings (size 3 to 8) (size 9 to 14) (size 15 to 20)
#    0.000    1.200    8.000    0.400    3.733    0.000 
#    0.000    1.333    0.000    0.000    0.000    0.000 
#    0.000    0.000    0.000    0.000    0.000    0.000 
#
# Total GULP energy -334046.982251 kJ/mol
# GULP energy per Si atom -5567.449704 kJ/mol
# Density = 1.801853 g / cm^3
# Si number density = 18.059639 Si / 1000 Ang^3
#
#
#
# Elastic Constant Matrix: (Units=GPa)
#
#
# Indices 1 2 3 4 5 6 
#
# 1 95.4942 40.5742 29.4891 0.0000 0.0000 0.0000
# 2 40.5742 95.4942 29.4891 0.0000 0.0000 0.0000
# 3 29.4891 29.4891 85.0503 0.0000 0.0000 0.0000
# 4 0.0000 0.0000 0.0000 22.9512 0.0000 0.0000
# 5 0.0000 0.0000 0.0000 0.0000 22.9512 0.0000
# 6 0.0000 0.0000 0.0000 0.0000 0.0000 21.4213
#
#
#
# Elastic Compliance Matrix: (Units=1/GPa)
#
#
# Indices 1 2 3 4 5 6 
#
# 1 0.013429 -0.004780 -0.002999 0.000000 0.000000 0.000000
# 2 -0.004780 0.013429 -0.002999 0.000000 0.000000 0.000000
# 3 -0.002999 -0.002999 0.013837 0.000000 0.000000 0.000000
# 4 0.000000 0.000000 0.000000 0.043571 0.000000 0.000000
# 5 0.000000 0.000000 0.000000 0.000000 0.043571 0.000000
# 6 0.000000 0.000000 0.000000 0.000000 0.000000 0.046683
#
#
# Mechanical properties :
#
#
# Convention : Reuss Voigt Hill
#
# Bulk Modulus (GPa) = 52.24648 52.79373 52.52011
# Shear Modulus (GPa) = 24.69706 25.23049 24.96377
#
# Velocity S-wave (km/s) = 3.70202 3.74179 3.72196
# Velocity P-wave (km/s) = 6.87503 6.92564 6.90038
#
# Compressibility (1/GPa) = 0.01914004
#
# Stress axis : x y z
#
# Youngs Moduli (GPa) = 74.46739 74.46739 72.26838
#
# Poissons Ratio (x) = 0.35593 0.21672
# Poissons Ratio (y) = 0.35593 0.21672
# Poissons Ratio (z) = 0.22332 0.22332
#
# Static dielectric constant tensor:
#      x y z
#    x 1.679170 0.000000 0.000000 
#    y 0.000000 1.679170 0.000000 
#    z 0.000000 0.000000 1.646620 
# 
# From -- ./inp_files/2287.got.cif
#   From: 2010.05.17/outbox.cif.g08.bks.cpg/sg114_2_cif.got.tgz:2287.got - 2010.05.20 11:04:54.
