data_PCOD9555055
_publ_section_title
;
Structure prediction by ZEFSAII (Michael W. Deem and Ramdas Pophale) SiO2 
 PCOD9555055
Probable space group: P -4 2 C
;
_chemical_formula_sum "Si O2"
_cell_formula_units_Z 32
_cell_length_a 17.664090
_cell_length_b 17.664090
_cell_length_c 4.974605
_cell_angle_alpha 90.000000
_cell_angle_beta 90.000000
_cell_angle_gamma 90.000000
_cell_volume 1552.176628
_symmetry_space_group_name_H-M "P -4 2 C"
_symmetry_group_IT_number 112
_symmetry_cell_setting 'tetragonal'
loop_
_space_group_symop_operation_xyz
x,y,z
y,-x,-z
-x,-y,z
-y,x,-z
x,-y,1/2-z
-x,y,1/2-z
-y,-x,1/2+z
y,x,1/2+z
loop_
_atom_site_type_symbol
_atom_site_label
_atom_site_fract_x
_atom_site_fract_y
_atom_site_fract_z
Si Si1 0.051096 0.303470 0.018455
Si Si2 0.859890 0.919817 0.783033
Si Si3 0.579802 0.648384 0.616786
Si Si4 0.705284 0.778681 0.572553
O O1 0.000000 0.302467 0.750000
O O2 0.067880 0.220233 0.141619
O O3 0.138862 0.328066 0.995981
O O4 0.000000 0.342733 0.250000
O O5 0.900672 0.858580 0.595307
O O6 0.901143 0.000000 0.750000
O O7 0.500000 0.668812 0.750000
O O8 0.585631 0.614680 0.318944
O O9 0.635619 0.720400 0.601450
O O10 0.766037 0.750192 0.351200
#
# Coordination Sequence:
#
# PCOD9555055 Si02
#       4
#     8   8   8   8
#     4  11  21  34  52  75 100 132 181 239 287 327
#     4  11  21  32  44  60  85 120 163 214 275 339
#     4  10  21  36  58  90 123 157 190 221 269 331
#     4  10  20  36  57  80 110 148 189 234 284 340
#
# _framework density 20.616212999999998
#
# number of rings (size 3 to 8) (size 9 to 14) (size 15 to 20)
#    0.000    1.500    0.000    7.500    0.000    3.000 
#    0.000    0.000    0.000    0.750    0.000    1.750 
#    0.000    0.000    0.000    0.000    0.000    0.000 
#
# Total GULP energy -178316.562238 kJ/mol
# GULP energy per Si atom -5572.392570 kJ/mol
# Density = 2.056929 g / cm^3
# Si number density = 20.616213 Si / 1000 Ang^3
#
#
#
# Elastic Constant Matrix: (Units=GPa)
#
#
# Indices 1 2 3 4 5 6 
#
# 1 83.2924 29.3693 24.2876 0.0000 0.0000 0.0000
# 2 29.3693 83.2924 24.2876 0.0000 0.0000 0.0000
# 3 24.2876 24.2876 97.6166 0.0000 0.0000 0.0000
# 4 0.0000 0.0000 0.0000 25.4777 0.0000 0.0000
# 5 0.0000 0.0000 0.0000 0.0000 25.4777 0.0000
# 6 0.0000 0.0000 0.0000 0.0000 0.0000 1.8993
#
#
#
# Elastic Compliance Matrix: (Units=1/GPa)
#
#
# Indices 1 2 3 4 5 6 
#
# 1 0.014244 -0.004301 -0.002474 0.000000 0.000000 0.000000
# 2 -0.004301 0.014244 -0.002474 0.000000 0.000000 0.000000
# 3 -0.002474 -0.002474 0.011475 0.000000 0.000000 0.000000
# 4 0.000000 0.000000 0.000000 0.039250 0.000000 0.000000
# 5 0.000000 0.000000 0.000000 0.000000 0.039250 0.000000
# 6 0.000000 0.000000 0.000000 0.000000 0.000000 0.526500
#
#
# Mechanical properties :
#
#
# Convention : Reuss Voigt Hill
#
# Bulk Modulus (GPa) = 46.58662 46.67670 46.63166
# Shear Modulus (GPa) = 7.45583 22.98805 15.22194
#
# Velocity S-wave (km/s) = 1.90377 3.34286 2.72020
# Velocity P-wave (km/s) = 5.24200 6.13103 5.70386
#
# Compressibility (1/GPa) = 0.02146539
#
# Stress axis : x y z
#
# Youngs Moduli (GPa) = 70.20579 70.20579 87.14473
#
# Poissons Ratio (x) = 0.30196 0.21558
# Poissons Ratio (y) = 0.30196 0.21558
# Poissons Ratio (z) = 0.17368 0.17368
#
# Static dielectric constant tensor:
#      x y z
#    x 1.830150 0.000000 0.000000 
#    y 0.000000 1.830150 0.000000 
#    z 0.000000 0.000000 1.760180 
# 
# From -- ./inp_files/221.got.cif
#   From: 2010.05.17/outbox.cif.g08.bks.cpg/sg112_1_cif.got.tgz:221.got - 2010.05.20 10:59:04.
