data_PCOD9555748
_publ_section_title
;
Structure prediction by ZEFSAII (Michael W. Deem and Ramdas Pophale) SiO2 
 PCOD9555748
Probable space group: P -4 21 M 
;
_chemical_formula_sum "Si O2"
_cell_formula_units_Z 26
_cell_length_a 11.660409
_cell_length_b 11.660409
_cell_length_c 9.419381
_cell_angle_alpha 90.000000
_cell_angle_beta 90.000000
_cell_angle_gamma 90.000000
_cell_volume 1280.707438
_symmetry_space_group_name_H-M "P -4 21 M "
_symmetry_group_IT_number 113
_symmetry_cell_setting 'tetragonal'
loop_
_space_group_symop_operation_xyz
x,y,z
y,-x,-z
-x,-y,z
-y,x,-z
1/2+x,1/2-y,-z
1/2-x,1/2+y,-z
1/2-y,1/2-x,z
1/2+y,1/2+x,z
loop_
_atom_site_type_symbol
_atom_site_label
_atom_site_fract_x
_atom_site_fract_y
_atom_site_fract_z
Si Si1 0.177544 0.052790 0.526296
Si Si2 0.500000 0.500000 0.000000
Si Si3 0.095641 0.595641 0.984742
Si Si4 0.366068 0.310114 0.846293
Si Si5 0.096608 0.596608 0.650895
O O1 0.201274 0.102315 0.681938
O O2 0.287561 0.056974 0.426473
O O3 0.075538 0.129036 0.460763
O O4 0.431738 0.591511 0.096744
O O5 0.115323 0.615323 0.818219
O O6 0.000000 0.500000 0.003625
O O7 0.214028 0.565039 0.064055
O O8 0.233858 0.266143 0.864962
O O9 0.000000 0.500000 0.634444
#
# Coordination Sequence:
#
# PCOD9555748 Si02
#       5
#     8   2   4   8   4
#     4  11  25  44  69 101 137 178 227 282 350 415
#     4  12  24  44  74 104 136 180 238 304 348 420
#     4   9  23  47  67 101 142 181 232 287 354 418
#     4  10  25  44  68 105 135 184 233 284 357 421
#     4  11  25  45  69 104 135 184 229 295 344 416
#
# _framework density 20.301279999999998
#
# number of rings (size 3 to 8) (size 9 to 14) (size 15 to 20)
#    0.923    0.615    1.538    1.846   10.769    3.692 
#    0.000    0.000    0.000    0.000    0.000    0.000 
#    0.000    0.000    0.000    0.000    0.000    0.000 
#
# Total GULP energy -145131.949112 kJ/mol
# GULP energy per Si atom -5581.998043 kJ/mol
# Density = 2.025507 g / cm^3
# Si number density = 20.301280 Si / 1000 Ang^3
#
#
#
# Elastic Constant Matrix: (Units=GPa)
#
#
# Indices 1 2 3 4 5 6 
#
# 1 81.2360 35.1994 22.5489 0.0000 0.0000 0.0000
# 2 35.1994 81.2344 22.5487 0.0000 0.0000 0.0000
# 3 22.5489 22.5487 63.2810 0.0000 0.0000 0.0000
# 4 0.0000 0.0000 0.0000 3.5334 0.0000 0.0000
# 5 0.0000 0.0000 0.0000 0.0000 3.5310 0.0000
# 6 0.0000 0.0000 0.0000 0.0000 0.0000 26.4699
#
#
#
# Elastic Compliance Matrix: (Units=1/GPa)
#
#
# Indices 1 2 3 4 5 6 
#
# 1 0.015843 -0.005879 -0.003550 0.000000 0.000000 0.000000
# 2 -0.005879 0.015843 -0.003550 0.000000 0.000000 0.000000
# 3 -0.003550 -0.003550 0.018333 0.000000 0.000000 0.000000
# 4 0.000000 0.000000 0.000000 0.283012 0.000000 0.000000
# 5 0.000000 0.000000 0.000000 0.000000 0.283209 0.000000
# 6 0.000000 0.000000 0.000000 0.000000 0.000000 0.037779
#
#
# Mechanical properties :
#
#
# Convention : Reuss Voigt Hill
#
# Bulk Modulus (GPa) = 41.56507 42.92726 42.24616
# Shear Modulus (GPa) = 7.26746 16.40382 11.83564
#
# Velocity S-wave (km/s) = 1.89409 2.84565 2.41716
# Velocity P-wave (km/s) = 5.03011 5.65579 5.35210
#
# Compressibility (1/GPa) = 0.02405867
#
# Stress axis : x y z
#
# Youngs Moduli (GPa) = 63.12033 63.11908 54.54736
#
# Poissons Ratio (x) = 0.37109 0.19366
# Poissons Ratio (y) = 0.37110 0.19366
# Poissons Ratio (z) = 0.22410 0.22410
#
# Static dielectric constant tensor:
#      x y z
#    x 1.738280 0.000000 0.000000 
#    y 0.000000 1.738280 0.000000 
#    z 0.000000 0.000000 1.677230 
# 
# From -- ./inp_files/748.got.cif
#   From: 2010.05.17/outbox.cif.g08.bks.cpg/sg113_cif.got.tgz:748.got - 2010.05.20 11:03:00.
