data_PCOD9555164
_publ_section_title
;
Structure prediction by ZEFSAII (Michael W. Deem and Ramdas Pophale) SiO2 
 PCOD9555164
Probable space group: P -4 2 C
;
_chemical_formula_sum "Si O2"
_cell_formula_units_Z 40
_cell_length_a 14.718060
_cell_length_b 14.718060
_cell_length_c 9.407926
_cell_angle_alpha 90.000000
_cell_angle_beta 90.000000
_cell_angle_gamma 90.000000
_cell_volume 2037.957068
_symmetry_space_group_name_H-M "P -4 2 C"
_symmetry_group_IT_number 112
_symmetry_cell_setting 'tetragonal'
loop_
_space_group_symop_operation_xyz
x,y,z
y,-x,-z
-x,-y,z
-y,x,-z
x,-y,1/2-z
-x,y,1/2-z
-y,-x,1/2+z
y,x,1/2+z
loop_
_atom_site_type_symbol
_atom_site_label
_atom_site_fract_x
_atom_site_fract_y
_atom_site_fract_z
Si Si1 0.500000 0.245179 0.250000
Si Si2 0.435203 0.321223 0.537142
Si Si3 0.153808 0.292480 0.329672
Si Si4 0.317725 0.231012 0.128994
Si Si5 0.500000 0.829730 0.750000
Si Si6 0.500000 0.500000 0.000000
Si Si7 0.000000 0.149451 0.250000
Si Si8 0.000000 0.000000 0.000000
O O1 0.458165 0.306160 0.373592
O O2 0.412301 0.192834 0.190576
O O3 0.329213 0.337397 0.559062
O O4 0.471538 0.233787 0.618757
O O5 0.488731 0.408985 0.587960
O O6 0.245861 0.259042 0.249884
O O7 0.168936 0.284899 0.499206
O O8 0.129512 0.399314 0.292100
O O9 0.082290 0.218756 0.276254
O O10 0.010186 0.085135 0.109766
#
# Coordination Sequence:
#
# PCOD9555164 Si02
#       8
#     4   8   8   8   4   2   4   2
#     4  12  20  35  48  78 119 178 210 272 302 345
#     4  11  22  30  47  73 115 172 213 278 296 345
#     4  11  22  39  61  93 120 171 204 258 300 380
#     4  11  22  36  55  84 126 166 225 253 313 350
#     4  10  22  36  52  80 124 158 218 247 296 349
#     4  12  20  26  40  66 108 158 224 258 316 330
#     4  11  24  45  78  98 128 149 186 249 332 390
#     4  10  24  50  72 110 124 138 180 258 328 410
#
# _framework density 19.627497000000002
#
# number of rings (size 3 to 8) (size 9 to 14) (size 15 to 20)
#    0.000    1.000    6.000    1.200    2.800    1.200 
#    0.000    0.000    0.000    0.000    0.000    5.600 
#    0.000    0.000    0.000    0.000    0.000    0.000 
#
# Total GULP energy -222880.679574 kJ/mol
# GULP energy per Si atom -5572.016989 kJ/mol
# Density = 1.958282 g / cm^3
# Si number density = 19.627497 Si / 1000 Ang^3
#
#
#
# Elastic Constant Matrix: (Units=GPa)
#
#
# Indices 1 2 3 4 5 6 
#
# 1 79.8363 46.2050 26.6368 0.0000 0.0000 0.0000
# 2 46.2050 79.8363 26.6368 0.0000 0.0000 0.0000
# 3 26.6368 26.6368 110.7918 0.0000 0.0000 0.0000
# 4 0.0000 0.0000 0.0000 -4.7665 0.0000 0.0000
# 5 0.0000 0.0000 0.0000 0.0000 -4.7665 0.0000
# 6 0.0000 0.0000 0.0000 0.0000 0.0000 27.9859
#
#
#
# Elastic Compliance Matrix: (Units=1/GPa)
#
#
# Indices 1 2 3 4 5 6 
#
# 1 0.019283 -0.010451 -0.002123 0.000000 0.000000 0.000000
# 2 -0.010451 0.019283 -0.002123 0.000000 0.000000 0.000000
# 3 -0.002123 -0.002123 0.010047 0.000000 0.000000 0.000000
# 4 0.000000 0.000000 0.000000 -0.209799 0.000000 0.000000
# 5 0.000000 0.000000 0.000000 0.000000 -0.209799 0.000000
# 6 0.000000 0.000000 0.000000 0.000000 0.000000 0.035732
#
#
# Mechanical properties :
#
#
# Convention : Reuss Voigt Hill
#
# Bulk Modulus (GPa) = 52.03844 52.15797 52.09820
# Shear Modulus (GPa) = -16.69711 15.08966 -0.80373
#
# Velocity S-wave (km/s) = -2.91984 2.77574 -0.64061
# Velocity P-wave (km/s) = 3.89914 6.07491 5.10430
#
# Compressibility (1/GPa) = 0.01921656
#
# Stress axis : x y z
#
# Youngs Moduli (GPa) = 51.85980 51.85980 99.53330
#
# Poissons Ratio (x) = 0.54201 0.21133
# Poissons Ratio (y) = 0.54201 0.21133
# Poissons Ratio (z) = 0.11011 0.11011
#
# Static dielectric constant tensor:
#      x y z
#    x 1.720890 0.000000 0.000000 
#    y 0.000000 1.720890 0.000000 
#    z 0.000000 0.000000 1.722600 
# 
# From -- ./inp_files/1335.got.cif
#   From: 2010.05.17/outbox.cif.g08.bks.cpg/sg112_1_cif.got.tgz:1335.got - 2010.05.20 10:59:04.
