data_PCOD9555550
_publ_section_title
;
Structure prediction by ZEFSAII (Michael W. Deem and Ramdas Pophale) SiO2 
 PCOD9555550
Probable space group: P -4 21 M 
;
_chemical_formula_sum "Si O2"
_cell_formula_units_Z 64
_cell_length_a 11.448786
_cell_length_b 11.448786
_cell_length_c 23.886723
_cell_angle_alpha 90.000000
_cell_angle_beta 90.000000
_cell_angle_gamma 90.000000
_cell_volume 3130.945072
_symmetry_space_group_name_H-M "P -4 21 M "
_symmetry_group_IT_number 113
_symmetry_cell_setting 'tetragonal'
loop_
_space_group_symop_operation_xyz
x,y,z
y,-x,-z
-x,-y,z
-y,x,-z
1/2+x,1/2-y,-z
1/2-x,1/2+y,-z
1/2-y,1/2-x,z
1/2+y,1/2+x,z
loop_
_atom_site_type_symbol
_atom_site_label
_atom_site_fract_x
_atom_site_fract_y
_atom_site_fract_z
Si Si1 0.821368 0.874166 0.235824
Si Si2 0.364316 0.684156 0.442345
Si Si3 0.262491 0.567736 0.094088
Si Si4 0.122629 0.059607 0.353980
Si Si5 0.739410 0.559384 0.859571
Si Si6 0.191532 0.494552 0.981346
Si Si7 0.058079 0.257065 0.434992
Si Si8 0.499185 0.187915 0.790869
O O1 0.729885 0.770116 0.226850
O O2 0.806032 0.927743 0.297442
O O3 0.949927 0.810787 0.232289
O O4 0.790308 0.971785 0.190173
O O5 0.302427 0.802427 0.424672
O O6 0.476260 0.666019 0.403814
O O7 0.397088 0.696803 0.507503
O O8 0.272077 0.578828 0.435084
O O9 0.179658 0.679658 0.084972
O O10 0.372626 0.621207 0.125122
O O11 0.200034 0.491391 0.141603
O O12 0.278462 0.511175 0.033441
O O13 0.106176 0.186052 0.381885
O O14 0.000000 0.000000 0.337976
O O15 0.846486 0.653515 0.848687
O O16 0.767582 0.493972 0.917816
O O17 0.132964 0.367037 0.986313
O O18 0.088424 0.588424 0.989114
O O19 0.113213 0.386788 0.434536
O O20 0.589117 0.089117 0.770889
O O21 0.368823 0.131178 0.780060
#
# Coordination Sequence:
#
# PCOD9555550 Si02
#       8
#     8   8   8   8   8   8   8   8
#     4  11  24  40  60  87 118 163 209 248 301 366
#     4  10  20  36  61  93 126 162 202 249 309 365
#     4   9  18  33  55  81 111 143 185 244 306 361
#     4  10  22  38  62  88 119 158 204 250 297 363
#     4  10  22  37  55  82 120 162 204 248 297 358
#     4   9  17  32  54  79 110 151 194 240 302 367
#     4  10  19  36  62  89 124 161 200 251 303 361
#     4   9  19  37  60  85 112 145 190 249 312 370
#
# _framework density 20.441113000000001
#
# number of rings (size 3 to 8) (size 9 to 14) (size 15 to 20)
#    0.000    2.250    1.250    1.125    1.750    4.000 
#    0.000    5.000    0.000    4.125    0.000    0.000 
#    0.000    0.000    0.000    0.000    0.000    0.000 
#
# Total GULP energy -356454.670361 kJ/mol
# GULP energy per Si atom -5569.604224 kJ/mol
# Density = 2.039459 g / cm^3
# Si number density = 20.441113 Si / 1000 Ang^3
#
#
#
# Elastic Constant Matrix: (Units=GPa)
#
#
# Indices 1 2 3 4 5 6 
#
# 1 29.4870 40.7086 26.6950 0.0000 0.0000 0.0000
# 2 40.7086 29.4877 26.6951 0.0000 0.0000 0.0000
# 3 26.6950 26.6951 104.4015 0.0000 0.0000 0.0000
# 4 0.0000 0.0000 0.0000 19.2615 0.0000 0.0000
# 5 0.0000 0.0000 0.0000 0.0000 19.2632 0.0000
# 6 0.0000 0.0000 0.0000 0.0000 0.0000 19.7694
#
#
#
# Elastic Compliance Matrix: (Units=1/GPa)
#
#
# Indices 1 2 3 4 5 6 
#
# 1 -0.035716 0.053401 -0.004522 0.000000 0.000000 0.000000
# 2 0.053401 -0.035715 -0.004522 0.000000 0.000000 0.000000
# 3 -0.004522 -0.004522 0.011891 0.000000 0.000000 0.000000
# 4 0.000000 0.000000 0.000000 0.051917 0.000000 0.000000
# 5 0.000000 0.000000 0.000000 0.000000 0.051912 0.000000
# 6 0.000000 0.000000 0.000000 0.000000 0.000000 0.050583
#
#
# Mechanical properties :
#
#
# Convention : Reuss Voigt Hill
#
# Bulk Modulus (GPa) = 34.27799 39.06374 36.67087
# Shear Modulus (GPa) = 314.78234 16.27731 165.52982
#
# Velocity S-wave (km/s) = 12.42292 2.82494 9.00859
# Velocity P-wave (km/s) = 14.91903 5.45823 11.23321
#
# Compressibility (1/GPa) = 0.02917324
#
# Stress axis : x y z
#
# Youngs Moduli (GPa) = -27.99867 -27.99948 84.09757
#
# Poissons Ratio (x) = 1.49519 0.38029
# Poissons Ratio (y) = 1.49515 0.38030
# Poissons Ratio (z) = -0.12661 -0.12662
#
# Static dielectric constant tensor:
#      x y z
#    x 1.827830 0.000000 0.000000 
#    y 0.000000 1.827830 0.000000 
#    z 0.000000 0.000000 1.716980 
# 
# From -- ./inp_files/2940.got.cif
#   From: 2010.05.17/outbox.cif.g08.bks.cpg/sg113_cif.got.tgz:2940.got - 2010.05.20 11:03:00.
