data_PCOD9555503
_publ_section_title
;
Structure prediction by ZEFSAII (Michael W. Deem and Ramdas Pophale) SiO2 
 PCOD9555503
Probable space group: P -4 21 M 
;
_chemical_formula_sum "Si O2"
_cell_formula_units_Z 56
_cell_length_a 14.596004
_cell_length_b 14.596004
_cell_length_c 12.337429
_cell_angle_alpha 90.000000
_cell_angle_beta 90.000000
_cell_angle_gamma 90.000000
_cell_volume 2628.406992
_symmetry_space_group_name_H-M "P -4 21 M "
_symmetry_group_IT_number 113
_symmetry_cell_setting 'tetragonal'
loop_
_space_group_symop_operation_xyz
x,y,z
y,-x,-z
-x,-y,z
-y,x,-z
1/2+x,1/2-y,-z
1/2-x,1/2+y,-z
1/2-y,1/2-x,z
1/2+y,1/2+x,z
loop_
_atom_site_type_symbol
_atom_site_label
_atom_site_fract_x
_atom_site_fract_y
_atom_site_fract_z
Si Si1 0.787157 0.565229 0.818479
Si Si2 0.670574 0.322378 0.343094
Si Si3 0.562289 0.791751 0.804526
Si Si4 0.364332 0.710412 0.792548
Si Si5 0.796420 0.862817 0.427712
Si Si6 0.354434 0.995268 0.405584
Si Si7 0.743224 0.395071 0.958910
O O1 0.847398 0.652603 0.856311
O O2 0.698589 0.596709 0.749249
O O3 0.845463 0.513990 0.724688
O O4 0.763538 0.495534 0.912590
O O5 0.727745 0.227745 0.347073
O O6 0.741928 0.396178 0.299608
O O7 0.644213 0.347013 0.464630
O O8 0.605604 0.894397 0.808231
O O9 0.455540 0.770496 0.801367
O O10 0.601454 0.741309 0.911731
O O11 0.282080 0.782080 0.787734
O O12 0.353036 0.650060 0.683053
O O13 0.343860 0.647195 0.897123
O O14 0.716362 0.783639 0.427261
O O15 0.741567 0.958806 0.437829
O O16 0.429933 0.070068 0.434576
O O17 0.398362 0.898362 0.445456
O O18 0.829524 0.329524 0.930708
#
# Coordination Sequence:
#
# PCOD9555503 Si02
#       7
#     8   8   8   8   8   8   8
#     4  10  19  32  56  87 117 154 205 255 305 368
#     4   9  20  37  56  82 119 165 209 253 311 375
#     4  10  23  41  61  88 122 161 209 262 313 374
#     4  10  21  39  64  90 121 165 208 254 319 385
#     4   9  17  34  58  85 123 164 202 247 308 383
#     4   9  16  28  52  87 120 150 193 253 310 360
#     4  10  21  38  61  90 124 161 205 260 321 382
#
# _framework density 21.305679999999999
#
# number of rings (size 3 to 8) (size 9 to 14) (size 15 to 20)
#    0.000    2.429    1.429    0.429    2.000    2.857 
#    0.000    4.286    0.000    2.571    3.714    4.000 
#    0.000    0.000    0.000    0.000    0.000    0.000 
#
# Total GULP energy -312025.714312 kJ/mol
# GULP energy per Si atom -5571.887756 kJ/mol
# Density = 2.125719 g / cm^3
# Si number density = 21.305680 Si / 1000 Ang^3
#
#
#
# Elastic Constant Matrix: (Units=GPa)
#
#
# Indices 1 2 3 4 5 6 
#
# 1 55.8342 38.8963 24.4835 0.0000 0.0000 0.0000
# 2 38.8963 55.8337 24.4834 0.0000 0.0000 0.0000
# 3 24.4835 24.4834 80.6530 0.0000 0.0000 0.0000
# 4 0.0000 0.0000 0.0000 15.3274 0.0000 0.0000
# 5 0.0000 0.0000 0.0000 0.0000 15.3281 0.0000
# 6 0.0000 0.0000 0.0000 0.0000 0.0000 32.0466
#
#
#
# Elastic Compliance Matrix: (Units=1/GPa)
#
#
# Indices 1 2 3 4 5 6 
#
# 1 0.035780 -0.023259 -0.003801 0.000000 0.000000 0.000000
# 2 -0.023259 0.035781 -0.003801 0.000000 0.000000 0.000000
# 3 -0.003801 -0.003801 0.014706 0.000000 0.000000 0.000000
# 4 0.000000 0.000000 0.000000 0.065243 0.000000 0.000000
# 5 0.000000 0.000000 0.000000 0.000000 0.065240 0.000000
# 6 0.000000 0.000000 0.000000 0.000000 0.000000 0.031205
#
#
# Mechanical properties :
#
#
# Convention : Reuss Voigt Hill
#
# Bulk Modulus (GPa) = 40.74193 40.89414 40.81804
# Shear Modulus (GPa) = 15.73027 19.50427 17.61727
#
# Velocity S-wave (km/s) = 2.72014 3.02892 2.87867
# Velocity P-wave (km/s) = 5.38792 5.60965 5.49990
#
# Compressibility (1/GPa) = 0.02454474
#
# Stress axis : x y z
#
# Youngs Moduli (GPa) = 27.94835 27.94810 67.99734
#
# Poissons Ratio (x) = 0.65006 0.25845
# Poissons Ratio (y) = 0.65006 0.25845
# Poissons Ratio (z) = 0.10623 0.10623
#
# Static dielectric constant tensor:
#      x y z
#    x 1.796740 0.000000 0.000000 
#    y 0.000000 1.796740 0.000000 
#    z 0.000000 0.000000 1.767910 
# 
# From -- ./inp_files/1920.got.cif
#   From: 2010.05.17/outbox.cif.g08.bks.cpg/sg113_cif.got.tgz:1920.got - 2010.05.20 11:03:00.
