data_PCOD9555032
_publ_section_title
;
Structure prediction by ZEFSAII (Michael W. Deem and Ramdas Pophale) SiO2 
 PCOD9555032
Probable space group: P -4 2 C
;
_chemical_formula_sum "Si O2"
_cell_formula_units_Z 32
_cell_length_a 8.043906
_cell_length_b 8.043906
_cell_length_c 24.396337
_cell_angle_alpha 90.000000
_cell_angle_beta 90.000000
_cell_angle_gamma 90.000000
_cell_volume 1578.550927
_symmetry_space_group_name_H-M "P -4 2 C"
_symmetry_group_IT_number 112
_symmetry_cell_setting 'tetragonal'
loop_
_space_group_symop_operation_xyz
x,y,z
y,-x,-z
-x,-y,z
-y,x,-z
x,-y,1/2-z
-x,y,1/2-z
-y,-x,1/2+z
y,x,1/2+z
loop_
_atom_site_type_symbol
_atom_site_label
_atom_site_fract_x
_atom_site_fract_y
_atom_site_fract_z
Si Si1 0.303921 0.696079 0.500000
Si Si2 0.182214 0.200406 0.882070
Si Si3 0.200406 0.182214 0.117930
Si Si4 0.500000 0.796216 0.813256
O O1 0.500000 0.724592 0.508576
O O2 0.211903 0.752079 0.554840
O O3 0.247921 0.788097 0.445160
O O4 0.335561 0.261028 0.845392
O O5 0.000000 0.259713 0.864199
O O6 0.183217 1.000000 0.878776
O O7 0.261028 0.335561 0.154608
O O8 0.500000 0.745492 0.750000
O O9 0.500000 0.000000 0.814278
#
# Coordination Sequence:
#
# PCOD9555032 Si02
#       4
#     8   8   8   8
#     4  11  22  35  54  80 112 149 190 239 302 366
#     4  10  20  34  55  83 113 149 194 242 299 363
#     4  10  20  34  55  83 113 149 194 242 299 363
#     4   9  18  34  55  81 117 155 193 244 297 349
#
# _framework density 20.271754000000001
#
# number of rings (size 3 to 8) (size 9 to 14) (size 15 to 20)
#    0.000    2.000    2.500    1.500    0.000    6.000 
#    0.000    5.000    0.000    3.000    0.000    3.500 
#    0.000    0.000    0.000    0.000    0.000    0.000 
#
# Total GULP energy -178773.066756 kJ/mol
# GULP energy per Si atom -5586.658336 kJ/mol
# Density = 2.022561 g / cm^3
# Si number density = 20.271754 Si / 1000 Ang^3
#
#
#
# Elastic Constant Matrix: (Units=GPa)
#
#
# Indices 1 2 3 4 5 6 
#
# 1 70.6544 62.4642 49.0977 0.0000 0.0000 0.0000
# 2 62.4642 70.6544 49.0977 0.0000 0.0000 0.0000
# 3 49.0977 49.0977 144.7411 0.0000 0.0000 0.0000
# 4 0.0000 0.0000 0.0000 22.2736 0.0000 0.0000
# 5 0.0000 0.0000 0.0000 0.0000 22.2736 0.0000
# 6 0.0000 0.0000 0.0000 0.0000 0.0000 13.9014
#
#
#
# Elastic Compliance Matrix: (Units=1/GPa)
#
#
# Indices 1 2 3 4 5 6 
#
# 1 0.066059 -0.056040 -0.003399 0.000000 0.000000 0.000000
# 2 -0.056040 0.066059 -0.003399 0.000000 0.000000 0.000000
# 3 -0.003399 -0.003399 0.009215 0.000000 0.000000 0.000000
# 4 0.000000 0.000000 0.000000 0.044896 0.000000 0.000000
# 5 0.000000 0.000000 0.000000 0.000000 0.044896 0.000000
# 6 0.000000 0.000000 0.000000 0.000000 0.000000 0.071935
#
#
# Mechanical properties :
#
#
# Convention : Reuss Voigt Hill
#
# Bulk Modulus (GPa) = 63.86350 67.48546 65.67448
# Shear Modulus (GPa) = 11.52200 20.04906 15.78553
#
# Velocity S-wave (km/s) = 2.38665 3.14827 2.79354
# Velocity P-wave (km/s) = 6.25835 6.82482 6.54771
#
# Compressibility (1/GPa) = 0.01565840
#
# Stress axis : x y z
#
# Youngs Moduli (GPa) = 15.13806 15.13806 108.52401
#
# Poissons Ratio (x) = 0.84833 0.36883
# Poissons Ratio (y) = 0.84833 0.36883
# Poissons Ratio (z) = 0.05145 0.05145
#
# Static dielectric constant tensor:
#      x y z
#    x 1.727500 0.000000 0.000000 
#    y 0.000000 1.727500 0.000000 
#    z 0.000000 0.000000 1.667970 
# 
# From -- ./inp_files/4529.got.cif
#   From: 2010.05.17/outbox.cif.g08.bks.cpg/sg112_3_cif.got.tgz:4529.got - 2010.05.20 10:59:04.
