data_PCOD9555275
_publ_section_title
;
Structure prediction by ZEFSAII (Michael W. Deem and Ramdas Pophale) SiO2 
 PCOD9555275
Probable space group: P -4 2 C
;
_chemical_formula_sum "Si O2"
_cell_formula_units_Z 46
_cell_length_a 8.387369
_cell_length_b 8.387369
_cell_length_c 30.105294
_cell_angle_alpha 90.000000
_cell_angle_beta 90.000000
_cell_angle_gamma 90.000000
_cell_volume 2117.845980
_symmetry_space_group_name_H-M "P -4 2 C"
_symmetry_group_IT_number 112
_symmetry_cell_setting 'tetragonal'
loop_
_space_group_symop_operation_xyz
x,y,z
y,-x,-z
-x,-y,z
-y,x,-z
x,-y,1/2-z
-x,y,1/2-z
-y,-x,1/2+z
y,x,1/2+z
loop_
_atom_site_type_symbol
_atom_site_label
_atom_site_fract_x
_atom_site_fract_y
_atom_site_fract_z
Si Si1 0.685080 0.498541 0.586263
Si Si2 0.000000 0.500000 0.121985
Si Si3 0.000000 0.500000 0.750000
Si Si4 0.511652 0.247965 0.315569
Si Si5 0.681811 0.071015 0.460076
Si Si6 0.528433 0.245368 0.701083
Si Si7 0.768268 0.146586 0.559772
O O1 0.500000 0.500000 0.598437
O O2 0.782542 0.505917 0.632227
O O3 0.751183 0.647908 0.558282
O O4 0.702313 0.328229 0.562428
O O5 0.143717 0.495554 0.157192
O O6 0.039203 0.658102 0.092436
O O7 0.888395 0.585814 0.714780
O O8 0.331916 0.299621 0.302175
O O9 0.619167 0.396659 0.303559
O O10 0.738614 0.079148 0.510688
O O11 0.500000 0.000000 0.457684
O O12 0.809678 0.957616 0.434775
O O13 0.500000 0.173810 0.750000
#
# Coordination Sequence:
#
# PCOD9555275 Si02
#       7
#     8   4   2   8   8   8   8
#     4  11  23  40  71 103 132 180 247 294 331 420
#     4  12  23  40  77  98 132 191 236 289 348 448
#     4  12  24  34  74  94 136 176 220 278 380 406
#     4  11  21  40  67  98 131 171 228 288 339 419
#     4  10  25  41  66  97 142 181 229 296 348 423
#     4  11  21  42  63 100 131 174 229 281 349 414
#     4  11  24  44  62 100 141 185 231 282 368 421
#
# _framework density 21.720179000000002
#
# number of rings (size 3 to 8) (size 9 to 14) (size 15 to 20)
#    0.000    1.043    6.087    0.783    8.522    1.739 
#    0.000    0.000    0.000    2.087    0.000    0.000 
#    0.000    0.000    0.000    0.000    0.000    0.000 
#
# Total GULP energy -256149.258992 kJ/mol
# GULP energy per Si atom -5568.462152 kJ/mol
# Density = 2.167074 g / cm^3
# Si number density = 21.720179 Si / 1000 Ang^3
#
#
#
# Elastic Constant Matrix: (Units=GPa)
#
#
# Indices 1 2 3 4 5 6 
#
# 1 87.3460 26.6196 37.0096 0.0000 0.0000 0.0000
# 2 26.6196 87.3460 37.0096 0.0000 0.0000 0.0000
# 3 37.0096 37.0096 132.5982 0.0000 0.0000 0.0000
# 4 0.0000 0.0000 0.0000 44.4303 0.0000 0.0000
# 5 0.0000 0.0000 0.0000 0.0000 44.4303 0.0000
# 6 0.0000 0.0000 0.0000 0.0000 0.0000 22.6068
#
#
#
# Elastic Compliance Matrix: (Units=1/GPa)
#
#
# Indices 1 2 3 4 5 6 
#
# 1 0.013592 -0.002875 -0.002991 0.000000 0.000000 0.000000
# 2 -0.002875 0.013592 -0.002991 0.000000 0.000000 0.000000
# 3 -0.002991 -0.002991 0.009211 0.000000 0.000000 0.000000
# 4 0.000000 0.000000 0.000000 0.022507 0.000000 0.000000
# 5 0.000000 0.000000 0.000000 0.000000 0.022507 0.000000
# 6 0.000000 0.000000 0.000000 0.000000 0.000000 0.044234
#
#
# Mechanical properties :
#
#
# Convention : Reuss Voigt Hill
#
# Bulk Modulus (GPa) = 53.53069 56.50751 55.01910
# Shear Modulus (GPa) = 33.42534 36.07025 34.74779
#
# Velocity S-wave (km/s) = 3.92715 4.07956 4.00408
# Velocity P-wave (km/s) = 6.72773 6.94716 6.83833
#
# Compressibility (1/GPa) = 0.01868087
#
# Stress axis : x y z
#
# Youngs Moduli (GPa) = 73.57074 73.57074 108.56097
#
# Poissons Ratio (x) = 0.21151 0.32474
# Poissons Ratio (y) = 0.21151 0.32474
# Poissons Ratio (z) = 0.22008 0.22008
#
# Static dielectric constant tensor:
#      x y z
#    x 1.854680 0.000000 0.000000 
#    y 0.000000 1.854680 0.000000 
#    z 0.000000 0.000000 1.791640 
# 
# From -- ./inp_files/6213.got.cif
#   From: 2010.05.17/outbox.cif.g08.bks.cpg/sg112_4_cif.got.tgz:6213.got - 2010.05.20 10:59:04.
