data_PCOD9555804
_publ_section_title
;
Structure prediction by ZEFSAII (Michael W. Deem and Ramdas Pophale) SiO2 
 PCOD9555804
Probable space group: P -4 21 M 
;
_chemical_formula_sum "Si O2"
_cell_formula_units_Z 48
_cell_length_a 10.289791
_cell_length_b 10.289791
_cell_length_c 21.205552
_cell_angle_alpha 90.000000
_cell_angle_beta 90.000000
_cell_angle_gamma 90.000000
_cell_volume 2245.239580
_symmetry_space_group_name_H-M "P -4 21 M "
_symmetry_group_IT_number 113
_symmetry_cell_setting 'tetragonal'
loop_
_space_group_symop_operation_xyz
x,y,z
y,-x,-z
-x,-y,z
-y,x,-z
1/2+x,1/2-y,-z
1/2-x,1/2+y,-z
1/2-y,1/2-x,z
1/2+y,1/2+x,z
loop_
_atom_site_type_symbol
_atom_site_label
_atom_site_fract_x
_atom_site_fract_y
_atom_site_fract_z
Si Si1 0.897899 0.174891 0.902876
Si Si2 0.506418 0.201380 0.621414
Si Si3 0.996004 0.212429 0.513028
Si Si4 0.088061 0.190498 0.647519
Si Si5 0.505880 0.783466 0.967591
Si Si6 0.501862 0.219297 0.221116
O O1 0.785503 0.285503 0.899103
O O2 0.976295 0.188924 0.838577
O O3 0.823442 0.041040 0.917519
O O4 0.979621 0.214837 0.964630
O O5 0.648279 0.148279 0.640755
O O6 0.498169 0.191981 0.545424
O O7 0.451217 0.344390 0.637719
O O8 0.401987 0.098014 0.647677
O O9 0.003643 0.237019 0.587278
O O10 0.871934 0.124094 0.500406
O O11 0.206673 0.293328 0.648081
O O12 0.017131 0.204194 0.713663
O O13 0.638851 0.861150 0.953314
O O14 0.392840 0.892840 0.971782
O O15 0.629961 0.129961 0.211040
O O16 0.382962 0.117039 0.226572
#
# Coordination Sequence:
#
# PCOD9555804 Si02
#       6
#     8   8   8   8   8   8
#     4   9  17  30  51  81 114 146 179 216 266 323
#     4   9  17  29  46  69  99 139 185 226 265 313
#     4   9  17  29  46  69  98 131 170 221 276 323
#     4   9  17  29  47  75 108 138 172 216 266 323
#     4   9  17  30  51  81 115 147 182 225 266 310
#     4   9  17  30  50  79 116 151 180 217 270 330
#
# _framework density 21.378564000000001
#
# number of rings (size 3 to 8) (size 9 to 14) (size 15 to 20)
#    0.000    3.000    0.000    1.000    0.000    3.667 
#    0.000    1.667    0.000    8.000    0.000   11.667 
#    0.000   29.333    0.000    1.833    0.000    1.333 
#
# Total GULP energy -267577.923806 kJ/mol
# GULP energy per Si atom -5574.540079 kJ/mol
# Density = 2.132991 g / cm^3
# Si number density = 21.378564 Si / 1000 Ang^3
#
#
#
# Elastic Constant Matrix: (Units=GPa)
#
#
# Indices 1 2 3 4 5 6 
#
# 1 54.8973 31.1939 48.5279 0.0000 0.0000 0.0000
# 2 31.1939 54.8979 48.5281 0.0000 0.0000 0.0000
# 3 48.5279 48.5281 169.3218 0.0000 0.0000 0.0000
# 4 0.0000 0.0000 0.0000 25.0902 0.0000 0.0000
# 5 0.0000 0.0000 0.0000 0.0000 25.0901 0.0000
# 6 0.0000 0.0000 0.0000 0.0000 0.0000 46.0515
#
#
#
# Elastic Compliance Matrix: (Units=1/GPa)
#
#
# Indices 1 2 3 4 5 6 
#
# 1 0.029674 -0.012514 -0.004918 0.000000 0.000000 0.000000
# 2 -0.012514 0.029674 -0.004918 0.000000 0.000000 0.000000
# 3 -0.004918 -0.004918 0.008725 0.000000 0.000000 0.000000
# 4 0.000000 0.000000 0.000000 0.039856 0.000000 0.000000
# 5 0.000000 0.000000 0.000000 0.000000 0.039856 0.000000
# 6 0.000000 0.000000 0.000000 0.000000 0.000000 0.021715
#
#
# Mechanical properties :
#
#
# Convention : Reuss Voigt Hill
#
# Bulk Modulus (GPa) = 42.78513 59.51299 51.14906
# Shear Modulus (GPa) = 22.52347 29.30416 25.91382
#
# Velocity S-wave (km/s) = 3.24937 3.70635 3.48536
# Velocity P-wave (km/s) = 5.84247 6.79810 6.33832
#
# Compressibility (1/GPa) = 0.02337261
#
# Stress axis : x y z
#
# Youngs Moduli (GPa) = 33.69961 33.69999 114.61337
#
# Poissons Ratio (x) = 0.42171 0.56368
# Poissons Ratio (y) = 0.42171 0.56368
# Poissons Ratio (z) = 0.16574 0.16574
#
# Static dielectric constant tensor:
#      x y z
#    x 1.832290 0.000000 0.000000 
#    y 0.000000 1.832290 0.000000 
#    z 0.000000 0.000000 1.738980 
# 
# From -- ./inp_files/2438.got.cif
#   From: 2010.05.17/outbox.cif.g08.bks.cpg/sg113_cif.got.tgz:2438.got - 2010.05.20 11:03:00.
