data_PCOD9555398
_publ_section_title
;
Structure prediction by ZEFSAII (Michael W. Deem and Ramdas Pophale) SiO2 
 PCOD9555398
Probable space group: P -4 2 C
;
_chemical_formula_sum "Si O2"
_cell_formula_units_Z 34
_cell_length_a 9.055436
_cell_length_b 9.055436
_cell_length_c 20.775640
_cell_angle_alpha 90.000000
_cell_angle_beta 90.000000
_cell_angle_gamma 90.000000
_cell_volume 1703.621617
_symmetry_space_group_name_H-M "P -4 2 C"
_symmetry_group_IT_number 112
_symmetry_cell_setting 'tetragonal'
loop_
_space_group_symop_operation_xyz
x,y,z
y,-x,-z
-x,-y,z
-y,x,-z
x,-y,1/2-z
-x,y,1/2-z
-y,-x,1/2+z
y,x,1/2+z
loop_
_atom_site_type_symbol
_atom_site_label
_atom_site_fract_x
_atom_site_fract_y
_atom_site_fract_z
Si Si1 0.860911 0.191578 0.857286
Si Si2 0.483851 0.322805 0.173405
Si Si3 0.658926 0.997437 0.946516
Si Si4 0.162587 0.292915 0.924216
Si Si5 0.000000 0.000000 0.250000
O O1 0.753184 0.329670 0.846248
O O2 0.895893 0.103408 0.792653
O O3 0.020818 0.232497 0.885642
O O4 0.780647 0.084828 0.906796
O O5 0.500000 0.500000 0.165515
O O6 0.500000 0.291330 0.250000
O O7 0.602311 0.247789 0.125623
O O8 0.726278 0.833425 0.950343
O O9 0.500000 0.000000 0.912668
O O10 0.636151 0.087104 0.012870
#
# Coordination Sequence:
#
# PCOD9555398 Si02
#       5
#     8   8   8   8   2
#     4  12  24  44  70 103 135 189 240 300 359 441
#     4  11  26  48  72 105 149 192 240 300 373 451
#     4  12  25  43  68 102 143 181 240 306 371 436
#     4  12  24  46  72 104 140 191 242 305 371 444
#     4  12  24  40  74 104 140 184 260 298 368 436
#
# _framework density 19.957481999999999
#
# number of rings (size 3 to 8) (size 9 to 14) (size 15 to 20)
#    0.000    0.235    4.706    4.941    0.000    0.941 
#    0.000    0.000    0.000    0.000    0.000    0.000 
#    0.000    0.000    0.000    0.000    0.000    0.000 
#
# Total GULP energy -189965.150729 kJ/mol
# GULP energy per Si atom -5587.210316 kJ/mol
# Density = 1.991206 g / cm^3
# Si number density = 19.957482 Si / 1000 Ang^3
#
#
#
# Elastic Constant Matrix: (Units=GPa)
#
#
# Indices 1 2 3 4 5 6 
#
# 1 117.2252 49.5352 34.5184 0.0000 0.0000 0.0000
# 2 49.5352 117.2252 34.5184 0.0000 0.0000 0.0000
# 3 34.5184 34.5184 103.2880 0.0000 0.0000 0.0000
# 4 0.0000 0.0000 0.0000 50.1452 0.0000 0.0000
# 5 0.0000 0.0000 0.0000 0.0000 50.1452 0.0000
# 6 0.0000 0.0000 0.0000 0.0000 0.0000 24.7199
#
#
#
# Elastic Compliance Matrix: (Units=1/GPa)
#
#
# Indices 1 2 3 4 5 6 
#
# 1 0.010866 -0.003907 -0.002326 0.000000 0.000000 0.000000
# 2 -0.003907 0.010866 -0.002326 0.000000 0.000000 0.000000
# 3 -0.002326 -0.002326 0.011236 0.000000 0.000000 0.000000
# 4 0.000000 0.000000 0.000000 0.019942 0.000000 0.000000
# 5 0.000000 0.000000 0.000000 0.000000 0.019942 0.000000
# 6 0.000000 0.000000 0.000000 0.000000 0.000000 0.040453
#
#
# Mechanical properties :
#
#
# Convention : Reuss Voigt Hill
#
# Bulk Modulus (GPa) = 63.08397 63.87583 63.47990
# Shear Modulus (GPa) = 36.84397 39.61314 38.22856
#
# Velocity S-wave (km/s) = 4.30132 4.46003 4.38139
# Velocity P-wave (km/s) = 7.50641 7.65493 7.58103
#
# Compressibility (1/GPa) = 0.01585189
#
# Stress axis : x y z
#
# Youngs Moduli (GPa) = 92.02706 92.02706 88.99777
#
# Poissons Ratio (x) = 0.35954 0.20699
# Poissons Ratio (y) = 0.35954 0.20699
# Poissons Ratio (z) = 0.21404 0.21404
#
# Static dielectric constant tensor:
#      x y z
#    x 1.544150 0.000000 0.000000 
#    y 0.000000 1.544150 0.000000 
#    z 0.000000 0.000000 1.793280 
# 
# From -- ./inp_files/4653.got.cif
#   From: 2010.05.17/outbox.cif.g08.bks.cpg/sg112_3_cif.got.tgz:4653.got - 2010.05.20 10:59:04.
