data_PCOD9555989
_publ_section_title
;
Structure prediction by ZEFSAII (Michael W. Deem and Ramdas Pophale) SiO2 
 PCOD9555989
Probable space group: P -4 21 C
;
_chemical_formula_sum "Si O2"
_cell_formula_units_Z 36
_cell_length_a 12.082181
_cell_length_b 12.082181
_cell_length_c 13.310810
_cell_angle_alpha 90.000000
_cell_angle_beta 90.000000
_cell_angle_gamma 90.000000
_cell_volume 1943.100034
_symmetry_space_group_name_H-M "P -4 21 C"
_symmetry_group_IT_number 114
_symmetry_cell_setting 'tetragonal'
loop_
_space_group_symop_operation_xyz
x,y,z
y,-x,-z
-x,-y,z
-y,x,-z
1/2+x,1/2-y,1/2-z
1/2-x,1/2+y,1/2-z
1/2-y,1/2-x,1/2+z
1/2+y,1/2+x,1/2+z
loop_
_atom_site_type_symbol
_atom_site_label
_atom_site_fract_x
_atom_site_fract_y
_atom_site_fract_z
Si Si1 0.061677 0.706928 0.822049
Si Si2 0.147817 0.927019 0.040100
Si Si3 0.220246 0.223622 0.547789
Si Si4 0.000000 0.500000 0.450970
Si Si5 0.475673 0.214416 0.910649
O O1 0.186181 0.708971 0.866276
O O2 0.002386 0.605588 0.878581
O O3 0.992299 0.813631 0.860732
O O4 0.059855 0.694364 0.703479
O O5 0.237379 0.836045 0.007119
O O6 0.028148 0.867085 0.040187
O O7 0.096833 0.231432 0.589313
O O8 0.223504 0.122276 0.469513
O O9 0.991453 0.396091 0.524215
#
# Coordination Sequence:
#
# PCOD9555989 Si02
#       5
#     8   8   8   4   8
#     4  10  21  37  64  90 118 167 209 244 312 368
#     4   9  18  38  62  87 120 155 203 254 295 357
#     4  10  23  40  59  89 127 158 202 255 305 362
#     4  10  20  40  60  92 124 162 206 266 302 360
#     4  11  23  40  62  89 130 162 204 256 310 371
#
# _framework density 18.527094999999999
#
# number of rings (size 3 to 8) (size 9 to 14) (size 15 to 20)
#    0.000    2.000    2.222    0.667    3.111    0.444 
#    0.000    8.889    0.000    0.000    0.000    0.000 
#    0.000    0.000    0.000    0.000    0.000    0.000 
#
# Total GULP energy -200677.105146 kJ/mol
# GULP energy per Si atom -5574.364032 kJ/mol
# Density = 1.848493 g / cm^3
# Si number density = 18.527095 Si / 1000 Ang^3
#
#
#
# Elastic Constant Matrix: (Units=GPa)
#
#
# Indices 1 2 3 4 5 6 
#
# 1 153.1456 -38.6197 46.5032 0.0000 0.0000 0.0000
# 2 -38.6197 153.1456 46.5032 0.0000 0.0000 0.0000
# 3 46.5032 46.5032 146.5892 0.0000 0.0000 0.0000
# 4 0.0000 0.0000 0.0000 10.1549 0.0000 0.0000
# 5 0.0000 0.0000 0.0000 0.0000 10.1549 0.0000
# 6 0.0000 0.0000 0.0000 0.0000 0.0000 17.8619
#
#
#
# Elastic Compliance Matrix: (Units=1/GPa)
#
#
# Indices 1 2 3 4 5 6 
#
# 1 0.008488 0.003274 -0.003731 0.000000 0.000000 0.000000
# 2 0.003274 0.008488 -0.003731 0.000000 0.000000 0.000000
# 3 -0.003731 -0.003731 0.009189 0.000000 0.000000 0.000000
# 4 0.000000 0.000000 0.000000 0.098475 0.000000 0.000000
# 5 0.000000 0.000000 0.000000 0.000000 0.098475 0.000000
# 6 0.000000 0.000000 0.000000 0.000000 0.000000 0.055985
#
#
# Mechanical properties :
#
#
# Convention : Reuss Voigt Hill
#
# Bulk Modulus (GPa) = 56.21852 62.40598 59.31225
# Shear Modulus (GPa) = 17.04116 34.20058 25.62087
#
# Velocity S-wave (km/s) = 3.03611 4.30114 3.72275
# Velocity P-wave (km/s) = 6.53455 7.64351 7.11068
#
# Compressibility (1/GPa) = 0.01778773
#
# Stress axis : x y z
#
# Youngs Moduli (GPa) = 117.80994 117.80994 108.82406
#
# Poissons Ratio (x) = -0.38566 0.40605
# Poissons Ratio (y) = -0.38566 0.40605
# Poissons Ratio (z) = 0.43958 0.43958
#
# Static dielectric constant tensor:
#      x y z
#    x 1.669850 0.000000 0.000000 
#    y 0.000000 1.669850 0.000000 
#    z 0.000000 0.000000 1.593830 
# 
# From -- ./inp_files/1471.got.cif
#   From: 2010.05.17/outbox.cif.g08.bks.cpg/sg114_1_cif.got.tgz:1471.got - 2010.05.20 11:04:54.
