data_PCOD9555327
_publ_section_title
;
Structure prediction by ZEFSAII (Michael W. Deem and Ramdas Pophale) SiO2 
 PCOD9555327
Probable space group: P -4 2 C
;
_chemical_formula_sum "Si O2"
_cell_formula_units_Z 32
_cell_length_a 14.018463
_cell_length_b 14.018463
_cell_length_c 10.022525
_cell_angle_alpha 90.000000
_cell_angle_beta 90.000000
_cell_angle_gamma 90.000000
_cell_volume 1969.599601
_symmetry_space_group_name_H-M "P -4 2 C"
_symmetry_group_IT_number 112
_symmetry_cell_setting 'tetragonal'
loop_
_space_group_symop_operation_xyz
x,y,z
y,-x,-z
-x,-y,z
-y,x,-z
x,-y,1/2-z
-x,y,1/2-z
-y,-x,1/2+z
y,x,1/2+z
loop_
_atom_site_type_symbol
_atom_site_label
_atom_site_fract_x
_atom_site_fract_y
_atom_site_fract_z
Si Si1 0.799968 0.205499 0.027073
Si Si2 0.610024 0.111868 0.089882
Si Si3 0.108673 0.887536 0.777007
Si Si4 0.111967 0.609495 0.911130
O O1 0.689348 0.176635 0.021249
O O2 0.835723 0.178903 0.174280
O O3 0.859609 0.139153 0.925183
O O4 0.824308 0.312797 0.984989
O O5 0.500403 0.132904 0.053405
O O6 0.618067 0.122438 0.250699
O O7 0.628194 0.000040 0.059510
O O8 0.000000 0.854737 0.750000
O O9 0.112454 0.000000 0.750000
#
# Coordination Sequence:
#
# PCOD9555327 Si02
#       4
#     8   8   8   8
#     4  12  20  33  54  77 104 144 180 216 266 316
#     4   9  18  34  55  77 103 140 184 223 262 313
#     4  11  22  32  46  74 112 145 174 208 254 323
#     4   9  18  34  55  77 103 140 184 223 262 313
#
# _framework density 16.246956999999998
#
# number of rings (size 3 to 8) (size 9 to 14) (size 15 to 20)
#    0.000    1.750    2.500    6.000    0.000    2.000 
#    0.000    1.250    0.000    5.250    0.000    3.500 
#    0.000    0.000    0.000    0.000    0.000    0.000 
#
# Total GULP energy -178636.629335 kJ/mol
# GULP energy per Si atom -5582.394667 kJ/mol
# Density = 1.620998 g / cm^3
# Si number density = 16.246957 Si / 1000 Ang^3
#
#
#
# Elastic Constant Matrix: (Units=GPa)
#
#
# Indices 1 2 3 4 5 6 
#
# 1 114.9246 62.4441 7.7466 0.0000 0.0000 0.0000
# 2 62.4441 114.9246 7.7466 0.0000 0.0000 0.0000
# 3 7.7466 7.7466 12.2154 0.0000 0.0000 0.0000
# 4 0.0000 0.0000 0.0000 25.3091 0.0000 0.0000
# 5 0.0000 0.0000 0.0000 0.0000 25.3091 0.0000
# 6 0.0000 0.0000 0.0000 0.0000 0.0000 27.0975
#
#
#
# Elastic Compliance Matrix: (Units=1/GPa)
#
#
# Indices 1 2 3 4 5 6 
#
# 1 0.012512 -0.006543 -0.003785 0.000000 0.000000 0.000000
# 2 -0.006543 0.012512 -0.003785 0.000000 0.000000 0.000000
# 3 -0.003785 -0.003785 0.086665 0.000000 0.000000 0.000000
# 4 0.000000 0.000000 0.000000 0.039511 0.000000 0.000000
# 5 0.000000 0.000000 0.000000 0.000000 0.039511 0.000000
# 6 0.000000 0.000000 0.000000 0.000000 0.000000 0.036904
#
#
# Mechanical properties :
#
#
# Convention : Reuss Voigt Hill
#
# Bulk Modulus (GPa) = 11.98158 44.21547 28.09852
# Shear Modulus (GPa) = 17.62665 26.48498 22.05582
#
# Velocity S-wave (km/s) = 3.29739 4.04189 3.68847
# Velocity P-wave (km/s) = 4.67843 7.00401 5.95583
#
# Compressibility (1/GPa) = 0.08346146
#
# Stress axis : x y z
#
# Youngs Moduli (GPa) = 79.92558 79.92558 11.53874
#
# Poissons Ratio (x) = 0.52296 0.04368
# Poissons Ratio (y) = 0.52296 0.04368
# Poissons Ratio (z) = 0.30253 0.30253
#
# Static dielectric constant tensor:
#      x y z
#    x 1.547730 0.000000 0.000000 
#    y 0.000000 1.547730 0.000000 
#    z 0.000000 0.000000 1.530070 
# 
# From -- ./inp_files/1019.got.cif
#   From: 2010.05.17/outbox.cif.g08.bks.cpg/sg112_1_cif.got.tgz:1019.got - 2010.05.20 10:59:04.
