data_PCOD9555165
_publ_section_title
;
Structure prediction by ZEFSAII (Michael W. Deem and Ramdas Pophale) SiO2 
 PCOD9555165
Probable space group: P -4 2 C
;
_chemical_formula_sum "Si O2"
_cell_formula_units_Z 40
_cell_length_a 12.721575
_cell_length_b 12.721575
_cell_length_c 12.962841
_cell_angle_alpha 90.000000
_cell_angle_beta 90.000000
_cell_angle_gamma 90.000000
_cell_volume 2097.886361
_symmetry_space_group_name_H-M "P -4 2 C"
_symmetry_group_IT_number 112
_symmetry_cell_setting 'tetragonal'
loop_
_space_group_symop_operation_xyz
x,y,z
y,-x,-z
-x,-y,z
-y,x,-z
x,-y,1/2-z
-x,y,1/2-z
-y,-x,1/2+z
y,x,1/2+z
loop_
_atom_site_type_symbol
_atom_site_label
_atom_site_fract_x
_atom_site_fract_y
_atom_site_fract_z
Si Si1 0.368950 0.608986 0.518425
Si Si2 0.048707 0.114420 0.640696
Si Si3 0.836604 0.405453 0.391726
Si Si4 0.999119 0.757298 0.063535
Si Si5 0.809603 0.641421 0.349042
O O1 0.482550 0.631389 0.465580
O O2 0.271050 0.630669 0.444776
O O3 0.352807 0.687589 0.615158
O O4 0.170537 0.080352 0.632027
O O5 0.000000 0.150391 0.750000
O O6 0.017329 0.189409 0.547022
O O7 0.000000 0.000000 0.621723
O O8 0.935833 0.350523 0.442810
O O9 0.845589 0.530892 0.398729
O O10 0.826467 0.374742 0.271925
O O11 0.113341 0.733902 0.112566
#
# Coordination Sequence:
#
# PCOD9555165 Si02
#       5
#     8   8   8   8   8
#     4   9  19  37  59  83 113 147 190 242 288 337
#     4  11  25  39  55  84 113 144 194 233 281 335
#     4  10  22  36  59  86 114 150 191 234 287 344
#     4  12  21  39  59  82 116 152 187 236 283 338
#     4  10  22  37  56  88 115 149 192 232 287 346
#
# _framework density 19.066811000000001
#
# number of rings (size 3 to 8) (size 9 to 14) (size 15 to 20)
#    0.000    1.600    2.000    2.400    5.600    2.400 
#    0.000    4.000    0.000    4.800    0.000    0.000 
#    0.000    0.000    0.000    0.000    0.000    0.000 
#
# Total GULP energy -222976.173948 kJ/mol
# GULP energy per Si atom -5574.404349 kJ/mol
# Density = 1.902341 g / cm^3
# Si number density = 19.066811 Si / 1000 Ang^3
#
#
#
# Elastic Constant Matrix: (Units=GPa)
#
#
# Indices 1 2 3 4 5 6 
#
# 1 60.0372 24.0623 24.3245 0.0000 0.0000 0.0000
# 2 24.0623 60.0372 24.3245 0.0000 0.0000 0.0000
# 3 24.3245 24.3245 74.6007 0.0000 0.0000 0.0000
# 4 0.0000 0.0000 0.0000 -11.3898 0.0000 0.0000
# 5 0.0000 0.0000 0.0000 0.0000 -11.3898 0.0000
# 6 0.0000 0.0000 0.0000 0.0000 0.0000 28.3517
#
#
#
# Elastic Compliance Matrix: (Units=1/GPa)
#
#
# Indices 1 2 3 4 5 6 
#
# 1 0.021226 -0.006571 -0.004778 0.000000 0.000000 0.000000
# 2 -0.006571 0.021226 -0.004778 0.000000 0.000000 0.000000
# 3 -0.004778 -0.004778 0.016521 0.000000 0.000000 0.000000
# 4 0.000000 0.000000 0.000000 -0.087798 0.000000 0.000000
# 5 0.000000 0.000000 0.000000 0.000000 -0.087798 0.000000
# 6 0.000000 0.000000 0.000000 0.000000 0.000000 0.035271
#
#
# Mechanical properties :
#
#
# Convention : Reuss Voigt Hill
#
# Bulk Modulus (GPa) = 37.42948 37.78863 37.60905
# Shear Modulus (GPa) = -124.40873 9.24534 -57.58169
#
# Velocity S-wave (km/s) = -8.08644 2.20441 -5.50141
# Velocity P-wave (km/s) = 8.21669 5.13238 4.53722
#
# Compressibility (1/GPa) = 0.02671691
#
# Stress axis : x y z
#
# Youngs Moduli (GPa) = 47.11203 47.11203 60.52968
#
# Poissons Ratio (x) = 0.30958 0.28923
# Poissons Ratio (y) = 0.30958 0.28923
# Poissons Ratio (z) = 0.22512 0.22512
#
# Static dielectric constant tensor:
#      x y z
#    x 2.085090 0.000000 0.000000 
#    y 0.000000 2.085090 0.000000 
#    z 0.000000 0.000000 1.650350 
# 
# From -- ./inp_files/3314.got.cif
#   From: 2010.05.17/outbox.cif.g08.bks.cpg/sg112_2_cif.got.tgz:3314.got - 2010.05.20 10:59:04.
