data_PCOD9555183
_publ_section_title
;
Structure prediction by ZEFSAII (Michael W. Deem and Ramdas Pophale) SiO2 
 PCOD9555183
Probable space group: P -4 2 C
;
_chemical_formula_sum "Si O2"
_cell_formula_units_Z 46
_cell_length_a 11.226675
_cell_length_b 11.226675
_cell_length_c 19.346814
_cell_angle_alpha 90.000000
_cell_angle_beta 90.000000
_cell_angle_gamma 90.000000
_cell_volume 2438.438223
_symmetry_space_group_name_H-M "P -4 2 C"
_symmetry_group_IT_number 112
_symmetry_cell_setting 'tetragonal'
loop_
_space_group_symop_operation_xyz
x,y,z
y,-x,-z
-x,-y,z
-y,x,-z
x,-y,1/2-z
-x,y,1/2-z
-y,-x,1/2+z
y,x,1/2+z
loop_
_atom_site_type_symbol
_atom_site_label
_atom_site_fract_x
_atom_site_fract_y
_atom_site_fract_z
Si Si1 0.000000 0.000000 0.000000
Si Si2 0.627535 0.723642 0.564032
Si Si3 0.276012 0.012791 0.547920
Si Si4 0.000000 0.500000 0.554560
Si Si5 0.565836 0.329034 0.682310
Si Si6 0.067947 0.371293 0.313024
Si Si7 0.257945 0.476892 0.910534
O O1 0.136398 0.999848 0.969347
O O2 0.692063 0.850475 0.566701
O O3 0.521592 0.710461 0.619573
O O4 0.711934 0.615022 0.582529
O O5 0.580439 0.711185 0.485459
O O6 0.381078 0.977934 0.492820
O O7 0.303417 0.936729 0.615511
O O8 0.883336 0.467659 0.597776
O O9 0.500000 0.377193 0.750000
O O10 0.618232 0.204140 0.707907
O O11 0.662289 0.415799 0.648030
O O12 0.000000 0.500000 0.322616
O O13 0.000000 0.310328 0.250000
#
# Coordination Sequence:
#
# PCOD9555183 Si02
#       7
#     2   8   8   4   8   8   8
#     4  12  28  36  62 104 140 164 232 286 332 388
#     4  11  21  38  60  88 133 169 210 266 328 389
#     4  11  22  40  62  94 132 176 220 273 333 399
#     4  10  22  40  61  87 130 182 214 264 336 402
#     4  12  23  37  64  99 127 165 220 282 328 396
#     4  11  19  39  64  90 123 167 219 268 328 402
#     4  11  23  36  60  92 130 167 217 267 330 394
#
# _framework density 18.864533999999999
#
# number of rings (size 3 to 8) (size 9 to 14) (size 15 to 20)
#    0.000    0.870    6.087    2.609    4.870    1.391 
#    0.000    0.435    0.000    2.087    0.000    0.000 
#    0.000    0.000    0.000    0.000    0.000    0.000 
#
# Total GULP energy -256528.836801 kJ/mol
# GULP energy per Si atom -5576.713844 kJ/mol
# Density = 1.882160 g / cm^3
# Si number density = 18.864534 Si / 1000 Ang^3
#
#
#
# Elastic Constant Matrix: (Units=GPa)
#
#
# Indices 1 2 3 4 5 6 
#
# 1 114.5978 28.3818 42.3466 0.0000 0.0000 0.0000
# 2 28.3818 114.5978 42.3466 0.0000 0.0000 0.0000
# 3 42.3466 42.3466 84.5646 0.0000 0.0000 0.0000
# 4 0.0000 0.0000 0.0000 24.6737 0.0000 0.0000
# 5 0.0000 0.0000 0.0000 0.0000 24.6737 0.0000
# 6 0.0000 0.0000 0.0000 0.0000 0.0000 0.5066
#
#
#
# Elastic Compliance Matrix: (Units=1/GPa)
#
#
# Indices 1 2 3 4 5 6 
#
# 1 0.010771 -0.000828 -0.004979 0.000000 0.000000 0.000000
# 2 -0.000828 0.010771 -0.004979 0.000000 0.000000 0.000000
# 3 -0.004979 -0.004979 0.016812 0.000000 0.000000 0.000000
# 4 0.000000 0.000000 0.000000 0.040529 0.000000 0.000000
# 5 0.000000 0.000000 0.000000 0.000000 0.040529 0.000000
# 6 0.000000 0.000000 0.000000 0.000000 0.000000 1.973784
#
#
# Mechanical properties :
#
#
# Convention : Reuss Voigt Hill
#
# Bulk Modulus (GPa) = 59.58801 59.99003 59.78902
# Shear Modulus (GPa) = 2.35809 23.34982 12.85395
#
# Velocity S-wave (km/s) = 1.11925 3.52200 2.61316
# Velocity P-wave (km/s) = 5.77288 6.95764 6.39277
#
# Compressibility (1/GPa) = 0.01678190
#
# Stress axis : x y z
#
# Youngs Moduli (GPa) = 92.84088 92.84088 59.48089
#
# Poissons Ratio (x) = 0.07684 0.29617
# Poissons Ratio (y) = 0.07684 0.29617
# Poissons Ratio (z) = 0.46228 0.46228
#
# Static dielectric constant tensor:
#      x y z
#    x 1.797770 0.000000 0.000000 
#    y 0.000000 1.797770 0.000000 
#    z 0.000000 0.000000 1.817700 
# 
# From -- ./inp_files/4159.got.cif
#   From: 2010.05.17/outbox.cif.g08.bks.cpg/sg112_3_cif.got.tgz:4159.got - 2010.05.20 10:59:04.
