data_PCOD9555228
_publ_section_title
;
Structure prediction by ZEFSAII (Michael W. Deem and Ramdas Pophale) SiO2 
 PCOD9555228
Probable space group: P -4 2 C
;
_chemical_formula_sum "Si O2"
_cell_formula_units_Z 56
_cell_length_a 15.050016
_cell_length_b 15.050016
_cell_length_c 12.099834
_cell_angle_alpha 90.000000
_cell_angle_beta 90.000000
_cell_angle_gamma 90.000000
_cell_volume 2740.648478
_symmetry_space_group_name_H-M "P -4 2 C"
_symmetry_group_IT_number 112
_symmetry_cell_setting 'tetragonal'
loop_
_space_group_symop_operation_xyz
x,y,z
y,-x,-z
-x,-y,z
-y,x,-z
x,-y,1/2-z
-x,y,1/2-z
-y,-x,1/2+z
y,x,1/2+z
loop_
_atom_site_type_symbol
_atom_site_label
_atom_site_fract_x
_atom_site_fract_y
_atom_site_fract_z
Si Si1 0.400860 0.168129 0.759513
Si Si2 0.104399 0.596851 0.789653
Si Si3 0.158583 0.743483 0.621413
Si Si4 0.423175 0.767552 0.491944
Si Si5 0.937740 0.869232 0.011535
Si Si6 0.900292 0.219508 0.272330
Si Si7 0.725506 0.626368 0.043729
O O1 0.500000 0.130700 0.750000
O O2 0.325637 0.100985 0.718343
O O3 0.387347 0.247623 0.671523
O O4 0.395648 0.203366 0.884244
O O5 0.134023 0.500000 0.750000
O O6 0.147618 0.674577 0.719374
O O7 0.147568 0.599384 0.912620
O O8 0.000000 0.601712 0.750000
O O9 0.068812 0.786801 0.572478
O O10 0.203859 0.828954 0.676930
O O11 0.209363 0.692831 0.523594
O O12 0.367247 0.679243 0.461570
O O13 0.527909 0.740817 0.492322
O O14 0.881423 0.836323 0.117171
O O15 0.039878 0.894197 0.032345
O O16 0.000000 0.190880 0.250000
#
# Coordination Sequence:
#
# PCOD9555228 Si02
#       7
#     8   8   8   8   8   8   8
#     4  10  23  43  68 101 140 189 234 298 367 433
#     4  11  26  45  71 106 141 183 241 305 368 435
#     4  12  24  42  69 100 134 188 234 294 367 423
#     4  11  24  45  70 104 148 188 244 304 362 443
#     4  11  26  46  66  97 140 185 241 304 354 433
#     4  12  24  41  68 100 132 183 242 288 361 435
#     4  11  23  43  73 101 144 195 242 297 372 435
#
# _framework density 20.433122000000001
#
# number of rings (size 3 to 8) (size 9 to 14) (size 15 to 20)
#    0.000    0.857    5.714    0.857    2.000    1.714 
#    0.000    0.000    0.000    2.571    0.000    0.000 
#    0.000    0.000    0.000    0.000    0.000    0.000 
#
# Total GULP energy -311874.364804 kJ/mol
# GULP energy per Si atom -5569.185086 kJ/mol
# Density = 2.038662 g / cm^3
# Si number density = 20.433122 Si / 1000 Ang^3
#
#
#
# Elastic Constant Matrix: (Units=GPa)
#
#
# Indices 1 2 3 4 5 6 
#
# 1 110.7663 50.6801 52.1724 0.0000 0.0000 0.0000
# 2 50.6801 110.7663 52.1724 0.0000 0.0000 0.0000
# 3 52.1724 52.1724 126.1318 0.0000 0.0000 0.0000
# 4 0.0000 0.0000 0.0000 24.6590 0.0000 0.0000
# 5 0.0000 0.0000 0.0000 0.0000 24.6590 0.0000
# 6 0.0000 0.0000 0.0000 0.0000 0.0000 8.7625
#
#
#
# Elastic Compliance Matrix: (Units=1/GPa)
#
#
# Indices 1 2 3 4 5 6 
#
# 1 0.012548 -0.004094 -0.003497 0.000000 0.000000 0.000000
# 2 -0.004094 0.012548 -0.003497 0.000000 0.000000 0.000000
# 3 -0.003497 -0.003497 0.010821 0.000000 0.000000 0.000000
# 4 0.000000 0.000000 0.000000 0.040553 0.000000 0.000000
# 5 0.000000 0.000000 0.000000 0.000000 0.040553 0.000000
# 6 0.000000 0.000000 0.000000 0.000000 0.000000 0.114122
#
#
# Mechanical properties :
#
#
# Convention : Reuss Voigt Hill
#
# Bulk Modulus (GPa) = 72.77135 73.07937 72.92536
# Shear Modulus (GPa) = 19.38712 24.45875 21.92294
#
# Velocity S-wave (km/s) = 3.08362 3.46354 3.27909
# Velocity P-wave (km/s) = 6.95485 7.19984 7.07840
#
# Compressibility (1/GPa) = 0.01374167
#
# Stress axis : x y z
#
# Youngs Moduli (GPa) = 79.69128 79.69128 92.41212
#
# Poissons Ratio (x) = 0.32628 0.32316
# Poissons Ratio (y) = 0.32628 0.32316
# Poissons Ratio (z) = 0.27867 0.27867
#
# Static dielectric constant tensor:
#      x y z
#    x 1.754910 0.000000 0.000000 
#    y 0.000000 1.754910 0.000000 
#    z 0.000000 0.000000 1.797560 
# 
# From -- ./inp_files/2638.got.cif
#   From: 2010.05.17/outbox.cif.g08.bks.cpg/sg112_2_cif.got.tgz:2638.got - 2010.05.20 10:59:04.
