data_PCOD9555572
_publ_section_title
;
Structure prediction by ZEFSAII (Michael W. Deem and Ramdas Pophale) SiO2 
 PCOD9555572
Probable space group: P -4 21 M 
;
_chemical_formula_sum "Si O2"
_cell_formula_units_Z 64
_cell_length_a 11.948658
_cell_length_b 11.948658
_cell_length_c 22.960224
_cell_angle_alpha 90.000000
_cell_angle_beta 90.000000
_cell_angle_gamma 90.000000
_cell_volume 3278.041007
_symmetry_space_group_name_H-M "P -4 21 M "
_symmetry_group_IT_number 113
_symmetry_cell_setting 'tetragonal'
loop_
_space_group_symop_operation_xyz
x,y,z
y,-x,-z
-x,-y,z
-y,x,-z
1/2+x,1/2-y,-z
1/2-x,1/2+y,-z
1/2-y,1/2-x,z
1/2+y,1/2+x,z
loop_
_atom_site_type_symbol
_atom_site_label
_atom_site_fract_x
_atom_site_fract_y
_atom_site_fract_z
Si Si1 0.264574 0.417391 0.307213
Si Si2 0.669128 0.356648 0.572963
Si Si3 0.250760 0.433717 0.867123
Si Si4 0.090966 0.770685 0.069616
Si Si5 0.896707 0.785240 0.550715
Si Si6 0.521693 0.625792 0.239933
Si Si7 0.665631 0.348430 0.938338
Si Si8 0.849093 0.174224 0.327983
O O1 0.151316 0.348685 0.307080
O O2 0.327141 0.398035 0.369033
O O3 0.349358 0.371348 0.258444
O O4 0.252320 0.549803 0.302989
O O5 0.767797 0.267797 0.570162
O O6 0.603369 0.341617 0.512483
O O7 0.721856 0.478506 0.573609
O O8 0.129880 0.370121 0.874008
O O9 0.341364 0.337766 0.881355
O O10 0.277971 0.481576 0.803403
O O11 0.286673 0.538059 0.908504
O O12 0.143022 0.643022 0.069898
O O13 0.959976 0.803703 0.075074
O O14 0.130110 0.822380 0.007551
O O15 0.832204 0.667797 0.545474
O O16 0.833696 0.852661 0.601937
O O17 0.500000 0.500000 0.215223
O O18 0.444947 0.635189 0.297459
O O19 0.750128 0.250128 0.921505
O O20 0.731699 0.231699 0.313064
#
# Coordination Sequence:
#
# PCOD9555572 Si02
#       8
#     8   8   8   8   8   8   8   8
#     4  10  21  36  55  81 113 151 193 239 298 354
#     4  10  20  34  52  78 111 145 187 238 290 350
#     4  11  23  39  62  92 122 160 205 251 301 358
#     4  10  21  37  60  90 123 161 205 249 301 362
#     4  10  20  33  53  79 108 145 189 236 292 352
#     4  10  20  37  61  83 114 155 199 250 296 347
#     4  11  22  37  60  89 124 164 202 250 305 361
#     4  10  20  35  56  83 112 146 192 243 292 351
#
# _framework density 19.523855999999999
#
# number of rings (size 3 to 8) (size 9 to 14) (size 15 to 20)
#    0.000    1.750    2.500    2.250    0.000    2.750 
#    0.000    1.250    0.000    5.625    0.000    3.500 
#    0.000    0.000    0.000    0.000    0.000    0.000 
#
# Total GULP energy -356573.433893 kJ/mol
# GULP energy per Si atom -5571.459905 kJ/mol
# Density = 1.947942 g / cm^3
# Si number density = 19.523856 Si / 1000 Ang^3
#
#
#
# Elastic Constant Matrix: (Units=GPa)
#
#
# Indices 1 2 3 4 5 6 
#
# 1 59.5227 39.3110 1.1730 0.0000 0.0000 0.0000
# 2 39.3110 59.5214 1.1741 0.0000 0.0000 0.0000
# 3 1.1730 1.1741 48.7166 0.0000 0.0000 0.0000
# 4 0.0000 0.0000 0.0000 13.8681 0.0000 0.0000
# 5 0.0000 0.0000 0.0000 0.0000 13.8692 0.0000
# 6 0.0000 0.0000 0.0000 0.0000 0.0000 13.3221
#
#
#
# Elastic Compliance Matrix: (Units=1/GPa)
#
#
# Indices 1 2 3 4 5 6 
#
# 1 0.029801 -0.019677 -0.000243 0.000000 0.000000 0.000000
# 2 -0.019677 0.029801 -0.000244 0.000000 0.000000 0.000000
# 3 -0.000243 -0.000244 0.020539 0.000000 0.000000 0.000000
# 4 0.000000 0.000000 0.000000 0.072108 0.000000 0.000000
# 5 0.000000 0.000000 0.000000 0.000000 0.072102 0.000000
# 6 0.000000 0.000000 0.000000 0.000000 0.000000 0.075063
#
#
# Mechanical properties :
#
#
# Convention : Reuss Voigt Hill
#
# Bulk Modulus (GPa) = 25.11878 27.89744 26.50811
# Shear Modulus (GPa) = 14.16374 16.61870 15.39122
#
# Velocity S-wave (km/s) = 2.69636 2.92070 2.81077
# Velocity P-wave (km/s) = 4.75262 5.06891 4.91331
#
# Compressibility (1/GPa) = 0.03981085
#
# Stress axis : x y z
#
# Youngs Moduli (GPa) = 33.55639 33.55564 48.68872
#
# Poissons Ratio (x) = 0.66028 0.01185
# Poissons Ratio (y) = 0.66029 0.01190
# Poissons Ratio (z) = 0.00816 0.00820
#
# Static dielectric constant tensor:
#      x y z
#    x 1.712690 0.000000 0.000000 
#    y 0.000000 1.712690 0.000000 
#    z 0.000000 0.000000 1.740710 
# 
# From -- ./inp_files/2904.got.cif
#   From: 2010.05.17/outbox.cif.g08.bks.cpg/sg113_cif.got.tgz:2904.got - 2010.05.20 11:03:00.
