data_PCOD9555988
_publ_section_title
;
Structure prediction by ZEFSAII (Michael W. Deem and Ramdas Pophale) SiO2 
 PCOD9555988
Probable space group: P -4 21 C
;
_chemical_formula_sum "Si O2"
_cell_formula_units_Z 56
_cell_length_a 12.355372
_cell_length_b 12.355372
_cell_length_c 18.059934
_cell_angle_alpha 90.000000
_cell_angle_beta 90.000000
_cell_angle_gamma 90.000000
_cell_volume 2756.943148
_symmetry_space_group_name_H-M "P -4 21 C"
_symmetry_group_IT_number 114
_symmetry_cell_setting 'tetragonal'
loop_
_space_group_symop_operation_xyz
x,y,z
y,-x,-z
-x,-y,z
-y,x,-z
1/2+x,1/2-y,1/2-z
1/2-x,1/2+y,1/2-z
1/2-y,1/2-x,1/2+z
1/2+y,1/2+x,1/2+z
loop_
_atom_site_type_symbol
_atom_site_label
_atom_site_fract_x
_atom_site_fract_y
_atom_site_fract_z
Si Si1 0.268414 0.779642 0.922408
Si Si2 0.084831 0.838747 0.505759
Si Si3 0.869558 0.863234 0.811100
Si Si4 0.603496 0.309491 0.282208
Si Si5 0.850721 0.076246 0.029385
Si Si6 0.831259 0.583852 0.200339
Si Si7 0.133830 0.724665 0.661017
O O1 0.188966 0.822665 0.857051
O O2 0.380948 0.811185 0.884442
O O3 0.274629 0.653939 0.943318
O O4 0.242044 0.849850 0.994485
O O5 0.102977 0.772669 0.581343
O O6 0.958724 0.860409 0.488436
O O7 0.941540 0.842437 0.883433
O O8 0.898666 0.781157 0.745400
O O9 0.748689 0.833800 0.838359
O O10 0.866921 0.988990 0.790178
O O11 0.591245 0.178864 0.269629
O O12 0.673120 0.356010 0.215801
O O13 0.963462 0.138820 0.013699
O O14 0.853415 0.457792 0.195694
#
# Coordination Sequence:
#
# PCOD9555988 Si02
#       7
#     8   8   8   8   8   8   8
#     4  10  20  40  53  85 120 142 186 242 278 326
#     4  11  22  35  60  89 116 149 190 232 282 332
#     4  11  22  37  60  83 112 157 187 230 289 336
#     4   9  22  38  54  84 114 147 188 237 273 335
#     4  11  22  35  60  89 116 149 190 232 282 332
#     4   9  22  38  54  84 114 147 188 237 273 335
#     4  11  22  37  60  83 112 157 187 230 289 336
#
# _framework density 20.312353999999999
#
# number of rings (size 3 to 8) (size 9 to 14) (size 15 to 20)
#    0.857    0.857    4.286    0.000    4.000    1.143 
#    0.000    0.000    0.000    0.000    0.000    0.000 
#    0.000    0.000    0.000    0.000    0.000    0.000 
#
# Total GULP energy -312023.163850 kJ/mol
# GULP energy per Si atom -5571.842212 kJ/mol
# Density = 2.026612 g / cm^3
# Si number density = 20.312354 Si / 1000 Ang^3
#
#
#
# Elastic Constant Matrix: (Units=GPa)
#
#
# Indices 1 2 3 4 5 6 
#
# 1 59.0960 17.1404 9.5819 0.0000 0.0000 0.0000
# 2 17.1404 59.0960 9.5819 0.0000 0.0000 0.0000
# 3 9.5819 9.5819 28.8596 0.0000 0.0000 0.0000
# 4 0.0000 0.0000 0.0000 18.9750 0.0000 0.0000
# 5 0.0000 0.0000 0.0000 0.0000 18.9750 0.0000
# 6 0.0000 0.0000 0.0000 0.0000 0.0000 10.5967
#
#
#
# Elastic Compliance Matrix: (Units=1/GPa)
#
#
# Indices 1 2 3 4 5 6 
#
# 1 0.019073 -0.004762 -0.004752 0.000000 0.000000 0.000000
# 2 -0.004762 0.019073 -0.004752 0.000000 0.000000 0.000000
# 3 -0.004752 -0.004752 0.037806 0.000000 0.000000 0.000000
# 4 0.000000 0.000000 0.000000 0.052701 0.000000 0.000000
# 5 0.000000 0.000000 0.000000 0.000000 0.052701 0.000000
# 6 0.000000 0.000000 0.000000 0.000000 0.000000 0.094369
#
#
# Mechanical properties :
#
#
# Convention : Reuss Voigt Hill
#
# Bulk Modulus (GPa) = 21.08719 24.40666 22.74692
# Shear Modulus (GPa) = 15.62208 17.09251 16.35730
#
# Velocity S-wave (km/s) = 2.77626 2.90398 2.84084
# Velocity P-wave (km/s) = 4.54762 4.82555 4.68864
#
# Compressibility (1/GPa) = 0.04742216
#
# Stress axis : x y z
#
# Youngs Moduli (GPa) = 52.42979 52.42979 26.45102
#
# Poissons Ratio (x) = 0.24965 0.12569
# Poissons Ratio (y) = 0.24965 0.12569
# Poissons Ratio (z) = 0.24913 0.24913
#
# Static dielectric constant tensor:
#      x y z
#    x 1.729570 0.000000 0.000000 
#    y 0.000000 1.729570 0.000000 
#    z 0.000000 0.000000 1.724460 
# 
# From -- ./inp_files/3133.got.cif
#   From: 2010.05.17/outbox.cif.g08.bks.cpg/sg114_2_cif.got.tgz:3133.got - 2010.05.20 11:04:54.
