data_PCOD9555300
_publ_section_title
;
Structure prediction by ZEFSAII (Michael W. Deem and Ramdas Pophale) SiO2 
 PCOD9555300
Probable space group: P -4 2 C
;
_chemical_formula_sum "Si O2"
_cell_formula_units_Z 48
_cell_length_a 9.204757
_cell_length_b 9.204757
_cell_length_c 28.216961
_cell_angle_alpha 90.000000
_cell_angle_beta 90.000000
_cell_angle_gamma 90.000000
_cell_volume 2390.754014
_symmetry_space_group_name_H-M "P -4 2 C"
_symmetry_group_IT_number 112
_symmetry_cell_setting 'tetragonal'
loop_
_space_group_symop_operation_xyz
x,y,z
y,-x,-z
-x,-y,z
-y,x,-z
x,-y,1/2-z
-x,y,1/2-z
-y,-x,1/2+z
y,x,1/2+z
loop_
_atom_site_type_symbol
_atom_site_label
_atom_site_fract_x
_atom_site_fract_y
_atom_site_fract_z
Si Si1 0.168381 0.446854 0.196302
Si Si2 0.714192 0.848565 0.544862
Si Si3 0.142939 0.793169 0.101550
Si Si4 0.016629 0.826869 0.305267
Si Si5 0.477178 0.328926 0.896434
Si Si6 0.994440 0.336179 0.946876
O O1 0.201330 0.500000 0.250000
O O2 0.283391 0.504586 0.158541
O O3 0.000000 0.500000 0.187643
O O4 0.158372 0.272485 0.185581
O O5 0.588785 0.770430 0.574263
O O6 0.665142 0.906432 0.493864
O O7 0.838709 0.727800 0.539007
O O8 0.767561 0.993568 0.572833
O O9 0.101937 0.777913 0.156497
O O10 0.267543 0.678828 0.088552
O O11 0.215595 0.945777 0.089441
O O12 0.000000 0.791389 0.250000
O O13 0.000000 0.000000 0.308966
O O14 0.500000 0.500000 0.903811
O O15 0.000000 0.500000 0.927676
#
# Coordination Sequence:
#
# PCOD9555300 Si02
#       6
#     8   8   8   8   8   8
#     4  11  19  39  66  95 130 175 228 282 329 408
#     4  12  24  44  68  94 129 179 230 278 337 412
#     4  12  23  43  67  95 130 176 224 282 333 405
#     4  11  21  36  65 100 125 165 224 279 325 392
#     4  12  25  42  64  97 136 178 221 282 357 412
#     4  12  26  43  64  99 134 174 227 286 344 407
#
# _framework density 20.077347
#
# number of rings (size 3 to 8) (size 9 to 14) (size 15 to 20)
#    0.000    0.333    6.667    4.000    0.000    0.333 
#    0.000    0.000    0.000    0.000    0.000    0.000 
#    0.000    0.000    0.000    0.000    0.000    0.000 
#
# Total GULP energy -267736.583873 kJ/mol
# GULP energy per Si atom -5577.845497 kJ/mol
# Density = 2.003165 g / cm^3
# Si number density = 20.077347 Si / 1000 Ang^3
#
#
#
# Elastic Constant Matrix: (Units=GPa)
#
#
# Indices 1 2 3 4 5 6 
#
# 1 70.6826 -13.7299 9.0886 0.0000 0.0000 0.0000
# 2 -13.7299 70.6826 9.0886 0.0000 0.0000 0.0000
# 3 9.0886 9.0886 82.4285 0.0000 0.0000 0.0000
# 4 0.0000 0.0000 0.0000 23.2784 0.0000 0.0000
# 5 0.0000 0.0000 0.0000 0.0000 23.2784 0.0000
# 6 0.0000 0.0000 0.0000 0.0000 0.0000 26.3559
#
#
#
# Elastic Compliance Matrix: (Units=1/GPa)
#
#
# Indices 1 2 3 4 5 6 
#
# 1 0.015023 0.003176 -0.002007 0.000000 0.000000 0.000000
# 2 0.003176 0.015023 -0.002007 0.000000 0.000000 0.000000
# 3 -0.002007 -0.002007 0.012574 0.000000 0.000000 0.000000
# 4 0.000000 0.000000 0.000000 0.042958 0.000000 0.000000
# 5 0.000000 0.000000 0.000000 0.000000 0.042958 0.000000
# 6 0.000000 0.000000 0.000000 0.000000 0.000000 0.037942
#
#
# Mechanical properties :
#
#
# Convention : Reuss Voigt Hill
#
# Bulk Modulus (GPa) = 24.42270 25.85424 25.13847
# Shear Modulus (GPa) = 27.50257 29.20562 28.35410
#
# Velocity S-wave (km/s) = 3.70514 3.81813 3.76206
# Velocity P-wave (km/s) = 5.52221 5.68707 5.60525
#
# Compressibility (1/GPa) = 0.04094552
#
# Stress axis : x y z
#
# Youngs Moduli (GPa) = 66.56582 66.56582 79.52775
#
# Poissons Ratio (x) = -0.21142 0.15958
# Poissons Ratio (y) = -0.21142 0.15958
# Poissons Ratio (z) = 0.13357 0.13357
#
# Static dielectric constant tensor:
#      x y z
#    x 1.742450 0.000000 0.000000 
#    y 0.000000 1.742450 0.000000 
#    z 0.000000 0.000000 1.727500 
# 
# From -- ./inp_files/6331.got.cif
#   From: 2010.05.17/outbox.cif.g08.bks.cpg/sg112_4_cif.got.tgz:6331.got - 2010.05.20 10:59:04.
