data_PCOD9555739
_publ_section_title
;
Structure prediction by ZEFSAII (Michael W. Deem and Ramdas Pophale) SiO2 
 PCOD9555739
Probable space group: P -4 21 M 
;
_chemical_formula_sum "Si O2"
_cell_formula_units_Z 32
_cell_length_a 12.895269
_cell_length_b 12.895269
_cell_length_c 10.102015
_cell_angle_alpha 90.000000
_cell_angle_beta 90.000000
_cell_angle_gamma 90.000000
_cell_volume 1679.843492
_symmetry_space_group_name_H-M "P -4 21 M "
_symmetry_group_IT_number 113
_symmetry_cell_setting 'tetragonal'
loop_
_space_group_symop_operation_xyz
x,y,z
y,-x,-z
-x,-y,z
-y,x,-z
1/2+x,1/2-y,-z
1/2-x,1/2+y,-z
1/2-y,1/2-x,z
1/2+y,1/2+x,z
loop_
_atom_site_type_symbol
_atom_site_label
_atom_site_fract_x
_atom_site_fract_y
_atom_site_fract_z
Si Si1 0.873028 0.995783 0.319908
Si Si2 0.114385 0.788114 0.419723
Si Si3 0.171705 0.495205 0.199255
Si Si4 0.482470 0.333636 0.030872
O O1 0.837971 0.113998 0.342871
O O2 0.823996 0.953737 0.184540
O O3 0.834883 0.930533 0.445026
O O4 0.000000 0.000000 0.312125
O O5 0.198087 0.698087 0.441670
O O6 0.023650 0.743228 0.324801
O O7 0.114600 0.385401 0.212085
O O8 0.083185 0.583185 0.196713
O O9 0.236138 0.504054 0.063742
O O10 0.397292 0.409963 0.968389
#
# Coordination Sequence:
#
# PCOD9555739 Si02
#       4
#     8   8   8   8
#     4  12  21  40  64  89 125 159 204 265 300 355
#     4  11  23  39  62  91 122 164 206 248 311 370
#     4  10  23  43  63  88 126 166 203 249 306 367
#     4  11  21  37  63  93 119 158 202 254 304 360
#
# _framework density 19.049395000000001
#
# number of rings (size 3 to 8) (size 9 to 14) (size 15 to 20)
#    0.000    1.000    7.500    0.000    0.000    4.000 
#    0.000    0.000    0.000    3.000    0.000    0.000 
#    0.000    0.000    0.000    0.000    0.000    0.000 
#
# Total GULP energy -178693.300438 kJ/mol
# GULP energy per Si atom -5584.165639 kJ/mol
# Density = 1.900604 g / cm^3
# Si number density = 19.049395 Si / 1000 Ang^3
#
#
#
# Elastic Constant Matrix: (Units=GPa)
#
#
# Indices 1 2 3 4 5 6 
#
# 1 58.0108 6.2037 24.4721 0.0000 0.0000 0.0000
# 2 6.2037 58.0127 24.4723 0.0000 0.0000 0.0000
# 3 24.4721 24.4723 146.9263 0.0000 0.0000 0.0000
# 4 0.0000 0.0000 0.0000 29.1071 0.0000 0.0000
# 5 0.0000 0.0000 0.0000 0.0000 29.1074 0.0000
# 6 0.0000 0.0000 0.0000 0.0000 0.0000 21.1757
#
#
#
# Elastic Compliance Matrix: (Units=1/GPa)
#
#
# Indices 1 2 3 4 5 6 
#
# 1 0.018570 -0.000732 -0.002971 0.000000 0.000000 0.000000
# 2 -0.000732 0.018569 -0.002971 0.000000 0.000000 0.000000
# 3 -0.002971 -0.002971 0.007796 0.000000 0.000000 0.000000
# 4 0.000000 0.000000 0.000000 0.034356 0.000000 0.000000
# 5 0.000000 0.000000 0.000000 0.000000 0.034356 0.000000
# 6 0.000000 0.000000 0.000000 0.000000 0.000000 0.047224
#
#
# Mechanical properties :
#
#
# Convention : Reuss Voigt Hill
#
# Bulk Modulus (GPa) = 31.65956 41.47178 36.56567
# Shear Modulus (GPa) = 27.06394 29.73149 28.39771
#
# Velocity S-wave (km/s) = 3.77334 3.95493 3.86520
# Velocity P-wave (km/s) = 5.96992 6.53247 6.25752
#
# Compressibility (1/GPa) = 0.03158604
#
# Stress axis : x y z
#
# Youngs Moduli (GPa) = 53.85083 53.85262 128.27385
#
# Poissons Ratio (x) = 0.03945 0.38110
# Poissons Ratio (y) = 0.03945 0.38109
# Poissons Ratio (z) = 0.15999 0.15999
#
# Static dielectric constant tensor:
#      x y z
#    x 1.666800 0.000000 0.000000 
#    y 0.000000 1.666800 0.000000 
#    z 0.000000 0.000000 1.688870 
# 
# From -- ./inp_files/835.got.cif
#   From: 2010.05.17/outbox.cif.g08.bks.cpg/sg113_cif.got.tgz:835.got - 2010.05.20 11:03:00.
