data_PCOD9555485
_publ_section_title
;
Structure prediction by ZEFSAII (Michael W. Deem and Ramdas Pophale) SiO2 
 PCOD9555485
Probable space group: P -4 21 M 
;
_chemical_formula_sum "Si O2"
_cell_formula_units_Z 34
_cell_length_a 17.749607
_cell_length_b 17.749607
_cell_length_c 5.157019
_cell_angle_alpha 90.000000
_cell_angle_beta 90.000000
_cell_angle_gamma 90.000000
_cell_volume 1624.711351
_symmetry_space_group_name_H-M "P -4 21 M "
_symmetry_group_IT_number 113
_symmetry_cell_setting 'tetragonal'
loop_
_space_group_symop_operation_xyz
x,y,z
y,-x,-z
-x,-y,z
-y,x,-z
1/2+x,1/2-y,-z
1/2-x,1/2+y,-z
1/2-y,1/2-x,z
1/2+y,1/2+x,z
loop_
_atom_site_type_symbol
_atom_site_label
_atom_site_fract_x
_atom_site_fract_y
_atom_site_fract_z
Si Si1 0.640667 0.520672 0.709846
Si Si2 0.864172 0.210683 0.754297
Si Si3 0.928373 0.776550 0.207364
Si Si4 0.500000 0.500000 0.000000
Si Si5 0.918905 0.302626 0.253605
O O1 0.650621 0.432105 0.752683
O O2 0.666396 0.539423 0.423768
O O3 0.558084 0.540505 0.807604
O O4 0.696930 0.560291 0.912452
O O5 0.787214 0.161852 0.748369
O O6 0.883382 0.261922 0.506293
O O7 0.880865 0.259325 0.010192
O O8 0.989970 0.708764 0.242932
O O9 0.887613 0.387613 0.250296
#
# Coordination Sequence:
#
# PCOD9555485 Si02
#       5
#     8   8   8   2   8
#     4  10  21  26  41  62  95 126 159 191 227 255
#     4  10  19  32  48  66  93 126 166 198 235 282
#     4  10  20  33  44  67  90 125 162 199 230 279
#     4  12  20  26  40  62 100 130 168 190 224 262
#     4  10  21  35  50  69  98 130 160 201 247 290
#
# _framework density 20.926796
#
# number of rings (size 3 to 8) (size 9 to 14) (size 15 to 20)
#    0.000    1.882    2.353    2.118    6.588    0.941 
#    0.000    0.000    0.000    0.000    0.000    0.000 
#    0.000    5.647    0.000    0.000    0.000    0.000 
#
# Total GULP energy -189293.717554 kJ/mol
# GULP energy per Si atom -5567.462281 kJ/mol
# Density = 2.087917 g / cm^3
# Si number density = 20.926796 Si / 1000 Ang^3
#
#
#
# Elastic Constant Matrix: (Units=GPa)
#
#
# Indices 1 2 3 4 5 6 
#
# 1 15.3673 5.6282 -1.5059 0.0000 0.0000 0.0000
# 2 5.6282 15.3673 -1.5059 0.0000 0.0000 0.0000
# 3 -1.5059 -1.5059 90.4352 0.0000 0.0000 0.0000
# 4 0.0000 0.0000 0.0000 33.5298 0.0000 0.0000
# 5 0.0000 0.0000 0.0000 0.0000 33.5298 0.0000
# 6 0.0000 0.0000 0.0000 0.0000 0.0000 28.0168
#
#
#
# Elastic Compliance Matrix: (Units=1/GPa)
#
#
# Indices 1 2 3 4 5 6 
#
# 1 0.075211 -0.027468 0.000795 0.000000 0.000000 0.000000
# 2 -0.027468 0.075211 0.000795 0.000000 0.000000 0.000000
# 3 0.000795 0.000795 0.011084 0.000000 0.000000 0.000000
# 4 0.000000 0.000000 0.000000 0.029824 0.000000 0.000000
# 5 0.000000 0.000000 0.000000 0.000000 0.029824 0.000000
# 6 0.000000 0.000000 0.000000 0.000000 0.000000 0.035693
#
#
# Mechanical properties :
#
#
# Convention : Reuss Voigt Hill
#
# Bulk Modulus (GPa) = 9.11156 14.04475 11.57815
# Shear Modulus (GPa) = 14.48494 26.91883 20.70189
#
# Velocity S-wave (km/s) = 2.63377 3.59044 3.14865
# Velocity P-wave (km/s) = 3.68951 4.89022 4.33167
#
# Compressibility (1/GPa) = 0.10975068
#
# Stress axis : x y z
#
# Youngs Moduli (GPa) = 13.29594 13.29594 90.21916
#
# Poissons Ratio (x) = 0.36521 -0.07172
# Poissons Ratio (y) = 0.36521 -0.07172
# Poissons Ratio (z) = -0.01057 -0.01057
#
# Static dielectric constant tensor:
#      x y z
#    x 1.803490 0.000000 0.000000 
#    y 0.000000 1.803490 0.000000 
#    z 0.000000 0.000000 1.750260 
# 
# From -- ./inp_files/293.got.cif
#   From: 2010.05.17/outbox.cif.g08.bks.cpg/sg113_cif.got.tgz:293.got - 2010.05.20 11:03:00.
