data_PCOD9555355
_publ_section_title
;
Structure prediction by ZEFSAII (Michael W. Deem and Ramdas Pophale) SiO2 
 PCOD9555355
Probable space group: P -4 2 C
;
_chemical_formula_sum "Si O2"
_cell_formula_units_Z 36
_cell_length_a 14.313028
_cell_length_b 14.313028
_cell_length_c 8.456210
_cell_angle_alpha 90.000000
_cell_angle_beta 90.000000
_cell_angle_gamma 90.000000
_cell_volume 1732.362609
_symmetry_space_group_name_H-M "P -4 2 C"
_symmetry_group_IT_number 112
_symmetry_cell_setting 'tetragonal'
loop_
_space_group_symop_operation_xyz
x,y,z
y,-x,-z
-x,-y,z
-y,x,-z
x,-y,1/2-z
-x,y,1/2-z
-y,-x,1/2+z
y,x,1/2+z
loop_
_atom_site_type_symbol
_atom_site_label
_atom_site_fract_x
_atom_site_fract_y
_atom_site_fract_z
Si Si1 0.973185 0.392689 0.065390
Si Si2 0.776363 0.500000 0.750000
Si Si3 0.781658 0.319863 0.185272
Si Si4 0.327833 0.153339 0.449359
Si Si5 0.435957 0.639320 0.504521
O O1 0.866087 0.359456 0.074164
O O2 0.000000 0.500000 0.019856
O O3 0.000000 0.387414 0.250000
O O4 0.041265 0.324016 0.968278
O O5 0.829408 0.425850 0.640871
O O6 0.709857 0.560821 0.639710
O O7 0.808171 0.330179 0.369580
O O8 0.751082 0.214324 0.139013
O O9 0.693531 0.383760 0.141909
O O10 0.542882 0.613712 0.537455
#
# Coordination Sequence:
#
# PCOD9555355 Si02
#       5
#     8   4   8   8   8
#     4   9  20  40  67  91 120 170 217 266 332 396
#     4  12  24  39  59  90 124 172 220 272 318 376
#     4  11  23  44  65  91 131 171 213 282 326 403
#     4  11  24  43  64  94 126 168 226 269 342 390
#     4  11  25  39  54  83 122 173 217 258 313 382
#
# _framework density 20.780867000000001
#
# number of rings (size 3 to 8) (size 9 to 14) (size 15 to 20)
#    0.000    1.333    2.222    2.667    0.000    6.222 
#    0.000   10.556    0.000    0.667    0.000    4.667 
#    0.000    0.000    0.000    0.000    0.000    0.000 
#
# Total GULP energy -201114.816565 kJ/mol
# GULP energy per Si atom -5586.522682 kJ/mol
# Density = 2.073357 g / cm^3
# Si number density = 20.780867 Si / 1000 Ang^3
#
#
#
# Elastic Constant Matrix: (Units=GPa)
#
#
# Indices 1 2 3 4 5 6 
#
# 1 103.0018 27.5092 16.0781 0.0000 0.0000 0.0000
# 2 27.5092 103.0018 16.0781 0.0000 0.0000 0.0000
# 3 16.0781 16.0781 72.7539 0.0000 0.0000 0.0000
# 4 0.0000 0.0000 0.0000 24.1681 0.0000 0.0000
# 5 0.0000 0.0000 0.0000 0.0000 24.1681 0.0000
# 6 0.0000 0.0000 0.0000 0.0000 0.0000 17.8993
#
#
#
# Elastic Compliance Matrix: (Units=1/GPa)
#
#
# Indices 1 2 3 4 5 6 
#
# 1 0.010675 -0.002571 -0.001791 0.000000 0.000000 0.000000
# 2 -0.002571 0.010675 -0.001791 0.000000 0.000000 0.000000
# 3 -0.001791 -0.001791 0.014536 0.000000 0.000000 0.000000
# 4 0.000000 0.000000 0.000000 0.041377 0.000000 0.000000
# 5 0.000000 0.000000 0.000000 0.000000 0.041377 0.000000
# 6 0.000000 0.000000 0.000000 0.000000 0.000000 0.055868
#
#
# Mechanical properties :
#
#
# Convention : Reuss Voigt Hill
#
# Bulk Modulus (GPa) = 42.40861 44.23203 43.32032
# Shear Modulus (GPa) = 25.68395 27.85324 26.76860
#
# Velocity S-wave (km/s) = 3.51941 3.66503 3.59296
# Velocity P-wave (km/s) = 6.08004 6.26427 6.17284
#
# Compressibility (1/GPa) = 0.02358012
#
# Stress axis : x y z
#
# Youngs Moduli (GPa) = 93.67788 93.67788 68.79244
#
# Poissons Ratio (x) = 0.24089 0.12319
# Poissons Ratio (y) = 0.24089 0.12319
# Poissons Ratio (z) = 0.16776 0.16776
#
# Static dielectric constant tensor:
#      x y z
#    x 1.784540 0.000000 0.000000 
#    y 0.000000 1.784540 0.000000 
#    z 0.000000 0.000000 1.797890 
# 
# From -- ./inp_files/1130.got.cif
#   From: 2010.05.17/outbox.cif.g08.bks.cpg/sg112_1_cif.got.tgz:1130.got - 2010.05.20 10:59:04.
