data_PCOD9555564
_publ_section_title
;
Structure prediction by ZEFSAII (Michael W. Deem and Ramdas Pophale) SiO2 
 PCOD9555564
Probable space group: P -4 21 M 
;
_chemical_formula_sum "Si O2"
_cell_formula_units_Z 32
_cell_length_a 13.738497
_cell_length_b 13.738497
_cell_length_c 10.633810
_cell_angle_alpha 90.000000
_cell_angle_beta 90.000000
_cell_angle_gamma 90.000000
_cell_volume 2007.092290
_symmetry_space_group_name_H-M "P -4 21 M "
_symmetry_group_IT_number 113
_symmetry_cell_setting 'tetragonal'
loop_
_space_group_symop_operation_xyz
x,y,z
y,-x,-z
-x,-y,z
-y,x,-z
1/2+x,1/2-y,-z
1/2-x,1/2+y,-z
1/2-y,1/2-x,z
1/2+y,1/2+x,z
loop_
_atom_site_type_symbol
_atom_site_label
_atom_site_fract_x
_atom_site_fract_y
_atom_site_fract_z
Si Si1 0.888224 0.881786 0.638265
Si Si2 0.883879 0.774576 0.109420
Si Si3 0.383884 0.274570 0.890578
Si Si4 0.118218 0.111771 0.361734
O O1 0.822290 0.856078 0.756499
O O2 0.851474 0.851479 0.499999
O O3 0.999997 0.848457 0.656703
O O4 0.891321 0.000002 0.633207
O O5 0.826280 0.673721 0.094564
O O6 0.856073 0.822298 0.243498
O O7 0.999997 0.763828 0.103804
O O8 0.846033 0.846037 0.999998
O O9 0.326286 0.173715 0.905437
#
# Coordination Sequence:
#
# PCOD9555564 Si02
#       4
#     8   8   8   8
#     4   8  14  26  45  68  92 117 147 185 225 262
#     4  10  20  32  47  68  92 120 154 190 230 274
#     4  10  20  32  47  68  92 120 154 190 230 274
#     4   8  14  26  45  68  92 117 147 185 225 262
#
# _framework density 15.943462
#
# number of rings (size 3 to 8) (size 9 to 14) (size 15 to 20)
#    0.000    3.000    0.000    3.000    0.000    4.000 
#    0.000    0.000    0.000    0.000    0.000    0.000 
#    0.000   12.000    0.000    0.000    0.000    0.000 
#
# Total GULP energy -178174.017586 kJ/mol
# GULP energy per Si atom -5567.938050 kJ/mol
# Density = 1.590717 g / cm^3
# Si number density = 15.943462 Si / 1000 Ang^3
#
#
#
# Elastic Constant Matrix: (Units=GPa)
#
#
# Indices 1 2 3 4 5 6 
#
# 1 63.8984 48.2826 42.7586 0.0000 0.0000 0.0000
# 2 48.2826 63.9007 42.7591 0.0000 0.0000 0.0000
# 3 42.7586 42.7591 132.2112 0.0000 0.0000 0.0000
# 4 0.0000 0.0000 0.0000 2.0101 0.0000 0.0000
# 5 0.0000 0.0000 0.0000 0.0000 2.0249 0.0000
# 6 0.0000 0.0000 0.0000 0.0000 0.0000 7.5521
#
#
#
# Elastic Compliance Matrix: (Units=1/GPa)
#
#
# Indices 1 2 3 4 5 6 
#
# 1 0.037933 -0.026101 -0.003826 0.000000 0.000000 0.000000
# 2 -0.026101 0.037931 -0.003826 0.000000 0.000000 0.000000
# 3 -0.003826 -0.003826 0.010039 0.000000 0.000000 0.000000
# 4 0.000000 0.000000 0.000000 0.497494 0.000000 0.000000
# 5 0.000000 0.000000 0.000000 0.000000 0.493844 0.000000
# 6 0.000000 0.000000 0.000000 0.000000 0.000000 0.132413
#
#
# Mechanical properties :
#
#
# Convention : Reuss Voigt Hill
#
# Bulk Modulus (GPa) = 54.36174 58.62342 56.49258
# Shear Modulus (GPa) = 3.89623 10.73142 7.31382
#
# Velocity S-wave (km/s) = 1.56495 2.59722 2.14413
# Velocity P-wave (km/s) = 6.11850 6.77078 6.45289
#
# Compressibility (1/GPa) = 0.01839529
#
# Stress axis : x y z
#
# Youngs Moduli (GPa) = 26.36251 26.36350 99.61561
#
# Poissons Ratio (x) = 0.68812 0.38116
# Poissons Ratio (y) = 0.68809 0.38115
# Poissons Ratio (z) = 0.10087 0.10087
#
# Static dielectric constant tensor:
#      x y z
#    x 1.511470 0.000000 0.000000 
#    y 0.000000 1.511470 0.000000 
#    z 0.000000 0.000000 1.563180 
# 
# From -- ./inp_files/828.got.cif
#   From: 2010.05.17/outbox.cif.g08.bks.cpg/sg113_cif.got.tgz:828.got - 2010.05.20 11:03:00.
