data_PCOD9555532
_publ_section_title
;
Structure prediction by ZEFSAII (Michael W. Deem and Ramdas Pophale) SiO2 
 PCOD9555532
Probable space group: P -4 21 M 
;
_chemical_formula_sum "Si O2"
_cell_formula_units_Z 64
_cell_length_a 12.295439
_cell_length_b 12.295439
_cell_length_c 21.821528
_cell_angle_alpha 90.000000
_cell_angle_beta 90.000000
_cell_angle_gamma 90.000000
_cell_volume 3298.931037
_symmetry_space_group_name_H-M "P -4 21 M "
_symmetry_group_IT_number 113
_symmetry_cell_setting 'tetragonal'
loop_
_space_group_symop_operation_xyz
x,y,z
y,-x,-z
-x,-y,z
-y,x,-z
1/2+x,1/2-y,-z
1/2-x,1/2+y,-z
1/2-y,1/2-x,z
1/2+y,1/2+x,z
loop_
_atom_site_type_symbol
_atom_site_label
_atom_site_fract_x
_atom_site_fract_y
_atom_site_fract_z
Si Si1 0.870320 0.003770 0.850576
Si Si2 0.495852 0.829441 0.091065
Si Si3 0.597377 0.722520 0.209948
Si Si4 0.534334 0.325995 0.984583
Si Si5 0.014339 0.869702 0.351180
Si Si6 0.677977 0.640585 0.756664
Si Si7 0.192935 0.132269 0.418947
Si Si8 0.877583 0.802019 0.554268
O O1 0.846540 0.887316 0.820574
O O2 0.857362 0.101224 0.801521
O O3 0.000000 0.000000 0.866758
O O4 0.804829 0.029237 0.912224
O O5 0.401544 0.901544 0.121877
O O6 0.552421 0.757046 0.142596
O O7 0.448310 0.768174 0.033065
O O8 0.587611 0.912390 0.068263
O O9 0.687696 0.812305 0.228079
O O10 0.486480 0.713431 0.249368
O O11 0.418236 0.376822 0.003133
O O12 0.086064 0.834256 0.293817
O O13 0.090620 0.841229 0.408901
O O14 0.891435 0.834727 0.365343
O O15 0.000000 0.000000 0.346917
O O16 0.778940 0.721061 0.751687
O O17 0.304757 0.195244 0.411046
O O18 0.137893 0.172089 0.482603
O O19 0.211756 0.003244 0.426284
O O20 0.800640 0.699361 0.569575
#
# Coordination Sequence:
#
# PCOD9555532 Si02
#       8
#     8   8   8   8   8   8   8   8
#     4  10  19  35  57  80 113 148 198 239 281 340
#     4  10  21  34  50  78 112 141 177 231 297 359
#     4  10  20  37  60  85 112 146 188 242 302 353
#     4  11  18  31  52  79 105 143 186 233 274 335
#     4  10  20  37  62  85 115 157 200 239 285 343
#     4  11  23  39  59  86 115 152 195 242 290 346
#     4  10  20  35  60  91 122 158 199 242 290 337
#     4  10  19  34  58  90 126 161 197 242 288 338
#
# _framework density 19.400223
#
# number of rings (size 3 to 8) (size 9 to 14) (size 15 to 20)
#    0.000    1.750    3.750    2.625    0.000    2.500 
#    0.000    5.625    0.000    5.625    0.000    0.000 
#    0.000    0.000    0.000    0.000    0.000    0.000 
#
# Total GULP energy -356998.304868 kJ/mol
# GULP energy per Si atom -5578.098514 kJ/mol
# Density = 1.935607 g / cm^3
# Si number density = 19.400223 Si / 1000 Ang^3
#
#
#
# Elastic Constant Matrix: (Units=GPa)
#
#
# Indices 1 2 3 4 5 6 
#
# 1 83.0584 44.4352 5.3213 0.0000 0.0000 0.0000
# 2 44.4352 83.0608 5.3218 0.0000 0.0000 0.0000
# 3 5.3213 5.3218 37.2210 0.0000 0.0000 0.0000
# 4 0.0000 0.0000 0.0000 21.1788 0.0000 0.0000
# 5 0.0000 0.0000 0.0000 0.0000 21.1781 0.0000
# 6 0.0000 0.0000 0.0000 0.0000 0.0000 13.3736
#
#
#
# Elastic Compliance Matrix: (Units=1/GPa)
#
#
# Indices 1 2 3 4 5 6 
#
# 1 0.016915 -0.008976 -0.001135 0.000000 0.000000 0.000000
# 2 -0.008976 0.016914 -0.001135 0.000000 0.000000 0.000000
# 3 -0.001135 -0.001135 0.027191 0.000000 0.000000 0.000000
# 4 0.000000 0.000000 0.000000 0.047217 0.000000 0.000000
# 5 0.000000 0.000000 0.000000 0.000000 0.047219 0.000000
# 6 0.000000 0.000000 0.000000 0.000000 0.000000 0.074774
#
#
# Mechanical properties :
#
#
# Convention : Reuss Voigt Hill
#
# Bulk Modulus (GPa) = 25.95533 34.83296 30.39415
# Shear Modulus (GPa) = 18.82785 21.03022 19.92904
#
# Velocity S-wave (km/s) = 3.11866 3.29602 3.20856
# Velocity P-wave (km/s) = 5.13575 5.69902 5.42471
#
# Compressibility (1/GPa) = 0.03852774
#
# Stress axis : x y z
#
# Youngs Moduli (GPa) = 59.12078 59.12242 36.77679
#
# Poissons Ratio (x) = 0.53069 0.04173
# Poissons Ratio (y) = 0.53067 0.04174
# Poissons Ratio (z) = 0.06709 0.06711
#
# Static dielectric constant tensor:
#      x y z
#    x 1.683020 0.000000 0.000000 
#    y 0.000000 1.683020 0.000000 
#    z 0.000000 0.000000 1.745960 
# 
# From -- ./inp_files/2919.got.cif
#   From: 2010.05.17/outbox.cif.g08.bks.cpg/sg113_cif.got.tgz:2919.got - 2010.05.20 11:03:00.
