data_PCOD9555039
_publ_section_title
;
Structure prediction by ZEFSAII (Michael W. Deem and Ramdas Pophale) SiO2 
 PCOD9555039
Probable space group: P -4 2 C
;
_chemical_formula_sum "Si O2"
_cell_formula_units_Z 48
_cell_length_a 8.232748
_cell_length_b 8.232748
_cell_length_c 34.375096
_cell_angle_alpha 90.000000
_cell_angle_beta 90.000000
_cell_angle_gamma 90.000000
_cell_volume 2329.880057
_symmetry_space_group_name_H-M "P -4 2 C"
_symmetry_group_IT_number 112
_symmetry_cell_setting 'tetragonal'
loop_
_space_group_symop_operation_xyz
x,y,z
y,-x,-z
-x,-y,z
-y,x,-z
x,-y,1/2-z
-x,y,1/2-z
-y,-x,1/2+z
y,x,1/2+z
loop_
_atom_site_type_symbol
_atom_site_label
_atom_site_fract_x
_atom_site_fract_y
_atom_site_fract_z
Si Si1 0.500000 0.000000 0.950106
Si Si2 0.250564 0.261985 0.411765
Si Si3 0.220567 0.361598 0.174527
Si Si4 0.500000 0.500000 0.125767
Si Si5 0.737616 0.122608 0.666322
Si Si6 0.749736 0.904172 0.491828
Si Si7 0.193864 0.307831 0.753645
O O1 0.629742 0.904671 0.924410
O O2 0.399306 0.882121 0.978762
O O3 0.389723 0.389331 0.401521
O O4 0.206883 0.179822 0.370726
O O5 0.288874 0.147047 0.447893
O O6 0.393710 0.375075 0.152542
O O7 0.161561 0.544815 0.166468
O O8 0.237772 0.307048 0.219264
O O9 0.071350 0.246726 0.161602
O O10 0.781489 0.207695 0.706741
O O11 0.907183 0.802409 0.505404
O O12 0.231779 0.500000 0.750000
O O13 0.000000 0.295213 0.750000
#
# Coordination Sequence:
#
# PCOD9555039 Si02
#       7
#     4   8   8   4   8   8   8
#     4  10  20  38  60  84 115 150 189 236 288 356
#     4  10  20  37  59  86 116 146 191 240 288 350
#     4  10  20  37  59  83 116 156 198 236 287 350
#     4  10  20  34  60  92 116 150 194 248 297 334
#     4  10  21  38  60  86 113 153 197 240 288 343
#     4   9  20  39  61  84 114 154 190 230 294 360
#     4  11  23  38  56  82 118 156 197 244 293 347
#
# _framework density 20.601918000000001
#
# number of rings (size 3 to 8) (size 9 to 14) (size 15 to 20)
#    0.000    2.000    0.000    5.000    0.000    6.000 
#    0.000   15.000    0.000    0.000    0.000    0.000 
#    0.000    0.000    0.000    0.000    0.000    0.000 
#
# Total GULP energy -267370.813654 kJ/mol
# GULP energy per Si atom -5570.225284 kJ/mol
# Density = 2.055503 g / cm^3
# Si number density = 20.601918 Si / 1000 Ang^3
#
#
#
# Elastic Constant Matrix: (Units=GPa)
#
#
# Indices 1 2 3 4 5 6 
#
# 1 47.0388 2.1353 35.6955 0.0000 0.0000 0.0000
# 2 2.1353 47.0388 35.6955 0.0000 0.0000 0.0000
# 3 35.6955 35.6955 151.7726 0.0000 0.0000 0.0000
# 4 0.0000 0.0000 0.0000 4.3638 0.0000 0.0000
# 5 0.0000 0.0000 0.0000 0.0000 4.3638 0.0000
# 6 0.0000 0.0000 0.0000 0.0000 0.0000 5.6076
#
#
#
# Elastic Compliance Matrix: (Units=1/GPa)
#
#
# Indices 1 2 3 4 5 6 
#
# 1 0.026575 0.004305 -0.007263 0.000000 0.000000 0.000000
# 2 0.004305 0.026575 -0.007263 0.000000 0.000000 0.000000
# 3 -0.007263 -0.007263 0.010005 0.000000 0.000000 0.000000
# 4 0.000000 0.000000 0.000000 0.229158 0.000000 0.000000
# 5 0.000000 0.000000 0.000000 0.000000 0.229158 0.000000
# 6 0.000000 0.000000 0.000000 0.000000 0.000000 0.178331
#
#
# Mechanical properties :
#
#
# Convention : Reuss Voigt Hill
#
# Bulk Modulus (GPa) = 23.41148 43.65589 33.53368
# Shear Modulus (GPa) = 6.80754 14.35530 10.58142
#
# Velocity S-wave (km/s) = 1.81975 2.64255 2.26876
# Velocity P-wave (km/s) = 3.97539 5.52693 4.81408
#
# Compressibility (1/GPa) = 0.04271409
#
# Stress axis : x y z
#
# Youngs Moduli (GPa) = 37.62950 37.62950 99.94978
#
# Poissons Ratio (x) = -0.16199 0.72590
# Poissons Ratio (y) = -0.16199 0.72590
# Poissons Ratio (z) = 0.27329 0.27329
#
# Static dielectric constant tensor:
#      x y z
#    x 1.802940 0.000000 0.000000 
#    y 0.000000 1.802940 0.000000 
#    z 0.000000 0.000000 1.747130 
# 
# From -- ./inp_files/6346.got.cif
#   From: 2010.05.17/outbox.cif.g08.bks.cpg/sg112_4_cif.got.tgz:6346.got - 2010.05.20 10:59:04.
