data_PCOD9555754
_publ_section_title
;
Structure prediction by ZEFSAII (Michael W. Deem and Ramdas Pophale) SiO2 
 PCOD9555754
Probable space group: P -4 21 M 
;
_chemical_formula_sum "Si O2"
_cell_formula_units_Z 40
_cell_length_a 12.766617
_cell_length_b 12.766617
_cell_length_c 12.638792
_cell_angle_alpha 90.000000
_cell_angle_beta 90.000000
_cell_angle_gamma 90.000000
_cell_volume 2059.952594
_symmetry_space_group_name_H-M "P -4 21 M "
_symmetry_group_IT_number 113
_symmetry_cell_setting 'tetragonal'
loop_
_space_group_symop_operation_xyz
x,y,z
y,-x,-z
-x,-y,z
-y,x,-z
1/2+x,1/2-y,-z
1/2-x,1/2+y,-z
1/2-y,1/2-x,z
1/2+y,1/2+x,z
loop_
_atom_site_type_symbol
_atom_site_label
_atom_site_fract_x
_atom_site_fract_y
_atom_site_fract_z
Si Si1 0.625405 0.531072 0.743326
Si Si2 0.729179 0.395431 0.922424
Si Si3 0.220598 0.444250 0.096677
Si Si4 0.020875 0.827470 0.518804
Si Si5 0.763982 0.435927 0.301102
O O1 0.500000 0.500000 0.737038
O O2 0.680425 0.483625 0.845807
O O3 0.690432 0.485106 0.643676
O O4 0.622447 0.656118 0.731599
O O5 0.829019 0.329019 0.880943
O O6 0.636810 0.311167 0.935496
O O7 0.761282 0.450487 0.031422
O O8 0.110519 0.389482 0.072556
O O9 0.229306 0.466527 0.221671
O O10 0.112555 0.912664 0.505287
O O11 0.036218 0.744535 0.425506
O O12 0.861917 0.361917 0.282282
#
# Coordination Sequence:
#
# PCOD9555754 Si02
#       5
#     8   8   8   8   8
#     4  11  19  38  65  85 121 159 201 253 309 354
#     4  11  24  38  60  91 119 159 212 256 304 368
#     4  11  24  42  62  88 125 165 207 257 309 368
#     4   9  15  32  58  83 110 152 195 243 296 351
#     4  11  22  36  60  94 122 159 208 250 304 374
#
# _framework density 19.417922999999998
#
# number of rings (size 3 to 8) (size 9 to 14) (size 15 to 20)
#    0.000    1.400    6.000    1.800    0.000    4.800 
#    0.000    6.000    0.000    0.000    0.000    2.800 
#    0.000    0.000    0.000    0.000    0.000    0.000 
#
# Total GULP energy -223040.568022 kJ/mol
# GULP energy per Si atom -5576.014201 kJ/mol
# Density = 1.937373 g / cm^3
# Si number density = 19.417923 Si / 1000 Ang^3
#
#
#
# Elastic Constant Matrix: (Units=GPa)
#
#
# Indices 1 2 3 4 5 6 
#
# 1 27.1193 21.4784 13.6168 0.0000 0.0000 0.0000
# 2 21.4784 27.1171 13.6159 0.0000 0.0000 0.0000
# 3 13.6168 13.6159 84.8521 0.0000 0.0000 0.0000
# 4 0.0000 0.0000 0.0000 16.8555 0.0000 0.0000
# 5 0.0000 0.0000 0.0000 0.0000 16.8572 0.0000
# 6 0.0000 0.0000 0.0000 0.0000 0.0000 33.9506
#
#
#
# Elastic Compliance Matrix: (Units=1/GPa)
#
#
# Indices 1 2 3 4 5 6 
#
# 1 0.099958 -0.077351 -0.003629 0.000000 0.000000 0.000000
# 2 -0.077351 0.099966 -0.003628 0.000000 0.000000 0.000000
# 3 -0.003629 -0.003628 0.012950 0.000000 0.000000 0.000000
# 4 0.000000 0.000000 0.000000 0.059328 0.000000 0.000000
# 5 0.000000 0.000000 0.000000 0.000000 0.059322 0.000000
# 6 0.000000 0.000000 0.000000 0.000000 0.000000 0.029455
#
#
# Mechanical properties :
#
#
# Convention : Reuss Voigt Hill
#
# Bulk Modulus (GPa) = 22.90538 26.27897 24.59217
# Shear Modulus (GPa) = 9.17861 19.55781 14.36821
#
# Velocity S-wave (km/s) = 2.17650 3.17709 2.72315
# Velocity P-wave (km/s) = 4.25885 5.19820 4.75179
#
# Compressibility (1/GPa) = 0.04365787
#
# Stress axis : x y z
#
# Youngs Moduli (GPa) = 10.00422 10.00345 77.22170
#
# Poissons Ratio (x) = 0.77377 0.28022
# Poissons Ratio (y) = 0.77383 0.28017
# Poissons Ratio (z) = 0.03630 0.03629
#
# Static dielectric constant tensor:
#      x y z
#    x 1.668540 0.000000 0.000000 
#    y 0.000000 1.668550 0.000000 
#    z 0.000000 0.000000 1.664670 
# 
# From -- ./inp_files/2192.got.cif
#   From: 2010.05.17/outbox.cif.g08.bks.cpg/sg113_cif.got.tgz:2192.got - 2010.05.20 11:03:00.
