data_PCOD9555660
_publ_section_title
;
Structure prediction by ZEFSAII (Michael W. Deem and Ramdas Pophale) SiO2 
 PCOD9555660
Probable space group: P -4 21 M 
;
_chemical_formula_sum "Si O2"
_cell_formula_units_Z 64
_cell_length_a 11.724798
_cell_length_b 11.724798
_cell_length_c 24.467452
_cell_angle_alpha 90.000000
_cell_angle_beta 90.000000
_cell_angle_gamma 90.000000
_cell_volume 3363.562357
_symmetry_space_group_name_H-M "P -4 21 M "
_symmetry_group_IT_number 113
_symmetry_cell_setting 'tetragonal'
loop_
_space_group_symop_operation_xyz
x,y,z
y,-x,-z
-x,-y,z
-y,x,-z
1/2+x,1/2-y,-z
1/2-x,1/2+y,-z
1/2-y,1/2-x,z
1/2+y,1/2+x,z
loop_
_atom_site_type_symbol
_atom_site_label
_atom_site_fract_x
_atom_site_fract_y
_atom_site_fract_z
Si Si1 0.970246 0.870254 0.663738
Si Si2 0.581375 0.262542 0.440295
Si Si3 0.581584 0.735568 0.048517
Si Si4 0.226980 0.910984 0.868395
Si Si5 0.357350 0.330479 0.925372
Si Si6 0.540219 0.772937 0.675774
Si Si7 0.041682 0.727131 0.446315
Si Si8 0.835402 0.152903 0.748374
O O1 0.998076 0.794264 0.610836
O O2 0.835302 0.872800 0.676078
O O3 0.045098 0.845390 0.716874
O O4 0.000000 0.000000 0.647798
O O5 0.648358 0.148358 0.426113
O O6 0.531538 0.249613 0.500476
O O7 0.672526 0.364901 0.443453
O O8 0.635279 0.864721 0.053593
O O9 0.667584 0.657448 0.082765
O O10 0.457077 0.697579 0.070419
O O11 0.590957 0.700535 0.985067
O O12 0.355908 0.855908 0.864168
O O13 0.164440 0.879361 0.811841
O O14 0.201042 0.042467 0.882614
O O15 0.254055 0.245946 0.914659
O O16 0.612891 0.887110 0.685339
O O17 0.488681 0.776827 0.614231
O O18 0.442617 0.742369 0.718380
O O19 0.109781 0.609781 0.453733
O O20 0.773041 0.273041 0.742643
#
# Coordination Sequence:
#
# PCOD9555660 Si02
#       8
#     8   8   8   8   8   8   8   8
#     4   9  19  35  55  80 105 143 188 235 281 341
#     4  10  21  34  52  79 110 143 184 238 292 348
#     4  10  21  37  59  89 126 164 204 251 302 363
#     4  10  22  40  60  86 123 161 202 254 302 357
#     4  11  22  36  60  92 124 165 207 250 309 363
#     4   9  19  37  56  77 109 148 191 238 287 344
#     4   9  20  34  50  75 107 142 181 230 287 344
#     4  10  22  38  58  86 116 150 191 238 294 350
#
# _framework density 19.027446000000001
#
# number of rings (size 3 to 8) (size 9 to 14) (size 15 to 20)
#    0.000    2.250    1.250    1.500    5.250    5.500 
#    0.000    3.750    0.000    1.875    0.000    3.500 
#    0.000    0.000    0.000    0.000    0.000    0.000 
#
# Total GULP energy -356568.190568 kJ/mol
# GULP energy per Si atom -5571.377978 kJ/mol
# Density = 1.898414 g / cm^3
# Si number density = 19.027446 Si / 1000 Ang^3
#
#
#
# Elastic Constant Matrix: (Units=GPa)
#
#
# Indices 1 2 3 4 5 6 
#
# 1 48.6623 49.4645 6.6998 0.0000 0.0000 0.0000
# 2 49.4645 48.6543 6.6924 0.0000 0.0000 0.0000
# 3 6.6998 6.6924 57.3094 0.0000 0.0000 0.0000
# 4 0.0000 0.0000 0.0000 57.5653 0.0000 0.0000
# 5 0.0000 0.0000 0.0000 0.0000 57.5675 0.0000
# 6 0.0000 0.0000 0.0000 0.0000 0.0000 7.6958
#
#
#
# Elastic Compliance Matrix: (Units=1/GPa)
#
#
# Indices 1 2 3 4 5 6 
#
# 1 -0.614990 0.625386 -0.001136 0.000000 0.000000 0.000000
# 2 0.625386 -0.615071 -0.001284 0.000000 0.000000 0.000000
# 3 -0.001136 -0.001284 0.017732 0.000000 0.000000 0.000000
# 4 0.000000 0.000000 0.000000 0.017372 0.000000 0.000000
# 5 0.000000 0.000000 0.000000 0.000000 0.017371 0.000000
# 6 0.000000 0.000000 0.000000 0.000000 0.000000 0.129940
#
#
# Mechanical properties :
#
#
# Convention : Reuss Voigt Hill
#
# Bulk Modulus (GPa) = 29.75784 31.14880 30.45332
# Shear Modulus (GPa) = -2.19070 30.68369 14.24650
#
# Velocity S-wave (km/s) = -1.07417 4.02008 2.73927
# Velocity P-wave (km/s) = 3.75965 6.16068 5.10338
#
# Compressibility (1/GPa) = 0.03360459
#
# Stress axis : x y z
#
# Youngs Moduli (GPa) = -1.62604 -1.62583 56.39549
#
# Poissons Ratio (x) = 1.01677 0.06405
# Poissons Ratio (y) = 1.01691 0.07244
# Poissons Ratio (z) = -0.00185 -0.00209
#
# Static dielectric constant tensor:
#      x y z
#    x 1.688230 0.000000 0.000000 
#    y 0.000000 1.688240 0.000000 
#    z 0.000000 0.000000 1.681210 
# 
# From -- ./inp_files/2882.got.cif
#   From: 2010.05.17/outbox.cif.g08.bks.cpg/sg113_cif.got.tgz:2882.got - 2010.05.20 11:03:00.
