data_PCOD9555013
_publ_section_title
;
Structure prediction by ZEFSAII (Michael W. Deem and Ramdas Pophale) SiO2 
 PCOD9555013
Probable space group: P -4 2 C
;
_chemical_formula_sum "Si O2"
_cell_formula_units_Z 38
_cell_length_a 8.336134
_cell_length_b 8.336134
_cell_length_c 23.910894
_cell_angle_alpha 90.000000
_cell_angle_beta 90.000000
_cell_angle_gamma 90.000000
_cell_volume 1661.595045
_symmetry_space_group_name_H-M "P -4 2 C"
_symmetry_group_IT_number 112
_symmetry_cell_setting 'tetragonal'
loop_
_space_group_symop_operation_xyz
x,y,z
y,-x,-z
-x,-y,z
-y,x,-z
x,-y,1/2-z
-x,y,1/2-z
-y,-x,1/2+z
y,x,1/2+z
loop_
_atom_site_type_symbol
_atom_site_label
_atom_site_fract_x
_atom_site_fract_y
_atom_site_fract_z
Si Si1 0.311611 0.792970 0.060531
Si Si2 0.230458 0.218319 0.677684
Si Si3 0.426410 0.325489 0.837565
Si Si4 0.000000 0.000000 0.750000
Si Si5 0.306942 0.166094 0.057176
Si Si6 0.789113 0.500000 0.750000
O O1 0.255900 0.679268 0.111741
O O2 0.504156 0.802873 0.066116
O O3 0.263758 0.978691 0.059046
O O4 0.250776 0.728215 0.001354
O O5 0.422882 0.226048 0.685391
O O6 0.228933 0.213214 0.610809
O O7 0.145076 0.383284 0.701596
O O8 0.123384 0.089819 0.708757
O O9 0.500000 0.500000 0.855813
O O10 0.311474 0.373711 0.786662
#
# Coordination Sequence:
#
# PCOD9555013 Si02
#       6
#     8   8   8   2   8   4
#     4  11  24  42  71 108 135 191 235 316 375 446
#     4  11  24  46  70 105 144 196 241 315 370 457
#     4  10  19  42  76 106 137 181 259 316 359 437
#     4  12  32  42  66 110 168 202 238 304 422 444
#     4  11  25  43  70 102 144 182 247 300 382 444
#     4  10  21  43  80 111 130 183 262 321 358 431
#
# _framework density 22.869591
#
# number of rings (size 3 to 8) (size 9 to 14) (size 15 to 20)
#    0.000    1.263    4.211    4.105    2.947    2.526 
#    0.000    2.105    4.632    0.000    0.000    0.000 
#    0.000    0.000    0.000    0.000    0.000    0.000 
#
# Total GULP energy -211960.139295 kJ/mol
# GULP energy per Si atom -5577.898402 kJ/mol
# Density = 2.281754 g / cm^3
# Si number density = 22.869591 Si / 1000 Ang^3
#
#
#
# Elastic Constant Matrix: (Units=GPa)
#
#
# Indices 1 2 3 4 5 6 
#
# 1 64.5205 42.3355 42.8365 0.0000 0.0000 0.0000
# 2 42.3355 64.5205 42.8365 0.0000 0.0000 0.0000
# 3 42.8365 42.8365 186.8172 0.0000 0.0000 0.0000
# 4 0.0000 0.0000 0.0000 17.1506 0.0000 0.0000
# 5 0.0000 0.0000 0.0000 0.0000 17.1506 0.0000
# 6 0.0000 0.0000 0.0000 0.0000 0.0000 27.2779
#
#
#
# Elastic Compliance Matrix: (Units=1/GPa)
#
#
# Indices 1 2 3 4 5 6 
#
# 1 0.028271 -0.016805 -0.002629 0.000000 0.000000 0.000000
# 2 -0.016805 0.028271 -0.002629 0.000000 0.000000 0.000000
# 3 -0.002629 -0.002629 0.006559 0.000000 0.000000 0.000000
# 4 0.000000 0.000000 0.000000 0.058307 0.000000 0.000000
# 5 0.000000 0.000000 0.000000 0.000000 0.058307 0.000000
# 6 0.000000 0.000000 0.000000 0.000000 0.000000 0.036660
#
#
# Mechanical properties :
#
#
# Convention : Reuss Voigt Hill
#
# Bulk Modulus (GPa) = 52.70224 63.54166 58.12195
# Shear Modulus (GPa) = 18.73885 24.83911 21.78898
#
# Velocity S-wave (km/s) = 2.86558 3.29921 3.09001
# Velocity P-wave (km/s) = 5.83468 6.50828 6.18066
#
# Compressibility (1/GPa) = 0.01897452
#
# Stress axis : x y z
#
# Youngs Moduli (GPa) = 35.37196 35.37196 152.47259
#
# Poissons Ratio (x) = 0.59441 0.40088
# Poissons Ratio (y) = 0.59441 0.40088
# Poissons Ratio (z) = 0.09300 0.09300
#
# Static dielectric constant tensor:
#      x y z
#    x 1.946990 0.000000 0.000000 
#    y 0.000000 1.946990 0.000000 
#    z 0.000000 0.000000 1.907320 
# 
# From -- ./inp_files/5417.got.cif
#   From: 2010.05.17/outbox.cif.g08.bks.cpg/sg112_3_cif.got.tgz:5417.got - 2010.05.20 10:59:04.
