data_PCOD9555741
_publ_section_title
;
Structure prediction by ZEFSAII (Michael W. Deem and Ramdas Pophale) SiO2 
 PCOD9555741
Probable space group: P -4 21 M 
;
_chemical_formula_sum "Si O2"
_cell_formula_units_Z 56
_cell_length_a 10.238275
_cell_length_b 10.238275
_cell_length_c 25.327181
_cell_angle_alpha 90.000000
_cell_angle_beta 90.000000
_cell_angle_gamma 90.000000
_cell_volume 2654.852731
_symmetry_space_group_name_H-M "P -4 21 M "
_symmetry_group_IT_number 113
_symmetry_cell_setting 'tetragonal'
loop_
_space_group_symop_operation_xyz
x,y,z
y,-x,-z
-x,-y,z
-y,x,-z
1/2+x,1/2-y,-z
1/2-x,1/2+y,-z
1/2-y,1/2-x,z
1/2+y,1/2+x,z
loop_
_atom_site_type_symbol
_atom_site_label
_atom_site_fract_x
_atom_site_fract_y
_atom_site_fract_z
Si Si1 0.327287 0.603915 0.259765
Si Si2 0.506601 0.219184 0.962619
Si Si3 0.282320 0.008644 0.079136
Si Si4 0.209096 0.501804 0.488502
Si Si5 0.880104 0.909769 0.413648
Si Si6 0.821395 0.886191 0.297752
Si Si7 0.332914 0.608976 0.138479
O O1 0.208010 0.708010 0.267815
O O2 0.322275 0.466169 0.290670
O O3 0.467341 0.669985 0.273962
O O4 0.331549 0.561845 0.198132
O O5 0.392575 0.107426 0.962931
O O6 0.485875 0.303026 0.910379
O O7 0.642674 0.142674 0.959654
O O8 0.494314 0.280969 0.020760
O O9 0.357018 0.142983 0.088305
O O10 0.396075 0.896075 0.076812
O O11 0.183276 0.965887 0.123983
O O12 0.136943 0.636943 0.475786
O O13 0.305648 0.526855 0.536894
O O14 0.279188 0.441648 0.437857
O O15 0.299247 0.602629 0.639356
O O16 0.000000 0.000000 0.398528
O O17 0.601398 0.101398 0.493703
O O18 0.708811 0.791190 0.275472
O O19 0.218125 0.718125 0.136355
#
# Coordination Sequence:
#
# PCOD9555741 Si02
#       7
#     8   8   8   8   8   8   8
#     4  10  23  43  65  92 123 161 211 270 325 374
#     4   8  14  26  46  74 108 144 182 228 288 363
#     4   8  14  26  46  74 108 144 182 228 288 363
#     4  11  23  38  62  98 133 165 204 246 294 361
#     4  12  22  41  66  89 125 172 204 248 306 359
#     4  11  25  46  67  91 125 167 217 267 316 370
#     4   9  17  31  53  80 112 147 190 242 302 367
#
# _framework density 21.093449
#
# number of rings (size 3 to 8) (size 9 to 14) (size 15 to 20)
#    0.000    2.143    2.857    2.143    0.000    2.857 
#    0.000    5.714    0.000    1.714    0.000    0.000 
#    0.000    0.000    0.000    0.000    0.000    0.000 
#
# Total GULP energy -312592.061534 kJ/mol
# GULP energy per Si atom -5582.001099 kJ/mol
# Density = 2.104544 g / cm^3
# Si number density = 21.093449 Si / 1000 Ang^3
#
#
#
# Elastic Constant Matrix: (Units=GPa)
#
#
# Indices 1 2 3 4 5 6 
#
# 1 35.9614 7.7494 -10.2939 0.0000 0.0000 0.0000
# 2 7.7494 35.9592 -10.2939 0.0000 0.0000 0.0000
# 3 -10.2939 -10.2939 69.1374 0.0000 0.0000 0.0000
# 4 0.0000 0.0000 0.0000 39.7575 0.0000 0.0000
# 5 0.0000 0.0000 0.0000 0.0000 39.7581 0.0000
# 6 0.0000 0.0000 0.0000 0.0000 0.0000 45.4722
#
#
#
# Elastic Compliance Matrix: (Units=1/GPa)
#
#
# Indices 1 2 3 4 5 6 
#
# 1 0.030025 -0.005422 0.003663 0.000000 0.000000 0.000000
# 2 -0.005422 0.030026 0.003663 0.000000 0.000000 0.000000
# 3 0.003663 0.003663 0.015555 0.000000 0.000000 0.000000
# 4 0.000000 0.000000 0.000000 0.025153 0.000000 0.000000
# 5 0.000000 0.000000 0.000000 0.000000 0.025152 0.000000
# 6 0.000000 0.000000 0.000000 0.000000 0.000000 0.021991
#
#
# Mechanical properties :
#
#
# Convention : Reuss Voigt Hill
#
# Bulk Modulus (GPa) = 12.59206 12.82012 12.70609
# Shear Modulus (GPa) = 29.31447 35.25732 32.28590
#
# Velocity S-wave (km/s) = 3.73197 4.09281 3.91655
# Velocity P-wave (km/s) = 4.95507 5.33158 5.14677
#
# Compressibility (1/GPa) = 0.07941513
#
# Stress axis : x y z
#
# Youngs Moduli (GPa) = 33.30608 33.30400 64.28879
#
# Poissons Ratio (x) = 0.18057 -0.23550
# Poissons Ratio (y) = 0.18058 -0.23552
# Poissons Ratio (z) = -0.12200 -0.12201
#
# Static dielectric constant tensor:
#      x y z
#    x 1.791120 0.000000 0.000000 
#    y 0.000000 1.791120 0.000000 
#    z 0.000000 0.000000 1.750170 
# 
# From -- ./inp_files/2710.got.cif
#   From: 2010.05.17/outbox.cif.g08.bks.cpg/sg113_cif.got.tgz:2710.got - 2010.05.20 11:03:00.
