data_PCOD9555124
_publ_section_title
;
Structure prediction by ZEFSAII (Michael W. Deem and Ramdas Pophale) SiO2 
 PCOD9555124
Probable space group: P -4 2 C
;
_chemical_formula_sum "Si O2"
_cell_formula_units_Z 56
_cell_length_a 15.262616
_cell_length_b 15.262616
_cell_length_c 11.486693
_cell_angle_alpha 90.000000
_cell_angle_beta 90.000000
_cell_angle_gamma 90.000000
_cell_volume 2675.795811
_symmetry_space_group_name_H-M "P -4 2 C"
_symmetry_group_IT_number 112
_symmetry_cell_setting 'tetragonal'
loop_
_space_group_symop_operation_xyz
x,y,z
y,-x,-z
-x,-y,z
-y,x,-z
x,-y,1/2-z
-x,y,1/2-z
-y,-x,1/2+z
y,x,1/2+z
loop_
_atom_site_type_symbol
_atom_site_label
_atom_site_fract_x
_atom_site_fract_y
_atom_site_fract_z
Si Si1 0.408861 0.799527 0.724606
Si Si2 0.822007 0.766507 0.382446
Si Si3 0.296662 0.663373 0.451889
Si Si4 0.269744 0.526407 0.993906
Si Si5 0.097230 0.473053 0.884984
Si Si6 0.019289 0.134396 0.498203
Si Si7 0.722838 0.924407 0.341085
O O1 0.500000 0.848569 0.750000
O O2 0.326781 0.847920 0.669110
O O3 0.367569 0.757590 0.840119
O O4 0.440535 0.727478 0.628350
O O5 0.748099 0.744748 0.482258
O O6 0.909722 0.814455 0.422804
O O7 0.770543 0.835388 0.298814
O O8 0.301984 0.572439 0.525067
O O9 0.396441 0.687200 0.420641
O O10 0.167758 0.522091 0.961823
O O11 0.111590 0.500000 0.750000
O O12 0.104021 0.368503 0.897970
O O13 0.000000 0.500000 0.917241
O O14 0.940742 0.078600 0.438486
O O15 0.971138 0.206105 0.576726
O O16 0.698718 0.000000 0.250000
#
# Coordination Sequence:
#
# PCOD9555124 Si02
#       7
#     8   8   8   8   8   8   8
#     4   9  21  38  60  91 127 168 216 257 313 387
#     4  10  21  37  64  90 122 170 210 259 330 377
#     4  10  21  38  62  88 124 171 214 258 317 388
#     4  10  22  39  60  89 127 166 210 266 319 379
#     4  11  23  36  57  94 128 158 212 272 320 372
#     4   9  21  42  63  89 127 164 209 265 325 387
#     4  11  22  37  62  95 123 159 214 268 324 382
#
# _framework density 20.928352
#
# number of rings (size 3 to 8) (size 9 to 14) (size 15 to 20)
#    0.000    2.000    2.857    0.000    8.000    0.286 
#    0.000    5.714    0.000   17.571    0.000    0.000 
#    0.000    0.000    0.000    0.000    0.000    0.000 
#
# Total GULP energy -311858.752512 kJ/mol
# GULP energy per Si atom -5568.906295 kJ/mol
# Density = 2.088072 g / cm^3
# Si number density = 20.928352 Si / 1000 Ang^3
#
#
#
# Elastic Constant Matrix: (Units=GPa)
#
#
# Indices 1 2 3 4 5 6 
#
# 1 121.0331 35.3109 18.5409 0.0000 0.0000 0.0000
# 2 35.3109 121.0331 18.5409 0.0000 0.0000 0.0000
# 3 18.5409 18.5409 31.1078 0.0000 0.0000 0.0000
# 4 0.0000 0.0000 0.0000 12.3611 0.0000 0.0000
# 5 0.0000 0.0000 0.0000 0.0000 12.3611 0.0000
# 6 0.0000 0.0000 0.0000 0.0000 0.0000 27.2880
#
#
#
# Elastic Compliance Matrix: (Units=1/GPa)
#
#
# Indices 1 2 3 4 5 6 
#
# 1 0.009557 -0.002108 -0.004440 0.000000 0.000000 0.000000
# 2 -0.002108 0.009557 -0.004440 0.000000 0.000000 0.000000
# 3 -0.004440 -0.004440 0.037439 0.000000 0.000000 0.000000
# 4 0.000000 0.000000 0.000000 0.080899 0.000000 0.000000
# 5 0.000000 0.000000 0.000000 0.000000 0.080899 0.000000
# 6 0.000000 0.000000 0.000000 0.000000 0.000000 0.036646
#
#
# Mechanical properties :
#
#
# Convention : Reuss Voigt Hill
#
# Bulk Modulus (GPa) = 28.92036 46.43994 37.68015
# Shear Modulus (GPa) = 17.33103 23.78744 20.55923
#
# Velocity S-wave (km/s) = 2.88082 3.37503 3.13767
# Velocity P-wave (km/s) = 4.99141 6.11767 5.58301
#
# Compressibility (1/GPa) = 0.03457771
#
# Stress axis : x y z
#
# Youngs Moduli (GPa) = 104.63092 104.63092 26.71020
#
# Poissons Ratio (x) = 0.22058 0.11859
# Poissons Ratio (y) = 0.22058 0.11859
# Poissons Ratio (z) = 0.46455 0.46455
#
# Static dielectric constant tensor:
#      x y z
#    x 1.786160 0.000000 0.000000 
#    y 0.000000 1.786160 0.000000 
#    z 0.000000 0.000000 1.803330 
# 
# From -- ./inp_files/2667.got.cif
#   From: 2010.05.17/outbox.cif.g08.bks.cpg/sg112_2_cif.got.tgz:2667.got - 2010.05.20 10:59:04.
