data_PCOD9555149
_publ_section_title
;
Structure prediction by ZEFSAII (Michael W. Deem and Ramdas Pophale) SiO2 
 PCOD9555149
Probable space group: P -4 2 C
;
_chemical_formula_sum "Si O2"
_cell_formula_units_Z 60
_cell_length_a 15.248811
_cell_length_b 15.248811
_cell_length_c 13.437689
_cell_angle_alpha 90.000000
_cell_angle_beta 90.000000
_cell_angle_gamma 90.000000
_cell_volume 3124.615256
_symmetry_space_group_name_H-M "P -4 2 C"
_symmetry_group_IT_number 112
_symmetry_cell_setting 'tetragonal'
loop_
_space_group_symop_operation_xyz
x,y,z
y,-x,-z
-x,-y,z
-y,x,-z
x,-y,1/2-z
-x,y,1/2-z
-y,-x,1/2+z
y,x,1/2+z
loop_
_atom_site_type_symbol
_atom_site_label
_atom_site_fract_x
_atom_site_fract_y
_atom_site_fract_z
Si Si1 0.377491 0.248395 0.866583
Si Si2 0.474247 0.101951 0.136944
Si Si3 0.000000 0.188800 0.250000
Si Si4 0.039725 0.867801 0.035876
Si Si5 0.611079 0.579147 0.978135
Si Si6 0.442651 0.197882 0.549319
Si Si7 0.829178 0.713177 0.175336
Si Si8 0.150983 0.286514 0.551262
O O1 0.388831 0.352076 0.887937
O O2 0.472575 0.203513 0.879662
O O3 0.332147 0.225832 0.763538
O O4 0.321053 0.208241 0.957777
O O5 0.500000 0.126800 0.250000
O O6 0.371752 0.116264 0.110542
O O7 0.500000 0.000000 0.124274
O O8 0.526880 0.159225 0.055980
O O9 0.028732 0.134653 0.345936
O O10 0.082756 0.246672 0.218958
O O11 0.075504 0.776313 0.992951
O O12 0.945224 0.893481 0.992307
O O13 0.602823 0.475269 0.957057
O O14 0.702324 0.589488 0.034586
O O15 0.362673 0.146638 0.597121
O O16 0.772031 0.787771 0.122071
#
# Coordination Sequence:
#
# PCOD9555149 Si02
#       8
#     8   8   4   8   8   8   8   8
#     4  10  21  40  62  97 132 170 227 265 327 400
#     4  10  25  45  63  94 130 171 227 271 329 394
#     4  12  26  45  67 102 128 170 230 266 335 427
#     4  11  25  47  70  96 134 166 211 281 344 399
#     4   9  18  36  62  92 132 177 216 273 326 389
#     4  10  22  39  66  92 134 175 215 278 332 386
#     4  12  24  40  68  97 130 174 222 270 335 398
#     4  11  23  43  66  93 127 175 216 269 330 394
#
# _framework density 19.202362999999998
#
# number of rings (size 3 to 8) (size 9 to 14) (size 15 to 20)
#    0.000    1.467    4.000    0.400    3.733    1.067 
#    4.800    1.333    0.000    3.200    0.000    0.000 
#    0.000    0.000    0.000    0.000    0.000    0.000 
#
# Total GULP energy -335033.961055 kJ/mol
# GULP energy per Si atom -5583.899351 kJ/mol
# Density = 1.915866 g / cm^3
# Si number density = 19.202363 Si / 1000 Ang^3
#
#
#
# Elastic Constant Matrix: (Units=GPa)
#
#
# Indices 1 2 3 4 5 6 
#
# 1 97.4934 41.8304 53.0150 0.0000 0.0000 0.0000
# 2 41.8304 97.4934 53.0150 0.0000 0.0000 0.0000
# 3 53.0150 53.0150 123.1139 0.0000 0.0000 0.0000
# 4 0.0000 0.0000 0.0000 31.2914 0.0000 0.0000
# 5 0.0000 0.0000 0.0000 0.0000 31.2914 0.0000
# 6 0.0000 0.0000 0.0000 0.0000 0.0000 28.3200
#
#
#
# Elastic Compliance Matrix: (Units=1/GPa)
#
#
# Indices 1 2 3 4 5 6 
#
# 1 0.014321 -0.003644 -0.004597 0.000000 0.000000 0.000000
# 2 -0.003644 0.014321 -0.004597 0.000000 0.000000 0.000000
# 3 -0.004597 -0.004597 0.012082 0.000000 0.000000 0.000000
# 4 0.000000 0.000000 0.000000 0.031958 0.000000 0.000000
# 5 0.000000 0.000000 0.000000 0.000000 0.031958 0.000000
# 6 0.000000 0.000000 0.000000 0.000000 0.000000 0.035311
#
#
# Mechanical properties :
#
#
# Convention : Reuss Voigt Hill
#
# Bulk Modulus (GPa) = 66.46727 68.20239 67.33483
# Shear Modulus (GPa) = 29.30090 29.52991 29.41541
#
# Velocity S-wave (km/s) = 3.91052 3.92577 3.91815
# Velocity P-wave (km/s) = 7.42151 7.49291 7.45729
#
# Compressibility (1/GPa) = 0.01504500
#
# Stress axis : x y z
#
# Youngs Moduli (GPa) = 69.82857 69.82857 82.76770
#
# Poissons Ratio (x) = 0.25449 0.38052
# Poissons Ratio (y) = 0.25449 0.38052
# Poissons Ratio (z) = 0.32103 0.32103
#
# Static dielectric constant tensor:
#      x y z
#    x 1.674860 0.000000 0.000000 
#    y 0.000000 1.674860 0.000000 
#    z 0.000000 0.000000 1.647850 
# 
# From -- ./inp_files/3482.got.cif
#   From: 2010.05.17/outbox.cif.g08.bks.cpg/sg112_2_cif.got.tgz:3482.got - 2010.05.20 10:59:04.
