data_PCOD9555834
_publ_section_title
;
Structure prediction by ZEFSAII (Michael W. Deem and Ramdas Pophale) SiO2 
 PCOD9555834
Probable space group: P -4 21 C
;
_chemical_formula_sum "Si O2"
_cell_formula_units_Z 48
_cell_length_a 8.403905
_cell_length_b 8.403905
_cell_length_c 28.604640
_cell_angle_alpha 90.000000
_cell_angle_beta 90.000000
_cell_angle_gamma 90.000000
_cell_volume 2020.220413
_symmetry_space_group_name_H-M "P -4 21 C"
_symmetry_group_IT_number 114
_symmetry_cell_setting 'tetragonal'
loop_
_space_group_symop_operation_xyz
x,y,z
y,-x,-z
-x,-y,z
-y,x,-z
1/2+x,1/2-y,1/2-z
1/2-x,1/2+y,1/2-z
1/2-y,1/2-x,1/2+z
1/2+y,1/2+x,1/2+z
loop_
_atom_site_type_symbol
_atom_site_label
_atom_site_fract_x
_atom_site_fract_y
_atom_site_fract_z
Si Si1 0.062399 0.828655 0.721413
Si Si2 0.557155 0.184134 0.404211
Si Si3 0.307392 0.374967 0.025226
Si Si4 0.257525 0.756769 0.639450
Si Si5 0.000000 0.000000 0.604561
Si Si6 0.500000 0.000000 0.664625
Si Si7 0.765452 0.768587 0.190682
O O1 0.904592 0.726104 0.714125
O O2 0.206806 0.738875 0.694077
O O3 0.115194 0.856250 0.774426
O O4 0.000000 0.000000 0.703157
O O5 0.641467 0.193089 0.455220
O O6 0.394719 0.276248 0.393081
O O7 0.669526 0.241956 0.361436
O O8 0.500000 0.000000 0.397727
O O9 0.410380 0.373999 0.072261
O O10 0.296321 0.564145 0.010528
O O11 0.102390 0.858211 0.625575
O O12 0.413623 0.862296 0.636300
O O13 0.353271 0.090500 0.690068
#
# Coordination Sequence:
#
# PCOD9555834 Si02
#       7
#     8   8   8   8   4   4   8
#     4  12  25  42  65 100 150 208 276 326 369 433
#     4  12  24  44  77 114 151 190 253 320 406 455
#     4   9  20  40  78 111 145 181 249 311 384 500
#     4  12  23  41  71 106 149 210 259 319 367 445
#     4  10  17  40  72 108 142 188 260 298 372 461
#     4  12  26  44  64  96 150 208 282 306 374 444
#     4  12  28  44  69 105 154 207 272 332 380 436
#
# _framework density 23.759784
#
# number of rings (size 3 to 8) (size 9 to 14) (size 15 to 20)
#    0.000    0.833    5.833    2.000    4.667    0.000 
#    1.500    0.000   16.500    0.000    0.000    0.000 
#    0.000    0.000    0.000    0.000    0.000    0.000 
#
# Total GULP energy -267378.297352 kJ/mol
# GULP energy per Si atom -5570.381195 kJ/mol
# Density = 2.370571 g / cm^3
# Si number density = 23.759784 Si / 1000 Ang^3
#
#
#
# Elastic Constant Matrix: (Units=GPa)
#
#
# Indices 1 2 3 4 5 6 
#
# 1 90.2459 48.5169 39.0801 0.0000 0.0000 0.0000
# 2 48.5169 90.2459 39.0801 0.0000 0.0000 0.0000
# 3 39.0801 39.0801 86.3692 0.0000 0.0000 0.0000
# 4 0.0000 0.0000 0.0000 31.4421 0.0000 0.0000
# 5 0.0000 0.0000 0.0000 0.0000 31.4421 0.0000
# 6 0.0000 0.0000 0.0000 0.0000 0.0000 48.3996
#
#
#
# Elastic Compliance Matrix: (Units=1/GPa)
#
#
# Indices 1 2 3 4 5 6 
#
# 1 0.016818 -0.007146 -0.004376 0.000000 0.000000 0.000000
# 2 -0.007146 0.016818 -0.004376 0.000000 0.000000 0.000000
# 3 -0.004376 -0.004376 0.015538 0.000000 0.000000 0.000000
# 4 0.000000 0.000000 0.000000 0.031805 0.000000 0.000000
# 5 0.000000 0.000000 0.000000 0.000000 0.031805 0.000000
# 6 0.000000 0.000000 0.000000 0.000000 0.000000 0.020661
#
#
# Mechanical properties :
#
#
# Convention : Reuss Voigt Hill
#
# Bulk Modulus (GPa) = 57.54788 57.80170 57.67479
# Shear Modulus (GPa) = 29.23400 31.60236 30.41818
#
# Velocity S-wave (km/s) = 3.51151 3.65098 3.58192
# Velocity P-wave (km/s) = 6.38077 6.49255 6.43690
#
# Compressibility (1/GPa) = 0.01737683
#
# Stress axis : x y z
#
# Youngs Moduli (GPa) = 59.46084 59.46084 64.35675
#
# Poissons Ratio (x) = 0.42493 0.28163
# Poissons Ratio (y) = 0.42493 0.28163
# Poissons Ratio (z) = 0.26021 0.26021
#
# Static dielectric constant tensor:
#      x y z
#    x 1.984820 0.000000 0.000000 
#    y 0.000000 1.984820 0.000000 
#    z 0.000000 0.000000 2.013730 
# 
# From -- ./inp_files/4000.got.cif
#   From: 2010.05.17/outbox.cif.g08.bks.cpg/sg114_2_cif.got.tgz:4000.got - 2010.05.20 11:04:54.
