data_PCOD9555178
_publ_section_title
;
Structure prediction by ZEFSAII (Michael W. Deem and Ramdas Pophale) SiO2 
 PCOD9555178
Probable space group: P -4 2 C
;
_chemical_formula_sum "Si O2"
_cell_formula_units_Z 48
_cell_length_a 14.498020
_cell_length_b 14.498020
_cell_length_c 11.351876
_cell_angle_alpha 90.000000
_cell_angle_beta 90.000000
_cell_angle_gamma 90.000000
_cell_volume 2386.080149
_symmetry_space_group_name_H-M "P -4 2 C"
_symmetry_group_IT_number 112
_symmetry_cell_setting 'tetragonal'
loop_
_space_group_symop_operation_xyz
x,y,z
y,-x,-z
-x,-y,z
-y,x,-z
x,-y,1/2-z
-x,y,1/2-z
-y,-x,1/2+z
y,x,1/2+z
loop_
_atom_site_type_symbol
_atom_site_label
_atom_site_fract_x
_atom_site_fract_y
_atom_site_fract_z
Si Si1 0.413617 0.394768 0.963396
Si Si2 0.019599 0.762090 0.111233
Si Si3 0.224319 0.647097 0.421813
Si Si4 0.000000 0.741913 0.750000
Si Si5 0.500000 0.716686 0.750000
Si Si6 0.836881 0.145387 0.425780
Si Si7 0.952880 0.600126 0.952896
O O1 0.453906 0.344976 0.850645
O O2 0.392699 0.502432 0.943073
O O3 0.323677 0.350113 0.017612
O O4 0.946133 0.838630 0.064773
O O5 0.000000 0.759557 0.250000
O O6 0.000863 0.660849 0.056452
O O7 0.114474 0.795686 0.052082
O O8 0.226763 0.582720 0.307696
O O9 0.196023 0.751345 0.395190
O O10 0.153008 0.596024 0.508314
O O11 0.926991 0.802568 0.673982
O O12 0.955925 0.670369 0.843101
O O13 0.000000 0.500000 0.935200
#
# Coordination Sequence:
#
# PCOD9555178 Si02
#       7
#     8   8   8   4   4   8   8
#     4   9  20  37  58  88 130 166 215 275 325 402
#     4  10  24  41  66  93 128 173 213 279 340 395
#     4  10  23  38  66  94 130 173 221 276 330 412
#     4  10  23  42  67  90 134 176 216 287 337 400
#     4  10  22  39  61  98 126 178 215 280 340 393
#     4  10  24  43  63  99 127 172 223 277 342 408
#     4  10  23  42  63  95 130 170 222 268 334 407
#
# _framework density 20.116675000000001
#
# number of rings (size 3 to 8) (size 9 to 14) (size 15 to 20)
#    0.000    2.167    0.000    0.250    9.333   15.333 
#    0.000    0.000    3.667    0.000    0.000    0.000 
#    0.000    0.000    0.000    0.000    0.000    0.000 
#
# Total GULP energy -267609.293587 kJ/mol
# GULP energy per Si atom -5575.193616 kJ/mol
# Density = 2.007089 g / cm^3
# Si number density = 20.116675 Si / 1000 Ang^3
#
#
#
# Elastic Constant Matrix: (Units=GPa)
#
#
# Indices 1 2 3 4 5 6 
#
# 1 82.5407 23.9698 18.8663 0.0000 0.0000 0.0000
# 2 23.9698 82.5407 18.8663 0.0000 0.0000 0.0000
# 3 18.8663 18.8663 87.5273 0.0000 0.0000 0.0000
# 4 0.0000 0.0000 0.0000 24.6000 0.0000 0.0000
# 5 0.0000 0.0000 0.0000 0.0000 24.6000 0.0000
# 6 0.0000 0.0000 0.0000 0.0000 0.0000 24.3647
#
#
#
# Elastic Compliance Matrix: (Units=1/GPa)
#
#
# Indices 1 2 3 4 5 6 
#
# 1 0.013619 -0.003454 -0.002191 0.000000 0.000000 0.000000
# 2 -0.003454 0.013619 -0.002191 0.000000 0.000000 0.000000
# 3 -0.002191 -0.002191 0.012370 0.000000 0.000000 0.000000
# 4 0.000000 0.000000 0.000000 0.040650 0.000000 0.000000
# 5 0.000000 0.000000 0.000000 0.000000 0.040650 0.000000
# 6 0.000000 0.000000 0.000000 0.000000 0.000000 0.041043
#
#
# Mechanical properties :
#
#
# Convention : Reuss Voigt Hill
#
# Bulk Modulus (GPa) = 41.77928 41.77930 41.77929
# Shear Modulus (GPa) = 26.93926 27.44000 27.18963
#
# Velocity S-wave (km/s) = 3.66341 3.69730 3.68040
# Velocity P-wave (km/s) = 6.22155 6.24822 6.23490
#
# Compressibility (1/GPa) = 0.02393531
#
# Stress axis : x y z
#
# Youngs Moduli (GPa) = 73.42608 73.42608 80.84362
#
# Poissons Ratio (x) = 0.25363 0.17713
# Poissons Ratio (y) = 0.25363 0.17713
# Poissons Ratio (z) = 0.16088 0.16088
#
# Static dielectric constant tensor:
#      x y z
#    x 1.728560 0.000000 0.000000 
#    y 0.000000 1.728560 0.000000 
#    z 0.000000 0.000000 1.763340 
# 
# From -- ./inp_files/2614.got.cif
#   From: 2010.05.17/outbox.cif.g08.bks.cpg/sg112_2_cif.got.tgz:2614.got - 2010.05.20 10:59:04.
