data_PCOD9555102
_publ_section_title
;
Structure prediction by ZEFSAII (Michael W. Deem and Ramdas Pophale) SiO2 
 PCOD9555102
Probable space group: P -4 2 C
;
_chemical_formula_sum "Si O2"
_cell_formula_units_Z 32
_cell_length_a 11.702717
_cell_length_b 11.702717
_cell_length_c 9.995850
_cell_angle_alpha 90.000000
_cell_angle_beta 90.000000
_cell_angle_gamma 90.000000
_cell_volume 1368.967494
_symmetry_space_group_name_H-M "P -4 2 C"
_symmetry_group_IT_number 112
_symmetry_cell_setting 'tetragonal'
loop_
_space_group_symop_operation_xyz
x,y,z
y,-x,-z
-x,-y,z
-y,x,-z
x,-y,1/2-z
-x,y,1/2-z
-y,-x,1/2+z
y,x,1/2+z
loop_
_atom_site_type_symbol
_atom_site_label
_atom_site_fract_x
_atom_site_fract_y
_atom_site_fract_z
Si Si1 0.124322 0.629504 0.817143
Si Si2 0.135758 0.514614 0.441749
Si Si3 0.927171 0.827428 0.469344
Si Si4 0.203776 0.306413 0.261264
O O1 0.234400 0.680428 0.743084
O O2 0.000000 0.625797 0.750000
O O3 0.149235 0.514456 0.901813
O O4 0.103924 0.726629 0.930197
O O5 0.201685 0.415926 0.359757
O O6 0.172881 0.636075 0.381577
O O7 0.000000 0.500000 0.413107
O O8 0.887780 0.781689 0.324735
O O9 0.058775 0.859131 0.489923
#
# Coordination Sequence:
#
# PCOD9555102 Si02
#       4
#     8   8   8   8
#     4  11  23  39  63  99 139 187 242 310 362 431
#     4  10  24  40  64  92 132 200 246 288 362 440
#     4  10  21  34  55  98 144 192 225 273 363 449
#     4  10  21  40  64  91 141 185 241 290 355 444
#
# _framework density 23.37528
#
# number of rings (size 3 to 8) (size 9 to 14) (size 15 to 20)
#    0.000    1.750    2.500    1.500   10.500    0.500 
#    0.000    0.000    0.000    0.750    0.000    7.000 
#    0.000    0.000    0.000    0.000    0.000    0.000 
#
# Total GULP energy -178960.202222 kJ/mol
# GULP energy per Si atom -5592.506319 kJ/mol
# Density = 2.332208 g / cm^3
# Si number density = 23.375280 Si / 1000 Ang^3
#
#
#
# Elastic Constant Matrix: (Units=GPa)
#
#
# Indices 1 2 3 4 5 6 
#
# 1 157.6787 85.5207 57.7581 0.0000 0.0000 0.0000
# 2 85.5207 157.6787 57.7581 0.0000 0.0000 0.0000
# 3 57.7581 57.7581 77.6535 0.0000 0.0000 0.0000
# 4 0.0000 0.0000 0.0000 47.3370 0.0000 0.0000
# 5 0.0000 0.0000 0.0000 0.0000 47.3370 0.0000
# 6 0.0000 0.0000 0.0000 0.0000 0.0000 37.9224
#
#
#
# Elastic Compliance Matrix: (Units=1/GPa)
#
#
# Indices 1 2 3 4 5 6 
#
# 1 0.010108 -0.003750 -0.004729 0.000000 0.000000 0.000000
# 2 -0.003750 0.010108 -0.004729 0.000000 0.000000 0.000000
# 3 -0.004729 -0.004729 0.019913 0.000000 0.000000 0.000000
# 4 0.000000 0.000000 0.000000 0.021125 0.000000 0.000000
# 5 0.000000 0.000000 0.000000 0.000000 0.021125 0.000000
# 6 0.000000 0.000000 0.000000 0.000000 0.000000 0.026370
#
#
# Mechanical properties :
#
#
# Convention : Reuss Voigt Hill
#
# Bulk Modulus (GPa) = 72.92651 88.34277 80.63464
# Shear Modulus (GPa) = 35.78154 39.31753 37.54953
#
# Velocity S-wave (km/s) = 3.91672 4.10568 4.01231
# Velocity P-wave (km/s) = 7.19167 7.76858 7.48568
#
# Compressibility (1/GPa) = 0.01371243
#
# Stress axis : x y z
#
# Youngs Moduli (GPa) = 98.92863 98.92863 50.21927
#
# Poissons Ratio (x) = 0.37100 0.23749
# Poissons Ratio (y) = 0.37100 0.23749
# Poissons Ratio (z) = 0.46785 0.46785
#
# Static dielectric constant tensor:
#      x y z
#    x 1.861150 0.000000 0.000000 
#    y 0.000000 1.861150 0.000000 
#    z 0.000000 0.000000 2.003300 
# 
# From -- ./inp_files/2233.got.cif
#   From: 2010.05.17/outbox.cif.g08.bks.cpg/sg112_2_cif.got.tgz:2233.got - 2010.05.20 10:59:04.
