data_PCOD9555827
_publ_section_title
;
Structure prediction by ZEFSAII (Michael W. Deem and Ramdas Pophale) SiO2 
 PCOD9555827
Probable space group: P -4 21 C
;
_chemical_formula_sum "Si O2"
_cell_formula_units_Z 40
_cell_length_a 16.979281
_cell_length_b 16.979281
_cell_length_c 5.619703
_cell_angle_alpha 90.000000
_cell_angle_beta 90.000000
_cell_angle_gamma 90.000000
_cell_volume 1620.137802
_symmetry_space_group_name_H-M "P -4 21 C"
_symmetry_group_IT_number 114
_symmetry_cell_setting 'tetragonal'
loop_
_space_group_symop_operation_xyz
x,y,z
y,-x,-z
-x,-y,z
-y,x,-z
1/2+x,1/2-y,1/2-z
1/2-x,1/2+y,1/2-z
1/2-y,1/2-x,1/2+z
1/2+y,1/2+x,1/2+z
loop_
_atom_site_type_symbol
_atom_site_label
_atom_site_fract_x
_atom_site_fract_y
_atom_site_fract_z
Si Si1 0.403851 0.876798 0.545551
Si Si2 0.565624 0.703881 0.928980
Si Si3 0.979231 0.237160 0.065872
Si Si4 0.760783 0.202422 0.550585
Si Si5 0.610037 0.896073 0.382231
O O1 0.412414 0.923463 0.301205
O O2 0.447975 0.793908 0.503772
O O3 0.309928 0.860202 0.550986
O O4 0.517503 0.696417 0.175204
O O5 0.582525 0.798177 0.895616
O O6 0.533297 0.683136 0.666637
O O7 0.652129 0.667973 0.964983
O O8 0.908423 0.301935 0.101694
O O9 0.745689 0.251599 0.306912
O O10 0.575868 0.922786 0.132363
#
# Coordination Sequence:
#
# PCOD9555827 Si02
#       5
#     8   8   8   8   8
#     4  10  21  34  47  65  97 137 169 196 254 320
#     4  10  17  28  48  69  88 115 166 219 252 281
#     4  10  18  29  46  66  91 124 164 210 255 292
#     4  10  18  30  48  71  94 120 164 207 252 309
#     4   8  14  23  39  59  78 102 143 196 239 262
#
# _framework density 24.689257000000001
#
# number of rings (size 3 to 8) (size 9 to 14) (size 15 to 20)
#    0.000    2.400    0.000    6.000    0.000    0.000 
#    0.000    0.000    0.000   32.400    0.000    0.000 
#    0.000    0.000    0.000    0.000    0.000 1921.000 
#
# Total GULP energy -223111.947537 kJ/mol
# GULP energy per Si atom -5577.798688 kJ/mol
# Density = 2.463306 g / cm^3
# Si number density = 24.689257 Si / 1000 Ang^3
#
#
#
# Elastic Constant Matrix: (Units=GPa)
#
#
# Indices 1 2 3 4 5 6 
#
# 1 21.0282 21.8525 14.1442 0.0000 0.0000 0.0000
# 2 21.8525 21.0282 14.1442 0.0000 0.0000 0.0000
# 3 14.1442 14.1442 326.6951 0.0000 0.0000 0.0000
# 4 0.0000 0.0000 0.0000 20.4891 0.0000 0.0000
# 5 0.0000 0.0000 0.0000 0.0000 20.4891 0.0000
# 6 0.0000 0.0000 0.0000 0.0000 0.0000 17.0100
#
#
#
# Elastic Compliance Matrix: (Units=1/GPa)
#
#
# Indices 1 2 3 4 5 6 
#
# 1 -0.594578 0.618584 -0.001039 0.000000 0.000000 0.000000
# 2 0.618584 -0.594578 -0.001039 0.000000 0.000000 0.000000
# 3 -0.001039 -0.001039 0.003151 0.000000 0.000000 0.000000
# 4 0.000000 0.000000 0.000000 0.048806 0.000000 0.000000
# 5 0.000000 0.000000 0.000000 0.000000 0.048806 0.000000
# 6 0.000000 0.000000 0.000000 0.000000 0.000000 0.058789
#
#
# Mechanical properties :
#
#
# Convention : Reuss Voigt Hill
#
# Bulk Modulus (GPa) = 21.27392 52.11480 36.69436
# Shear Modulus (GPa) = -2.22524 32.83836 15.30656
#
# Velocity S-wave (km/s) = -0.95040 3.65096 2.49262
# Velocity P-wave (km/s) = 2.72599 6.23914 4.81445
#
# Compressibility (1/GPa) = 0.04700591
#
# Stress axis : x y z
#
# Youngs Moduli (GPa) = -1.68187 -1.68187 317.36416
#
# Poissons Ratio (x) = 1.04038 0.32985
# Poissons Ratio (y) = 1.04038 0.32985
# Poissons Ratio (z) = -0.00175 -0.00175
#
# Static dielectric constant tensor:
#      x y z
#    x 1.986980 0.000000 0.000000 
#    y 0.000000 1.986980 0.000000 
#    z 0.000000 0.000000 2.071040 
# 
# From -- ./inp_files/142.got.cif
#   From: 2010.05.17/outbox.cif.g08.bks.cpg/sg114_1_cif.got.tgz:142.got - 2010.05.20 11:04:54.
