data_PCOD9555106
_publ_section_title
;
Structure prediction by ZEFSAII (Michael W. Deem and Ramdas Pophale) SiO2 
 PCOD9555106
Probable space group: P -4 2 C
;
_chemical_formula_sum "Si O2"
_cell_formula_units_Z 40
_cell_length_a 8.030867
_cell_length_b 8.030867
_cell_length_c 30.274898
_cell_angle_alpha 90.000000
_cell_angle_beta 90.000000
_cell_angle_gamma 90.000000
_cell_volume 1952.574241
_symmetry_space_group_name_H-M "P -4 2 C"
_symmetry_group_IT_number 112
_symmetry_cell_setting 'tetragonal'
loop_
_space_group_symop_operation_xyz
x,y,z
y,-x,-z
-x,-y,z
-y,x,-z
x,-y,1/2-z
-x,y,1/2-z
-y,-x,1/2+z
y,x,1/2+z
loop_
_atom_site_type_symbol
_atom_site_label
_atom_site_fract_x
_atom_site_fract_y
_atom_site_fract_z
Si Si1 0.690720 0.303697 0.641321
Si Si2 0.194762 0.690383 0.046496
Si Si3 1.000000 0.704477 0.698768
Si Si4 0.309617 0.805238 0.953504
Si Si5 0.309280 0.303697 0.641321
O O1 0.752067 0.283065 0.590756
O O2 0.500000 0.234981 0.644474
O O3 0.677472 0.500000 0.650368
O O4 0.832456 0.236436 0.673898
O O5 0.251482 0.500000 0.039854
O O6 0.000000 0.691748 0.056724
O O7 0.221526 0.778474 1.000000
O O8 0.832455 0.763564 0.673898
O O9 0.000000 0.500000 0.696602
O O10 0.000000 0.751222 0.750000
O O11 0.247933 0.716935 0.909244
#
# Coordination Sequence:
#
# PCOD9555106 Si02
#       5
#     8   8   8   8   8
#     4   9  18  33  53  76 105 141 178 223 277 331
#     4  10  21  35  52  76 106 140 177 219 267 322
#     4   9  18  32  53  81 107 135 179 233 281 328
#     4  10  21  35  52  76 106 140 177 219 267 322
#     4   9  18  33  53  76 105 141 178 223 277 331
#
# _framework density 20.485776999999999
#
# number of rings (size 3 to 8) (size 9 to 14) (size 15 to 20)
#    0.000    2.600    0.000    1.200    2.800    3.200 
#    0.000    4.000    0.000    2.400    0.000    5.600 
#    0.000    0.000    0.000    0.000    0.000    0.000 
#
# Total GULP energy -222959.642805 kJ/mol
# GULP energy per Si atom -5573.991070 kJ/mol
# Density = 2.043915 g / cm^3
# Si number density = 20.485777 Si / 1000 Ang^3
#
#
#
# Elastic Constant Matrix: (Units=GPa)
#
#
# Indices 1 2 3 4 5 6 
#
# 1 44.9016 24.5086 47.0125 0.0000 0.0000 0.0000
# 2 24.5086 44.9016 47.0125 0.0000 0.0000 0.0000
# 3 47.0125 47.0125 135.5831 0.0000 0.0000 0.0000
# 4 0.0000 0.0000 0.0000 95.9421 0.0000 0.0000
# 5 0.0000 0.0000 0.0000 0.0000 95.9421 0.0000
# 6 0.0000 0.0000 0.0000 0.0000 0.0000 7.3776
#
#
#
# Elastic Compliance Matrix: (Units=1/GPa)
#
#
# Indices 1 2 3 4 5 6 
#
# 1 0.038102 -0.010934 -0.009420 0.000000 0.000000 0.000000
# 2 -0.010934 0.038102 -0.009420 0.000000 0.000000 0.000000
# 3 -0.009420 -0.009420 0.013908 0.000000 0.000000 0.000000
# 4 0.000000 0.000000 0.000000 0.010423 0.000000 0.000000
# 5 0.000000 0.000000 0.000000 0.000000 0.010423 0.000000
# 6 0.000000 0.000000 0.000000 0.000000 0.000000 0.135546
#
#
# Mechanical properties :
#
#
# Convention : Reuss Voigt Hill
#
# Bulk Modulus (GPa) = 32.71892 51.38370 42.05131
# Shear Modulus (GPa) = 15.81066 46.97589 31.39327
#
# Velocity S-wave (km/s) = 2.78112 4.79383 3.91889
# Velocity P-wave (km/s) = 5.13021 7.46847 6.40692
#
# Compressibility (1/GPa) = 0.03056336
#
# Stress axis : x y z
#
# Youngs Moduli (GPa) = 26.24514 26.24514 71.89870
#
# Poissons Ratio (x) = 0.28697 0.67731
# Poissons Ratio (y) = 0.28697 0.67731
# Poissons Ratio (z) = 0.24724 0.24724
#
# Static dielectric constant tensor:
#      x y z
#    x 1.751570 0.000000 0.000000 
#    y 0.000000 1.751570 0.000000 
#    z 0.000000 0.000000 1.708860 
# 
# From -- ./inp_files/5827.got.cif
#   From: 2010.05.17/outbox.cif.g08.bks.cpg/sg112_3_cif.got.tgz:5827.got - 2010.05.20 10:59:04.
