data_PCOD9555386
_publ_section_title
;
Structure prediction by ZEFSAII (Michael W. Deem and Ramdas Pophale) SiO2 
 PCOD9555386
Probable space group: P -4 2 C
;
_chemical_formula_sum "Si O2"
_cell_formula_units_Z 30
_cell_length_a 8.402685
_cell_length_b 8.402685
_cell_length_c 20.861886
_cell_angle_alpha 90.000000
_cell_angle_beta 90.000000
_cell_angle_gamma 90.000000
_cell_volume 1472.955865
_symmetry_space_group_name_H-M "P -4 2 C"
_symmetry_group_IT_number 112
_symmetry_cell_setting 'tetragonal'
loop_
_space_group_symop_operation_xyz
x,y,z
y,-x,-z
-x,-y,z
-y,x,-z
x,-y,1/2-z
-x,y,1/2-z
-y,-x,1/2+z
y,x,1/2+z
loop_
_atom_site_type_symbol
_atom_site_label
_atom_site_fract_x
_atom_site_fract_y
_atom_site_fract_z
Si Si1 0.000000 0.500000 0.612049
Si Si2 0.709500 0.238713 0.034506
Si Si3 0.834670 0.076762 0.320586
Si Si4 0.500000 0.500000 0.000000
Si Si5 0.685509 0.957769 0.593081
O O1 0.862317 0.430215 0.567300
O O2 0.951787 0.658357 0.651100
O O3 0.874934 0.233985 0.071975
O O4 0.644555 0.418382 0.036681
O O5 0.731460 0.167259 0.963359
O O6 0.880425 0.257572 0.339773
O O7 0.826497 0.000000 0.250000
O O8 0.000000 0.000000 0.347475
O O9 0.500000 0.000000 0.593728
#
# Coordination Sequence:
#
# PCOD9555386 Si02
#       5
#     4   8   8   2   8
#     4  12  23  44  70 104 136 187 236 298 366 428
#     4  12  23  38  67 107 147 185 223 299 377 446
#     4  11  25  46  69  97 132 190 249 286 337 426
#     4  12  20  36  56 100 162 172 224 272 368 466
#     4  12  24  41  66 105 145 182 229 294 369 439
#
# _framework density 20.367211000000001
#
# number of rings (size 3 to 8) (size 9 to 14) (size 15 to 20)
#    0.000    0.267    6.667    3.600    0.000    0.000 
#    0.000    2.667    0.000    0.000    0.000    0.000 
#    0.000    0.000    0.000    0.000    0.000    0.000 
#
# Total GULP energy -167007.156306 kJ/mol
# GULP energy per Si atom -5566.905210 kJ/mol
# Density = 2.032085 g / cm^3
# Si number density = 20.367211 Si / 1000 Ang^3
#
#
#
# Elastic Constant Matrix: (Units=GPa)
#
#
# Indices 1 2 3 4 5 6 
#
# 1 118.2981 44.0071 49.8653 0.0000 0.0000 0.0000
# 2 44.0071 118.2981 49.8653 0.0000 0.0000 0.0000
# 3 49.8653 49.8653 93.8891 0.0000 0.0000 0.0000
# 4 0.0000 0.0000 0.0000 24.5478 0.0000 0.0000
# 5 0.0000 0.0000 0.0000 0.0000 24.5478 0.0000
# 6 0.0000 0.0000 0.0000 0.0000 0.0000 35.3211
#
#
#
# Elastic Compliance Matrix: (Units=1/GPa)
#
#
# Indices 1 2 3 4 5 6 
#
# 1 0.011303 -0.002157 -0.004858 0.000000 0.000000 0.000000
# 2 -0.002157 0.011303 -0.004858 0.000000 0.000000 0.000000
# 3 -0.004858 -0.004858 0.015811 0.000000 0.000000 0.000000
# 4 0.000000 0.000000 0.000000 0.040737 0.000000 0.000000
# 5 0.000000 0.000000 0.000000 0.000000 0.040737 0.000000
# 6 0.000000 0.000000 0.000000 0.000000 0.000000 0.028312
#
#
# Mechanical properties :
#
#
# Convention : Reuss Voigt Hill
#
# Bulk Modulus (GPa) = 68.15457 68.66229 68.40843
# Shear Modulus (GPa) = 28.27444 29.33316 28.80380
#
# Velocity S-wave (km/s) = 3.72994 3.79913 3.76470
# Velocity P-wave (km/s) = 7.21703 7.28216 7.24967
#
# Compressibility (1/GPa) = 0.01467253
#
# Stress axis : x y z
#
# Youngs Moduli (GPa) = 88.46982 88.46982 63.24873
#
# Poissons Ratio (x) = 0.19085 0.30723
# Poissons Ratio (y) = 0.19085 0.30723
# Poissons Ratio (z) = 0.42974 0.42974
#
# Static dielectric constant tensor:
#      x y z
#    x 1.857380 0.000000 0.000000 
#    y 0.000000 1.857380 0.000000 
#    z 0.000000 0.000000 1.765250 
# 
# From -- ./inp_files/4420.got.cif
#   From: 2010.05.17/outbox.cif.g08.bks.cpg/sg112_3_cif.got.tgz:4420.got - 2010.05.20 10:59:04.
