data_PCOD9555927
_publ_section_title
;
Structure prediction by ZEFSAII (Michael W. Deem and Ramdas Pophale) SiO2 
 PCOD9555927
Probable space group: P -4 21 C
;
_chemical_formula_sum "Si O2"
_cell_formula_units_Z 40
_cell_length_a 16.022681
_cell_length_b 16.022681
_cell_length_c 8.285357
_cell_angle_alpha 90.000000
_cell_angle_beta 90.000000
_cell_angle_gamma 90.000000
_cell_volume 2127.069100
_symmetry_space_group_name_H-M "P -4 21 C"
_symmetry_group_IT_number 114
_symmetry_cell_setting 'tetragonal'
loop_
_space_group_symop_operation_xyz
x,y,z
y,-x,-z
-x,-y,z
-y,x,-z
1/2+x,1/2-y,1/2-z
1/2-x,1/2+y,1/2-z
1/2-y,1/2-x,1/2+z
1/2+y,1/2+x,1/2+z
loop_
_atom_site_type_symbol
_atom_site_label
_atom_site_fract_x
_atom_site_fract_y
_atom_site_fract_z
Si Si1 0.380285 0.857119 0.774370
Si Si2 0.142880 0.619715 0.774371
Si Si3 0.119190 0.500000 0.500001
Si Si4 0.231371 0.096290 0.453597
Si Si5 0.731371 0.596290 0.953597
O O1 0.441240 0.833853 0.627632
O O2 0.295681 0.892202 0.695285
O O3 0.422811 0.930318 0.884186
O O4 0.365590 0.780682 0.892863
O O5 0.166147 0.558760 0.627633
O O6 0.107797 0.704319 0.695286
O O7 0.219317 0.634410 0.892864
O O8 0.069682 0.577189 0.884187
O O9 0.147678 0.147678 0.423731
O O10 0.218315 0.000000 0.500000
#
# Coordination Sequence:
#
# PCOD9555927 Si02
#       5
#     8   8   8   8   8
#     4  10  21  37  56  86 118 155 191 244 292 356
#     4  10  21  37  56  86 118 155 191 244 292 356
#     4  10  20  33  54  84 123 148 188 234 293 352
#     4  11  22  40  61  87 116 155 201 243 294 346
#     4  11  22  40  61  87 116 155 201 243 294 346
#
# _framework density 18.805219000000001
#
# number of rings (size 3 to 8) (size 9 to 14) (size 15 to 20)
#    0.000    1.600    4.000    1.200    0.000    2.800 
#    0.000    0.000    0.000    0.000    0.000    2.800 
#    0.000    0.000    0.000    0.000    0.000    0.000 
#
# Total GULP energy -222817.802157 kJ/mol
# GULP energy per Si atom -5570.445054 kJ/mol
# Density = 1.876242 g / cm^3
# Si number density = 18.805219 Si / 1000 Ang^3
#
#
#
# Elastic Constant Matrix: (Units=GPa)
#
#
# Indices 1 2 3 4 5 6 
#
# 1 92.6705 66.4564 33.6729 0.0000 0.0000 0.0000
# 2 66.4564 92.6705 33.6729 0.0000 0.0000 0.0000
# 3 33.6729 33.6729 99.2189 0.0000 0.0000 0.0000
# 4 0.0000 0.0000 0.0000 19.9229 0.0000 0.0000
# 5 0.0000 0.0000 0.0000 0.0000 19.9229 0.0000
# 6 0.0000 0.0000 0.0000 0.0000 0.0000 23.1381
#
#
#
# Elastic Compliance Matrix: (Units=1/GPa)
#
#
# Indices 1 2 3 4 5 6 
#
# 1 0.022743 -0.015405 -0.002490 0.000000 0.000000 0.000000
# 2 -0.015405 0.022743 -0.002490 0.000000 0.000000 0.000000
# 3 -0.002490 -0.002490 0.011769 0.000000 0.000000 0.000000
# 4 0.000000 0.000000 0.000000 0.050194 0.000000 0.000000
# 5 0.000000 0.000000 0.000000 0.000000 0.050194 0.000000
# 6 0.000000 0.000000 0.000000 0.000000 0.000000 0.043219
#
#
# Mechanical properties :
#
#
# Convention : Reuss Voigt Hill
#
# Bulk Modulus (GPa) = 60.66534 61.35161 61.00848
# Shear Modulus (GPa) = 20.23257 22.64728 21.43993
#
# Velocity S-wave (km/s) = 3.28365 3.47408 3.38021
# Velocity P-wave (km/s) = 6.83421 6.98483 6.90993
#
# Compressibility (1/GPa) = 0.01648388
#
# Stress axis : x y z
#
# Youngs Moduli (GPa) = 43.96992 43.96992 84.96780
#
# Poissons Ratio (x) = 0.67733 0.21161
# Poissons Ratio (y) = 0.67733 0.21161
# Poissons Ratio (z) = 0.10951 0.10951
#
# Static dielectric constant tensor:
#      x y z
#    x 1.663420 0.000000 0.000000 
#    y 0.000000 1.663420 0.000000 
#    z 0.000000 0.000000 1.679650 
# 
# From -- ./inp_files/788.got.cif
#   From: 2010.05.17/outbox.cif.g08.bks.cpg/sg114_1_cif.got.tgz:788.got - 2010.05.20 11:04:54.
