data_PCOD9555909
_publ_section_title
;
Structure prediction by ZEFSAII (Michael W. Deem and Ramdas Pophale) SiO2 
 PCOD9555909
Probable space group: P -4 21 C
;
_chemical_formula_sum "Si O2"
_cell_formula_units_Z 38
_cell_length_a 11.027324
_cell_length_b 11.027324
_cell_length_c 15.871799
_cell_angle_alpha 90.000000
_cell_angle_beta 90.000000
_cell_angle_gamma 90.000000
_cell_volume 1930.040512
_symmetry_space_group_name_H-M "P -4 21 C"
_symmetry_group_IT_number 114
_symmetry_cell_setting 'tetragonal'
loop_
_space_group_symop_operation_xyz
x,y,z
y,-x,-z
-x,-y,z
-y,x,-z
1/2+x,1/2-y,1/2-z
1/2-x,1/2+y,1/2-z
1/2-y,1/2-x,1/2+z
1/2+y,1/2+x,1/2+z
loop_
_atom_site_type_symbol
_atom_site_label
_atom_site_fract_x
_atom_site_fract_y
_atom_site_fract_z
Si Si1 0.837012 0.789878 0.922699
Si Si2 0.500000 0.500000 0.000000
Si Si3 0.145513 0.029838 0.211396
Si Si4 0.265611 0.565340 0.103684
Si Si5 0.500000 0.000000 0.890955
Si Si6 0.744200 0.562558 0.604069
O O1 0.710875 0.729437 0.897814
O O2 0.940545 0.784332 0.852276
O O3 0.816531 0.935642 0.924107
O O4 0.871944 0.741257 0.014496
O O5 0.377085 0.508783 0.053583
O O6 0.214758 0.027998 0.299518
O O7 0.138824 0.159302 0.165179
O O8 0.000000 0.000000 0.223411
O O9 0.132021 0.529655 0.068146
O O10 0.629766 0.029633 0.850277
#
# Coordination Sequence:
#
# PCOD9555909 Si02
#       6
#     8   2   8   8   4   8
#     4  10  20  37  65  95 122 163 222 266 324 387
#     4  12  24  48  72  88 142 184 220 264 344 428
#     4  10  21  38  66  90 124 165 221 264 327 393
#     4  11  24  42  63  97 129 178 215 272 333 398
#     4  10  24  40  60  94 136 156 220 276 320 384
#     4  10  19  38  63  91 123 167 208 274 322 388
#
# _framework density 19.688706
#
# number of rings (size 3 to 8) (size 9 to 14) (size 15 to 20)
#    0.000    1.684    3.158    1.263    2.947    0.000 
#    0.000    1.053    0.000    0.000    0.000    0.000 
#    0.000    0.000    0.000    0.000    0.000    0.000 
#
# Total GULP energy -211545.616366 kJ/mol
# GULP energy per Si atom -5566.989904 kJ/mol
# Density = 1.964389 g / cm^3
# Si number density = 19.688706 Si / 1000 Ang^3
#
#
#
# Elastic Constant Matrix: (Units=GPa)
#
#
# Indices 1 2 3 4 5 6 
#
# 1 97.2599 19.2645 34.7808 0.0000 0.0000 0.0000
# 2 19.2645 97.2599 34.7808 0.0000 0.0000 0.0000
# 3 34.7808 34.7808 91.5755 0.0000 0.0000 0.0000
# 4 0.0000 0.0000 0.0000 -6.8498 0.0000 0.0000
# 5 0.0000 0.0000 0.0000 0.0000 -6.8498 0.0000
# 6 0.0000 0.0000 0.0000 0.0000 0.0000 29.7557
#
#
#
# Elastic Compliance Matrix: (Units=1/GPa)
#
#
# Indices 1 2 3 4 5 6 
#
# 1 0.011960 -0.000862 -0.004215 0.000000 0.000000 0.000000
# 2 -0.000862 0.011960 -0.004215 0.000000 0.000000 0.000000
# 3 -0.004215 -0.004215 0.014122 0.000000 0.000000 0.000000
# 4 0.000000 0.000000 0.000000 -0.145991 0.000000 0.000000
# 5 0.000000 0.000000 0.000000 0.000000 -0.145991 0.000000
# 6 0.000000 0.000000 0.000000 0.000000 0.000000 0.033607
#
#
# Mechanical properties :
#
#
# Convention : Reuss Voigt Hill
#
# Bulk Modulus (GPa) = 51.39369 51.52749 51.46059
# Shear Modulus (GPa) = -25.60644 16.36251 -4.62196
#
# Velocity S-wave (km/s) = -3.61025 2.88594 -1.53382
# Velocity P-wave (km/s) = 2.96332 6.11005 4.80177
#
# Compressibility (1/GPa) = 0.01945764
#
# Stress axis : x y z
#
# Youngs Moduli (GPa) = 83.61387 83.61387 70.81246
#
# Poissons Ratio (x) = 0.07204 0.29848
# Poissons Ratio (y) = 0.07204 0.29848
# Poissons Ratio (z) = 0.35244 0.35244
#
# Static dielectric constant tensor:
#      x y z
#    x 1.724350 0.000000 0.000000 
#    y 0.000000 1.724350 0.000000 
#    z 0.000000 0.000000 1.676860 
# 
# From -- ./inp_files/2161.got.cif
#   From: 2010.05.17/outbox.cif.g08.bks.cpg/sg114_2_cif.got.tgz:2161.got - 2010.05.20 11:04:54.
