data_PCOD9555969
_publ_section_title
;
Structure prediction by ZEFSAII (Michael W. Deem and Ramdas Pophale) SiO2 
 PCOD9555969
Probable space group: P -4 21 C
;
_chemical_formula_sum "Si O2"
_cell_formula_units_Z 50
_cell_length_a 13.544885
_cell_length_b 13.544885
_cell_length_c 13.578440
_cell_angle_alpha 90.000000
_cell_angle_beta 90.000000
_cell_angle_gamma 90.000000
_cell_volume 2491.153690
_symmetry_space_group_name_H-M "P -4 21 C"
_symmetry_group_IT_number 114
_symmetry_cell_setting 'tetragonal'
loop_
_space_group_symop_operation_xyz
x,y,z
y,-x,-z
-x,-y,z
-y,x,-z
1/2+x,1/2-y,1/2-z
1/2-x,1/2+y,1/2-z
1/2-y,1/2-x,1/2+z
1/2+y,1/2+x,1/2+z
loop_
_atom_site_type_symbol
_atom_site_label
_atom_site_fract_x
_atom_site_fract_y
_atom_site_fract_z
Si Si1 0.501401 0.788545 0.860768
Si Si2 0.189496 0.202989 0.725351
Si Si3 0.934747 0.328680 0.172483
Si Si4 0.603245 0.191035 0.173903
Si Si5 0.934919 0.197429 0.442460
Si Si6 0.601952 0.054055 0.002000
Si Si7 0.500000 0.500000 0.000000
O O1 0.426395 0.727680 0.792177
O O2 0.582526 0.857555 0.809846
O O3 0.562532 0.729384 0.944361
O O4 0.430671 0.860637 0.925290
O O5 0.225775 0.117565 0.799609
O O6 0.234442 0.304281 0.767402
O O7 0.228584 0.160233 0.620590
O O8 0.025978 0.347348 0.245485
O O9 0.976041 0.335582 0.061290
O O10 0.534724 0.262349 0.108228
O O11 0.642211 0.107453 0.098671
O O12 0.941155 0.079868 0.437915
O O13 0.500000 0.000000 0.031289
#
# Coordination Sequence:
#
# PCOD9555969 Si02
#       7
#     8   8   8   8   8   8   2
#     4  10  20  38  60  87 125 161 204 257 318 362
#     4  11  22  36  63  92 121 162 205 257 317 371
#     4  10  22  38  58  94 129 155 214 262 304 380
#     4  10  22  38  62  89 126 158 211 258 320 366
#     4  10  23  38  59  91 121 163 204 256 313 383
#     4   9  19  35  60  85 120 162 196 261 312 353
#     4  12  20  36  64  76 124 158 212 240 312 368
#
# _framework density 20.071021999999999
#
# number of rings (size 3 to 8) (size 9 to 14) (size 15 to 20)
#    0.000    1.920    3.200    0.000    4.480    0.000 
#    0.000    0.000    0.000    0.000    0.000    0.000 
#    0.000    0.000    0.000    0.000    0.000    0.000 
#
# Total GULP energy -278587.033463 kJ/mol
# GULP energy per Si atom -5571.740669 kJ/mol
# Density = 2.002534 g / cm^3
# Si number density = 20.071022 Si / 1000 Ang^3
#
#
#
# Elastic Constant Matrix: (Units=GPa)
#
#
# Indices 1 2 3 4 5 6 
#
# 1 72.6218 22.7989 37.5141 0.0000 0.0000 0.0000
# 2 22.7989 72.6218 37.5141 0.0000 0.0000 0.0000
# 3 37.5141 37.5141 63.0094 0.0000 0.0000 0.0000
# 4 0.0000 0.0000 0.0000 22.9514 0.0000 0.0000
# 5 0.0000 0.0000 0.0000 0.0000 22.9514 0.0000
# 6 0.0000 0.0000 0.0000 0.0000 0.0000 32.1566
#
#
#
# Elastic Compliance Matrix: (Units=1/GPa)
#
#
# Indices 1 2 3 4 5 6 
#
# 1 0.019888 -0.000183 -0.011731 0.000000 0.000000 0.000000
# 2 -0.000183 0.019888 -0.011731 0.000000 0.000000 0.000000
# 3 -0.011731 -0.011731 0.029840 0.000000 0.000000 0.000000
# 4 0.000000 0.000000 0.000000 0.043570 0.000000 0.000000
# 5 0.000000 0.000000 0.000000 0.000000 0.043570 0.000000
# 6 0.000000 0.000000 0.000000 0.000000 0.000000 0.031098
#
#
# Mechanical properties :
#
#
# Convention : Reuss Voigt Hill
#
# Bulk Modulus (GPa) = 44.79753 44.87859 44.83806
# Shear Modulus (GPa) = 20.61121 22.97359 21.79240
#
# Velocity S-wave (km/s) = 3.20803 3.38689 3.29867
# Velocity P-wave (km/s) = 6.00748 6.14028 6.07425
#
# Compressibility (1/GPa) = 0.02232266
#
# Stress axis : x y z
#
# Youngs Moduli (GPa) = 50.28262 50.28262 33.51244
#
# Poissons Ratio (x) = 0.00923 0.39314
# Poissons Ratio (y) = 0.00923 0.39314
# Poissons Ratio (z) = 0.58988 0.58988
#
# Static dielectric constant tensor:
#      x y z
#    x 1.751340 0.000000 0.000000 
#    y 0.000000 1.751340 0.000000 
#    z 0.000000 0.000000 1.738030 
# 
# From -- ./inp_files/1697.got.cif
#   From: 2010.05.17/outbox.cif.g08.bks.cpg/sg114_1_cif.got.tgz:1697.got - 2010.05.20 11:04:54.
