data_PCOD9555655
_publ_section_title
;
Structure prediction by ZEFSAII (Michael W. Deem and Ramdas Pophale) SiO2 
 PCOD9555655
Probable space group: P -4 21 M 
;
_chemical_formula_sum "Si O2"
_cell_formula_units_Z 48
_cell_length_a 12.166179
_cell_length_b 12.166179
_cell_length_c 18.264757
_cell_angle_alpha 90.000000
_cell_angle_beta 90.000000
_cell_angle_gamma 90.000000
_cell_volume 2703.474655
_symmetry_space_group_name_H-M "P -4 21 M "
_symmetry_group_IT_number 113
_symmetry_cell_setting 'tetragonal'
loop_
_space_group_symop_operation_xyz
x,y,z
y,-x,-z
-x,-y,z
-y,x,-z
1/2+x,1/2-y,-z
1/2-x,1/2+y,-z
1/2-y,1/2-x,z
1/2+y,1/2+x,z
loop_
_atom_site_type_symbol
_atom_site_label
_atom_site_fract_x
_atom_site_fract_y
_atom_site_fract_z
Si Si1 0.826537 0.965331 0.021414
Si Si2 0.909436 0.904366 0.171162
Si Si3 0.320702 0.006635 0.888306
Si Si4 0.508872 0.822131 0.609463
Si Si5 0.343884 0.342602 0.328256
Si Si6 0.827747 0.968071 0.477760
O O1 0.823883 0.926264 0.105017
O O2 0.719847 0.969965 0.971211
O O3 0.914644 0.883125 0.983421
O O4 0.855422 0.900934 0.250423
O O5 0.969117 0.787868 0.155050
O O6 0.000000 0.000000 0.166961
O O7 0.386596 0.113404 0.860333
O O8 0.406314 0.906314 0.886890
O O9 0.618853 0.881148 0.638096
O O10 0.457034 0.719456 0.652764
O O11 0.528535 0.780479 0.526866
O O12 0.414238 0.914238 0.609711
O O13 0.251998 0.248002 0.325103
O O14 0.425035 0.317446 0.395508
O O15 0.912981 0.884713 0.517376
#
# Coordination Sequence:
#
# PCOD9555655 Si02
#       6
#     8   8   8   8   8   8
#     4   9  16  35  54  81 102 140 181 219 260 314
#     4  11  21  36  56  78 114 148 183 217 268 330
#     4  10  21  36  58  86 111 139 179 231 281 321
#     4   9  18  33  53  76 105 139 174 219 272 322
#     4  10  21  33  52  80 107 140 176 220 268 320
#     4   9  18  32  53  78 100 136 180 226 267 307
#
# _framework density 17.754928
#
# number of rings (size 3 to 8) (size 9 to 14) (size 15 to 20)
#    0.000    2.333    3.333    1.000    4.667    4.667 
#    0.000    1.667    0.000    1.000    0.000    2.333 
#    0.000    0.000    0.000    0.000    0.000    0.000 
#
# Total GULP energy -267549.776479 kJ/mol
# GULP energy per Si atom -5573.953677 kJ/mol
# Density = 1.771452 g / cm^3
# Si number density = 17.754928 Si / 1000 Ang^3
#
#
#
# Elastic Constant Matrix: (Units=GPa)
#
#
# Indices 1 2 3 4 5 6 
#
# 1 42.1935 -0.7159 6.0786 0.0000 0.0000 0.0000
# 2 -0.7159 42.1931 6.0784 0.0000 0.0000 0.0000
# 3 6.0786 6.0784 106.8281 0.0000 0.0000 0.0000
# 4 0.0000 0.0000 0.0000 10.7084 0.0000 0.0000
# 5 0.0000 0.0000 0.0000 0.0000 10.7085 0.0000
# 6 0.0000 0.0000 0.0000 0.0000 0.0000 9.5304
#
#
#
# Elastic Compliance Matrix: (Units=1/GPa)
#
#
# Indices 1 2 3 4 5 6 
#
# 1 0.023912 0.000607 -0.001395 0.000000 0.000000 0.000000
# 2 0.000607 0.023912 -0.001395 0.000000 0.000000 0.000000
# 3 -0.001395 -0.001395 0.009520 0.000000 0.000000 0.000000
# 4 0.000000 0.000000 0.000000 0.093384 0.000000 0.000000
# 5 0.000000 0.000000 0.000000 0.000000 0.093384 0.000000
# 6 0.000000 0.000000 0.000000 0.000000 0.000000 0.104927
#
#
# Mechanical properties :
#
#
# Convention : Reuss Voigt Hill
#
# Bulk Modulus (GPa) = 18.87645 23.78855 21.33250
# Shear Modulus (GPa) = 13.47475 18.17436 15.82456
#
# Velocity S-wave (km/s) = 2.75786 3.20288 2.98866
# Velocity P-wave (km/s) = 4.56024 5.20628 4.89393
#
# Compressibility (1/GPa) = 0.05297607
#
# Stress axis : x y z
#
# Youngs Moduli (GPa) = 41.82066 41.82028 105.04644
#
# Poissons Ratio (x) = -0.02537 0.14655
# Poissons Ratio (y) = -0.02537 0.14655
# Poissons Ratio (z) = 0.05834 0.05834
#
# Static dielectric constant tensor:
#      x y z
#    x 1.615910 0.000000 0.000000 
#    y 0.000000 1.615910 0.000000 
#    z 0.000000 0.000000 1.612250 
# 
# From -- ./inp_files/2466.got.cif
#   From: 2010.05.17/outbox.cif.g08.bks.cpg/sg113_cif.got.tgz:2466.got - 2010.05.20 11:03:00.
