data_PCOD9555465
_publ_section_title
;
Structure prediction by ZEFSAII (Michael W. Deem and Ramdas Pophale) SiO2 
 PCOD9555465
Probable space group: P -4 21 M 
;
_chemical_formula_sum "Si O2"
_cell_formula_units_Z 60
_cell_length_a 14.336163
_cell_length_b 14.336163
_cell_length_c 16.596653
_cell_angle_alpha 90.000000
_cell_angle_beta 90.000000
_cell_angle_gamma 90.000000
_cell_volume 3411.036561
_symmetry_space_group_name_H-M "P -4 21 M "
_symmetry_group_IT_number 113
_symmetry_cell_setting 'tetragonal'
loop_
_space_group_symop_operation_xyz
x,y,z
y,-x,-z
-x,-y,z
-y,x,-z
1/2+x,1/2-y,-z
1/2-x,1/2+y,-z
1/2-y,1/2-x,z
1/2+y,1/2+x,z
loop_
_atom_site_type_symbol
_atom_site_label
_atom_site_fract_x
_atom_site_fract_y
_atom_site_fract_z
Si Si1 0.814012 0.075163 0.744702
Si Si2 0.648221 0.299743 0.570185
Si Si3 0.641868 0.434061 0.007576
Si Si4 0.000000 0.000000 0.331494
Si Si5 0.238677 0.414034 0.743123
Si Si6 0.757052 0.895160 0.156645
Si Si7 0.729010 0.384320 0.179784
Si Si8 0.516339 0.313489 0.420534
O O1 0.776108 0.109541 0.658877
O O2 0.831066 0.162485 0.802894
O O3 0.918216 0.038743 0.723815
O O4 0.760691 0.987126 0.781951
O O5 0.727712 0.227712 0.546594
O O6 0.566274 0.298154 0.504863
O O7 0.689715 0.404466 0.574285
O O8 0.711245 0.415677 0.934038
O O9 0.543941 0.382401 0.989540
O O10 0.684678 0.399168 0.091440
O O11 0.081948 0.963094 0.388475
O O12 0.144583 0.355418 0.757945
O O13 0.248191 0.508105 0.794868
O O14 0.323521 0.345177 0.768282
O O15 0.248177 0.443505 0.649877
O O16 0.661558 0.838443 0.159964
O O17 0.823087 0.323087 0.176207
#
# Coordination Sequence:
#
# PCOD9555465 Si02
#       8
#     8   8   8   4   8   8   8   8
#     4  11  20  36  59  89 114 154 201 249 290 359
#     4  11  23  38  59  88 121 155 199 248 299 354
#     4  11  22  36  63  92 121 152 195 254 310 358
#     4  10  18  33  58  87 116 142 190 249 304 342
#     4  11  23  38  60  89 121 157 199 246 302 366
#     4  12  23  39  61  85 118 162 203 246 299 358
#     4  11  22  39  61  90 122 156 192 248 311 362
#     4  11  21  36  58  89 120 155 194 248 305 356
#
# _framework density 17.589960999999999
#
# number of rings (size 3 to 8) (size 9 to 14) (size 15 to 20)
#    0.000    0.933    6.667    2.800    0.000    0.800 
#    0.000    0.000    0.000    3.600    0.000    0.000 
#    0.000    0.000    0.000    0.000    0.000    0.000 
#
# Total GULP energy -335135.385472 kJ/mol
# GULP energy per Si atom -5585.589758 kJ/mol
# Density = 1.754993 g / cm^3
# Si number density = 17.589961 Si / 1000 Ang^3
#
#
#
# Elastic Constant Matrix: (Units=GPa)
#
#
# Indices 1 2 3 4 5 6 
#
# 1 61.8183 57.3449 24.6298 0.0000 0.0000 0.0000
# 2 57.3449 61.8118 24.6303 0.0000 0.0000 0.0000
# 3 24.6298 24.6303 81.4830 0.0000 0.0000 0.0000
# 4 0.0000 0.0000 0.0000 14.3758 0.0000 0.0000
# 5 0.0000 0.0000 0.0000 0.0000 14.3769 0.0000
# 6 0.0000 0.0000 0.0000 0.0000 0.0000 25.7705
#
#
#
# Elastic Compliance Matrix: (Units=1/GPa)
#
#
# Indices 1 2 3 4 5 6 
#
# 1 0.116642 -0.107059 -0.002896 0.000000 0.000000 0.000000
# 2 -0.107059 0.116657 -0.002902 0.000000 0.000000 0.000000
# 3 -0.002896 -0.002902 0.014025 0.000000 0.000000 0.000000
# 4 0.000000 0.000000 0.000000 0.069561 0.000000 0.000000
# 5 0.000000 0.000000 0.000000 0.000000 0.069556 0.000000
# 6 0.000000 0.000000 0.000000 0.000000 0.000000 0.038804
#
#
# Mechanical properties :
#
#
# Convention : Reuss Voigt Hill
#
# Bulk Modulus (GPa) = 46.27434 46.48037 46.37735
# Shear Modulus (GPa) = 7.59691 17.47184 12.53438
#
# Velocity S-wave (km/s) = 2.08045 3.15506 2.67233
# Velocity P-wave (km/s) = 5.66881 6.30510 5.99540
#
# Compressibility (1/GPa) = 0.02161025
#
# Stress axis : x y z
#
# Youngs Moduli (GPa) = 8.57322 8.57217 71.30110
#
# Poissons Ratio (x) = 0.91773 0.20650
# Poissons Ratio (y) = 0.91784 0.20690
# Poissons Ratio (z) = 0.02483 0.02487
#
# Static dielectric constant tensor:
#      x y z
#    x 1.587180 0.000000 0.000000 
#    y 0.000000 1.587180 0.000000 
#    z 0.000000 0.000000 1.604290 
# 
# From -- ./inp_files/2355.got.cif
#   From: 2010.05.17/outbox.cif.g08.bks.cpg/sg113_cif.got.tgz:2355.got - 2010.05.20 11:03:00.
