data_PCOD9555746
_publ_section_title
;
Structure prediction by ZEFSAII (Michael W. Deem and Ramdas Pophale) SiO2 
 PCOD9555746
Probable space group: P -4 21 M 
;
_chemical_formula_sum "Si O2"
_cell_formula_units_Z 34
_cell_length_a 12.471633
_cell_length_b 12.471633
_cell_length_c 9.692665
_cell_angle_alpha 90.000000
_cell_angle_beta 90.000000
_cell_angle_gamma 90.000000
_cell_volume 1507.612910
_symmetry_space_group_name_H-M "P -4 21 M "
_symmetry_group_IT_number 113
_symmetry_cell_setting 'tetragonal'
loop_
_space_group_symop_operation_xyz
x,y,z
y,-x,-z
-x,-y,z
-y,x,-z
1/2+x,1/2-y,-z
1/2-x,1/2+y,-z
1/2-y,1/2-x,z
1/2+y,1/2+x,z
loop_
_atom_site_type_symbol
_atom_site_label
_atom_site_fract_x
_atom_site_fract_y
_atom_site_fract_z
Si Si1 0.006749 0.323139 0.749305
Si Si2 0.142749 0.815029 0.571860
Si Si3 0.822287 0.993204 0.986416
Si Si4 0.000000 0.500000 0.361886
Si Si5 0.743407 0.473567 0.322112
O O1 0.915608 0.415608 0.756414
O O2 0.962562 0.237651 0.640474
O O3 0.115161 0.384840 0.709730
O O4 0.014601 0.265004 0.896071
O O5 0.242025 0.742025 0.617910
O O6 0.126675 0.799999 0.409097
O O7 0.165461 0.931431 0.628113
O O8 0.768374 0.963296 0.841610
O O9 0.896984 0.098186 0.969612
O O10 0.866740 0.498084 0.359105
#
# Coordination Sequence:
#
# PCOD9555746 Si02
#       5
#     8   8   8   2   8
#     4  10  24  43  71 102 141 189 247 303 368 437
#     4  11  25  46  72 109 147 194 243 309 367 440
#     4  11  26  47  69 102 146 197 245 301 366 446
#     4  12  28  48  76 114 142 186 240 302 376 456
#     4  12  27  46  77 106 149 192 245 301 375 438
#
# _framework density 22.552209000000001
#
# number of rings (size 3 to 8) (size 9 to 14) (size 15 to 20)
#    0.000    0.941    4.706    0.000    8.235    1.412 
#    0.000    0.000    0.000    0.000    0.000    0.000 
#    0.000    0.000    0.000    0.000    0.000    0.000 
#
# Total GULP energy -189786.463459 kJ/mol
# GULP energy per Si atom -5581.954808 kJ/mol
# Density = 2.250088 g / cm^3
# Si number density = 22.552209 Si / 1000 Ang^3
#
#
#
# Elastic Constant Matrix: (Units=GPa)
#
#
# Indices 1 2 3 4 5 6 
#
# 1 100.4972 26.8769 15.8347 0.0000 0.0000 0.0000
# 2 26.8769 100.4989 15.8341 0.0000 0.0000 0.0000
# 3 15.8347 15.8341 81.7114 0.0000 0.0000 0.0000
# 4 0.0000 0.0000 0.0000 19.7292 0.0000 0.0000
# 5 0.0000 0.0000 0.0000 0.0000 19.7290 0.0000
# 6 0.0000 0.0000 0.0000 0.0000 0.0000 37.0640
#
#
#
# Elastic Compliance Matrix: (Units=1/GPa)
#
#
# Indices 1 2 3 4 5 6 
#
# 1 0.010916 -0.002667 -0.001598 0.000000 0.000000 0.000000
# 2 -0.002667 0.010916 -0.001598 0.000000 0.000000 0.000000
# 3 -0.001598 -0.001598 0.012858 0.000000 0.000000 0.000000
# 4 0.000000 0.000000 0.000000 0.050686 0.000000 0.000000
# 5 0.000000 0.000000 0.000000 0.000000 0.050687 0.000000
# 6 0.000000 0.000000 0.000000 0.000000 0.000000 0.026980
#
#
# Mechanical properties :
#
#
# Convention : Reuss Voigt Hill
#
# Bulk Modulus (GPa) = 43.55282 44.42211 43.98746
# Shear Modulus (GPa) = 27.40864 30.24856 28.82860
#
# Velocity S-wave (km/s) = 3.48996 3.66631 3.57922
# Velocity P-wave (km/s) = 5.96604 6.13699 6.05212
#
# Compressibility (1/GPa) = 0.02296063
#
# Stress axis : x y z
#
# Youngs Moduli (GPa) = 91.61073 91.61250 77.77456
#
# Poissons Ratio (x) = 0.24437 0.12432
# Poissons Ratio (y) = 0.24436 0.12431
# Poissons Ratio (z) = 0.14643 0.14643
#
# Static dielectric constant tensor:
#      x y z
#    x 1.813820 0.000000 0.000000 
#    y 0.000000 1.813820 0.000000 
#    z 0.000000 0.000000 1.833870 
# 
# From -- ./inp_files/1636.got.cif
#   From: 2010.05.17/outbox.cif.g08.bks.cpg/sg113_cif.got.tgz:1636.got - 2010.05.20 11:03:00.
