data_PCOD9555658
_publ_section_title
;
Structure prediction by ZEFSAII (Michael W. Deem and Ramdas Pophale) SiO2 
 PCOD9555658
Probable space group: P -4 21 M 
;
_chemical_formula_sum "Si O2"
_cell_formula_units_Z 32
_cell_length_a 13.931152
_cell_length_b 13.931152
_cell_length_c 7.214018
_cell_angle_alpha 90.000000
_cell_angle_beta 90.000000
_cell_angle_gamma 90.000000
_cell_volume 1400.074943
_symmetry_space_group_name_H-M "P -4 21 M "
_symmetry_group_IT_number 113
_symmetry_cell_setting 'tetragonal'
loop_
_space_group_symop_operation_xyz
x,y,z
y,-x,-z
-x,-y,z
-y,x,-z
1/2+x,1/2-y,-z
1/2-x,1/2+y,-z
1/2-y,1/2-x,z
1/2+y,1/2+x,z
loop_
_atom_site_type_symbol
_atom_site_label
_atom_site_fract_x
_atom_site_fract_y
_atom_site_fract_z
Si Si1 0.207724 0.864750 0.576325
Si Si2 0.857305 0.042583 0.957594
Si Si3 0.007715 0.654602 0.020203
Si Si4 0.789167 0.439575 0.443378
O O1 0.294539 0.794539 0.631386
O O2 0.133347 0.799884 0.462484
O O3 0.156739 0.902586 0.763449
O O4 0.254553 0.957986 0.480268
O O5 0.755353 0.028723 0.055960
O O6 0.900488 0.936692 0.927018
O O7 0.101786 0.601786 0.940490
O O8 0.035395 0.682765 0.231531
O O9 0.922914 0.577087 0.019797
O O10 0.882043 0.382043 0.519684
#
# Coordination Sequence:
#
# PCOD9555658 Si02
#       4
#     8   8   8   8
#     4  10  21  36  56  83 111 140 178 223 270 323
#     4  10  21  34  50  75 108 147 186 222 258 303
#     4   9  18  35  60  85 107 137 178 222 271 326
#     4   9  18  33  56  83 108 136 170 217 277 330
#
# _framework density 22.855920000000001
#
# number of rings (size 3 to 8) (size 9 to 14) (size 15 to 20)
#    0.000    2.500    0.000    3.000    0.000   12.000 
#    0.000    0.000    0.000    6.000    0.000    3.500 
#    0.000    0.000    0.000    0.000    0.000    0.000 
#
# Total GULP energy -178559.862717 kJ/mol
# GULP energy per Si atom -5579.995710 kJ/mol
# Density = 2.280390 g / cm^3
# Si number density = 22.855920 Si / 1000 Ang^3
#
#
#
# Elastic Constant Matrix: (Units=GPa)
#
#
# Indices 1 2 3 4 5 6 
#
# 1 159.8285 57.6327 24.1588 0.0000 0.0000 0.0000
# 2 57.6327 159.8307 24.1590 0.0000 0.0000 0.0000
# 3 24.1588 24.1590 80.2844 0.0000 0.0000 0.0000
# 4 0.0000 0.0000 0.0000 -99.8236 0.0000 0.0000
# 5 0.0000 0.0000 0.0000 0.0000 -100.9973 0.0000
# 6 0.0000 0.0000 0.0000 0.0000 0.0000 54.2377
#
#
#
# Elastic Compliance Matrix: (Units=1/GPa)
#
#
# Indices 1 2 3 4 5 6 
#
# 1 0.007357 -0.002429 -0.001483 0.000000 0.000000 0.000000
# 2 -0.002429 0.007356 -0.001483 0.000000 0.000000 0.000000
# 3 -0.001483 -0.001483 0.013348 0.000000 0.000000 0.000000
# 4 0.000000 0.000000 0.000000 -0.010018 0.000000 0.000000
# 5 0.000000 0.000000 0.000000 0.000000 -0.009901 0.000000
# 6 0.000000 0.000000 0.000000 0.000000 0.000000 0.018437
#
#
# Mechanical properties :
#
#
# Convention : Reuss Voigt Hill
#
# Bulk Modulus (GPa) = 57.89546 67.98271 62.93909
# Shear Modulus (GPa) = 115.93987 -9.71708 53.11139
#
# Velocity S-wave (km/s) = 7.12997 -2.06414 4.82576
# Velocity P-wave (km/s) = 9.65234 4.91199 7.65818
#
# Compressibility (1/GPa) = 0.01727251
#
# Stress axis : x y z
#
# Youngs Moduli (GPa) = 135.93311 135.93500 74.91661
#
# Poissons Ratio (x) = 0.33012 0.11109
# Poissons Ratio (y) = 0.33012 0.11109
# Poissons Ratio (z) = 0.20158 0.20158
#
# Static dielectric constant tensor:
#      x y z
#    x 1.871460 0.000000 0.000000 
#    y 0.000000 1.871470 0.000000 
#    z 0.000000 0.000000 1.874480 
# 
# From -- ./inp_files/838.got.cif
#   From: 2010.05.17/outbox.cif.g08.bks.cpg/sg113_cif.got.tgz:838.got - 2010.05.20 11:03:00.
