data_PCOD9555251
_publ_section_title
;
Structure prediction by ZEFSAII (Michael W. Deem and Ramdas Pophale) SiO2 
 PCOD9555251
Probable space group: P -4 2 C
;
_chemical_formula_sum "Si O2"
_cell_formula_units_Z 14
_cell_length_a 8.318835
_cell_length_b 8.318835
_cell_length_c 8.573794
_cell_angle_alpha 90.000000
_cell_angle_beta 90.000000
_cell_angle_gamma 90.000000
_cell_volume 593.332401
_symmetry_space_group_name_H-M "P -4 2 C"
_symmetry_group_IT_number 112
_symmetry_cell_setting 'tetragonal'
loop_
_space_group_symop_operation_xyz
x,y,z
y,-x,-z
-x,-y,z
-y,x,-z
x,-y,1/2-z
-x,y,1/2-z
-y,-x,1/2+z
y,x,1/2+z
loop_
_atom_site_type_symbol
_atom_site_label
_atom_site_fract_x
_atom_site_fract_y
_atom_site_fract_z
Si Si1 0.416067 0.705161 0.590977
Si Si2 0.000000 0.000000 0.500000
Si Si3 0.758541 0.000000 0.750000
O O1 0.566410 0.705045 0.469693
O O2 0.500000 0.655624 0.750000
O O3 0.337539 0.872194 0.645911
O O4 0.080362 0.873520 0.380976
#
# Coordination Sequence:
#
# PCOD9555251 Si02
#       3
#     8   2   4
#     4  11  23  41  69 103 139 183 238 296 355 424
#     4  10  24  42  68 102 140 190 248 290 352 442
#     4  11  23  44  68 100 147 189 234 300 361 417
#
# _framework density 23.595542999999999
#
# number of rings (size 3 to 8) (size 9 to 14) (size 15 to 20)
#    0.000    1.143    0.000    7.714    0.000    0.000 
#    0.000    0.000    0.000    6.857    0.000    0.000 
#    0.000    0.000    0.000    0.000    0.000    0.000 
#
# Total GULP energy -77943.602230 kJ/mol
# GULP energy per Si atom -5567.400159 kJ/mol
# Density = 2.354184 g / cm^3
# Si number density = 23.595543 Si / 1000 Ang^3
#
#
#
# Elastic Constant Matrix: (Units=GPa)
#
#
# Indices 1 2 3 4 5 6 
#
# 1 113.5039 70.2574 63.6981 0.0000 0.0000 0.0000
# 2 70.2574 113.5039 63.6981 0.0000 0.0000 0.0000
# 3 63.6981 63.6981 174.3404 0.0000 0.0000 0.0000
# 4 0.0000 0.0000 0.0000 52.7586 0.0000 0.0000
# 5 0.0000 0.0000 0.0000 0.0000 52.7586 0.0000
# 6 0.0000 0.0000 0.0000 0.0000 0.0000 40.9168
#
#
#
# Elastic Compliance Matrix: (Units=1/GPa)
#
#
# Indices 1 2 3 4 5 6 
#
# 1 0.015206 -0.007918 -0.002663 0.000000 0.000000 0.000000
# 2 -0.007918 0.015206 -0.002663 0.000000 0.000000 0.000000
# 3 -0.002663 -0.002663 0.007682 0.000000 0.000000 0.000000
# 4 0.000000 0.000000 0.000000 0.018954 0.000000 0.000000
# 5 0.000000 0.000000 0.000000 0.000000 0.018954 0.000000
# 6 0.000000 0.000000 0.000000 0.000000 0.000000 0.024440
#
#
# Mechanical properties :
#
#
# Convention : Reuss Voigt Hill
#
# Bulk Modulus (GPa) = 86.15936 88.51728 87.33832
# Shear Modulus (GPa) = 38.22739 42.86643 40.54691
#
# Velocity S-wave (km/s) = 4.02943 4.26692 4.14987
# Velocity P-wave (km/s) = 7.63169 7.86583 7.74965
#
# Compressibility (1/GPa) = 0.01160640
#
# Stress axis : x y z
#
# Youngs Moduli (GPa) = 65.76543 65.76543 130.18040
#
# Poissons Ratio (x) = 0.52071 0.34664
# Poissons Ratio (y) = 0.52071 0.34664
# Poissons Ratio (z) = 0.17512 0.17512
#
# Static dielectric constant tensor:
#      x y z
#    x 2.069900 0.000000 0.000000 
#    y 0.000000 2.069900 0.000000 
#    z 0.000000 0.000000 1.967230 
# 
# From -- ./inp_files/527.got.cif
#   From: 2010.05.17/outbox.cif.g08.bks.cpg/sg112_1_cif.got.tgz:527.got - 2010.05.20 10:59:04.
