data_PCOD9555368
_publ_section_title
;
Structure prediction by ZEFSAII (Michael W. Deem and Ramdas Pophale) SiO2 
 PCOD9555368
Probable space group: P -4 2 C
;
_chemical_formula_sum "Si O2"
_cell_formula_units_Z 34
_cell_length_a 11.018560
_cell_length_b 11.018560
_cell_length_c 13.716137
_cell_angle_alpha 90.000000
_cell_angle_beta 90.000000
_cell_angle_gamma 90.000000
_cell_volume 1665.257875
_symmetry_space_group_name_H-M "P -4 2 C"
_symmetry_group_IT_number 112
_symmetry_cell_setting 'tetragonal'
loop_
_space_group_symop_operation_xyz
x,y,z
y,-x,-z
-x,-y,z
-y,x,-z
x,-y,1/2-z
-x,y,1/2-z
-y,-x,1/2+z
y,x,1/2+z
loop_
_atom_site_type_symbol
_atom_site_label
_atom_site_fract_x
_atom_site_fract_y
_atom_site_fract_z
Si Si1 0.704772 0.863044 0.463741
Si Si2 0.000000 0.000000 0.250000
Si Si3 0.500000 0.803712 0.750000
Si Si4 0.107871 0.206763 0.628563
Si Si5 0.266391 0.641402 0.732316
Si Si6 0.500000 0.000000 0.911677
O O1 0.797101 0.804585 0.540741
O O2 0.662681 0.768822 0.380896
O O3 0.597750 0.931960 0.521495
O O4 0.769831 0.973667 0.409678
O O5 0.081982 0.909250 0.313459
O O6 0.383203 0.719026 0.766007
O O7 0.460607 0.892296 0.661577
O O8 0.155434 0.309643 0.701801
O O9 0.286874 0.500000 0.750000
#
# Coordination Sequence:
#
# PCOD9555368 Si02
#       6
#     8   2   4   8   8   4
#     4  12  24  44  72 104 144 184 240 292 369 436
#     4  12  24  42  66 102 146 184 220 300 370 432
#     4  11  25  48  70 104 141 195 236 312 352 441
#     4  12  25  43  68 108 140 185 232 298 364 441
#     4  12  26  47  71 101 146 189 246 296 368 427
#     4  11  24  42  77 102 142 188 247 292 369 436
#
# _framework density 20.417258
#
# number of rings (size 3 to 8) (size 9 to 14) (size 15 to 20)
#    0.000    0.235    4.706    4.588    3.294    0.941 
#    0.000    0.000    5.176    0.000    0.000    0.000 
#    0.000    0.000    0.000    0.000    0.000    0.000 
#
# Total GULP energy -190054.202582 kJ/mol
# GULP energy per Si atom -5589.829488 kJ/mol
# Density = 2.037079 g / cm^3
# Si number density = 20.417258 Si / 1000 Ang^3
#
#
#
# Elastic Constant Matrix: (Units=GPa)
#
#
# Indices 1 2 3 4 5 6 
#
# 1 76.9565 8.5329 22.9438 0.0000 0.0000 0.0000
# 2 8.5329 76.9565 22.9438 0.0000 0.0000 0.0000
# 3 22.9438 22.9438 96.0947 0.0000 0.0000 0.0000
# 4 0.0000 0.0000 0.0000 6.2317 0.0000 0.0000
# 5 0.0000 0.0000 0.0000 0.0000 6.2317 0.0000
# 6 0.0000 0.0000 0.0000 0.0000 0.0000 -46.6422
#
#
#
# Elastic Compliance Matrix: (Units=1/GPa)
#
#
# Indices 1 2 3 4 5 6 
#
# 1 0.014016 -0.000599 -0.003203 0.000000 0.000000 0.000000
# 2 -0.000599 0.014016 -0.003203 0.000000 0.000000 0.000000
# 3 -0.003203 -0.003203 0.011936 0.000000 0.000000 0.000000
# 4 0.000000 0.000000 0.000000 0.160470 0.000000 0.000000
# 5 0.000000 0.000000 0.000000 0.000000 0.160470 0.000000
# 6 0.000000 0.000000 0.000000 0.000000 0.000000 -0.021440
#
#
# Mechanical properties :
#
#
# Convention : Reuss Voigt Hill
#
# Bulk Modulus (GPa) = 38.52662 39.87206 39.19934
# Shear Modulus (GPa) = 13.80715 6.20340 10.00527
#
# Velocity S-wave (km/s) = 2.60330 1.74497 2.21609
# Velocity P-wave (km/s) = 5.28648 4.86116 5.07827
#
# Compressibility (1/GPa) = 0.02595608
#
# Stress axis : x y z
#
# Youngs Moduli (GPa) = 71.34782 71.34782 83.77936
#
# Poissons Ratio (x) = 0.04274 0.26838
# Poissons Ratio (y) = 0.04274 0.26838
# Poissons Ratio (z) = 0.22856 0.22856
#
# Static dielectric constant tensor:
#      x y z
#    x 1.818000 0.000000 0.000000 
#    y 0.000000 1.818000 0.000000 
#    z 0.000000 0.000000 2.028450 
# 
# From -- ./inp_files/2373.got.cif
#   From: 2010.05.17/outbox.cif.g08.bks.cpg/sg112_2_cif.got.tgz:2373.got - 2010.05.20 10:59:04.
