data_PCOD9555869
_publ_section_title
;
Structure prediction by ZEFSAII (Michael W. Deem and Ramdas Pophale) SiO2 
 PCOD9555869
Probable space group: P -4 21 C
;
_chemical_formula_sum "Si O2"
_cell_formula_units_Z 26
_cell_length_a 14.389051
_cell_length_b 14.389051
_cell_length_c 5.317905
_cell_angle_alpha 90.000000
_cell_angle_beta 90.000000
_cell_angle_gamma 90.000000
_cell_volume 1101.044517
_symmetry_space_group_name_H-M "P -4 21 C"
_symmetry_group_IT_number 114
_symmetry_cell_setting 'tetragonal'
loop_
_space_group_symop_operation_xyz
x,y,z
y,-x,-z
-x,-y,z
-y,x,-z
1/2+x,1/2-y,1/2-z
1/2-x,1/2+y,1/2-z
1/2-y,1/2-x,1/2+z
1/2+y,1/2+x,1/2+z
loop_
_atom_site_type_symbol
_atom_site_label
_atom_site_fract_x
_atom_site_fract_y
_atom_site_fract_z
Si Si1 0.564027 0.725465 0.252865
Si Si2 0.632897 0.383752 0.241070
Si Si3 0.599873 0.046169 0.850745
Si Si4 0.000000 0.000000 0.500000
O O1 0.458801 0.680528 0.245934
O O2 0.614250 0.687445 0.500734
O O3 0.537304 0.832143 0.280057
O O4 0.621754 0.698409 0.004184
O O5 0.585574 0.484961 0.186048
O O6 0.593825 0.118714 0.620124
O O7 0.500000 0.000000 0.892549
#
# Coordination Sequence:
#
# PCOD9555869 Si02
#       4
#     8   8   8   2
#     4  11  20  35  59  88 128 153 201 234 304 354
#     4  10  19  30  55  90 125 160 183 242 290 370
#     4  10  22  41  66  80 104 162 216 252 281 350
#     4   8  16  30  48  86 128 166 192 198 304 382
#
# _framework density 23.613944
#
# number of rings (size 3 to 8) (size 9 to 14) (size 15 to 20)
#    0.000    1.846    0.000    7.385    0.000    1.231 
#    0.000    0.000   40.615    0.000    0.000    0.000 
#    0.000    0.000    0.000    0.000    0.000    0.000 
#
# Total GULP energy -145018.982170 kJ/mol
# GULP energy per Si atom -5577.653160 kJ/mol
# Density = 2.356020 g / cm^3
# Si number density = 23.613944 Si / 1000 Ang^3
#
#
#
# Elastic Constant Matrix: (Units=GPa)
#
#
# Indices 1 2 3 4 5 6 
#
# 1 62.9968 -10.0764 1.2060 0.0000 0.0000 0.0000
# 2 -10.0764 62.9968 1.2060 0.0000 0.0000 0.0000
# 3 1.2060 1.2060 146.6254 0.0000 0.0000 0.0000
# 4 0.0000 0.0000 0.0000 10.4025 0.0000 0.0000
# 5 0.0000 0.0000 0.0000 0.0000 10.4025 0.0000
# 6 0.0000 0.0000 0.0000 0.0000 0.0000 17.9188
#
#
#
# Elastic Compliance Matrix: (Units=1/GPa)
#
#
# Indices 1 2 3 4 5 6 
#
# 1 0.016294 0.002609 -0.000155 0.000000 0.000000 0.000000
# 2 0.002609 0.016294 -0.000155 0.000000 0.000000 0.000000
# 3 -0.000155 -0.000155 0.006823 0.000000 0.000000 0.000000
# 4 0.000000 0.000000 0.000000 0.096130 0.000000 0.000000
# 5 0.000000 0.000000 0.000000 0.000000 0.096130 0.000000
# 6 0.000000 0.000000 0.000000 0.000000 0.000000 0.055807
#
#
# Mechanical properties :
#
#
# Convention : Reuss Voigt Hill
#
# Bulk Modulus (GPa) = 22.72341 28.58781 25.65561
# Shear Modulus (GPa) = 16.80381 26.43034 21.61707
#
# Velocity S-wave (km/s) = 2.67049 3.34918 3.02890
# Velocity P-wave (km/s) = 4.37635 5.20467 4.80838
#
# Compressibility (1/GPa) = 0.04400748
#
# Stress axis : x y z
#
# Youngs Moduli (GPa) = 61.37175 61.37175 146.57046
#
# Poissons Ratio (x) = -0.16013 0.02279
# Poissons Ratio (y) = -0.16013 0.02279
# Poissons Ratio (z) = 0.00954 0.00954
#
# Static dielectric constant tensor:
#      x y z
#    x 1.972490 0.000000 0.000000 
#    y 0.000000 1.972490 0.000000 
#    z 0.000000 0.000000 2.074790 
# 
# From -- ./inp_files/80.got.cif
#   From: 2010.05.17/outbox.cif.g08.bks.cpg/sg114_1_cif.got.tgz:80.got - 2010.05.20 11:04:54.
