data_PCOD9555209
_publ_section_title
;
Structure prediction by ZEFSAII (Michael W. Deem and Ramdas Pophale) SiO2 
 PCOD9555209
Probable space group: P -4 2 C
;
_chemical_formula_sum "Si O2"
_cell_formula_units_Z 48
_cell_length_a 14.354874
_cell_length_b 14.354874
_cell_length_c 12.405931
_cell_angle_alpha 90.000000
_cell_angle_beta 90.000000
_cell_angle_gamma 90.000000
_cell_volume 2556.396010
_symmetry_space_group_name_H-M "P -4 2 C"
_symmetry_group_IT_number 112
_symmetry_cell_setting 'tetragonal'
loop_
_space_group_symop_operation_xyz
x,y,z
y,-x,-z
-x,-y,z
-y,x,-z
x,-y,1/2-z
-x,y,1/2-z
-y,-x,1/2+z
y,x,1/2+z
loop_
_atom_site_type_symbol
_atom_site_label
_atom_site_fract_x
_atom_site_fract_y
_atom_site_fract_z
Si Si1 0.600456 0.046958 0.981223
Si Si2 0.889110 0.108328 0.240534
Si Si3 0.815828 0.399740 0.284085
Si Si4 0.780432 0.742307 0.635614
Si Si5 0.122967 0.274829 0.417303
Si Si6 0.893221 0.605102 0.785879
O O1 0.587255 0.101748 0.870291
O O2 0.500000 0.000000 0.005998
O O3 0.685035 0.974217 0.964694
O O4 0.619524 0.110149 0.085838
O O5 0.840689 0.169378 0.334421
O O6 0.873303 0.170467 0.132496
O O7 0.000000 0.106622 0.250000
O O8 0.856614 0.000000 0.250000
O O9 0.779089 0.500000 0.250000
O O10 0.746588 0.328449 0.341574
O O11 0.852914 0.344660 0.179880
O O12 0.805080 0.717403 0.514525
O O13 0.827975 0.673176 0.719985
O O14 0.871768 0.500000 0.750000
O O15 0.000000 0.622695 0.750000
#
# Coordination Sequence:
#
# PCOD9555209 Si02
#       6
#     8   8   8   8   8   8
#     4  12  21  37  67  95 131 168 213 279 338 378
#     4  10  23  40  55  81 125 173 220 258 307 380
#     4  11  25  39  61  93 131 171 213 266 332 392
#     4  11  24  41  64  90 129 169 213 275 320 397
#     4  11  22  38  60  91 123 165 220 269 331 378
#     4  11  21  39  62 103 132 165 215 274 333 386
#
# _framework density 18.776433000000001
#
# number of rings (size 3 to 8) (size 9 to 14) (size 15 to 20)
#    0.000    1.000    5.000    3.000    4.667    1.333 
#    0.000    1.667    0.000    0.500    0.000    0.000 
#    0.000    0.000    0.000    0.000    0.000    0.000 
#
# Total GULP energy -268031.451097 kJ/mol
# GULP energy per Si atom -5583.988565 kJ/mol
# Density = 1.873370 g / cm^3
# Si number density = 18.776433 Si / 1000 Ang^3
#
#
#
# Elastic Constant Matrix: (Units=GPa)
#
#
# Indices 1 2 3 4 5 6 
#
# 1 92.0891 23.8961 29.3888 0.0000 0.0000 0.0000
# 2 23.8961 92.0891 29.3888 0.0000 0.0000 0.0000
# 3 29.3888 29.3888 143.3023 0.0000 0.0000 0.0000
# 4 0.0000 0.0000 0.0000 26.1274 0.0000 0.0000
# 5 0.0000 0.0000 0.0000 0.0000 26.1274 0.0000
# 6 0.0000 0.0000 0.0000 0.0000 0.0000 4.7153
#
#
#
# Elastic Compliance Matrix: (Units=1/GPa)
#
#
# Indices 1 2 3 4 5 6 
#
# 1 0.012143 -0.002521 -0.001973 0.000000 0.000000 0.000000
# 2 -0.002521 0.012143 -0.001973 0.000000 0.000000 0.000000
# 3 -0.001973 -0.001973 0.007788 0.000000 0.000000 0.000000
# 4 0.000000 0.000000 0.000000 0.038274 0.000000 0.000000
# 5 0.000000 0.000000 0.000000 0.000000 0.038274 0.000000
# 6 0.000000 0.000000 0.000000 0.000000 0.000000 0.212075
#
#
# Mechanical properties :
#
#
# Convention : Reuss Voigt Hill
#
# Bulk Modulus (GPa) = 52.25172 54.75867 53.50519
# Shear Modulus (GPa) = 14.70537 27.71446 21.20992
#
# Velocity S-wave (km/s) = 2.80158 3.84607 3.36460
# Velocity P-wave (km/s) = 6.19305 6.99642 6.60696
#
# Compressibility (1/GPa) = 0.01913813
#
# Stress axis : x y z
#
# Youngs Moduli (GPa) = 82.35185 82.35185 128.40893
#
# Poissons Ratio (x) = 0.20763 0.25338
# Poissons Ratio (y) = 0.20763 0.25338
# Poissons Ratio (z) = 0.16250 0.16250
#
# Static dielectric constant tensor:
#      x y z
#    x 1.684220 0.000000 0.000000 
#    y 0.000000 1.684220 0.000000 
#    z 0.000000 0.000000 1.687510 
# 
# From -- ./inp_files/2564.got.cif
#   From: 2010.05.17/outbox.cif.g08.bks.cpg/sg112_2_cif.got.tgz:2564.got - 2010.05.20 10:59:04.
