data_PCOD9555390
_publ_section_title
;
Structure prediction by ZEFSAII (Michael W. Deem and Ramdas Pophale) SiO2 
 PCOD9555390
Probable space group: P -4 2 C
;
_chemical_formula_sum "Si O2"
_cell_formula_units_Z 26
_cell_length_a 11.164552
_cell_length_b 11.164552
_cell_length_c 9.096633
_cell_angle_alpha 90.000000
_cell_angle_beta 90.000000
_cell_angle_gamma 90.000000
_cell_volume 1133.870027
_symmetry_space_group_name_H-M "P -4 2 C"
_symmetry_group_IT_number 112
_symmetry_cell_setting 'tetragonal'
loop_
_space_group_symop_operation_xyz
x,y,z
y,-x,-z
-x,-y,z
-y,x,-z
x,-y,1/2-z
-x,y,1/2-z
-y,-x,1/2+z
y,x,1/2+z
loop_
_atom_site_type_symbol
_atom_site_label
_atom_site_fract_x
_atom_site_fract_y
_atom_site_fract_z
Si Si1 0.382329 0.298291 0.844805
Si Si2 0.500000 0.500000 0.500000
Si Si3 0.167338 0.017122 0.084908
Si Si4 0.165415 0.620816 0.844825
O O1 0.500000 0.266922 0.750000
O O2 0.258934 0.298313 0.753029
O O3 0.404338 0.434438 0.898668
O O4 0.389803 0.225530 0.995057
O O5 0.305933 0.046947 0.107401
O O6 0.123124 0.000000 0.250000
O O7 0.097445 0.128202 0.009818
O O8 0.147128 0.500000 0.750000
#
# Coordination Sequence:
#
# PCOD9555390 Si02
#       4
#     8   2   8   8
#     4  12  21  35  60  98 143 195 238 292 368 468
#     4  12  18  32  58  88 142 192 238 268 362 472
#     4  11  25  48  75  99 131 186 253 306 355 439
#     4  12  23  40  66 103 142 183 239 309 375 431
#
# _framework density 22.930318
#
# number of rings (size 3 to 8) (size 9 to 14) (size 15 to 20)
#    0.000    0.308    6.154    4.154    0.000    0.615 
#    0.000    0.000    0.000    1.846    0.000    0.000 
#    0.000    0.000    0.000    0.000    0.000    0.000 
#
# Total GULP energy -145158.994984 kJ/mol
# GULP energy per Si atom -5583.038269 kJ/mol
# Density = 2.287813 g / cm^3
# Si number density = 22.930318 Si / 1000 Ang^3
#
#
#
# Elastic Constant Matrix: (Units=GPa)
#
#
# Indices 1 2 3 4 5 6 
#
# 1 59.8208 21.2704 35.3727 0.0000 0.0000 0.0000
# 2 21.2704 59.8208 35.3727 0.0000 0.0000 0.0000
# 3 35.3727 35.3727 187.6185 0.0000 0.0000 0.0000
# 4 0.0000 0.0000 0.0000 37.8380 0.0000 0.0000
# 5 0.0000 0.0000 0.0000 0.0000 37.8380 0.0000
# 6 0.0000 0.0000 0.0000 0.0000 0.0000 37.3264
#
#
#
# Elastic Compliance Matrix: (Units=1/GPa)
#
#
# Indices 1 2 3 4 5 6 
#
# 1 0.020350 -0.005590 -0.002783 0.000000 0.000000 0.000000
# 2 -0.005590 0.020350 -0.002783 0.000000 0.000000 0.000000
# 3 -0.002783 -0.002783 0.006379 0.000000 0.000000 0.000000
# 4 0.000000 0.000000 0.000000 0.026428 0.000000 0.000000
# 5 0.000000 0.000000 0.000000 0.000000 0.026428 0.000000
# 6 0.000000 0.000000 0.000000 0.000000 0.000000 0.026791
#
#
# Mechanical properties :
#
#
# Convention : Reuss Voigt Hill
#
# Bulk Modulus (GPa) = 40.37563 54.58799 47.48181
# Shear Modulus (GPa) = 31.78771 36.95009 34.36890
#
# Velocity S-wave (km/s) = 3.72731 4.01859 3.87569
# Velocity P-wave (km/s) = 6.01415 6.73719 6.38591
#
# Compressibility (1/GPa) = 0.02476741
#
# Stress axis : x y z
#
# Youngs Moduli (GPa) = 49.14065 49.14065 156.75867
#
# Poissons Ratio (x) = 0.27471 0.43621
# Poissons Ratio (y) = 0.27471 0.43621
# Poissons Ratio (z) = 0.13674 0.13674
#
# Static dielectric constant tensor:
#      x y z
#    x 1.946430 0.000000 0.000000 
#    y 0.000000 1.946430 0.000000 
#    z 0.000000 0.000000 1.831070 
# 
# From -- ./inp_files/827.got.cif
#   From: 2010.05.17/outbox.cif.g08.bks.cpg/sg112_1_cif.got.tgz:827.got - 2010.05.20 10:59:04.
