data_PCOD9555196
_publ_section_title
;
Structure prediction by ZEFSAII (Michael W. Deem and Ramdas Pophale) SiO2 
 PCOD9555196
Probable space group: P -4 2 C
;
_chemical_formula_sum "Si O2"
_cell_formula_units_Z 24
_cell_length_a 8.154218
_cell_length_b 8.154218
_cell_length_c 14.082737
_cell_angle_alpha 90.000000
_cell_angle_beta 90.000000
_cell_angle_gamma 90.000000
_cell_volume 936.379085
_symmetry_space_group_name_H-M "P -4 2 C"
_symmetry_group_IT_number 112
_symmetry_cell_setting 'tetragonal'
loop_
_space_group_symop_operation_xyz
x,y,z
y,-x,-z
-x,-y,z
-y,x,-z
x,-y,1/2-z
-x,y,1/2-z
-y,-x,1/2+z
y,x,1/2+z
loop_
_atom_site_type_symbol
_atom_site_label
_atom_site_fract_x
_atom_site_fract_y
_atom_site_fract_z
Si Si1 0.500000 0.248728 0.250000
Si Si2 0.000000 0.000000 0.000000
Si Si3 0.000000 0.500000 0.903683
Si Si4 0.689872 0.183329 0.932117
Si Si5 0.500000 0.228610 0.750000
Si Si6 0.500000 0.500000 0.500000
O O1 0.355053 0.362079 0.290769
O O2 0.425355 0.130864 0.169930
O O3 0.109965 0.126166 0.062896
O O4 0.092924 0.382247 0.975078
O O5 0.598027 0.139648 0.833788
O O6 0.622242 0.369447 0.949327
#
# Coordination Sequence:
#
# PCOD9555196 Si02
#       6
#     4   2   4   8   4   2
#     4  10  22  42  74 112 146 194 266 330 374 442
#     4  12  28  48  76 118 172 210 244 330 428 472
#     4  11  24  45  74 112 156 201 254 323 396 462
#     4  12  25  45  77 115 155 202 261 327 393 466
#     4  11  22  41  74 110 144 200 270 318 368 462
#     4  12  24  46  84 112 140 206 284 326 364 464
#
# _framework density 25.630648000000001
#
# number of rings (size 3 to 8) (size 9 to 14) (size 15 to 20)
#    0.000    0.667    0.000   10.000    0.000    0.667 
#    0.000    0.000    0.000   52.000    0.000    0.000 
#    0.000    0.000    0.000    0.000    0.000    0.000 
#
# Total GULP energy -133844.295419 kJ/mol
# GULP energy per Si atom -5576.845642 kJ/mol
# Density = 2.557231 g / cm^3
# Si number density = 25.630648 Si / 1000 Ang^3
#
#
#
# Elastic Constant Matrix: (Units=GPa)
#
#
# Indices 1 2 3 4 5 6 
#
# 1 163.3790 93.0144 74.1150 0.0000 0.0000 0.0000
# 2 93.0144 163.3790 74.1150 0.0000 0.0000 0.0000
# 3 74.1150 74.1150 161.2747 0.0000 0.0000 0.0000
# 4 0.0000 0.0000 0.0000-1022.3093 0.0000 0.0000
# 5 0.0000 0.0000 0.0000 0.0000-1022.3093 0.0000
# 6 0.0000 0.0000 0.0000 0.0000 0.0000 49.1841
#
#
#
# Elastic Compliance Matrix: (Units=1/GPa)
#
#
# Indices 1 2 3 4 5 6 
#
# 1 0.009762 -0.004450 -0.002441 0.000000 0.000000 0.000000
# 2 -0.004450 0.009762 -0.002441 0.000000 0.000000 0.000000
# 3 -0.002441 -0.002441 0.008444 0.000000 0.000000 0.000000
# 4 0.000000 0.000000 0.000000 -0.000978 0.000000 0.000000
# 5 0.000000 0.000000 0.000000 0.000000 -0.000978 0.000000
# 6 0.000000 0.000000 0.000000 0.000000 0.000000 0.020332
#
#
# Mechanical properties :
#
#
# Convention : Reuss Voigt Hill
#
# Bulk Modulus (GPa) = 107.48866 107.83570 107.66218
# Shear Modulus (GPa) = 73.41325 -382.63433 -154.61054
#
# Velocity S-wave (km/s) = 5.35770 -12.23159 -7.77518
# Velocity P-wave (km/s) = 8.96113 12.54266 6.20550
#
# Compressibility (1/GPa) = 0.00930331
#
# Stress axis : x y z
#
# Youngs Moduli (GPa) = 102.44260 102.44260 118.42625
#
# Poissons Ratio (x) = 0.45588 0.28907
# Poissons Ratio (y) = 0.45588 0.28907
# Poissons Ratio (z) = 0.25005 0.25005
#
# Static dielectric constant tensor:
#      x y z
#    x 2.218860 0.000000 0.000000 
#    y 0.000000 2.218860 0.000000 
#    z 0.000000 0.000000 2.030710 
# 
# From -- ./inp_files/3078.got.cif
#   From: 2010.05.17/outbox.cif.g08.bks.cpg/sg112_2_cif.got.tgz:3078.got - 2010.05.20 10:59:04.
