data_PCOD9555528
_publ_section_title
;
Structure prediction by ZEFSAII (Michael W. Deem and Ramdas Pophale) SiO2 
 PCOD9555528
Probable space group: P -4 21 M 
;
_chemical_formula_sum "Si O2"
_cell_formula_units_Z 48
_cell_length_a 14.027748
_cell_length_b 14.027748
_cell_length_c 11.933823
_cell_angle_alpha 90.000000
_cell_angle_beta 90.000000
_cell_angle_gamma 90.000000
_cell_volume 2348.310409
_symmetry_space_group_name_H-M "P -4 21 M "
_symmetry_group_IT_number 113
_symmetry_cell_setting 'tetragonal'
loop_
_space_group_symop_operation_xyz
x,y,z
y,-x,-z
-x,-y,z
-y,x,-z
1/2+x,1/2-y,-z
1/2-x,1/2+y,-z
1/2-y,1/2-x,z
1/2+y,1/2+x,z
loop_
_atom_site_type_symbol
_atom_site_label
_atom_site_fract_x
_atom_site_fract_y
_atom_site_fract_z
Si Si1 0.151607 0.496268 0.554933
Si Si2 0.952570 0.896570 0.229211
Si Si3 0.206415 0.140795 0.797656
Si Si4 0.300613 0.951154 0.193036
Si Si5 0.464300 0.364236 0.456014
Si Si6 0.370917 0.283934 0.066245
O O1 0.075866 0.575866 0.522696
O O2 0.162235 0.493920 0.690129
O O3 0.255318 0.524309 0.513383
O O4 0.106102 0.393899 0.522731
O O5 0.885619 0.913025 0.338076
O O6 0.886101 0.867641 0.125802
O O7 0.036373 0.819878 0.246746
O O8 0.000000 0.000000 0.206102
O O9 0.302717 0.197284 0.762207
O O10 0.118662 0.213086 0.775552
O O11 0.208970 0.129935 0.932609
O O12 0.383404 0.883404 0.144677
O O13 0.266425 0.033189 0.110782
O O14 0.408719 0.429651 0.544923
O O15 0.281432 0.218569 0.100231
#
# Coordination Sequence:
#
# PCOD9555528 Si02
#       6
#     8   8   8   8   8   8
#     4  10  21  39  63  90 119 155 200 250 312 374
#     4  12  21  37  62  84 119 164 200 252 309 368
#     4  10  22  37  56  88 123 159 205 249 299 371
#     4  10  19  34  57  86 119 156 196 247 306 362
#     4  11  23  39  58  88 125 155 204 261 308 359
#     4  11  22  35  57  92 125 156 202 252 303 375
#
# _framework density 20.440227
#
# number of rings (size 3 to 8) (size 9 to 14) (size 15 to 20)
#    0.000    1.333    5.000    1.500    0.000    1.667 
#    0.000    0.833    0.000    1.500    0.000    0.000 
#    0.000    0.000    0.000    0.000    0.000    0.000 
#
# Total GULP energy -268174.327824 kJ/mol
# GULP energy per Si atom -5586.965163 kJ/mol
# Density = 2.039370 g / cm^3
# Si number density = 20.440227 Si / 1000 Ang^3
#
#
#
# Elastic Constant Matrix: (Units=GPa)
#
#
# Indices 1 2 3 4 5 6 
#
# 1 112.3345 48.1466 12.0394 0.0000 0.0000 0.0000
# 2 48.1466 112.3329 12.0398 0.0000 0.0000 0.0000
# 3 12.0394 12.0398 39.4603 0.0000 0.0000 0.0000
# 4 0.0000 0.0000 0.0000 22.0058 0.0000 0.0000
# 5 0.0000 0.0000 0.0000 0.0000 22.0054 0.0000
# 6 0.0000 0.0000 0.0000 0.0000 0.0000 28.4613
#
#
#
# Elastic Compliance Matrix: (Units=1/GPa)
#
#
# Indices 1 2 3 4 5 6 
#
# 1 0.011055 -0.004525 -0.001992 0.000000 0.000000 0.000000
# 2 -0.004525 0.011055 -0.001993 0.000000 0.000000 0.000000
# 3 -0.001992 -0.001993 0.026558 0.000000 0.000000 0.000000
# 4 0.000000 0.000000 0.000000 0.045443 0.000000 0.000000
# 5 0.000000 0.000000 0.000000 0.000000 0.045443 0.000000
# 6 0.000000 0.000000 0.000000 0.000000 0.000000 0.035135
#
#
# Mechanical properties :
#
#
# Convention : Reuss Voigt Hill
#
# Bulk Modulus (GPa) = 31.59702 45.39770 38.49736
# Shear Modulus (GPa) = 24.72098 27.28795 26.00447
#
# Velocity S-wave (km/s) = 3.48146 3.65775 3.57069
# Velocity P-wave (km/s) = 5.62606 6.33222 5.98955
#
# Compressibility (1/GPa) = 0.03164855
#
# Stress axis : x y z
#
# Youngs Moduli (GPa) = 90.45878 90.45732 37.65379
#
# Poissons Ratio (x) = 0.40928 0.07502
# Poissons Ratio (y) = 0.40929 0.07503
# Poissons Ratio (z) = 0.18022 0.18024
#
# Static dielectric constant tensor:
#      x y z
#    x 1.743920 0.000000 0.000000 
#    y 0.000000 1.743920 0.000000 
#    z 0.000000 0.000000 1.732830 
# 
# From -- ./inp_files/1849.got.cif
#   From: 2010.05.17/outbox.cif.g08.bks.cpg/sg113_cif.got.tgz:1849.got - 2010.05.20 11:03:00.
