data_PCOD9555487
_publ_section_title
;
Structure prediction by ZEFSAII (Michael W. Deem and Ramdas Pophale) SiO2 
 PCOD9555487
Probable space group: P -4 21 M 
;
_chemical_formula_sum "Si O2"
_cell_formula_units_Z 56
_cell_length_a 11.842818
_cell_length_b 11.842818
_cell_length_c 23.144246
_cell_angle_alpha 90.000000
_cell_angle_beta 90.000000
_cell_angle_gamma 90.000000
_cell_volume 3246.034617
_symmetry_space_group_name_H-M "P -4 21 M "
_symmetry_group_IT_number 113
_symmetry_cell_setting 'tetragonal'
loop_
_space_group_symop_operation_xyz
x,y,z
y,-x,-z
-x,-y,z
-y,x,-z
1/2+x,1/2-y,-z
1/2-x,1/2+y,-z
1/2-y,1/2-x,z
1/2+y,1/2+x,z
loop_
_atom_site_type_symbol
_atom_site_label
_atom_site_fract_x
_atom_site_fract_y
_atom_site_fract_z
Si Si1 0.656124 0.665024 0.557368
Si Si2 0.760303 0.920673 0.431318
Si Si3 0.914959 0.764156 0.930772
Si Si4 0.003099 0.686581 0.255691
Si Si5 0.037701 0.122954 0.349900
Si Si6 0.668003 0.648940 0.059940
Si Si7 0.074274 0.755476 0.128008
O O1 0.724570 0.775431 0.575640
O O2 0.734577 0.555371 0.564892
O O3 0.622454 0.681097 0.490601
O O4 0.546936 0.647386 0.596765
O O5 0.639528 0.860473 0.427997
O O6 0.838182 0.883904 0.377584
O O7 0.863931 0.636070 0.931002
O O8 0.850864 0.830876 0.880154
O O9 0.046585 0.794858 0.927752
O O10 0.872344 0.818631 0.991306
O O11 0.108433 0.608433 0.274907
O O12 0.035251 0.736951 0.193389
O O13 0.897175 0.602826 0.248778
O O14 0.975925 0.782414 0.301833
O O15 0.000000 0.000000 0.327160
O O16 0.762166 0.737835 0.078186
O O17 0.700501 0.531780 0.090990
O O18 0.138158 0.638158 0.108890
#
# Coordination Sequence:
#
# PCOD9555487 Si02
#       7
#     8   8   8   8   8   8   8
#     4  10  19  32  50  72 103 139 175 217 263 315
#     4  10  19  32  50  72 103 139 175 218 263 316
#     4  10  21  35  53  80 111 146 189 232 276 333
#     4  10  21  38  57  80 112 144 180 231 278 320
#     4  10  20  33  55  79 105 138 183 221 264 323
#     4  11  21  34  55  81 111 148 186 232 283 332
#     4  10  21  37  57  81 111 147 188 228 279 336
#
# _framework density 17.251816999999999
#
# number of rings (size 3 to 8) (size 9 to 14) (size 15 to 20)
#    0.000    1.857    2.857    1.714    0.000    2.571 
#    0.000    1.429    0.000    0.000    0.000    0.000 
#    0.000    6.857    0.000    0.000    0.000    0.000 
#
# Total GULP energy -312155.714392 kJ/mol
# GULP energy per Si atom -5574.209186 kJ/mol
# Density = 1.721255 g / cm^3
# Si number density = 17.251817 Si / 1000 Ang^3
#
#
#
# Elastic Constant Matrix: (Units=GPa)
#
#
# Indices 1 2 3 4 5 6 
#
# 1 27.7489 -5.9394 -9.5358 0.0000 0.0000 0.0000
# 2 -5.9394 27.7646 -9.5304 0.0000 0.0000 0.0000
# 3 -9.5358 -9.5304 37.6748 0.0000 0.0000 0.0000
# 4 0.0000 0.0000 0.0000 22.9840 0.0000 0.0000
# 5 0.0000 0.0000 0.0000 0.0000 22.9828 0.0000
# 6 0.0000 0.0000 0.0000 0.0000 0.0000 25.6902
#
#
#
# Elastic Compliance Matrix: (Units=1/GPa)
#
#
# Indices 1 2 3 4 5 6 
#
# 1 0.044279 0.014586 0.014897 0.000000 0.000000 0.000000
# 2 0.014586 0.044246 0.014884 0.000000 0.000000 0.000000
# 3 0.014897 0.014884 0.034079 0.000000 0.000000 0.000000
# 4 0.000000 0.000000 0.000000 0.043509 0.000000 0.000000
# 5 0.000000 0.000000 0.000000 0.000000 0.043511 0.000000
# 6 0.000000 0.000000 0.000000 0.000000 0.000000 0.038925
#
#
# Mechanical properties :
#
#
# Convention : Reuss Voigt Hill
#
# Bulk Modulus (GPa) = 4.73177 4.79746 4.76462
# Shear Modulus (GPa) = 21.71454 22.21099 21.96277
#
# Velocity S-wave (km/s) = 3.55164 3.59201 3.57188
# Velocity P-wave (km/s) = 4.42352 4.47105 4.44735
#
# Compressibility (1/GPa) = 0.21133749
#
# Stress axis : x y z
#
# Youngs Moduli (GPa) = 22.58426 22.60069 29.34385
#
# Poissons Ratio (x) = -0.32964 -0.43713
# Poissons Ratio (y) = -0.32940 -0.43677
# Poissons Ratio (z) = -0.33644 -0.33640
#
# Static dielectric constant tensor:
#      x y z
#    x 1.592270 0.000000 0.000000 
#    y 0.000000 1.592280 0.000000 
#    z 0.000000 0.000000 1.559410 
# 
# From -- ./inp_files/2678.got.cif
#   From: 2010.05.17/outbox.cif.g08.bks.cpg/sg113_cif.got.tgz:2678.got - 2010.05.20 11:03:00.
