data_PCOD9555365
_publ_section_title
;
Structure prediction by ZEFSAII (Michael W. Deem and Ramdas Pophale) SiO2 
 PCOD9555365
Probable space group: P -4 2 C
;
_chemical_formula_sum "Si O2"
_cell_formula_units_Z 32
_cell_length_a 9.492746
_cell_length_b 9.492746
_cell_length_c 17.163745
_cell_angle_alpha 90.000000
_cell_angle_beta 90.000000
_cell_angle_gamma 90.000000
_cell_volume 1546.663279
_symmetry_space_group_name_H-M "P -4 2 C"
_symmetry_group_IT_number 112
_symmetry_cell_setting 'tetragonal'
loop_
_space_group_symop_operation_xyz
x,y,z
y,-x,-z
-x,-y,z
-y,x,-z
x,-y,1/2-z
-x,y,1/2-z
-y,-x,1/2+z
y,x,1/2+z
loop_
_atom_site_type_symbol
_atom_site_label
_atom_site_fract_x
_atom_site_fract_y
_atom_site_fract_z
Si Si1 0.153075 0.071347 0.673796
Si Si2 0.313411 0.563271 0.536443
Si Si3 0.971163 0.341591 0.473704
Si Si4 0.385200 0.121461 0.132870
O O1 0.234951 0.027586 0.596313
O O2 0.142580 0.242273 0.681394
O O3 0.220285 0.000000 0.750000
O O4 0.000000 0.000000 0.667488
O O5 0.454050 0.654883 0.534875
O O6 0.182809 0.657180 0.512279
O O7 0.261932 0.474748 0.611408
O O8 0.000000 0.500000 0.444143
O O9 0.071545 0.326738 0.548260
O O10 0.500000 0.000000 0.156620
#
# Coordination Sequence:
#
# PCOD9555365 Si02
#       4
#     8   8   8   8
#     4  11  24  39  57  88 125 169 208 249 316 381
#     4   9  15  28  55  91 123 140 190 259 310 366
#     4   9  20  34  58  91 123 158 200 256 311 365
#     4   9  20  35  59  91 121 158 207 260 307 363
#
# _framework density 20.689702
#
# number of rings (size 3 to 8) (size 9 to 14) (size 15 to 20)
#    0.000    3.000    2.500    0.000    3.500    2.500 
#    0.000    2.500    0.000    0.000    0.000    0.000 
#    0.000    0.000    0.000    0.000    0.000    0.000 
#
# Total GULP energy -178208.781084 kJ/mol
# GULP energy per Si atom -5569.024409 kJ/mol
# Density = 2.064261 g / cm^3
# Si number density = 20.689702 Si / 1000 Ang^3
#
#
#
# Elastic Constant Matrix: (Units=GPa)
#
#
# Indices 1 2 3 4 5 6 
#
# 1 79.4864 -8.8266 15.8938 0.0000 0.0000 0.0000
# 2 -8.8266 79.4864 15.8938 0.0000 0.0000 0.0000
# 3 15.8938 15.8938 63.0470 0.0000 0.0000 0.0000
# 4 0.0000 0.0000 0.0000 22.8823 0.0000 0.0000
# 5 0.0000 0.0000 0.0000 0.0000 22.8823 0.0000
# 6 0.0000 0.0000 0.0000 0.0000 0.0000 30.9406
#
#
#
# Elastic Compliance Matrix: (Units=1/GPa)
#
#
# Indices 1 2 3 4 5 6 
#
# 1 0.013643 0.002320 -0.004024 0.000000 0.000000 0.000000
# 2 0.002320 0.013643 -0.004024 0.000000 0.000000 0.000000
# 3 -0.004024 -0.004024 0.017890 0.000000 0.000000 0.000000
# 4 0.000000 0.000000 0.000000 0.043702 0.000000 0.000000
# 5 0.000000 0.000000 0.000000 0.000000 0.043702 0.000000
# 6 0.000000 0.000000 0.000000 0.000000 0.000000 0.032320
#
#
# Mechanical properties :
#
#
# Convention : Reuss Voigt Hill
#
# Bulk Modulus (GPa) = 29.65687 29.77130 29.71409
# Shear Modulus (GPa) = 26.65295 28.61164 27.63230
#
# Velocity S-wave (km/s) = 3.59308 3.72276 3.65849
# Velocity P-wave (km/s) = 5.61951 5.73579 5.67794
#
# Compressibility (1/GPa) = 0.03371899
#
# Stress axis : x y z
#
# Youngs Moduli (GPa) = 73.29770 73.29770 55.89688
#
# Poissons Ratio (x) = -0.17002 0.22493
# Poissons Ratio (y) = -0.17002 0.22493
# Poissons Ratio (z) = 0.29496 0.29496
#
# Static dielectric constant tensor:
#      x y z
#    x 1.816510 0.000000 0.000000 
#    y 0.000000 1.816510 0.000000 
#    z 0.000000 0.000000 1.735710 
# 
# From -- ./inp_files/4497.got.cif
#   From: 2010.05.17/outbox.cif.g08.bks.cpg/sg112_3_cif.got.tgz:4497.got - 2010.05.20 10:59:04.
