data_PCOD9555385
_publ_section_title
;
Structure prediction by ZEFSAII (Michael W. Deem and Ramdas Pophale) SiO2 
 PCOD9555385
Probable space group: P -4 2 C
;
_chemical_formula_sum "Si O2"
_cell_formula_units_Z 26
_cell_length_a 11.907829
_cell_length_b 11.907829
_cell_length_c 6.853596
_cell_angle_alpha 90.000000
_cell_angle_beta 90.000000
_cell_angle_gamma 90.000000
_cell_volume 971.815182
_symmetry_space_group_name_H-M "P -4 2 C"
_symmetry_group_IT_number 112
_symmetry_cell_setting 'tetragonal'
loop_
_space_group_symop_operation_xyz
x,y,z
y,-x,-z
-x,-y,z
-y,x,-z
x,-y,1/2-z
-x,y,1/2-z
-y,-x,1/2+z
y,x,1/2+z
loop_
_atom_site_type_symbol
_atom_site_label
_atom_site_fract_x
_atom_site_fract_y
_atom_site_fract_z
Si Si1 0.269774 0.252083 0.515465
Si Si2 0.519463 0.174884 0.469220
Si Si3 0.500000 0.000000 0.750000
Si Si4 0.864201 0.867419 0.259037
O O1 0.395355 0.203922 0.538052
O O2 0.270190 0.388326 0.513061
O O3 0.244460 0.229762 0.263302
O O4 0.160127 0.157232 0.509268
O O5 0.500000 0.136891 0.250000
O O6 0.569561 0.075667 0.602020
O O7 0.000000 0.849263 0.250000
O O8 0.835672 0.000000 0.250000
#
# Coordination Sequence:
#
# PCOD9555385 Si02
#       4
#     8   8   2   8
#     4  12  26  48  76 114 156 212 264 332 404 476
#     4  12  29  52  80 119 164 211 274 339 403 488
#     4  12  30  48  84 120 154 224 262 344 410 472
#     4  11  25  45  73 109 155 207 262 324 399 491
#
# _framework density 26.754055999999999
#
# number of rings (size 3 to 8) (size 9 to 14) (size 15 to 20)
#    0.000    0.308    3.077    4.154   12.923    3.077 
#    0.000    1.538    0.000    0.000    0.000    0.000 
#    0.000    0.000    0.000    0.000    0.000    0.000 
#
# Total GULP energy -145252.864702 kJ/mol
# GULP energy per Si atom -5586.648642 kJ/mol
# Density = 2.669316 g / cm^3
# Si number density = 26.754056 Si / 1000 Ang^3
#
#
#
# Elastic Constant Matrix: (Units=GPa)
#
#
# Indices 1 2 3 4 5 6 
#
# 1 143.1633 94.4734 61.1818 0.0000 0.0000 0.0000
# 2 94.4734 143.1633 61.1818 0.0000 0.0000 0.0000
# 3 61.1818 61.1818 255.2760 0.0000 0.0000 0.0000
# 4 0.0000 0.0000 0.0000 57.5097 0.0000 0.0000
# 5 0.0000 0.0000 0.0000 0.0000 57.5097 0.0000
# 6 0.0000 0.0000 0.0000 0.0000 0.0000 16.5905
#
#
#
# Elastic Compliance Matrix: (Units=1/GPa)
#
#
# Indices 1 2 3 4 5 6 
#
# 1 0.012669 -0.007869 -0.001151 0.000000 0.000000 0.000000
# 2 -0.007869 0.012669 -0.001151 0.000000 0.000000 0.000000
# 3 -0.001151 -0.001151 0.004469 0.000000 0.000000 0.000000
# 4 0.000000 0.000000 0.000000 0.017388 0.000000 0.000000
# 5 0.000000 0.000000 0.000000 0.000000 0.017388 0.000000
# 6 0.000000 0.000000 0.000000 0.000000 0.000000 0.060275
#
#
# Mechanical properties :
#
#
# Convention : Reuss Voigt Hill
#
# Bulk Modulus (GPa) = 105.62185 108.36410 106.99297
# Shear Modulus (GPa) = 33.70285 47.97300 40.83793
#
# Velocity S-wave (km/s) = 3.55312 4.23911 3.91118
# Velocity P-wave (km/s) = 7.50982 8.03441 7.77654
#
# Compressibility (1/GPa) = 0.00946774
#
# Stress axis : x y z
#
# Youngs Moduli (GPa) = 78.93073 78.93073 223.77233
#
# Poissons Ratio (x) = 0.62109 0.25746
# Poissons Ratio (y) = 0.62109 0.25746
# Poissons Ratio (z) = 0.09081 0.09081
#
# Static dielectric constant tensor:
#      x y z
#    x 1.921030 0.000000 0.000000 
#    y 0.000000 1.921030 0.000000 
#    z 0.000000 0.000000 2.484200 
# 
# From -- ./inp_files/857.got.cif
#   From: 2010.05.17/outbox.cif.g08.bks.cpg/sg112_1_cif.got.tgz:857.got - 2010.05.20 10:59:04.
