data_PCOD9555122
_publ_section_title
;
Structure prediction by ZEFSAII (Michael W. Deem and Ramdas Pophale) SiO2 
 PCOD9555122
Probable space group: P -4 2 C
;
_chemical_formula_sum "Si O2"
_cell_formula_units_Z 38
_cell_length_a 8.232924
_cell_length_b 8.232924
_cell_length_c 25.082012
_cell_angle_alpha 90.000000
_cell_angle_beta 90.000000
_cell_angle_gamma 90.000000
_cell_volume 1700.084798
_symmetry_space_group_name_H-M "P -4 2 C"
_symmetry_group_IT_number 112
_symmetry_cell_setting 'tetragonal'
loop_
_space_group_symop_operation_xyz
x,y,z
y,-x,-z
-x,-y,z
-y,x,-z
x,-y,1/2-z
-x,y,1/2-z
-y,-x,1/2+z
y,x,1/2+z
loop_
_atom_site_type_symbol
_atom_site_label
_atom_site_fract_x
_atom_site_fract_y
_atom_site_fract_z
Si Si1 0.678610 0.838805 0.344440
Si Si2 0.404210 0.331485 0.098782
Si Si3 0.494443 0.804872 0.812812
Si Si4 0.000000 0.500000 0.750000
Si Si5 0.000000 0.000000 0.379881
Si Si6 0.172799 0.150463 0.529230
O O1 0.531782 0.812027 0.386581
O O2 0.750206 0.660801 0.339278
O O3 0.603538 0.888715 0.288597
O O4 0.830585 0.957785 0.352728
O O5 0.500000 0.500000 0.090051
O O6 0.288975 0.360236 0.151371
O O7 0.296183 0.286652 0.047181
O O8 0.500000 0.758946 0.750000
O O9 0.500000 0.000000 0.815470
O O10 0.043445 0.849214 0.417686
O O11 0.990421 0.213880 0.513674
#
# Coordination Sequence:
#
# PCOD9555122 Si02
#       6
#     8   8   8   2   4   8
#     4  11  23  37  61  92 134 174 226 274 340 412
#     4  10  21  40  68  95 133 177 219 283 359 423
#     4  10  21  37  62  96 137 180 227 277 342 419
#     4  12  24  34  54  96 136 182 224 278 328 406
#     4  10  21  39  66  88 120 172 224 279 343 398
#     4   9  20  41  73  92 120 162 228 289 351 411
#
# _framework density 22.351825999999999
#
# number of rings (size 3 to 8) (size 9 to 14) (size 15 to 20)
#    0.000    2.105    0.000    3.789    0.000    6.737 
#    0.000    0.000   83.368    0.000    0.000    0.000 
#    0.000    0.000    0.000    0.000    0.000    0.000 
#
# Total GULP energy -211876.324185 kJ/mol
# GULP energy per Si atom -5575.692742 kJ/mol
# Density = 2.230095 g / cm^3
# Si number density = 22.351826 Si / 1000 Ang^3
#
#
#
# Elastic Constant Matrix: (Units=GPa)
#
#
# Indices 1 2 3 4 5 6 
#
# 1 105.6120 56.1012 47.9353 0.0000 0.0000 0.0000
# 2 56.1012 105.6120 47.9353 0.0000 0.0000 0.0000
# 3 47.9353 47.9353 77.7614 0.0000 0.0000 0.0000
# 4 0.0000 0.0000 0.0000 -365.3187 0.0000 0.0000
# 5 0.0000 0.0000 0.0000 0.0000 -365.3187 0.0000
# 6 0.0000 0.0000 0.0000 0.0000 0.0000 33.6680
#
#
#
# Elastic Compliance Matrix: (Units=1/GPa)
#
#
# Indices 1 2 3 4 5 6 
#
# 1 0.014971 -0.005226 -0.006007 0.000000 0.000000 0.000000
# 2 -0.005226 0.014971 -0.006007 0.000000 0.000000 0.000000
# 3 -0.006007 -0.006007 0.020266 0.000000 0.000000 0.000000
# 4 0.000000 0.000000 0.000000 -0.002737 0.000000 0.000000
# 5 0.000000 0.000000 0.000000 0.000000 -0.002737 0.000000
# 6 0.000000 0.000000 0.000000 0.000000 0.000000 0.029702
#
#
# Mechanical properties :
#
#
# Convention : Reuss Voigt Hill
#
# Bulk Modulus (GPa) = 63.58399 65.88100 64.73250
# Shear Modulus (GPa) = 43.79807 -130.25963 -43.23078
#
# Velocity S-wave (km/s) = 4.43141 -7.64222 -4.40262
# Velocity P-wave (km/s) = 7.39539 6.95218 1.78313
#
# Compressibility (1/GPa) = 0.01572723
#
# Stress axis : x y z
#
# Youngs Moduli (GPa) = 66.79400 66.79400 49.34332
#
# Poissons Ratio (x) = 0.34908 0.29642
# Poissons Ratio (y) = 0.34908 0.29642
# Poissons Ratio (z) = 0.40125 0.40125
#
# Static dielectric constant tensor:
#      x y z
#    x 1.905740 0.000000 0.000000 
#    y 0.000000 1.905740 0.000000 
#    z 0.000000 0.000000 1.835280 
# 
# From -- ./inp_files/5384.got.cif
#   From: 2010.05.17/outbox.cif.g08.bks.cpg/sg112_3_cif.got.tgz:5384.got - 2010.05.20 10:59:04.
