data_PCOD9555467
_publ_section_title
;
Structure prediction by ZEFSAII (Michael W. Deem and Ramdas Pophale) SiO2 
 PCOD9555467
Probable space group: P -4 21 M 
;
_chemical_formula_sum "Si O2"
_cell_formula_units_Z 40
_cell_length_a 16.408991
_cell_length_b 16.408991
_cell_length_c 7.440966
_cell_angle_alpha 90.000000
_cell_angle_beta 90.000000
_cell_angle_gamma 90.000000
_cell_volume 2003.517193
_symmetry_space_group_name_H-M "P -4 21 M "
_symmetry_group_IT_number 113
_symmetry_cell_setting 'tetragonal'
loop_
_space_group_symop_operation_xyz
x,y,z
y,-x,-z
-x,-y,z
-y,x,-z
1/2+x,1/2-y,-z
1/2-x,1/2+y,-z
1/2-y,1/2-x,z
1/2+y,1/2+x,z
loop_
_atom_site_type_symbol
_atom_site_label
_atom_site_fract_x
_atom_site_fract_y
_atom_site_fract_z
Si Si1 0.399729 0.372150 0.816818
Si Si2 0.497434 0.721949 0.311666
Si Si3 0.380914 0.417811 0.232521
Si Si4 0.435015 0.801385 0.655126
Si Si5 0.061357 0.696183 0.052018
O O1 0.370375 0.129626 0.983592
O O2 0.324387 0.411290 0.713770
O O3 0.401000 0.275325 0.846275
O O4 0.395143 0.408133 0.018871
O O5 0.562641 0.648508 0.327769
O O6 0.489404 0.780097 0.481576
O O7 0.522116 0.770233 0.131901
O O8 0.286288 0.402551 0.275471
O O9 0.396373 0.513291 0.269012
O O10 0.362912 0.862912 0.611778
O O11 0.491351 0.835153 0.814939
#
# Coordination Sequence:
#
# PCOD9555467 Si02
#       5
#     8   8   8   8   8
#     4  10  18  38  65  96 130 170 205 262 329 393
#     4  11  23  40  64 101 130 172 218 266 332 397
#     4  10  20  37  64  96 135 169 210 264 327 392
#     4  11  26  44  62  95 135 175 223 273 326 388
#     4  10  24  45  67  93 129 175 223 272 327 386
#
# _framework density 19.964888999999999
#
# number of rings (size 3 to 8) (size 9 to 14) (size 15 to 20)
#    0.000    1.600    6.000    0.600    5.600    6.000 
#    0.000    0.000    0.000    0.000    0.000    0.000 
#    0.000    0.000    0.000    0.000    0.000    0.000 
#
# Total GULP energy -223461.550663 kJ/mol
# GULP energy per Si atom -5586.538767 kJ/mol
# Density = 1.991945 g / cm^3
# Si number density = 19.964889 Si / 1000 Ang^3
#
#
#
# Elastic Constant Matrix: (Units=GPa)
#
#
# Indices 1 2 3 4 5 6 
#
# 1 63.0040 56.3267 46.2025 0.0000 0.0000 0.0000
# 2 56.3267 62.9978 46.1964 0.0000 0.0000 0.0000
# 3 46.2025 46.1964 82.3910 0.0000 0.0000 0.0000
# 4 0.0000 0.0000 0.0000 20.9968 0.0000 0.0000
# 5 0.0000 0.0000 0.0000 0.0000 20.9977 0.0000
# 6 0.0000 0.0000 0.0000 0.0000 0.0000 45.1044
#
#
#
# Elastic Compliance Matrix: (Units=1/GPa)
#
#
# Indices 1 2 3 4 5 6 
#
# 1 0.082322 -0.067510 -0.008311 0.000000 0.000000 0.000000
# 2 -0.067510 0.082321 -0.008299 0.000000 0.000000 0.000000
# 3 -0.008311 -0.008299 0.021451 0.000000 0.000000 0.000000
# 4 0.000000 0.000000 0.000000 0.047626 0.000000 0.000000
# 5 0.000000 0.000000 0.000000 0.000000 0.047624 0.000000
# 6 0.000000 0.000000 0.000000 0.000000 0.000000 0.022171
#
#
# Mechanical properties :
#
#
# Convention : Reuss Voigt Hill
#
# Bulk Modulus (GPa) = 56.01289 56.20488 56.10888
# Shear Modulus (GPa) = 10.46666 21.39758 15.93212
#
# Velocity S-wave (km/s) = 2.29214 3.27733 2.82797
# Velocity P-wave (km/s) = 5.92637 6.52182 6.23121
#
# Compressibility (1/GPa) = 0.01785303
#
# Stress axis : x y z
#
# Youngs Moduli (GPa) = 12.14742 12.14762 46.61740
#
# Poissons Ratio (x) = 0.82009 0.38744
# Poissons Ratio (y) = 0.82007 0.38689
# Poissons Ratio (z) = 0.10096 0.10082
#
# Static dielectric constant tensor:
#      x y z
#    x 1.697420 0.000000 0.000000 
#    y 0.000000 1.697420 0.000000 
#    z 0.000000 0.000000 1.744920 
# 
# From -- ./inp_files/1034.got.cif
#   From: 2010.05.17/outbox.cif.g08.bks.cpg/sg113_cif.got.tgz:1034.got - 2010.05.20 11:03:00.
