data_PCOD9555150
_publ_section_title
;
Structure prediction by ZEFSAII (Michael W. Deem and Ramdas Pophale) SiO2 
 PCOD9555150
Probable space group: P -4 2 C
;
_chemical_formula_sum "Si O2"
_cell_formula_units_Z 24
_cell_length_a 11.988977
_cell_length_b 11.988977
_cell_length_c 7.513671
_cell_angle_alpha 90.000000
_cell_angle_beta 90.000000
_cell_angle_gamma 90.000000
_cell_volume 1079.981780
_symmetry_space_group_name_H-M "P -4 2 C"
_symmetry_group_IT_number 112
_symmetry_cell_setting 'tetragonal'
loop_
_space_group_symop_operation_xyz
x,y,z
y,-x,-z
-x,-y,z
-y,x,-z
x,-y,1/2-z
-x,y,1/2-z
-y,-x,1/2+z
y,x,1/2+z
loop_
_atom_site_type_symbol
_atom_site_label
_atom_site_fract_x
_atom_site_fract_y
_atom_site_fract_z
Si Si1 0.410813 0.924328 0.934772
Si Si2 0.316399 0.517673 0.541546
Si Si3 0.169027 0.960397 0.950537
O O1 0.500000 0.000000 0.036952
O O2 0.397847 0.000000 0.750000
O O3 0.287616 0.917969 0.014369
O O4 0.455716 0.797636 0.935777
O O5 0.406636 0.618281 0.524308
O O6 0.289899 0.500000 0.750000
O O7 0.177187 0.000000 0.750000
O O8 0.070674 0.870994 0.949643
#
# Coordination Sequence:
#
# PCOD9555150 Si02
#       3
#     8   8   8
#     4  10  25  43  70 101 142 182 236 302 368 422
#     4  11  26  46  77 108 147 200 251 306 382 448
#     4  10  21  40  64  94 130 182 225 282 345 417
#
# _framework density 22.222594000000001
#
# number of rings (size 3 to 8) (size 9 to 14) (size 15 to 20)
#    0.000    1.667    0.000    4.000   14.000    3.333 
#    6.000    0.000    0.000    0.000    0.000    0.000 
#    0.000    0.000    0.000    0.000    0.000    0.000 
#
# Total GULP energy -133755.571140 kJ/mol
# GULP energy per Si atom -5573.148797 kJ/mol
# Density = 2.217201 g / cm^3
# Si number density = 22.222594 Si / 1000 Ang^3
#
#
#
# Elastic Constant Matrix: (Units=GPa)
#
#
# Indices 1 2 3 4 5 6 
#
# 1 196.0332 91.8453 32.4726 0.0000 0.0000 0.0000
# 2 91.8453 196.0332 32.4726 0.0000 0.0000 0.0000
# 3 32.4726 32.4726 81.1858 0.0000 0.0000 0.0000
# 4 0.0000 0.0000 0.0000 12.7173 0.0000 0.0000
# 5 0.0000 0.0000 0.0000 0.0000 12.7173 0.0000
# 6 0.0000 0.0000 0.0000 0.0000 0.0000 -23.3369
#
#
#
# Elastic Compliance Matrix: (Units=1/GPa)
#
#
# Indices 1 2 3 4 5 6 
#
# 1 0.006708 -0.002890 -0.001527 0.000000 0.000000 0.000000
# 2 -0.002890 0.006708 -0.001527 0.000000 0.000000 0.000000
# 3 -0.001527 -0.001527 0.013539 0.000000 0.000000 0.000000
# 4 0.000000 0.000000 0.000000 0.078633 0.000000 0.000000
# 5 0.000000 0.000000 0.000000 0.000000 0.078633 0.000000
# 6 0.000000 0.000000 0.000000 0.000000 0.000000 -0.042851
#
#
# Mechanical properties :
#
#
# Convention : Reuss Voigt Hill
#
# Bulk Modulus (GPa) = 66.37135 87.42591 76.89863
# Shear Modulus (GPa) = 31.58915 21.51697 26.55306
#
# Velocity S-wave (km/s) = 3.77435 3.11504 3.46044
# Velocity P-wave (km/s) = 6.99470 7.23632 7.11654
#
# Compressibility (1/GPa) = 0.01506674
#
# Stress axis : x y z
#
# Youngs Moduli (GPa) = 149.07269 149.07269 73.86001
#
# Poissons Ratio (x) = 0.43081 0.11280
# Poissons Ratio (y) = 0.43081 0.11280
# Poissons Ratio (z) = 0.22767 0.22767
#
# Static dielectric constant tensor:
#      x y z
#    x 1.703090 0.000000 0.000000 
#    y 0.000000 1.703090 0.000000 
#    z 0.000000 0.000000 1.933650 
# 
# From -- ./inp_files/795.got.cif
#   From: 2010.05.17/outbox.cif.g08.bks.cpg/sg112_1_cif.got.tgz:795.got - 2010.05.20 10:59:04.
