data_PCOD9555636
_publ_section_title
;
Structure prediction by ZEFSAII (Michael W. Deem and Ramdas Pophale) SiO2 
 PCOD9555636
Probable space group: P -4 21 M 
;
_chemical_formula_sum "Si O2"
_cell_formula_units_Z 56
_cell_length_a 11.364424
_cell_length_b 11.364424
_cell_length_c 20.470040
_cell_angle_alpha 90.000000
_cell_angle_beta 90.000000
_cell_angle_gamma 90.000000
_cell_volume 2643.708385
_symmetry_space_group_name_H-M "P -4 21 M "
_symmetry_group_IT_number 113
_symmetry_cell_setting 'tetragonal'
loop_
_space_group_symop_operation_xyz
x,y,z
y,-x,-z
-x,-y,z
-y,x,-z
1/2+x,1/2-y,-z
1/2-x,1/2+y,-z
1/2-y,1/2-x,z
1/2+y,1/2+x,z
loop_
_atom_site_type_symbol
_atom_site_label
_atom_site_fract_x
_atom_site_fract_y
_atom_site_fract_z
Si Si1 0.689890 0.465408 0.487848
Si Si2 0.314677 0.006754 0.897498
Si Si3 0.367947 0.329655 0.147427
Si Si4 0.500692 0.688034 0.021976
Si Si5 0.873159 0.815033 0.288886
Si Si6 0.807781 0.873094 0.657505
Si Si7 0.284528 0.033111 0.376210
O O1 0.590988 0.374244 0.513197
O O2 0.720121 0.422517 0.415532
O O3 0.784882 0.473659 0.545163
O O4 0.412284 0.912284 0.876190
O O5 0.192884 0.955779 0.869299
O O6 0.365509 0.134492 0.879867
O O7 0.300865 0.998409 0.976028
O O8 0.270907 0.229094 0.132379
O O9 0.474803 0.304521 0.098711
O O10 0.385964 0.331514 0.224632
O O11 0.611489 0.613878 0.993665
O O12 0.816370 0.683631 0.281176
O O13 0.810205 0.872353 0.350741
O O14 0.011729 0.828850 0.299205
O O15 0.696112 0.803889 0.683536
O O16 0.912929 0.777200 0.649213
O O17 0.408869 0.091132 0.354468
#
# Coordination Sequence:
#
# PCOD9555636 Si02
#       7
#     8   8   8   8   8   8   8
#     4   9  16  31  58  83 110 142 185 235 286 339
#     4   9  17  30  50  76 107 140 172 211 264 323
#     4   9  18  33  55  79 105 139 178 220 269 326
#     4   9  17  31  49  78 106 135 174 218 267 306
#     4  10  21  38  59  82 110 152 194 234 286 345
#     4  11  22  36  55  85 117 149 188 238 293 347
#     4  10  20  37  58  81 109 149 195 236 284 345
#
# _framework density 21.182368
#
# number of rings (size 3 to 8) (size 9 to 14) (size 15 to 20)
#    0.000    2.429    1.429    1.286    0.000    1.714 
#   10.286    1.429    0.000    2.571    0.000    2.000 
#    0.000    0.000    0.000    0.000    0.000    0.000 
#
# Total GULP energy -311820.051150 kJ/mol
# GULP energy per Si atom -5568.215199 kJ/mol
# Density = 2.113416 g / cm^3
# Si number density = 21.182368 Si / 1000 Ang^3
#
#
#
# Elastic Constant Matrix: (Units=GPa)
#
#
# Indices 1 2 3 4 5 6 
#
# 1 31.6334 19.3447 -1.0981 0.0000 0.0000 0.0000
# 2 19.3447 31.6289 -1.0980 0.0000 0.0000 0.0000
# 3 -1.0981 -1.0980 79.9050 0.0000 0.0000 0.0000
# 4 0.0000 0.0000 0.0000 13.8194 0.0000 0.0000
# 5 0.0000 0.0000 0.0000 0.0000 13.8180 0.0000
# 6 0.0000 0.0000 0.0000 0.0000 0.0000 -3.6223
#
#
#
# Elastic Compliance Matrix: (Units=1/GPa)
#
#
# Indices 1 2 3 4 5 6 
#
# 1 0.050506 -0.030881 0.000270 0.000000 0.000000 0.000000
# 2 -0.030881 0.050513 0.000270 0.000000 0.000000 0.000000
# 3 0.000270 0.000270 0.012522 0.000000 0.000000 0.000000
# 4 0.000000 0.000000 0.000000 0.072362 0.000000 0.000000
# 5 0.000000 0.000000 0.000000 0.000000 0.072369 0.000000
# 6 0.000000 0.000000 0.000000 0.000000 0.000000 -0.276064
#
#
# Mechanical properties :
#
#
# Convention : Reuss Voigt Hill
#
# Bulk Modulus (GPa) = 18.91833 19.71825 19.31829
# Shear Modulus (GPa) = 82.62979 13.20425 47.91702
#
# Velocity S-wave (km/s) = 6.25248 2.49943 4.76133
# Velocity P-wave (km/s) = 7.81506 4.20221 6.27430
#
# Compressibility (1/GPa) = 0.05285879
#
# Stress axis : x y z
#
# Youngs Moduli (GPa) = 19.79963 19.79683 79.85765
#
# Poissons Ratio (x) = 0.61134 -0.02154
# Poissons Ratio (y) = 0.61143 -0.02154
# Poissons Ratio (z) = -0.00534 -0.00534
#
# Static dielectric constant tensor:
#      x y z
#    x 1.793040 0.000000 0.000000 
#    y 0.000000 1.793040 0.000000 
#    z 0.000000 0.000000 1.788600 
# 
# From -- ./inp_files/2708.got.cif
#   From: 2010.05.17/outbox.cif.g08.bks.cpg/sg113_cif.got.tgz:2708.got - 2010.05.20 11:03:00.
