data_PCOD9555084
_publ_section_title
;
Structure prediction by ZEFSAII (Michael W. Deem and Ramdas Pophale) SiO2 
 PCOD9555084
Probable space group: P -4 2 C
;
_chemical_formula_sum "Si O2"
_cell_formula_units_Z 34
_cell_length_a 11.598113
_cell_length_b 11.598113
_cell_length_c 9.549480
_cell_angle_alpha 90.000000
_cell_angle_beta 90.000000
_cell_angle_gamma 90.000000
_cell_volume 1284.560002
_symmetry_space_group_name_H-M "P -4 2 C"
_symmetry_group_IT_number 112
_symmetry_cell_setting 'tetragonal'
loop_
_space_group_symop_operation_xyz
x,y,z
y,-x,-z
-x,-y,z
-y,x,-z
x,-y,1/2-z
-x,y,1/2-z
-y,-x,1/2+z
y,x,1/2+z
loop_
_atom_site_type_symbol
_atom_site_label
_atom_site_fract_x
_atom_site_fract_y
_atom_site_fract_z
Si Si1 0.155680 0.315018 0.615338
Si Si2 0.500000 0.500000 0.750000
Si Si3 0.597997 0.937973 0.518251
Si Si4 0.135784 0.063973 0.566736
Si Si5 0.358204 0.299255 0.392820
O O1 0.112308 0.185008 0.638697
O O2 0.238718 0.317883 0.477386
O O3 0.236468 0.343564 0.744395
O O4 0.040356 0.389139 0.598547
O O5 0.416226 0.575618 0.649065
O O6 0.727175 0.940615 0.576583
O O7 0.578076 0.804041 0.479359
O O8 0.500000 0.000000 0.606868
O O9 0.067357 0.092617 0.418014
#
# Coordination Sequence:
#
# PCOD9555084 Si02
#       5
#     8   2   8   8   8
#     4  10  22  42  68  97 129 173 229 285 347 414
#     4  12  28  46  70 102 150 194 240 290 352 438
#     4  10  20  39  66  94 128 176 230 277 333 414
#     4   8  16  34  60  91 127 165 212 277 347 408
#     4  11  25  42  65  98 134 180 231 287 349 418
#
# _framework density 26.468205000000001
#
# number of rings (size 3 to 8) (size 9 to 14) (size 15 to 20)
#    0.000    2.118    0.000    2.118    0.000    7.529 
#    0.000   18.824    0.000   33.882    0.000    0.000 
#    0.000    0.000    0.000    0.000    0.000    0.000 
#
# Total GULP energy -189354.058072 kJ/mol
# GULP energy per Si atom -5569.237002 kJ/mol
# Density = 2.640796 g / cm^3
# Si number density = 26.468205 Si / 1000 Ang^3
#
#
#
# Elastic Constant Matrix: (Units=GPa)
#
#
# Indices 1 2 3 4 5 6 
#
# 1 198.2743 93.7531 39.6344 0.0000 0.0000 0.0000
# 2 93.7531 198.2743 39.6344 0.0000 0.0000 0.0000
# 3 39.6344 39.6344 88.7015 0.0000 0.0000 0.0000
# 4 0.0000 0.0000 0.0000 8.4273 0.0000 0.0000
# 5 0.0000 0.0000 0.0000 0.0000 8.4273 0.0000
# 6 0.0000 0.0000 0.0000 0.0000 0.0000 73.1994
#
#
#
# Elastic Compliance Matrix: (Units=1/GPa)
#
#
# Indices 1 2 3 4 5 6 
#
# 1 0.006732 -0.002835 -0.001741 0.000000 0.000000 0.000000
# 2 -0.002835 0.006732 -0.001741 0.000000 0.000000 0.000000
# 3 -0.001741 -0.001741 0.012830 0.000000 0.000000 0.000000
# 4 0.000000 0.000000 0.000000 0.118661 0.000000 0.000000
# 5 0.000000 0.000000 0.000000 0.000000 0.118661 0.000000
# 6 0.000000 0.000000 0.000000 0.000000 0.000000 0.013661
#
#
# Mechanical properties :
#
#
# Convention : Reuss Voigt Hill
#
# Bulk Modulus (GPa) = 73.21332 92.36599 82.78965
# Shear Modulus (GPa) = 16.97983 38.82601 27.90292
#
# Velocity S-wave (km/s) = 2.53557 3.83416 3.25038
# Velocity P-wave (km/s) = 6.02437 7.38740 6.74043
#
# Compressibility (1/GPa) = 0.01365872
#
# Stress axis : x y z
#
# Youngs Moduli (GPa) = 148.53939 148.53939 77.94299
#
# Poissons Ratio (x) = 0.42114 0.13572
# Poissons Ratio (y) = 0.42114 0.13572
# Poissons Ratio (z) = 0.25865 0.25865
#
# Static dielectric constant tensor:
#      x y z
#    x 2.064960 0.000000 0.000000 
#    y 0.000000 2.064960 0.000000 
#    z 0.000000 0.000000 2.386830 
# 
# From -- ./inp_files/3206.got.cif
#   From: 2010.05.17/outbox.cif.g08.bks.cpg/sg112_2_cif.got.tgz:3206.got - 2010.05.20 10:59:04.
