data_PCOD9555185
_publ_section_title
;
Structure prediction by ZEFSAII (Michael W. Deem and Ramdas Pophale) SiO2 
 PCOD9555185
Probable space group: P -4 2 C
;
_chemical_formula_sum "Si O2"
_cell_formula_units_Z 38
_cell_length_a 8.529392
_cell_length_b 8.529392
_cell_length_c 24.628312
_cell_angle_alpha 90.000000
_cell_angle_beta 90.000000
_cell_angle_gamma 90.000000
_cell_volume 1791.722699
_symmetry_space_group_name_H-M "P -4 2 C"
_symmetry_group_IT_number 112
_symmetry_cell_setting 'tetragonal'
loop_
_space_group_symop_operation_xyz
x,y,z
y,-x,-z
-x,-y,z
-y,x,-z
x,-y,1/2-z
-x,y,1/2-z
-y,-x,1/2+z
y,x,1/2+z
loop_
_atom_site_type_symbol
_atom_site_label
_atom_site_fract_x
_atom_site_fract_y
_atom_site_fract_z
Si Si1 0.598105 0.839101 0.608814
Si Si2 0.285794 0.723576 0.108770
Si Si3 0.812638 0.002361 0.686947
Si Si4 0.500000 0.500000 0.500000
Si Si5 0.302556 0.219072 0.016069
Si Si6 0.500000 0.000000 0.417123
O O1 0.467446 0.701327 0.613380
O O2 0.723231 0.859882 0.656813
O O3 0.696295 0.823292 0.553802
O O4 0.500000 0.000000 0.607245
O O5 0.158777 0.764640 0.154651
O O6 0.426720 0.849857 0.114274
O O7 0.214289 0.736861 0.047299
O O8 0.766951 0.000000 0.750000
O O9 0.000000 0.000000 0.683211
O O10 0.455172 0.667488 0.475663
O O11 0.359589 0.061928 0.044684
#
# Coordination Sequence:
#
# PCOD9555185 Si02
#       6
#     8   8   8   2   8   4
#     4  10  22  40  65  97 136 177 226 285 339 424
#     4  11  23  35  63  94 131 179 223 282 336 419
#     4  10  23  45  67  95 132 175 225 288 355 409
#     4  12  20  36  60  84 130 204 200 284 332 442
#     4  12  22  36  59  93 138 179 219 277 346 416
#     4  12  24  38  58  97 143 182 226 272 354 418
#
# _framework density 21.208638000000001
#
# number of rings (size 3 to 8) (size 9 to 14) (size 15 to 20)
#    0.000    1.053    4.211    1.263   11.789    3.789 
#    0.000    0.000    0.000   10.105    0.000   19.158 
#    0.000    0.000    0.000    0.000    0.000    0.000 
#
# Total GULP energy -211735.864113 kJ/mol
# GULP energy per Si atom -5571.996424 kJ/mol
# Density = 2.116037 g / cm^3
# Si number density = 21.208638 Si / 1000 Ang^3
#
#
#
# Elastic Constant Matrix: (Units=GPa)
#
#
# Indices 1 2 3 4 5 6 
#
# 1 87.2668 30.2845 42.0616 0.0000 0.0000 0.0000
# 2 30.2845 87.2668 42.0616 0.0000 0.0000 0.0000
# 3 42.0616 42.0616 152.4559 0.0000 0.0000 0.0000
# 4 0.0000 0.0000 0.0000 24.1864 0.0000 0.0000
# 5 0.0000 0.0000 0.0000 0.0000 24.1864 0.0000
# 6 0.0000 0.0000 0.0000 0.0000 0.0000 49.6219
#
#
#
# Elastic Compliance Matrix: (Units=1/GPa)
#
#
# Indices 1 2 3 4 5 6 
#
# 1 0.014074 -0.003475 -0.002924 0.000000 0.000000 0.000000
# 2 -0.003475 0.014074 -0.002924 0.000000 0.000000 0.000000
# 3 -0.002924 -0.002924 0.008173 0.000000 0.000000 0.000000
# 4 0.000000 0.000000 0.000000 0.041346 0.000000 0.000000
# 5 0.000000 0.000000 0.000000 0.000000 0.041346 0.000000
# 6 0.000000 0.000000 0.000000 0.000000 0.000000 0.020152
#
#
# Mechanical properties :
#
#
# Convention : Reuss Voigt Hill
#
# Bulk Modulus (GPa) = 56.57784 61.75609 59.16696
# Shear Modulus (GPa) = 30.54291 33.77107 32.15699
#
# Velocity S-wave (km/s) = 3.79900 3.99473 3.89809
# Velocity P-wave (km/s) = 6.78070 7.10343 6.94394
#
# Compressibility (1/GPa) = 0.01767477
#
# Stress axis : x y z
#
# Youngs Moduli (GPa) = 71.05050 71.05050 122.35546
#
# Poissons Ratio (x) = 0.24689 0.35781
# Poissons Ratio (y) = 0.24689 0.35781
# Poissons Ratio (z) = 0.20778 0.20778
#
# Static dielectric constant tensor:
#      x y z
#    x 1.858340 0.000000 0.000000 
#    y 0.000000 1.858340 0.000000 
#    z 0.000000 0.000000 1.756000 
# 
# From -- ./inp_files/5375.got.cif
#   From: 2010.05.17/outbox.cif.g08.bks.cpg/sg112_3_cif.got.tgz:5375.got - 2010.05.20 10:59:04.
