data_PCOD9555513
_publ_section_title
;
Structure prediction by ZEFSAII (Michael W. Deem and Ramdas Pophale) SiO2 
 PCOD9555513
Probable space group: P -4 21 M 
;
_chemical_formula_sum "Si O2"
_cell_formula_units_Z 48
_cell_length_a 19.724900
_cell_length_b 19.724900
_cell_length_c 7.485930
_cell_angle_alpha 90.000000
_cell_angle_beta 90.000000
_cell_angle_gamma 90.000000
_cell_volume 2912.563362
_symmetry_space_group_name_H-M "P -4 21 M "
_symmetry_group_IT_number 113
_symmetry_cell_setting 'tetragonal'
loop_
_space_group_symop_operation_xyz
x,y,z
y,-x,-z
-x,-y,z
-y,x,-z
1/2+x,1/2-y,-z
1/2-x,1/2+y,-z
1/2-y,1/2-x,z
1/2+y,1/2+x,z
loop_
_atom_site_type_symbol
_atom_site_label
_atom_site_fract_x
_atom_site_fract_y
_atom_site_fract_z
Si Si1 0.857482 0.754688 0.591729
Si Si2 0.578715 0.808471 0.756127
Si Si3 0.245321 0.142514 0.408270
Si Si4 0.921283 0.691535 0.243892
Si Si5 0.190383 0.079626 0.046455
Si Si6 0.309622 0.420366 0.953560
O O1 0.801384 0.698617 0.647086
O O2 0.815686 0.815692 0.499993
O O3 0.903959 0.721341 0.439252
O O4 0.898346 0.780798 0.761388
O O5 0.629175 0.870826 0.789245
O O6 0.596047 0.778673 0.560764
O O7 0.499998 0.827954 0.767484
O O8 0.591780 0.749087 0.899595
O O9 0.301388 0.198613 0.352890
O O10 0.219213 0.101639 0.238626
O O11 0.870818 0.629183 0.210801
O O12 0.908214 0.750915 0.100415
O O13 0.173695 0.999996 0.044484
O O14 0.126508 0.126503 0.000017
#
# Coordination Sequence:
#
# PCOD9555513 Si02
#       6
#     8   8   8   8   8   8
#     4  10  19  33  57  83 106 135 177 228 273 315
#     4  10  21  36  56  83 112 144 180 218 267 322
#     4  10  19  33  57  83 106 135 177 228 273 315
#     4  10  21  36  56  83 112 144 180 218 267 322
#     4  11  22  36  55  78 109 144 182 226 272 320
#     4  11  22  36  55  78 109 144 182 226 272 320
#
# _framework density 16.480326999999999
#
# number of rings (size 3 to 8) (size 9 to 14) (size 15 to 20)
#    0.000    1.667    3.333    2.000    0.000    2.000 
#    0.000    0.000    0.000    0.000    0.000    4.667 
#    0.000    0.000    0.000    0.000    0.000    0.000 
#
# Total GULP energy -268004.829908 kJ/mol
# GULP energy per Si atom -5583.433956 kJ/mol
# Density = 1.644282 g / cm^3
# Si number density = 16.480327 Si / 1000 Ang^3
#
#
#
# Elastic Constant Matrix: (Units=GPa)
#
#
# Indices 1 2 3 4 5 6 
#
# 1 131.0047 103.1192 69.2931 0.0000 0.0000 0.0000
# 2 103.1192 131.0027 69.2935 0.0000 0.0000 0.0000
# 3 69.2931 69.2935 106.5053 0.0000 0.0000 0.0000
# 4 0.0000 0.0000 0.0000 23.8859 0.0000 0.0000
# 5 0.0000 0.0000 0.0000 0.0000 23.8854 0.0000
# 6 0.0000 0.0000 0.0000 0.0000 0.0000 14.5455
#
#
#
# Elastic Compliance Matrix: (Units=1/GPa)
#
#
# Indices 1 2 3 4 5 6 
#
# 1 0.021404 -0.014458 -0.004519 0.000000 0.000000 0.000000
# 2 -0.014458 0.021405 -0.004520 0.000000 0.000000 0.000000
# 3 -0.004519 -0.004520 0.015270 0.000000 0.000000 0.000000
# 4 0.000000 0.000000 0.000000 0.041866 0.000000 0.000000
# 5 0.000000 0.000000 0.000000 0.000000 0.041867 0.000000
# 6 0.000000 0.000000 0.000000 0.000000 0.000000 0.068750
#
#
# Mechanical properties :
#
#
# Convention : Reuss Voigt Hill
#
# Bulk Modulus (GPa) = 90.21054 94.65827 92.43441
# Shear Modulus (GPa) = 19.13879 20.91715 20.02797
#
# Velocity S-wave (km/s) = 3.41150 3.56648 3.48985
# Velocity P-wave (km/s) = 8.38898 8.63258 8.51165
#
# Compressibility (1/GPa) = 0.01108518
#
# Stress axis : x y z
#
# Youngs Moduli (GPa) = 46.72015 46.71874 65.48786
#
# Poissons Ratio (x) = 0.67545 0.29595
# Poissons Ratio (y) = 0.67547 0.29599
# Poissons Ratio (z) = 0.21114 0.21116
#
# Static dielectric constant tensor:
#      x y z
#    x 1.532310 0.000000 0.000000 
#    y 0.000000 1.532310 0.000000 
#    z 0.000000 0.000000 1.536170 
# 
# From -- ./inp_files/456.got.cif
#   From: 2010.05.17/outbox.cif.g08.bks.cpg/sg113_cif.got.tgz:456.got - 2010.05.20 11:03:00.
