data_PCOD9555950
_publ_section_title
;
Structure prediction by ZEFSAII (Michael W. Deem and Ramdas Pophale) SiO2 
 PCOD9555950
Probable space group: P -4 21 C
;
_chemical_formula_sum "Si O2"
_cell_formula_units_Z 40
_cell_length_a 10.602904
_cell_length_b 10.602904
_cell_length_c 16.791746
_cell_angle_alpha 90.000000
_cell_angle_beta 90.000000
_cell_angle_gamma 90.000000
_cell_volume 1887.754503
_symmetry_space_group_name_H-M "P -4 21 C"
_symmetry_group_IT_number 114
_symmetry_cell_setting 'tetragonal'
loop_
_space_group_symop_operation_xyz
x,y,z
y,-x,-z
-x,-y,z
-y,x,-z
1/2+x,1/2-y,1/2-z
1/2-x,1/2+y,1/2-z
1/2-y,1/2-x,1/2+z
1/2+y,1/2+x,1/2+z
loop_
_atom_site_type_symbol
_atom_site_label
_atom_site_fract_x
_atom_site_fract_y
_atom_site_fract_z
Si Si1 0.908912 0.894367 0.337520
Si Si2 0.295541 0.537073 0.480912
Si Si3 0.128292 0.466041 0.779653
Si Si4 0.871399 0.312933 0.129297
Si Si5 0.546845 0.301003 0.691480
O O1 0.980072 0.761596 0.323900
O O2 0.772822 0.860857 0.374984
O O3 0.870711 0.955828 0.252279
O O4 0.000000 0.000000 0.375976
O O5 0.404960 0.641924 0.491396
O O6 0.184460 0.568924 0.542034
O O7 0.262673 0.527453 0.388241
O O8 0.125044 0.550649 0.700556
O O9 0.112238 0.317021 0.764480
O O10 0.000000 0.500000 0.825816
O O11 0.876800 0.165714 0.156800
#
# Coordination Sequence:
#
# PCOD9555950 Si02
#       5
#     8   8   8   8   8
#     4  11  21  35  61  91 126 164 207 261 334 391
#     4   9  18  33  58  91 126 159 208 267 324 376
#     4  11  21  35  56  88 122 159 212 262 318 384
#     4  10  20  36  58  92 127 158 210 268 323 382
#     4  10  20  35  59  89 121 165 207 262 321 385
#
# _framework density 21.189198000000001
#
# number of rings (size 3 to 8) (size 9 to 14) (size 15 to 20)
#    0.000    1.800    4.000    1.200    2.800    0.000 
#    0.000    1.000    0.000    0.000    0.000    0.000 
#    0.000    0.000    0.000    0.000    0.000    0.000 
#
# Total GULP energy -222931.872183 kJ/mol
# GULP energy per Si atom -5573.296805 kJ/mol
# Density = 2.114097 g / cm^3
# Si number density = 21.189198 Si / 1000 Ang^3
#
#
#
# Elastic Constant Matrix: (Units=GPa)
#
#
# Indices 1 2 3 4 5 6 
#
# 1 82.9520 10.4371 4.2625 0.0000 0.0000 0.0000
# 2 10.4371 82.9520 4.2625 0.0000 0.0000 0.0000
# 3 4.2625 4.2625 32.6765 0.0000 0.0000 0.0000
# 4 0.0000 0.0000 0.0000 13.0253 0.0000 0.0000
# 5 0.0000 0.0000 0.0000 0.0000 13.0253 0.0000
# 6 0.0000 0.0000 0.0000 0.0000 0.0000 33.4887
#
#
#
# Elastic Compliance Matrix: (Units=1/GPa)
#
#
# Indices 1 2 3 4 5 6 
#
# 1 0.012314 -0.001477 -0.001414 0.000000 0.000000 0.000000
# 2 -0.001477 0.012314 -0.001414 0.000000 0.000000 0.000000
# 3 -0.001414 -0.001414 0.030972 0.000000 0.000000 0.000000
# 4 0.000000 0.000000 0.000000 0.076773 0.000000 0.000000
# 5 0.000000 0.000000 0.000000 0.000000 0.076773 0.000000
# 6 0.000000 0.000000 0.000000 0.000000 0.000000 0.029861
#
#
# Mechanical properties :
#
#
# Convention : Reuss Voigt Hill
#
# Bulk Modulus (GPa) = 21.28060 26.27832 23.77946
# Shear Modulus (GPa) = 18.99130 23.88244 21.43687
#
# Velocity S-wave (km/s) = 2.99703 3.36088 3.18416
# Velocity P-wave (km/s) = 4.69480 5.24303 4.97647
#
# Compressibility (1/GPa) = 0.04699116
#
# Stress axis : x y z
#
# Youngs Moduli (GPa) = 81.21106 81.21106 32.28737
#
# Poissons Ratio (x) = 0.11992 0.04564
# Poissons Ratio (y) = 0.11992 0.04564
# Poissons Ratio (z) = 0.11480 0.11480
#
# Static dielectric constant tensor:
#      x y z
#    x 1.833630 0.000000 0.000000 
#    y 0.000000 1.833630 0.000000 
#    z 0.000000 0.000000 1.756390 
# 
# From -- ./inp_files/2143.got.cif
#   From: 2010.05.17/outbox.cif.g08.bks.cpg/sg114_2_cif.got.tgz:2143.got - 2010.05.20 11:04:54.
