data_PCOD9555034
_publ_section_title
;
Structure prediction by ZEFSAII (Michael W. Deem and Ramdas Pophale) SiO2 
 PCOD9555034
Probable space group: P -4 2 C
;
_chemical_formula_sum "Si O2"
_cell_formula_units_Z 56
_cell_length_a 13.967217
_cell_length_b 13.967217
_cell_length_c 14.281712
_cell_angle_alpha 90.000000
_cell_angle_beta 90.000000
_cell_angle_gamma 90.000000
_cell_volume 2786.121375
_symmetry_space_group_name_H-M "P -4 2 C"
_symmetry_group_IT_number 112
_symmetry_cell_setting 'tetragonal'
loop_
_space_group_symop_operation_xyz
x,y,z
y,-x,-z
-x,-y,z
-y,x,-z
x,-y,1/2-z
-x,y,1/2-z
-y,-x,1/2+z
y,x,1/2+z
loop_
_atom_site_type_symbol
_atom_site_label
_atom_site_fract_x
_atom_site_fract_y
_atom_site_fract_z
Si Si1 0.559773 0.381956 0.044047
Si Si2 0.184541 0.149559 0.591439
Si Si3 0.278830 0.582042 0.177416
Si Si4 0.165308 0.628964 0.542624
Si Si5 0.227010 0.063089 0.927731
Si Si6 0.797319 0.240603 0.711424
Si Si7 0.086856 0.549815 0.059823
O O1 0.618076 0.424133 0.130321
O O2 0.589495 0.273116 0.039924
O O3 0.446859 0.398250 0.040710
O O4 0.285687 0.165174 0.535234
O O5 0.099547 0.172741 0.519748
O O6 0.170428 0.212967 0.684435
O O7 0.189941 0.036992 0.611412
O O8 0.265280 0.500000 0.250000
O O9 0.272468 0.687137 0.220438
O O10 0.191204 0.565813 0.105330
O O11 0.150526 0.681289 0.643756
O O12 0.102602 0.534612 0.517865
O O13 0.339701 0.056832 0.956476
O O14 0.209836 0.144283 0.850345
O O15 0.000000 0.500000 0.118596
#
# Coordination Sequence:
#
# PCOD9555034 Si02
#       7
#     8   8   8   8   8   8   8
#     4  10  20  35  57  78 117 171 204 239 300 360
#     4  11  21  41  63  91 125 156 206 262 319 388
#     4  10  20  34  56  91 123 159 210 258 311 359
#     4  10  20  37  61  86 126 166 206 253 316 364
#     4  10  23  38  65  94 119 167 202 256 326 376
#     4   9  21  37  61  92 124 160 200 262 321 369
#     4  11  20  37  62  88 121 163 208 252 308 374
#
# _framework density 20.099626000000001
#
# number of rings (size 3 to 8) (size 9 to 14) (size 15 to 20)
#    0.000    1.857    2.857    2.143    0.000    0.571 
#    0.000    5.000    0.000    4.286    0.000    0.000 
#    0.000    0.000    0.000    0.000    0.000    0.000 
#
# Total GULP energy -311784.993510 kJ/mol
# GULP energy per Si atom -5567.589170 kJ/mol
# Density = 2.005388 g / cm^3
# Si number density = 20.099626 Si / 1000 Ang^3
#
#
#
# Elastic Constant Matrix: (Units=GPa)
#
#
# Indices 1 2 3 4 5 6 
#
# 1 -12.8473 56.0745 2.8648 0.0000 0.0000 0.0000
# 2 56.0745 -12.8473 2.8648 0.0000 0.0000 0.0000
# 3 2.8648 2.8648 66.7786 0.0000 0.0000 0.0000
# 4 0.0000 0.0000 0.0000 -9.2178 0.0000 0.0000
# 5 0.0000 0.0000 0.0000 0.0000 -9.2178 0.0000
# 6 0.0000 0.0000 0.0000 0.0000 0.0000 32.9621
#
#
#
# Elastic Compliance Matrix: (Units=1/GPa)
#
#
# Indices 1 2 3 4 5 6 
#
# 1 0.004378 0.018888 -0.000998 0.000000 0.000000 0.000000
# 2 0.018888 0.004378 -0.000998 0.000000 0.000000 0.000000
# 3 -0.000998 -0.000998 0.015060 0.000000 0.000000 0.000000
# 4 0.000000 0.000000 0.000000 -0.108486 0.000000 0.000000
# 5 0.000000 0.000000 0.000000 0.000000 -0.108486 0.000000
# 6 0.000000 0.000000 0.000000 0.000000 0.000000 0.030338
#
#
# Mechanical properties :
#
#
# Convention : Reuss Voigt Hill
#
# Bulk Modulus (GPa) = 17.36118 18.29915 17.83017
# Shear Modulus (GPa) = -28.18485 1.52399 -13.33043
#
# Velocity S-wave (km/s) = -3.74874 0.87170 -2.57810
# Velocity P-wave (km/s) = 3.17507 3.18389 0.16748
#
# Compressibility (1/GPa) = 0.05759977
#
# Stress axis : x y z
#
# Youngs Moduli (GPa) = 228.39745 228.39745 66.39891
#
# Poissons Ratio (x) = -4.31386 0.06627
# Poissons Ratio (y) = -4.31386 0.06627
# Poissons Ratio (z) = 0.22797 0.22797
#
# Static dielectric constant tensor:
#      x y z
#    x 1.759930 0.000000 0.000000 
#    y 0.000000 1.759930 0.000000 
#    z 0.000000 0.000000 1.741370 
# 
# From -- ./inp_files/2651.got.cif
#   From: 2010.05.17/outbox.cif.g08.bks.cpg/sg112_2_cif.got.tgz:2651.got - 2010.05.20 10:59:04.
