data_PCOD9555335
_publ_section_title
;
Structure prediction by ZEFSAII (Michael W. Deem and Ramdas Pophale) SiO2 
 PCOD9555335
Probable space group: P -4 2 C
;
_chemical_formula_sum "Si O2"
_cell_formula_units_Z 32
_cell_length_a 8.174304
_cell_length_b 8.174304
_cell_length_c 23.942283
_cell_angle_alpha 90.000000
_cell_angle_beta 90.000000
_cell_angle_gamma 90.000000
_cell_volume 1599.805295
_symmetry_space_group_name_H-M "P -4 2 C"
_symmetry_group_IT_number 112
_symmetry_cell_setting 'tetragonal'
loop_
_space_group_symop_operation_xyz
x,y,z
y,-x,-z
-x,-y,z
-y,x,-z
x,-y,1/2-z
-x,y,1/2-z
-y,-x,1/2+z
y,x,1/2+z
loop_
_atom_site_type_symbol
_atom_site_label
_atom_site_fract_x
_atom_site_fract_y
_atom_site_fract_z
Si Si1 0.691514 0.306909 0.499886
Si Si2 0.499319 0.304352 0.686397
Si Si3 0.819891 0.803325 0.618056
Si Si4 0.182084 0.804958 0.617833
O O1 0.499168 0.282179 0.511657
O O2 0.740553 0.208919 0.444829
O O3 0.789565 0.256717 0.554805
O O4 0.500000 0.500000 0.687249
O O5 0.500000 0.241768 0.750000
O O6 0.333602 0.252341 0.655002
O O7 0.663687 0.250611 0.654476
O O8 0.001323 0.749567 0.637584
O O9 0.817467 0.999194 0.617032
#
# Coordination Sequence:
#
# PCOD9555335 Si02
#       4
#     8   8   8   8
#     4  11  22  37  62  96 132 169 211 264 330 392
#     4  11  25  45  67  93 127 171 221 270 325 388
#     4  11  24  41  64  96 130 168 216 268 328 395
#     4  11  24  41  64  96 130 168 216 268 328 395
#
# _framework density 20.002435999999999
#
# number of rings (size 3 to 8) (size 9 to 14) (size 15 to 20)
#    0.000    1.000    2.500    3.750    0.000   11.000 
#    0.000    5.000    0.000    0.000    0.000    0.000 
#    0.000    0.000    0.000    0.000    0.000    0.000 
#
# Total GULP energy -178931.157199 kJ/mol
# GULP energy per Si atom -5591.598662 kJ/mol
# Density = 1.995691 g / cm^3
# Si number density = 20.002436 Si / 1000 Ang^3
#
#
#
# Elastic Constant Matrix: (Units=GPa)
#
#
# Indices 1 2 3 4 5 6 
#
# 1 113.5588 50.4374 44.1641 0.0000 0.0000 0.0000
# 2 50.4374 113.5588 44.1641 0.0000 0.0000 0.0000
# 3 44.1641 44.1641 115.5798 0.0000 0.0000 0.0000
# 4 0.0000 0.0000 0.0000 -8.5816 0.0000 0.0000
# 5 0.0000 0.0000 0.0000 0.0000 -8.5816 0.0000
# 6 0.0000 0.0000 0.0000 0.0000 0.0000 30.2723
#
#
#
# Elastic Compliance Matrix: (Units=1/GPa)
#
#
# Indices 1 2 3 4 5 6 
#
# 1 0.011760 -0.004082 -0.002934 0.000000 0.000000 0.000000
# 2 -0.004082 0.011760 -0.002934 0.000000 0.000000 0.000000
# 3 -0.002934 -0.002934 0.010894 0.000000 0.000000 0.000000
# 4 0.000000 0.000000 0.000000 -0.116529 0.000000 0.000000
# 5 0.000000 0.000000 0.000000 0.000000 -0.116529 0.000000
# 6 0.000000 0.000000 0.000000 0.000000 0.000000 0.033034
#
#
# Mechanical properties :
#
#
# Convention : Reuss Voigt Hill
#
# Bulk Modulus (GPa) = 68.89589 68.91428 68.90509
# Shear Modulus (GPa) = -35.49339 16.21728 -9.63805
#
# Velocity S-wave (km/s) = -4.21700 2.85048 -2.19748
# Velocity P-wave (km/s) = 3.28752 6.73509 5.29949
#
# Compressibility (1/GPa) = 0.01451465
#
# Stress axis : x y z
#
# Youngs Moduli (GPa) = 85.03292 85.03292 91.79312
#
# Poissons Ratio (x) = 0.34713 0.26930
# Poissons Ratio (y) = 0.34713 0.26930
# Poissons Ratio (z) = 0.24947 0.24947
#
# Static dielectric constant tensor:
#      x y z
#    x 1.692200 0.000000 0.000000 
#    y 0.000000 1.692200 0.000000 
#    z 0.000000 0.000000 1.688140 
# 
# From -- ./inp_files/5189.got.cif
#   From: 2010.05.17/outbox.cif.g08.bks.cpg/sg112_3_cif.got.tgz:5189.got - 2010.05.20 10:59:04.
