data_PCOD9555040
_publ_section_title
;
Structure prediction by ZEFSAII (Michael W. Deem and Ramdas Pophale) SiO2 
 PCOD9555040
Probable space group: P -4 2 C
;
_chemical_formula_sum "Si O2"
_cell_formula_units_Z 50
_cell_length_a 12.065523
_cell_length_b 12.065523
_cell_length_c 20.374346
_cell_angle_alpha 90.000000
_cell_angle_beta 90.000000
_cell_angle_gamma 90.000000
_cell_volume 2966.033015
_symmetry_space_group_name_H-M "P -4 2 C"
_symmetry_group_IT_number 112
_symmetry_cell_setting 'tetragonal'
loop_
_space_group_symop_operation_xyz
x,y,z
y,-x,-z
-x,-y,z
-y,x,-z
x,-y,1/2-z
-x,y,1/2-z
-y,-x,1/2+z
y,x,1/2+z
loop_
_atom_site_type_symbol
_atom_site_label
_atom_site_fract_x
_atom_site_fract_y
_atom_site_fract_z
Si Si1 0.249534 0.776900 0.908273
Si Si2 0.633775 0.300143 0.791746
Si Si3 0.627511 0.006527 0.573016
Si Si4 0.166644 0.048645 0.016944
Si Si5 0.404627 0.223196 0.848221
Si Si6 0.612425 0.643407 0.985096
Si Si7 0.500000 0.500000 0.750000
O O1 0.265951 0.713313 0.840626
O O2 0.325391 0.886921 0.907624
O O3 0.124713 0.816752 0.920038
O O4 0.291972 0.697734 0.967365
O O5 0.531445 0.229782 0.822501
O O6 0.657831 0.265951 0.716942
O O7 0.579452 0.421634 0.791672
O O8 0.715684 0.043759 0.518567
O O9 0.626254 0.099460 0.629822
O O10 0.500000 0.000000 0.549744
O O11 0.073759 0.116086 0.974935
O O12 0.390165 0.301339 0.912502
O O13 0.646726 0.513523 0.986678
#
# Coordination Sequence:
#
# PCOD9555040 Si02
#       7
#     8   8   8   8   8   8   2
#     4  11  21  33  54  80 109 146 190 227 279 339
#     4  10  21  34  51  80 113 161 180 223 282 348
#     4  11  19  34  54  84 114 138 181 233 285 339
#     4   9  20  37  57  79 110 148 188 236 285 334
#     4  10  20  35  49  78 117 143 181 224 291 333
#     4  11  21  31  51  78 110 147 185 231 277 342
#     4   8  20  32  48  68 124 154 184 202 282 352
#
# _framework density 16.857531999999999
#
# number of rings (size 3 to 8) (size 9 to 14) (size 15 to 20)
#    0.000    1.920    4.800    0.000    4.480    0.640 
#    0.000    0.000    0.000    0.960    0.000    4.480 
#    0.000    0.000    0.000    0.000    0.000    0.000 
#
# Total GULP energy -278364.689950 kJ/mol
# GULP energy per Si atom -5567.293799 kJ/mol
# Density = 1.681916 g / cm^3
# Si number density = 16.857532 Si / 1000 Ang^3
#
#
#
# Elastic Constant Matrix: (Units=GPa)
#
#
# Indices 1 2 3 4 5 6 
#
# 1 91.4227 23.4422 41.3745 0.0000 0.0000 0.0000
# 2 23.4422 91.4227 41.3745 0.0000 0.0000 0.0000
# 3 41.3745 41.3745 116.7059 0.0000 0.0000 0.0000
# 4 0.0000 0.0000 0.0000 11.0489 0.0000 0.0000
# 5 0.0000 0.0000 0.0000 0.0000 11.0489 0.0000
# 6 0.0000 0.0000 0.0000 0.0000 0.0000 14.9763
#
#
#
# Elastic Compliance Matrix: (Units=1/GPa)
#
#
# Indices 1 2 3 4 5 6 
#
# 1 0.013201 -0.001509 -0.004145 0.000000 0.000000 0.000000
# 2 -0.001509 0.013201 -0.004145 0.000000 0.000000 0.000000
# 3 -0.004145 -0.004145 0.011508 0.000000 0.000000 0.000000
# 4 0.000000 0.000000 0.000000 0.090506 0.000000 0.000000
# 5 0.000000 0.000000 0.000000 0.000000 0.090506 0.000000
# 6 0.000000 0.000000 0.000000 0.000000 0.000000 0.066772
#
#
# Mechanical properties :
#
#
# Convention : Reuss Voigt Hill
#
# Bulk Modulus (GPa) = 54.61090 56.88151 55.74620
# Shear Modulus (GPa) = 16.05669 20.30550 18.18110
#
# Velocity S-wave (km/s) = 3.08960 3.47441 3.28764
# Velocity P-wave (km/s) = 6.72260 7.06478 6.89581
#
# Compressibility (1/GPa) = 0.01831136
#
# Stress axis : x y z
#
# Youngs Moduli (GPa) = 75.75160 75.75160 86.89965
#
# Poissons Ratio (x) = 0.11431 0.36020
# Poissons Ratio (y) = 0.11431 0.36020
# Poissons Ratio (z) = 0.31399 0.31399
#
# Static dielectric constant tensor:
#      x y z
#    x 1.615490 0.000000 0.000000 
#    y 0.000000 1.615490 0.000000 
#    z 0.000000 0.000000 1.582810 
# 
# From -- ./inp_files/4888.got.cif
#   From: 2010.05.17/outbox.cif.g08.bks.cpg/sg112_3_cif.got.tgz:4888.got - 2010.05.20 10:59:04.
