data_PCOD9555476
_publ_section_title
;
Structure prediction by ZEFSAII (Michael W. Deem and Ramdas Pophale) SiO2 
 PCOD9555476
Probable space group: P -4 21 M 
;
_chemical_formula_sum "Si O2"
_cell_formula_units_Z 28
_cell_length_a 10.161513
_cell_length_b 10.161513
_cell_length_c 15.650889
_cell_angle_alpha 90.000000
_cell_angle_beta 90.000000
_cell_angle_gamma 90.000000
_cell_volume 1616.053617
_symmetry_space_group_name_H-M "P -4 21 M "
_symmetry_group_IT_number 113
_symmetry_cell_setting 'tetragonal'
loop_
_space_group_symop_operation_xyz
x,y,z
y,-x,-z
-x,-y,z
-y,x,-z
1/2+x,1/2-y,-z
1/2-x,1/2+y,-z
1/2-y,1/2-x,z
1/2+y,1/2+x,z
loop_
_atom_site_type_symbol
_atom_site_label
_atom_site_fract_x
_atom_site_fract_y
_atom_site_fract_z
Si Si1 0.281673 0.500001 0.500001
Si Si2 0.000000 0.500000 0.201563
Si Si3 0.862532 0.637469 0.953289
Si Si4 0.000000 0.500000 0.798437
Si Si5 0.862533 0.362533 0.046710
Si Si6 0.360998 0.139003 0.354254
Si Si7 0.139001 0.361000 0.354256
O O1 0.374185 0.625816 0.487798
O O2 0.199454 0.526312 0.585081
O O3 0.199453 0.473690 0.414921
O O4 0.909403 0.409403 0.140585
O O5 0.912524 0.587477 0.264894
O O6 0.909402 0.590599 0.859414
O O7 0.750000 0.750001 0.954908
O O8 0.820267 0.500000 0.999999
O O9 0.912522 0.412522 0.735108
O O10 0.249999 0.250002 0.341754
#
# Coordination Sequence:
#
# PCOD9555476 Si02
#       7
#     8   2   4   2   4   4   4
#     4   9  18  31  46  66  96 139 186 221 254 304
#     4  10  21  33  52  82 110 132 170 219 271 324
#     4   9  21  41  62  84 110 140 177 219 268 334
#     4  10  21  33  52  82 110 132 170 219 271 324
#     4   9  21  41  62  84 110 140 177 219 268 334
#     4  10  19  31  48  71 102 138 176 220 265 306
#     4  10  19  31  48  71 102 138 176 220 265 306
#
# _framework density 17.326158
#
# number of rings (size 3 to 8) (size 9 to 14) (size 15 to 20)
#    0.000    2.857    0.000    1.714    0.000    7.429 
#    0.000    0.000    0.000    0.000    0.000    0.000 
#    0.000    0.000    0.000    0.000    0.000    0.000 
#
# Total GULP energy -156040.841658 kJ/mol
# GULP energy per Si atom -5572.887202 kJ/mol
# Density = 1.728672 g / cm^3
# Si number density = 17.326158 Si / 1000 Ang^3
#
#
#
# Elastic Constant Matrix: (Units=GPa)
#
#
# Indices 1 2 3 4 5 6 
#
# 1 103.6914 86.7283 71.0057 0.0000 0.0000 0.0000
# 2 86.7283 103.6905 71.0054 0.0000 0.0000 0.0000
# 3 71.0057 71.0054 162.2805 0.0000 0.0000 0.0000
# 4 0.0000 0.0000 0.0000 26.0289 0.0000 0.0000
# 5 0.0000 0.0000 0.0000 0.0000 26.0296 0.0000
# 6 0.0000 0.0000 0.0000 0.0000 0.0000 42.4379
#
#
#
# Elastic Compliance Matrix: (Units=1/GPa)
#
#
# Indices 1 2 3 4 5 6 
#
# 1 0.033374 -0.025579 -0.003411 0.000000 0.000000 0.000000
# 2 -0.025579 0.033374 -0.003411 0.000000 0.000000 0.000000
# 3 -0.003411 -0.003411 0.009147 0.000000 0.000000 0.000000
# 4 0.000000 0.000000 0.000000 0.038419 0.000000 0.000000
# 5 0.000000 0.000000 0.000000 0.000000 0.038418 0.000000
# 6 0.000000 0.000000 0.000000 0.000000 0.000000 0.023564
#
#
# Mechanical properties :
#
#
# Convention : Reuss Voigt Hill
#
# Bulk Modulus (GPa) = 90.13654 91.90460 91.02057
# Shear Modulus (GPa) = 20.42522 28.29413 24.35968
#
# Velocity S-wave (km/s) = 3.43719 4.04546 3.75366
# Velocity P-wave (km/s) = 8.23946 8.65910 8.45188
#
# Compressibility (1/GPa) = 0.01109428
#
# Stress axis : x y z
#
# Youngs Moduli (GPa) = 29.96332 29.96307 109.32589
#
# Poissons Ratio (x) = 0.76642 0.37289
# Poissons Ratio (y) = 0.76643 0.37289
# Poissons Ratio (z) = 0.10220 0.10220
#
# Static dielectric constant tensor:
#      x y z
#    x 1.607390 0.000000 0.000000 
#    y 0.000000 1.607390 0.000000 
#    z 0.000000 0.000000 1.561700 
# 
# From -- ./inp_files/1524.got.cif
#   From: 2010.05.17/outbox.cif.g08.bks.cpg/sg113_cif.got.tgz:1524.got - 2010.05.20 11:03:00.
