data_PCOD9555591
_publ_section_title
;
Structure prediction by ZEFSAII (Michael W. Deem and Ramdas Pophale) SiO2 
 PCOD9555591
Probable space group: P -4 21 M 
;
_chemical_formula_sum "Si O2"
_cell_formula_units_Z 56
_cell_length_a 11.308810
_cell_length_b 11.308810
_cell_length_c 21.249647
_cell_angle_alpha 90.000000
_cell_angle_beta 90.000000
_cell_angle_gamma 90.000000
_cell_volume 2717.600007
_symmetry_space_group_name_H-M "P -4 21 M "
_symmetry_group_IT_number 113
_symmetry_cell_setting 'tetragonal'
loop_
_space_group_symop_operation_xyz
x,y,z
y,-x,-z
-x,-y,z
-y,x,-z
1/2+x,1/2-y,-z
1/2-x,1/2+y,-z
1/2-y,1/2-x,z
1/2+y,1/2+x,z
loop_
_atom_site_type_symbol
_atom_site_label
_atom_site_fract_x
_atom_site_fract_y
_atom_site_fract_z
Si Si1 0.508275 0.194455 0.646075
Si Si2 0.135606 0.159852 0.711470
Si Si3 0.004862 0.189695 0.980067
Si Si4 0.330824 0.371944 0.853681
Si Si5 0.186282 0.492988 0.101686
Si Si6 0.310894 0.008855 0.376499
Si Si7 0.696478 0.506927 0.491900
O O1 0.404577 0.095424 0.643588
O O2 0.459594 0.298625 0.690362
O O3 0.523599 0.244258 0.575617
O O4 0.626170 0.126170 0.666863
O O5 0.238991 0.261010 0.710168
O O6 0.087272 0.159420 0.782113
O O7 0.035627 0.197620 0.661822
O O8 0.032652 0.201347 0.906713
O O9 0.000536 0.300813 0.025990
O O10 0.887723 0.113680 0.992167
O O11 0.229146 0.270855 0.857695
O O12 0.455325 0.308532 0.871605
O O13 0.134954 0.365047 0.119516
O O14 0.088117 0.588117 0.122236
O O15 0.364528 0.135473 0.358550
O O16 0.286031 0.005676 0.450585
O O17 0.411908 0.911908 0.363269
O O18 0.616051 0.389574 0.492152
#
# Coordination Sequence:
#
# PCOD9555591 Si02
#       7
#     8   8   8   8   8   8   8
#     4  10  20  34  55  82 109 143 185 230 282 333
#     4   9  18  34  53  78 112 144 180 227 269 328
#     4   9  17  30  50  73 101 137 173 211 260 314
#     4   9  17  30  52  78 104 140 176 212 266 319
#     4   9  17  29  48  76 105 132 171 222 267 309
#     4  10  20  35  57  81 106 143 185 227 279 332
#     4  11  22  35  55  80 109 144 186 232 284 331
#
# _framework density 20.606418000000001
#
# number of rings (size 3 to 8) (size 9 to 14) (size 15 to 20)
#    0.000    2.429    1.429    1.286    0.000    4.000 
#    0.000    3.571   12.571    2.571    0.000    0.000 
#    0.000    0.000    0.000    0.000    0.000    0.000 
#
# Total GULP energy -312368.564581 kJ/mol
# GULP energy per Si atom -5578.010082 kJ/mol
# Density = 2.055952 g / cm^3
# Si number density = 20.606418 Si / 1000 Ang^3
#
#
#
# Elastic Constant Matrix: (Units=GPa)
#
#
# Indices 1 2 3 4 5 6 
#
# 1 31.8288 12.0021 0.7858 0.0000 0.0000 0.0000
# 2 12.0021 31.8279 0.7857 0.0000 0.0000 0.0000
# 3 0.7858 0.7857 98.5328 0.0000 0.0000 0.0000
# 4 0.0000 0.0000 0.0000 42.8955 0.0000 0.0000
# 5 0.0000 0.0000 0.0000 0.0000 42.8239 0.0000
# 6 0.0000 0.0000 0.0000 0.0000 0.0000 4.0926
#
#
#
# Elastic Compliance Matrix: (Units=1/GPa)
#
#
# Indices 1 2 3 4 5 6 
#
# 1 0.036629 -0.013808 -0.000182 0.000000 0.000000 0.000000
# 2 -0.013808 0.036630 -0.000182 0.000000 0.000000 0.000000
# 3 -0.000182 -0.000182 0.010152 0.000000 0.000000 0.000000
# 4 0.000000 0.000000 0.000000 0.023312 0.000000 0.000000
# 5 0.000000 0.000000 0.000000 0.000000 0.023351 0.000000
# 6 0.000000 0.000000 0.000000 0.000000 0.000000 0.244343
#
#
# Mechanical properties :
#
#
# Convention : Reuss Voigt Hill
#
# Bulk Modulus (GPa) = 18.15961 21.03740 19.59851
# Shear Modulus (GPa) = 11.87312 27.87013 19.87162
#
# Velocity S-wave (km/s) = 2.40299 3.68162 3.10875
# Velocity P-wave (km/s) = 4.06582 5.32013 4.73469
#
# Compressibility (1/GPa) = 0.05506726
#
# Stress axis : x y z
#
# Youngs Moduli (GPa) = 27.30042 27.29967 98.50463
#
# Poissons Ratio (x) = 0.37696 0.01793
# Poissons Ratio (y) = 0.37697 0.01792
# Poissons Ratio (z) = 0.00497 0.00497
#
# Static dielectric constant tensor:
#      x y z
#    x 1.757240 0.000000 0.000000 
#    y 0.000000 1.757260 0.000000 
#    z 0.000000 0.000000 1.714880 
# 
# From -- ./inp_files/2661.got.cif
#   From: 2010.05.17/outbox.cif.g08.bks.cpg/sg113_cif.got.tgz:2661.got - 2010.05.20 11:03:00.
