data_PCOD9555686
_publ_section_title
;
Structure prediction by ZEFSAII (Michael W. Deem and Ramdas Pophale) SiO2 
 PCOD9555686
Probable space group: P -4 21 M 
;
_chemical_formula_sum "Si O2"
_cell_formula_units_Z 56
_cell_length_a 12.066682
_cell_length_b 12.066682
_cell_length_c 20.808727
_cell_angle_alpha 90.000000
_cell_angle_beta 90.000000
_cell_angle_gamma 90.000000
_cell_volume 3029.850835
_symmetry_space_group_name_H-M "P -4 21 M "
_symmetry_group_IT_number 113
_symmetry_cell_setting 'tetragonal'
loop_
_space_group_symop_operation_xyz
x,y,z
y,-x,-z
-x,-y,z
-y,x,-z
1/2+x,1/2-y,-z
1/2-x,1/2+y,-z
1/2-y,1/2-x,z
1/2+y,1/2+x,z
loop_
_atom_site_type_symbol
_atom_site_label
_atom_site_fract_x
_atom_site_fract_y
_atom_site_fract_z
Si Si1 0.128599 0.020415 0.098617
Si Si2 0.008506 0.321214 0.405707
Si Si3 0.825500 0.021328 0.478393
Si Si4 0.649285 0.663487 0.793335
Si Si5 0.566704 0.246237 0.852686
Si Si6 0.501349 0.182694 0.995281
Si Si7 0.341895 0.347434 0.648084
O O1 0.134098 0.142813 0.129113
O O2 0.158679 0.929861 0.152439
O O3 0.000000 0.000000 0.081675
O O4 0.208475 0.007706 0.038109
O O5 0.123807 0.376194 0.383824
O O6 0.915654 0.415654 0.399073
O O7 0.018146 0.285631 0.480229
O O8 0.957236 0.214868 0.369674
O O9 0.887723 0.904858 0.487264
O O10 0.819012 0.059395 0.405003
O O11 0.745441 0.754560 0.800066
O O12 0.530828 0.722954 0.804004
O O13 0.654541 0.614963 0.721578
O O14 0.648295 0.148295 0.831824
O O15 0.509517 0.210300 0.919950
O O16 0.611274 0.111274 0.011427
O O17 0.396677 0.103324 0.006863
O O18 0.245023 0.254978 0.642161
#
# Coordination Sequence:
#
# PCOD9555686 Si02
#       7
#     8   8   8   8   8   8   8
#     4  10  22  36  54  82 109 142 180 222 271 323
#     4   9  17  30  50  77 107 138 174 218 266 312
#     4   9  17  31  49  80 104 137 173 216 266 311
#     4  10  21  37  57  80 108 149 184 220 268 323
#     4  10  22  37  54  80 111 143 179 225 274 324
#     4  10  21  37  59  83 106 138 179 228 277 323
#     4   9  18  33  54  77 105 138 177 215 256 311
#
# _framework density 18.482756999999999
#
# number of rings (size 3 to 8) (size 9 to 14) (size 15 to 20)
#    0.000    2.429    0.000    1.714    4.000    2.000 
#   15.429    1.429    0.000    1.714    0.000    6.000 
#    0.000    0.000    0.000    0.000    0.000    0.000 
#
# Total GULP energy -312489.787950 kJ/mol
# GULP energy per Si atom -5580.174785 kJ/mol
# Density = 1.844069 g / cm^3
# Si number density = 18.482757 Si / 1000 Ang^3
#
#
#
# Elastic Constant Matrix: (Units=GPa)
#
#
# Indices 1 2 3 4 5 6 
#
# 1 34.0203 -0.3842 13.7241 0.0000 0.0000 0.0000
# 2 -0.3842 34.0198 13.7226 0.0000 0.0000 0.0000
# 3 13.7241 13.7226 68.7757 0.0000 0.0000 0.0000
# 4 0.0000 0.0000 0.0000 22.7789 0.0000 0.0000
# 5 0.0000 0.0000 0.0000 0.0000 22.7791 0.0000
# 6 0.0000 0.0000 0.0000 0.0000 0.0000 11.6685
#
#
#
# Elastic Compliance Matrix: (Units=1/GPa)
#
#
# Indices 1 2 3 4 5 6 
#
# 1 0.032289 0.003223 -0.007086 0.000000 0.000000 0.000000
# 2 0.003223 0.032289 -0.007086 0.000000 0.000000 0.000000
# 3 -0.007086 -0.007086 0.017368 0.000000 0.000000 0.000000
# 4 0.000000 0.000000 0.000000 0.043900 0.000000 0.000000
# 5 0.000000 0.000000 0.000000 0.000000 0.043900 0.000000
# 6 0.000000 0.000000 0.000000 0.000000 0.000000 0.085701
#
#
# Mechanical properties :
#
#
# Convention : Reuss Voigt Hill
#
# Bulk Modulus (GPa) = 16.65324 21.21564 18.93444
# Shear Modulus (GPa) = 16.81454 18.76219 17.78836
#
# Velocity S-wave (km/s) = 3.01947 3.18955 3.10567
# Velocity P-wave (km/s) = 4.60282 5.00678 4.80904
#
# Compressibility (1/GPa) = 0.06004838
#
# Stress axis : x y z
#
# Youngs Moduli (GPa) = 30.96998 30.97010 57.57750
#
# Poissons Ratio (x) = -0.09982 0.40802
# Poissons Ratio (y) = -0.09982 0.40798
# Poissons Ratio (z) = 0.21947 0.21945
#
# Static dielectric constant tensor:
#      x y z
#    x 1.643680 0.000000 0.000000 
#    y 0.000000 1.643680 0.000000 
#    z 0.000000 0.000000 1.625200 
# 
# From -- ./inp_files/2691.got.cif
#   From: 2010.05.17/outbox.cif.g08.bks.cpg/sg113_cif.got.tgz:2691.got - 2010.05.20 11:03:00.
