data_PCOD9555615
_publ_section_title
;
Structure prediction by ZEFSAII (Michael W. Deem and Ramdas Pophale) SiO2 
 PCOD9555615
Probable space group: P -4 21 M 
;
_chemical_formula_sum "Si O2"
_cell_formula_units_Z 56
_cell_length_a 12.799432
_cell_length_b 12.799432
_cell_length_c 20.314583
_cell_angle_alpha 90.000000
_cell_angle_beta 90.000000
_cell_angle_gamma 90.000000
_cell_volume 3328.045895
_symmetry_space_group_name_H-M "P -4 21 M "
_symmetry_group_IT_number 113
_symmetry_cell_setting 'tetragonal'
loop_
_space_group_symop_operation_xyz
x,y,z
y,-x,-z
-x,-y,z
-y,x,-z
1/2+x,1/2-y,-z
1/2-x,1/2+y,-z
1/2-y,1/2-x,z
1/2+y,1/2+x,z
loop_
_atom_site_type_symbol
_atom_site_label
_atom_site_fract_x
_atom_site_fract_y
_atom_site_fract_z
Si Si1 0.375380 0.298396 0.581456
Si Si2 0.067712 0.105160 0.710505
Si Si3 0.041946 0.157442 0.976993
Si Si4 0.355635 0.320858 0.848398
Si Si5 0.168775 0.495291 0.077608
Si Si6 0.327905 0.002809 0.336911
Si Si7 0.779620 0.548285 0.515031
O O1 0.284497 0.215504 0.596793
O O2 0.407668 0.354768 0.648456
O O3 0.467960 0.243709 0.542350
O O4 0.322597 0.384089 0.533412
O O5 0.128908 0.123078 0.778194
O O6 0.006071 0.213822 0.695376
O O7 0.000000 0.000000 0.715196
O O8 0.091902 0.160170 0.904958
O O9 0.925028 0.110962 0.980612
O O10 0.040369 0.267446 0.013659
O O11 0.255862 0.244139 0.846504
O O12 0.453922 0.251029 0.872256
O O13 0.087679 0.587679 0.060366
O O14 0.100295 0.399706 0.104325
O O15 0.397900 0.897900 0.324159
O O16 0.311377 0.005693 0.415931
O O17 0.398838 0.101163 0.316585
O O18 0.871763 0.628238 0.497443
#
# Coordination Sequence:
#
# PCOD9555615 Si02
#       7
#     8   8   8   8   8   8   8
#     4  10  21  36  54  79 110 141 180 229 274 330
#     4  11  24  37  55  79 113 153 186 225 271 329
#     4   9  18  31  56  82 108 134 172 231 276 321
#     4  10  20  36  58  78 106 148 185 220 270 324
#     4   9  18  33  54  81 111 143 180 220 268 328
#     4   9  18  37  62  83 107 142 187 239 290 335
#     4   9  19  33  56  84 107 138 179 229 285 332
#
# _framework density 16.826692000000001
#
# number of rings (size 3 to 8) (size 9 to 14) (size 15 to 20)
#    0.000    2.429    0.000    3.000    8.000    1.429 
#    0.000    2.143    0.000    4.286    0.000    0.000 
#    0.000    0.000    0.000    0.000    0.000    0.000 
#
# Total GULP energy -312276.834476 kJ/mol
# GULP energy per Si atom -5576.372044 kJ/mol
# Density = 1.678839 g / cm^3
# Si number density = 16.826692 Si / 1000 Ang^3
#
#
#
# Elastic Constant Matrix: (Units=GPa)
#
#
# Indices 1 2 3 4 5 6 
#
# 1 83.1584 33.7223 38.8223 0.0000 0.0000 0.0000
# 2 33.7223 83.1574 38.8218 0.0000 0.0000 0.0000
# 3 38.8223 38.8218 57.3299 0.0000 0.0000 0.0000
# 4 0.0000 0.0000 0.0000 13.2071 0.0000 0.0000
# 5 0.0000 0.0000 0.0000 0.0000 13.2075 0.0000
# 6 0.0000 0.0000 0.0000 0.0000 0.0000 13.6330
#
#
#
# Elastic Compliance Matrix: (Units=1/GPa)
#
#
# Indices 1 2 3 4 5 6 
#
# 1 0.017890 -0.002338 -0.010531 0.000000 0.000000 0.000000
# 2 -0.002338 0.017890 -0.010531 0.000000 0.000000 0.000000
# 3 -0.010531 -0.010531 0.031706 0.000000 0.000000 0.000000
# 4 0.000000 0.000000 0.000000 0.075717 0.000000 0.000000
# 5 0.000000 0.000000 0.000000 0.000000 0.075714 0.000000
# 6 0.000000 0.000000 0.000000 0.000000 0.000000 0.073352
#
#
# Mechanical properties :
#
#
# Convention : Reuss Voigt Hill
#
# Bulk Modulus (GPa) = 48.34543 49.59760 48.97152
# Shear Modulus (GPa) = 14.45237 15.49481 14.97359
#
# Velocity S-wave (km/s) = 2.93387 3.03784 2.98631
# Velocity P-wave (km/s) = 6.34591 6.46871 6.40760
#
# Compressibility (1/GPa) = 0.02068448
#
# Stress axis : x y z
#
# Youngs Moduli (GPa) = 55.89737 55.89703 31.54021
#
# Poissons Ratio (x) = 0.13071 0.33215
# Poissons Ratio (y) = 0.13071 0.33215
# Poissons Ratio (z) = 0.58866 0.58865
#
# Static dielectric constant tensor:
#      x y z
#    x 1.582630 0.000000 0.000000 
#    y 0.000000 1.582630 0.000000 
#    z 0.000000 0.000000 1.527420 
# 
# From -- ./inp_files/2664.got.cif
#   From: 2010.05.17/outbox.cif.g08.bks.cpg/sg113_cif.got.tgz:2664.got - 2010.05.20 11:03:00.
