data_PCOD9555189
_publ_section_title
;
Structure prediction by ZEFSAII (Michael W. Deem and Ramdas Pophale) SiO2 
 PCOD9555189
Probable space group: P -4 2 C
;
_chemical_formula_sum "Si O2"
_cell_formula_units_Z 48
_cell_length_a 8.967259
_cell_length_b 8.967259
_cell_length_c 29.654850
_cell_angle_alpha 90.000000
_cell_angle_beta 90.000000
_cell_angle_gamma 90.000000
_cell_volume 2384.597909
_symmetry_space_group_name_H-M "P -4 2 C"
_symmetry_group_IT_number 112
_symmetry_cell_setting 'tetragonal'
loop_
_space_group_symop_operation_xyz
x,y,z
y,-x,-z
-x,-y,z
-y,x,-z
x,-y,1/2-z
-x,y,1/2-z
-y,-x,1/2+z
y,x,1/2+z
loop_
_atom_site_type_symbol
_atom_site_label
_atom_site_fract_x
_atom_site_fract_y
_atom_site_fract_z
Si Si1 0.951333 0.226592 0.982954
Si Si2 0.336322 0.571238 0.204157
Si Si3 0.071622 0.663473 0.704346
Si Si4 0.277877 0.549644 0.018066
Si Si5 0.162851 0.072257 0.387679
Si Si6 0.836974 0.430334 0.112345
O O1 0.005280 0.242088 0.931817
O O2 0.873037 0.372979 0.001585
O O3 0.090889 0.168069 0.012444
O O4 0.500000 0.500000 0.198352
O O5 0.272546 0.500000 0.250000
O O6 0.348334 0.749774 0.209375
O O7 0.239573 0.537766 0.160116
O O8 0.039277 0.755136 0.659182
O O9 0.000000 0.500000 0.699515
O O10 0.000000 0.729822 0.750000
O O11 0.258502 0.509171 0.070267
O O12 0.409390 0.670365 0.011204
O O13 0.154524 0.250994 0.393084
O O14 0.000000 0.000000 0.386728
O O15 0.000000 0.500000 0.110714
#
# Coordination Sequence:
#
# PCOD9555189 Si02
#       6
#     8   8   8   8   8   8
#     4  11  21  41  66  90 128 169 212 263 312 392
#     4  10  22  42  67  95 127 169 211 260 326 391
#     4  10  22  41  63  95 126 159 211 262 321 381
#     4  11  27  43  60  95 129 169 214 270 318 382
#     4  11  23  40  63  97 123 166 215 257 320 379
#     4  11  26  42  65  93 129 171 216 264 320 390
#
# _framework density 20.129179000000001
#
# number of rings (size 3 to 8) (size 9 to 14) (size 15 to 20)
#    0.000    1.333    3.333    2.000    7.000    6.000 
#    0.000    3.333    0.000    0.000    0.000    0.000 
#    0.000    0.000    0.000    0.000    0.000    0.000 
#
# Total GULP energy -268450.248608 kJ/mol
# GULP energy per Si atom -5592.713513 kJ/mol
# Density = 2.008336 g / cm^3
# Si number density = 20.129179 Si / 1000 Ang^3
#
#
#
# Elastic Constant Matrix: (Units=GPa)
#
#
# Indices 1 2 3 4 5 6 
#
# 1 54.3315 29.9824 51.8158 0.0000 0.0000 0.0000
# 2 29.9824 54.3315 51.8158 0.0000 0.0000 0.0000
# 3 51.8158 51.8158 195.5242 0.0000 0.0000 0.0000
# 4 0.0000 0.0000 0.0000 13.8916 0.0000 0.0000
# 5 0.0000 0.0000 0.0000 0.0000 13.8916 0.0000
# 6 0.0000 0.0000 0.0000 0.0000 0.0000 35.6690
#
#
#
# Elastic Compliance Matrix: (Units=1/GPa)
#
#
# Indices 1 2 3 4 5 6 
#
# 1 0.029330 -0.011740 -0.004662 0.000000 0.000000 0.000000
# 2 -0.011740 0.029330 -0.004662 0.000000 0.000000 0.000000
# 3 -0.004662 -0.004662 0.007585 0.000000 0.000000 0.000000
# 4 0.000000 0.000000 0.000000 0.071986 0.000000 0.000000
# 5 0.000000 0.000000 0.000000 0.000000 0.071986 0.000000
# 6 0.000000 0.000000 0.000000 0.000000 0.000000 0.028036
#
#
# Mechanical properties :
#
#
# Convention : Reuss Voigt Hill
#
# Bulk Modulus (GPa) = 41.46102 63.49060 52.47581
# Shear Modulus (GPa) = 17.33600 24.06198 20.69899
#
# Velocity S-wave (km/s) = 2.93787 3.46117 3.21020
# Velocity P-wave (km/s) = 5.67012 6.89804 6.31400
#
# Compressibility (1/GPa) = 0.02411904
#
# Stress axis : x y z
#
# Youngs Moduli (GPa) = 34.09521 34.09521 131.83661
#
# Poissons Ratio (x) = 0.40027 0.61456
# Poissons Ratio (y) = 0.40027 0.61456
# Poissons Ratio (z) = 0.15894 0.15894
#
# Static dielectric constant tensor:
#      x y z
#    x 1.708990 0.000000 0.000000 
#    y 0.000000 1.708990 0.000000 
#    z 0.000000 0.000000 1.715590 
# 
# From -- ./inp_files/6271.got.cif
#   From: 2010.05.17/outbox.cif.g08.bks.cpg/sg112_4_cif.got.tgz:6271.got - 2010.05.20 10:59:04.
