data_PCOD9555861
_publ_section_title
;
Structure prediction by ZEFSAII (Michael W. Deem and Ramdas Pophale) SiO2 
 PCOD9555861
Probable space group: P -4 21 C
;
_chemical_formula_sum "Si O2"
_cell_formula_units_Z 54
_cell_length_a 13.156686
_cell_length_b 13.156686
_cell_length_c 12.755245
_cell_angle_alpha 90.000000
_cell_angle_beta 90.000000
_cell_angle_gamma 90.000000
_cell_volume 2207.912329
_symmetry_space_group_name_H-M "P -4 21 C"
_symmetry_group_IT_number 114
_symmetry_cell_setting 'tetragonal'
loop_
_space_group_symop_operation_xyz
x,y,z
y,-x,-z
-x,-y,z
-y,x,-z
1/2+x,1/2-y,1/2-z
1/2-x,1/2+y,1/2-z
1/2-y,1/2-x,1/2+z
1/2+y,1/2+x,1/2+z
loop_
_atom_site_type_symbol
_atom_site_label
_atom_site_fract_x
_atom_site_fract_y
_atom_site_fract_z
Si Si1 0.878059 0.605624 0.360246
Si Si2 0.474445 0.260858 0.052809
Si Si3 0.103560 0.187129 0.262531
Si Si4 0.500000 0.000000 0.310488
Si Si5 0.000000 0.000000 0.000000
Si Si6 0.017450 0.117691 0.802843
Si Si7 0.870412 0.785292 0.621189
Si Si8 0.552786 0.191192 0.425012
O O1 0.840967 0.712909 0.310249
O O2 0.811198 0.553523 0.449412
O O3 0.983261 0.648596 0.415125
O O4 0.908878 0.530910 0.267180
O O5 0.529377 0.331298 0.139790
O O6 0.357449 0.285970 0.067537
O O7 0.523651 0.291196 0.943215
O O8 0.167434 0.091501 0.225579
O O9 0.037961 0.218313 0.158492
O O10 0.094533 0.971024 0.074087
O O11 0.484384 0.098419 0.382255
O O12 0.102090 0.174721 0.736741
O O13 0.000000 0.000000 0.766349
O O14 0.835064 0.670948 0.600225
#
# Coordination Sequence:
#
# PCOD9555861 Si02
#       8
#     8   8   8   4   2   8   8   8
#     4   8  18  35  55  83 109 146 206 240 285 359
#     4   9  18  32  56  89 111 147 193 245 299 350
#     4   9  18  36  54  78 117 150 186 246 298 341
#     4  10  18  38  60  74 110 164 192 242 294 350
#     4   8  20  36  52  82 116 148 204 220 284 410
#     4  10  18  36  56  82 116 153 192 237 294 369
#     4  11  20  33  61  90 119 153 198 247 304 356
#     4  10  21  36  58  86 115 153 205 249 294 354
#
# _framework density 24.457494000000001
#
# number of rings (size 3 to 8) (size 9 to 14) (size 15 to 20)
#    1.333    1.185    1.481    1.333    0.000    0.000 
#    8.000    0.000    0.000    0.000    0.000    0.000 
#    0.000    0.000    0.000    0.000    0.000    0.000 
#
# Total GULP energy -300628.159277 kJ/mol
# GULP energy per Si atom -5567.188135 kJ/mol
# Density = 2.440183 g / cm^3
# Si number density = 24.457494 Si / 1000 Ang^3
#
#
#
# Elastic Constant Matrix: (Units=GPa)
#
#
# Indices 1 2 3 4 5 6 
#
# 1 45.6520 44.5313 6.3833 0.0000 0.0000 0.0000
# 2 44.5313 45.6520 6.3833 0.0000 0.0000 0.0000
# 3 6.3833 6.3833 127.6393 0.0000 0.0000 0.0000
# 4 0.0000 0.0000 0.0000 25.5663 0.0000 0.0000
# 5 0.0000 0.0000 0.0000 0.0000 25.5663 0.0000
# 6 0.0000 0.0000 0.0000 0.0000 0.0000 18.5392
#
#
#
# Elastic Compliance Matrix: (Units=1/GPa)
#
#
# Indices 1 2 3 4 5 6 
#
# 1 0.451748 -0.440581 -0.000558 0.000000 0.000000 0.000000
# 2 -0.440581 0.451748 -0.000558 0.000000 0.000000 0.000000
# 3 -0.000558 -0.000558 0.007890 0.000000 0.000000 0.000000
# 4 0.000000 0.000000 0.000000 0.039114 0.000000 0.000000
# 5 0.000000 0.000000 0.000000 0.000000 0.039114 0.000000
# 6 0.000000 0.000000 0.000000 0.000000 0.000000 0.053940
#
#
# Mechanical properties :
#
#
# Convention : Reuss Voigt Hill
#
# Bulk Modulus (GPa) = 35.72496 37.05990 36.39243
# Shear Modulus (GPa) = 2.58227 24.71073 13.64650
#
# Velocity S-wave (km/s) = 1.02865 3.18206 2.36470
# Velocity P-wave (km/s) = 4.00618 5.35596 4.72947
#
# Compressibility (1/GPa) = 0.02799163
#
# Stress axis : x y z
#
# Youngs Moduli (GPa) = 2.21362 2.21362 126.73567
#
# Poissons Ratio (x) = 0.97528 0.07078
# Poissons Ratio (y) = 0.97528 0.07078
# Poissons Ratio (z) = 0.00124 0.00124
#
# Static dielectric constant tensor:
#      x y z
#    x 2.040780 0.000000 0.000000 
#    y 0.000000 2.040780 0.000000 
#    z 0.000000 0.000000 2.025580 
# 
# From -- ./inp_files/2273.got.cif
#   From: 2010.05.17/outbox.cif.g08.bks.cpg/sg114_2_cif.got.tgz:2273.got - 2010.05.20 11:04:54.
