data_PCOD9555356
_publ_section_title
;
Structure prediction by ZEFSAII (Michael W. Deem and Ramdas Pophale) SiO2 
 PCOD9555356
Probable space group: P -4 2 C
;
_chemical_formula_sum "Si O2"
_cell_formula_units_Z 56
_cell_length_a 14.354856
_cell_length_b 14.354856
_cell_length_c 11.945095
_cell_angle_alpha 90.000000
_cell_angle_beta 90.000000
_cell_angle_gamma 90.000000
_cell_volume 2461.428861
_symmetry_space_group_name_H-M "P -4 2 C"
_symmetry_group_IT_number 112
_symmetry_cell_setting 'tetragonal'
loop_
_space_group_symop_operation_xyz
x,y,z
y,-x,-z
-x,-y,z
-y,x,-z
x,-y,1/2-z
-x,y,1/2-z
-y,-x,1/2+z
y,x,1/2+z
loop_
_atom_site_type_symbol
_atom_site_label
_atom_site_fract_x
_atom_site_fract_y
_atom_site_fract_z
Si Si1 0.485265 0.201268 0.870218
Si Si2 0.718477 0.719871 0.880687
Si Si3 0.102272 0.715164 0.749986
Si Si4 0.359786 0.557220 0.495340
Si Si5 0.415146 0.932465 0.039422
Si Si6 0.760879 0.984250 0.618560
Si Si7 0.850099 0.799108 0.540396
O O1 0.500000 0.155487 0.750000
O O2 0.375731 0.221204 0.876002
O O3 0.541358 0.298490 0.884024
O O4 0.528622 0.147073 0.973381
O O5 0.793707 0.746790 0.787212
O O6 0.688962 0.613966 0.903942
O O7 0.771514 0.750342 0.992651
O O8 0.088573 0.634158 0.658548
O O9 0.117192 0.713464 0.882083
O O10 0.000000 0.766505 0.750000
O O11 0.453727 0.612464 0.466860
O O12 0.500000 0.000000 0.065428
O O13 0.334565 0.964743 0.951469
O O14 0.805756 0.075067 0.559087
O O15 0.743557 0.000000 0.750000
O O16 0.831717 0.897130 0.601128
#
# Coordination Sequence:
#
# PCOD9555356 Si02
#       7
#     8   8   8   8   8   8   8
#     4  11  25  41  72 108 145 199 253 317 378 470
#     4  11  23  44  71 106 147 199 253 314 393 463
#     4  12  25  48  75 104 152 200 250 325 382 466
#     4   9  19  41  65  93 143 191 246 311 371 459
#     4  12  27  49  70 110 156 196 257 312 393 464
#     4  12  28  48  77 111 149 203 254 329 390 472
#     4  12  25  48  76 108 148 198 262 317 401 465
#
# _framework density 22.751011999999999
#
# number of rings (size 3 to 8) (size 9 to 14) (size 15 to 20)
#    0.000    0.714    4.286    1.714    8.000    0.571 
#    0.000    6.429    0.000    0.000    0.000    0.000 
#    0.000    0.000    0.000    0.000    0.000    0.000 
#
# Total GULP energy -311964.057881 kJ/mol
# GULP energy per Si atom -5570.786748 kJ/mol
# Density = 2.269923 g / cm^3
# Si number density = 22.751012 Si / 1000 Ang^3
#
#
#
# Elastic Constant Matrix: (Units=GPa)
#
#
# Indices 1 2 3 4 5 6 
#
# 1 100.9975 33.0341 39.9798 0.0000 0.0000 0.0000
# 2 33.0341 100.9975 39.9798 0.0000 0.0000 0.0000
# 3 39.9798 39.9798 133.7797 0.0000 0.0000 0.0000
# 4 0.0000 0.0000 0.0000 29.0900 0.0000 0.0000
# 5 0.0000 0.0000 0.0000 0.0000 29.0900 0.0000
# 6 0.0000 0.0000 0.0000 0.0000 0.0000 16.5338
#
#
#
# Elastic Compliance Matrix: (Units=1/GPa)
#
#
# Indices 1 2 3 4 5 6 
#
# 1 0.011897 -0.002817 -0.002713 0.000000 0.000000 0.000000
# 2 -0.002817 0.011897 -0.002713 0.000000 0.000000 0.000000
# 3 -0.002713 -0.002713 0.009097 0.000000 0.000000 0.000000
# 4 0.000000 0.000000 0.000000 0.034376 0.000000 0.000000
# 5 0.000000 0.000000 0.000000 0.000000 0.034376 0.000000
# 6 0.000000 0.000000 0.000000 0.000000 0.000000 0.060482
#
#
# Mechanical properties :
#
#
# Convention : Reuss Voigt Hill
#
# Bulk Modulus (GPa) = 60.96671 62.41799 61.69235
# Shear Modulus (GPa) = 27.16211 29.79483 28.47847
#
# Velocity S-wave (km/s) = 3.45901 3.62277 3.54184
# Velocity P-wave (km/s) = 6.54283 6.70777 6.62581
#
# Compressibility (1/GPa) = 0.01640239
#
# Stress axis : x y z
#
# Youngs Moduli (GPa) = 84.05653 84.05653 109.92884
#
# Poissons Ratio (x) = 0.23679 0.29829
# Poissons Ratio (y) = 0.23679 0.29829
# Poissons Ratio (z) = 0.22808 0.22808
#
# Static dielectric constant tensor:
#      x y z
#    x 1.950240 0.000000 0.000000 
#    y 0.000000 1.950240 0.000000 
#    z 0.000000 0.000000 1.866410 
# 
# From -- ./inp_files/2675.got.cif
#   From: 2010.05.17/outbox.cif.g08.bks.cpg/sg112_2_cif.got.tgz:2675.got - 2010.05.20 10:59:04.
