data_PCOD9555677
_publ_section_title
;
Structure prediction by ZEFSAII (Michael W. Deem and Ramdas Pophale) SiO2 
 PCOD9555677
Probable space group: P -4 21 M 
;
_chemical_formula_sum "Si O2"
_cell_formula_units_Z 48
_cell_length_a 15.046554
_cell_length_b 15.046554
_cell_length_c 11.619698
_cell_angle_alpha 90.000000
_cell_angle_beta 90.000000
_cell_angle_gamma 90.000000
_cell_volume 2630.685536
_symmetry_space_group_name_H-M "P -4 21 M "
_symmetry_group_IT_number 113
_symmetry_cell_setting 'tetragonal'
loop_
_space_group_symop_operation_xyz
x,y,z
y,-x,-z
-x,-y,z
-y,x,-z
1/2+x,1/2-y,-z
1/2-x,1/2+y,-z
1/2-y,1/2-x,z
1/2+y,1/2+x,z
loop_
_atom_site_type_symbol
_atom_site_label
_atom_site_fract_x
_atom_site_fract_y
_atom_site_fract_z
Si Si1 0.756761 0.971661 0.045678
Si Si2 0.247054 0.602900 0.328817
Si Si3 0.373419 0.569337 0.532944
Si Si4 0.817948 0.167219 0.107763
Si Si5 0.843039 0.200975 0.760253
Si Si6 0.059093 0.297250 0.171790
O O1 0.791465 0.065398 0.092920
O O2 0.744193 0.909108 0.156387
O O3 0.688372 0.004796 0.947048
O O4 0.817453 0.907008 0.967060
O O5 0.156486 0.656486 0.335500
O O6 0.293430 0.596370 0.450456
O O7 0.309651 0.654828 0.238110
O O8 0.227382 0.508134 0.272407
O O9 0.463883 0.612309 0.482851
O O10 0.350507 0.603009 0.661002
O O11 0.738881 0.238881 0.076010
O O12 0.769507 0.269507 0.712035
O O13 0.785936 0.128260 0.833484
O O14 0.117233 0.382768 0.197843
#
# Coordination Sequence:
#
# PCOD9555677 Si02
#       6
#     8   8   8   8   8   8
#     4  11  20  35  59  88 120 157 199 246 310 369
#     4  10  21  39  58  83 117 159 207 249 299 359
#     4  11  22  38  60  91 124 155 200 252 310 371
#     4  10  21  36  55  84 119 155 199 249 303 367
#     4  11  22  39  60  86 122 160 201 251 310 370
#     4  10  21  39  61  87 121 161 206 254 304 363
#
# _framework density 18.246195
#
# number of rings (size 3 to 8) (size 9 to 14) (size 15 to 20)
#    0.000    1.500    3.333    2.500    0.000    1.333 
#    0.000    0.000    0.000    7.000    0.000    0.000 
#    0.000    0.000    0.000    0.000    0.000    0.000 
#
# Total GULP energy -267367.469074 kJ/mol
# GULP energy per Si atom -5570.155606 kJ/mol
# Density = 1.820467 g / cm^3
# Si number density = 18.246195 Si / 1000 Ang^3
#
#
#
# Elastic Constant Matrix: (Units=GPa)
#
#
# Indices 1 2 3 4 5 6 
#
# 1 55.5283 38.8988 15.1562 0.0000 0.0000 0.0000
# 2 38.8988 55.5187 15.1543 0.0000 0.0000 0.0000
# 3 15.1562 15.1543 67.8028 0.0000 0.0000 0.0000
# 4 0.0000 0.0000 0.0000 22.7050 0.0000 0.0000
# 5 0.0000 0.0000 0.0000 0.0000 22.7050 0.0000
# 6 0.0000 0.0000 0.0000 0.0000 0.0000 18.0672
#
#
#
# Elastic Compliance Matrix: (Units=1/GPa)
#
#
# Indices 1 2 3 4 5 6 
#
# 1 0.035777 -0.024371 -0.002550 0.000000 0.000000 0.000000
# 2 -0.024371 0.035783 -0.002550 0.000000 0.000000 0.000000
# 3 -0.002550 -0.002550 0.015889 0.000000 0.000000 0.000000
# 4 0.000000 0.000000 0.000000 0.044043 0.000000 0.000000
# 5 0.000000 0.000000 0.000000 0.000000 0.044043 0.000000
# 6 0.000000 0.000000 0.000000 0.000000 0.000000 0.055349
#
#
# Mechanical properties :
#
#
# Convention : Reuss Voigt Hill
#
# Bulk Modulus (GPa) = 35.07964 35.25205 35.16584
# Shear Modulus (GPa) = 16.70397 20.00480 18.35439
#
# Velocity S-wave (km/s) = 3.02897 3.31476 3.17508
# Velocity P-wave (km/s) = 5.61251 5.83201 5.72331
#
# Compressibility (1/GPa) = 0.02850657
#
# Stress axis : x y z
#
# Youngs Moduli (GPa) = 27.95059 27.94587 62.93784
#
# Poissons Ratio (x) = 0.68107 0.16051
# Poissons Ratio (y) = 0.68119 0.16050
# Poissons Ratio (z) = 0.07128 0.07126
#
# Static dielectric constant tensor:
#      x y z
#    x 1.625350 0.000000 0.000000 
#    y 0.000000 1.625350 0.000000 
#    z 0.000000 0.000000 1.636640 
# 
# From -- ./inp_files/1807.got.cif
#   From: 2010.05.17/outbox.cif.g08.bks.cpg/sg113_cif.got.tgz:1807.got - 2010.05.20 11:03:00.
