data_PCOD9555337
_publ_section_title
;
Structure prediction by ZEFSAII (Michael W. Deem and Ramdas Pophale) SiO2 
 PCOD9555337
Probable space group: P -4 2 C
;
_chemical_formula_sum "Si O2"
_cell_formula_units_Z 34
_cell_length_a 8.213240
_cell_length_b 8.213240
_cell_length_c 22.159491
_cell_angle_alpha 90.000000
_cell_angle_beta 90.000000
_cell_angle_gamma 90.000000
_cell_volume 1494.819683
_symmetry_space_group_name_H-M "P -4 2 C"
_symmetry_group_IT_number 112
_symmetry_cell_setting 'tetragonal'
loop_
_space_group_symop_operation_xyz
x,y,z
y,-x,-z
-x,-y,z
-y,x,-z
x,-y,1/2-z
-x,y,1/2-z
-y,-x,1/2+z
y,x,1/2+z
loop_
_atom_site_type_symbol
_atom_site_label
_atom_site_fract_x
_atom_site_fract_y
_atom_site_fract_z
Si Si1 0.575436 0.224049 0.558885
Si Si2 0.936993 0.748243 0.341569
Si Si3 0.253942 0.425908 0.578301
Si Si4 0.500000 0.000000 0.750000
Si Si5 0.058888 0.265568 0.682151
O O1 0.656158 0.078709 0.595780
O O2 0.396169 0.288323 0.577075
O O3 0.672970 0.392131 0.574766
O O4 0.590563 0.179463 0.488584
O O5 0.890915 0.611756 0.292830
O O6 0.813235 0.896714 0.345105
O O7 0.109632 0.818437 0.318955
O O8 0.143594 0.393048 0.636969
O O9 0.000000 0.311895 0.750000
#
# Coordination Sequence:
#
# PCOD9555337 Si02
#       5
#     8   8   8   2   8
#     4   9  20  40  67  98 121 177 215 278 335 412
#     4  11  22  37  63  88 125 170 228 263 335 396
#     4   9  20  41  66  93 138 160 221 277 343 404
#     4  12  20  38  64  90 116 178 222 274 304 418
#     4  11  22  41  59  90 133 174 211 279 332 398
#
# _framework density 22.745218999999999
#
# number of rings (size 3 to 8) (size 9 to 14) (size 15 to 20)
#    0.000    1.882    2.353    3.529    0.000    2.824 
#    0.000   10.588    0.000    0.000    0.000    0.000 
#    0.000    0.000    0.000    0.000    0.000    0.000 
#
# Total GULP energy -189678.217073 kJ/mol
# GULP energy per Si atom -5578.771090 kJ/mol
# Density = 2.269345 g / cm^3
# Si number density = 22.745219 Si / 1000 Ang^3
#
#
#
# Elastic Constant Matrix: (Units=GPa)
#
#
# Indices 1 2 3 4 5 6 
#
# 1 93.7160 29.5009 58.7636 0.0000 0.0000 0.0000
# 2 29.5009 93.7160 58.7636 0.0000 0.0000 0.0000
# 3 58.7636 58.7636 181.3080 0.0000 0.0000 0.0000
# 4 0.0000 0.0000 0.0000 27.3479 0.0000 0.0000
# 5 0.0000 0.0000 0.0000 0.0000 27.3479 0.0000
# 6 0.0000 0.0000 0.0000 0.0000 0.0000 45.0749
#
#
#
# Elastic Compliance Matrix: (Units=1/GPa)
#
#
# Indices 1 2 3 4 5 6 
#
# 1 0.013660 -0.001913 -0.003807 0.000000 0.000000 0.000000
# 2 -0.001913 0.013660 -0.003807 0.000000 0.000000 0.000000
# 3 -0.003807 -0.003807 0.007984 0.000000 0.000000 0.000000
# 4 0.000000 0.000000 0.000000 0.036566 0.000000 0.000000
# 5 0.000000 0.000000 0.000000 0.000000 0.036566 0.000000
# 6 0.000000 0.000000 0.000000 0.000000 0.000000 0.022185
#
#
# Mechanical properties :
#
#
# Convention : Reuss Voigt Hill
#
# Bulk Modulus (GPa) = 61.54391 73.64402 67.59396
# Shear Modulus (GPa) = 32.23896 34.73494 33.48695
#
# Velocity S-wave (km/s) = 3.76892 3.91209 3.84117
# Velocity P-wave (km/s) = 6.78648 7.27008 7.03244
#
# Compressibility (1/GPa) = 0.01624856
#
# Stress axis : x y z
#
# Youngs Moduli (GPa) = 73.20635 73.20635 125.25793
#
# Poissons Ratio (x) = 0.14002 0.47691
# Poissons Ratio (y) = 0.14002 0.47691
# Poissons Ratio (z) = 0.27873 0.27873
#
# Static dielectric constant tensor:
#      x y z
#    x 1.890110 0.000000 0.000000 
#    y 0.000000 1.890110 0.000000 
#    z 0.000000 0.000000 1.858810 
# 
# From -- ./inp_files/4660.got.cif
#   From: 2010.05.17/outbox.cif.g08.bks.cpg/sg112_3_cif.got.tgz:4660.got - 2010.05.20 10:59:04.
