data_PCOD9555103
_publ_section_title
;
Structure prediction by ZEFSAII (Michael W. Deem and Ramdas Pophale) SiO2 
 PCOD9555103
Probable space group: P -4 2 C
;
_chemical_formula_sum "Si O2"
_cell_formula_units_Z 40
_cell_length_a 9.252734
_cell_length_b 9.252734
_cell_length_c 22.002215
_cell_angle_alpha 90.000000
_cell_angle_beta 90.000000
_cell_angle_gamma 90.000000
_cell_volume 1883.677535
_symmetry_space_group_name_H-M "P -4 2 C"
_symmetry_group_IT_number 112
_symmetry_cell_setting 'tetragonal'
loop_
_space_group_symop_operation_xyz
x,y,z
y,-x,-z
-x,-y,z
-y,x,-z
x,-y,1/2-z
-x,y,1/2-z
-y,-x,1/2+z
y,x,1/2+z
loop_
_atom_site_type_symbol
_atom_site_label
_atom_site_fract_x
_atom_site_fract_y
_atom_site_fract_z
Si Si1 0.078940 0.644246 0.388063
Si Si2 0.823869 0.173615 0.593001
Si Si3 0.838557 0.490743 0.638742
Si Si4 0.863555 0.734849 0.542001
Si Si5 0.638331 0.576768 0.185524
O O1 0.169763 0.727251 0.438661
O O2 0.203053 0.587112 0.342536
O O3 0.000000 0.500000 0.408441
O O4 0.959997 0.764091 0.366669
O O5 0.792331 0.326720 0.624844
O O6 0.738048 0.142558 0.530312
O O7 0.991399 0.190122 0.570478
O O8 0.844393 0.580970 0.575014
O O9 0.738661 0.578759 0.684343
O O10 0.000000 0.500000 0.662606
O O11 0.500000 0.500000 0.151795
O O12 0.649204 0.500000 0.250000
#
# Coordination Sequence:
#
# PCOD9555103 Si02
#       5
#     8   8   8   8   8
#     4  11  23  35  60  92 128 175 227 269 324 401
#     4  11  20  35  58  91 135 178 224 255 323 399
#     4   9  21  39  61  93 132 171 223 268 325 408
#     4  10  21  34  57  89 135 188 214 254 322 394
#     4  10  22  45  67  88 122 165 222 293 356 386
#
# _framework density 21.235057999999999
#
# number of rings (size 3 to 8) (size 9 to 14) (size 15 to 20)
#    0.000    1.800    2.000    1.800    2.800    0.400 
#    0.000    3.000    0.000    0.000    0.000   16.800 
#    0.000    0.000    0.000    0.000    0.000    0.000 
#
# Total GULP energy -222875.406859 kJ/mol
# GULP energy per Si atom -5571.885171 kJ/mol
# Density = 2.118673 g / cm^3
# Si number density = 21.235058 Si / 1000 Ang^3
#
#
#
# Elastic Constant Matrix: (Units=GPa)
#
#
# Indices 1 2 3 4 5 6 
#
# 1 132.4415 55.1764 33.4608 0.0000 0.0000 0.0000
# 2 55.1764 132.4415 33.4608 0.0000 0.0000 0.0000
# 3 33.4608 33.4608 57.4407 0.0000 0.0000 0.0000
# 4 0.0000 0.0000 0.0000 19.4368 0.0000 0.0000
# 5 0.0000 0.0000 0.0000 0.0000 19.4368 0.0000
# 6 0.0000 0.0000 0.0000 0.0000 0.0000 41.2689
#
#
#
# Elastic Compliance Matrix: (Units=1/GPa)
#
#
# Indices 1 2 3 4 5 6 
#
# 1 0.009835 -0.003107 -0.003919 0.000000 0.000000 0.000000
# 2 -0.003107 0.009835 -0.003919 0.000000 0.000000 0.000000
# 3 -0.003919 -0.003919 0.021975 0.000000 0.000000 0.000000
# 4 0.000000 0.000000 0.000000 0.051449 0.000000 0.000000
# 5 0.000000 0.000000 0.000000 0.000000 0.051449 0.000000
# 6 0.000000 0.000000 0.000000 0.000000 0.000000 0.024231
#
#
# Mechanical properties :
#
#
# Convention : Reuss Voigt Hill
#
# Bulk Modulus (GPa) = 50.62169 62.94665 56.78417
# Shear Modulus (GPa) = 25.34845 29.37690 27.36267
#
# Velocity S-wave (km/s) = 3.45876 3.72346 3.59355
# Velocity P-wave (km/s) = 6.31198 6.94210 6.63453
#
# Compressibility (1/GPa) = 0.01975438
#
# Stress axis : x y z
#
# Youngs Moduli (GPa) = 101.67573 101.67573 45.50556
#
# Poissons Ratio (x) = 0.31593 0.17835
# Poissons Ratio (y) = 0.31593 0.17835
# Poissons Ratio (z) = 0.39849 0.39849
#
# Static dielectric constant tensor:
#      x y z
#    x 1.850480 0.000000 0.000000 
#    y 0.000000 1.850480 0.000000 
#    z 0.000000 0.000000 1.789020 
# 
# From -- ./inp_files/5317.got.cif
#   From: 2010.05.17/outbox.cif.g08.bks.cpg/sg112_3_cif.got.tgz:5317.got - 2010.05.20 10:59:04.
