data_PCOD9555694
_publ_section_title
;
Structure prediction by ZEFSAII (Michael W. Deem and Ramdas Pophale) SiO2 
 PCOD9555694
Probable space group: P -4 21 M 
;
_chemical_formula_sum "Si O2"
_cell_formula_units_Z 48
_cell_length_a 11.459855
_cell_length_b 11.459855
_cell_length_c 18.227602
_cell_angle_alpha 90.000000
_cell_angle_beta 90.000000
_cell_angle_gamma 90.000000
_cell_volume 2393.799558
_symmetry_space_group_name_H-M "P -4 21 M "
_symmetry_group_IT_number 113
_symmetry_cell_setting 'tetragonal'
loop_
_space_group_symop_operation_xyz
x,y,z
y,-x,-z
-x,-y,z
-y,x,-z
1/2+x,1/2-y,-z
1/2-x,1/2+y,-z
1/2-y,1/2-x,z
1/2+y,1/2+x,z
loop_
_atom_site_type_symbol
_atom_site_label
_atom_site_fract_x
_atom_site_fract_y
_atom_site_fract_z
Si Si1 0.506672 0.186138 0.376995
Si Si2 0.343960 0.340623 0.904746
Si Si3 0.787024 0.897531 0.071692
Si Si4 0.241760 0.443491 0.175413
Si Si5 0.671468 0.632729 0.332947
Si Si6 0.688339 0.507605 0.479466
O O1 0.632676 0.132676 0.356340
O O2 0.456066 0.307527 0.344150
O O3 0.502887 0.204045 0.465187
O O4 0.412248 0.087753 0.356328
O O5 0.218562 0.281439 0.905272
O O6 0.322096 0.477633 0.895451
O O7 0.425216 0.272674 0.847023
O O8 0.397926 0.316037 0.985362
O O9 0.655943 0.844058 0.080651
O O10 0.869716 0.806188 0.112434
O O11 0.110023 0.389978 0.179080
O O12 0.303713 0.412980 0.252123
O O13 0.763835 0.736166 0.347535
O O14 0.699332 0.536130 0.394191
O O15 0.614210 0.390723 0.490339
#
# Coordination Sequence:
#
# PCOD9555694 Si02
#       6
#     8   8   8   8   8   8
#     4   9  17  31  53  79 106 141 185 232 281 333
#     4  11  22  38  62  91 120 156 199 244 300 356
#     4  10  21  38  61  88 118 155 200 244 294 358
#     4  10  21  38  60  87 118 156 198 241 297 358
#     4   9  18  34  56  80 109 147 182 225 286 348
#     4   9  17  31  50  77 109 141 185 228 275 332
#
# _framework density 20.051805999999999
#
# number of rings (size 3 to 8) (size 9 to 14) (size 15 to 20)
#    0.000    2.333    1.667    1.000    0.000    1.333 
#   12.000    3.333    0.000    4.000    0.000    0.000 
#    0.000    0.000    0.000    0.000    0.000    0.000 
#
# Total GULP energy -267346.765911 kJ/mol
# GULP energy per Si atom -5569.724290 kJ/mol
# Density = 2.000617 g / cm^3
# Si number density = 20.051806 Si / 1000 Ang^3
#
#
#
# Elastic Constant Matrix: (Units=GPa)
#
#
# Indices 1 2 3 4 5 6 
#
# 1 28.3166 39.7122 2.3505 0.0000 0.0000 0.0000
# 2 39.7122 28.3028 2.3459 0.0000 0.0000 0.0000
# 3 2.3505 2.3459 70.2233 0.0000 0.0000 0.0000
# 4 0.0000 0.0000 0.0000 15.6121 0.0000 0.0000
# 5 0.0000 0.0000 0.0000 0.0000 15.6143 0.0000
# 6 0.0000 0.0000 0.0000 0.0000 0.0000 -2.3477
#
#
#
# Elastic Compliance Matrix: (Units=1/GPa)
#
#
# Indices 1 2 3 4 5 6 
#
# 1 -0.036474 0.051218 -0.000490 0.000000 0.000000 0.000000
# 2 0.051218 -0.036491 -0.000495 0.000000 0.000000 0.000000
# 3 -0.000490 -0.000495 0.014273 0.000000 0.000000 0.000000
# 4 0.000000 0.000000 0.000000 0.064053 0.000000 0.000000
# 5 0.000000 0.000000 0.000000 0.000000 0.064044 0.000000
# 6 0.000000 0.000000 0.000000 0.000000 0.000000 -0.425941
#
#
# Mechanical properties :
#
#
# Convention : Reuss Voigt Hill
#
# Bulk Modulus (GPa) = 23.93910 23.96221 23.95066
# Shear Modulus (GPa) = -11.28472 11.27135 -0.00669
#
# Velocity S-wave (km/s) = -2.37487 2.37346 -0.05780
# Velocity P-wave (km/s) = 2.10821 4.41443 3.45917
#
# Compressibility (1/GPa) = 0.04177266
#
# Stress axis : x y z
#
# Youngs Moduli (GPa) = -27.41688 -27.40383 70.06119
#
# Poissons Ratio (x) = 1.40356 0.03434
# Poissons Ratio (y) = 1.40423 0.03471
# Poissons Ratio (z) = -0.01344 -0.01357
#
# Static dielectric constant tensor:
#      x y z
#    x 1.747190 0.000000 0.000000 
#    y 0.000000 1.747200 0.000000 
#    z 0.000000 0.000000 1.694390 
# 
# From -- ./inp_files/2491.got.cif
#   From: 2010.05.17/outbox.cif.g08.bks.cpg/sg113_cif.got.tgz:2491.got - 2010.05.20 11:03:00.
