data_PCOD9555018
_publ_section_title
;
Structure prediction by ZEFSAII (Michael W. Deem and Ramdas Pophale) SiO2 
 PCOD9555018
Probable space group: P -4 2 C
;
_chemical_formula_sum "Si O2"
_cell_formula_units_Z 36
_cell_length_a 20.265086
_cell_length_b 20.265086
_cell_length_c 5.050146
_cell_angle_alpha 90.000000
_cell_angle_beta 90.000000
_cell_angle_gamma 90.000000
_cell_volume 2073.962197
_symmetry_space_group_name_H-M "P -4 2 C"
_symmetry_group_IT_number 112
_symmetry_cell_setting 'tetragonal'
loop_
_space_group_symop_operation_xyz
x,y,z
y,-x,-z
-x,-y,z
-y,x,-z
x,-y,1/2-z
-x,y,1/2-z
-y,-x,1/2+z
y,x,1/2+z
loop_
_atom_site_type_symbol
_atom_site_label
_atom_site_fract_x
_atom_site_fract_y
_atom_site_fract_z
Si Si1 0.652014 0.111907 0.326345
Si Si2 0.737287 0.787842 0.490995
Si Si3 0.152692 0.903472 0.948282
Si Si4 0.424414 0.076865 0.681844
Si Si5 0.759399 0.000000 0.250000
O O1 0.680799 0.174974 0.172905
O O2 0.621858 0.117893 0.617613
O O3 0.711528 0.058607 0.347809
O O4 0.596449 0.085642 0.122255
O O5 0.730848 0.761310 0.788239
O O6 0.793476 0.844100 0.533595
O O7 0.099528 0.883144 0.169656
O O8 0.193591 0.967488 0.031288
O O9 0.500000 0.092363 0.750000
O O10 0.413334 0.000000 0.750000
#
# Coordination Sequence:
#
# PCOD9555018 Si02
#       5
#     8   8   8   8   4
#     4  11  20  32  49  69  86 116 147 177 225 266
#     4   9  17  30  45  65  88 106 134 179 224 264
#     4   9  19  31  44  62  81 100 122 165 218 261
#     4  11  21  33  45  65  93 119 148 183 216 256
#     4  10  20  32  51  65  80 102 142 170 208 286
#
# _framework density 17.358077999999999
#
# number of rings (size 3 to 8) (size 9 to 14) (size 15 to 20)
#    0.000    2.000    2.222    2.000    0.000    9.778 
#    0.000    0.000    0.000    2.000    0.000    0.000 
#    0.000    0.000    0.000    0.000    0.000    0.000 
#
# Total GULP energy -200855.649413 kJ/mol
# GULP energy per Si atom -5579.323595 kJ/mol
# Density = 1.731857 g / cm^3
# Si number density = 17.358078 Si / 1000 Ang^3
#
#
#
# Elastic Constant Matrix: (Units=GPa)
#
#
# Indices 1 2 3 4 5 6 
#
# 1 33.5248 18.7924 1.5586 0.0000 0.0000 0.0000
# 2 18.7924 33.5248 1.5586 0.0000 0.0000 0.0000
# 3 1.5586 1.5586 67.6726 0.0000 0.0000 0.0000
# 4 0.0000 0.0000 0.0000 9.8949 0.0000 0.0000
# 5 0.0000 0.0000 0.0000 0.0000 9.8949 0.0000
# 6 0.0000 0.0000 0.0000 0.0000 0.0000 8.3897
#
#
#
# Elastic Compliance Matrix: (Units=1/GPa)
#
#
# Indices 1 2 3 4 5 6 
#
# 1 0.043509 -0.024369 -0.000441 0.000000 0.000000 0.000000
# 2 -0.024369 0.043509 -0.000441 0.000000 0.000000 0.000000
# 3 -0.000441 -0.000441 0.014797 0.000000 0.000000 0.000000
# 4 0.000000 0.000000 0.000000 0.101063 0.000000 0.000000
# 5 0.000000 0.000000 0.000000 0.000000 0.101063 0.000000
# 6 0.000000 0.000000 0.000000 0.000000 0.000000 0.119194
#
#
# Mechanical properties :
#
#
# Convention : Reuss Voigt Hill
#
# Bulk Modulus (GPa) = 19.48752 19.83793 19.66273
# Shear Modulus (GPa) = 10.18870 13.15673 11.67272
#
# Velocity S-wave (km/s) = 2.42538 2.75609 2.59601
# Velocity P-wave (km/s) = 4.36972 4.64559 4.50976
#
# Compressibility (1/GPa) = 0.05131488
#
# Stress axis : x y z
#
# Youngs Moduli (GPa) = 22.98379 22.98379 67.57978
#
# Poissons Ratio (x) = 0.56008 0.02979
# Poissons Ratio (y) = 0.56008 0.02979
# Poissons Ratio (z) = 0.01013 0.01013
#
# Static dielectric constant tensor:
#      x y z
#    x 1.618630 0.000000 0.000000 
#    y 0.000000 1.618630 0.000000 
#    z 0.000000 0.000000 1.631270 
# 
# From -- ./inp_files/262.got.cif
#   From: 2010.05.17/outbox.cif.g08.bks.cpg/sg112_1_cif.got.tgz:262.got - 2010.05.20 10:59:04.
