data_PCOD9555552
_publ_section_title
;
Structure prediction by ZEFSAII (Michael W. Deem and Ramdas Pophale) SiO2 
 PCOD9555552
Probable space group: P -4 21 M 
;
_chemical_formula_sum "Si O2"
_cell_formula_units_Z 48
_cell_length_a 14.520728
_cell_length_b 14.520728
_cell_length_c 11.649574
_cell_angle_alpha 90.000000
_cell_angle_beta 90.000000
_cell_angle_gamma 90.000000
_cell_volume 2456.330637
_symmetry_space_group_name_H-M "P -4 21 M "
_symmetry_group_IT_number 113
_symmetry_cell_setting 'tetragonal'
loop_
_space_group_symop_operation_xyz
x,y,z
y,-x,-z
-x,-y,z
-y,x,-z
1/2+x,1/2-y,-z
1/2-x,1/2+y,-z
1/2-y,1/2-x,z
1/2+y,1/2+x,z
loop_
_atom_site_type_symbol
_atom_site_label
_atom_site_fract_x
_atom_site_fract_y
_atom_site_fract_z
Si Si1 0.221152 0.569189 0.961231
Si Si2 0.578930 0.078930 0.987645
Si Si3 0.579859 0.079859 0.723168
Si Si4 0.207407 0.147318 0.804657
Si Si5 0.505094 0.607103 0.175908
Si Si6 0.702570 0.948335 0.588059
Si Si7 0.473429 0.367472 0.440447
O O1 0.152319 0.652319 0.923035
O O2 0.319326 0.562814 0.897784
O O3 0.165051 0.472897 0.954451
O O4 0.242923 0.589048 0.094878
O O5 0.602372 0.102372 0.855110
O O6 0.500000 0.000000 0.983080
O O7 0.537941 0.164208 0.652390
O O8 0.500000 0.000000 0.727451
O O9 0.251408 0.248593 0.811203
O O10 0.099514 0.142610 0.822202
O O11 0.236352 0.103626 0.683686
O O12 0.500000 0.500000 0.138119
O O13 0.539630 0.610172 0.307423
O O14 0.616439 0.883562 0.561191
O O15 0.762098 0.965242 0.475616
O O16 0.402531 0.427955 0.514679
#
# Coordination Sequence:
#
# PCOD9555552 Si02
#       7
#     8   4   4   8   8   8   8
#     4  10  23  40  63  96 131 165 209 254 312 384
#     4   9  16  36  65  91 131 177 197 237 312 386
#     4   9  16  32  61  95 127 157 200 248 299 361
#     4  10  21  39  61  90 124 159 206 253 299 365
#     4  12  25  41  66  87 123 167 210 255 325 377
#     4  10  19  36  63  93 120 155 203 252 299 357
#     4  11  21  43  63  80 116 159 205 248 306 367
#
# _framework density 19.541343999999999
#
# number of rings (size 3 to 8) (size 9 to 14) (size 15 to 20)
#    0.000    1.667    5.000    0.000    3.500    0.667 
#    3.000    0.000    5.500    3.000    0.000    0.000 
#    0.000    0.000    0.000    0.000    0.000    0.000 
#
# Total GULP energy -267848.761510 kJ/mol
# GULP energy per Si atom -5580.182531 kJ/mol
# Density = 1.949687 g / cm^3
# Si number density = 19.541344 Si / 1000 Ang^3
#
#
#
# Elastic Constant Matrix: (Units=GPa)
#
#
# Indices 1 2 3 4 5 6 
#
# 1 70.2664 29.9062 19.0549 0.0000 0.0000 0.0000
# 2 29.9062 70.2654 19.0544 0.0000 0.0000 0.0000
# 3 19.0549 19.0544 62.2687 0.0000 0.0000 0.0000
# 4 0.0000 0.0000 0.0000 24.2603 0.0000 0.0000
# 5 0.0000 0.0000 0.0000 0.0000 24.2608 0.0000
# 6 0.0000 0.0000 0.0000 0.0000 0.0000 12.2992
#
#
#
# Elastic Compliance Matrix: (Units=1/GPa)
#
#
# Indices 1 2 3 4 5 6 
#
# 1 0.018038 -0.006740 -0.003457 0.000000 0.000000 0.000000
# 2 -0.006740 0.018038 -0.003457 0.000000 0.000000 0.000000
# 3 -0.003457 -0.003457 0.018175 0.000000 0.000000 0.000000
# 4 0.000000 0.000000 0.000000 0.041220 0.000000 0.000000
# 5 0.000000 0.000000 0.000000 0.000000 0.041219 0.000000
# 6 0.000000 0.000000 0.000000 0.000000 0.000000 0.081306
#
#
# Mechanical properties :
#
#
# Convention : Reuss Voigt Hill
#
# Bulk Modulus (GPa) = 37.11626 37.64795 37.38210
# Shear Modulus (GPa) = 19.66301 21.14970 20.40636
#
# Velocity S-wave (km/s) = 3.17555 3.29341 3.23502
# Velocity P-wave (km/s) = 5.69916 5.81117 5.75544
#
# Compressibility (1/GPa) = 0.02694237
#
# Stress axis : x y z
#
# Youngs Moduli (GPa) = 55.43980 55.43925 55.01953
#
# Poissons Ratio (x) = 0.37364 0.19022
# Poissons Ratio (y) = 0.37364 0.19021
# Poissons Ratio (z) = 0.19168 0.19167
#
# Static dielectric constant tensor:
#      x y z
#    x 1.703380 0.000000 0.000000 
#    y 0.000000 1.703380 0.000000 
#    z 0.000000 0.000000 1.674700 
# 
# From -- ./inp_files/1888.got.cif
#   From: 2010.05.17/outbox.cif.g08.bks.cpg/sg113_cif.got.tgz:1888.got - 2010.05.20 11:03:00.
