data_PCOD9555670
_publ_section_title
;
Structure prediction by ZEFSAII (Michael W. Deem and Ramdas Pophale) SiO2 
 PCOD9555670
Probable space group: P -4 21 M 
;
_chemical_formula_sum "Si O2"
_cell_formula_units_Z 40
_cell_length_a 11.020416
_cell_length_b 11.020416
_cell_length_c 15.563644
_cell_angle_alpha 90.000000
_cell_angle_beta 90.000000
_cell_angle_gamma 90.000000
_cell_volume 1890.197853
_symmetry_space_group_name_H-M "P -4 21 M "
_symmetry_group_IT_number 113
_symmetry_cell_setting 'tetragonal'
loop_
_space_group_symop_operation_xyz
x,y,z
y,-x,-z
-x,-y,z
-y,x,-z
1/2+x,1/2-y,-z
1/2-x,1/2+y,-z
1/2-y,1/2-x,z
1/2+y,1/2+x,z
loop_
_atom_site_type_symbol
_atom_site_label
_atom_site_fract_x
_atom_site_fract_y
_atom_site_fract_z
Si Si1 0.500648 0.806087 0.033327
Si Si2 0.809349 0.493493 0.650662
Si Si3 0.382429 0.583104 0.111946
Si Si4 0.616556 0.677843 0.699521
Si Si5 0.003348 0.802788 0.477491
O O1 0.610641 0.889360 0.067825
O O2 0.552642 0.717242 0.960051
O O3 0.399597 0.899597 0.998564
O O4 0.432315 0.719963 0.101003
O O5 0.861823 0.361823 0.675739
O O6 0.679477 0.545991 0.680878
O O7 0.803201 0.499979 0.546734
O O8 0.908625 0.591376 0.680855
O O9 0.500000 0.500000 0.099990
O O10 0.328395 0.562769 0.205947
O O11 0.723416 0.776585 0.697204
O O12 0.526233 0.714304 0.622992
O O13 0.883858 0.882404 0.491722
#
# Coordination Sequence:
#
# PCOD9555670 Si02
#       5
#     8   8   8   8   8
#     4  11  23  43  69  92 120 159 201 248 304 366
#     4   9  18  33  53  78 110 149 193 237 282 335
#     4  12  24  40  65  93 125 161 198 249 300 363
#     4  10  21  35  56  83 116 150 190 239 292 340
#     4   9  18  32  54  76 106 149 190 238 278 340
#
# _framework density 21.161805000000001
#
# number of rings (size 3 to 8) (size 9 to 14) (size 15 to 20)
#    0.000    1.800    2.000    2.400    5.600    1.600 
#    0.000    3.000    0.000    3.600    0.000    0.000 
#    0.000    0.000    0.000    0.000    0.000    0.000 
#
# Total GULP energy -223186.343417 kJ/mol
# GULP energy per Si atom -5579.658585 kJ/mol
# Density = 2.111364 g / cm^3
# Si number density = 21.161805 Si / 1000 Ang^3
#
#
#
# Elastic Constant Matrix: (Units=GPa)
#
#
# Indices 1 2 3 4 5 6 
#
# 1 47.0997 11.5134 -8.9313 0.0000 0.0000 0.0000
# 2 11.5134 47.1004 -8.9315 0.0000 0.0000 0.0000
# 3 -8.9313 -8.9315 75.9291 0.0000 0.0000 0.0000
# 4 0.0000 0.0000 0.0000 12.4734 0.0000 0.0000
# 5 0.0000 0.0000 0.0000 0.0000 12.4726 0.0000
# 6 0.0000 0.0000 0.0000 0.0000 0.0000 2.0000
#
#
#
# Elastic Compliance Matrix: (Units=1/GPa)
#
#
# Indices 1 2 3 4 5 6 
#
# 1 0.022898 -0.005203 0.002081 0.000000 0.000000 0.000000
# 2 -0.005203 0.022898 0.002081 0.000000 0.000000 0.000000
# 3 0.002081 0.002081 0.013660 0.000000 0.000000 0.000000
# 4 0.000000 0.000000 0.000000 0.080170 0.000000 0.000000
# 5 0.000000 0.000000 0.000000 0.000000 0.080176 0.000000
# 6 0.000000 0.000000 0.000000 0.000000 0.000000 0.500003
#
#
# Mechanical properties :
#
#
# Convention : Reuss Voigt Hill
#
# Bulk Modulus (GPa) = 17.42883 17.49228 17.46056
# Shear Modulus (GPa) = 6.74755 17.15444 11.95100
#
# Velocity S-wave (km/s) = 1.78759 2.85025 2.37901
# Velocity P-wave (km/s) = 3.53758 4.37216 3.97683
#
# Compressibility (1/GPa) = 0.05737620
#
# Stress axis : x y z
#
# Youngs Moduli (GPa) = 43.67192 43.67259 73.20726
#
# Poissons Ratio (x) = 0.22721 -0.15238
# Poissons Ratio (y) = 0.22721 -0.15238
# Poissons Ratio (z) = -0.09090 -0.09090
#
# Static dielectric constant tensor:
#      x y z
#    x 1.783680 0.000000 0.000000 
#    y 0.000000 1.783680 0.000000 
#    z 0.000000 0.000000 1.767820 
# 
# From -- ./inp_files/2142.got.cif
#   From: 2010.05.17/outbox.cif.g08.bks.cpg/sg113_cif.got.tgz:2142.got - 2010.05.20 11:03:00.
