data_PCOD9555134
_publ_section_title
;
Structure prediction by ZEFSAII (Michael W. Deem and Ramdas Pophale) SiO2 
 PCOD9555134
Probable space group: P -4 2 C
;
_chemical_formula_sum "Si O2"
_cell_formula_units_Z 48
_cell_length_a 8.786372
_cell_length_b 8.786372
_cell_length_c 28.877292
_cell_angle_alpha 90.000000
_cell_angle_beta 90.000000
_cell_angle_gamma 90.000000
_cell_volume 2229.336556
_symmetry_space_group_name_H-M "P -4 2 C"
_symmetry_group_IT_number 112
_symmetry_cell_setting 'tetragonal'
loop_
_space_group_symop_operation_xyz
x,y,z
y,-x,-z
-x,-y,z
-y,x,-z
x,-y,1/2-z
-x,y,1/2-z
-y,-x,1/2+z
y,x,1/2+z
loop_
_atom_site_type_symbol
_atom_site_label
_atom_site_fract_x
_atom_site_fract_y
_atom_site_fract_z
Si Si1 0.912833 0.660253 0.608556
Si Si2 0.675221 0.049038 0.016586
Si Si3 0.566554 0.831785 0.799932
Si Si4 0.707334 0.847989 0.934722
Si Si5 0.449253 0.329976 0.610326
Si Si6 0.885402 0.863843 0.836861
O O1 0.954170 0.742059 0.560060
O O2 0.732486 0.666465 0.611764
O O3 0.000000 0.500000 0.604183
O O4 0.996911 0.729954 0.652642
O O5 0.500000 0.000000 0.013111
O O6 0.711512 0.217605 0.034576
O O7 0.734404 0.992018 0.967549
O O8 0.500000 0.792542 0.750000
O O9 0.511640 0.714688 0.838914
O O10 0.749987 0.840408 0.800634
O O11 0.500000 0.000000 0.811960
O O12 0.536197 0.792698 0.922413
O O13 0.791390 0.877023 0.885739
O O14 0.500000 0.500000 0.597426
O O15 0.000000 0.000000 0.826876
#
# Coordination Sequence:
#
# PCOD9555134 Si02
#       6
#     8   8   8   8   8   8
#     4  10  21  40  61  85 127 171 213 275 330 394
#     4  10  22  37  53  83 122 163 221 271 318 376
#     4  10  22  42  66  96 130 167 216 273 338 417
#     4  10  24  36  59  88 125 173 221 277 326 387
#     4  11  22  42  67  92 126 174 223 273 342 408
#     4  10  21  38  62  92 124 171 219 260 338 402
#
# _framework density 21.531068999999999
#
# number of rings (size 3 to 8) (size 9 to 14) (size 15 to 20)
#    0.000    1.833    0.000    5.000    7.000    3.000 
#    0.000    5.833    0.000    1.000    0.000    0.000 
#    0.000    0.000    0.000    0.000    0.000    0.000 
#
# Total GULP energy -267630.612844 kJ/mol
# GULP energy per Si atom -5575.637768 kJ/mol
# Density = 2.148206 g / cm^3
# Si number density = 21.531069 Si / 1000 Ang^3
#
#
#
# Elastic Constant Matrix: (Units=GPa)
#
#
# Indices 1 2 3 4 5 6 
#
# 1 127.5164 31.6991 34.7342 0.0000 0.0000 0.0000
# 2 31.6991 127.5164 34.7342 0.0000 0.0000 0.0000
# 3 34.7342 34.7342 78.4025 0.0000 0.0000 0.0000
# 4 0.0000 0.0000 0.0000 24.2459 0.0000 0.0000
# 5 0.0000 0.0000 0.0000 0.0000 24.2459 0.0000
# 6 0.0000 0.0000 0.0000 0.0000 0.0000 33.5822
#
#
#
# Elastic Compliance Matrix: (Units=1/GPa)
#
#
# Indices 1 2 3 4 5 6 
#
# 1 0.009111 -0.001325 -0.003449 0.000000 0.000000 0.000000
# 2 -0.001325 0.009111 -0.003449 0.000000 0.000000 0.000000
# 3 -0.003449 -0.003449 0.015811 0.000000 0.000000 0.000000
# 4 0.000000 0.000000 0.000000 0.041244 0.000000 0.000000
# 5 0.000000 0.000000 0.000000 0.000000 0.041244 0.000000
# 6 0.000000 0.000000 0.000000 0.000000 0.000000 0.029778
#
#
# Mechanical properties :
#
#
# Convention : Reuss Voigt Hill
#
# Bulk Modulus (GPa) = 56.86555 59.53002 58.19779
# Shear Modulus (GPa) = 29.65445 31.89932 30.77688
#
# Velocity S-wave (km/s) = 3.71521 3.85326 3.78487
# Velocity P-wave (km/s) = 6.69865 6.89241 6.79622
#
# Compressibility (1/GPa) = 0.01758534
#
# Stress axis : x y z
#
# Youngs Moduli (GPa) = 109.75554 109.75554 63.24736
#
# Poissons Ratio (x) = 0.14547 0.21816
# Poissons Ratio (y) = 0.14547 0.21816
# Poissons Ratio (z) = 0.37858 0.37858
#
# Static dielectric constant tensor:
#      x y z
#    x 1.802250 0.000000 0.000000 
#    y 0.000000 1.802250 0.000000 
#    z 0.000000 0.000000 1.810140 
# 
# From -- ./inp_files/6322.got.cif
#   From: 2010.05.17/outbox.cif.g08.bks.cpg/sg112_4_cif.got.tgz:6322.got - 2010.05.20 10:59:04.
