data_PCOD9555281
_publ_section_title
;
Structure prediction by ZEFSAII (Michael W. Deem and Ramdas Pophale) SiO2 
 PCOD9555281
Probable space group: P -4 2 C
;
_chemical_formula_sum "Si O2"
_cell_formula_units_Z 20
_cell_length_a 5.229269
_cell_length_b 5.229269
_cell_length_c 29.191099
_cell_angle_alpha 90.000000
_cell_angle_beta 90.000000
_cell_angle_gamma 90.000000
_cell_volume 798.238025
_symmetry_space_group_name_H-M "P -4 2 C"
_symmetry_group_IT_number 112
_symmetry_cell_setting 'tetragonal'
loop_
_space_group_symop_operation_xyz
x,y,z
y,-x,-z
-x,-y,z
-y,x,-z
x,-y,1/2-z
-x,y,1/2-z
-y,-x,1/2+z
y,x,1/2+z
loop_
_atom_site_type_symbol
_atom_site_label
_atom_site_fract_x
_atom_site_fract_y
_atom_site_fract_z
Si Si1 0.500000 0.000000 0.250000
Si Si2 0.325784 0.249770 0.673307
Si Si3 0.000000 0.000000 0.000000
Si Si4 0.321864 0.748518 0.927683
O O1 0.689344 0.150178 0.283823
O O2 0.500000 0.500000 0.670726
O O3 0.197192 0.242237 0.623120
O O4 0.500000 0.000000 0.679389
O O5 0.115131 0.783782 0.967105
O O6 0.500000 0.500000 0.932864
O O7 0.500000 0.000000 0.929887
#
# Coordination Sequence:
#
# PCOD9555281 Si02
#       4
#     2   8   2   8
#     4  12  26  46  84 108 152 210 266 310 412 462
#     4  10  25  49  72 110 154 199 256 325 390 474
#     4  12  28  44  80 110 144 200 268 316 408 478
#     4  10  26  49  75 109 158 200 259 330 403 478
#
# _framework density 25.055184000000001
#
# number of rings (size 3 to 8) (size 9 to 14) (size 15 to 20)
#    0.000    1.600    0.000    0.600    5.600   16.000 
#    0.000    4.000    0.000    0.000    0.000    0.000 
#    0.000    0.000    0.000    0.000    0.000    0.000 
#
# Total GULP energy -112165.501343 kJ/mol
# GULP energy per Si atom -5608.275067 kJ/mol
# Density = 2.499816 g / cm^3
# Si number density = 25.055184 Si / 1000 Ang^3
#
#
#
# Elastic Constant Matrix: (Units=GPa)
#
#
# Indices 1 2 3 4 5 6 
#
# 1 146.8132 59.3853 87.7597 0.0000 0.0000 0.0000
# 2 59.3853 146.8132 87.7597 0.0000 0.0000 0.0000
# 3 87.7597 87.7597 284.6308 0.0000 0.0000 0.0000
# 4 0.0000 0.0000 0.0000 57.0044 0.0000 0.0000
# 5 0.0000 0.0000 0.0000 0.0000 57.0044 0.0000
# 6 0.0000 0.0000 0.0000 0.0000 0.0000 49.3452
#
#
#
# Elastic Compliance Matrix: (Units=1/GPa)
#
#
# Indices 1 2 3 4 5 6 
#
# 1 0.009007 -0.002431 -0.002027 0.000000 0.000000 0.000000
# 2 -0.002431 0.009007 -0.002027 0.000000 0.000000 0.000000
# 3 -0.002027 -0.002027 0.004764 0.000000 0.000000 0.000000
# 4 0.000000 0.000000 0.000000 0.017543 0.000000 0.000000
# 5 0.000000 0.000000 0.000000 0.000000 0.017543 0.000000
# 6 0.000000 0.000000 0.000000 0.000000 0.000000 0.020265
#
#
# Mechanical properties :
#
#
# Convention : Reuss Voigt Hill
#
# Bulk Modulus (GPa) = 101.99047 116.45188 109.22118
# Shear Modulus (GPa) = 52.98417 55.56096 54.27256
#
# Velocity S-wave (km/s) = 4.60357 4.71419 4.65921
# Velocity P-wave (km/s) = 8.30975 8.72986 8.52239
#
# Compressibility (1/GPa) = 0.00980484
#
# Stress axis : x y z
#
# Youngs Moduli (GPa) = 111.02818 111.02818 209.92837
#
# Poissons Ratio (x) = 0.26994 0.42561
# Poissons Ratio (y) = 0.26994 0.42561
# Poissons Ratio (z) = 0.22510 0.22510
#
# Static dielectric constant tensor:
#      x y z
#    x 1.961050 0.000000 0.000000 
#    y 0.000000 1.961050 0.000000 
#    z 0.000000 0.000000 2.026220 
# 
# From -- ./inp_files/5650.got.cif
#   From: 2010.05.17/outbox.cif.g08.bks.cpg/sg112_3_cif.got.tgz:5650.got - 2010.05.20 10:59:04.
