data_PCOD9555933
_publ_section_title
;
Structure prediction by ZEFSAII (Michael W. Deem and Ramdas Pophale) SiO2 
 PCOD9555933
Probable space group: P -4 21 C
;
_chemical_formula_sum "Si O2"
_cell_formula_units_Z 48
_cell_length_a 18.235688
_cell_length_b 18.235688
_cell_length_c 8.662515
_cell_angle_alpha 90.000000
_cell_angle_beta 90.000000
_cell_angle_gamma 90.000000
_cell_volume 2880.635483
_symmetry_space_group_name_H-M "P -4 21 C"
_symmetry_group_IT_number 114
_symmetry_cell_setting 'tetragonal'
loop_
_space_group_symop_operation_xyz
x,y,z
y,-x,-z
-x,-y,z
-y,x,-z
1/2+x,1/2-y,1/2-z
1/2-x,1/2+y,1/2-z
1/2-y,1/2-x,1/2+z
1/2+y,1/2+x,1/2+z
loop_
_atom_site_type_symbol
_atom_site_label
_atom_site_fract_x
_atom_site_fract_y
_atom_site_fract_z
Si Si1 0.684353 0.687171 0.208016
Si Si2 0.581211 0.806061 0.813886
Si Si3 0.701180 0.696116 0.841019
Si Si4 0.572157 0.807099 0.183955
Si Si5 0.590242 0.193960 0.313497
Si Si6 0.920620 0.708089 0.820382
O O1 0.740172 0.741630 0.295501
O O2 0.605834 0.726684 0.226763
O O3 0.711281 0.608909 0.270448
O O4 0.700193 0.687597 0.025036
O O5 0.624113 0.729431 0.787018
O O6 0.632406 0.871696 0.751192
O O7 0.503434 0.804456 0.731613
O O8 0.572303 0.813634 0.998428
O O9 0.731684 0.624124 0.758903
O O10 0.491127 0.817912 0.249158
O O11 0.646202 0.129841 0.261675
O O12 0.588627 0.199017 0.497251
#
# Coordination Sequence:
#
# PCOD9555933 Si02
#       6
#     8   8   8   8   8   8
#     4   9  17  31  51  72  96 127 164 204 242 287
#     4  10  20  34  52  75 102 131 165 203 247 295
#     4   9  17  31  51  72  96 127 164 204 242 287
#     4  10  20  34  52  75 102 131 165 203 247 295
#     4  11  21  33  51  74 102 133 166 203 244 292
#     4  11  21  33  51  74 102 133 166 203 244 292
#
# _framework density 16.662989
#
# number of rings (size 3 to 8) (size 9 to 14) (size 15 to 20)
#    0.000    2.000    0.000    7.000    0.000    4.667 
#    0.000    3.333    0.000    1.000    0.000    7.000 
#    0.000    0.000    0.000    0.000    0.000    0.000 
#
# Total GULP energy -267567.386330 kJ/mol
# GULP energy per Si atom -5574.320549 kJ/mol
# Density = 1.662506 g / cm^3
# Si number density = 16.662989 Si / 1000 Ang^3
#
#
#
# Elastic Constant Matrix: (Units=GPa)
#
#
# Indices 1 2 3 4 5 6 
#
# 1 35.1705 43.1822 -6.4816 0.0000 0.0000 0.0000
# 2 43.1822 35.1705 -6.4816 0.0000 0.0000 0.0000
# 3 -6.4816 -6.4816 33.3223 0.0000 0.0000 0.0000
# 4 0.0000 0.0000 0.0000 25.1087 0.0000 0.0000
# 5 0.0000 0.0000 0.0000 0.0000 25.1087 0.0000
# 6 0.0000 0.0000 0.0000 0.0000 0.0000 19.4742
#
#
#
# Elastic Compliance Matrix: (Units=1/GPa)
#
#
# Indices 1 2 3 4 5 6 
#
# 1 -0.055815 0.069002 0.002565 0.000000 0.000000 0.000000
# 2 0.069002 -0.055815 0.002565 0.000000 0.000000 0.000000
# 3 0.002565 0.002565 0.031008 0.000000 0.000000 0.000000
# 4 0.000000 0.000000 0.000000 0.039827 0.000000 0.000000
# 5 0.000000 0.000000 0.000000 0.000000 0.039827 0.000000
# 6 0.000000 0.000000 0.000000 0.000000 0.000000 0.051350
#
#
# Mechanical properties :
#
#
# Convention : Reuss Voigt Hill
#
# Bulk Modulus (GPa) = 14.78360 18.23347 16.50854
# Shear Modulus (GPa) = -66.37064 18.83461 -23.76802
#
# Velocity S-wave (km/s) = -6.31804 3.36568 -3.78086
# Velocity P-wave (km/s) = 6.65824 5.10588 3.02177
#
# Compressibility (1/GPa) = 0.06764251
#
# Stress axis : x y z
#
# Youngs Moduli (GPa) = -17.91643 -17.91643 32.24990
#
# Poissons Ratio (x) = 1.23627 -0.08272
# Poissons Ratio (y) = 1.23627 -0.08272
# Poissons Ratio (z) = 0.04596 0.04596
#
# Static dielectric constant tensor:
#      x y z
#    x 1.571080 0.000000 0.000000 
#    y 0.000000 1.571080 0.000000 
#    z 0.000000 0.000000 1.555540 
# 
# From -- ./inp_files/894.got.cif
#   From: 2010.05.17/outbox.cif.g08.bks.cpg/sg114_1_cif.got.tgz:894.got - 2010.05.20 11:04:54.
