data_PCOD9556576
_publ_section_title
;
Structure prediction by ZEFSAII (Michael W. Deem and Ramdas Pophale) SiO2 
 PCOD9556576
Probable space group: P -4 M 2
;
_chemical_formula_sum "Si O2"
_cell_formula_units_Z 48
_cell_length_a 14.531103
_cell_length_b 14.531103
_cell_length_c 15.570148
_cell_angle_alpha 90.000000
_cell_angle_beta 90.000000
_cell_angle_gamma 90.000000
_cell_volume 3287.682751
_symmetry_space_group_name_H-M "P -4 M 2"
_symmetry_group_IT_number 115
_symmetry_cell_setting 'tetragonal'
loop_
_space_group_symop_operation_xyz
x,y,z
y,-x,-z
-x,-y,z
-y,x,-z
y,x,-z
-y,-x,-z
-x,y,z
x,-y,z
loop_
_atom_site_type_symbol
_atom_site_label
_atom_site_fract_x
_atom_site_fract_y
_atom_site_fract_z
Si Si1 0.217940 0.888775 0.264070
Si Si2 0.640569 0.400141 0.402127
Si Si3 0.802729 0.603138 0.656546
Si Si4 0.896549 0.804651 0.419384
Si Si5 0.105760 0.111531 0.096075
Si Si6 0.602648 0.147816 0.544484
O O1 0.317065 0.845316 0.285451
O O2 0.149512 0.848070 0.335806
O O3 0.174976 0.862780 0.171909
O O4 0.222063 0.000000 0.270789
O O5 0.604262 0.395739 0.500000
O O6 0.615138 0.500000 0.364971
O O7 0.611141 0.308065 0.353262
O O8 0.750295 0.396418 0.414979
O O9 0.826131 0.500000 0.685455
O O10 0.840776 0.613832 0.558714
O O11 0.835107 0.835107 0.500000
O O12 0.898500 0.693770 0.418897
O O13 0.000000 0.839448 0.430667
O O14 0.000000 0.143355 0.111267
O O15 0.101808 0.000000 0.095435
O O16 0.137253 0.137253 0.000000
O O17 0.500000 0.108977 0.559652
#
# Coordination Sequence:
#
# PCOD9556576 Si02
#       6
#     8   8   8   8   8   8
#     4  11  21  33  47  66  94 126 159 194 233 275
#     4   9  15  26  44  63  85 114 153 202 247 276
#     4  10  19  30  44  64  91 122 159 197 232 273
#     4  12  22  32  44  62  92 128 163 193 226 271
#     4   8  15  30  52  75  94 112 143 191 241 285
#     4   9  17  31  47  60  84 124 165 199 231 267
#
# _framework density 14.599949000000001
#
# number of rings (size 3 to 8) (size 9 to 14) (size 15 to 20)
#    0.000    2.167    3.333    3.500    0.000    3.667 
#    0.000    1.667    0.000    0.000    0.000    2.333 
#    0.000    5.333    0.000    0.000    0.000    0.000 
#
# Total GULP energy -267434.767431 kJ/mol
# GULP energy per Si atom -5571.557655 kJ/mol
# Density = 1.456672 g / cm^3
# Si number density = 14.599949 Si / 1000 Ang^3
#
#
#
# Elastic Constant Matrix: (Units=GPa)
#
#
# Indices 1 2 3 4 5 6 
#
# 1 92.5581 28.7239 33.2367 0.0000 0.0000 0.0000
# 2 28.7239 92.5581 33.2368 0.0000 0.0000 0.0000
# 3 33.2367 33.2368 76.7882 0.0000 0.0000 0.0000
# 4 0.0000 0.0000 0.0000 -1.6590 0.0000 0.0000
# 5 0.0000 0.0000 0.0000 0.0000 -1.6585 0.0000
# 6 0.0000 0.0000 0.0000 0.0000 0.0000 0.7669
#
#
#
# Elastic Compliance Matrix: (Units=1/GPa)
#
#
# Indices 1 2 3 4 5 6 
#
# 1 0.013238 -0.002428 -0.004679 0.000000 0.000000 0.000000
# 2 -0.002428 0.013238 -0.004679 0.000000 0.000000 0.000000
# 3 -0.004679 -0.004679 0.017073 0.000000 0.000000 0.000000
# 4 0.000000 0.000000 0.000000 -0.602765 0.000000 0.000000
# 5 0.000000 0.000000 0.000000 0.000000 -0.602956 0.000000
# 6 0.000000 0.000000 0.000000 0.000000 0.000000 1.303918
#
#
# Mechanical properties :
#
#
# Convention : Reuss Voigt Hill
#
# Bulk Modulus (GPa) = 50.05702 50.25546 50.15624
# Shear Modulus (GPa) = 29.07393 10.60368 19.83880
#
# Velocity S-wave (km/s) = 4.46732 2.69789 3.69023
# Velocity P-wave (km/s) = 7.80829 6.64840 7.25157
#
# Compressibility (1/GPa) = 0.01997722
#
# Stress axis : x y z
#
# Youngs Moduli (GPa) = 75.54233 75.54217 58.57144
#
# Poissons Ratio (x) = 0.18341 0.27404
# Poissons Ratio (y) = 0.18341 0.27405
# Poissons Ratio (z) = 0.35345 0.35345
#
# Static dielectric constant tensor:
#      x y z
#    x 1.528720 0.000000 0.000000 
#    y 0.000000 1.528720 0.000000 
#    z 0.000000 0.000000 1.451480 
# 
# From -- ./inp_files/3716.got.cif
#   From: 2010.05.17/outbox.cif.g08.bks.cpg/sg115_2_cif.got.tgz:3716.got - 2010.05.20 11:07:42.
