data_PCOD9556512
_publ_section_title
;
Structure prediction by ZEFSAII (Michael W. Deem and Ramdas Pophale) SiO2 
 PCOD9556512
Probable space group: P -4 21 C
;
_chemical_formula_sum "Si O2"
_cell_formula_units_Z 58
_cell_length_a 18.000000
_cell_length_b 18.000000
_cell_length_c 9.000000
_cell_angle_alpha 90.000000
_cell_angle_beta 90.000000
_cell_angle_gamma 90.000000
_cell_volume 2916.000000
_symmetry_space_group_name_H-M "P -4 21 C"
_symmetry_group_IT_number 114
_symmetry_cell_setting 'tetragonal'
loop_
_space_group_symop_operation_xyz
x,y,z
y,-x,-z
-x,-y,z
-y,x,-z
1/2+x,1/2-y,1/2-z
1/2-x,1/2+y,1/2-z
1/2-y,1/2-x,1/2+z
1/2+y,1/2+x,1/2+z
loop_
_atom_site_type_symbol
_atom_site_label
_atom_site_fract_x
_atom_site_fract_y
_atom_site_fract_z
Si Si1 0.354152 0.702757 0.833361
Si Si2 0.184987 0.728716 0.766403
Si Si3 0.860143 0.616628 0.302609
Si Si4 0.029366 0.420238 0.068031
Si Si5 0.457552 0.351307 0.322587
Si Si6 0.595793 0.800642 0.459956
Si Si7 0.393812 0.710450 0.171386
Si Si8 0.000000 0.000000 0.000000
O O1 0.265769 0.719641 0.844306
O O2 0.385582 0.773363 0.741055
O O3 0.362932 0.620577 0.764670
O O4 0.390445 0.704442 0.994303
O O5 0.191356 0.673551 0.627537
O O6 0.175720 0.816079 0.731156
O O7 0.118791 0.699104 0.868632
O O8 0.873585 0.585747 0.465440
O O9 0.887715 0.701884 0.290248
O O10 0.917596 0.566973 0.208769
O O11 0.000000 0.500000 0.013446
O O12 0.959275 0.365999 0.088552
O O13 0.439646 0.279532 0.424484
O O14 0.530854 0.326504 0.230812
O O15 0.477333 0.427481 0.405310
#
# Coordination Sequence:
#
# PCOD9556512 Si02
#       8
#     8   8   8   8   8   8   8   2
#     4  10  23  43  71  99 128 184 230 276 345 415
#     4  10  22  42  70  98 134 176 229 280 337 412
#     4  11  24  45  69  94 140 187 220 278 347 417
#     4  12  27  42  65 102 140 178 227 277 336 415
#     4  11  26  43  70  99 137 172 242 286 343 412
#     4  11  24  43  66 100 136 180 224 280 341 410
#     4  11  21  45  71  98 135 176 229 285 345 413
#     4  12  28  48  66 100 132 180 232 306 344 416
#
# _framework density 19.890260999999999
#
# number of rings (size 3 to 8) (size 9 to 14) (size 15 to 20)
#    0.000    1.103    4.138    1.241    5.793    1.103 
#    2.483    0.000    0.000    0.000    0.000    0.000 
#    0.000    0.000    0.000    0.000    0.000    0.000 
#
# Total GULP energy -323749.493159 kJ/mol
# GULP energy per Si atom -5581.887813 kJ/mol
# Density = 1.984499 g / cm^3
# Si number density = 19.890261 Si / 1000 Ang^3
#
#
#
# Elastic Constant Matrix: (Units=GPa)
#
#
# Indices 1 2 3 4 5 6 
#
# 1 125.9044 47.6281 30.7672 0.0000 0.0000 0.0000
# 2 47.6281 125.9044 30.7672 0.0000 0.0000 0.0000
# 3 30.7672 30.7672 54.4474 0.0000 0.0000 0.0000
# 4 0.0000 0.0000 0.0000 13.2241 0.0000 0.0000
# 5 0.0000 0.0000 0.0000 0.0000 13.2241 0.0000
# 6 0.0000 0.0000 0.0000 0.0000 0.0000 25.8485
#
#
#
# Elastic Compliance Matrix: (Units=1/GPa)
#
#
# Indices 1 2 3 4 5 6 
#
# 1 0.009991 -0.002784 -0.004072 0.000000 0.000000 0.000000
# 2 -0.002784 0.009991 -0.004072 0.000000 0.000000 0.000000
# 3 -0.004072 -0.004072 0.022969 0.000000 0.000000 0.000000
# 4 0.000000 0.000000 0.000000 0.075619 0.000000 0.000000
# 5 0.000000 0.000000 0.000000 0.000000 0.075619 0.000000
# 6 0.000000 0.000000 0.000000 0.000000 0.000000 0.038687
#
#
# Mechanical properties :
#
#
# Convention : Reuss Voigt Hill
#
# Bulk Modulus (GPa) = 47.40980 58.28682 52.84831
# Shear Modulus (GPa) = 19.10109 23.59894 21.35002
#
# Velocity S-wave (km/s) = 3.10227 3.44824 3.27982
# Velocity P-wave (km/s) = 6.05967 6.72470 6.40083
#
# Compressibility (1/GPa) = 0.02109269
#
# Stress axis : x y z
#
# Youngs Moduli (GPa) = 100.09054 100.09054 43.53742
#
# Poissons Ratio (x) = 0.27868 0.17730
# Poissons Ratio (y) = 0.27868 0.17730
# Poissons Ratio (z) = 0.40760 0.40760
#
# Static dielectric constant tensor:
#      x y z
#    x 1.676420 0.000000 0.000000 
#    y 0.000000 1.676420 0.000000 
#    z 0.000000 0.000000 1.745670 
# 
# From -- ./inp_files/1014.got.cif
#   From: 2010.05.17/outbox.ucp.g08.bks.cvg/sg114_1_cif.got.tgz:1014.got - 2010.06.11 11:33:27.
