data_PCOD9556758
_publ_section_title
;
Structure prediction by ZEFSAII (Michael W. Deem and Ramdas Pophale) SiO2 
 PCOD9556758
Probable space group: P -4 M 2
;
_chemical_formula_sum "Si O2"
_cell_formula_units_Z 37
_cell_length_a 11.180639
_cell_length_b 11.180639
_cell_length_c 16.715887
_cell_angle_alpha 90.000000
_cell_angle_beta 90.000000
_cell_angle_gamma 90.000000
_cell_volume 2089.597678
_symmetry_space_group_name_H-M "P -4 M 2"
_symmetry_group_IT_number 115
_symmetry_cell_setting 'tetragonal'
loop_
_space_group_symop_operation_xyz
x,y,z
y,-x,-z
-x,-y,z
-y,x,-z
y,x,-z
-y,-x,-z
-x,y,z
x,-y,z
loop_
_atom_site_type_symbol
_atom_site_label
_atom_site_fract_x
_atom_site_fract_y
_atom_site_fract_z
Si Si1 0.724386 0.236955 0.861306
Si Si2 0.357194 0.364996 0.594790
Si Si3 0.500000 0.859744 0.958643
Si Si4 0.863014 0.863014 0.000000
Si Si5 0.135739 0.355249 0.300897
Si Si6 0.500000 0.500000 0.000000
Si Si7 0.271745 0.500000 0.884123
O O1 0.613292 0.204022 0.918715
O O2 0.709824 0.155958 0.783695
O O3 0.722917 0.376046 0.837103
O O4 0.833046 0.212615 0.921262
O O5 0.342510 0.342510 0.500000
O O6 0.500000 0.371731 0.608719
O O7 0.309511 0.500000 0.613574
O O8 0.317199 0.247391 0.643306
O O9 0.500000 0.000000 0.939768
O O10 0.500000 0.837687 0.053364
O O11 0.000000 0.842855 0.022678
O O12 0.144583 0.500000 0.288009
O O13 0.000000 0.332655 0.330703
O O14 0.385620 0.500000 0.943193
#
# Coordination Sequence:
#
# PCOD9556758 Si02
#       7
#     8   8   4   4   8   1   4
#     4  12  22  34  50  74 105 138 178 229 269 323
#     4   8  15  30  51  76 104 135 168 209 263 325
#     4  12  20  34  52  68  97 139 180 224 272 313
#     4  11  23  38  55  71  94 140 194 235 273 318
#     4  10  20  32  49  77 108 140 176 219 271 325
#     4  12  16  36  40  60 100 128 174 232 268 308
#     4  12  22  32  48  72  99 139 184 225 281 319
#
# _framework density 17.706758000000001
#
# number of rings (size 3 to 8) (size 9 to 14) (size 15 to 20)
#    0.000    1.405    5.405    2.595    1.514    0.000 
#    0.000    0.000    0.000    1.297    0.000    0.000 
#    0.000    0.000    0.000    0.000    0.000    0.000 
#
# Total GULP energy -206213.577757 kJ/mol
# GULP energy per Si atom -5573.339939 kJ/mol
# Density = 1.766646 g / cm^3
# Si number density = 17.706758 Si / 1000 Ang^3
#
#
#
# Elastic Constant Matrix: (Units=GPa)
#
#
# Indices 1 2 3 4 5 6 
#
# 1 54.2647 48.0338 22.7329 0.0000 0.0000 0.0000
# 2 48.0338 54.2647 22.7329 0.0000 0.0000 0.0000
# 3 22.7329 22.7329 49.3883 0.0000 0.0000 0.0000
# 4 0.0000 0.0000 0.0000 13.3281 0.0000 0.0000
# 5 0.0000 0.0000 0.0000 0.0000 13.3281 0.0000
# 6 0.0000 0.0000 0.0000 0.0000 0.0000 10.0043
#
#
#
# Elastic Compliance Matrix: (Units=1/GPa)
#
#
# Indices 1 2 3 4 5 6 
#
# 1 0.086390 -0.074100 -0.005657 0.000000 0.000000 0.000000
# 2 -0.074100 0.086390 -0.005657 0.000000 0.000000 0.000000
# 3 -0.005657 -0.005657 0.025455 0.000000 0.000000 0.000000
# 4 0.000000 0.000000 0.000000 0.075030 0.000000 0.000000
# 5 0.000000 0.000000 0.000000 0.000000 0.075030 0.000000
# 6 0.000000 0.000000 0.000000 0.000000 0.000000 0.099957
#
#
# Mechanical properties :
#
#
# Convention : Reuss Voigt Hill
#
# Bulk Modulus (GPa) = 36.48674 38.32409 37.40542
# Shear Modulus (GPa) = 7.95907 11.62663 9.79285
#
# Velocity S-wave (km/s) = 2.12243 2.56524 2.35427
# Velocity P-wave (km/s) = 5.16305 5.51948 5.34424
#
# Compressibility (1/GPa) = 0.02740721
#
# Stress axis : x y z
#
# Youngs Moduli (GPa) = 11.57543 11.57543 39.28481
#
# Poissons Ratio (x) = 0.85775 0.22222
# Poissons Ratio (y) = 0.85775 0.22222
# Poissons Ratio (z) = 0.06548 0.06548
#
# Static dielectric constant tensor:
#      x y z
#    x 1.652350 0.000000 0.000000 
#    y 0.000000 1.652350 0.000000 
#    z 0.000000 0.000000 1.618500 
# 
# From -- ./inp_files/3663.got.cif
#   From: 2010.05.17/outbox.cif.g08.bks.cpg/sg115_2_cif.got.tgz:3663.got - 2010.05.20 11:07:42.
