data_PCOD9556097
_publ_section_title
;
Structure prediction by ZEFSAII (Michael W. Deem and Ramdas Pophale) SiO2 
 PCOD9556097
Probable space group: P -4 21 C
;
_chemical_formula_sum "Si O2"
_cell_formula_units_Z 32
_cell_length_a 8.705724
_cell_length_b 8.705724
_cell_length_c 19.956207
_cell_angle_alpha 90.000000
_cell_angle_beta 90.000000
_cell_angle_gamma 90.000000
_cell_volume 1512.473552
_symmetry_space_group_name_H-M "P -4 21 C"
_symmetry_group_IT_number 114
_symmetry_cell_setting 'tetragonal'
loop_
_space_group_symop_operation_xyz
x,y,z
y,-x,-z
-x,-y,z
-y,x,-z
1/2+x,1/2-y,1/2-z
1/2-x,1/2+y,1/2-z
1/2-y,1/2-x,1/2+z
1/2+y,1/2+x,1/2+z
loop_
_atom_site_type_symbol
_atom_site_label
_atom_site_fract_x
_atom_site_fract_y
_atom_site_fract_z
Si Si1 0.664343 0.911115 0.391159
Si Si2 0.713889 0.361265 0.486440
Si Si3 0.504429 0.815349 0.268011
Si Si4 0.300091 0.282001 0.152175
O O1 0.710289 0.822620 0.457300
O O2 0.627054 0.798244 0.329022
O O3 0.500000 0.000000 0.402717
O O4 0.782018 0.043162 0.371530
O O5 0.542079 0.296619 0.496260
O O6 0.776975 0.324622 0.412694
O O7 0.553463 0.743809 0.198251
O O8 0.345410 0.755839 0.298239
O O9 0.500000 0.000000 0.258015
#
# Coordination Sequence:
#
# PCOD9556097 Si02
#       4
#     8   8   8   8
#     4   9  19  41  59  85 134 163 206 269 319 371
#     4  11  21  37  65  93 126 172 225 265 316 391
#     4   9  20  41  63  92 128 170 211 270 324 379
#     4  10  21  42  67  92 128 173 214 273 322 390
#
# _framework density 21.157395000000001
#
# number of rings (size 3 to 8) (size 9 to 14) (size 15 to 20)
#    0.000    2.750    5.000    0.000    0.000    5.000 
#    4.500    0.000    0.000    0.000    0.000    0.000 
#    0.000    0.000    0.000    0.000    0.000    0.000 
#
# Total GULP energy -178645.382377 kJ/mol
# GULP energy per Si atom -5582.668199 kJ/mol
# Density = 2.110924 g / cm^3
# Si number density = 21.157395 Si / 1000 Ang^3
#
#
#
# Elastic Constant Matrix: (Units=GPa)
#
#
# Indices 1 2 3 4 5 6 
#
# 1 26.1521 12.6432 41.9977 0.0000 0.0000 0.0000
# 2 12.6432 26.1521 41.9977 0.0000 0.0000 0.0000
# 3 41.9977 41.9977 150.6656 0.0000 0.0000 0.0000
# 4 0.0000 0.0000 0.0000 25.7544 0.0000 0.0000
# 5 0.0000 0.0000 0.0000 0.0000 25.7544 0.0000
# 6 0.0000 0.0000 0.0000 0.0000 0.0000 14.6154
#
#
#
# Elastic Compliance Matrix: (Units=1/GPa)
#
#
# Indices 1 2 3 4 5 6 
#
# 1 0.069518 -0.004507 -0.018122 0.000000 0.000000 0.000000
# 2 -0.004507 0.069518 -0.018122 0.000000 0.000000 0.000000
# 3 -0.018122 -0.018122 0.016740 0.000000 0.000000 0.000000
# 4 0.000000 0.000000 0.000000 0.038828 0.000000 0.000000
# 5 0.000000 0.000000 0.000000 0.000000 0.038828 0.000000
# 6 0.000000 0.000000 0.000000 0.000000 0.000000 0.068421
#
#
# Mechanical properties :
#
#
# Convention : Reuss Voigt Hill
#
# Bulk Modulus (GPa) = 13.46328 44.02744 28.74536
# Shear Modulus (GPa) = 12.25148 20.31359 16.28253
#
# Velocity S-wave (km/s) = 2.40898 3.10194 2.77716
# Velocity P-wave (km/s) = 3.75697 5.80379 4.88870
#
# Compressibility (1/GPa) = 0.07427609
#
# Stress axis : x y z
#
# Youngs Moduli (GPa) = 14.38468 14.38468 59.73693
#
# Poissons Ratio (x) = 0.06483 1.08254
# Poissons Ratio (y) = 0.06483 1.08254
# Poissons Ratio (z) = 0.26068 0.26068
#
# Static dielectric constant tensor:
#      x y z
#    x 1.800420 0.000000 0.000000 
#    y 0.000000 1.800420 0.000000 
#    z 0.000000 0.000000 1.777210 
# 
# From -- ./inp_files/2822.got.cif
#   From: 2010.05.17/outbox.cif.g08.bks.cpg/sg114_2_cif.got.tgz:2822.got - 2010.05.20 11:04:54.
