data_PCOD9556794
_publ_section_title
;
Structure prediction by ZEFSAII (Michael W. Deem and Ramdas Pophale) SiO2 
 PCOD9556794
Probable space group: P -4 M 2
;
_chemical_formula_sum "Si O2"
_cell_formula_units_Z 48
_cell_length_a 9.338649
_cell_length_b 9.338649
_cell_length_c 32.073996
_cell_angle_alpha 90.000000
_cell_angle_beta 90.000000
_cell_angle_gamma 90.000000
_cell_volume 2797.184903
_symmetry_space_group_name_H-M "P -4 M 2"
_symmetry_group_IT_number 115
_symmetry_cell_setting 'tetragonal'
loop_
_space_group_symop_operation_xyz
x,y,z
y,-x,-z
-x,-y,z
-y,x,-z
y,x,-z
-y,-x,-z
-x,y,z
x,-y,z
loop_
_atom_site_type_symbol
_atom_site_label
_atom_site_fract_x
_atom_site_fract_y
_atom_site_fract_z
Si Si1 0.832198 0.172385 0.379625
Si Si2 0.825809 0.834932 0.954006
Si Si3 0.828340 0.330718 0.203900
Si Si4 0.669219 0.828260 0.129104
Si Si5 0.174143 0.164977 0.286802
Si Si6 0.331436 0.328074 0.546834
O O1 0.780356 0.213505 0.333021
O O2 0.745447 0.243803 0.416648
O O3 0.000000 0.210888 0.383335
O O4 0.822553 0.000000 0.381695
O O5 0.783354 0.738578 0.915021
O O6 0.000000 0.836762 0.955379
O O7 0.779157 0.000000 0.947967
O O8 0.781831 0.781831 0.000000
O O9 0.801584 0.500000 0.203166
O O10 0.747764 0.251731 0.166599
O O11 0.782997 0.263070 0.248217
O O12 0.000000 0.307992 0.199566
O O13 0.500000 0.800681 0.129490
O O14 0.690988 0.000000 0.133440
O O15 0.000000 0.163959 0.288068
O O16 0.219527 0.000000 0.280079
O O17 0.284856 0.284856 0.500000
O O18 0.500000 0.293815 0.551117
O O19 0.317725 0.500000 0.549118
#
# Coordination Sequence:
#
# PCOD9556794 Si02
#       6
#     8   8   8   8   8   8
#     4   9  18  32  51  77 104 126 154 197 247 296
#     4   8  14  27  49  74  97 124 162 206 246 284
#     4  10  20  33  51  75  99 126 164 206 245 287
#     4  10  20  33  50  73 101 133 166 199 240 290
#     4   8  15  30  51  73  98 127 158 196 243 292
#     4   9  19  35  51  68  95 132 171 206 239 281
#
# _framework density 17.160108999999999
#
# number of rings (size 3 to 8) (size 9 to 14) (size 15 to 20)
#    0.000    3.000    0.000    3.000    0.000    4.000 
#    0.000    5.833    0.000    4.000    0.000    0.000 
#    0.000    0.000    0.000    0.000    0.000    0.000 
#
# Total GULP energy -267485.671022 kJ/mol
# GULP energy per Si atom -5572.618146 kJ/mol
# Density = 1.712105 g / cm^3
# Si number density = 17.160109 Si / 1000 Ang^3
#
#
#
# Elastic Constant Matrix: (Units=GPa)
#
#
# Indices 1 2 3 4 5 6 
#
# 1 43.0733 39.5517 71.0478 0.0000 0.0000 0.0000
# 2 39.5517 43.0733 71.0478 0.0000 0.0000 0.0000
# 3 71.0478 71.0478 207.0647 0.0000 0.0000 0.0000
# 4 0.0000 0.0000 0.0000 -18.5605 0.0000 0.0000
# 5 0.0000 0.0000 0.0000 0.0000 -18.5605 0.0000
# 6 0.0000 0.0000 0.0000 0.0000 0.0000 22.6358
#
#
#
# Elastic Compliance Matrix: (Units=1/GPa)
#
#
# Indices 1 2 3 4 5 6 
#
# 1 0.156743 -0.127217 -0.010131 0.000000 0.000000 0.000000
# 2 -0.127217 0.156743 -0.010131 0.000000 0.000000 0.000000
# 3 -0.010131 -0.010131 0.011781 0.000000 0.000000 0.000000
# 4 0.000000 0.000000 0.000000 -0.053878 0.000000 0.000000
# 5 0.000000 0.000000 0.000000 0.000000 -0.053878 0.000000
# 6 0.000000 0.000000 0.000000 0.000000 0.000000 0.044178
#
#
# Mechanical properties :
#
#
# Convention : Reuss Voigt Hill
#
# Bulk Modulus (GPa) = 32.99319 72.94508 52.96914
# Shear Modulus (GPa) = 8.82224 4.54057 6.68141
#
# Velocity S-wave (km/s) = 2.26987 1.62842 1.97535
# Velocity P-wave (km/s) = 5.11255 6.79238 6.01143
#
# Compressibility (1/GPa) = 0.03030928
#
# Stress axis : x y z
#
# Youngs Moduli (GPa) = 6.37989 6.37989 84.87923
#
# Poissons Ratio (x) = 0.81163 0.85988
# Poissons Ratio (y) = 0.81163 0.85988
# Poissons Ratio (z) = 0.06463 0.06463
#
# Static dielectric constant tensor:
#      x y z
#    x 1.565780 0.000000 0.000000 
#    y 0.000000 1.565780 0.000000 
#    z 0.000000 0.000000 1.584420 
# 
# From -- ./inp_files/5945.got.cif
#   From: 2010.05.17/outbox.cif.g08.bks.cpg/sg115_3_cif.got.tgz:5945.got - 2010.05.20 11:07:42.
