data_PCOD9556580
_publ_section_title
;
Structure prediction by ZEFSAII (Michael W. Deem and Ramdas Pophale) SiO2 
 PCOD9556580
Probable space group: P -4 M 2
;
_chemical_formula_sum "Si O2"
_cell_formula_units_Z 56
_cell_length_a 14.125261
_cell_length_b 14.125261
_cell_length_c 18.468889
_cell_angle_alpha 90.000000
_cell_angle_beta 90.000000
_cell_angle_gamma 90.000000
_cell_volume 3684.968109
_symmetry_space_group_name_H-M "P -4 M 2"
_symmetry_group_IT_number 115
_symmetry_cell_setting 'tetragonal'
loop_
_space_group_symop_operation_xyz
x,y,z
y,-x,-z
-x,-y,z
-y,x,-z
y,x,-z
-y,-x,-z
-x,y,z
x,-y,z
loop_
_atom_site_type_symbol
_atom_site_label
_atom_site_fract_x
_atom_site_fract_y
_atom_site_fract_z
Si Si1 0.607398 0.114757 0.218862
Si Si2 0.391660 0.114633 0.500000
Si Si3 0.392602 0.114757 0.781138
Si Si4 0.731976 0.888236 0.917056
Si Si5 0.268964 0.886046 0.358999
Si Si6 0.731036 0.886046 0.641001
Si Si7 0.268024 0.888236 0.082944
O O1 0.500000 0.150045 0.226018
O O2 0.673485 0.140364 0.286463
O O3 0.655952 0.141310 0.143083
O O4 0.602852 0.000000 0.219610
O O5 0.500000 0.149755 0.500000
O O6 0.333406 0.140112 0.428195
O O7 0.333406 0.140112 0.571805
O O8 0.396843 0.000000 0.500000
O O9 0.500000 0.150045 0.773982
O O10 0.344048 0.141310 0.856917
O O11 0.326515 0.140364 0.713537
O O12 0.397148 0.000000 0.780390
O O13 0.825851 0.825851 0.907659
O O14 0.752036 0.000000 0.907262
O O15 0.698486 0.875335 1.000000
O O16 0.171659 0.828341 0.361707
O O17 0.254394 0.000000 0.359537
O O18 0.745607 0.000000 0.640463
O O19 0.247965 0.000000 0.092738
#
# Coordination Sequence:
#
# PCOD9556580 Si02
#       7
#     8   8   8   8   8   8   8
#     4   9  17  29  44  61  83 113 148 186 225 257
#     4   9  17  30  47  65  87 117 151 185 219 250
#     4   9  17  29  44  61  83 113 148 186 225 257
#     4   9  17  28  42  62  89 119 148 177 210 254
#     4  10  19  30  45  66  93 122 149 177 210 254
#     4  10  19  30  45  66  93 122 149 177 210 254
#     4   9  17  28  42  62  89 119 148 177 210 254
#
# _framework density 15.196876
#
# number of rings (size 3 to 8) (size 9 to 14) (size 15 to 20)
#    0.000    2.714    0.000    2.143    0.000    4.571 
#    0.000    4.286    0.000    7.714    0.000    0.000 
#    0.000   43.429    0.000   12.571    0.000    1.143 
#
# Total GULP energy -311850.832187 kJ/mol
# GULP energy per Si atom -5568.764860 kJ/mol
# Density = 1.516229 g / cm^3
# Si number density = 15.196876 Si / 1000 Ang^3
#
#
#
# Elastic Constant Matrix: (Units=GPa)
#
#
# Indices 1 2 3 4 5 6 
#
# 1 66.9791 40.6084 49.2451 0.0000 0.0000 0.0000
# 2 40.6084 66.9791 49.2451 0.0000 0.0000 0.0000
# 3 49.2451 49.2451 120.5783 0.0000 0.0000 0.0000
# 4 0.0000 0.0000 0.0000 17.3057 0.0000 0.0000
# 5 0.0000 0.0000 0.0000 0.0000 17.3057 0.0000
# 6 0.0000 0.0000 0.0000 0.0000 0.0000 0.6793
#
#
#
# Elastic Compliance Matrix: (Units=1/GPa)
#
#
# Indices 1 2 3 4 5 6 
#
# 1 0.026383 -0.011538 -0.006063 0.000000 0.000000 0.000000
# 2 -0.011538 0.026383 -0.006063 0.000000 0.000000 0.000000
# 3 -0.006063 -0.006063 0.013246 0.000000 0.000000 0.000000
# 4 0.000000 0.000000 0.000000 0.057784 0.000000 0.000000
# 5 0.000000 0.000000 0.000000 0.000000 0.057784 0.000000
# 6 0.000000 0.000000 0.000000 0.000000 0.000000 1.472121
#
#
# Mechanical properties :
#
#
# Convention : Reuss Voigt Hill
#
# Bulk Modulus (GPa) = 53.52110 59.19264 56.35687
# Shear Modulus (GPa) = 2.92868 14.75400 8.84134
#
# Velocity S-wave (km/s) = 1.38973 3.11924 2.41464
# Velocity P-wave (km/s) = 6.15387 7.21165 6.70366
#
# Compressibility (1/GPa) = 0.01868422
#
# Stress axis : x y z
#
# Youngs Moduli (GPa) = 37.90343 37.90343 75.49720
#
# Poissons Ratio (x) = 0.43733 0.45772
# Poissons Ratio (y) = 0.43733 0.45772
# Poissons Ratio (z) = 0.22980 0.22980
#
# Static dielectric constant tensor:
#      x y z
#    x 1.485250 0.000000 0.000000 
#    y 0.000000 1.485250 0.000000 
#    z 0.000000 0.000000 1.525190 
# 
# From -- ./inp_files/4916.got.cif
#   From: 2010.05.17/outbox.cif.g08.bks.cpg/sg115_3_cif.got.tgz:4916.got - 2010.05.20 11:07:42.
