data_PCOD9556028
_publ_section_title
;
Structure prediction by ZEFSAII (Michael W. Deem and Ramdas Pophale) SiO2 
 PCOD9556028
Probable space group: P -4 21 C
;
_chemical_formula_sum "Si O2"
_cell_formula_units_Z 40
_cell_length_a 8.000552
_cell_length_b 8.000552
_cell_length_c 26.499127
_cell_angle_alpha 90.000000
_cell_angle_beta 90.000000
_cell_angle_gamma 90.000000
_cell_volume 1696.178176
_symmetry_space_group_name_H-M "P -4 21 C"
_symmetry_group_IT_number 114
_symmetry_cell_setting 'tetragonal'
loop_
_space_group_symop_operation_xyz
x,y,z
y,-x,-z
-x,-y,z
-y,x,-z
1/2+x,1/2-y,1/2-z
1/2-x,1/2+y,1/2-z
1/2-y,1/2-x,1/2+z
1/2+y,1/2+x,1/2+z
loop_
_atom_site_type_symbol
_atom_site_label
_atom_site_fract_x
_atom_site_fract_y
_atom_site_fract_z
Si Si1 0.163610 0.780692 0.330377
Si Si2 0.516307 0.302053 0.262974
Si Si3 0.742281 0.349066 0.049945
Si Si4 0.346249 0.270932 0.057504
Si Si5 0.385988 0.164191 0.846662
O O1 0.319991 0.739455 0.294821
O O2 0.008321 0.736907 0.294288
O O3 0.172874 0.700566 0.386043
O O4 0.186059 0.980527 0.340144
O O5 0.500000 0.500000 0.261206
O O6 0.370687 0.221486 0.297419
O O7 0.544441 0.308234 0.051189
O O8 0.750240 0.551170 0.055563
O O9 0.816430 0.281702 0.101983
O O10 0.816612 0.299642 0.995545
O O11 0.500000 0.000000 0.853224
#
# Coordination Sequence:
#
# PCOD9556028 Si02
#       5
#     8   8   8   8   8
#     4  10  21  35  58  82 110 143 189 222 273 328
#     4  11  23  36  55  80 113 151 182 223 274 331
#     4   8  14  28  54  82 102 130 177 238 282 308
#     4   8  15  27  53  84 104 126 180 237 275 321
#     4   9  19  35  55  79 107 146 188 227 268 336
#
# _framework density 23.582429000000001
#
# number of rings (size 3 to 8) (size 9 to 14) (size 15 to 20)
#    0.000    2.800    0.000    2.400    8.400    0.000 
#    0.000    0.000   17.600    0.000    0.000    0.000 
#    0.000    0.000    0.000    0.000    0.000    0.000 
#
# Total GULP energy -222983.728292 kJ/mol
# GULP energy per Si atom -5574.593207 kJ/mol
# Density = 2.352875 g / cm^3
# Si number density = 23.582429 Si / 1000 Ang^3
#
#
#
# Elastic Constant Matrix: (Units=GPa)
#
#
# Indices 1 2 3 4 5 6 
#
# 1 35.1886 -7.1685 24.1445 0.0000 0.0000 0.0000
# 2 -7.1685 35.1886 24.1445 0.0000 0.0000 0.0000
# 3 24.1445 24.1445 285.3823 0.0000 0.0000 0.0000
# 4 0.0000 0.0000 0.0000 27.0922 0.0000 0.0000
# 5 0.0000 0.0000 0.0000 0.0000 27.0922 0.0000
# 6 0.0000 0.0000 0.0000 0.0000 0.0000 13.4200
#
#
#
# Elastic Compliance Matrix: (Units=1/GPa)
#
#
# Indices 1 2 3 4 5 6 
#
# 1 0.032695 0.009086 -0.003535 0.000000 0.000000 0.000000
# 2 0.009086 0.032695 -0.003535 0.000000 0.000000 0.000000
# 3 -0.003535 -0.003535 0.004102 0.000000 0.000000 0.000000
# 4 0.000000 0.000000 0.000000 0.036911 0.000000 0.000000
# 5 0.000000 0.000000 0.000000 0.000000 0.036911 0.000000
# 6 0.000000 0.000000 0.000000 0.000000 0.000000 0.074516
#
#
# Mechanical properties :
#
#
# Convention : Reuss Voigt Hill
#
# Bulk Modulus (GPa) = 13.60102 48.66670 31.13386
# Shear Modulus (GPa) = 20.98157 34.49683 27.73920
#
# Velocity S-wave (km/s) = 2.98604 3.82883 3.43339
# Velocity P-wave (km/s) = 4.20340 6.34257 5.38037
#
# Compressibility (1/GPa) = 0.07352388
#
# Stress axis : x y z
#
# Youngs Moduli (GPa) = 30.58608 30.58608 243.77253
#
# Poissons Ratio (x) = -0.27790 0.86168
# Poissons Ratio (y) = -0.27790 0.86168
# Poissons Ratio (z) = 0.10812 0.10812
#
# Static dielectric constant tensor:
#      x y z
#    x 1.909830 0.000000 0.000000 
#    y 0.000000 1.909830 0.000000 
#    z 0.000000 0.000000 2.003540 
# 
# From -- ./inp_files/3356.got.cif
#   From: 2010.05.17/outbox.cif.g08.bks.cpg/sg114_2_cif.got.tgz:3356.got - 2010.05.20 11:04:54.
