data_PCOD9556377
_publ_section_title
;
Structure prediction by ZEFSAII (Michael W. Deem and Ramdas Pophale) SiO2 
 PCOD9556377
Probable space group: P -4 21 C
;
_chemical_formula_sum "Si O2"
_cell_formula_units_Z 58
_cell_length_a 16.801195
_cell_length_b 16.801195
_cell_length_c 8.620821
_cell_angle_alpha 90.000000
_cell_angle_beta 90.000000
_cell_angle_gamma 90.000000
_cell_volume 2433.486675
_symmetry_space_group_name_H-M "P -4 21 C"
_symmetry_group_IT_number 114
_symmetry_cell_setting 'tetragonal'
loop_
_space_group_symop_operation_xyz
x,y,z
y,-x,-z
-x,-y,z
-y,x,-z
1/2+x,1/2-y,1/2-z
1/2-x,1/2+y,1/2-z
1/2-y,1/2-x,1/2+z
1/2+y,1/2+x,1/2+z
loop_
_atom_site_type_symbol
_atom_site_label
_atom_site_fract_x
_atom_site_fract_y
_atom_site_fract_z
Si Si1 0.414583 0.004179 0.053722
Si Si2 0.108747 0.637723 0.207189
Si Si3 0.669039 0.124008 0.533372
Si Si4 0.698724 0.435479 0.828007
Si Si5 0.500000 0.500000 0.500000
Si Si6 0.390522 0.733554 0.318991
Si Si7 0.568917 0.349001 0.627432
Si Si8 0.523930 0.752824 0.862378
O O1 0.425768 0.067832 0.187484
O O2 0.500000 0.000000 0.972413
O O3 0.392087 0.916856 0.113066
O O4 0.354108 0.047819 0.936443
O O5 0.110856 0.718481 0.302416
O O6 0.194613 0.602187 0.165486
O O7 0.642938 0.189331 0.409842
O O8 0.741649 0.146347 0.649132
O O9 0.694295 0.042272 0.450195
O O10 0.713019 0.519149 0.737712
O O11 0.631321 0.382546 0.751151
O O12 0.686442 0.453669 0.009723
O O13 0.508467 0.420543 0.597342
O O14 0.386187 0.672800 0.466377
O O15 0.517471 0.279258 0.706920
#
# Coordination Sequence:
#
# PCOD9556377 Si02
#       8
#     8   8   8   8   2   8   8   8
#     4  12  21  32  63 103 147 203 242 280 342 453
#     4  12  22  41  66 105 156 200 242 296 364 457
#     4  11  22  40  69 110 158 200 237 294 382 461
#     4  11  25  48  73 109 152 192 253 316 389 451
#     4  12  28  56  90 104 120 204 278 324 388 436
#     4  11  22  43  72 108 152 189 245 308 374 462
#     4  12  27  52  80 106 142 195 264 334 387 451
#     4  11  26  46  73 112 152 193 249 311 381 465
#
# _framework density 23.834116000000002
#
# number of rings (size 3 to 8) (size 9 to 14) (size 15 to 20)
#    0.000    0.552    5.517    3.724    0.000    1.103 
#    4.966    0.000    0.000    0.000    0.000    0.000 
#    0.000    0.000    0.000    0.000    0.000    0.000 
#
# Total GULP energy -323513.314418 kJ/mol
# GULP energy per Si atom -5577.815766 kJ/mol
# Density = 2.377987 g / cm^3
# Si number density = 23.834116 Si / 1000 Ang^3
#
#
#
# Elastic Constant Matrix: (Units=GPa)
#
#
# Indices 1 2 3 4 5 6 
#
# 1 56.2997 -0.2994 14.2055 0.0000 0.0000 0.0000
# 2 -0.2994 56.2997 14.2055 0.0000 0.0000 0.0000
# 3 14.2055 14.2055 73.7538 0.0000 0.0000 0.0000
# 4 0.0000 0.0000 0.0000 29.5256 0.0000 0.0000
# 5 0.0000 0.0000 0.0000 0.0000 29.5256 0.0000
# 6 0.0000 0.0000 0.0000 0.0000 0.0000 14.9206
#
#
#
# Elastic Compliance Matrix: (Units=1/GPa)
#
#
# Indices 1 2 3 4 5 6 
#
# 1 0.018730 0.001061 -0.003812 0.000000 0.000000 0.000000
# 2 0.001061 0.018730 -0.003812 0.000000 0.000000 0.000000
# 3 -0.003812 -0.003812 0.015027 0.000000 0.000000 0.000000
# 4 0.000000 0.000000 0.000000 0.033869 0.000000 0.000000
# 5 0.000000 0.000000 0.000000 0.000000 0.033869 0.000000
# 6 0.000000 0.000000 0.000000 0.000000 0.000000 0.067021
#
#
# Mechanical properties :
#
#
# Convention : Reuss Voigt Hill
#
# Bulk Modulus (GPa) = 25.40559 26.95293 26.17926
# Shear Modulus (GPa) = 23.42024 25.34379 24.38202
#
# Velocity S-wave (km/s) = 3.13810 3.26443 3.20189
# Velocity P-wave (km/s) = 4.87983 5.05389 4.96762
#
# Compressibility (1/GPa) = 0.03936142
#
# Stress axis : x y z
#
# Youngs Moduli (GPa) = 53.39153 53.39153 66.54674
#
# Poissons Ratio (x) = -0.05667 0.25367
# Poissons Ratio (y) = -0.05667 0.25367
# Poissons Ratio (z) = 0.20352 0.20352
#
# Static dielectric constant tensor:
#      x y z
#    x 1.931870 0.000000 0.000000 
#    y 0.000000 1.931870 0.000000 
#    z 0.000000 0.000000 1.961940 
# 
# From -- ./inp_files/1016.got.cif
#   From: 2010.05.17/outbox.cif.g08.bks.cpg/sg114_1_cif.got.tgz:1016.got - 2010.05.20 11:04:54.
