data_PCOD9556084
_publ_section_title
;
Structure prediction by ZEFSAII (Michael W. Deem and Ramdas Pophale) SiO2 
 PCOD9556084
Probable space group: P -4 21 C
;
_chemical_formula_sum "Si O2"
_cell_formula_units_Z 56
_cell_length_a 15.384748
_cell_length_b 15.384748
_cell_length_c 11.471847
_cell_angle_alpha 90.000000
_cell_angle_beta 90.000000
_cell_angle_gamma 90.000000
_cell_volume 2715.276870
_symmetry_space_group_name_H-M "P -4 21 C"
_symmetry_group_IT_number 114
_symmetry_cell_setting 'tetragonal'
loop_
_space_group_symop_operation_xyz
x,y,z
y,-x,-z
-x,-y,z
-y,x,-z
1/2+x,1/2-y,1/2-z
1/2-x,1/2+y,1/2-z
1/2-y,1/2-x,1/2+z
1/2+y,1/2+x,1/2+z
loop_
_atom_site_type_symbol
_atom_site_label
_atom_site_fract_x
_atom_site_fract_y
_atom_site_fract_z
Si Si1 0.699956 0.009191 0.023761
Si Si2 0.673461 0.244991 0.684696
Si Si3 0.576961 0.828615 0.750874
Si Si4 0.987871 0.773420 0.426879
Si Si5 0.638604 0.682681 0.902813
Si Si6 0.591281 0.140271 0.887787
Si Si7 0.074782 0.752192 0.192612
O O1 0.732064 0.089411 0.103101
O O2 0.668458 0.934958 0.112471
O O3 0.626989 0.052438 0.942451
O O4 0.766734 0.967941 0.932715
O O5 0.761875 0.215846 0.617525
O O6 0.660050 0.189639 0.803363
O O7 0.681763 0.346487 0.715173
O O8 0.587331 0.728593 0.795270
O O9 0.492012 0.870872 0.806470
O O10 0.659092 0.878201 0.800968
O O11 0.920834 0.853522 0.417393
O O12 0.940366 0.701811 0.506671
O O13 0.081745 0.787101 0.486725
O O14 0.004615 0.748505 0.294194
#
# Coordination Sequence:
#
# PCOD9556084 Si02
#       7
#     8   8   8   8   8   8   8
#     4  11  23  40  66  93 129 176 214 265 330 394
#     4  10  22  43  66  91 130 185 217 264 322 408
#     4   9  24  41  59  94 134 168 210 274 332 389
#     4  11  22  40  66 101 124 173 224 271 323 386
#     4  10  21  41  67  92 132 169 221 271 321 390
#     4  10  21  41  63  92 129 174 221 263 328 397
#     4  11  25  38  64  99 129 171 226 269 324 391
#
# _framework density 20.624047999999998
#
# number of rings (size 3 to 8) (size 9 to 14) (size 15 to 20)
#    0.000    1.714    1.429    1.714    8.000    3.143 
#    0.000    0.000    0.000    5.571    0.000    0.000 
#    0.000    0.000    0.000    0.000    0.000    0.000 
#
# Total GULP energy -312321.626473 kJ/mol
# GULP energy per Si atom -5577.171901 kJ/mol
# Density = 2.057711 g / cm^3
# Si number density = 20.624048 Si / 1000 Ang^3
#
#
#
# Elastic Constant Matrix: (Units=GPa)
#
#
# Indices 1 2 3 4 5 6 
#
# 1 101.7683 -45.4043 13.4951 0.0000 0.0000 0.0000
# 2 -45.4043 101.7683 13.4951 0.0000 0.0000 0.0000
# 3 13.4951 13.4951 108.2753 0.0000 0.0000 0.0000
# 4 0.0000 0.0000 0.0000 26.9361 0.0000 0.0000
# 5 0.0000 0.0000 0.0000 0.0000 26.9361 0.0000
# 6 0.0000 0.0000 0.0000 0.0000 0.0000 20.0245
#
#
#
# Elastic Compliance Matrix: (Units=1/GPa)
#
#
# Indices 1 2 3 4 5 6 
#
# 1 0.012831 0.006037 -0.002352 0.000000 0.000000 0.000000
# 2 0.006037 0.012831 -0.002352 0.000000 0.000000 0.000000
# 3 -0.002352 -0.002352 0.009822 0.000000 0.000000 0.000000
# 4 0.000000 0.000000 0.000000 0.037125 0.000000 0.000000
# 5 0.000000 0.000000 0.000000 0.000000 0.037125 0.000000
# 6 0.000000 0.000000 0.000000 0.000000 0.000000 0.049939
#
#
# Mechanical properties :
#
#
# Convention : Reuss Voigt Hill
#
# Bulk Modulus (GPa) = 26.21150 30.55373 28.38261
# Shear Modulus (GPa) = 29.45966 36.79442 33.12704
#
# Velocity S-wave (km/s) = 3.78354 4.22839 4.01213
# Velocity P-wave (km/s) = 5.64124 6.21979 5.93757
#
# Compressibility (1/GPa) = 0.03815120
#
# Stress axis : x y z
#
# Youngs Moduli (GPa) = 77.93431 77.93431 101.81312
#
# Poissons Ratio (x) = -0.47046 0.23943
# Poissons Ratio (y) = -0.47046 0.23943
# Poissons Ratio (z) = 0.18327 0.18327
#
# Static dielectric constant tensor:
#      x y z
#    x 1.780910 0.000000 0.000000 
#    y 0.000000 1.780910 0.000000 
#    z 0.000000 0.000000 1.747610 
# 
# From -- ./inp_files/1770.got.cif
#   From: 2010.05.17/outbox.cif.g08.bks.cpg/sg114_1_cif.got.tgz:1770.got - 2010.05.20 11:04:54.
