data_PCOD9556210
_publ_section_title
;
Structure prediction by ZEFSAII (Michael W. Deem and Ramdas Pophale) SiO2 
 PCOD9556210
Probable space group: P -4 21 C
;
_chemical_formula_sum "Si O2"
_cell_formula_units_Z 36
_cell_length_a 8.520834
_cell_length_b 8.520834
_cell_length_c 20.894043
_cell_angle_alpha 90.000000
_cell_angle_beta 90.000000
_cell_angle_gamma 90.000000
_cell_volume 1517.003886
_symmetry_space_group_name_H-M "P -4 21 C"
_symmetry_group_IT_number 114
_symmetry_cell_setting 'tetragonal'
loop_
_space_group_symop_operation_xyz
x,y,z
y,-x,-z
-x,-y,z
-y,x,-z
1/2+x,1/2-y,1/2-z
1/2-x,1/2+y,1/2-z
1/2-y,1/2-x,1/2+z
1/2+y,1/2+x,1/2+z
loop_
_atom_site_type_symbol
_atom_site_label
_atom_site_fract_x
_atom_site_fract_y
_atom_site_fract_z
Si Si1 0.500000 0.500000 0.794751
Si Si2 0.430726 0.174967 0.260296
Si Si3 0.134146 0.769954 0.622599
Si Si4 0.080499 0.664665 0.383616
Si Si5 0.774086 0.867902 0.000045
O O1 0.339874 0.479027 0.754354
O O2 0.484547 0.658265 0.838662
O O3 0.328309 0.217201 0.321666
O O4 0.361054 0.146304 0.189244
O O5 0.500000 0.000000 0.275731
O O6 0.152818 0.672444 0.557457
O O7 0.219771 0.933832 0.610095
O O8 0.210933 0.704809 0.434649
O O9 0.000000 0.500000 0.401388
O O10 0.946729 0.798022 0.988021
#
# Coordination Sequence:
#
# PCOD9556210 Si02
#       5
#     4   8   8   8   8
#     4  10  26  44  75 112 149 202 248 318 404 450
#     4  10  25  47  76 108 147 191 256 324 384 465
#     4  11  25  46  72 109 144 199 255 307 389 459
#     4  10  22  45  69 102 152 194 239 321 377 445
#     4  11  25  45  77 111 150 204 254 311 378 456
#
# _framework density 23.730986999999999
#
# number of rings (size 3 to 8) (size 9 to 14) (size 15 to 20)
#    0.000    1.556    2.222    0.000    9.333    9.778 
#    4.000    1.111    0.000    0.000    0.000    0.000 
#    0.000    0.000    0.000    0.000    0.000    0.000 
#
# Total GULP energy -200452.090975 kJ/mol
# GULP energy per Si atom -5568.113638 kJ/mol
# Density = 2.367697 g / cm^3
# Si number density = 23.730987 Si / 1000 Ang^3
#
#
#
# Elastic Constant Matrix: (Units=GPa)
#
#
# Indices 1 2 3 4 5 6 
#
# 1 65.2585 37.7044 13.3757 0.0000 0.0000 0.0000
# 2 37.7044 65.2585 13.3757 0.0000 0.0000 0.0000
# 3 13.3757 13.3757 88.0604 0.0000 0.0000 0.0000
# 4 0.0000 0.0000 0.0000 28.1164 0.0000 0.0000
# 5 0.0000 0.0000 0.0000 0.0000 28.1164 0.0000
# 6 0.0000 0.0000 0.0000 0.0000 0.0000 30.1162
#
#
#
# Elastic Compliance Matrix: (Units=1/GPa)
#
#
# Indices 1 2 3 4 5 6 
#
# 1 0.023202 -0.013090 -0.001536 0.000000 0.000000 0.000000
# 2 -0.013090 0.023202 -0.001536 0.000000 0.000000 0.000000
# 3 -0.001536 -0.001536 0.011822 0.000000 0.000000 0.000000
# 4 0.000000 0.000000 0.000000 0.035566 0.000000 0.000000
# 5 0.000000 0.000000 0.000000 0.000000 0.035566 0.000000
# 6 0.000000 0.000000 0.000000 0.000000 0.000000 0.033205
#
#
# Mechanical properties :
#
#
# Convention : Reuss Voigt Hill
#
# Bulk Modulus (GPa) = 38.60759 38.60988 38.60873
# Shear Modulus (GPa) = 24.56742 27.54459 26.05601
#
# Velocity S-wave (km/s) = 3.22102 3.41060 3.31716
# Velocity P-wave (km/s) = 5.48976 5.64046 5.56562
#
# Compressibility (1/GPa) = 0.02590165
#
# Stress axis : x y z
#
# Youngs Moduli (GPa) = 43.10017 43.10017 84.58517
#
# Poissons Ratio (x) = 0.56420 0.12991
# Poissons Ratio (y) = 0.56420 0.12991
# Poissons Ratio (z) = 0.06619 0.06619
#
# Static dielectric constant tensor:
#      x y z
#    x 2.018780 0.000000 0.000000 
#    y 0.000000 2.018780 0.000000 
#    z 0.000000 0.000000 1.923940 
# 
# From -- ./inp_files/2917.got.cif
#   From: 2010.05.17/outbox.cif.g08.bks.cpg/sg114_2_cif.got.tgz:2917.got - 2010.05.20 11:04:54.
