data_PCOD9556920
_publ_section_title
;
Structure prediction by ZEFSAII (Michael W. Deem and Ramdas Pophale) SiO2 
 PCOD9556920
Probable space group: P -4 M 2
;
_chemical_formula_sum "Si O2"
_cell_formula_units_Z 48
_cell_length_a 8.200248
_cell_length_b 8.200248
_cell_length_c 35.353107
_cell_angle_alpha 90.000000
_cell_angle_beta 90.000000
_cell_angle_gamma 90.000000
_cell_volume 2377.286705
_symmetry_space_group_name_H-M "P -4 M 2"
_symmetry_group_IT_number 115
_symmetry_cell_setting 'tetragonal'
loop_
_space_group_symop_operation_xyz
x,y,z
y,-x,-z
-x,-y,z
-y,x,-z
y,x,-z
-y,-x,-z
-x,y,z
x,-y,z
loop_
_atom_site_type_symbol
_atom_site_label
_atom_site_fract_x
_atom_site_fract_y
_atom_site_fract_z
Si Si1 0.307470 0.687104 0.379686
Si Si2 0.317172 0.697912 0.119575
Si Si3 0.816602 0.695687 0.039692
Si Si4 0.000000 0.698177 0.666901
Si Si5 0.000000 0.801805 0.753720
Si Si6 0.685739 0.808167 0.799470
Si Si7 0.687978 0.189943 0.538926
O O1 0.500000 0.675528 0.372108
O O2 0.240610 0.500000 0.375398
O O3 0.284258 0.739131 0.423429
O O4 0.242158 0.833439 0.353584
O O5 0.500000 0.753355 0.127362
O O6 0.317299 0.500000 0.117017
O O7 0.262990 0.759149 0.078427
O O8 0.211447 0.734275 0.156433
O O9 0.820740 0.500000 0.043016
O O10 0.000000 0.758562 0.037867
O O11 0.733235 0.733235 0.000000
O O12 0.000000 0.750558 0.710276
O O13 0.000000 0.500000 0.664453
O O14 0.166294 0.741572 0.774150
O O15 0.000000 0.000000 0.756419
O O16 0.500000 0.739396 0.794455
O O17 0.673874 0.000000 0.791243
O O18 0.780300 0.219701 0.500000
O O19 0.500000 0.235609 0.531430
O O20 0.695938 0.000000 0.548660
#
# Coordination Sequence:
#
# PCOD9556920 Si02
#       7
#     8   8   8   4   4   8   8
#     4   9  19  37  58  79 108 149 193 235 283 339
#     4   9  17  31  54  81 105 135 176 221 272 323
#     4  10  20  34  52  75 105 141 182 225 270 325
#     4  10  22  38  58  82 110 146 188 236 286 338
#     4  10  22  38  56  84 114 144 182 224 282 342
#     4   9  18  35  57  80 110 145 180 221 275 341
#     4  10  21  35  53  80 112 146 186 232 282 336
#
# _framework density 20.191085999999999
#
# number of rings (size 3 to 8) (size 9 to 14) (size 15 to 20)
#    0.000    2.500    0.000    1.500    1.167    6.000 
#    1.500    0.000    0.000    0.000    0.000    0.000 
#    0.000    0.000    0.000    0.000    0.000    0.000 
#
# Total GULP energy -267499.783340 kJ/mol
# GULP energy per Si atom -5572.912153 kJ/mol
# Density = 2.014513 g / cm^3
# Si number density = 20.191086 Si / 1000 Ang^3
#
#
#
# Elastic Constant Matrix: (Units=GPa)
#
#
# Indices 1 2 3 4 5 6 
#
# 1 43.1551 26.2709 39.4595 0.0000 0.0000 0.0000
# 2 26.2709 43.1552 39.4600 0.0000 0.0000 0.0000
# 3 39.4595 39.4600 129.8602 0.0000 0.0000 0.0000
# 4 0.0000 0.0000 0.0000 27.0240 0.0000 0.0000
# 5 0.0000 0.0000 0.0000 0.0000 27.0238 0.0000
# 6 0.0000 0.0000 0.0000 0.0000 0.0000 7.3468
#
#
#
# Elastic Compliance Matrix: (Units=1/GPa)
#
#
# Indices 1 2 3 4 5 6 
#
# 1 0.040615 -0.018611 -0.006686 0.000000 0.000000 0.000000
# 2 -0.018611 0.040616 -0.006687 0.000000 0.000000 0.000000
# 3 -0.006686 -0.006687 0.011764 0.000000 0.000000 0.000000
# 4 0.000000 0.000000 0.000000 0.037004 0.000000 0.000000
# 5 0.000000 0.000000 0.000000 0.000000 0.037004 0.000000
# 6 0.000000 0.000000 0.000000 0.000000 0.000000 0.136114
#
#
# Mechanical properties :
#
#
# Convention : Reuss Voigt Hill
#
# Bulk Modulus (GPa) = 34.45001 47.39459 40.92230
# Shear Modulus (GPa) = 13.27101 19.67760 16.47430
#
# Velocity S-wave (km/s) = 2.56651 3.12519 2.85953
# Velocity P-wave (km/s) = 5.08740 6.04537 5.58695
#
# Compressibility (1/GPa) = 0.02902757
#
# Stress axis : x y z
#
# Youngs Moduli (GPa) = 24.62115 24.62097 85.00470
#
# Poissons Ratio (x) = 0.45823 0.56836
# Poissons Ratio (y) = 0.45823 0.56838
# Poissons Ratio (z) = 0.16462 0.16463
#
# Static dielectric constant tensor:
#      x y z
#    x 1.739340 0.000000 0.000000 
#    y 0.000000 1.739340 0.000000 
#    z 0.000000 0.000000 1.706290 
# 
# From -- ./inp_files/6184.got.cif
#   From: 2010.05.17/outbox.cif.g08.bks.cpg/sg115_4_cif.got.tgz:6184.got - 2010.05.20 11:07:42.
