data_PCOD9556434
_publ_section_title
;
Structure prediction by ZEFSAII (Michael W. Deem and Ramdas Pophale) SiO2 
 PCOD9556434
Probable space group: P -4 21 C
;
_chemical_formula_sum "Si O2"
_cell_formula_units_Z 28
_cell_length_a 7.132510
_cell_length_b 7.132510
_cell_length_c 19.266889
_cell_angle_alpha 90.000000
_cell_angle_beta 90.000000
_cell_angle_gamma 90.000000
_cell_volume 980.158643
_symmetry_space_group_name_H-M "P -4 21 C"
_symmetry_group_IT_number 114
_symmetry_cell_setting 'tetragonal'
loop_
_space_group_symop_operation_xyz
x,y,z
y,-x,-z
-x,-y,z
-y,x,-z
1/2+x,1/2-y,1/2-z
1/2-x,1/2+y,1/2-z
1/2-y,1/2-x,1/2+z
1/2+y,1/2+x,1/2+z
loop_
_atom_site_type_symbol
_atom_site_label
_atom_site_fract_x
_atom_site_fract_y
_atom_site_fract_z
Si Si1 0.731957 0.151447 0.013965
Si Si2 0.500000 0.500000 0.228625
Si Si3 0.011183 0.296394 0.833926
Si Si4 0.293674 0.921269 0.374516
O O1 0.598280 0.246671 0.957170
O O2 0.938883 0.238745 0.014103
O O3 0.676176 0.116147 0.092982
O O4 0.360268 0.402666 0.283949
O O5 0.657238 0.450273 0.171498
O O6 0.795730 0.233071 0.849616
O O7 0.000000 0.500000 0.799397
O O8 0.500000 0.000000 0.365714
#
# Coordination Sequence:
#
# PCOD9556434 Si02
#       4
#     8   4   8   8
#     4   9  19  44  76 108 150 217 281 347 424 531
#     4  12  28  42  75 117 166 212 278 362 440 520
#     4  11  25  46  75 109 162 221 278 345 449 526
#     4  11  26  46  75 115 163 212 297 360 435 524
#
# _framework density 28.566804000000001
#
# number of rings (size 3 to 8) (size 9 to 14) (size 15 to 20)
#    0.000    1.429    0.000    5.143    8.000    2.286 
#    0.000    8.571    0.000    0.000    0.000    0.000 
#    0.000    0.000    0.000    0.000    0.000    0.000 
#
# Total GULP energy -156644.838375 kJ/mol
# GULP energy per Si atom -5594.458513 kJ/mol
# Density = 2.850178 g / cm^3
# Si number density = 28.566804 Si / 1000 Ang^3
#
#
#
# Elastic Constant Matrix: (Units=GPa)
#
#
# Indices 1 2 3 4 5 6 
#
# 1 151.8312 17.1144 87.0205 0.0000 0.0000 0.0000
# 2 17.1144 151.8312 87.0205 0.0000 0.0000 0.0000
# 3 87.0205 87.0205 223.2402 0.0000 0.0000 0.0000
# 4 0.0000 0.0000 0.0000 26.0517 0.0000 0.0000
# 5 0.0000 0.0000 0.0000 0.0000 26.0517 0.0000
# 6 0.0000 0.0000 0.0000 0.0000 0.0000 37.2023
#
#
#
# Elastic Compliance Matrix: (Units=1/GPa)
#
#
# Indices 1 2 3 4 5 6 
#
# 1 0.008657 0.001234 -0.003856 0.000000 0.000000 0.000000
# 2 0.001234 0.008657 -0.003856 0.000000 0.000000 0.000000
# 3 -0.003856 -0.003856 0.007485 0.000000 0.000000 0.000000
# 4 0.000000 0.000000 0.000000 0.038385 0.000000 0.000000
# 5 0.000000 0.000000 0.000000 0.000000 0.038385 0.000000
# 6 0.000000 0.000000 0.000000 0.000000 0.000000 0.026880
#
#
# Mechanical properties :
#
#
# Convention : Reuss Voigt Hill
#
# Bulk Modulus (GPa) = 84.42426 101.02371 92.72399
# Shear Modulus (GPa) = 34.39925 40.24430 37.32177
#
# Velocity S-wave (km/s) = 3.47388 3.75744 3.61844
# Velocity P-wave (km/s) = 6.76076 7.36650 7.07012
#
# Compressibility (1/GPa) = 0.01184494
#
# Stress axis : x y z
#
# Youngs Moduli (GPa) = 115.51445 115.51445 133.59520
#
# Poissons Ratio (x) = -0.14254 0.51508
# Poissons Ratio (y) = -0.14254 0.51508
# Poissons Ratio (z) = 0.44537 0.44537
#
# Static dielectric constant tensor:
#      x y z
#    x 2.279470 0.000000 0.000000 
#    y 0.000000 2.279470 0.000000 
#    z 0.000000 0.000000 2.188460 
# 
# From -- ./inp_files/2767.got.cif
#   From: 2010.05.17/outbox.cif.g08.bks.cpg/sg114_2_cif.got.tgz:2767.got - 2010.05.20 11:04:54.
