data_PCOD9556701
_publ_section_title
;
Structure prediction by ZEFSAII (Michael W. Deem and Ramdas Pophale) SiO2 
 PCOD9556701
Probable space group: P -4 M 2
;
_chemical_formula_sum "Si O2"
_cell_formula_units_Z 48
_cell_length_a 9.397429
_cell_length_b 9.397429
_cell_length_c 31.963332
_cell_angle_alpha 90.000000
_cell_angle_beta 90.000000
_cell_angle_gamma 90.000000
_cell_volume 2822.735286
_symmetry_space_group_name_H-M "P -4 M 2"
_symmetry_group_IT_number 115
_symmetry_cell_setting 'tetragonal'
loop_
_space_group_symop_operation_xyz
x,y,z
y,-x,-z
-x,-y,z
-y,x,-z
y,x,-z
-y,-x,-z
-x,y,z
x,-y,z
loop_
_atom_site_type_symbol
_atom_site_label
_atom_site_fract_x
_atom_site_fract_y
_atom_site_fract_z
Si Si1 0.332463 0.828992 0.295461
Si Si2 0.827131 0.164655 0.880335
Si Si3 0.667939 0.829919 0.536317
Si Si4 0.835113 0.172900 0.213204
Si Si5 0.329633 0.168960 0.631114
Si Si6 0.829129 0.331618 0.962924
O O1 0.500000 0.799598 0.295430
O O2 0.261815 0.780943 0.251684
O O3 0.255782 0.752862 0.333936
O O4 0.312906 0.000000 0.298837
O O5 0.779879 0.207747 0.833575
O O6 0.783315 0.264268 0.918474
O O7 0.000000 0.166475 0.879726
O O8 0.784777 0.000000 0.887453
O O9 0.752987 0.752987 0.500000
O O10 0.500000 0.799256 0.532180
O O11 0.711436 0.788902 0.583643
O O12 0.685715 0.000000 0.533111
O O13 0.000000 0.213787 0.219959
O O14 0.831227 0.000000 0.212751
O O15 0.500000 0.188778 0.634976
O O16 0.301776 0.000000 0.635834
O O17 0.802407 0.500000 0.963858
O O18 0.000000 0.309631 0.967273
O O19 0.748548 0.251453 0.000000
#
# Coordination Sequence:
#
# PCOD9556701 Si02
#       6
#     8   8   8   8   8   8
#     4  10  20  31  46  73 105 133 162 199 243 288
#     4   8  14  26  46  71  96 123 158 200 242 284
#     4   9  19  35  53  74  99 126 159 200 244 291
#     4   8  14  26  45  69  97 128 160 195 239 289
#     4   9  19  36  54  70  93 129 169 204 240 285
#     4  10  20  32  48  71  97 127 162 198 240 289
#
# _framework density 17.004784000000001
#
# number of rings (size 3 to 8) (size 9 to 14) (size 15 to 20)
#    0.000    3.000    0.000    3.000    0.000    4.667 
#    0.000    8.333    0.000    1.000    0.000    7.000 
#    0.000    0.000    0.000    0.000    0.000    0.000 
#
# Total GULP energy -267462.089951 kJ/mol
# GULP energy per Si atom -5572.126874 kJ/mol
# Density = 1.696608 g / cm^3
# Si number density = 17.004784 Si / 1000 Ang^3
#
#
#
# Elastic Constant Matrix: (Units=GPa)
#
#
# Indices 1 2 3 4 5 6 
#
# 1 48.5857 45.4248 81.4894 0.0000 0.0000 0.0000
# 2 45.4248 48.5869 81.4899 0.0000 0.0000 0.0000
# 3 81.4894 81.4899 204.9052 0.0000 0.0000 0.0000
# 4 0.0000 0.0000 0.0000 -16.4152 0.0000 0.0000
# 5 0.0000 0.0000 0.0000 0.0000 -16.4140 0.0000
# 6 0.0000 0.0000 0.0000 0.0000 0.0000 21.4380
#
#
#
# Elastic Compliance Matrix: (Units=1/GPa)
#
#
# Indices 1 2 3 4 5 6 
#
# 1 0.175281 -0.141025 -0.013623 0.000000 0.000000 0.000000
# 2 -0.141025 0.175273 -0.013621 0.000000 0.000000 0.000000
# 3 -0.013623 -0.013621 0.015715 0.000000 0.000000 0.000000
# 4 0.000000 0.000000 0.000000 -0.060919 0.000000 0.000000
# 5 0.000000 0.000000 0.000000 0.000000 -0.060924 0.000000
# 6 0.000000 0.000000 0.000000 0.000000 0.000000 0.046646
#
#
# Mechanical properties :
#
#
# Convention : Reuss Voigt Hill
#
# Bulk Modulus (GPa) = 33.63396 79.87620 56.75508
# Shear Modulus (GPa) = 7.84289 3.96669 5.90479
#
# Velocity S-wave (km/s) = 2.14993 1.52897 1.86547
# Velocity P-wave (km/s) = 5.09754 7.08461 6.17158
#
# Compressibility (1/GPa) = 0.02973185
#
# Stress axis : x y z
#
# Youngs Moduli (GPa) = 5.70512 5.70539 63.63326
#
# Poissons Ratio (x) = 0.80460 0.86689
# Poissons Ratio (y) = 0.80456 0.86673
# Poissons Ratio (z) = 0.07772 0.07771
#
# Static dielectric constant tensor:
#      x y z
#    x 1.558520 0.000000 0.000000 
#    y 0.000000 1.558520 0.000000 
#    z 0.000000 0.000000 1.576180 
# 
# From -- ./inp_files/6051.got.cif
#   From: 2010.05.17/outbox.cif.g08.bks.cpg/sg115_4_cif.got.tgz:6051.got - 2010.05.20 11:07:42.
