data_PCOD9556243
_publ_section_title
;
Structure prediction by ZEFSAII (Michael W. Deem and Ramdas Pophale) SiO2 
 PCOD9556243
Probable space group: P -4 21 C
;
_chemical_formula_sum "Si O2"
_cell_formula_units_Z 26
_cell_length_a 8.088187
_cell_length_b 8.088187
_cell_length_c 14.211844
_cell_angle_alpha 90.000000
_cell_angle_beta 90.000000
_cell_angle_gamma 90.000000
_cell_volume 929.721339
_symmetry_space_group_name_H-M "P -4 21 C"
_symmetry_group_IT_number 114
_symmetry_cell_setting 'tetragonal'
loop_
_space_group_symop_operation_xyz
x,y,z
y,-x,-z
-x,-y,z
-y,x,-z
1/2+x,1/2-y,1/2-z
1/2-x,1/2+y,1/2-z
1/2-y,1/2-x,1/2+z
1/2+y,1/2+x,1/2+z
loop_
_atom_site_type_symbol
_atom_site_label
_atom_site_fract_x
_atom_site_fract_y
_atom_site_fract_z
Si Si1 0.105689 0.651043 0.077769
Si Si2 0.764358 0.080918 0.650090
Si Si3 0.500000 0.500000 0.500000
Si Si4 0.798996 0.405569 0.287863
O O1 0.306605 0.657833 0.068005
O O2 0.000000 0.500000 0.034920
O O3 0.103349 0.623968 0.190242
O O4 0.025768 0.825569 0.052045
O O5 0.725965 0.886669 0.642741
O O6 0.868223 0.121289 0.745000
O O7 0.584872 0.167673 0.670081
#
# Coordination Sequence:
#
# PCOD9556243 Si02
#       4
#     8   8   2   8
#     4  10  23  44  65  97 135 183 239 271 343 426
#     4   9  18  34  63  97 128 163 208 290 356 403
#     4  12  28  44  72  84 144 216 228 286 324 400
#     4   9  18  34  61 102 131 159 208 285 365 405
#
# _framework density 27.965364999999998
#
# number of rings (size 3 to 8) (size 9 to 14) (size 15 to 20)
#    1.846    0.615    3.077    0.000    4.308    1.231 
#    5.538    0.000    6.769    0.000    0.000    0.000 
#    0.000    0.000    0.000    0.000    0.000    0.000 
#
# Total GULP energy -144886.898680 kJ/mol
# GULP energy per Si atom -5572.573026 kJ/mol
# Density = 2.790171 g / cm^3
# Si number density = 27.965365 Si / 1000 Ang^3
#
#
#
# Elastic Constant Matrix: (Units=GPa)
#
#
# Indices 1 2 3 4 5 6 
#
# 1 144.5827 56.1571 30.5436 0.0000 0.0000 0.0000
# 2 56.1571 144.5827 30.5436 0.0000 0.0000 0.0000
# 3 30.5436 30.5436 99.6317 0.0000 0.0000 0.0000
# 4 0.0000 0.0000 0.0000 19.1148 0.0000 0.0000
# 5 0.0000 0.0000 0.0000 0.0000 19.1148 0.0000
# 6 0.0000 0.0000 0.0000 0.0000 0.0000 46.0765
#
#
#
# Elastic Compliance Matrix: (Units=1/GPa)
#
#
# Indices 1 2 3 4 5 6 
#
# 1 0.008402 -0.002907 -0.001684 0.000000 0.000000 0.000000
# 2 -0.002907 0.008402 -0.001684 0.000000 0.000000 0.000000
# 3 -0.001684 -0.001684 0.011070 0.000000 0.000000 0.000000
# 4 0.000000 0.000000 0.000000 0.052315 0.000000 0.000000
# 5 0.000000 0.000000 0.000000 0.000000 0.052315 0.000000
# 6 0.000000 0.000000 0.000000 0.000000 0.000000 0.021703
#
#
# Mechanical properties :
#
#
# Convention : Reuss Voigt Hill
#
# Bulk Modulus (GPa) = 65.27122 69.25396 67.26259
# Shear Modulus (GPa) = 29.09251 34.96475 32.02863
#
# Velocity S-wave (km/s) = 3.22888 3.53978 3.38789
# Velocity P-wave (km/s) = 6.10668 6.44396 6.27759
#
# Compressibility (1/GPa) = 0.01532069
#
# Stress axis : x y z
#
# Youngs Moduli (GPa) = 119.02588 119.02588 90.33695
#
# Poissons Ratio (x) = 0.34606 0.15216
# Poissons Ratio (y) = 0.34606 0.15216
# Poissons Ratio (z) = 0.20048 0.20048
#
# Static dielectric constant tensor:
#      x y z
#    x 2.315590 0.000000 0.000000 
#    y 0.000000 2.315590 0.000000 
#    z 0.000000 0.000000 2.172050 
# 
# From -- ./inp_files/2758.got.cif
#   From: 2010.05.17/outbox.cif.g08.bks.cpg/sg114_2_cif.got.tgz:2758.got - 2010.05.20 11:04:54.
