data_PCOD9556043
_publ_section_title
;
Structure prediction by ZEFSAII (Michael W. Deem and Ramdas Pophale) SiO2 
 PCOD9556043
Probable space group: P -4 21 C
;
_chemical_formula_sum "Si O2"
_cell_formula_units_Z 64
_cell_length_a 26.931278
_cell_length_b 26.931278
_cell_length_c 5.228168
_cell_angle_alpha 90.000000
_cell_angle_beta 90.000000
_cell_angle_gamma 90.000000
_cell_volume 3791.957494
_symmetry_space_group_name_H-M "P -4 21 C"
_symmetry_group_IT_number 114
_symmetry_cell_setting 'tetragonal'
loop_
_space_group_symop_operation_xyz
x,y,z
y,-x,-z
-x,-y,z
-y,x,-z
1/2+x,1/2-y,1/2-z
1/2-x,1/2+y,1/2-z
1/2-y,1/2-x,1/2+z
1/2+y,1/2+x,1/2+z
loop_
_atom_site_type_symbol
_atom_site_label
_atom_site_fract_x
_atom_site_fract_y
_atom_site_fract_z
Si Si1 0.895650 0.872435 0.328808
Si Si2 0.928031 0.021260 0.960417
Si Si3 0.465931 0.659487 0.809882
Si Si4 0.781702 0.970749 0.656971
Si Si5 0.593558 0.713839 0.674127
Si Si6 0.432383 0.732009 0.412929
Si Si7 0.330340 0.783864 0.425082
Si Si8 0.298762 0.246646 0.555238
O O1 0.911788 0.862274 0.619978
O O2 0.841012 0.889968 0.267256
O O3 0.907747 0.818580 0.203263
O O4 0.936693 0.911688 0.236051
O O5 0.878953 0.009679 0.119170
O O6 0.970639 0.047194 0.134369
O O7 0.455611 0.712071 0.677354
O O8 0.502852 0.668206 0.046514
O O9 0.764591 0.937743 0.415186
O O10 0.751949 0.020324 0.743014
O O11 0.788742 0.937999 0.911332
O O12 0.643994 0.743092 0.613210
O O13 0.388133 0.770485 0.439534
O O14 0.311594 0.815757 0.664878
O O15 0.297879 0.732923 0.430561
O O16 0.288340 0.224041 0.276261
#
# Coordination Sequence:
#
# PCOD9556043 Si02
#       8
#     8   8   8   8   8   8   8   8
#     4  10  23  32  55  70 100 133 175 233 286 331
#     4  10  22  37  48  65  92 126 177 234 299 342
#     4  10  22  37  55  71 102 133 178 234 291 331
#     4  11  24  37  57  80 105 138 185 228 271 338
#     4  12  23  38  59  84 104 144 186 224 282 335
#     4  10  21  40  52  81 107 139 175 238 273 324
#     4  10  22  35  58  80 107 141 180 221 285 338
#     4  10  21  38  56  84 115 140 178 231 278 337
#
# _framework density 16.877825999999999
#
# number of rings (size 3 to 8) (size 9 to 14) (size 15 to 20)
#    0.000    1.625    2.500    1.500   10.500    2.000 
#    0.000    1.250    0.000    0.000    0.000    0.000 
#    0.000    0.000    0.000    0.000    0.000   43.750 
#
# Total GULP energy -356850.774433 kJ/mol
# GULP energy per Si atom -5575.793351 kJ/mol
# Density = 1.683941 g / cm^3
# Si number density = 16.877826 Si / 1000 Ang^3
#
#
#
# Elastic Constant Matrix: (Units=GPa)
#
#
# Indices 1 2 3 4 5 6 
#
# 1 56.8328 20.4398 15.0084 0.0000 0.0000 0.0000
# 2 20.4398 56.8328 15.0084 0.0000 0.0000 0.0000
# 3 15.0084 15.0084 79.3887 0.0000 0.0000 0.0000
# 4 0.0000 0.0000 0.0000 12.6626 0.0000 0.0000
# 5 0.0000 0.0000 0.0000 0.0000 12.6626 0.0000
# 6 0.0000 0.0000 0.0000 0.0000 0.0000 22.1950
#
#
#
# Elastic Compliance Matrix: (Units=1/GPa)
#
#
# Indices 1 2 3 4 5 6 
#
# 1 0.020722 -0.006755 -0.002640 0.000000 0.000000 0.000000
# 2 -0.006755 0.020722 -0.002640 0.000000 0.000000 0.000000
# 3 -0.002640 -0.002640 0.013595 0.000000 0.000000 0.000000
# 4 0.000000 0.000000 0.000000 0.078973 0.000000 0.000000
# 5 0.000000 0.000000 0.000000 0.000000 0.078973 0.000000
# 6 0.000000 0.000000 0.000000 0.000000 0.000000 0.045055
#
#
# Mechanical properties :
#
#
# Convention : Reuss Voigt Hill
#
# Bulk Modulus (GPa) = 32.29285 32.66308 32.47797
# Shear Modulus (GPa) = 17.09782 19.01055 18.05418
#
# Velocity S-wave (km/s) = 3.18627 3.35977 3.27417
# Velocity P-wave (km/s) = 5.71938 5.86902 5.79468
#
# Compressibility (1/GPa) = 0.03096661
#
# Stress axis : x y z
#
# Youngs Moduli (GPa) = 48.25714 48.25714 73.55866
#
# Poissons Ratio (x) = 0.32600 0.19423
# Poissons Ratio (y) = 0.32600 0.19423
# Poissons Ratio (z) = 0.12742 0.12742
#
# Static dielectric constant tensor:
#      x y z
#    x 1.577180 0.000000 0.000000 
#    y 0.000000 1.577180 0.000000 
#    z 0.000000 0.000000 1.663940 
# 
# From -- ./inp_files/307.got.cif
#   From: 2010.05.17/outbox.cif.g08.bks.cpg/sg114_1_cif.got.tgz:307.got - 2010.05.20 11:04:54.
