data_PCOD9556505
_publ_section_title
;
Structure prediction by ZEFSAII (Michael W. Deem and Ramdas Pophale) SiO2 
 PCOD9556505
Probable space group: P -4 21 C
;
_chemical_formula_sum "Si O2"
_cell_formula_units_Z 32
_cell_length_a 8.452500
_cell_length_b 8.452500
_cell_length_c 20.655588
_cell_angle_alpha 90.000000
_cell_angle_beta 90.000000
_cell_angle_gamma 90.000000
_cell_volume 1475.733450
_symmetry_space_group_name_H-M "P -4 21 C"
_symmetry_group_IT_number 114
_symmetry_cell_setting 'tetragonal'
loop_
_space_group_symop_operation_xyz
x,y,z
y,-x,-z
-x,-y,z
-y,x,-z
1/2+x,1/2-y,1/2-z
1/2-x,1/2+y,1/2-z
1/2-y,1/2-x,1/2+z
1/2+y,1/2+x,1/2+z
loop_
_atom_site_type_symbol
_atom_site_label
_atom_site_fract_x
_atom_site_fract_y
_atom_site_fract_z
Si Si1 0.620184 0.149612 0.382283
Si Si2 0.015551 0.690030 0.737352
Si Si3 0.181253 0.823310 0.154403
Si Si4 0.851164 0.781364 0.989369
O O1 0.726078 0.108942 0.320644
O O2 0.502059 0.293476 0.364332
O O3 0.704231 0.176219 0.450371
O O4 0.500000 0.000000 0.389854
O O5 0.975381 0.777624 0.803274
O O6 0.000000 0.500000 0.749023
O O7 0.181159 0.726043 0.702973
O O8 0.264732 0.814958 0.084366
O O9 0.041760 0.788681 0.996577
#
# Coordination Sequence:
#
# PCOD9556505 Si02
#       4
#     8   8   8   8
#     4   8  17  33  49  73 105 138 177 225 266 317
#     4   9  19  34  50  78 107 139 174 222 275 325
#     4   9  18  32  51  77 105 138 179 219 275 322
#     4   9  17  29  49  77  98 136 186 224 268 327
#
# _framework density 21.684132999999999
#
# number of rings (size 3 to 8) (size 9 to 14) (size 15 to 20)
#    0.000    3.750    0.000    0.000    3.500    1.000 
#    4.500    0.000    0.000    0.000    0.000    0.000 
#    0.000    0.000    0.000    0.000    0.000    0.000 
#
# Total GULP energy -178274.916956 kJ/mol
# GULP energy per Si atom -5571.091155 kJ/mol
# Density = 2.163478 g / cm^3
# Si number density = 21.684133 Si / 1000 Ang^3
#
#
#
# Elastic Constant Matrix: (Units=GPa)
#
#
# Indices 1 2 3 4 5 6 
#
# 1 25.0600 25.0248 46.7625 0.0000 0.0000 0.0000
# 2 25.0248 25.0600 46.7625 0.0000 0.0000 0.0000
# 3 46.7625 46.7625 200.4843 0.0000 0.0000 0.0000
# 4 0.0000 0.0000 0.0000 21.5786 0.0000 0.0000
# 5 0.0000 0.0000 0.0000 0.0000 21.5786 0.0000
# 6 0.0000 0.0000 0.0000 0.0000 0.0000 18.2106
#
#
#
# Elastic Compliance Matrix: (Units=1/GPa)
#
#
# Indices 1 2 3 4 5 6 
#
# 1 14.225314-14.189941 -0.008251 0.000000 0.000000 0.000000
# 2 -14.189941 14.225314 -0.008251 0.000000 0.000000 0.000000
# 3 -0.008251 -0.008251 0.008837 0.000000 0.000000 0.000000
# 4 0.000000 0.000000 0.000000 0.046342 0.000000 0.000000
# 5 0.000000 0.000000 0.000000 0.000000 0.046342 0.000000
# 6 0.000000 0.000000 0.000000 0.000000 0.000000 0.054913
#
#
# Mechanical properties :
#
#
# Convention : Reuss Voigt Hill
#
# Bulk Modulus (GPa) = 21.46853 54.18932 37.82893
# Shear Modulus (GPa) = 0.08766 21.07721 10.58244
#
# Velocity S-wave (km/s) = 0.20129 3.12109 2.21153
# Velocity P-wave (km/s) = 3.15849 6.16708 4.89943
#
# Compressibility (1/GPa) = 0.04657980
#
# Stress axis : x y z
#
# Youngs Moduli (GPa) = 0.07030 0.07030 113.16333
#
# Poissons Ratio (x) = 0.99751 0.93366
# Poissons Ratio (y) = 0.99751 0.93366
# Poissons Ratio (z) = 0.00058 0.00058
#
# Static dielectric constant tensor:
#      x y z
#    x 1.865140 0.000000 0.000000 
#    y 0.000000 1.865140 0.000000 
#    z 0.000000 0.000000 1.832400 
# 
# From -- ./inp_files/2473.got.cif
#   From: 2010.05.17/outbox.cif.g08.bks.cpg/sg114_2_cif.got.tgz:2473.got - 2010.05.20 11:04:54.
