data_PCOD9556195
_publ_section_title
;
Structure prediction by ZEFSAII (Michael W. Deem and Ramdas Pophale) SiO2 
 PCOD9556195
Probable space group: P -4 21 C
;
_chemical_formula_sum "Si O2"
_cell_formula_units_Z 58
_cell_length_a 17.496403
_cell_length_b 17.496403
_cell_length_c 8.928326
_cell_angle_alpha 90.000000
_cell_angle_beta 90.000000
_cell_angle_gamma 90.000000
_cell_volume 2733.175921
_symmetry_space_group_name_H-M "P -4 21 C"
_symmetry_group_IT_number 114
_symmetry_cell_setting 'tetragonal'
loop_
_space_group_symop_operation_xyz
x,y,z
y,-x,-z
-x,-y,z
-y,x,-z
1/2+x,1/2-y,1/2-z
1/2-x,1/2+y,1/2-z
1/2-y,1/2-x,1/2+z
1/2+y,1/2+x,1/2+z
loop_
_atom_site_type_symbol
_atom_site_label
_atom_site_fract_x
_atom_site_fract_y
_atom_site_fract_z
Si Si1 0.324036 0.245489 0.115753
Si Si2 0.500000 0.500000 0.500000
Si Si3 0.599919 0.782717 0.800830
Si Si4 0.231203 0.340088 0.562869
Si Si5 0.602601 0.145870 0.181780
Si Si6 0.409198 0.990568 0.418665
Si Si7 0.162117 0.113801 0.879888
Si Si8 0.987613 0.148665 0.862768
O O1 0.303154 0.161270 0.174160
O O2 0.245146 0.293013 0.112474
O O3 0.377488 0.282724 0.240230
O O4 0.356774 0.243703 0.950208
O O5 0.457428 0.438586 0.606955
O O6 0.558120 0.861666 0.843052
O O7 0.546429 0.712147 0.747715
O O8 0.220444 0.389491 0.713286
O O9 0.175943 0.364099 0.427032
O O10 0.315607 0.331063 0.496876
O O11 0.599421 0.078687 0.302487
O O12 0.531412 0.134853 0.071456
O O13 0.500000 0.000000 0.447051
O O14 0.074958 0.128204 0.827428
O O15 0.180058 0.037036 0.972985
#
# Coordination Sequence:
#
# PCOD9556195 Si02
#       8
#     8   2   8   8   8   8   8   8
#     4  12  24  42  66  98 139 176 221 291 323 391
#     4   8  20  44  76  98 140 168 220 298 348 412
#     4  12  25  42  67 100 134 182 231 270 345 402
#     4  11  19  40  63  92 130 170 230 266 326 385
#     4  10  23  39  65  91 124 190 214 273 327 387
#     4  11  26  44  63  97 141 182 226 278 329 402
#     4  11  22  43  68  97 133 174 218 284 336 412
#     4  10  22  43  70 101 129 174 224 273 354 410
#
# _framework density 21.220732999999999
#
# number of rings (size 3 to 8) (size 9 to 14) (size 15 to 20)
#    0.000    1.103    4.138    1.241    5.793    1.103 
#    2.483    4.138    0.000    0.828    0.000    0.000 
#    0.000    0.000    0.000    0.000    0.000    0.000 
#
# Total GULP energy -323316.453139 kJ/mol
# GULP energy per Si atom -5574.421606 kJ/mol
# Density = 2.117243 g / cm^3
# Si number density = 21.220733 Si / 1000 Ang^3
#
#
#
# Elastic Constant Matrix: (Units=GPa)
#
#
# Indices 1 2 3 4 5 6 
#
# 1 53.6383 20.3163 21.6989 0.0000 0.0000 0.0000
# 2 20.3163 53.6383 21.6989 0.0000 0.0000 0.0000
# 3 21.6989 21.6989 87.4832 0.0000 0.0000 0.0000
# 4 0.0000 0.0000 0.0000 26.8372 0.0000 0.0000
# 5 0.0000 0.0000 0.0000 0.0000 26.8372 0.0000
# 6 0.0000 0.0000 0.0000 0.0000 0.0000 33.8463
#
#
#
# Elastic Compliance Matrix: (Units=1/GPa)
#
#
# Indices 1 2 3 4 5 6 
#
# 1 0.022918 -0.007093 -0.003925 0.000000 0.000000 0.000000
# 2 -0.007093 0.022918 -0.003925 0.000000 0.000000 0.000000
# 3 -0.003925 -0.003925 0.013378 0.000000 0.000000 0.000000
# 4 0.000000 0.000000 0.000000 0.037262 0.000000 0.000000
# 5 0.000000 0.000000 0.000000 0.000000 0.037262 0.000000
# 6 0.000000 0.000000 0.000000 0.000000 0.000000 0.029545
#
#
# Mechanical properties :
#
#
# Convention : Reuss Voigt Hill
#
# Bulk Modulus (GPa) = 34.09768 35.79865 34.94817
# Shear Modulus (GPa) = 24.63736 26.24052 25.43894
#
# Velocity S-wave (km/s) = 3.41105 3.52028 3.46609
# Velocity P-wave (km/s) = 5.62287 5.78182 5.70290
#
# Compressibility (1/GPa) = 0.02932751
#
# Stress axis : x y z
#
# Youngs Moduli (GPa) = 43.63439 43.63439 74.74997
#
# Poissons Ratio (x) = 0.30948 0.29341
# Poissons Ratio (y) = 0.30948 0.29341
# Poissons Ratio (z) = 0.17127 0.17127
#
# Static dielectric constant tensor:
#      x y z
#    x 1.846690 0.000000 0.000000 
#    y 0.000000 1.846690 0.000000 
#    z 0.000000 0.000000 1.757530 
# 
# From -- ./inp_files/1023.got.cif
#   From: 2010.05.17/outbox.cif.g08.bks.cpg/sg114_1_cif.got.tgz:1023.got - 2010.05.20 11:04:54.
