data_PCOD9556240
_publ_section_title
;
Structure prediction by ZEFSAII (Michael W. Deem and Ramdas Pophale) SiO2 
 PCOD9556240
Probable space group: P -4 21 C
;
_chemical_formula_sum "Si O2"
_cell_formula_units_Z 34
_cell_length_a 12.242707
_cell_length_b 12.242707
_cell_length_c 9.001542
_cell_angle_alpha 90.000000
_cell_angle_beta 90.000000
_cell_angle_gamma 90.000000
_cell_volume 1349.185993
_symmetry_space_group_name_H-M "P -4 21 C"
_symmetry_group_IT_number 114
_symmetry_cell_setting 'tetragonal'
loop_
_space_group_symop_operation_xyz
x,y,z
y,-x,-z
-x,-y,z
-y,x,-z
1/2+x,1/2-y,1/2-z
1/2-x,1/2+y,1/2-z
1/2-y,1/2-x,1/2+z
1/2+y,1/2+x,1/2+z
loop_
_atom_site_type_symbol
_atom_site_label
_atom_site_fract_x
_atom_site_fract_y
_atom_site_fract_z
Si Si1 0.000000 0.000000 0.000000
Si Si2 0.226469 0.169296 0.466506
Si Si3 0.048312 0.603674 0.747786
Si Si4 0.236373 0.995171 0.686427
Si Si5 0.773160 0.950075 0.033388
O O1 0.982660 0.108986 0.904964
O O2 0.304011 0.099175 0.356886
O O3 0.176113 0.089610 0.592065
O O4 0.318215 0.252846 0.532476
O O5 0.125098 0.217735 0.375860
O O6 0.139989 0.536447 0.837387
O O7 0.000000 0.500000 0.661324
O O8 0.992076 0.678295 0.872732
O O9 0.222967 0.011540 0.862507
#
# Coordination Sequence:
#
# PCOD9556240 Si02
#       5
#     2   8   8   8   8
#     4  12  24  40  68 102 144 184 232 314 348 444
#     4  10  23  45  66 106 136 190 237 293 372 430
#     4  10  23  46  71 102 137 192 245 299 362 444
#     4  10  23  43  69  98 146 181 236 303 356 439
#     4  10  24  42  64 101 135 182 242 284 372 413
#
# _framework density 25.200381
#
# number of rings (size 3 to 8) (size 9 to 14) (size 15 to 20)
#    0.000    1.882    0.000    1.412    3.294   12.706 
#    8.471    0.000    0.000    0.000    0.000    0.000 
#    0.000    0.000    0.000    0.000    0.000    0.000 
#
# Total GULP energy -189654.666576 kJ/mol
# GULP energy per Si atom -5578.078429 kJ/mol
# Density = 2.514302 g / cm^3
# Si number density = 25.200381 Si / 1000 Ang^3
#
#
#
# Elastic Constant Matrix: (Units=GPa)
#
#
# Indices 1 2 3 4 5 6 
#
# 1 123.3424 33.6976 33.8274 0.0000 0.0000 0.0000
# 2 33.6976 123.3424 33.8274 0.0000 0.0000 0.0000
# 3 33.8274 33.8274 106.0051 0.0000 0.0000 0.0000
# 4 0.0000 0.0000 0.0000 28.0959 0.0000 0.0000
# 5 0.0000 0.0000 0.0000 0.0000 28.0959 0.0000
# 6 0.0000 0.0000 0.0000 0.0000 0.0000 49.4636
#
#
#
# Elastic Compliance Matrix: (Units=1/GPa)
#
#
# Indices 1 2 3 4 5 6 
#
# 1 0.009269 -0.001886 -0.002356 0.000000 0.000000 0.000000
# 2 -0.001886 0.009269 -0.002356 0.000000 0.000000 0.000000
# 3 -0.002356 -0.002356 0.010937 0.000000 0.000000 0.000000
# 4 0.000000 0.000000 0.000000 0.035592 0.000000 0.000000
# 5 0.000000 0.000000 0.000000 0.000000 0.035592 0.000000
# 6 0.000000 0.000000 0.000000 0.000000 0.000000 0.020217
#
#
# Mechanical properties :
#
#
# Convention : Reuss Voigt Hill
#
# Bulk Modulus (GPa) = 61.42903 61.71054 61.56979
# Shear Modulus (GPa) = 35.84255 37.88691 36.86473
#
# Velocity S-wave (km/s) = 3.77543 3.88161 3.82889
# Velocity P-wave (km/s) = 6.59047 6.68059 6.63569
#
# Compressibility (1/GPa) = 0.01627895
#
# Stress axis : x y z
#
# Youngs Moduli (GPa) = 107.88700 107.88700 91.43179
#
# Poissons Ratio (x) = 0.20350 0.21541
# Poissons Ratio (y) = 0.20350 0.21541
# Poissons Ratio (z) = 0.25417 0.25417
#
# Static dielectric constant tensor:
#      x y z
#    x 2.147380 0.000000 0.000000 
#    y 0.000000 2.147380 0.000000 
#    z 0.000000 0.000000 2.090060 
# 
# From -- ./inp_files/1485.got.cif
#   From: 2010.05.17/outbox.cif.g08.bks.cpg/sg114_1_cif.got.tgz:1485.got - 2010.05.20 11:04:54.
