data_PCOD9556496
_publ_section_title
;
Structure prediction by ZEFSAII (Michael W. Deem and Ramdas Pophale) SiO2 
 PCOD9556496
Probable space group: P -4 21 C
;
_chemical_formula_sum "Si O2"
_cell_formula_units_Z 24
_cell_length_a 10.035032
_cell_length_b 10.035032
_cell_length_c 9.903185
_cell_angle_alpha 90.000000
_cell_angle_beta 90.000000
_cell_angle_gamma 90.000000
_cell_volume 997.269221
_symmetry_space_group_name_H-M "P -4 21 C"
_symmetry_group_IT_number 114
_symmetry_cell_setting 'tetragonal'
loop_
_space_group_symop_operation_xyz
x,y,z
y,-x,-z
-x,-y,z
-y,x,-z
1/2+x,1/2-y,1/2-z
1/2-x,1/2+y,1/2-z
1/2-y,1/2-x,1/2+z
1/2+y,1/2+x,1/2+z
loop_
_atom_site_type_symbol
_atom_site_label
_atom_site_fract_x
_atom_site_fract_y
_atom_site_fract_z
Si Si1 0.000000 0.000000 0.500000
Si Si2 0.849585 0.752055 0.906266
Si Si3 0.000000 0.500000 0.874637
Si Si4 0.242288 0.145812 0.639111
Si Si5 0.000000 0.000000 0.000000
O O1 0.875412 0.954523 0.593394
O O2 0.923688 0.618070 0.951429
O O3 0.805142 0.749457 0.751275
O O4 0.725899 0.776760 0.003782
O O5 0.948471 0.876422 0.914435
O O6 0.874772 0.426733 0.804569
#
# Coordination Sequence:
#
# PCOD9556496 Si02
#       5
#     2   8   4   8   2
#     4  12  26  52  76 110 158 204 256 322 390 468
#     4  12  29  48  79 116 155 202 259 324 392 464
#     4  12  28  50  84 114 156 202 264 322 396 462
#     4  12  29  48  79 116 155 202 259 324 392 464
#     4  12  26  52  76 110 158 204 256 322 390 468
#
# _framework density 24.065715000000001
#
# number of rings (size 3 to 8) (size 9 to 14) (size 15 to 20)
#    0.000    0.000    6.667    1.000    9.333    2.667 
#    0.000    0.000    0.000    0.000    0.000    0.000 
#    0.000    0.000    0.000    0.000    0.000    0.000 
#
# Total GULP energy -134192.074360 kJ/mol
# GULP energy per Si atom -5591.336432 kJ/mol
# Density = 2.401094 g / cm^3
# Si number density = 24.065715 Si / 1000 Ang^3
#
#
#
# Elastic Constant Matrix: (Units=GPa)
#
#
# Indices 1 2 3 4 5 6 
#
# 1 133.7338 41.7274 18.0975 0.0000 0.0000 0.0000
# 2 41.7274 133.7338 18.0975 0.0000 0.0000 0.0000
# 3 18.0975 18.0975 94.0580 0.0000 0.0000 0.0000
# 4 0.0000 0.0000 0.0000 -6.3789 0.0000 0.0000
# 5 0.0000 0.0000 0.0000 0.0000 -6.3789 0.0000
# 6 0.0000 0.0000 0.0000 0.0000 0.0000 51.7214
#
#
#
# Elastic Compliance Matrix: (Units=1/GPa)
#
#
# Indices 1 2 3 4 5 6 
#
# 1 0.008402 -0.002467 -0.001142 0.000000 0.000000 0.000000
# 2 -0.002467 0.008402 -0.001142 0.000000 0.000000 0.000000
# 3 -0.001142 -0.001142 0.011071 0.000000 0.000000 0.000000
# 4 0.000000 0.000000 0.000000 -0.156766 0.000000 0.000000
# 5 0.000000 0.000000 0.000000 0.000000 -0.156766 0.000000
# 6 0.000000 0.000000 0.000000 0.000000 0.000000 0.019334
#
#
# Mechanical properties :
#
#
# Convention : Reuss Voigt Hill
#
# Bulk Modulus (GPa) = 54.42713 57.48558 55.95635
# Shear Modulus (GPa) = -19.94433 26.69959 3.37763
#
# Velocity S-wave (km/s) = -2.88192 3.33445 1.18598
# Velocity P-wave (km/s) = 3.40459 6.22603 5.01770
#
# Compressibility (1/GPa) = 0.01837319
#
# Stress axis : x y z
#
# Youngs Moduli (GPa) = 119.02182 119.02182 90.32474
#
# Poissons Ratio (x) = 0.29363 0.10314
# Poissons Ratio (y) = 0.29363 0.10314
# Poissons Ratio (z) = 0.13591 0.13591
#
# Static dielectric constant tensor:
#      x y z
#    x 1.918680 0.000000 0.000000 
#    y 0.000000 1.918680 0.000000 
#    z 0.000000 0.000000 1.805570 
# 
# From -- ./inp_files/525.got.cif
#   From: 2010.05.17/outbox.cif.g08.bks.cpg/sg114_1_cif.got.tgz:525.got - 2010.05.20 11:04:54.
