data_PCOD9556522
_publ_section_title
;
Structure prediction by ZEFSAII (Michael W. Deem and Ramdas Pophale) SiO2 
 PCOD9556522
Probable space group: P -4 M 2
;
_chemical_formula_sum "Si O2"
_cell_formula_units_Z 64
_cell_length_a 20.755430
_cell_length_b 20.755430
_cell_length_c 12.283732
_cell_angle_alpha 90.000000
_cell_angle_beta 90.000000
_cell_angle_gamma 90.000000
_cell_volume 5291.682799
_symmetry_space_group_name_H-M "P -4 M 2"
_symmetry_group_IT_number 115
_symmetry_cell_setting 'tetragonal'
loop_
_space_group_symop_operation_xyz
x,y,z
y,-x,-z
-x,-y,z
-y,x,-z
y,x,-z
-y,-x,-z
-x,y,z
x,-y,z
loop_
_atom_site_type_symbol
_atom_site_label
_atom_site_fract_x
_atom_site_fract_y
_atom_site_fract_z
Si Si1 0.367295 0.077571 0.000000
Si Si2 0.819221 0.924956 0.236877
Si Si3 0.921924 0.427740 0.233016
Si Si4 0.078388 0.693224 0.625030
Si Si5 0.427740 0.078076 0.233017
Si Si6 0.777362 0.118763 0.000000
Si Si7 0.306776 0.921612 0.625032
Si Si8 0.180779 0.924956 0.763124
O O1 0.406705 0.092146 0.890738
O O2 0.299588 0.114500 0.999999
O O3 0.353284 0.000000 1.000000
O O4 0.406704 0.092146 0.109263
O O5 0.756662 0.904296 0.306410
O O6 0.879454 0.879454 0.262081
O O7 0.832279 0.000000 0.258746
O O8 0.801698 0.915890 0.109652
O O9 0.898547 0.500000 0.256454
O O10 0.899343 0.371608 0.314102
O O11 0.000000 0.429174 0.241149
O O12 0.100657 0.628392 0.685896
O O13 0.099653 0.696347 0.499999
O O14 0.000000 0.691500 0.625195
O O15 0.500000 0.101453 0.256454
O O16 0.429174 0.000000 0.241152
O O17 0.801699 0.084110 0.890349
O O18 0.810841 0.189160 0.000000
O O19 0.243338 0.904296 0.693592
O O20 0.308500 0.000000 0.625197
O O21 0.167720 0.000000 0.741254
#
# Coordination Sequence:
#
# PCOD9556522 Si02
#       8
#     8   8   8   8   8   8   8   8
#     4  10  15  24  40  55  76  96 114 145 183 223
#     4  10  19  30  43  57  72  92 121 158 201 245
#     4   9  16  24  37  57  76  94 115 139 172 218
#     4   9  17  28  40  53  71  95 119 145 181 223
#     4   9  16  24  37  57  76  94 115 139 172 218
#     4  10  18  27  42  59  72  92 120 150 190 236
#     4   9  17  28  40  53  71  95 119 145 181 223
#     4  10  19  30  43  57  72  92 121 158 201 245
#
# _framework density 12.09445
#
# number of rings (size 3 to 8) (size 9 to 14) (size 15 to 20)
#    0.000    2.500    2.500    1.500    0.000    2.750 
#    0.000    2.500    0.000    2.250    0.000    3.500 
#    0.000    0.000    0.000    0.000    0.000    0.000 
#
# Total GULP energy -356379.184732 kJ/mol
# GULP energy per Si atom -5568.424761 kJ/mol
# Density = 1.206692 g / cm^3
# Si number density = 12.094450 Si / 1000 Ang^3
#
#
#
# Elastic Constant Matrix: (Units=GPa)
#
#
# Indices 1 2 3 4 5 6 
#
# 1 68.4256 38.3876 35.1752 0.0000 0.0000 0.0000
# 2 38.3876 68.4253 35.1747 0.0000 0.0000 0.0000
# 3 35.1752 35.1747 93.5026 0.0000 0.0000 0.0000
# 4 0.0000 0.0000 0.0000 4.6136 0.0000 0.0000
# 5 0.0000 0.0000 0.0000 0.0000 4.6132 0.0000
# 6 0.0000 0.0000 0.0000 0.0000 0.0000 3.3374
#
#
#
# Elastic Compliance Matrix: (Units=1/GPa)
#
#
# Indices 1 2 3 4 5 6 
#
# 1 0.022869 -0.010423 -0.004682 0.000000 0.000000 0.000000
# 2 -0.010423 0.022869 -0.004682 0.000000 0.000000 0.000000
# 3 -0.004682 -0.004682 0.014218 0.000000 0.000000 0.000000
# 4 0.000000 0.000000 0.000000 0.216752 0.000000 0.000000
# 5 0.000000 0.000000 0.000000 0.000000 0.216771 0.000000
# 6 0.000000 0.000000 0.000000 0.000000 0.000000 0.299639
#
#
# Mechanical properties :
#
#
# Convention : Reuss Voigt Hill
#
# Bulk Modulus (GPa) = 49.06490 49.75870 49.41180
# Shear Modulus (GPa) = 5.95604 10.62055 8.28829
#
# Velocity S-wave (km/s) = 2.22155 2.96655 2.62066
# Velocity P-wave (km/s) = 6.87289 7.27770 7.07819
#
# Compressibility (1/GPa) = 0.02038117
#
# Stress axis : x y z
#
# Youngs Moduli (GPa) = 43.72807 43.72810 70.33548
#
# Poissons Ratio (x) = 0.45577 0.32932
# Poissons Ratio (y) = 0.45577 0.32931
# Poissons Ratio (z) = 0.20474 0.20473
#
# Static dielectric constant tensor:
#      x y z
#    x 1.376430 0.000000 0.000000 
#    y 0.000000 1.376430 0.000000 
#    z 0.000000 0.000000 1.408510 
# 
# From -- ./inp_files/3252.got.cif
#   From: 2010.05.17/outbox.cif.g08.bks.cpg/sg115_2_cif.got.tgz:3252.got - 2010.05.20 11:07:42.
