data_PCOD9556686
_publ_section_title
;
Structure prediction by ZEFSAII (Michael W. Deem and Ramdas Pophale) SiO2 
 PCOD9556686
Probable space group: P -4 M 2
;
_chemical_formula_sum "Si O2"
_cell_formula_units_Z 32
_cell_length_a 8.033285
_cell_length_b 8.033285
_cell_length_c 24.487277
_cell_angle_alpha 90.000000
_cell_angle_beta 90.000000
_cell_angle_gamma 90.000000
_cell_volume 1580.253801
_symmetry_space_group_name_H-M "P -4 M 2"
_symmetry_group_IT_number 115
_symmetry_cell_setting 'tetragonal'
loop_
_space_group_symop_operation_xyz
x,y,z
y,-x,-z
-x,-y,z
-y,x,-z
y,x,-z
-y,-x,-z
-x,y,z
x,-y,z
loop_
_atom_site_type_symbol
_atom_site_label
_atom_site_fract_x
_atom_site_fract_y
_atom_site_fract_z
Si Si1 0.681963 0.299036 0.327638
Si Si2 0.306677 0.194049 0.557788
Si Si3 0.203478 0.000000 0.866921
Si Si4 0.198139 0.000000 0.742701
Si Si5 0.312295 0.798466 0.059433
O O1 0.500000 0.245167 0.307532
O O2 0.684054 0.500000 0.330787
O O3 0.708998 0.237846 0.389879
O O4 0.835075 0.249433 0.289930
O O5 0.220242 0.220242 0.500000
O O6 0.500000 0.242469 0.549735
O O7 0.301458 0.000000 0.572766
O O8 0.263711 0.000000 0.804671
O O9 0.254742 0.166013 0.899517
O O10 0.000000 0.000000 0.866353
O O11 0.000000 0.000000 0.745803
O O12 0.500000 0.756481 0.077476
O O13 0.302278 0.000000 0.054251
O O14 0.277034 0.722967 0.000000
#
# Coordination Sequence:
#
# PCOD9556686 Si02
#       5
#     8   8   4   4   8
#     4  10  21  40  64  85 114 161 210 257 311 371
#     4  10  20  35  56  82 113 148 194 250 308 375
#     4   9  20  37  59  87 123 166 204 247 303 360
#     4  11  23  39  61  91 125 161 207 258 307 370
#     4  10  19  34  60  89 118 157 203 250 307 369
#
# _framework density 20.249911999999998
#
# number of rings (size 3 to 8) (size 9 to 14) (size 15 to 20)
#    0.000    2.000    2.500    1.125    0.000    4.250 
#    0.000    5.000    0.000    0.000    0.000    0.000 
#    0.000    0.000    0.000    0.000    0.000    0.000 
#
# Total GULP energy -178703.721138 kJ/mol
# GULP energy per Si atom -5584.491286 kJ/mol
# Density = 2.020382 g / cm^3
# Si number density = 20.249912 Si / 1000 Ang^3
#
#
#
# Elastic Constant Matrix: (Units=GPa)
#
#
# Indices 1 2 3 4 5 6 
#
# 1 88.9717 37.9494 55.4687 0.0000 0.0000 0.0000
# 2 37.9494 88.9715 55.4695 0.0000 0.0000 0.0000
# 3 55.4687 55.4695 149.0174 0.0000 0.0000 0.0000
# 4 0.0000 0.0000 0.0000 -58.4092 0.0000 0.0000
# 5 0.0000 0.0000 0.0000 0.0000 -58.4114 0.0000
# 6 0.0000 0.0000 0.0000 0.0000 0.0000 15.5218
#
#
#
# Elastic Compliance Matrix: (Units=1/GPa)
#
#
# Indices 1 2 3 4 5 6 
#
# 1 0.015639 -0.003960 -0.004347 0.000000 0.000000 0.000000
# 2 -0.003960 0.015639 -0.004347 0.000000 0.000000 0.000000
# 3 -0.004347 -0.004347 0.009947 0.000000 0.000000 0.000000
# 4 0.000000 0.000000 0.000000 -0.017121 0.000000 0.000000
# 5 0.000000 0.000000 0.000000 0.000000 -0.017120 0.000000
# 6 0.000000 0.000000 0.000000 0.000000 0.000000 0.064425
#
#
# Mechanical properties :
#
#
# Convention : Reuss Voigt Hill
#
# Bulk Modulus (GPa) = 62.83157 69.41509 66.12333
# Shear Modulus (GPa) = 49.00796 -8.38821 20.30988
#
# Velocity S-wave (km/s) = 4.92485 -2.03748 3.17039
# Velocity P-wave (km/s) = 7.96456 5.36829 6.79164
#
# Compressibility (1/GPa) = 0.01591557
#
# Stress axis : x y z
#
# Youngs Moduli (GPa) = 63.94319 63.94233 100.53334
#
# Poissons Ratio (x) = 0.25323 0.43703
# Poissons Ratio (y) = 0.25324 0.43705
# Poissons Ratio (z) = 0.27797 0.27797
#
# Static dielectric constant tensor:
#      x y z
#    x 1.754300 0.000000 0.000000 
#    y 0.000000 1.754300 0.000000 
#    z 0.000000 0.000000 1.691340 
# 
# From -- ./inp_files/5025.got.cif
#   From: 2010.05.17/outbox.cif.g08.bks.cpg/sg115_3_cif.got.tgz:5025.got - 2010.05.20 11:07:42.
