data_PCOD9556381
_publ_section_title
;
Structure prediction by ZEFSAII (Michael W. Deem and Ramdas Pophale) SiO2 
 PCOD9556381
Probable space group: P -4 21 C
;
_chemical_formula_sum "Si O2"
_cell_formula_units_Z 34
_cell_length_a 8.491409
_cell_length_b 8.491409
_cell_length_c 19.679322
_cell_angle_alpha 90.000000
_cell_angle_beta 90.000000
_cell_angle_gamma 90.000000
_cell_volume 1418.958361
_symmetry_space_group_name_H-M "P -4 21 C"
_symmetry_group_IT_number 114
_symmetry_cell_setting 'tetragonal'
loop_
_space_group_symop_operation_xyz
x,y,z
y,-x,-z
-x,-y,z
-y,x,-z
1/2+x,1/2-y,1/2-z
1/2-x,1/2+y,1/2-z
1/2-y,1/2-x,1/2+z
1/2+y,1/2+x,1/2+z
loop_
_atom_site_type_symbol
_atom_site_label
_atom_site_fract_x
_atom_site_fract_y
_atom_site_fract_z
Si Si1 0.839279 0.406066 0.229146
Si Si2 0.368123 0.718581 0.510772
Si Si3 0.975308 0.695560 0.585690
Si Si4 0.929213 0.834103 0.842987
Si Si5 0.500000 0.500000 0.000000
O O1 0.767300 0.494538 0.163606
O O2 0.857769 0.226673 0.203617
O O3 0.739202 0.435312 0.296188
O O4 0.000000 0.500000 0.242331
O O5 0.548931 0.708049 0.489331
O O6 0.291483 0.805984 0.447574
O O7 0.377782 0.765495 0.590539
O O8 0.000000 0.500000 0.580043
O O9 0.051822 0.844316 0.543983
O O10 0.000000 0.000000 0.867604
#
# Coordination Sequence:
#
# PCOD9556381 Si02
#       5
#     8   8   8   8   2
#     4  11  26  46  69 101 147 193 239 311 377 452
#     4  11  22  42  75 105 143 197 244 309 377 450
#     4  11  25  45  70 105 149 186 251 308 381 450
#     4  12  25  45  72 106 143 190 251 301 383 463
#     4  12  24  44  72 108 140 196 246 308 392 452
#
# _framework density 23.961238000000002
#
# number of rings (size 3 to 8) (size 9 to 14) (size 15 to 20)
#    0.000    0.706    2.353    7.059    4.941    0.941 
#    4.235    0.000    0.000    0.000    0.000    0.000 
#    0.000    0.000    0.000    0.000    0.000    0.000 
#
# Total GULP energy -189372.454529 kJ/mol
# GULP energy per Si atom -5569.778074 kJ/mol
# Density = 2.390670 g / cm^3
# Si number density = 23.961238 Si / 1000 Ang^3
#
#
#
# Elastic Constant Matrix: (Units=GPa)
#
#
# Indices 1 2 3 4 5 6 
#
# 1 26.3540 14.8886 29.2850 0.0000 0.0000 0.0000
# 2 14.8886 26.3540 29.2850 0.0000 0.0000 0.0000
# 3 29.2850 29.2850 117.5918 0.0000 0.0000 0.0000
# 4 0.0000 0.0000 0.0000 11.5250 0.0000 0.0000
# 5 0.0000 0.0000 0.0000 0.0000 11.5250 0.0000
# 6 0.0000 0.0000 0.0000 0.0000 0.0000 0.8557
#
#
#
# Elastic Compliance Matrix: (Units=1/GPa)
#
#
# Indices 1 2 3 4 5 6 
#
# 1 0.062367 -0.024852 -0.009343 0.000000 0.000000 0.000000
# 2 -0.024852 0.062367 -0.009343 0.000000 0.000000 0.000000
# 3 -0.009343 -0.009343 0.013157 0.000000 0.000000 0.000000
# 4 0.000000 0.000000 0.000000 0.086768 0.000000 0.000000
# 5 0.000000 0.000000 0.000000 0.000000 0.086768 0.000000
# 6 0.000000 0.000000 0.000000 0.000000 0.000000 1.168697
#
#
# Mechanical properties :
#
#
# Convention : Reuss Voigt Hill
#
# Bulk Modulus (GPa) = 19.67878 35.24633 27.46256
# Shear Modulus (GPa) = 3.15629 11.23721 7.19675
#
# Velocity S-wave (km/s) = 1.14896 2.16793 1.73494
# Velocity P-wave (km/s) = 3.16081 4.58347 3.93694
#
# Compressibility (1/GPa) = 0.05081616
#
# Stress axis : x y z
#
# Youngs Moduli (GPa) = 16.03417 16.03417 76.00301
#
# Poissons Ratio (x) = 0.39848 0.71007
# Poissons Ratio (y) = 0.39848 0.71007
# Poissons Ratio (z) = 0.14980 0.14980
#
# Static dielectric constant tensor:
#      x y z
#    x 1.970370 0.000000 0.000000 
#    y 0.000000 1.970370 0.000000 
#    z 0.000000 0.000000 1.904220 
# 
# From -- ./inp_files/2971.got.cif
#   From: 2010.05.17/outbox.cif.g08.bks.cpg/sg114_2_cif.got.tgz:2971.got - 2010.05.20 11:04:54.
