data_PCOD9556399
_publ_section_title
;
Structure prediction by ZEFSAII (Michael W. Deem and Ramdas Pophale) SiO2 
 PCOD9556399
Probable space group: P -4 21 C
;
_chemical_formula_sum "Si O2"
_cell_formula_units_Z 38
_cell_length_a 8.806823
_cell_length_b 8.806823
_cell_length_c 23.847324
_cell_angle_alpha 90.000000
_cell_angle_beta 90.000000
_cell_angle_gamma 90.000000
_cell_volume 1849.601582
_symmetry_space_group_name_H-M "P -4 21 C"
_symmetry_group_IT_number 114
_symmetry_cell_setting 'tetragonal'
loop_
_space_group_symop_operation_xyz
x,y,z
y,-x,-z
-x,-y,z
-y,x,-z
1/2+x,1/2-y,1/2-z
1/2-x,1/2+y,1/2-z
1/2-y,1/2-x,1/2+z
1/2+y,1/2+x,1/2+z
loop_
_atom_site_type_symbol
_atom_site_label
_atom_site_fract_x
_atom_site_fract_y
_atom_site_fract_z
Si Si1 0.000000 0.500000 0.245314
Si Si2 0.454869 0.154515 0.554296
Si Si3 0.000000 0.000000 0.500000
Si Si4 0.743747 0.786041 0.451958
Si Si5 0.244868 0.539064 0.841988
Si Si6 0.960312 0.249136 0.651120
O O1 0.973063 0.355919 0.285983
O O2 0.858807 0.487421 0.203089
O O3 0.612868 0.235877 0.568709
O O4 0.344448 0.234711 0.510586
O O5 0.367697 0.095471 0.609041
O O6 0.500000 0.000000 0.522548
O O7 0.125696 0.903053 0.534054
O O8 0.670503 0.898308 0.405651
O O9 0.326815 0.375671 0.842984
O O10 0.383611 0.655737 0.850556
#
# Coordination Sequence:
#
# PCOD9556399 Si02
#       6
#     4   8   2   8   8   8
#     4  12  24  42  64  96 128 166 212 290 338 374
#     4  12  24  41  68  94 137 169 216 274 326 401
#     4  12  20  36  68  92 120 164 232 256 304 410
#     4  12  24  40  64 101 128 174 214 271 332 393
#     4  11  23  44  66  93 127 176 220 269 330 390
#     4  11  24  40  68  96 126 170 228 267 319 406
#
# _framework density 20.544965999999999
#
# number of rings (size 3 to 8) (size 9 to 14) (size 15 to 20)
#    0.000    0.421    5.263    3.789    1.474    0.421 
#    0.000    0.000    0.000    0.000    0.000    0.000 
#    0.000    0.000    0.000    0.000    0.000    0.000 
#
# Total GULP energy -211698.500704 kJ/mol
# GULP energy per Si atom -5571.013176 kJ/mol
# Density = 2.049820 g / cm^3
# Si number density = 20.544966 Si / 1000 Ang^3
#
#
#
# Elastic Constant Matrix: (Units=GPa)
#
#
# Indices 1 2 3 4 5 6 
#
# 1 108.4540 54.0962 65.6548 0.0000 0.0000 0.0000
# 2 54.0962 108.4540 65.6548 0.0000 0.0000 0.0000
# 3 65.6548 65.6548 137.9909 0.0000 0.0000 0.0000
# 4 0.0000 0.0000 0.0000 33.5557 0.0000 0.0000
# 5 0.0000 0.0000 0.0000 0.0000 33.5557 0.0000
# 6 0.0000 0.0000 0.0000 0.0000 0.0000 14.1422
#
#
#
# Elastic Compliance Matrix: (Units=1/GPa)
#
#
# Indices 1 2 3 4 5 6 
#
# 1 0.014195 -0.004202 -0.004754 0.000000 0.000000 0.000000
# 2 -0.004202 0.014195 -0.004754 0.000000 0.000000 0.000000
# 3 -0.004754 -0.004754 0.011771 0.000000 0.000000 0.000000
# 4 0.000000 0.000000 0.000000 0.029801 0.000000 0.000000
# 5 0.000000 0.000000 0.000000 0.000000 0.029801 0.000000
# 6 0.000000 0.000000 0.000000 0.000000 0.000000 0.070710
#
#
# Mechanical properties :
#
#
# Convention : Reuss Voigt Hill
#
# Bulk Modulus (GPa) = 78.50105 80.63447 79.56776
# Shear Modulus (GPa) = 24.73526 27.55029 26.14278
#
# Velocity S-wave (km/s) = 3.47357 3.66591 3.57103
# Velocity P-wave (km/s) = 7.37428 7.56647 7.47099
#
# Compressibility (1/GPa) = 0.01273868
#
# Stress axis : x y z
#
# Youngs Moduli (GPa) = 70.44940 70.44940 84.95441
#
# Poissons Ratio (x) = 0.29603 0.40390
# Poissons Ratio (y) = 0.29603 0.40390
# Poissons Ratio (z) = 0.33494 0.33494
#
# Static dielectric constant tensor:
#      x y z
#    x 1.787320 0.000000 0.000000 
#    y 0.000000 1.787320 0.000000 
#    z 0.000000 0.000000 1.800430 
# 
# From -- ./inp_files/3402.got.cif
#   From: 2010.05.17/outbox.cif.g08.bks.cpg/sg114_2_cif.got.tgz:3402.got - 2010.05.20 11:04:54.
