data_PCOD9556850
_publ_section_title
;
Structure prediction by ZEFSAII (Michael W. Deem and Ramdas Pophale) SiO2 
 PCOD9556850
Probable space group: P -4 M 2
;
_chemical_formula_sum "Si O2"
_cell_formula_units_Z 48
_cell_length_a 9.192580
_cell_length_b 9.192580
_cell_length_c 31.750889
_cell_angle_alpha 90.000000
_cell_angle_beta 90.000000
_cell_angle_gamma 90.000000
_cell_volume 2683.062108
_symmetry_space_group_name_H-M "P -4 M 2"
_symmetry_group_IT_number 115
_symmetry_cell_setting 'tetragonal'
loop_
_space_group_symop_operation_xyz
x,y,z
y,-x,-z
-x,-y,z
-y,x,-z
y,x,-z
-y,-x,-z
-x,y,z
x,-y,z
loop_
_atom_site_type_symbol
_atom_site_label
_atom_site_fract_x
_atom_site_fract_y
_atom_site_fract_z
Si Si1 0.670305 0.174951 0.461202
Si Si2 0.174766 0.172969 0.282464
Si Si3 0.832513 0.823099 0.377034
Si Si4 0.828341 0.825802 0.126539
Si Si5 0.173309 0.672095 0.961217
Si Si6 0.671691 0.326401 0.204707
O O1 0.752845 0.247156 0.500000
O O2 0.500000 0.208063 0.463076
O O3 0.736360 0.223920 0.416395
O O4 0.688324 0.000000 0.463717
O O5 0.215108 0.220417 0.330051
O O6 0.258159 0.259671 0.246723
O O7 0.000000 0.191347 0.278276
O O8 0.204037 0.000000 0.278187
O O9 0.000000 0.777539 0.383337
O O10 0.831958 0.000000 0.376462
O O11 0.752957 0.788166 0.082229
O O12 0.751750 0.743624 0.164724
O O13 0.000000 0.793268 0.125179
O O14 0.812013 0.000000 0.132700
O O15 0.200110 0.500000 0.957320
O O16 0.000000 0.693545 0.968167
O O17 0.260297 0.739703 0.000000
O O18 0.500000 0.293069 0.203023
O O19 0.689941 0.500000 0.204317
#
# Coordination Sequence:
#
# PCOD9556850 Si02
#       6
#     8   8   8   8   8   8
#     4  10  20  33  51  76 104 135 173 214 258 311
#     4   9  18  34  57  83 107 133 171 217 264 316
#     4   8  15  30  53  79 104 131 168 216 264 309
#     4  10  21  38  61  85 107 137 181 229 272 315
#     4  10  21  37  58  84 113 145 180 218 264 317
#     4  11  24  38  52  76 111 147 181 217 261 315
#
# _framework density 17.890008000000002
#
# number of rings (size 3 to 8) (size 9 to 14) (size 15 to 20)
#    0.000    2.333    0.000    3.500    0.000    8.000 
#    0.000    2.500    0.000    1.000    0.000    0.000 
#    0.000    0.000    0.000    0.000    0.000    0.000 
#
# Total GULP energy -267947.267781 kJ/mol
# GULP energy per Si atom -5582.234745 kJ/mol
# Density = 1.784929 g / cm^3
# Si number density = 17.890008 Si / 1000 Ang^3
#
#
#
# Elastic Constant Matrix: (Units=GPa)
#
#
# Indices 1 2 3 4 5 6 
#
# 1 69.4185 64.6415 88.7501 0.0000 0.0000 0.0000
# 2 64.6415 69.4232 88.7531 0.0000 0.0000 0.0000
# 3 88.7501 88.7531 196.7227 0.0000 0.0000 0.0000
# 4 0.0000 0.0000 0.0000 -23.2816 0.0000 0.0000
# 5 0.0000 0.0000 0.0000 0.0000 -23.2801 0.0000
# 6 0.0000 0.0000 0.0000 0.0000 0.0000 26.1675
#
#
#
# Elastic Compliance Matrix: (Units=1/GPa)
#
#
# Indices 1 2 3 4 5 6 
#
# 1 0.113883 -0.095354 -0.008358 0.000000 0.000000 0.000000
# 2 -0.095354 0.113875 -0.008357 0.000000 0.000000 0.000000
# 3 -0.008358 -0.008357 0.012624 0.000000 0.000000 0.000000
# 4 0.000000 0.000000 0.000000 -0.042952 0.000000 0.000000
# 5 0.000000 0.000000 0.000000 0.000000 -0.042955 0.000000
# 6 0.000000 0.000000 0.000000 0.000000 0.000000 0.038215
#
#
# Mechanical properties :
#
#
# Convention : Reuss Voigt Hill
#
# Bulk Modulus (GPa) = 61.56132 91.09486 76.32809
# Shear Modulus (GPa) = 11.84154 2.14916 6.99535
#
# Velocity S-wave (km/s) = 2.57555 1.09724 1.97957
# Velocity P-wave (km/s) = 6.58258 7.25501 6.92696
#
# Compressibility (1/GPa) = 0.01624397
#
# Stress axis : x y z
#
# Youngs Moduli (GPa) = 8.78097 8.78155 79.21254
#
# Poissons Ratio (x) = 0.83736 0.66202
# Poissons Ratio (y) = 0.83730 0.66201
# Poissons Ratio (z) = 0.07339 0.07339
#
# Static dielectric constant tensor:
#      x y z
#    x 1.592280 0.000000 0.000000 
#    y 0.000000 1.592280 0.000000 
#    z 0.000000 0.000000 1.590880 
# 
# From -- ./inp_files/6077.got.cif
#   From: 2010.05.17/outbox.cif.g08.bks.cpg/sg115_4_cif.got.tgz:6077.got - 2010.05.20 11:07:42.
