data_PCOD9556828
_publ_section_title
;
Structure prediction by ZEFSAII (Michael W. Deem and Ramdas Pophale) SiO2 
 PCOD9556828
Probable space group: P -4 M 2
;
_chemical_formula_sum "Si O2"
_cell_formula_units_Z 44
_cell_length_a 9.354037
_cell_length_b 9.354037
_cell_length_c 29.219766
_cell_angle_alpha 90.000000
_cell_angle_beta 90.000000
_cell_angle_gamma 90.000000
_cell_volume 2556.671325
_symmetry_space_group_name_H-M "P -4 M 2"
_symmetry_group_IT_number 115
_symmetry_cell_setting 'tetragonal'
loop_
_space_group_symop_operation_xyz
x,y,z
y,-x,-z
-x,-y,z
-y,x,-z
y,x,-z
-y,-x,-z
-x,y,z
x,-y,z
loop_
_atom_site_type_symbol
_atom_site_label
_atom_site_fract_x
_atom_site_fract_y
_atom_site_fract_z
Si Si1 0.331230 0.828437 0.040870
Si Si2 0.670926 0.168514 0.592352
Si Si3 0.667819 0.328288 0.315465
Si Si4 0.830018 0.828935 0.765731
Si Si5 0.164281 0.173715 0.131359
Si Si6 0.830190 0.169811 0.500000
O O1 0.500000 0.800598 0.039699
O O2 0.264236 0.782722 0.089570
O O3 0.309601 0.000000 0.036382
O O4 0.250925 0.749076 0.000000
O O5 0.500000 0.182715 0.586794
O O6 0.714999 0.257400 0.636889
O O7 0.748254 0.214942 0.545818
O O8 0.702593 0.000000 0.599725
O O9 0.500000 0.294407 0.316278
O O10 0.683657 0.500000 0.311442
O O11 0.744938 0.253449 0.273071
O O12 0.782226 0.790788 0.817505
O O13 0.000000 0.801028 0.761962
O O14 0.809948 0.000000 0.760764
O O15 0.000000 0.219362 0.123393
O O16 0.163263 0.000000 0.132292
O O17 0.000000 0.193219 0.506075
#
# Coordination Sequence:
#
# PCOD9556828 Si02
#       6
#     8   8   8   8   8   4
#     4  10  20  33  51  75 101 131 167 205 247 296
#     4   9  18  33  51  69  93 128 165 200 243 295
#     4  10  21  35  50  72 103 137 172 207 245 293
#     4   9  18  33  54  79 103 128 163 207 253 300
#     4   8  15  30  52  76 100 127 163 207 251 295
#     4   9  18  32  50  73  98 122 154 201 252 297
#
# _framework density 17.209876000000001
#
# number of rings (size 3 to 8) (size 9 to 14) (size 15 to 20)
#    0.000    2.818    0.000    2.182    0.000    4.727 
#    0.000    4.545    0.000    1.091    0.000    0.000 
#    0.000    0.000    0.000    0.000    0.000    0.000 
#
# Total GULP energy -245328.999492 kJ/mol
# GULP energy per Si atom -5575.659079 kJ/mol
# Density = 1.717071 g / cm^3
# Si number density = 17.209876 Si / 1000 Ang^3
#
#
#
# Elastic Constant Matrix: (Units=GPa)
#
#
# Indices 1 2 3 4 5 6 
#
# 1 50.1652 49.4780 84.4469 0.0000 0.0000 0.0000
# 2 49.4780 50.1632 84.4461 0.0000 0.0000 0.0000
# 3 84.4469 84.4461 213.6259 0.0000 0.0000 0.0000
# 4 0.0000 0.0000 0.0000 -29.0686 0.0000 0.0000
# 5 0.0000 0.0000 0.0000 0.0000 -29.0745 0.0000
# 6 0.0000 0.0000 0.0000 0.0000 0.0000 22.1372
#
#
#
# Elastic Compliance Matrix: (Units=1/GPa)
#
#
# Indices 1 2 3 4 5 6 
#
# 1 0.743781 -0.713398 -0.012013 0.000000 0.000000 0.000000
# 2 -0.713398 0.743844 -0.012033 0.000000 0.000000 0.000000
# 3 -0.012013 -0.012033 0.014187 0.000000 0.000000 0.000000
# 4 0.000000 0.000000 0.000000 -0.034401 0.000000 0.000000
# 5 0.000000 0.000000 0.000000 0.000000 -0.034394 0.000000
# 6 0.000000 0.000000 0.000000 0.000000 0.000000 0.045173
#
#
# Mechanical properties :
#
#
# Convention : Reuss Voigt Hill
#
# Bulk Modulus (GPa) = 37.14139 83.41070 60.27604
# Shear Modulus (GPa) = 1.68802 -0.82895 0.42954
#
# Velocity S-wave (km/s) = 0.99145 -0.69478 0.50013
# Velocity P-wave (km/s) = 4.78946 6.92303 5.95262
#
# Compressibility (1/GPa) = 0.02692414
#
# Stress axis : x y z
#
# Youngs Moduli (GPa) = 1.34448 1.34437 70.48952
#
# Poissons Ratio (x) = 0.95907 0.84682
# Poissons Ratio (y) = 0.95915 0.84818
# Poissons Ratio (z) = 0.01615 0.01618
#
# Static dielectric constant tensor:
#      x y z
#    x 1.570080 0.000000 0.000000 
#    y 0.000000 1.570080 0.000000 
#    z 0.000000 0.000000 1.568660 
# 
# From -- ./inp_files/5787.got.cif
#   From: 2010.05.17/outbox.cif.g08.bks.cpg/sg115_3_cif.got.tgz:5787.got - 2010.05.20 11:07:42.
