data_PCOD9556499
_publ_section_title
;
Structure prediction by ZEFSAII (Michael W. Deem and Ramdas Pophale) SiO2 
 PCOD9556499
Probable space group: P -4 21 C
;
_chemical_formula_sum "Si O2"
_cell_formula_units_Z 54
_cell_length_a 11.336604
_cell_length_b 11.336604
_cell_length_c 15.943957
_cell_angle_alpha 90.000000
_cell_angle_beta 90.000000
_cell_angle_gamma 90.000000
_cell_volume 2049.094877
_symmetry_space_group_name_H-M "P -4 21 C"
_symmetry_group_IT_number 114
_symmetry_cell_setting 'tetragonal'
loop_
_space_group_symop_operation_xyz
x,y,z
y,-x,-z
-x,-y,z
-y,x,-z
1/2+x,1/2-y,1/2-z
1/2-x,1/2+y,1/2-z
1/2-y,1/2-x,1/2+z
1/2+y,1/2+x,1/2+z
loop_
_atom_site_type_symbol
_atom_site_label
_atom_site_fract_x
_atom_site_fract_y
_atom_site_fract_z
Si Si1 0.772034 0.849650 0.410951
Si Si2 0.500000 0.500000 0.500000
Si Si3 0.510169 0.720916 0.612303
Si Si4 0.249892 0.456157 0.795445
Si Si5 0.133917 0.502023 0.626158
Si Si6 0.500000 0.000000 0.127501
Si Si7 0.284142 0.772074 0.918926
Si Si8 0.851590 0.062930 0.300813
O O1 0.832713 0.762762 0.343702
O O2 0.631349 0.843096 0.407319
O O3 0.808638 0.818037 0.505075
O O4 0.813886 0.974550 0.375166
O O5 0.457267 0.611997 0.557042
O O6 0.646790 0.707766 0.589605
O O7 0.393168 0.853141 0.436353
O O8 0.486426 0.861236 0.597554
O O9 0.226159 0.469516 0.697634
O O10 0.130859 0.514334 0.831969
O O11 0.376534 0.520385 0.806358
O O12 0.000000 0.500000 0.659919
O O13 0.984578 0.812207 0.789881
O O14 0.325473 0.726475 0.828575
#
# Coordination Sequence:
#
# PCOD9556499 Si02
#       8
#     8   2   8   8   8   4   8   8
#     4  12  31  52  85 129 179 235 296 387 454 548
#     4  12  36  60  92 136 198 236 312 392 484 584
#     4  12  31  59  90 133 179 246 303 388 472 566
#     4  12  28  51  87 132 171 234 306 370 460 550
#     4  12  27  54  86 125 172 236 302 376 456 555
#     4  12  26  52  90 128 172 228 310 372 454 550
#     4  12  30  54  84 129 176 232 305 373 463 545
#     4  12  28  56  90 127 179 235 303 372 460 556
#
# _framework density 26.353100999999999
#
# number of rings (size 3 to 8) (size 9 to 14) (size 15 to 20)
#    0.000    0.000    3.704    3.111   14.519    0.000 
#    2.667    0.000    0.000    0.000    0.000    0.000 
#    0.000    0.000    0.000    0.000    0.000    0.000 
#
# Total GULP energy -301891.174089 kJ/mol
# GULP energy per Si atom -5590.577298 kJ/mol
# Density = 2.629312 g / cm^3
# Si number density = 26.353101 Si / 1000 Ang^3
#
#
#
# Elastic Constant Matrix: (Units=GPa)
#
#
# Indices 1 2 3 4 5 6 
#
# 1 138.3972 15.8960 47.2804 0.0000 0.0000 0.0000
# 2 15.8960 138.3972 47.2804 0.0000 0.0000 0.0000
# 3 47.2804 47.2804 154.6346 0.0000 0.0000 0.0000
# 4 0.0000 0.0000 0.0000 17.3754 0.0000 0.0000
# 5 0.0000 0.0000 0.0000 0.0000 17.3754 0.0000
# 6 0.0000 0.0000 0.0000 0.0000 0.0000 48.7259
#
#
#
# Elastic Compliance Matrix: (Units=1/GPa)
#
#
# Indices 1 2 3 4 5 6 
#
# 1 0.008069 -0.000094 -0.002439 0.000000 0.000000 0.000000
# 2 -0.000094 0.008069 -0.002439 0.000000 0.000000 0.000000
# 3 -0.002439 -0.002439 0.007958 0.000000 0.000000 0.000000
# 4 0.000000 0.000000 0.000000 0.057553 0.000000 0.000000
# 5 0.000000 0.000000 0.000000 0.000000 0.057553 0.000000
# 6 0.000000 0.000000 0.000000 0.000000 0.000000 0.020523
#
#
# Mechanical properties :
#
#
# Convention : Reuss Voigt Hill
#
# Bulk Modulus (GPa) = 70.64617 72.48250 71.56433
# Shear Modulus (GPa) = 28.67210 38.09349 33.38280
#
# Velocity S-wave (km/s) = 3.30206 3.80610 3.56300
# Velocity P-wave (km/s) = 6.43458 6.84684 6.64391
#
# Compressibility (1/GPa) = 0.01415505
#
# Stress axis : x y z
#
# Youngs Moduli (GPa) = 123.92429 123.92429 125.65814
#
# Poissons Ratio (x) = 0.01162 0.30643
# Poissons Ratio (y) = 0.01162 0.30643
# Poissons Ratio (z) = 0.30220 0.30220
#
# Static dielectric constant tensor:
#      x y z
#    x 2.447410 0.000000 0.000000 
#    y 0.000000 2.447410 0.000000 
#    z 0.000000 0.000000 2.048350 
# 
# From -- ./inp_files/3209.got.cif
#   From: 2010.05.17/outbox.cif.g08.bks.cpg/sg114_2_cif.got.tgz:3209.got - 2010.05.20 11:04:54.
