data_PCOD9556531
_publ_section_title
;
Structure prediction by ZEFSAII (Michael W. Deem and Ramdas Pophale) SiO2 
 PCOD9556531
Probable space group: P -4 M 2
;
_chemical_formula_sum "Si O2"
_cell_formula_units_Z 48
_cell_length_a 12.473774
_cell_length_b 12.473774
_cell_length_c 19.678682
_cell_angle_alpha 90.000000
_cell_angle_beta 90.000000
_cell_angle_gamma 90.000000
_cell_volume 3061.905270
_symmetry_space_group_name_H-M "P -4 M 2"
_symmetry_group_IT_number 115
_symmetry_cell_setting 'tetragonal'
loop_
_space_group_symop_operation_xyz
x,y,z
y,-x,-z
-x,-y,z
-y,x,-z
y,x,-z
-y,-x,-z
-x,y,z
x,-y,z
loop_
_atom_site_type_symbol
_atom_site_label
_atom_site_fract_x
_atom_site_fract_y
_atom_site_fract_z
Si Si1 0.000000 0.372605 0.069842
Si Si2 0.128496 0.000000 0.190938
Si Si3 0.000000 0.704109 0.917351
Si Si4 0.383377 0.383377 0.000000
Si Si5 0.769887 0.380432 0.875634
Si Si6 0.130459 0.874414 0.425440
Si Si7 0.189900 0.627992 0.178403
Si Si8 0.203300 0.127367 0.717885
O O1 0.896182 0.351715 0.117444
O O2 0.000000 0.500000 0.052702
O O3 0.000000 0.308360 0.999043
O O4 0.164237 0.894114 0.232826
O O5 0.178035 0.000000 0.115824
O O6 0.000000 0.000000 0.187180
O O7 0.107246 0.650310 0.887511
O O8 0.285352 0.380860 0.949658
O O9 0.379574 0.500000 0.036271
O O10 0.761947 0.500000 0.846819
O O11 0.696052 0.296171 0.836629
O O12 0.165322 0.834679 0.500000
O O13 0.168999 0.812054 0.358688
O O14 0.000000 0.870840 0.427940
O O15 0.158706 0.000000 0.416781
O O16 0.204524 0.500000 0.183049
O O17 0.146705 0.683005 0.246873
O O18 0.187741 0.000000 0.713433
#
# Coordination Sequence:
#
# PCOD9556531 Si02
#       8
#     4   4   4   4   8   8   8   8
#     4  10  22  38  54  71  95 129 174 224 270 314
#     4  10  20  34  52  71 101 139 165 200 250 310
#     4  12  22  36  54  70  94 131 172 211 265 319
#     4   9  18  34  54  70  85 112 154 210 269 310
#     4  11  22  35  51  72  94 120 163 214 263 311
#     4   8  13  22  42  74 106 136 166 195 235 293
#     4  11  22  36  53  72  97 134 174 215 264 307
#     4  10  17  31  51  72 105 136 166 203 246 299
#
# _framework density 15.676515
#
# number of rings (size 3 to 8) (size 9 to 14) (size 15 to 20)
#    0.000    1.917    3.333    2.750    0.000    3.667 
#    0.000    0.000    1.833    0.000    0.000    1.167 
#    0.000    1.333    0.000    0.000    0.000    0.000 
#
# Total GULP energy -267346.758252 kJ/mol
# GULP energy per Si atom -5569.724130 kJ/mol
# Density = 1.564083 g / cm^3
# Si number density = 15.676515 Si / 1000 Ang^3
#
#
#
# Elastic Constant Matrix: (Units=GPa)
#
#
# Indices 1 2 3 4 5 6 
#
# 1 77.9754 28.8839 36.7777 0.0000 0.0000 0.0000
# 2 28.8839 77.9756 36.7777 0.0000 0.0000 0.0000
# 3 36.7777 36.7777 119.3910 0.0000 0.0000 0.0000
# 4 0.0000 0.0000 0.0000 34.5177 0.0000 0.0000
# 5 0.0000 0.0000 0.0000 0.0000 34.5174 0.0000
# 6 0.0000 0.0000 0.0000 0.0000 0.0000 16.2390
#
#
#
# Elastic Compliance Matrix: (Units=1/GPa)
#
#
# Indices 1 2 3 4 5 6 
#
# 1 0.016123 -0.004247 -0.003658 0.000000 0.000000 0.000000
# 2 -0.004247 0.016123 -0.003658 0.000000 0.000000 0.000000
# 3 -0.003658 -0.003658 0.010630 0.000000 0.000000 0.000000
# 4 0.000000 0.000000 0.000000 0.028971 0.000000 0.000000
# 5 0.000000 0.000000 0.000000 0.000000 0.028971 0.000000
# 6 0.000000 0.000000 0.000000 0.000000 0.000000 0.061580
#
#
# Mechanical properties :
#
#
# Convention : Reuss Voigt Hill
#
# Bulk Modulus (GPa) = 50.63627 53.35783 51.99705
# Shear Modulus (GPa) = 26.02698 28.58166 27.30432
#
# Velocity S-wave (km/s) = 4.07904 4.27454 4.17794
# Velocity P-wave (km/s) = 7.38618 7.64676 7.51760
#
# Compressibility (1/GPa) = 0.01974869
#
# Stress axis : x y z
#
# Youngs Moduli (GPa) = 62.02234 62.02246 94.07548
#
# Poissons Ratio (x) = 0.26340 0.34417
# Poissons Ratio (y) = 0.26340 0.34417
# Poissons Ratio (z) = 0.22690 0.22691
#
# Static dielectric constant tensor:
#      x y z
#    x 1.461930 0.000000 0.000000 
#    y 0.000000 1.461930 0.000000 
#    z 0.000000 0.000000 1.546920 
# 
# From -- ./inp_files/4884.got.cif
#   From: 2010.05.17/outbox.cif.g08.bks.cpg/sg115_3_cif.got.tgz:4884.got - 2010.05.20 11:07:42.
