data_PCOD9556733
_publ_section_title
;
Structure prediction by ZEFSAII (Michael W. Deem and Ramdas Pophale) SiO2 
 PCOD9556733
Probable space group: P -4 M 2
;
_chemical_formula_sum "Si O2"
_cell_formula_units_Z 44
_cell_length_a 9.383657
_cell_length_b 9.383657
_cell_length_c 28.999201
_cell_angle_alpha 90.000000
_cell_angle_beta 90.000000
_cell_angle_gamma 90.000000
_cell_volume 2553.467188
_symmetry_space_group_name_H-M "P -4 M 2"
_symmetry_group_IT_number 115
_symmetry_cell_setting 'tetragonal'
loop_
_space_group_symop_operation_xyz
x,y,z
y,-x,-z
-x,-y,z
-y,x,-z
y,x,-z
-y,-x,-z
-x,y,z
x,-y,z
loop_
_atom_site_type_symbol
_atom_site_label
_atom_site_fract_x
_atom_site_fract_y
_atom_site_fract_z
Si Si1 0.330913 0.330913 0.500000
Si Si2 0.332837 0.328699 0.232811
Si Si3 0.163632 0.673722 0.140957
Si Si4 0.832593 0.170215 0.312813
Si Si5 0.326233 0.335283 0.948884
Si Si6 0.169238 0.169068 0.419693
O O1 0.305577 0.500000 0.500020
O O2 0.259525 0.259605 0.455356
O O3 0.500000 0.295919 0.229271
O O4 0.318003 0.500000 0.237007
O O5 0.251454 0.283547 0.186198
O O6 0.262592 0.254020 0.276684
O O7 0.164444 0.500000 0.140204
O O8 0.239632 0.721014 0.093824
O O9 0.000000 0.720257 0.143578
O O10 0.798969 0.203678 0.366247
O O11 0.000000 0.203111 0.305297
O O12 0.815199 0.000000 0.307141
O O13 0.500000 0.335528 0.949419
O O14 0.282115 0.500000 0.942464
O O15 0.283861 0.283861 0.000000
O O16 0.000000 0.192337 0.427036
O O17 0.195162 0.000000 0.426450
#
# Coordination Sequence:
#
# PCOD9556733 Si02
#       6
#     4   8   8   8   8   8
#     4  11  24  37  50  76 112 141 166 203 250 296
#     4  10  20  32  48  73 104 135 167 206 250 295
#     4   9  16  26  42  65  93 125 161 200 242 290
#     4   9  19  36  56  77 101 130 166 208 252 298
#     4   8  13  22  38  60  85 114 150 193 240 289
#     4   9  19  37  59  79  99 129 171 212 248 294
#
# _framework density 17.231473999999999
#
# number of rings (size 3 to 8) (size 9 to 14) (size 15 to 20)
#    0.000    2.818    0.000    3.273    0.000    7.273 
#    0.000    5.455    0.000    1.091    0.000    2.545 
#    0.000    0.000    0.000    0.000    0.000    0.000 
#
# Total GULP energy -245344.658093 kJ/mol
# GULP energy per Si atom -5576.014957 kJ/mol
# Density = 1.719225 g / cm^3
# Si number density = 17.231474 Si / 1000 Ang^3
#
#
#
# Elastic Constant Matrix: (Units=GPa)
#
#
# Indices 1 2 3 4 5 6 
#
# 1 74.7842 59.1333 95.9809 0.0000 0.0000 0.0000
# 2 59.1333 74.7842 95.9809 0.0000 0.0000 0.0000
# 3 95.9809 95.9809 184.4827 0.0000 0.0000 0.0000
# 4 0.0000 0.0000 0.0000 45.6099 0.0000 0.0000
# 5 0.0000 0.0000 0.0000 0.0000 45.6099 0.0000
# 6 0.0000 0.0000 0.0000 0.0000 0.0000 23.3785
#
#
#
# Elastic Compliance Matrix: (Units=1/GPa)
#
#
# Indices 1 2 3 4 5 6 
#
# 1 0.046633 -0.017261 -0.015282 0.000000 0.000000 0.000000
# 2 -0.017261 0.046633 -0.015282 0.000000 0.000000 0.000000
# 3 -0.015282 -0.015282 0.021322 0.000000 0.000000 0.000000
# 4 0.000000 0.000000 0.000000 0.021925 0.000000 0.000000
# 5 0.000000 0.000000 0.000000 0.000000 0.021925 0.000000
# 6 0.000000 0.000000 0.000000 0.000000 0.000000 0.042774
#
#
# Mechanical properties :
#
#
# Convention : Reuss Voigt Hill
#
# Bulk Modulus (GPa) = 52.79792 92.91568 72.85680
# Shear Modulus (GPa) = 16.49217 28.45005 22.47111
#
# Velocity S-wave (km/s) = 3.09705 4.06772 3.61511
# Velocity P-wave (km/s) = 6.59514 8.72359 7.73294
#
# Compressibility (1/GPa) = 0.01894014
#
# Stress axis : x y z
#
# Youngs Moduli (GPa) = 21.44392 21.44392 46.90063
#
# Poissons Ratio (x) = 0.37014 0.71672
# Poissons Ratio (y) = 0.37014 0.71672
# Poissons Ratio (z) = 0.32770 0.32770
#
# Static dielectric constant tensor:
#      x y z
#    x 1.569380 0.000000 0.000000 
#    y 0.000000 1.569380 0.000000 
#    z 0.000000 0.000000 1.576490 
# 
# From -- ./inp_files/5742.got.cif
#   From: 2010.05.17/outbox.cif.g08.bks.cpg/sg115_3_cif.got.tgz:5742.got - 2010.05.20 11:07:42.
