data_PCOD9556597
_publ_section_title
;
Structure prediction by ZEFSAII (Michael W. Deem and Ramdas Pophale) SiO2 
 PCOD9556597
Probable space group: P -4 M 2
;
_chemical_formula_sum "Si O2"
_cell_formula_units_Z 48
_cell_length_a 15.072083
_cell_length_b 15.072083
_cell_length_c 11.714872
_cell_angle_alpha 90.000000
_cell_angle_beta 90.000000
_cell_angle_gamma 90.000000
_cell_volume 2661.240364
_symmetry_space_group_name_H-M "P -4 M 2"
_symmetry_group_IT_number 115
_symmetry_cell_setting 'tetragonal'
loop_
_space_group_symop_operation_xyz
x,y,z
y,-x,-z
-x,-y,z
-y,x,-z
y,x,-z
-y,-x,-z
-x,y,z
x,-y,z
loop_
_atom_site_type_symbol
_atom_site_label
_atom_site_fract_x
_atom_site_fract_y
_atom_site_fract_z
Si Si1 0.241081 0.603224 0.233889
Si Si2 0.778035 0.900914 0.422176
Si Si3 0.597226 0.276726 0.305971
Si Si4 0.101608 0.605591 0.036184
Si Si5 0.896918 0.670714 0.788637
Si Si6 0.835507 0.400095 0.483888
O O1 0.267805 0.500000 0.220823
O O2 0.326016 0.665317 0.250351
O O3 0.175773 0.626032 0.129999
O O4 0.186850 0.610069 0.351751
O O5 0.834900 0.834900 0.500000
O O6 0.758977 0.878289 0.288305
O O7 0.678934 0.896975 0.474118
O O8 0.814661 0.000000 0.428670
O O9 0.500000 0.315339 0.287059
O O10 0.603398 0.177831 0.253983
O O11 0.609031 0.254562 0.440255
O O12 0.110561 0.500000 0.004979
O O13 0.000000 0.615538 0.079286
O O14 0.111395 0.667472 0.925013
O O15 0.000000 0.647140 0.764794
O O16 0.869362 0.500000 0.503483
#
# Coordination Sequence:
#
# PCOD9556597 Si02
#       6
#     8   8   8   8   8   8
#     4  10  20  33  49  72 106 144 179 217 263 317
#     4  10  20  34  54  80 110 141 172 210 258 316
#     4  10  19  31  50  74 102 139 179 219 265 316
#     4   9  18  33  53  77 104 135 176 226 275 320
#     4   9  18  34  55  75  96 127 170 219 266 308
#     4   9  18  33  52  74 102 136 176 225 277 320
#
# _framework density 18.036701000000001
#
# number of rings (size 3 to 8) (size 9 to 14) (size 15 to 20)
#    0.000    2.500    0.000    3.000    0.000    3.833 
#    0.000    6.667    0.000    3.000    0.000    2.333 
#    0.000    1.333    0.000    0.333    0.000    0.000 
#
# Total GULP energy -267205.000892 kJ/mol
# GULP energy per Si atom -5566.770852 kJ/mol
# Density = 1.799565 g / cm^3
# Si number density = 18.036701 Si / 1000 Ang^3
#
#
#
# Elastic Constant Matrix: (Units=GPa)
#
#
# Indices 1 2 3 4 5 6 
#
# 1 55.5423 30.0275 54.0790 0.0000 0.0000 0.0000
# 2 30.0275 55.5423 54.0790 0.0000 0.0000 0.0000
# 3 54.0790 54.0790 123.9758 0.0000 0.0000 0.0000
# 4 0.0000 0.0000 0.0000 26.1168 0.0000 0.0000
# 5 0.0000 0.0000 0.0000 0.0000 26.1168 0.0000
# 6 0.0000 0.0000 0.0000 0.0000 0.0000 12.1560
#
#
#
# Elastic Compliance Matrix: (Units=1/GPa)
#
#
# Indices 1 2 3 4 5 6 
#
# 1 0.032620 -0.006572 -0.011362 0.000000 0.000000 0.000000
# 2 -0.006572 0.032620 -0.011362 0.000000 0.000000 0.000000
# 3 -0.011362 -0.011362 0.017979 0.000000 0.000000 0.000000
# 4 0.000000 0.000000 0.000000 0.038290 0.000000 0.000000
# 5 0.000000 0.000000 0.000000 0.000000 0.038290 0.000000
# 6 0.000000 0.000000 0.000000 0.000000 0.000000 0.082264
#
#
# Mechanical properties :
#
#
# Convention : Reuss Voigt Hill
#
# Bulk Modulus (GPa) = 40.60829 56.82569 48.71699
# Shear Modulus (GPa) = 16.18833 19.33627 17.76230
#
# Velocity S-wave (km/s) = 2.99912 3.27777 3.14154
# Velocity P-wave (km/s) = 5.87844 6.77488 6.34252
#
# Compressibility (1/GPa) = 0.02462551
#
# Stress axis : x y z
#
# Youngs Moduli (GPa) = 30.65568 30.65568 55.62150
#
# Poissons Ratio (x) = 0.20148 0.63199
# Poissons Ratio (y) = 0.20148 0.63199
# Poissons Ratio (z) = 0.34832 0.34832
#
# Static dielectric constant tensor:
#      x y z
#    x 1.618350 0.000000 0.000000 
#    y 0.000000 1.618350 0.000000 
#    z 0.000000 0.000000 1.662310 
# 
# From -- ./inp_files/2931.got.cif
#   From: 2010.05.17/outbox.cif.g08.bks.cpg/sg115_2_cif.got.tgz:2931.got - 2010.05.20 11:07:42.
