data_PCOD9556364
_publ_section_title
;
Structure prediction by ZEFSAII (Michael W. Deem and Ramdas Pophale) SiO2 
 PCOD9556364
Probable space group: P -4 21 C
;
_chemical_formula_sum "Si O2"
_cell_formula_units_Z 42
_cell_length_a 14.207716
_cell_length_b 14.207716
_cell_length_c 9.387962
_cell_angle_alpha 90.000000
_cell_angle_beta 90.000000
_cell_angle_gamma 90.000000
_cell_volume 1895.046442
_symmetry_space_group_name_H-M "P -4 21 C"
_symmetry_group_IT_number 114
_symmetry_cell_setting 'tetragonal'
loop_
_space_group_symop_operation_xyz
x,y,z
y,-x,-z
-x,-y,z
-y,x,-z
1/2+x,1/2-y,1/2-z
1/2-x,1/2+y,1/2-z
1/2-y,1/2-x,1/2+z
1/2+y,1/2+x,1/2+z
loop_
_atom_site_type_symbol
_atom_site_label
_atom_site_fract_x
_atom_site_fract_y
_atom_site_fract_z
Si Si1 0.000000 0.000000 0.000000
Si Si2 0.692973 0.757531 0.867779
Si Si3 0.803673 0.606342 0.492307
Si Si4 0.925279 0.576781 0.250695
Si Si5 0.571699 0.768111 0.151899
Si Si6 0.853539 0.066207 0.798182
O O1 0.948156 0.067517 0.888605
O O2 0.704100 0.847738 0.765927
O O3 0.663904 0.664823 0.779307
O O4 0.796487 0.735364 0.930886
O O5 0.619940 0.770804 0.997448
O O6 0.850260 0.545331 0.367704
O O7 0.880394 0.625952 0.614825
O O8 0.723941 0.552849 0.577941
O O9 0.000000 0.500000 0.204402
O O10 0.986728 0.657583 0.329116
O O11 0.521312 0.668457 0.192428
#
# Coordination Sequence:
#
# PCOD9556364 Si02
#       6
#     2   8   8   8   8   8
#     4  12  28  48  70 104 140 192 246 296 344 452
#     4  12  23  45  72 100 141 188 230 297 350 436
#     4  11  21  45  64  96 138 179 225 283 359 416
#     4  11  25  39  67 103 141 176 229 293 351 420
#     4  11  26  42  70 105 138 183 241 280 368 423
#     4  11  26  46  69 101 139 188 240 286 361 422
#
# _framework density 22.163046000000001
#
# number of rings (size 3 to 8) (size 9 to 14) (size 15 to 20)
#    0.000    0.762    5.714    1.714    8.000    1.524 
#    0.000    0.000    0.000    0.000    0.000    0.000 
#    0.000    0.000    0.000    0.000    0.000    0.000 
#
# Total GULP energy -234733.331009 kJ/mol
# GULP energy per Si atom -5588.888834 kJ/mol
# Density = 2.211260 g / cm^3
# Si number density = 22.163046 Si / 1000 Ang^3
#
#
#
# Elastic Constant Matrix: (Units=GPa)
#
#
# Indices 1 2 3 4 5 6 
#
# 1 50.9769 -1.1117 21.6444 0.0000 0.0000 0.0000
# 2 -1.1117 50.9769 21.6444 0.0000 0.0000 0.0000
# 3 21.6444 21.6444 97.0715 0.0000 0.0000 0.0000
# 4 0.0000 0.0000 0.0000 24.7969 0.0000 0.0000
# 5 0.0000 0.0000 0.0000 0.0000 24.7969 0.0000
# 6 0.0000 0.0000 0.0000 0.0000 0.0000 18.6730
#
#
#
# Elastic Compliance Matrix: (Units=1/GPa)
#
#
# Indices 1 2 3 4 5 6 
#
# 1 0.022033 0.002835 -0.005545 0.000000 0.000000 0.000000
# 2 0.002835 0.022033 -0.005545 0.000000 0.000000 0.000000
# 3 -0.005545 -0.005545 0.012774 0.000000 0.000000 0.000000
# 4 0.000000 0.000000 0.000000 0.040328 0.000000 0.000000
# 5 0.000000 0.000000 0.000000 0.000000 0.040328 0.000000
# 6 0.000000 0.000000 0.000000 0.000000 0.000000 0.053553
#
#
# Mechanical properties :
#
#
# Convention : Reuss Voigt Hill
#
# Bulk Modulus (GPa) = 24.79525 31.48659 28.14092
# Shear Modulus (GPa) = 22.62426 24.10991 23.36708
#
# Velocity S-wave (km/s) = 3.19848 3.30182 3.25056
# Velocity P-wave (km/s) = 4.98521 5.36411 5.17813
#
# Compressibility (1/GPa) = 0.04033031
#
# Stress axis : x y z
#
# Youngs Moduli (GPa) = 45.38683 45.38683 78.28168
#
# Poissons Ratio (x) = -0.12866 0.43406
# Poissons Ratio (y) = -0.12866 0.43406
# Poissons Ratio (z) = 0.25166 0.25166
#
# Static dielectric constant tensor:
#      x y z
#    x 1.834390 0.000000 0.000000 
#    y 0.000000 1.834390 0.000000 
#    z 0.000000 0.000000 1.805680 
# 
# From -- ./inp_files/807.got.cif
#   From: 2010.05.17/outbox.cif.g08.bks.cpg/sg114_1_cif.got.tgz:807.got - 2010.05.20 11:04:54.
