data_PCOD9556050
_publ_section_title
;
Structure prediction by ZEFSAII (Michael W. Deem and Ramdas Pophale) SiO2 
 PCOD9556050
Probable space group: P -4 21 C
;
_chemical_formula_sum "Si O2"
_cell_formula_units_Z 48
_cell_length_a 8.855475
_cell_length_b 8.855475
_cell_length_c 27.120115
_cell_angle_alpha 90.000000
_cell_angle_beta 90.000000
_cell_angle_gamma 90.000000
_cell_volume 2126.744163
_symmetry_space_group_name_H-M "P -4 21 C"
_symmetry_group_IT_number 114
_symmetry_cell_setting 'tetragonal'
loop_
_space_group_symop_operation_xyz
x,y,z
y,-x,-z
-x,-y,z
-y,x,-z
1/2+x,1/2-y,1/2-z
1/2-x,1/2+y,1/2-z
1/2-y,1/2-x,1/2+z
1/2+y,1/2+x,1/2+z
loop_
_atom_site_type_symbol
_atom_site_label
_atom_site_fract_x
_atom_site_fract_y
_atom_site_fract_z
Si Si1 0.312218 0.322573 0.313071
Si Si2 0.282105 0.900420 0.545877
Si Si3 0.109643 0.645106 0.779527
Si Si4 0.000000 0.500000 0.040037
Si Si5 0.923576 0.196647 0.083518
Si Si6 0.000000 0.000000 0.500000
Si Si7 0.500000 0.500000 0.500000
Si Si8 0.997029 0.184480 0.355818
O O1 0.355949 0.203257 0.271037
O O2 0.277648 0.488339 0.290140
O O3 0.427883 0.338088 0.358816
O O4 0.158310 0.247067 0.335607
O O5 0.348669 0.743936 0.565445
O O6 0.266185 0.017650 0.590915
O O7 0.374601 0.945802 0.498499
O O8 0.107275 0.890712 0.530667
O O9 0.239767 0.628228 0.820963
O O10 0.000000 0.500000 0.781188
O O11 0.061591 0.627367 0.075651
O O12 0.031588 0.128681 0.040860
O O13 0.000000 0.000000 0.357422
#
# Coordination Sequence:
#
# PCOD9556050 Si02
#       8
#     8   8   8   4   8   2   2   8
#     4  10  23  43  64  98 131 175 230 287 352 432
#     4  11  23  38  64  96 128 168 224 273 343 401
#     4  10  22  42  67  94 132 173 225 293 356 421
#     4  12  24  40  68  92 136 186 216 298 336 414
#     4  11  25  42  65  96 136 176 232 274 352 417
#     4  12  20  40  60 102 124 164 220 280 316 394
#     4  12  24  48  60  94 140 188 220 288 336 434
#     4  10  21  38  65  94 129 171 221 283 346 419
#
# _framework density 22.569707999999999
#
# number of rings (size 3 to 8) (size 9 to 14) (size 15 to 20)
#    0.000    1.333    4.167    1.000    7.000    0.000 
#    7.500    3.333    0.000    0.000    0.000    0.000 
#    0.000    0.000    0.000    0.000    0.000    0.000 
#
# Total GULP energy -267516.624938 kJ/mol
# GULP energy per Si atom -5573.263020 kJ/mol
# Density = 2.251834 g / cm^3
# Si number density = 22.569708 Si / 1000 Ang^3
#
#
#
# Elastic Constant Matrix: (Units=GPa)
#
#
# Indices 1 2 3 4 5 6 
#
# 1 68.9209 25.5096 37.8259 0.0000 0.0000 0.0000
# 2 25.5096 68.9209 37.8259 0.0000 0.0000 0.0000
# 3 37.8259 37.8259 153.2285 0.0000 0.0000 0.0000
# 4 0.0000 0.0000 0.0000 24.8554 0.0000 0.0000
# 5 0.0000 0.0000 0.0000 0.0000 24.8554 0.0000
# 6 0.0000 0.0000 0.0000 0.0000 0.0000 21.3843
#
#
#
# Elastic Compliance Matrix: (Units=1/GPa)
#
#
# Indices 1 2 3 4 5 6 
#
# 1 0.018118 -0.004918 -0.003259 0.000000 0.000000 0.000000
# 2 -0.004918 0.018118 -0.003259 0.000000 0.000000 0.000000
# 3 -0.003259 -0.003259 0.008135 0.000000 0.000000 0.000000
# 4 0.000000 0.000000 0.000000 0.040233 0.000000 0.000000
# 5 0.000000 0.000000 0.000000 0.000000 0.040233 0.000000
# 6 0.000000 0.000000 0.000000 0.000000 0.000000 0.046763
#
#
# Mechanical properties :
#
#
# Convention : Reuss Voigt Hill
#
# Bulk Modulus (GPa) = 46.50881 54.82146 50.66513
# Shear Modulus (GPa) = 24.79713 26.87963 25.83838
#
# Velocity S-wave (km/s) = 3.31825 3.45477 3.38720
# Velocity P-wave (km/s) = 5.94411 6.34480 6.14772
#
# Compressibility (1/GPa) = 0.02150130
#
# Stress axis : x y z
#
# Youngs Moduli (GPa) = 55.19388 55.19388 122.92473
#
# Poissons Ratio (x) = 0.27142 0.40057
# Poissons Ratio (y) = 0.27142 0.40057
# Poissons Ratio (z) = 0.17986 0.17986
#
# Static dielectric constant tensor:
#      x y z
#    x 1.905320 0.000000 0.000000 
#    y 0.000000 1.905320 0.000000 
#    z 0.000000 0.000000 1.900090 
# 
# From -- ./inp_files/4050.got.cif
#   From: 2010.05.17/outbox.cif.g08.bks.cpg/sg114_3_cif.got.tgz:4050.got - 2010.05.20 11:04:54.
