data_PCOD9556777
_publ_section_title
;
Structure prediction by ZEFSAII (Michael W. Deem and Ramdas Pophale) SiO2 
 PCOD9556777
Probable space group: P -4 M 2
;
_chemical_formula_sum "Si O2"
_cell_formula_units_Z 48
_cell_length_a 9.236589
_cell_length_b 9.236589
_cell_length_c 32.303302
_cell_angle_alpha 90.000000
_cell_angle_beta 90.000000
_cell_angle_gamma 90.000000
_cell_volume 2755.942525
_symmetry_space_group_name_H-M "P -4 M 2"
_symmetry_group_IT_number 115
_symmetry_cell_setting 'tetragonal'
loop_
_space_group_symop_operation_xyz
x,y,z
y,-x,-z
-x,-y,z
-y,x,-z
y,x,-z
-y,-x,-z
-x,y,z
x,-y,z
loop_
_atom_site_type_symbol
_atom_site_label
_atom_site_fract_x
_atom_site_fract_y
_atom_site_fract_z
Si Si1 0.332673 0.676392 0.212012
Si Si2 0.326455 0.170691 0.037935
Si Si3 0.826326 0.670565 0.295114
Si Si4 0.823676 0.833576 0.377935
Si Si5 0.826560 0.328526 0.461926
Si Si6 0.323624 0.332607 0.121132
O O1 0.500000 0.720946 0.216500
O O2 0.330532 0.500000 0.210829
O O3 0.243358 0.721625 0.252113
O O4 0.276660 0.721454 0.166597
O O5 0.500000 0.192913 0.034326
O O6 0.279404 0.238978 0.081798
O O7 0.298216 0.000000 0.037318
O O8 0.248849 0.248849 0.000000
O O9 0.792001 0.500000 0.300660
O O10 0.776168 0.758365 0.335341
O O11 0.000000 0.682634 0.292186
O O12 0.780737 0.744927 0.418684
O O13 0.000000 0.832062 0.377273
O O14 0.776689 0.000000 0.380468
O O15 0.745123 0.254878 0.500000
O O16 0.800312 0.500000 0.460585
O O17 0.000000 0.306012 0.466629
O O18 0.500000 0.332266 0.122683
O O19 0.278677 0.500000 0.115518
#
# Coordination Sequence:
#
# PCOD9556777 Si02
#       6
#     8   8   8   8   8   8
#     4   8  14  26  45  68  93 122 155 190 232 281
#     4  10  20  33  50  72  96 124 159 198 242 292
#     4   9  16  27  45  69  95 122 155 196 237 276
#     4   9  17  30  49  71  95 126 163 199 235 280
#     4  10  20  34  53  76 100 127 161 201 245 293
#     4   8  14  27  48  70  91 119 157 198 236 279
#
# _framework density 17.416910000000001
#
# number of rings (size 3 to 8) (size 9 to 14) (size 15 to 20)
#    0.000    3.000    0.000    2.500    0.000    4.000 
#    0.000    2.500    0.000    7.500    0.000    0.000 
#    0.000    0.000    0.000    0.000    0.000    0.000 
#
# Total GULP energy -267464.837892 kJ/mol
# GULP energy per Si atom -5572.184123 kJ/mol
# Density = 1.737727 g / cm^3
# Si number density = 17.416910 Si / 1000 Ang^3
#
#
#
# Elastic Constant Matrix: (Units=GPa)
#
#
# Indices 1 2 3 4 5 6 
#
# 1 46.7075 42.2452 72.6669 0.0000 0.0000 0.0000
# 2 42.2452 46.7083 72.6666 0.0000 0.0000 0.0000
# 3 72.6669 72.6666 223.9001 0.0000 0.0000 0.0000
# 4 0.0000 0.0000 0.0000 80.1193 0.0000 0.0000
# 5 0.0000 0.0000 0.0000 0.0000 80.1159 0.0000
# 6 0.0000 0.0000 0.0000 0.0000 0.0000 13.9309
#
#
#
# Elastic Compliance Matrix: (Units=1/GPa)
#
#
# Indices 1 2 3 4 5 6 
#
# 1 0.124009 -0.100074 -0.007768 0.000000 0.000000 0.000000
# 2 -0.100074 0.124004 -0.007766 0.000000 0.000000 0.000000
# 3 -0.007768 -0.007766 0.009508 0.000000 0.000000 0.000000
# 4 0.000000 0.000000 0.000000 0.012481 0.000000 0.000000
# 5 0.000000 0.000000 0.000000 0.000000 0.012482 0.000000
# 6 0.000000 0.000000 0.000000 0.000000 0.000000 0.071783
#
#
# Mechanical properties :
#
#
# Convention : Reuss Voigt Hill
#
# Bulk Modulus (GPa) = 38.01790 76.94145 57.47968
# Shear Modulus (GPa) = 8.41395 43.48236 25.94815
#
# Velocity S-wave (km/s) = 2.20032 5.00198 3.86401
# Velocity P-wave (km/s) = 5.32266 8.81090 7.27883
#
# Compressibility (1/GPa) = 0.02630340
#
# Stress axis : x y z
#
# Youngs Moduli (GPa) = 8.06393 8.06429 105.17556
#
# Poissons Ratio (x) = 0.80703 0.81702
# Poissons Ratio (y) = 0.80699 0.81680
# Poissons Ratio (z) = 0.06264 0.06263
#
# Static dielectric constant tensor:
#      x y z
#    x 1.582890 0.000000 0.000000 
#    y 0.000000 1.582890 0.000000 
#    z 0.000000 0.000000 1.592410 
# 
# From -- ./inp_files/6113.got.cif
#   From: 2010.05.17/outbox.cif.g08.bks.cpg/sg115_4_cif.got.tgz:6113.got - 2010.05.20 11:07:42.
