data_PCOD9556903
_publ_section_title
;
Structure prediction by ZEFSAII (Michael W. Deem and Ramdas Pophale) SiO2 
 PCOD9556903
Probable space group: P -4 M 2
;
_chemical_formula_sum "Si O2"
_cell_formula_units_Z 44
_cell_length_a 9.129459
_cell_length_b 9.129459
_cell_length_c 29.710742
_cell_angle_alpha 90.000000
_cell_angle_beta 90.000000
_cell_angle_gamma 90.000000
_cell_volume 2476.301856
_symmetry_space_group_name_H-M "P -4 M 2"
_symmetry_group_IT_number 115
_symmetry_cell_setting 'tetragonal'
loop_
_space_group_symop_operation_xyz
x,y,z
y,-x,-z
-x,-y,z
-y,x,-z
y,x,-z
-y,-x,-z
-x,y,z
x,-y,z
loop_
_atom_site_type_symbol
_atom_site_label
_atom_site_fract_x
_atom_site_fract_y
_atom_site_fract_z
Si Si1 0.325868 0.825564 0.957341
Si Si2 0.321778 0.329501 0.218740
Si Si3 0.174958 0.673771 0.591536
Si Si4 0.174332 0.174332 0.500000
Si Si5 0.326940 0.323040 0.682042
Si Si6 0.172887 0.676105 0.872685
O O1 0.500000 0.799161 0.959015
O O2 0.258773 0.756652 0.912241
O O3 0.301313 0.000000 0.958343
O O4 0.249014 0.750987 0.000000
O O5 0.500000 0.326932 0.219733
O O6 0.279389 0.500000 0.212797
O O7 0.271391 0.278128 0.268311
O O8 0.276921 0.234191 0.176070
O O9 0.204602 0.500000 0.588097
O O10 0.227319 0.750219 0.545822
O O11 0.246003 0.731820 0.637606
O O12 0.000000 0.693296 0.594569
O O13 0.000000 0.199114 0.496438
O O14 0.500000 0.294166 0.678621
O O15 0.308177 0.500000 0.682055
O O16 0.194803 0.500000 0.876871
O O17 0.000000 0.704465 0.876105
#
# Coordination Sequence:
#
# PCOD9556903 Si02
#       6
#     8   8   8   4   8   8
#     4  11  24  40  58  80 105 135 171 209 251 299
#     4   8  14  26  45  69  98 131 164 199 240 285
#     4   9  17  28  43  64  87 111 145 191 236 276
#     4   9  18  32  46  59  82 118 152 181 224 286
#     4   8  14  25  42  66  95 124 154 191 237 284
#     4  10  20  33  52  80 109 136 170 209 248 293
#
# _framework density 17.768431
#
# number of rings (size 3 to 8) (size 9 to 14) (size 15 to 20)
#    0.000    2.818    0.000    2.727    0.000    6.182 
#    0.000    3.636    0.000    1.091    0.000    5.091 
#    0.000    0.000    0.000    0.000    0.000    0.000 
#
# Total GULP energy -245230.764560 kJ/mol
# GULP energy per Si atom -5573.426467 kJ/mol
# Density = 1.772799 g / cm^3
# Si number density = 17.768431 Si / 1000 Ang^3
#
#
#
# Elastic Constant Matrix: (Units=GPa)
#
#
# Indices 1 2 3 4 5 6 
#
# 1 43.0436 49.7510 71.4413 0.0000 0.0000 0.0000
# 2 49.7510 43.0425 71.4407 0.0000 0.0000 0.0000
# 3 71.4413 71.4407 220.2528 0.0000 0.0000 0.0000
# 4 0.0000 0.0000 0.0000 -47.3701 0.0000 0.0000
# 5 0.0000 0.0000 0.0000 0.0000 -47.3653 0.0000
# 6 0.0000 0.0000 0.0000 0.0000 0.0000 15.8480
#
#
#
# Elastic Compliance Matrix: (Units=1/GPa)
#
#
# Indices 1 2 3 4 5 6 
#
# 1 -0.063773 0.085303 -0.006983 0.000000 0.000000 0.000000
# 2 0.085303 -0.063775 -0.006983 0.000000 0.000000 0.000000
# 3 -0.006983 -0.006983 0.009070 0.000000 0.000000 0.000000
# 4 0.000000 0.000000 0.000000 -0.021110 0.000000 0.000000
# 5 0.000000 0.000000 0.000000 0.000000 -0.021113 0.000000
# 6 0.000000 0.000000 0.000000 0.000000 0.000000 0.063099
#
#
# Mechanical properties :
#
#
# Convention : Reuss Voigt Hill
#
# Bulk Modulus (GPa) = 41.32953 76.84501 59.08727
# Shear Modulus (GPa) = -21.53234 -8.19706 -14.86470
#
# Velocity S-wave (km/s) = -3.48491 -2.15018 -2.89551
# Velocity P-wave (km/s) = 2.66791 6.09734 4.70613
#
# Compressibility (1/GPa) = 0.02419578
#
# Stress axis : x y z
#
# Youngs Moduli (GPa) = -15.68071 -15.68013 110.24985
#
# Poissons Ratio (x) = 1.33756 0.76991
# Poissons Ratio (y) = 1.33761 0.76987
# Poissons Ratio (z) = -0.10950 -0.10949
#
# Static dielectric constant tensor:
#      x y z
#    x 1.593160 0.000000 0.000000 
#    y 0.000000 1.593160 0.000000 
#    z 0.000000 0.000000 1.617420 
# 
# From -- ./inp_files/5802.got.cif
#   From: 2010.05.17/outbox.cif.g08.bks.cpg/sg115_3_cif.got.tgz:5802.got - 2010.05.20 11:07:42.
