data_PCOD9556373
_publ_section_title
;
Structure prediction by ZEFSAII (Michael W. Deem and Ramdas Pophale) SiO2 
 PCOD9556373
Probable space group: P -4 21 C
;
_chemical_formula_sum "Si O2"
_cell_formula_units_Z 40
_cell_length_a 16.209908
_cell_length_b 16.209908
_cell_length_c 7.113047
_cell_angle_alpha 90.000000
_cell_angle_beta 90.000000
_cell_angle_gamma 90.000000
_cell_volume 1869.032178
_symmetry_space_group_name_H-M "P -4 21 C"
_symmetry_group_IT_number 114
_symmetry_cell_setting 'tetragonal'
loop_
_space_group_symop_operation_xyz
x,y,z
y,-x,-z
-x,-y,z
-y,x,-z
1/2+x,1/2-y,1/2-z
1/2-x,1/2+y,1/2-z
1/2-y,1/2-x,1/2+z
1/2+y,1/2+x,1/2+z
loop_
_atom_site_type_symbol
_atom_site_label
_atom_site_fract_x
_atom_site_fract_y
_atom_site_fract_z
Si Si1 0.623413 0.966019 0.697243
Si Si2 0.036924 0.372672 0.711968
Si Si3 0.918847 0.209863 0.181474
Si Si4 0.298536 0.434963 0.392632
Si Si5 0.624004 0.471144 0.040541
O O1 0.650016 0.000770 0.493065
O O2 0.599214 0.050471 0.805034
O O3 0.691727 0.912017 0.803822
O O4 0.588645 0.958536 0.179645
O O5 0.075642 0.294899 0.818237
O O6 0.924052 0.183153 0.399330
O O7 0.849108 0.150748 0.091615
O O8 0.005641 0.197513 0.072942
O O9 0.340090 0.489383 0.226770
O O10 0.546906 0.412714 0.080843
#
# Coordination Sequence:
#
# PCOD9556373 Si02
#       5
#     8   8   8   8   8
#     4  11  22  42  68  94 129 172 219 270 330 398
#     4  11  22  42  68  94 129 172 219 270 330 398
#     4  11  22  39  63  95 130 168 216 267 322 387
#     4  11  22  39  63  95 130 168 216 267 322 387
#     4   9  18  34  56  83 120 164 206 251 310 380
#
# _framework density 21.401449
#
# number of rings (size 3 to 8) (size 9 to 14) (size 15 to 20)
#    0.000    1.400    2.000    6.000    0.000    2.000 
#    0.000   10.000    0.000    0.000    0.000    0.000 
#    0.000    0.000    0.000    0.000    0.000    0.000 
#
# Total GULP energy -223177.111360 kJ/mol
# GULP energy per Si atom -5579.427784 kJ/mol
# Density = 2.135274 g / cm^3
# Si number density = 21.401449 Si / 1000 Ang^3
#
#
#
# Elastic Constant Matrix: (Units=GPa)
#
#
# Indices 1 2 3 4 5 6 
#
# 1 96.9474 36.1854 7.6747 0.0000 0.0000 0.0000
# 2 36.1854 96.9474 7.6747 0.0000 0.0000 0.0000
# 3 7.6747 7.6747 58.3094 0.0000 0.0000 0.0000
# 4 0.0000 0.0000 0.0000 31.1945 0.0000 0.0000
# 5 0.0000 0.0000 0.0000 0.0000 31.1945 0.0000
# 6 0.0000 0.0000 0.0000 0.0000 0.0000 22.1722
#
#
#
# Elastic Compliance Matrix: (Units=1/GPa)
#
#
# Indices 1 2 3 4 5 6 
#
# 1 0.012042 -0.004415 -0.001004 0.000000 0.000000 0.000000
# 2 -0.004415 0.012042 -0.001004 0.000000 0.000000 0.000000
# 3 -0.001004 -0.001004 0.017414 0.000000 0.000000 0.000000
# 4 0.000000 0.000000 0.000000 0.032057 0.000000 0.000000
# 5 0.000000 0.000000 0.000000 0.000000 0.032057 0.000000
# 6 0.000000 0.000000 0.000000 0.000000 0.000000 0.045101
#
#
# Mechanical properties :
#
#
# Convention : Reuss Voigt Hill
#
# Bulk Modulus (GPa) = 34.90065 39.47485 37.18775
# Shear Modulus (GPa) = 28.88319 30.29023 29.58671
#
# Velocity S-wave (km/s) = 3.67766 3.76618 3.72218
# Velocity P-wave (km/s) = 5.86316 6.11532 5.99056
#
# Compressibility (1/GPa) = 0.02865276
#
# Stress axis : x y z
#
# Youngs Moduli (GPa) = 83.04033 83.04033 57.42454
#
# Poissons Ratio (x) = 0.36665 0.05765
# Poissons Ratio (y) = 0.36665 0.05765
# Poissons Ratio (z) = 0.08336 0.08336
#
# Static dielectric constant tensor:
#      x y z
#    x 1.788010 0.000000 0.000000 
#    y 0.000000 1.788010 0.000000 
#    z 0.000000 0.000000 1.808400 
# 
# From -- ./inp_files/193.got.cif
#   From: 2010.05.17/outbox.cif.g08.bks.cpg/sg114_1_cif.got.tgz:193.got - 2010.05.20 11:04:54.
