data_PCOD9556773
_publ_section_title
;
Structure prediction by ZEFSAII (Michael W. Deem and Ramdas Pophale) SiO2 
 PCOD9556773
Probable space group: P -4 M 2
;
_chemical_formula_sum "Si O2"
_cell_formula_units_Z 44
_cell_length_a 7.982691
_cell_length_b 7.982691
_cell_length_c 33.603929
_cell_angle_alpha 90.000000
_cell_angle_beta 90.000000
_cell_angle_gamma 90.000000
_cell_volume 2141.355117
_symmetry_space_group_name_H-M "P -4 M 2"
_symmetry_group_IT_number 115
_symmetry_cell_setting 'tetragonal'
loop_
_space_group_symop_operation_xyz
x,y,z
y,-x,-z
-x,-y,z
-y,x,-z
y,x,-z
-y,-x,-z
-x,y,z
x,-y,z
loop_
_atom_site_type_symbol
_atom_site_label
_atom_site_fract_x
_atom_site_fract_y
_atom_site_fract_z
Si Si1 0.202054 0.500000 0.729869
Si Si2 0.299900 0.299900 0.500000
Si Si3 0.184606 0.704790 0.413456
Si Si4 0.806339 0.200360 0.127803
Si Si5 0.702310 0.500000 0.637978
Si Si6 0.692075 0.800814 0.956687
Si Si7 0.804461 0.795225 0.215388
O O1 0.249373 0.500000 0.683860
O O2 0.261634 0.668948 0.752281
O O3 0.000000 0.500000 0.732789
O O4 0.273845 0.500000 0.504460
O O5 0.243419 0.215449 0.540866
O O6 0.189499 0.500000 0.413765
O O7 0.334652 0.762542 0.385273
O O8 0.000000 0.756683 0.400052
O O9 0.726858 0.243476 0.085166
O O10 0.742088 0.256120 0.170994
O O11 0.000000 0.260586 0.127693
O O12 0.809582 0.000000 0.128906
O O13 0.500000 0.500000 0.635509
O O14 0.500000 0.753998 0.958966
O O15 0.712154 0.000000 0.952511
O O16 0.763736 0.763736 0.000000
O O17 0.000000 0.743424 0.221113
O O18 0.807013 0.000000 0.216092
#
# Coordination Sequence:
#
# PCOD9556773 Si02
#       7
#     4   4   8   8   4   8   8
#     4  10  20  34  54  78 102 134 176 220 268 324
#     4   9  14  26  50  75  98 130 172 221 270 315
#     4   9  17  30  51  78 105 141 185 223 267 322
#     4   8  14  28  51  73  93 121 159 207 257 303
#     4  10  20  36  52  74 108 146 182 224 266 322
#     4  10  20  33  49  71 100 135 171 206 250 309
#     4   8  15  30  52  77 102 128 166 219 273 321
#
# _framework density 20.547734999999999
#
# number of rings (size 3 to 8) (size 9 to 14) (size 15 to 20)
#    0.000    3.000    0.909    1.636    0.000    1.818 
#    1.636    1.818    0.000    2.455    0.000    0.000 
#    0.000    0.000    0.000    0.000    0.000    0.000 
#
# Total GULP energy -245090.626080 kJ/mol
# GULP energy per Si atom -5570.241502 kJ/mol
# Density = 2.050097 g / cm^3
# Si number density = 20.547735 Si / 1000 Ang^3
#
#
#
# Elastic Constant Matrix: (Units=GPa)
#
#
# Indices 1 2 3 4 5 6 
#
# 1 67.5478 10.2012 56.8118 0.0000 0.0000 0.0000
# 2 10.2012 67.5478 56.8118 0.0000 0.0000 0.0000
# 3 56.8118 56.8118 211.0807 0.0000 0.0000 0.0000
# 4 0.0000 0.0000 0.0000 14.7689 0.0000 0.0000
# 5 0.0000 0.0000 0.0000 0.0000 14.7689 0.0000
# 6 0.0000 0.0000 0.0000 0.0000 0.0000 2.0752
#
#
#
# Elastic Compliance Matrix: (Units=1/GPa)
#
#
# Indices 1 2 3 4 5 6 
#
# 1 0.019319 0.001882 -0.005706 0.000000 0.000000 0.000000
# 2 0.001882 0.019319 -0.005706 0.000000 0.000000 0.000000
# 3 -0.005706 -0.005706 0.007809 0.000000 0.000000 0.000000
# 4 0.000000 0.000000 0.000000 0.067710 0.000000 0.000000
# 5 0.000000 0.000000 0.000000 0.000000 0.067710 0.000000
# 6 0.000000 0.000000 0.000000 0.000000 0.000000 0.481873
#
#
# Mechanical properties :
#
#
# Convention : Reuss Voigt Hill
#
# Bulk Modulus (GPa) = 36.51443 65.98065 51.24754
# Shear Modulus (GPa) = 7.22616 21.14605 14.18610
#
# Velocity S-wave (km/s) = 1.87734 3.21147 2.63039
# Velocity P-wave (km/s) = 4.74429 6.77731 5.84980
#
# Compressibility (1/GPa) = 0.02738643
#
# Stress axis : x y z
#
# Youngs Moduli (GPa) = 51.76131 51.76131 128.05489
#
# Poissons Ratio (x) = -0.09740 0.73071
# Poissons Ratio (y) = -0.09740 0.73071
# Poissons Ratio (z) = 0.29536 0.29536
#
# Static dielectric constant tensor:
#      x y z
#    x 1.743650 0.000000 0.000000 
#    y 0.000000 1.743650 0.000000 
#    z 0.000000 0.000000 1.769130 
# 
# From -- ./inp_files/5863.got.cif
#   From: 2010.05.17/outbox.cif.g08.bks.cpg/sg115_3_cif.got.tgz:5863.got - 2010.05.20 11:07:42.
