data_PCOD9556934
_publ_section_title
;
Structure prediction by ZEFSAII (Michael W. Deem and Ramdas Pophale) SiO2 
 PCOD9556934
Probable space group: P -4 M 2
;
_chemical_formula_sum "Si O2"
_cell_formula_units_Z 40
_cell_length_a 9.175834
_cell_length_b 9.175834
_cell_length_c 26.722214
_cell_angle_alpha 90.000000
_cell_angle_beta 90.000000
_cell_angle_gamma 90.000000
_cell_volume 2249.901649
_symmetry_space_group_name_H-M "P -4 M 2"
_symmetry_group_IT_number 115
_symmetry_cell_setting 'tetragonal'
loop_
_space_group_symop_operation_xyz
x,y,z
y,-x,-z
-x,-y,z
-y,x,-z
y,x,-z
-y,-x,-z
-x,y,z
x,-y,z
loop_
_atom_site_type_symbol
_atom_site_label
_atom_site_fract_x
_atom_site_fract_y
_atom_site_fract_z
Si Si1 0.673762 0.673762 0.000000
Si Si2 0.325404 0.327546 0.796623
Si Si3 0.322558 0.832305 0.898483
Si Si4 0.177442 0.667695 0.398483
Si Si5 0.174596 0.172454 0.296623
Si Si6 0.173762 0.173762 0.500000
O O1 0.723493 0.755578 0.949939
O O2 0.696289 0.500000 0.993637
O O3 0.500000 0.304706 0.791445
O O4 0.298949 0.500000 0.798300
O O5 0.277744 0.253957 0.848778
O O6 0.245403 0.254597 0.750000
O O7 0.500000 0.829826 0.898905
O O8 0.275743 0.000000 0.896316
O O9 0.224257 0.500000 0.396316
O O10 0.222256 0.753957 0.348778
O O11 0.223493 0.744422 0.449939
O O12 0.000000 0.670174 0.398905
O O13 0.000000 0.195294 0.291445
O O14 0.201051 0.000000 0.298300
O O15 0.000000 0.196289 0.506363
#
# Coordination Sequence:
#
# PCOD9556934 Si02
#       6
#     4   8   8   8   8   4
#     4   9  16  28  48  73 100 130 166 207 248 294
#     4  10  20  34  53  77 104 135 172 213 257 305
#     4   9  17  30  50  75 101 131 168 208 251 301
#     4   9  17  30  50  75 101 131 168 208 251 301
#     4  10  20  34  53  77 104 135 172 213 257 305
#     4   9  16  28  48  73 100 130 166 207 248 294
#
# _framework density 17.778555999999998
#
# number of rings (size 3 to 8) (size 9 to 14) (size 15 to 20)
#    0.000    2.600    0.000    2.400    0.000    7.200 
#    0.000    2.000    0.000    7.800    0.000    0.000 
#    0.000    0.000    0.000    0.000    0.000    0.000 
#
# Total GULP energy -223139.914529 kJ/mol
# GULP energy per Si atom -5578.497863 kJ/mol
# Density = 1.773809 g / cm^3
# Si number density = 17.778556 Si / 1000 Ang^3
#
#
#
# Elastic Constant Matrix: (Units=GPa)
#
#
# Indices 1 2 3 4 5 6 
#
# 1 65.8080 58.4374 88.7553 0.0000 0.0000 0.0000
# 2 58.4374 65.8080 88.7553 0.0000 0.0000 0.0000
# 3 88.7553 88.7553 237.4199 0.0000 0.0000 0.0000
# 4 0.0000 0.0000 0.0000 33.0564 0.0000 0.0000
# 5 0.0000 0.0000 0.0000 0.0000 33.0564 0.0000
# 6 0.0000 0.0000 0.0000 0.0000 0.0000 16.2543
#
#
#
# Elastic Compliance Matrix: (Units=1/GPa)
#
#
# Indices 1 2 3 4 5 6 
#
# 1 0.076475 -0.059200 -0.006458 0.000000 0.000000 0.000000
# 2 -0.059200 0.076475 -0.006458 0.000000 0.000000 0.000000
# 3 -0.006458 -0.006458 0.009040 0.000000 0.000000 0.000000
# 4 0.000000 0.000000 0.000000 0.030251 0.000000 0.000000
# 5 0.000000 0.000000 0.000000 0.000000 0.030251 0.000000
# 6 0.000000 0.000000 0.000000 0.000000 0.000000 0.061522
#
#
# Mechanical properties :
#
#
# Convention : Reuss Voigt Hill
#
# Bulk Modulus (GPa) = 56.31033 93.43689 74.87361
# Shear Modulus (GPa) = 11.51629 25.34592 18.43110
#
# Velocity S-wave (km/s) = 2.54788 3.77987 3.22328
# Velocity P-wave (km/s) = 6.35590 8.46876 7.48724
#
# Compressibility (1/GPa) = 0.01775873
#
# Stress axis : x y z
#
# Youngs Moduli (GPa) = 13.07613 13.07613 110.61426
#
# Poissons Ratio (x) = 0.77411 0.71435
# Poissons Ratio (y) = 0.77411 0.71435
# Poissons Ratio (z) = 0.08445 0.08445
#
# Static dielectric constant tensor:
#      x y z
#    x 1.596850 0.000000 0.000000 
#    y 0.000000 1.596850 0.000000 
#    z 0.000000 0.000000 1.582280 
# 
# From -- ./inp_files/5568.got.cif
#   From: 2010.05.17/outbox.cif.g08.bks.cpg/sg115_3_cif.got.tgz:5568.got - 2010.05.20 11:07:42.
