data_PCOD9556848
_publ_section_title
;
Structure prediction by ZEFSAII (Michael W. Deem and Ramdas Pophale) SiO2 
 PCOD9556848
Probable space group: P -4 M 2
;
_chemical_formula_sum "Si O2"
_cell_formula_units_Z 44
_cell_length_a 9.299210
_cell_length_b 9.299210
_cell_length_c 29.357246
_cell_angle_alpha 90.000000
_cell_angle_beta 90.000000
_cell_angle_gamma 90.000000
_cell_volume 2538.676849
_symmetry_space_group_name_H-M "P -4 M 2"
_symmetry_group_IT_number 115
_symmetry_cell_setting 'tetragonal'
loop_
_space_group_symop_operation_xyz
x,y,z
y,-x,-z
-x,-y,z
-y,x,-z
y,x,-z
-y,-x,-z
-x,y,z
x,-y,z
loop_
_atom_site_type_symbol
_atom_site_label
_atom_site_fract_x
_atom_site_fract_y
_atom_site_fract_z
Si Si1 0.674992 0.334147 0.949735
Si Si2 0.169220 0.172002 0.315980
Si Si3 0.328948 0.328948 0.500000
Si Si4 0.168746 0.326767 0.141155
Si Si5 0.827377 0.669386 0.776502
Si Si6 0.329283 0.171181 0.591747
O O1 0.500000 0.335709 0.951124
O O2 0.721556 0.500000 0.943212
O O3 0.718393 0.237813 0.907116
O O4 0.719072 0.280929 0.000000
O O5 0.259351 0.214714 0.271648
O O6 0.217020 0.248659 0.362372
O O7 0.000000 0.205834 0.308618
O O8 0.181451 0.000000 0.321508
O O9 0.304923 0.500000 0.504820
O O10 0.279983 0.250287 0.545931
O O11 0.184377 0.500000 0.144759
O O12 0.251658 0.251741 0.182316
O O13 0.000000 0.292599 0.142712
O O14 0.795355 0.500000 0.776728
O O15 0.000000 0.687330 0.781282
O O16 0.500000 0.197336 0.596985
O O17 0.307693 0.000000 0.586476
#
# Coordination Sequence:
#
# PCOD9556848 Si02
#       6
#     8   8   4   8   8   8
#     4   8  14  27  48  71  96 129 167 206 247 289
#     4   9  18  33  51  70  95 127 160 197 244 294
#     4   9  18  32  48  67  94 126 156 189 234 284
#     4  10  20  33  51  76 104 134 168 205 247 296
#     4  10  21  36  53  74 100 131 168 208 251 299
#     4   9  18  32  49  70  96 125 158 196 237 283
#
# _framework density 17.331865000000001
#
# number of rings (size 3 to 8) (size 9 to 14) (size 15 to 20)
#    0.000    2.818    0.000    1.636    0.000    4.364 
#    0.000    2.727    0.000    3.273    0.000    0.000 
#    0.000    0.000    0.000    0.000    0.000    0.000 
#
# Total GULP energy -245326.641833 kJ/mol
# GULP energy per Si atom -5575.605496 kJ/mol
# Density = 1.729242 g / cm^3
# Si number density = 17.331865 Si / 1000 Ang^3
#
#
#
# Elastic Constant Matrix: (Units=GPa)
#
#
# Indices 1 2 3 4 5 6 
#
# 1 52.5978 43.2689 81.2761 0.0000 0.0000 0.0000
# 2 43.2689 52.5980 81.2762 0.0000 0.0000 0.0000
# 3 81.2761 81.2762 224.2752 0.0000 0.0000 0.0000
# 4 0.0000 0.0000 0.0000 53.4390 0.0000 0.0000
# 5 0.0000 0.0000 0.0000 0.0000 53.4395 0.0000
# 6 0.0000 0.0000 0.0000 0.0000 0.0000 19.6437
#
#
#
# Elastic Compliance Matrix: (Units=1/GPa)
#
#
# Indices 1 2 3 4 5 6 
#
# 1 0.067126 -0.040068 -0.009805 0.000000 0.000000 0.000000
# 2 -0.040068 0.067125 -0.009805 0.000000 0.000000 0.000000
# 3 -0.009805 -0.009805 0.011566 0.000000 0.000000 0.000000
# 4 0.000000 0.000000 0.000000 0.018713 0.000000 0.000000
# 5 0.000000 0.000000 0.000000 0.000000 0.018713 0.000000
# 6 0.000000 0.000000 0.000000 0.000000 0.000000 0.050907
#
#
# Mechanical properties :
#
#
# Convention : Reuss Voigt Hill
#
# Bulk Modulus (GPa) = 37.79496 82.34595 60.07046
# Shear Modulus (GPa) = 13.79972 33.54774 23.67373
#
# Velocity S-wave (km/s) = 2.82477 4.40433 3.69983
# Velocity P-wave (km/s) = 5.70027 8.57197 7.27914
#
# Compressibility (1/GPa) = 0.02645855
#
# Stress axis : x y z
#
# Youngs Moduli (GPa) = 14.89747 14.89755 86.46277
#
# Poissons Ratio (x) = 0.59692 0.84781
# Poissons Ratio (y) = 0.59691 0.84780
# Poissons Ratio (z) = 0.14608 0.14608
#
# Static dielectric constant tensor:
#      x y z
#    x 1.579230 0.000000 0.000000 
#    y 0.000000 1.579230 0.000000 
#    z 0.000000 0.000000 1.573180 
# 
# From -- ./inp_files/5690.got.cif
#   From: 2010.05.17/outbox.cif.g08.bks.cpg/sg115_3_cif.got.tgz:5690.got - 2010.05.20 11:07:42.
