data_PCOD9556808
_publ_section_title
;
Structure prediction by ZEFSAII (Michael W. Deem and Ramdas Pophale) SiO2 
 PCOD9556808
Probable space group: P -4 M 2
;
_chemical_formula_sum "Si O2"
_cell_formula_units_Z 40
_cell_length_a 8.994426
_cell_length_b 8.994426
_cell_length_c 27.093761
_cell_angle_alpha 90.000000
_cell_angle_beta 90.000000
_cell_angle_gamma 90.000000
_cell_volume 2191.877112
_symmetry_space_group_name_H-M "P -4 M 2"
_symmetry_group_IT_number 115
_symmetry_cell_setting 'tetragonal'
loop_
_space_group_symop_operation_xyz
x,y,z
y,-x,-z
-x,-y,z
-y,x,-z
y,x,-z
-y,-x,-z
-x,y,z
x,-y,z
loop_
_atom_site_type_symbol
_atom_site_label
_atom_site_fract_x
_atom_site_fract_y
_atom_site_fract_z
Si Si1 0.175299 0.181252 0.446923
Si Si2 0.325062 0.821431 0.761808
Si Si3 0.826791 0.818638 0.660411
Si Si4 0.323495 0.176198 0.143396
Si Si5 0.176548 0.323330 0.047875
O O1 0.235346 0.235346 0.500000
O O2 0.236053 0.227906 0.393444
O O3 0.000000 0.219281 0.447062
O O4 0.183023 0.000000 0.446939
O O5 0.500000 0.792036 0.766232
O O6 0.265732 0.773120 0.708108
O O7 0.238176 0.742719 0.805779
O O8 0.302646 0.000000 0.765636
O O9 0.000000 0.776955 0.666652
O O10 0.822838 0.000000 0.658489
O O11 0.500000 0.202239 0.141742
O O12 0.246848 0.256323 0.097293
O O13 0.296799 0.000000 0.140075
O O14 0.201851 0.500000 0.046446
O O15 0.000000 0.296751 0.047779
O O16 0.248869 0.248869 0.000000
#
# Coordination Sequence:
#
# PCOD9556808 Si02
#       5
#     8   8   8   8   8
#     4   7   9  14  27  51  83 116 152 197 248 300
#     4  10  20  33  50  74 103 135 172 213 258 310
#     4   8  13  22  38  61  90 124 161 204 255 306
#     4  11  24  40  58  81 107 137 176 219 262 309
#     4  11  24  41  62  89 118 147 180 215 252 298
#
# _framework density 18.249198
#
# number of rings (size 3 to 8) (size 9 to 14) (size 15 to 20)
#    0.000    2.600    0.000    4.800    0.000    9.200 
#    0.000    0.000    0.000    0.000    0.000    1.400 
#    0.000    8.000    0.000    0.000    0.000    0.000 
#
# Total GULP energy -223003.187088 kJ/mol
# GULP energy per Si atom -5575.079677 kJ/mol
# Density = 1.820766 g / cm^3
# Si number density = 18.249198 Si / 1000 Ang^3
#
#
#
# Elastic Constant Matrix: (Units=GPa)
#
#
# Indices 1 2 3 4 5 6 
#
# 1 56.3323 63.5312 68.0912 0.0000 0.0000 0.0000
# 2 63.5312 56.3323 68.0912 0.0000 0.0000 0.0000
# 3 68.0912 68.0912 205.7480 0.0000 0.0000 0.0000
# 4 0.0000 0.0000 0.0000 -28.1280 0.0000 0.0000
# 5 0.0000 0.0000 0.0000 0.0000 -28.1280 0.0000
# 6 0.0000 0.0000 0.0000 0.0000 0.0000 15.1760
#
#
#
# Elastic Compliance Matrix: (Units=1/GPa)
#
#
# Indices 1 2 3 4 5 6 
#
# 1 -0.062770 0.076140 -0.004425 0.000000 0.000000 0.000000
# 2 0.076140 -0.062770 -0.004425 0.000000 0.000000 0.000000
# 3 -0.004425 -0.004425 0.007789 0.000000 0.000000 0.000000
# 4 0.000000 0.000000 0.000000 -0.035552 0.000000 0.000000
# 5 0.000000 0.000000 0.000000 0.000000 -0.035552 0.000000
# 6 0.000000 0.000000 0.000000 0.000000 0.000000 0.065894
#
#
# Mechanical properties :
#
#
# Convention : Reuss Voigt Hill
#
# Bulk Modulus (GPa) = 59.41761 79.75997 69.58879
# Shear Modulus (GPa) = -19.84656 -0.30272 -10.07464
#
# Velocity S-wave (km/s) = -3.30135 -0.40773 -2.35214
# Velocity P-wave (km/s) = 4.25415 6.60146 5.55325
#
# Compressibility (1/GPa) = 0.01683003
#
# Stress axis : x y z
#
# Youngs Moduli (GPa) = -15.93112 -15.93112 128.38641
#
# Poissons Ratio (x) = 1.21300 0.56807
# Poissons Ratio (y) = 1.21300 0.56807
# Poissons Ratio (z) = -0.07049 -0.07049
#
# Static dielectric constant tensor:
#      x y z
#    x 1.606240 0.000000 0.000000 
#    y 0.000000 1.606240 0.000000 
#    z 0.000000 0.000000 1.647030 
# 
# From -- ./inp_files/5466.got.cif
#   From: 2010.05.17/outbox.cif.g08.bks.cpg/sg115_3_cif.got.tgz:5466.got - 2010.05.20 11:07:42.
