data_PCOD9556956
_publ_section_title
;
Structure prediction by ZEFSAII (Michael W. Deem and Ramdas Pophale) SiO2 
 PCOD9556956
Probable space group: P -4 M 2
;
_chemical_formula_sum "Si O2"
_cell_formula_units_Z 48
_cell_length_a 9.010172
_cell_length_b 9.010172
_cell_length_c 31.739445
_cell_angle_alpha 90.000000
_cell_angle_beta 90.000000
_cell_angle_gamma 90.000000
_cell_volume 2576.709694
_symmetry_space_group_name_H-M "P -4 M 2"
_symmetry_group_IT_number 115
_symmetry_cell_setting 'tetragonal'
loop_
_space_group_symop_operation_xyz
x,y,z
y,-x,-z
-x,-y,z
-y,x,-z
y,x,-z
-y,-x,-z
-x,y,z
x,-y,z
loop_
_atom_site_type_symbol
_atom_site_label
_atom_site_fract_x
_atom_site_fract_y
_atom_site_fract_z
Si Si1 0.676730 0.823295 0.622807
Si Si2 0.821634 0.675469 0.214375
Si Si3 0.170836 0.180646 0.872687
Si Si4 0.177495 0.675604 0.040522
Si Si5 0.676789 0.176793 0.459042
Si Si6 0.176304 0.323396 0.704436
O O1 0.500000 0.797801 0.621719
O O2 0.752511 0.747531 0.582619
O O3 0.744606 0.755247 0.665202
O O4 0.702397 0.000000 0.621752
O O5 0.792497 0.500000 0.216075
O O6 0.774482 0.741313 0.169218
O O7 0.741200 0.758055 0.252408
O O8 0.000000 0.696734 0.218454
O O9 0.246749 0.228373 0.916201
O O10 0.000000 0.228583 0.870709
O O11 0.172911 0.000000 0.873077
O O12 0.202424 0.500000 0.043412
O O13 0.000000 0.700517 0.036354
O O14 0.257013 0.742988 0.000000
O O15 0.749993 0.250008 0.500000
O O16 0.500000 0.202325 0.459383
O O17 0.702291 0.000000 0.459392
O O18 0.201005 0.500000 0.702239
O O19 0.000000 0.296041 0.702566
#
# Coordination Sequence:
#
# PCOD9556956 Si02
#       6
#     8   8   8   8   8   8
#     4  11  24  41  62  89 118 150 192 239 287 341
#     4  10  20  35  57  85 115 147 185 229 278 334
#     4   9  17  31  54  82 110 142 181 226 276 329
#     4  10  20  34  53  78 108 142 181 226 275 328
#     4  11  24  41  62  90 122 156 196 239 284 338
#     4  11  24  40  58  83 115 151 192 236 282 335
#
# _framework density 18.628406999999999
#
# number of rings (size 3 to 8) (size 9 to 14) (size 15 to 20)
#    0.000    1.667    0.000    4.500    0.000   14.000 
#    0.000    0.833    0.000    5.000    0.000    0.000 
#    0.000    0.000    0.000    0.000    0.000    0.000 
#
# Total GULP energy -268338.512399 kJ/mol
# GULP energy per Si atom -5590.385675 kJ/mol
# Density = 1.858601 g / cm^3
# Si number density = 18.628407 Si / 1000 Ang^3
#
#
#
# Elastic Constant Matrix: (Units=GPa)
#
#
# Indices 1 2 3 4 5 6 
#
# 1 105.1709 97.0626 92.4180 0.0000 0.0000 0.0000
# 2 97.0626 105.1722 92.4197 0.0000 0.0000 0.0000
# 3 92.4180 92.4197 209.5561 0.0000 0.0000 0.0000
# 4 0.0000 0.0000 0.0000 87.0805 0.0000 0.0000
# 5 0.0000 0.0000 0.0000 0.0000 87.0819 0.0000
# 6 0.0000 0.0000 0.0000 0.0000 0.0000 20.7981
#
#
#
# Elastic Compliance Matrix: (Units=1/GPa)
#
#
# Indices 1 2 3 4 5 6 
#
# 1 0.065802 -0.057518 -0.003653 0.000000 0.000000 0.000000
# 2 -0.057518 0.065802 -0.003654 0.000000 0.000000 0.000000
# 3 -0.003653 -0.003654 0.007994 0.000000 0.000000 0.000000
# 4 0.000000 0.000000 0.000000 0.011484 0.000000 0.000000
# 5 0.000000 0.000000 0.000000 0.000000 0.011483 0.000000
# 6 0.000000 0.000000 0.000000 0.000000 0.000000 0.048081
#
#
# Mechanical properties :
#
#
# Convention : Reuss Voigt Hill
#
# Bulk Modulus (GPa) = 100.51581 109.29997 104.90789
# Shear Modulus (GPa) = 14.55123 48.19201 31.37162
#
# Velocity S-wave (km/s) = 2.79790 5.09179 4.10820
# Velocity P-wave (km/s) = 8.03201 9.66280 8.88490
#
# Compressibility (1/GPa) = 0.00994868
#
# Stress axis : x y z
#
# Youngs Moduli (GPa) = 15.19708 15.19705 125.08721
#
# Poissons Ratio (x) = 0.87411 0.45692
# Poissons Ratio (y) = 0.87411 0.45705
# Poissons Ratio (z) = 0.05551 0.05553
#
# Static dielectric constant tensor:
#      x y z
#    x 1.622840 0.000000 0.000000 
#    y 0.000000 1.622830 0.000000 
#    z 0.000000 0.000000 1.602930 
# 
# From -- ./inp_files/6037.got.cif
#   From: 2010.05.17/outbox.cif.g08.bks.cpg/sg115_4_cif.got.tgz:6037.got - 2010.05.20 11:07:42.
