data_PCOD9556872
_publ_section_title
;
Structure prediction by ZEFSAII (Michael W. Deem and Ramdas Pophale) SiO2 
 PCOD9556872
Probable space group: P -4 M 2
;
_chemical_formula_sum "Si O2"
_cell_formula_units_Z 40
_cell_length_a 9.249443
_cell_length_b 9.249443
_cell_length_c 26.529157
_cell_angle_alpha 90.000000
_cell_angle_beta 90.000000
_cell_angle_gamma 90.000000
_cell_volume 2269.627634
_symmetry_space_group_name_H-M "P -4 M 2"
_symmetry_group_IT_number 115
_symmetry_cell_setting 'tetragonal'
loop_
_space_group_symop_operation_xyz
x,y,z
y,-x,-z
-x,-y,z
-y,x,-z
y,x,-z
-y,-x,-z
-x,y,z
x,-y,z
loop_
_atom_site_type_symbol
_atom_site_label
_atom_site_fract_x
_atom_site_fract_y
_atom_site_fract_z
Si Si1 0.169100 0.173440 0.648213
Si Si2 0.674243 0.169358 0.156562
Si Si3 0.673699 0.330211 0.442629
Si Si4 0.173574 0.670050 0.248637
Si Si5 0.666828 0.324023 0.944417
O O1 0.236787 0.249367 0.599674
O O2 0.254381 0.215997 0.698845
O O3 0.000000 0.208457 0.653511
O O4 0.182866 0.000000 0.642795
O O5 0.500000 0.184318 0.160204
O O6 0.748157 0.254183 0.202069
O O7 0.719875 0.237198 0.102932
O O8 0.709602 0.000000 0.158932
O O9 0.712453 0.287548 0.500000
O O10 0.500000 0.317727 0.438444
O O11 0.710230 0.500000 0.436039
O O12 0.207310 0.500000 0.250173
O O13 0.000000 0.686023 0.243226
O O14 0.500000 0.277516 0.937322
O O15 0.665579 0.500000 0.945966
O O16 0.720499 0.279502 0.000000
#
# Coordination Sequence:
#
# PCOD9556872 Si02
#       5
#     8   8   8   8   8
#     4  10  21  36  54  77 105 136 170 210 257 308
#     4  10  20  33  51  77 107 137 169 208 256 307
#     4   9  19  36  56  78 105 137 173 212 253 298
#     4  10  21  37  56  76  99 133 176 216 257 307
#     4   8  14  27  48  71  96 130 171 212 252 295
#
# _framework density 17.624034999999999
#
# number of rings (size 3 to 8) (size 9 to 14) (size 15 to 20)
#    0.000    2.600    0.000    3.000    0.000    5.600 
#    0.000    4.000    0.000    3.600    0.000    0.000 
#    0.000    0.000    0.000    0.000    0.000    0.000 
#
# Total GULP energy -223156.716161 kJ/mol
# GULP energy per Si atom -5578.917904 kJ/mol
# Density = 1.758392 g / cm^3
# Si number density = 17.624035 Si / 1000 Ang^3
#
#
#
# Elastic Constant Matrix: (Units=GPa)
#
#
# Indices 1 2 3 4 5 6 
#
# 1 72.7029 52.2475 87.5756 0.0000 0.0000 0.0000
# 2 52.2475 72.7033 87.5759 0.0000 0.0000 0.0000
# 3 87.5756 87.5759 206.6483 0.0000 0.0000 0.0000
# 4 0.0000 0.0000 0.0000 -788.2307 0.0000 0.0000
# 5 0.0000 0.0000 0.0000 0.0000 -787.6097 0.0000
# 6 0.0000 0.0000 0.0000 0.0000 0.0000 26.0683
#
#
#
# Elastic Compliance Matrix: (Units=1/GPa)
#
#
# Indices 1 2 3 4 5 6 
#
# 1 0.034301 -0.014586 -0.008355 0.000000 0.000000 0.000000
# 2 -0.014586 0.034301 -0.008355 0.000000 0.000000 0.000000
# 3 -0.008355 -0.008355 0.011921 0.000000 0.000000 0.000000
# 4 0.000000 0.000000 0.000000 -0.001269 0.000000 0.000000
# 5 0.000000 0.000000 0.000000 0.000000 -0.001270 0.000000
# 6 0.000000 0.000000 0.000000 0.000000 0.000000 0.038361
#
#
# Mechanical properties :
#
#
# Convention : Reuss Voigt Hill
#
# Bulk Modulus (GPa) = 55.77084 89.65028 72.71056
# Shear Modulus (GPa) = 27.03976 -301.64404 -137.30214
#
# Velocity S-wave (km/s) = 3.92121 -13.09681 -8.83602
# Velocity P-wave (km/s) = 7.22597 13.33129 7.92177
#
# Compressibility (1/GPa) = 0.01793052
#
# Stress axis : x y z
#
# Youngs Moduli (GPa) = 29.15387 29.15402 83.88757
#
# Poissons Ratio (x) = 0.42523 0.70088
# Poissons Ratio (y) = 0.42523 0.70088
# Poissons Ratio (z) = 0.24358 0.24358
#
# Static dielectric constant tensor:
#      x y z
#    x 1.587870 0.000000 0.000000 
#    y 0.000000 1.587870 0.000000 
#    z 0.000000 0.000000 1.582570 
# 
# From -- ./inp_files/5118.got.cif
#   From: 2010.05.17/outbox.cif.g08.bks.cpg/sg115_3_cif.got.tgz:5118.got - 2010.05.20 11:07:42.
