data_PCOD9556846
_publ_section_title
;
Structure prediction by ZEFSAII (Michael W. Deem and Ramdas Pophale) SiO2 
 PCOD9556846
Probable space group: P -4 M 2
;
_chemical_formula_sum "Si O2"
_cell_formula_units_Z 48
_cell_length_a 9.298949
_cell_length_b 9.298949
_cell_length_c 32.208506
_cell_angle_alpha 90.000000
_cell_angle_beta 90.000000
_cell_angle_gamma 90.000000
_cell_volume 2785.084088
_symmetry_space_group_name_H-M "P -4 M 2"
_symmetry_group_IT_number 115
_symmetry_cell_setting 'tetragonal'
loop_
_space_group_symop_operation_xyz
x,y,z
y,-x,-z
-x,-y,z
-y,x,-z
y,x,-z
-y,-x,-z
-x,y,z
x,-y,z
loop_
_atom_site_type_symbol
_atom_site_label
_atom_site_fract_x
_atom_site_fract_y
_atom_site_fract_z
Si Si1 0.330711 0.327971 0.211940
Si Si2 0.829734 0.671492 0.871915
Si Si3 0.833408 0.175352 0.045491
Si Si4 0.668752 0.826756 0.371335
Si Si5 0.165857 0.174995 0.454183
Si Si6 0.169395 0.327360 0.296270
O O1 0.500000 0.293762 0.218460
O O2 0.318834 0.500000 0.206989
O O3 0.281794 0.251612 0.169697
O O4 0.240973 0.285262 0.252424
O O5 0.811439 0.500000 0.875848
O O6 0.778150 0.745870 0.914223
O O7 0.000000 0.701039 0.867354
O O8 0.000000 0.217777 0.049894
O O9 0.829701 0.000000 0.044283
O O10 0.778204 0.221797 0.000000
O O11 0.500000 0.792553 0.369887
O O12 0.737759 0.781623 0.415344
O O13 0.751789 0.751726 0.333840
O O14 0.684346 0.000000 0.368048
O O15 0.219065 0.219065 0.500000
O O16 0.000000 0.221573 0.448231
O O17 0.164274 0.000000 0.455448
O O18 0.187219 0.500000 0.300634
O O19 0.000000 0.295272 0.296400
#
# Coordination Sequence:
#
# PCOD9556846 Si02
#       6
#     8   8   8   8   8   8
#     4   9  18  33  50  66  90 125 157 187 233 290
#     4   9  17  29  46  68  92 117 149 190 231 272
#     4   8  14  26  44  64  87 117 150 182 221 271
#     4  10  20  33  51  76 104 133 165 201 242 289
#     4   8  14  27  48  71  96 129 166 202 241 283
#     4  10  21  36  53  73  97 127 164 204 246 292
#
# _framework density 17.234670000000001
#
# number of rings (size 3 to 8) (size 9 to 14) (size 15 to 20)
#    0.000    3.000    0.000    2.000    0.000    3.333 
#    0.000    3.333    0.000    4.000    0.000    0.000 
#    0.000    0.000    0.000    0.000    0.000    0.000 
#
# Total GULP energy -267475.081515 kJ/mol
# GULP energy per Si atom -5572.397532 kJ/mol
# Density = 1.719544 g / cm^3
# Si number density = 17.234670 Si / 1000 Ang^3
#
#
#
# Elastic Constant Matrix: (Units=GPa)
#
#
# Indices 1 2 3 4 5 6 
#
# 1 46.4858 37.4167 74.8606 0.0000 0.0000 0.0000
# 2 37.4167 46.4856 74.8605 0.0000 0.0000 0.0000
# 3 74.8606 74.8605 224.2179 0.0000 0.0000 0.0000
# 4 0.0000 0.0000 0.0000 424.9150 0.0000 0.0000
# 5 0.0000 0.0000 0.0000 0.0000 424.8166 0.0000
# 6 0.0000 0.0000 0.0000 0.0000 0.0000 17.3281
#
#
#
# Elastic Compliance Matrix: (Units=1/GPa)
#
#
# Indices 1 2 3 4 5 6 
#
# 1 0.069876 -0.040390 -0.009845 0.000000 0.000000 0.000000
# 2 -0.040390 0.069876 -0.009845 0.000000 0.000000 0.000000
# 3 -0.009845 -0.009845 0.011034 0.000000 0.000000 0.000000
# 4 0.000000 0.000000 0.000000 0.002353 0.000000 0.000000
# 5 0.000000 0.000000 0.000000 0.000000 0.002354 0.000000
# 6 0.000000 0.000000 0.000000 0.000000 0.000000 0.057710
#
#
# Mechanical properties :
#
#
# Convention : Reuss Voigt Hill
#
# Bulk Modulus (GPa) = 32.65068 76.82944 54.74006
# Shear Modulus (GPa) = 14.55312 182.08205 98.31758
#
# Velocity S-wave (km/s) = 2.90903 10.28971 7.56110
# Velocity P-wave (km/s) = 5.50174 13.63253 10.39507
#
# Compressibility (1/GPa) = 0.03062723
#
# Stress axis : x y z
#
# Youngs Moduli (GPa) = 14.31117 14.31109 90.63168
#
# Poissons Ratio (x) = 0.57802 0.89223
# Poissons Ratio (y) = 0.57802 0.89224
# Poissons Ratio (z) = 0.14089 0.14089
#
# Static dielectric constant tensor:
#      x y z
#    x 1.575320 0.000000 0.000000 
#    y 0.000000 1.575320 0.000000 
#    z 0.000000 0.000000 1.581870 
# 
# From -- ./inp_files/6116.got.cif
#   From: 2010.05.17/outbox.cif.g08.bks.cpg/sg115_4_cif.got.tgz:6116.got - 2010.05.20 11:07:42.
