data_PCOD9556687
_publ_section_title
;
Structure prediction by ZEFSAII (Michael W. Deem and Ramdas Pophale) SiO2 
 PCOD9556687
Probable space group: P -4 M 2
;
_chemical_formula_sum "Si O2"
_cell_formula_units_Z 28
_cell_length_a 8.061483
_cell_length_b 8.061483
_cell_length_c 21.657956
_cell_angle_alpha 90.000000
_cell_angle_beta 90.000000
_cell_angle_gamma 90.000000
_cell_volume 1407.496592
_symmetry_space_group_name_H-M "P -4 M 2"
_symmetry_group_IT_number 115
_symmetry_cell_setting 'tetragonal'
loop_
_space_group_symop_operation_xyz
x,y,z
y,-x,-z
-x,-y,z
-y,x,-z
y,x,-z
-y,-x,-z
-x,y,z
x,-y,z
loop_
_atom_site_type_symbol
_atom_site_label
_atom_site_fract_x
_atom_site_fract_y
_atom_site_fract_z
Si Si1 0.301854 0.681142 0.631473
Si Si2 0.799161 0.687361 0.932996
Si Si3 0.194347 0.194347 0.500000
Si Si4 0.202711 0.000000 0.850152
Si Si5 0.802596 0.000000 0.709804
O O1 0.500000 0.681056 0.630805
O O2 0.242661 0.500000 0.653658
O O3 0.242484 0.708103 0.561344
O O4 0.247035 0.835181 0.672893
O O5 0.757890 0.500000 0.912569
O O6 0.000000 0.697408 0.939113
O O7 0.746569 0.833966 0.886775
O O8 0.722704 0.722704 0.000000
O O9 0.000000 0.220680 0.486769
O O10 0.263099 0.000000 0.779783
O O11 0.000000 0.000000 0.849451
O O12 0.000000 0.000000 0.713251
#
# Coordination Sequence:
#
# PCOD9556687 Si02
#       5
#     8   8   4   4   4
#     4  11  24  41  62  89 123 166 212 261 319 379
#     4  10  19  34  60  91 121 159 205 256 315 370
#     4  11  22  37  62  96 124 153 201 264 328 378
#     4   9  20  37  61  89 125 164 205 256 308 369
#     4  11  23  41  63  93 125 165 214 259 314 381
#
# _framework density 19.893474999999999
#
# number of rings (size 3 to 8) (size 9 to 14) (size 15 to 20)
#    0.000    1.571    2.857    2.143    0.000    6.000 
#    0.000    5.714    0.000    0.000    0.000    0.000 
#    0.000    0.000    0.000    0.000    0.000    0.000 
#
# Total GULP energy -156460.993355 kJ/mol
# GULP energy per Si atom -5587.892620 kJ/mol
# Density = 1.984820 g / cm^3
# Si number density = 19.893475 Si / 1000 Ang^3
#
#
#
# Elastic Constant Matrix: (Units=GPa)
#
#
# Indices 1 2 3 4 5 6 
#
# 1 103.7177 57.2747 55.2757 0.0000 0.0000 0.0000
# 2 57.2747 103.7177 55.2757 0.0000 0.0000 0.0000
# 3 55.2757 55.2757 136.3053 0.0000 0.0000 0.0000
# 4 0.0000 0.0000 0.0000 -6.8739 0.0000 0.0000
# 5 0.0000 0.0000 0.0000 0.0000 -6.8739 0.0000
# 6 0.0000 0.0000 0.0000 0.0000 0.0000 21.3061
#
#
#
# Elastic Compliance Matrix: (Units=1/GPa)
#
#
# Indices 1 2 3 4 5 6 
#
# 1 0.015070 -0.006462 -0.003491 0.000000 0.000000 0.000000
# 2 -0.006462 0.015070 -0.003491 0.000000 0.000000 0.000000
# 3 -0.003491 -0.003491 0.010168 0.000000 0.000000 0.000000
# 4 0.000000 0.000000 0.000000 -0.145478 0.000000 0.000000
# 5 0.000000 0.000000 0.000000 0.000000 -0.145478 0.000000
# 6 0.000000 0.000000 0.000000 0.000000 0.000000 0.046935
#
#
# Mechanical properties :
#
#
# Convention : Reuss Voigt Hill
#
# Bulk Modulus (GPa) = 74.50961 75.48808 74.99884
# Shear Modulus (GPa) = -29.01062 13.23930 -7.88566
#
# Velocity S-wave (km/s) = -3.82291 2.58255 -1.99313
# Velocity P-wave (km/s) = 4.24846 6.84991 5.69959
#
# Compressibility (1/GPa) = 0.01342109
#
# Stress axis : x y z
#
# Youngs Moduli (GPa) = 66.35580 66.35579 98.34819
#
# Poissons Ratio (x) = 0.42876 0.34334
# Poissons Ratio (y) = 0.42876 0.34334
# Poissons Ratio (z) = 0.23165 0.23165
#
# Static dielectric constant tensor:
#      x y z
#    x 1.706260 0.000000 0.000000 
#    y 0.000000 1.706260 0.000000 
#    z 0.000000 0.000000 1.679360 
# 
# From -- ./inp_files/4528.got.cif
#   From: 2010.05.17/outbox.cif.g08.bks.cpg/sg115_3_cif.got.tgz:4528.got - 2010.05.20 11:07:42.
