data_PCOD9556254
_publ_section_title
;
Structure prediction by ZEFSAII (Michael W. Deem and Ramdas Pophale) SiO2 
 PCOD9556254
Probable space group: P -4 21 C
;
_chemical_formula_sum "Si O2"
_cell_formula_units_Z 56
_cell_length_a 11.672271
_cell_length_b 11.672271
_cell_length_c 21.022409
_cell_angle_alpha 90.000000
_cell_angle_beta 90.000000
_cell_angle_gamma 90.000000
_cell_volume 2864.133161
_symmetry_space_group_name_H-M "P -4 21 C"
_symmetry_group_IT_number 114
_symmetry_cell_setting 'tetragonal'
loop_
_space_group_symop_operation_xyz
x,y,z
y,-x,-z
-x,-y,z
-y,x,-z
1/2+x,1/2-y,1/2-z
1/2-x,1/2+y,1/2-z
1/2-y,1/2-x,1/2+z
1/2+y,1/2+x,1/2+z
loop_
_atom_site_type_symbol
_atom_site_label
_atom_site_fract_x
_atom_site_fract_y
_atom_site_fract_z
Si Si1 0.432698 0.774323 0.463884
Si Si2 0.051644 0.373246 0.636967
Si Si3 0.510716 0.633460 0.215766
Si Si4 0.262571 0.241147 0.185023
Si Si5 0.330859 0.265486 0.823499
Si Si6 0.645902 0.410281 0.638267
Si Si7 0.069629 0.792631 0.926346
O O1 0.376424 0.886230 0.432343
O O2 0.515499 0.723355 0.409123
O O3 0.498978 0.793331 0.529336
O O4 0.353978 0.661397 0.473327
O O5 0.159032 0.334805 0.681521
O O6 0.000000 0.500000 0.650096
O O7 0.945973 0.284963 0.644627
O O8 0.500000 0.500000 0.203372
O O9 0.621902 0.687441 0.185157
O O10 0.400595 0.684980 0.181287
O O11 0.525973 0.642383 0.292899
O O12 0.264211 0.166034 0.248551
O O13 0.253761 0.153646 0.127339
O O14 0.218560 0.204827 0.850584
O O15 0.522676 0.375883 0.608590
#
# Coordination Sequence:
#
# PCOD9556254 Si02
#       7
#     8   8   8   8   8   8   8
#     4  11  21  37  66  91 122 170 209 267 327 376
#     4  11  22  41  61  93 128 171 218 269 319 392
#     4  11  20  39  62  90 129 169 212 254 321 389
#     4  10  24  38  63  96 128 169 214 268 325 389
#     4  11  23  39  62  93 128 173 213 260 325 389
#     4  11  22  37  61  94 130 169 209 263 322 390
#     4  11  22  39  62  99 130 158 213 271 326 384
#
# _framework density 19.552164999999999
#
# number of rings (size 3 to 8) (size 9 to 14) (size 15 to 20)
#    0.000    1.143    4.286    3.857    4.000    0.000 
#    0.000    2.143    0.000    0.000    0.000    0.000 
#    0.000    0.000    0.000    0.000    0.000    0.000 
#
# Total GULP energy -312218.635995 kJ/mol
# GULP energy per Si atom -5575.332786 kJ/mol
# Density = 1.950766 g / cm^3
# Si number density = 19.552165 Si / 1000 Ang^3
#
#
#
# Elastic Constant Matrix: (Units=GPa)
#
#
# Indices 1 2 3 4 5 6 
#
# 1 85.6808 36.3053 38.3875 0.0000 0.0000 0.0000
# 2 36.3053 85.6808 38.3875 0.0000 0.0000 0.0000
# 3 38.3875 38.3875 52.3746 0.0000 0.0000 0.0000
# 4 0.0000 0.0000 0.0000 25.2228 0.0000 0.0000
# 5 0.0000 0.0000 0.0000 0.0000 25.2228 0.0000
# 6 0.0000 0.0000 0.0000 0.0000 0.0000 31.5130
#
#
#
# Elastic Compliance Matrix: (Units=1/GPa)
#
#
# Indices 1 2 3 4 5 6 
#
# 1 0.017735 -0.002518 -0.011153 0.000000 0.000000 0.000000
# 2 -0.002518 0.017735 -0.011153 0.000000 0.000000 0.000000
# 3 -0.011153 -0.011153 0.035443 0.000000 0.000000 0.000000
# 4 0.000000 0.000000 0.000000 0.039647 0.000000 0.000000
# 5 0.000000 0.000000 0.000000 0.000000 0.039647 0.000000
# 6 0.000000 0.000000 0.000000 0.000000 0.000000 0.031733
#
#
# Mechanical properties :
#
#
# Convention : Reuss Voigt Hill
#
# Bulk Modulus (GPa) = 47.02820 49.98853 48.50836
# Shear Modulus (GPa) = 20.94884 23.76877 22.35881
#
# Velocity S-wave (km/s) = 3.27683 3.49041 3.38530
# Velocity P-wave (km/s) = 6.19852 6.47041 6.33593
#
# Compressibility (1/GPa) = 0.02126384
#
# Stress axis : x y z
#
# Youngs Moduli (GPa) = 56.38521 56.38521 28.21446
#
# Poissons Ratio (x) = 0.14197 0.31469
# Poissons Ratio (y) = 0.14197 0.31469
# Poissons Ratio (z) = 0.62889 0.62889
#
# Static dielectric constant tensor:
#      x y z
#    x 1.796790 0.000000 0.000000 
#    y 0.000000 1.796790 0.000000 
#    z 0.000000 0.000000 1.705290 
# 
# From -- ./inp_files/3158.got.cif
#   From: 2010.05.17/outbox.cif.g08.bks.cpg/sg114_2_cif.got.tgz:3158.got - 2010.05.20 11:04:54.
