data_PCOD9556502
_publ_section_title
;
Structure prediction by ZEFSAII (Michael W. Deem and Ramdas Pophale) SiO2 
 PCOD9556502
Probable space group: P -4 21 C
;
_chemical_formula_sum "Si O2"
_cell_formula_units_Z 26
_cell_length_a 8.169372
_cell_length_b 8.169372
_cell_length_c 15.318800
_cell_angle_alpha 90.000000
_cell_angle_beta 90.000000
_cell_angle_gamma 90.000000
_cell_volume 1022.355861
_symmetry_space_group_name_H-M "P -4 21 C"
_symmetry_group_IT_number 114
_symmetry_cell_setting 'tetragonal'
loop_
_space_group_symop_operation_xyz
x,y,z
y,-x,-z
-x,-y,z
-y,x,-z
1/2+x,1/2-y,1/2-z
1/2-x,1/2+y,1/2-z
1/2-y,1/2-x,1/2+z
1/2+y,1/2+x,1/2+z
loop_
_atom_site_type_symbol
_atom_site_label
_atom_site_fract_x
_atom_site_fract_y
_atom_site_fract_z
Si Si1 0.847924 0.244904 0.373678
Si Si2 0.812218 0.440904 0.207391
Si Si3 0.000000 0.000000 0.000000
Si Si4 0.306940 0.786504 0.563801
O O1 0.774011 0.367966 0.301926
O O2 0.767952 0.202867 0.466840
O O3 0.030243 0.308728 0.397145
O O4 0.820212 0.075633 0.320862
O O5 0.808466 0.306417 0.131600
O O6 0.000000 0.500000 0.209875
O O7 0.036680 0.169999 0.950321
#
# Coordination Sequence:
#
# PCOD9556502 Si02
#       4
#     8   8   2   8
#     4  12  28  55  89 126 178 239 296 376 460 557
#     4  12  28  51  82 132 170 233 303 371 454 540
#     4  12  32  48  84 128 176 242 304 380 436 556
#     4  12  28  55  85 125 181 236 305 367 469 538
#
# _framework density 25.431456000000001
#
# number of rings (size 3 to 8) (size 9 to 14) (size 15 to 20)
#    0.000    0.000    3.077    4.615    8.615    0.000 
#    0.000    0.000    0.000    0.000    0.000    0.000 
#    0.000    0.000    0.000    0.000    0.000    0.000 
#
# Total GULP energy -145463.560170 kJ/mol
# GULP energy per Si atom -5594.752314 kJ/mol
# Density = 2.537357 g / cm^3
# Si number density = 25.431456 Si / 1000 Ang^3
#
#
#
# Elastic Constant Matrix: (Units=GPa)
#
#
# Indices 1 2 3 4 5 6 
#
# 1 95.5483 46.3062 63.3575 0.0000 0.0000 0.0000
# 2 46.3062 95.5483 63.3575 0.0000 0.0000 0.0000
# 3 63.3575 63.3575 247.4423 0.0000 0.0000 0.0000
# 4 0.0000 0.0000 0.0000 31.8171 0.0000 0.0000
# 5 0.0000 0.0000 0.0000 0.0000 31.8171 0.0000
# 6 0.0000 0.0000 0.0000 0.0000 0.0000 40.4597
#
#
#
# Elastic Compliance Matrix: (Units=1/GPa)
#
#
# Indices 1 2 3 4 5 6 
#
# 1 0.014724 -0.005584 -0.002340 0.000000 0.000000 0.000000
# 2 -0.005584 0.014724 -0.002340 0.000000 0.000000 0.000000
# 3 -0.002340 -0.002340 0.005240 0.000000 0.000000 0.000000
# 4 0.000000 0.000000 0.000000 0.031430 0.000000 0.000000
# 5 0.000000 0.000000 0.000000 0.000000 0.031430 0.000000
# 6 0.000000 0.000000 0.000000 0.000000 0.000000 0.024716
#
#
# Mechanical properties :
#
#
# Convention : Reuss Voigt Hill
#
# Bulk Modulus (GPa) = 70.62826 87.17571 78.90199
# Shear Modulus (GPa) = 33.89569 38.51996 36.20783
#
# Velocity S-wave (km/s) = 3.65475 3.89608 3.77734
# Velocity P-wave (km/s) = 6.75588 7.38867 7.07935
#
# Compressibility (1/GPa) = 0.01415864
#
# Stress axis : x y z
#
# Youngs Moduli (GPa) = 67.91675 67.91675 190.84657
#
# Poissons Ratio (x) = 0.37924 0.44664
# Poissons Ratio (y) = 0.37924 0.44664
# Poissons Ratio (z) = 0.15895 0.15895
#
# Static dielectric constant tensor:
#      x y z
#    x 2.106960 0.000000 0.000000 
#    y 0.000000 2.106960 0.000000 
#    z 0.000000 0.000000 1.887250 
# 
# From -- ./inp_files/2374.got.cif
#   From: 2010.05.17/outbox.cif.g08.bks.cpg/sg114_2_cif.got.tgz:2374.got - 2010.05.20 11:04:54.
