data_PCOD9556032
_publ_section_title
;
Structure prediction by ZEFSAII (Michael W. Deem and Ramdas Pophale) SiO2 
 PCOD9556032
Probable space group: P -4 21 C
;
_chemical_formula_sum "Si O2"
_cell_formula_units_Z 52
_cell_length_a 17.484618
_cell_length_b 17.484618
_cell_length_c 8.704193
_cell_angle_alpha 90.000000
_cell_angle_beta 90.000000
_cell_angle_gamma 90.000000
_cell_volume 2660.975089
_symmetry_space_group_name_H-M "P -4 21 C"
_symmetry_group_IT_number 114
_symmetry_cell_setting 'tetragonal'
loop_
_space_group_symop_operation_xyz
x,y,z
y,-x,-z
-x,-y,z
-y,x,-z
1/2+x,1/2-y,1/2-z
1/2-x,1/2+y,1/2-z
1/2-y,1/2-x,1/2+z
1/2+y,1/2+x,1/2+z
loop_
_atom_site_type_symbol
_atom_site_label
_atom_site_fract_x
_atom_site_fract_y
_atom_site_fract_z
Si Si1 0.219535 0.385600 0.297317
Si Si2 0.757184 0.841983 0.847451
Si Si3 0.000000 0.000000 0.220145
Si Si4 0.166241 0.012438 0.731265
Si Si5 0.646409 0.733809 0.693182
Si Si6 0.501255 0.665971 0.869260
Si Si7 0.720439 0.106327 0.859630
O O1 0.267173 0.310414 0.346188
O O2 0.273481 0.438608 0.192451
O O3 0.144654 0.355188 0.211037
O O4 0.204948 0.419263 0.465612
O O5 0.680341 0.810051 0.771278
O O6 0.806635 0.901228 0.750562
O O7 0.747748 0.876327 0.017579
O O8 0.918783 0.009370 0.302285
O O9 0.006337 0.090162 0.163939
O O10 0.153359 0.997321 0.551558
O O11 0.240375 0.964337 0.776941
O O12 0.581327 0.697762 0.801091
O O13 0.712974 0.670628 0.666154
#
# Coordination Sequence:
#
# PCOD9556032 Si02
#       7
#     8   8   4   8   8   8   8
#     4  10  21  37  56  81 111 150 195 239 284 338
#     4  10  21  37  56  81 111 150 195 239 284 338
#     4  12  25  36  53  86 125 160 193 226 285 348
#     4  12  22  37  58  84 119 157 191 236 286 341
#     4  10  21  37  56  81 111 150 195 239 284 338
#     4  12  22  37  58  84 119 157 191 236 286 341
#     4  10  21  37  56  81 111 150 195 239 284 338
#
# _framework density 19.541710999999999
#
# number of rings (size 3 to 8) (size 9 to 14) (size 15 to 20)
#    0.000    1.231    3.077    4.154    0.000    2.462 
#    0.000    3.077    0.000    0.923    0.000    6.462 
#    0.000    0.000    0.000    0.000    0.000    0.000 
#
# Total GULP energy -289560.581321 kJ/mol
# GULP energy per Si atom -5568.472718 kJ/mol
# Density = 1.949723 g / cm^3
# Si number density = 19.541711 Si / 1000 Ang^3
#
#
#
# Elastic Constant Matrix: (Units=GPa)
#
#
# Indices 1 2 3 4 5 6 
#
# 1 31.3458 7.7448 -0.2926 0.0000 0.0000 0.0000
# 2 7.7448 31.3458 -0.2926 0.0000 0.0000 0.0000
# 3 -0.2926 -0.2926 34.3754 0.0000 0.0000 0.0000
# 4 0.0000 0.0000 0.0000 19.8679 0.0000 0.0000
# 5 0.0000 0.0000 0.0000 0.0000 19.8679 0.0000
# 6 0.0000 0.0000 0.0000 0.0000 0.0000 41.5420
#
#
#
# Elastic Compliance Matrix: (Units=1/GPa)
#
#
# Indices 1 2 3 4 5 6 
#
# 1 0.033978 -0.008393 0.000218 0.000000 0.000000 0.000000
# 2 -0.008393 0.033978 0.000218 0.000000 0.000000 0.000000
# 3 0.000218 0.000218 0.029094 0.000000 0.000000 0.000000
# 4 0.000000 0.000000 0.000000 0.050333 0.000000 0.000000
# 5 0.000000 0.000000 0.000000 0.000000 0.050333 0.000000
# 6 0.000000 0.000000 0.000000 0.000000 0.000000 0.024072
#
#
# Mechanical properties :
#
#
# Convention : Reuss Voigt Hill
#
# Bulk Modulus (GPa) = 12.32511 12.37623 12.35067
# Shear Modulus (GPa) = 18.88591 22.24938 20.56764
#
# Velocity S-wave (km/s) = 3.11214 3.37791 3.24774
# Velocity P-wave (km/s) = 4.38573 4.64335 4.51638
#
# Compressibility (1/GPa) = 0.08113518
#
# Stress axis : x y z
#
# Youngs Moduli (GPa) = 29.43078 29.43078 34.37098
#
# Poissons Ratio (x) = 0.24702 -0.00749
# Poissons Ratio (y) = 0.24702 -0.00749
# Poissons Ratio (z) = -0.00641 -0.00641
#
# Static dielectric constant tensor:
#      x y z
#    x 1.726220 0.000000 0.000000 
#    y 0.000000 1.726220 0.000000 
#    z 0.000000 0.000000 1.745020 
# 
# From -- ./inp_files/976.got.cif
#   From: 2010.05.17/outbox.cif.g08.bks.cpg/sg114_1_cif.got.tgz:976.got - 2010.05.20 11:04:54.
