data_PCOD9556834
_publ_section_title
;
Structure prediction by ZEFSAII (Michael W. Deem and Ramdas Pophale) SiO2 
 PCOD9556834
Probable space group: P -4 M 2
;
_chemical_formula_sum "Si O2"
_cell_formula_units_Z 48
_cell_length_a 9.356920
_cell_length_b 9.356920
_cell_length_c 32.047334
_cell_angle_alpha 90.000000
_cell_angle_beta 90.000000
_cell_angle_gamma 90.000000
_cell_volume 2805.806644
_symmetry_space_group_name_H-M "P -4 M 2"
_symmetry_group_IT_number 115
_symmetry_cell_setting 'tetragonal'
loop_
_space_group_symop_operation_xyz
x,y,z
y,-x,-z
-x,-y,z
-y,x,-z
y,x,-z
-y,-x,-z
-x,y,z
x,-y,z
loop_
_atom_site_type_symbol
_atom_site_label
_atom_site_fract_x
_atom_site_fract_y
_atom_site_fract_z
Si Si1 0.171845 0.668225 0.795105
Si Si2 0.334900 0.325899 0.545785
Si Si3 0.825963 0.835565 0.711555
Si Si4 0.169059 0.328291 0.130981
Si Si5 0.171274 0.667609 0.036442
Si Si6 0.828682 0.331358 0.628785
O O1 0.203330 0.500000 0.792309
O O2 0.217174 0.748480 0.752674
O O3 0.248403 0.739768 0.834397
O O4 0.000000 0.684260 0.799142
O O5 0.280317 0.280317 0.500000
O O6 0.500000 0.281618 0.550783
O O7 0.333592 0.500000 0.544370
O O8 0.243926 0.282661 0.585801
O O9 0.780341 0.757642 0.669040
O O10 0.000000 0.834864 0.711141
O O11 0.779007 0.000000 0.713371
O O12 0.185160 0.500000 0.134429
O O13 0.211203 0.287306 0.083607
O O14 0.000000 0.296643 0.136325
O O15 0.206940 0.500000 0.032169
O O16 0.000000 0.680690 0.033557
O O17 0.245001 0.755000 0.000000
O O18 0.796545 0.500000 0.635025
O O19 0.000000 0.318434 0.625100
#
# Coordination Sequence:
#
# PCOD9556834 Si02
#       6
#     8   8   8   8   8   8
#     4  10  20  33  51  76 101 125 160 205 246 287
#     4   8  14  26  44  64  87 117 150 182 221 272
#     4   9  17  30  48  68  92 124 158 191 233 285
#     4   9  19  36  54  72  99 134 166 198 242 293
#     4   9  19  35  53  74 101 132 166 203 242 286
#     4   9  16  27  45  67  88 112 147 190 230 269
#
# _framework density 17.107379000000002
#
# number of rings (size 3 to 8) (size 9 to 14) (size 15 to 20)
#    0.000    3.000    0.000    2.500    0.000    5.000 
#    0.000    6.667    0.000    4.500    0.000    0.000 
#    0.000    0.000    0.000    0.000    0.000    0.000 
#
# Total GULP energy -267489.331550 kJ/mol
# GULP energy per Si atom -5572.694407 kJ/mol
# Density = 1.706844 g / cm^3
# Si number density = 17.107379 Si / 1000 Ang^3
#
#
#
# Elastic Constant Matrix: (Units=GPa)
#
#
# Indices 1 2 3 4 5 6 
#
# 1 47.9186 36.7729 73.0904 0.0000 0.0000 0.0000
# 2 36.7729 47.9161 73.0883 0.0000 0.0000 0.0000
# 3 73.0904 73.0883 206.3490 0.0000 0.0000 0.0000
# 4 0.0000 0.0000 0.0000 34.3396 0.0000 0.0000
# 5 0.0000 0.0000 0.0000 0.0000 34.3396 0.0000
# 6 0.0000 0.0000 0.0000 0.0000 0.0000 20.5402
#
#
#
# Elastic Compliance Matrix: (Units=1/GPa)
#
#
# Indices 1 2 3 4 5 6 
#
# 1 0.060055 -0.029674 -0.010762 0.000000 0.000000 0.000000
# 2 -0.029674 0.060058 -0.010762 0.000000 0.000000 0.000000
# 3 -0.010762 -0.010762 0.012470 0.000000 0.000000 0.000000
# 4 0.000000 0.000000 0.000000 0.029121 0.000000 0.000000
# 5 0.000000 0.000000 0.000000 0.000000 0.029121 0.000000
# 6 0.000000 0.000000 0.000000 0.000000 0.000000 0.048685
#
#
# Mechanical properties :
#
#
# Convention : Reuss Voigt Hill
#
# Bulk Modulus (GPa) = 33.12501 74.23190 53.67845
# Shear Modulus (GPa) = 14.20584 25.79267 19.99926
#
# Velocity S-wave (km/s) = 2.88478 3.88711 3.42284
# Velocity P-wave (km/s) = 5.52277 7.97698 6.86051
#
# Compressibility (1/GPa) = 0.03018867
#
# Stress axis : x y z
#
# Youngs Moduli (GPa) = 16.65129 16.65049 80.19390
#
# Poissons Ratio (x) = 0.49409 0.86301
# Poissons Ratio (y) = 0.49411 0.86302
# Poissons Ratio (z) = 0.17919 0.17919
#
# Static dielectric constant tensor:
#      x y z
#    x 1.568810 0.000000 0.000000 
#    y 0.000000 1.568810 0.000000 
#    z 0.000000 0.000000 1.573420 
# 
# From -- ./inp_files/6064.got.cif
#   From: 2010.05.17/outbox.cif.g08.bks.cpg/sg115_4_cif.got.tgz:6064.got - 2010.05.20 11:07:42.
