data_PCOD9556220
_publ_section_title
;
Structure prediction by ZEFSAII (Michael W. Deem and Ramdas Pophale) SiO2 
 PCOD9556220
Probable space group: P -4 21 C
;
_chemical_formula_sum "Si O2"
_cell_formula_units_Z 28
_cell_length_a 9.434145
_cell_length_b 9.434145
_cell_length_c 9.784554
_cell_angle_alpha 90.000000
_cell_angle_beta 90.000000
_cell_angle_gamma 90.000000
_cell_volume 870.855559
_symmetry_space_group_name_H-M "P -4 21 C"
_symmetry_group_IT_number 114
_symmetry_cell_setting 'tetragonal'
loop_
_space_group_symop_operation_xyz
x,y,z
y,-x,-z
-x,-y,z
-y,x,-z
1/2+x,1/2-y,1/2-z
1/2-x,1/2+y,1/2-z
1/2-y,1/2-x,1/2+z
1/2+y,1/2+x,1/2+z
loop_
_atom_site_type_symbol
_atom_site_label
_atom_site_fract_x
_atom_site_fract_y
_atom_site_fract_z
Si Si1 0.001284 0.685511 0.915228
Si Si2 0.500000 0.500000 0.321680
Si Si3 0.177851 0.467488 0.726643
Si Si4 0.282987 0.407007 0.015440
O O1 0.999539 0.850464 0.896528
O O2 0.091637 0.599298 0.806731
O O3 0.805674 0.644724 0.149214
O O4 0.039279 0.657210 0.070338
O O5 0.491383 0.651891 0.249027
O O6 0.162044 0.375132 0.896337
O O7 0.325108 0.572068 0.018852
#
# Coordination Sequence:
#
# PCOD9556220 Si02
#       4
#     8   4   8   8
#     4  10  24  37  67 105 142 190 235 292 361 427
#     4  12  23  46  67 104 147 186 239 302 361 424
#     4  10  23  36  69  98 138 181 242 282 363 415
#     4   9  20  35  65 102 139 181 234 281 348 424
#
# _framework density 32.152287000000001
#
# number of rings (size 3 to 8) (size 9 to 14) (size 15 to 20)
#    1.714    0.286    0.000    4.286    8.000    0.000 
#    0.000    1.429    0.000   22.286    0.000    0.000 
#    0.000    0.000    0.000    0.000    0.000    0.000 
#
# Total GULP energy -156885.474471 kJ/mol
# GULP energy per Si atom -5603.052660 kJ/mol
# Density = 3.207911 g / cm^3
# Si number density = 32.152287 Si / 1000 Ang^3
#
#
#
# Elastic Constant Matrix: (Units=GPa)
#
#
# Indices 1 2 3 4 5 6 
#
# 1 330.1831 162.8149 138.0970 0.0000 0.0000 0.0000
# 2 162.8149 330.1831 138.0970 0.0000 0.0000 0.0000
# 3 138.0970 138.0970 380.3533 0.0000 0.0000 0.0000
# 4 0.0000 0.0000 0.0000 72.3986 0.0000 0.0000
# 5 0.0000 0.0000 0.0000 0.0000 72.3986 0.0000
# 6 0.0000 0.0000 0.0000 0.0000 0.0000 77.7488
#
#
#
# Elastic Compliance Matrix: (Units=1/GPa)
#
#
# Indices 1 2 3 4 5 6 
#
# 1 0.004261 -0.001714 -0.000925 0.000000 0.000000 0.000000
# 2 -0.001714 0.004261 -0.000925 0.000000 0.000000 0.000000
# 3 -0.000925 -0.000925 0.003300 0.000000 0.000000 0.000000
# 4 0.000000 0.000000 0.000000 0.013812 0.000000 0.000000
# 5 0.000000 0.000000 0.000000 0.000000 0.013812 0.000000
# 6 0.000000 0.000000 0.000000 0.000000 0.000000 0.012862
#
#
# Mechanical properties :
#
#
# Convention : Reuss Voigt Hill
#
# Bulk Modulus (GPa) = 212.98774 213.19301 213.09037
# Shear Modulus (GPa) = 81.96714 84.62325 83.29520
#
# Velocity S-wave (km/s) = 5.05458 5.13582 5.09536
# Velocity P-wave (km/s) = 10.02259 10.08068 10.05167
#
# Compressibility (1/GPa) = 0.00469511
#
# Stress axis : x y z
#
# Youngs Moduli (GPa) = 234.70863 234.70863 302.98679
#
# Poissons Ratio (x) = 0.40235 0.28012
# Poissons Ratio (y) = 0.40235 0.28012
# Poissons Ratio (z) = 0.21699 0.21699
#
# Static dielectric constant tensor:
#      x y z
#    x 2.582080 0.000000 0.000000 
#    y 0.000000 2.582080 0.000000 
#    z 0.000000 0.000000 2.930390 
# 
# From -- ./inp_files/1315.got.cif
#   From: 2010.05.17/outbox.cif.g08.bks.cpg/sg114_1_cif.got.tgz:1315.got - 2010.05.20 11:04:54.
