data_PCOD9556535
_publ_section_title
;
Structure prediction by ZEFSAII (Michael W. Deem and Ramdas Pophale) SiO2 
 PCOD9556535
Probable space group: P -4 M 2
;
_chemical_formula_sum "Si O2"
_cell_formula_units_Z 48
_cell_length_a 13.947441
_cell_length_b 13.947441
_cell_length_c 16.456293
_cell_angle_alpha 90.000000
_cell_angle_beta 90.000000
_cell_angle_gamma 90.000000
_cell_volume 3201.260951
_symmetry_space_group_name_H-M "P -4 M 2"
_symmetry_group_IT_number 115
_symmetry_cell_setting 'tetragonal'
loop_
_space_group_symop_operation_xyz
x,y,z
y,-x,-z
-x,-y,z
-y,x,-z
y,x,-z
-y,-x,-z
-x,y,z
x,-y,z
loop_
_atom_site_type_symbol
_atom_site_label
_atom_site_fract_x
_atom_site_fract_y
_atom_site_fract_z
Si Si1 0.116505 0.888398 0.589647
Si Si2 0.226951 0.884350 0.248475
Si Si3 0.107823 0.384254 0.498820
Si Si4 0.787965 0.386316 0.669299
Si Si5 0.883285 0.110323 0.910332
Si Si6 0.302266 0.386134 0.417351
O O1 0.147965 0.852036 0.500000
O O2 0.145163 0.831470 0.670161
O O3 0.000000 0.885231 0.586231
O O4 0.142868 0.000000 0.598696
O O5 0.330333 0.837017 0.257623
O O6 0.172714 0.854339 0.166767
O O7 0.233422 0.000000 0.249047
O O8 0.102734 0.500000 0.494511
O O9 0.147623 0.363257 0.588913
O O10 0.191550 0.357966 0.435870
O O11 0.000000 0.346470 0.487150
O O12 0.786299 0.500000 0.678513
O O13 0.682133 0.346724 0.650487
O O14 0.000000 0.109176 0.911914
O O15 0.852375 0.000000 0.899502
O O16 0.854111 0.145890 0.000000
O O17 0.360356 0.360356 0.500000
O O18 0.307864 0.500000 0.402487
#
# Coordination Sequence:
#
# PCOD9556535 Si02
#       6
#     8   8   8   8   8   8
#     4   8  14  24  36  52  79 114 147 176 203 236
#     4  10  18  27  41  60  84 116 146 172 211 263
#     4   8  14  26  42  57  77 107 140 178 224 267
#     4  10  20  30  39  56  83 112 145 185 225 263
#     4   8  14  26  45  68  91 112 137 175 221 266
#     4   9  17  29  45  62  79 106 150 199 238 266
#
# _framework density 14.994092
#
# number of rings (size 3 to 8) (size 9 to 14) (size 15 to 20)
#    0.000    3.167    0.000    3.500    0.000    6.167 
#    0.000    3.333    0.000    0.000    0.000    1.167 
#    0.000   17.667    0.000    0.000    0.000    1.000 
#
# Total GULP energy -267511.468614 kJ/mol
# GULP energy per Si atom -5573.155596 kJ/mol
# Density = 1.495996 g / cm^3
# Si number density = 14.994092 Si / 1000 Ang^3
#
#
#
# Elastic Constant Matrix: (Units=GPa)
#
#
# Indices 1 2 3 4 5 6 
#
# 1 83.6825 27.5628 42.4118 0.0000 0.0000 0.0000
# 2 27.5628 83.6821 42.4118 0.0000 0.0000 0.0000
# 3 42.4118 42.4118 94.3544 0.0000 0.0000 0.0000
# 4 0.0000 0.0000 0.0000 13.2688 0.0000 0.0000
# 5 0.0000 0.0000 0.0000 0.0000 13.2689 0.0000
# 6 0.0000 0.0000 0.0000 0.0000 0.0000 18.5075
#
#
#
# Elastic Compliance Matrix: (Units=1/GPa)
#
#
# Indices 1 2 3 4 5 6 
#
# 1 0.015748 -0.002071 -0.006148 0.000000 0.000000 0.000000
# 2 -0.002071 0.015748 -0.006148 0.000000 0.000000 0.000000
# 3 -0.006148 -0.006148 0.016125 0.000000 0.000000 0.000000
# 4 0.000000 0.000000 0.000000 0.075365 0.000000 0.000000
# 5 0.000000 0.000000 0.000000 0.000000 0.075364 0.000000
# 6 0.000000 0.000000 0.000000 0.000000 0.000000 0.054032
#
#
# Mechanical properties :
#
#
# Convention : Reuss Voigt Hill
#
# Bulk Modulus (GPa) = 52.94388 54.05464 53.49926
# Shear Modulus (GPa) = 17.39671 18.96455 18.18063
#
# Velocity S-wave (km/s) = 3.40992 3.56026 3.48590
# Velocity P-wave (km/s) = 7.13372 7.28214 7.20831
#
# Compressibility (1/GPa) = 0.01888792
#
# Stress axis : x y z
#
# Youngs Moduli (GPa) = 63.50084 63.50042 62.01569
#
# Poissons Ratio (x) = 0.13152 0.38125
# Poissons Ratio (y) = 0.13152 0.38125
# Poissons Ratio (z) = 0.39038 0.39038
#
# Static dielectric constant tensor:
#      x y z
#    x 1.528830 0.000000 0.000000 
#    y 0.000000 1.528830 0.000000 
#    z 0.000000 0.000000 1.485480 
# 
# From -- ./inp_files/3711.got.cif
#   From: 2010.05.17/outbox.cif.g08.bks.cpg/sg115_2_cif.got.tgz:3711.got - 2010.05.20 11:07:42.
