data_PCOD9556284
_publ_section_title
;
Structure prediction by ZEFSAII (Michael W. Deem and Ramdas Pophale) SiO2 
 PCOD9556284
Probable space group: P -4 21 C
;
_chemical_formula_sum "Si O2"
_cell_formula_units_Z 40
_cell_length_a 8.696784
_cell_length_b 8.696784
_cell_length_c 24.117521
_cell_angle_alpha 90.000000
_cell_angle_beta 90.000000
_cell_angle_gamma 90.000000
_cell_volume 1824.105836
_symmetry_space_group_name_H-M "P -4 21 C"
_symmetry_group_IT_number 114
_symmetry_cell_setting 'tetragonal'
loop_
_space_group_symop_operation_xyz
x,y,z
y,-x,-z
-x,-y,z
-y,x,-z
1/2+x,1/2-y,1/2-z
1/2-x,1/2+y,1/2-z
1/2-y,1/2-x,1/2+z
1/2+y,1/2+x,1/2+z
loop_
_atom_site_type_symbol
_atom_site_label
_atom_site_fract_x
_atom_site_fract_y
_atom_site_fract_z
Si Si1 0.115650 0.374024 0.716652
Si Si2 0.003660 0.183487 0.610711
Si Si3 0.160587 0.407113 0.531170
Si Si4 0.181195 0.829636 0.082319
Si Si5 0.873382 0.889484 0.800936
O O1 0.048040 0.270620 0.667387
O O2 0.171568 0.253555 0.762592
O O3 0.237966 0.489358 0.690147
O O4 0.000000 0.500000 0.742586
O O5 0.119587 0.248815 0.563129
O O6 0.832478 0.239550 0.597046
O O7 0.000000 0.000000 0.615040
O O8 0.223073 0.392903 0.469106
O O9 0.287408 0.509397 0.562514
O O10 0.000000 0.500000 0.531886
O O11 0.173122 0.924880 0.139181
O O12 0.000000 0.000000 0.773490
#
# Coordination Sequence:
#
# PCOD9556284 Si02
#       5
#     8   8   8   8   8
#     4  12  24  50  71 100 144 184 237 300 364 425
#     4  11  24  44  75 103 138 189 240 292 355 432
#     4  10  24  44  69 103 144 181 233 292 351 428
#     4  11  25  45  71 102 146 185 229 293 358 422
#     4  12  27  44  72 106 138 188 238 294 363 429
#
# _framework density 21.928553999999998
#
# number of rings (size 3 to 8) (size 9 to 14) (size 15 to 20)
#    0.000    0.800    4.000    2.400   11.200    0.800 
#    0.000    0.000    0.000    0.000    0.000    0.000 
#    0.000    0.000    0.000    0.000    0.000    0.000 
#
# Total GULP energy -223498.635822 kJ/mol
# GULP energy per Si atom -5587.465896 kJ/mol
# Density = 2.187864 g / cm^3
# Si number density = 21.928554 Si / 1000 Ang^3
#
#
#
# Elastic Constant Matrix: (Units=GPa)
#
#
# Indices 1 2 3 4 5 6 
#
# 1 80.7046 16.4266 25.0404 0.0000 0.0000 0.0000
# 2 16.4266 80.7046 25.0404 0.0000 0.0000 0.0000
# 3 25.0404 25.0404 128.8465 0.0000 0.0000 0.0000
# 4 0.0000 0.0000 0.0000 30.0946 0.0000 0.0000
# 5 0.0000 0.0000 0.0000 0.0000 30.0946 0.0000
# 6 0.0000 0.0000 0.0000 0.0000 0.0000 19.9347
#
#
#
# Elastic Compliance Matrix: (Units=1/GPa)
#
#
# Indices 1 2 3 4 5 6 
#
# 1 0.013500 -0.002058 -0.002224 0.000000 0.000000 0.000000
# 2 -0.002058 0.013500 -0.002224 0.000000 0.000000 0.000000
# 3 -0.002224 -0.002224 0.008625 0.000000 0.000000 0.000000
# 4 0.000000 0.000000 0.000000 0.033229 0.000000 0.000000
# 5 0.000000 0.000000 0.000000 0.000000 0.033229 0.000000
# 6 0.000000 0.000000 0.000000 0.000000 0.000000 0.050164
#
#
# Mechanical properties :
#
#
# Convention : Reuss Voigt Hill
#
# Bulk Modulus (GPa) = 44.21919 47.03005 45.62462
# Shear Modulus (GPa) = 28.93617 30.94133 29.93875
#
# Velocity S-wave (km/s) = 3.63652 3.76041 3.69899
# Velocity P-wave (km/s) = 6.15153 6.35199 6.25256
#
# Compressibility (1/GPa) = 0.02261462
#
# Stress axis : x y z
#
# Youngs Moduli (GPa) = 74.07605 74.07605 115.93573
#
# Poissons Ratio (x) = 0.15243 0.25780
# Poissons Ratio (y) = 0.15243 0.25780
# Poissons Ratio (z) = 0.16472 0.16472
#
# Static dielectric constant tensor:
#      x y z
#    x 1.821890 0.000000 0.000000 
#    y 0.000000 1.821890 0.000000 
#    z 0.000000 0.000000 1.787340 
# 
# From -- ./inp_files/3326.got.cif
#   From: 2010.05.17/outbox.cif.g08.bks.cpg/sg114_2_cif.got.tgz:3326.got - 2010.05.20 11:04:54.
