data_PCOD9556464
_publ_section_title
;
Structure prediction by ZEFSAII (Michael W. Deem and Ramdas Pophale) SiO2 
 PCOD9556464
Probable space group: P -4 21 C
;
_chemical_formula_sum "Si O2"
_cell_formula_units_Z 30
_cell_length_a 6.898005
_cell_length_b 6.898005
_cell_length_c 25.652792
_cell_angle_alpha 90.000000
_cell_angle_beta 90.000000
_cell_angle_gamma 90.000000
_cell_volume 1220.623282
_symmetry_space_group_name_H-M "P -4 21 C"
_symmetry_group_IT_number 114
_symmetry_cell_setting 'tetragonal'
loop_
_space_group_symop_operation_xyz
x,y,z
y,-x,-z
-x,-y,z
-y,x,-z
1/2+x,1/2-y,1/2-z
1/2-x,1/2+y,1/2-z
1/2-y,1/2-x,1/2+z
1/2+y,1/2+x,1/2+z
loop_
_atom_site_type_symbol
_atom_site_label
_atom_site_fract_x
_atom_site_fract_y
_atom_site_fract_z
Si Si1 0.348875 0.620997 0.191087
Si Si2 0.000000 0.000000 0.500000
Si Si3 0.345793 0.124372 0.196255
Si Si4 0.676805 0.859976 0.423351
Si Si5 0.000000 0.000000 0.120759
O O1 0.595058 0.630212 0.193152
O O2 0.221849 0.623448 0.243363
O O3 0.246094 0.602025 0.135531
O O4 0.400758 0.876386 0.188818
O O5 0.108831 0.850218 0.537128
O O6 0.156004 0.113032 0.157426
O O7 0.609694 0.641932 0.418027
O O8 0.500000 0.000000 0.436939
#
# Coordination Sequence:
#
# PCOD9556464 Si02
#       5
#     8   2   8   8   4
#     4  12  22  42  71 108 158 206 251 308 373 468
#     4  12  32  58  80 112 148 202 272 352 400 466
#     4  12  23  42  69 115 167 204 252 303 378 479
#     4  12  28  53  82 110 151 201 264 331 400 463
#     4  12  26  47  81 116 152 210 254 320 402 474
#
# _framework density 24.577604999999998
#
# number of rings (size 3 to 8) (size 9 to 14) (size 15 to 20)
#    0.000    0.000    5.333    5.600    0.000    2.133 
#    0.000    0.000    0.000    0.000    0.000    0.000 
#    0.000    0.000    0.000    0.000    0.000    0.000 
#
# Total GULP energy -167776.716266 kJ/mol
# GULP energy per Si atom -5592.557209 kJ/mol
# Density = 2.452167 g / cm^3
# Si number density = 24.577605 Si / 1000 Ang^3
#
#
#
# Elastic Constant Matrix: (Units=GPa)
#
#
# Indices 1 2 3 4 5 6 
#
# 1 175.2683 81.0890 63.5927 0.0000 0.0000 0.0000
# 2 81.0890 175.2683 63.5927 0.0000 0.0000 0.0000
# 3 63.5927 63.5927 101.4266 0.0000 0.0000 0.0000
# 4 0.0000 0.0000 0.0000 -15.3111 0.0000 0.0000
# 5 0.0000 0.0000 0.0000 0.0000 -15.3111 0.0000
# 6 0.0000 0.0000 0.0000 0.0000 0.0000 85.8802
#
#
#
# Elastic Compliance Matrix: (Units=1/GPa)
#
#
# Indices 1 2 3 4 5 6 
#
# 1 0.008140 -0.002478 -0.003550 0.000000 0.000000 0.000000
# 2 -0.002478 0.008140 -0.003550 0.000000 0.000000 0.000000
# 3 -0.003550 -0.003550 0.014311 0.000000 0.000000 0.000000
# 4 0.000000 0.000000 0.000000 -0.065312 0.000000 0.000000
# 5 0.000000 0.000000 0.000000 0.000000 -0.065312 0.000000
# 6 0.000000 0.000000 0.000000 0.000000 0.000000 0.011644
#
#
# Mechanical properties :
#
#
# Convention : Reuss Voigt Hill
#
# Bulk Modulus (GPa) = 87.45076 96.50134 91.97605
# Shear Modulus (GPa) = -76.42763 27.29752 -24.56506
#
# Velocity S-wave (km/s) = -5.58247 3.33628 -3.16490
# Velocity P-wave (km/s) = 2.42760 7.36140 4.91411
#
# Compressibility (1/GPa) = 0.01143501
#
# Stress axis : x y z
#
# Youngs Moduli (GPa) = 122.84938 122.84938 69.87664
#
# Poissons Ratio (x) = 0.30442 0.24806
# Poissons Ratio (y) = 0.30442 0.24806
# Poissons Ratio (z) = 0.43612 0.43612
#
# Static dielectric constant tensor:
#      x y z
#    x 2.180330 0.000000 0.000000 
#    y 0.000000 2.180330 0.000000 
#    z 0.000000 0.000000 1.730140 
# 
# From -- ./inp_files/2873.got.cif
#   From: 2010.05.17/outbox.cif.g08.bks.cpg/sg114_2_cif.got.tgz:2873.got - 2010.05.20 11:04:54.
