data_PCOD9556923
_publ_section_title
;
Structure prediction by ZEFSAII (Michael W. Deem and Ramdas Pophale) SiO2 
 PCOD9556923
Probable space group: P -4 M 2
;
_chemical_formula_sum "Si O2"
_cell_formula_units_Z 21
_cell_length_a 8.287317
_cell_length_b 8.287317
_cell_length_c 16.290985
_cell_angle_alpha 90.000000
_cell_angle_beta 90.000000
_cell_angle_gamma 90.000000
_cell_volume 1118.858709
_symmetry_space_group_name_H-M "P -4 M 2"
_symmetry_group_IT_number 115
_symmetry_cell_setting 'tetragonal'
loop_
_space_group_symop_operation_xyz
x,y,z
y,-x,-z
-x,-y,z
-y,x,-z
y,x,-z
-y,-x,-z
-x,y,z
x,-y,z
loop_
_atom_site_type_symbol
_atom_site_label
_atom_site_fract_x
_atom_site_fract_y
_atom_site_fract_z
Si Si1 0.000000 0.819215 0.339642
Si Si2 0.691158 0.187927 0.914257
Si Si3 0.000000 0.000000 0.500000
Si Si4 0.322272 0.694318 0.257039
O O1 0.166237 0.740349 0.310192
O O2 0.000000 0.849484 0.437682
O O3 0.000000 0.000000 0.303215
O O4 0.500000 0.219749 0.925412
O O5 0.750172 0.290616 0.836623
O O6 0.709999 0.000000 0.892382
O O7 0.775094 0.224907 0.000000
O O8 0.500000 0.750515 0.285335
O O9 0.325036 0.500000 0.254500
#
# Coordination Sequence:
#
# PCOD9556923 Si02
#       4
#     4   8   1   8
#     4  10  21  41  64  87 122 155 195 247 307 383
#     4  10  20  34  52  78 118 165 211 259 304 352
#     4   8  24  44  64  88 118 160 184 228 320 380
#     4  10  20  37  63  91 122 164 210 257 307 362
#
# _framework density 18.769124000000001
#
# number of rings (size 3 to 8) (size 9 to 14) (size 15 to 20)
#    0.571    1.524    1.905    1.714    0.000    4.571 
#    0.000    3.810    0.000    2.286    0.000    0.000 
#    0.000    0.000    0.000    0.000    0.000    0.000 
#
# Total GULP energy -117025.162145 kJ/mol
# GULP energy per Si atom -5572.626769 kJ/mol
# Density = 1.872640 g / cm^3
# Si number density = 18.769124 Si / 1000 Ang^3
#
#
#
# Elastic Constant Matrix: (Units=GPa)
#
#
# Indices 1 2 3 4 5 6 
#
# 1 74.7936 39.6286 38.1848 0.0000 0.0000 0.0000
# 2 39.6286 74.7972 38.1863 0.0000 0.0000 0.0000
# 3 38.1848 38.1863 110.3930 0.0000 0.0000 0.0000
# 4 0.0000 0.0000 0.0000 6.5393 0.0000 0.0000
# 5 0.0000 0.0000 0.0000 0.0000 6.5398 0.0000
# 6 0.0000 0.0000 0.0000 0.0000 0.0000 22.7359
#
#
#
# Elastic Compliance Matrix: (Units=1/GPa)
#
#
# Indices 1 2 3 4 5 6 
#
# 1 0.019900 -0.008537 -0.003930 0.000000 0.000000 0.000000
# 2 -0.008537 0.019899 -0.003930 0.000000 0.000000 0.000000
# 3 -0.003930 -0.003930 0.011778 0.000000 0.000000 0.000000
# 4 0.000000 0.000000 0.000000 0.152922 0.000000 0.000000
# 5 0.000000 0.000000 0.000000 0.000000 0.152910 0.000000
# 6 0.000000 0.000000 0.000000 0.000000 0.000000 0.043983
#
#
# Mechanical properties :
#
#
# Convention : Reuss Voigt Hill
#
# Bulk Modulus (GPa) = 53.24410 54.66479 53.95445
# Shear Modulus (GPa) = 11.35210 16.76194 14.05702
#
# Velocity S-wave (km/s) = 2.46199 2.99165 2.73965
# Velocity P-wave (km/s) = 6.04247 6.41260 6.23028
#
# Compressibility (1/GPa) = 0.01878142
#
# Stress axis : x y z
#
# Youngs Moduli (GPa) = 50.25188 50.25400 84.90651
#
# Poissons Ratio (x) = 0.42900 0.33372
# Poissons Ratio (y) = 0.42898 0.33372
# Poissons Ratio (z) = 0.19751 0.19752
#
# Static dielectric constant tensor:
#      x y z
#    x 1.693540 0.000000 0.000000 
#    y 0.000000 1.693540 0.000000 
#    z 0.000000 0.000000 1.639460 
# 
# From -- ./inp_files/3343.got.cif
#   From: 2010.05.17/outbox.cif.g08.bks.cpg/sg115_2_cif.got.tgz:3343.got - 2010.05.20 11:07:42.
