data_PCOD9556545
_publ_section_title
;
Structure prediction by ZEFSAII (Michael W. Deem and Ramdas Pophale) SiO2 
 PCOD9556545
Probable space group: P -4 M 2
;
_chemical_formula_sum "Si O2"
_cell_formula_units_Z 52
_cell_length_a 18.178650
_cell_length_b 18.178650
_cell_length_c 8.793908
_cell_angle_alpha 90.000000
_cell_angle_beta 90.000000
_cell_angle_gamma 90.000000
_cell_volume 2906.063997
_symmetry_space_group_name_H-M "P -4 M 2"
_symmetry_group_IT_number 115
_symmetry_cell_setting 'tetragonal'
loop_
_space_group_symop_operation_xyz
x,y,z
y,-x,-z
-x,-y,z
-y,x,-z
y,x,-z
-y,-x,-z
-x,y,z
x,-y,z
loop_
_atom_site_type_symbol
_atom_site_label
_atom_site_fract_x
_atom_site_fract_y
_atom_site_fract_z
Si Si1 0.149717 0.764394 0.890118
Si Si2 0.161173 0.584743 0.428860
Si Si3 0.000000 0.420365 0.016108
Si Si4 0.583127 0.000000 0.470913
Si Si5 0.753645 0.316790 0.649606
Si Si6 0.289154 0.000000 0.223249
Si Si7 0.690999 0.415383 0.907089
Si Si8 0.163543 0.379825 0.094954
O O1 0.210148 0.743764 0.761384
O O2 0.072412 0.759532 0.803210
O O3 0.166875 0.833126 0.000000
O O4 0.154068 0.698014 0.012147
O O5 0.186598 0.500000 0.435969
O O6 0.184834 0.629235 0.578016
O O7 0.187279 0.620155 0.270833
O O8 0.073289 0.585393 0.431152
O O9 0.918372 0.415700 0.091765
O O10 0.000000 0.500000 0.939188
O O11 0.000000 0.350582 0.907804
O O12 0.656722 0.000000 0.368257
O O13 0.500000 0.000000 0.398275
O O14 0.716007 0.283994 0.500000
O O15 0.703568 0.368787 0.753745
O O16 0.670770 0.500000 0.880301
O O17 0.629884 0.370117 0.000000
O O18 0.769526 0.414836 0.997989
#
# Coordination Sequence:
#
# PCOD9556545 Si02
#       8
#     8   8   4   4   8   4   8   8
#     4  10  20  36  56  78 107 146 189 228 277 328
#     4  11  20  31  49  75 111 147 181 216 266 329
#     4  10  18  28  49  77 110 148 180 211 260 322
#     4  10  20  32  47  77 118 155 180 213 267 337
#     4  11  21  35  55  79 110 141 178 225 284 347
#     4  10  19  34  50  77 110 141 184 230 265 332
#     4  11  23  40  59  77 101 136 189 243 294 341
#     4  10  20  34  53  81 113 148 186 228 268 334
#
# _framework density 17.893616999999999
#
# number of rings (size 3 to 8) (size 9 to 14) (size 15 to 20)
#    0.000    1.538    1.538    6.231    0.000    0.769 
#    0.000    0.769    0.000    0.231    0.000    0.000 
#    0.000    0.000    0.000    0.000    0.000    0.000 
#
# Total GULP energy -289576.810449 kJ/mol
# GULP energy per Si atom -5568.784816 kJ/mol
# Density = 1.785289 g / cm^3
# Si number density = 17.893617 Si / 1000 Ang^3
#
#
#
# Elastic Constant Matrix: (Units=GPa)
#
#
# Indices 1 2 3 4 5 6 
#
# 1 69.3051 41.6569 30.6377 0.0000 0.0000 0.0000
# 2 41.6569 69.3018 30.6368 0.0000 0.0000 0.0000
# 3 30.6377 30.6368 106.5179 0.0000 0.0000 0.0000
# 4 0.0000 0.0000 0.0000 22.1680 0.0000 0.0000
# 5 0.0000 0.0000 0.0000 0.0000 22.1683 0.0000
# 6 0.0000 0.0000 0.0000 0.0000 0.0000 16.9659
#
#
#
# Elastic Compliance Matrix: (Units=1/GPa)
#
#
# Indices 1 2 3 4 5 6 
#
# 1 0.023442 -0.012728 -0.003082 0.000000 0.000000 0.000000
# 2 -0.012728 0.023443 -0.003082 0.000000 0.000000 0.000000
# 3 -0.003082 -0.003082 0.011161 0.000000 0.000000 0.000000
# 4 0.000000 0.000000 0.000000 0.045110 0.000000 0.000000
# 5 0.000000 0.000000 0.000000 0.000000 0.045109 0.000000
# 6 0.000000 0.000000 0.000000 0.000000 0.000000 0.058942
#
#
# Mechanical properties :
#
#
# Convention : Reuss Voigt Hill
#
# Bulk Modulus (GPa) = 49.35279 50.10972 49.73125
# Shear Modulus (GPa) = 19.86143 21.74001 20.80072
#
# Velocity S-wave (km/s) = 3.33524 3.48941 3.41319
# Velocity P-wave (km/s) = 6.51712 6.65580 6.58682
#
# Compressibility (1/GPa) = 0.02026228
#
# Stress axis : x y z
#
# Youngs Moduli (GPa) = 42.65870 42.65678 89.59942
#
# Poissons Ratio (x) = 0.54295 0.27611
# Poissons Ratio (y) = 0.54298 0.27611
# Poissons Ratio (z) = 0.13146 0.13145
#
# Static dielectric constant tensor:
#      x y z
#    x 1.631490 0.000000 0.000000 
#    y 0.000000 1.631490 0.000000 
#    z 0.000000 0.000000 1.618770 
# 
# From -- ./inp_files/1928.got.cif
#   From: 2010.05.17/outbox.cif.g08.bks.cpg/sg115_1_cif.got.tgz:1928.got - 2010.05.20 11:07:42.
