data_PCOD9556332
_publ_section_title
;
Structure prediction by ZEFSAII (Michael W. Deem and Ramdas Pophale) SiO2 
 PCOD9556332
Probable space group: P -4 21 C
;
_chemical_formula_sum "Si O2"
_cell_formula_units_Z 36
_cell_length_a 9.018095
_cell_length_b 9.018095
_cell_length_c 20.125675
_cell_angle_alpha 90.000000
_cell_angle_beta 90.000000
_cell_angle_gamma 90.000000
_cell_volume 1636.741398
_symmetry_space_group_name_H-M "P -4 21 C"
_symmetry_group_IT_number 114
_symmetry_cell_setting 'tetragonal'
loop_
_space_group_symop_operation_xyz
x,y,z
y,-x,-z
-x,-y,z
-y,x,-z
1/2+x,1/2-y,1/2-z
1/2-x,1/2+y,1/2-z
1/2-y,1/2-x,1/2+z
1/2+y,1/2+x,1/2+z
loop_
_atom_site_type_symbol
_atom_site_label
_atom_site_fract_x
_atom_site_fract_y
_atom_site_fract_z
Si Si1 0.171372 0.094714 0.358299
Si Si2 0.224955 0.347455 0.052379
Si Si3 0.325501 0.008116 0.827988
Si Si4 0.006385 0.660847 0.419205
Si Si5 0.000000 0.000000 0.242075
O O1 0.323645 0.180044 0.351983
O O2 0.044613 0.215427 0.367773
O O3 0.140091 0.999768 0.292426
O O4 0.180015 0.988884 0.422039
O O5 0.100619 0.330958 0.108681
O O6 0.332920 0.207131 0.053647
O O7 0.163620 0.392114 0.980970
O O8 0.500000 0.000000 0.798969
O O9 0.162929 0.985239 0.793049
O O10 0.000000 0.500000 0.388189
#
# Coordination Sequence:
#
# PCOD9556332 Si02
#       5
#     8   8   8   8   4
#     4  11  24  44  67 102 134 183 237 295 360 435
#     4  11  23  47  68 102 139 184 232 306 367 444
#     4  10  27  47  69  97 149 189 246 301 371 441
#     4  12  24  40  75 102 138 181 241 297 377 443
#     4  12  26  44  75 101 144 196 244 302 368 448
#
# _framework density 21.994921999999999
#
# number of rings (size 3 to 8) (size 9 to 14) (size 15 to 20)
#    0.000    0.889    4.444    2.000    9.333    0.889 
#    0.000    0.000    0.000    0.000    0.000    0.000 
#    0.000    0.000    0.000    0.000    0.000    0.000 
#
# Total GULP energy -200647.449906 kJ/mol
# GULP energy per Si atom -5573.540275 kJ/mol
# Density = 2.194486 g / cm^3
# Si number density = 21.994922 Si / 1000 Ang^3
#
#
#
# Elastic Constant Matrix: (Units=GPa)
#
#
# Indices 1 2 3 4 5 6 
#
# 1 107.3285 25.2818 26.6713 0.0000 0.0000 0.0000
# 2 25.2818 107.3285 26.6713 0.0000 0.0000 0.0000
# 3 26.6713 26.6713 62.6704 0.0000 0.0000 0.0000
# 4 0.0000 0.0000 0.0000 33.7348 0.0000 0.0000
# 5 0.0000 0.0000 0.0000 0.0000 33.7348 0.0000
# 6 0.0000 0.0000 0.0000 0.0000 0.0000 21.8114
#
#
#
# Elastic Compliance Matrix: (Units=1/GPa)
#
#
# Indices 1 2 3 4 5 6 
#
# 1 0.010643 -0.001545 -0.003872 0.000000 0.000000 0.000000
# 2 -0.001545 0.010643 -0.003872 0.000000 0.000000 0.000000
# 3 -0.003872 -0.003872 0.019252 0.000000 0.000000 0.000000
# 4 0.000000 0.000000 0.000000 0.029643 0.000000 0.000000
# 5 0.000000 0.000000 0.000000 0.000000 0.029643 0.000000
# 6 0.000000 0.000000 0.000000 0.000000 0.000000 0.045848
#
#
# Mechanical properties :
#
#
# Convention : Reuss Voigt Hill
#
# Bulk Modulus (GPa) = 45.53585 48.28623 46.91104
# Shear Modulus (GPa) = 29.14249 31.10310 30.12279
#
# Velocity S-wave (km/s) = 3.64396 3.76454 3.70474
# Velocity P-wave (km/s) = 6.20100 6.39505 6.29877
#
# Compressibility (1/GPa) = 0.02196072
#
# Stress axis : x y z
#
# Youngs Moduli (GPa) = 93.95571 93.95571 51.94182
#
# Poissons Ratio (x) = 0.14515 0.20113
# Poissons Ratio (y) = 0.14515 0.20113
# Poissons Ratio (z) = 0.36381 0.36381
#
# Static dielectric constant tensor:
#      x y z
#    x 1.875380 0.000000 0.000000 
#    y 0.000000 1.875380 0.000000 
#    z 0.000000 0.000000 1.795060 
# 
# From -- ./inp_files/2957.got.cif
#   From: 2010.05.17/outbox.cif.g08.bks.cpg/sg114_2_cif.got.tgz:2957.got - 2010.05.20 11:04:54.
