data_PCOD9556145
_publ_section_title
;
Structure prediction by ZEFSAII (Michael W. Deem and Ramdas Pophale) SiO2 
 PCOD9556145
Probable space group: P -4 21 C
;
_chemical_formula_sum "Si O2"
_cell_formula_units_Z 26
_cell_length_a 9.830460
_cell_length_b 9.830460
_cell_length_c 12.362826
_cell_angle_alpha 90.000000
_cell_angle_beta 90.000000
_cell_angle_gamma 90.000000
_cell_volume 1194.718084
_symmetry_space_group_name_H-M "P -4 21 C"
_symmetry_group_IT_number 114
_symmetry_cell_setting 'tetragonal'
loop_
_space_group_symop_operation_xyz
x,y,z
y,-x,-z
-x,-y,z
-y,x,-z
1/2+x,1/2-y,1/2-z
1/2-x,1/2+y,1/2-z
1/2-y,1/2-x,1/2+z
1/2+y,1/2+x,1/2+z
loop_
_atom_site_type_symbol
_atom_site_label
_atom_site_fract_x
_atom_site_fract_y
_atom_site_fract_z
Si Si1 0.459903 0.226841 0.099101
Si Si2 0.156477 0.043934 0.826953
Si Si3 0.500000 0.500000 0.000000
Si Si4 0.729729 0.162563 0.005243
O O1 0.454339 0.234982 0.228608
O O2 0.309266 0.232951 0.048705
O O3 0.526891 0.373321 0.074216
O O4 0.571242 0.138254 0.035340
O O5 0.212190 0.945734 0.920807
O O6 0.149806 0.191854 0.881410
O O7 0.000000 0.000000 0.800700
#
# Coordination Sequence:
#
# PCOD9556145 Si02
#       4
#     8   8   2   8
#     4  10  22  39  66  93 127 172 213 263 319 377
#     4  12  22  44  68  92 133 178 212 258 331 391
#     4   8  16  36  60  86 124 164 216 244 304 394
#     4  11  23  43  65 100 130 164 221 269 315 387
#
# _framework density 21.762454999999999
#
# number of rings (size 3 to 8) (size 9 to 14) (size 15 to 20)
#    0.000    1.231    4.615    1.846    0.000    1.231 
#    0.000    3.077    0.000    0.000    0.000    0.000 
#    0.000    0.000    0.000    0.000    0.000    0.000 
#
# Total GULP energy -144857.803269 kJ/mol
# GULP energy per Si atom -5571.453972 kJ/mol
# Density = 2.171292 g / cm^3
# Si number density = 21.762455 Si / 1000 Ang^3
#
#
#
# Elastic Constant Matrix: (Units=GPa)
#
#
# Indices 1 2 3 4 5 6 
#
# 1 79.3946 12.9204 8.9256 0.0000 0.0000 0.0000
# 2 12.9204 79.3946 8.9256 0.0000 0.0000 0.0000
# 3 8.9256 8.9256 82.6474 0.0000 0.0000 0.0000
# 4 0.0000 0.0000 0.0000 -4.0117 0.0000 0.0000
# 5 0.0000 0.0000 0.0000 0.0000 -4.0117 0.0000
# 6 0.0000 0.0000 0.0000 0.0000 0.0000 25.1311
#
#
#
# Elastic Compliance Matrix: (Units=1/GPa)
#
#
# Indices 1 2 3 4 5 6 
#
# 1 0.013053 -0.001990 -0.001195 0.000000 0.000000 0.000000
# 2 -0.001990 0.013053 -0.001195 0.000000 0.000000 0.000000
# 3 -0.001195 -0.001195 0.012358 0.000000 0.000000 0.000000
# 4 0.000000 0.000000 0.000000 -0.249272 0.000000 0.000000
# 5 0.000000 0.000000 0.000000 0.000000 -0.249272 0.000000
# 6 0.000000 0.000000 0.000000 0.000000 0.000000 0.039791
#
#
# Mechanical properties :
#
#
# Convention : Reuss Voigt Hill
#
# Bulk Modulus (GPa) = 33.66385 33.66441 33.66413
# Shear Modulus (GPa) = -12.44934 17.46587 2.50827
#
# Velocity S-wave (km/s) = -2.39436 2.83604 1.07474
# Velocity P-wave (km/s) = 2.80328 5.12121 4.12827
#
# Compressibility (1/GPa) = 0.02970545
#
# Stress axis : x y z
#
# Youngs Moduli (GPa) = 76.60792 76.60792 80.92138
#
# Poissons Ratio (x) = 0.15245 0.09669
# Poissons Ratio (y) = 0.15245 0.09669
# Poissons Ratio (z) = 0.09153 0.09153
#
# Static dielectric constant tensor:
#      x y z
#    x 1.871850 0.000000 0.000000 
#    y 0.000000 1.871850 0.000000 
#    z 0.000000 0.000000 1.818070 
# 
# From -- ./inp_files/1251.got.cif
#   From: 2010.05.17/outbox.cif.g08.bks.cpg/sg114_1_cif.got.tgz:1251.got - 2010.05.20 11:04:54.
