data_PCOD9556574
_publ_section_title
;
Structure prediction by ZEFSAII (Michael W. Deem and Ramdas Pophale) SiO2 
 PCOD9556574
Probable space group: P -4 M 2
;
_chemical_formula_sum "Si O2"
_cell_formula_units_Z 56
_cell_length_a 14.202115
_cell_length_b 14.202115
_cell_length_c 16.151144
_cell_angle_alpha 90.000000
_cell_angle_beta 90.000000
_cell_angle_gamma 90.000000
_cell_volume 3257.686883
_symmetry_space_group_name_H-M "P -4 M 2"
_symmetry_group_IT_number 115
_symmetry_cell_setting 'tetragonal'
loop_
_space_group_symop_operation_xyz
x,y,z
y,-x,-z
-x,-y,z
-y,x,-z
y,x,-z
-y,-x,-z
-x,y,z
x,-y,z
loop_
_atom_site_type_symbol
_atom_site_label
_atom_site_fract_x
_atom_site_fract_y
_atom_site_fract_z
Si Si1 0.393576 0.885771 0.167950
Si Si2 0.718083 0.612225 0.574080
Si Si3 0.299137 0.613995 0.083230
Si Si4 0.610064 0.387458 0.744326
Si Si5 0.113200 0.895946 0.596340
Si Si6 0.106664 0.385403 0.014319
Si Si7 0.886437 0.698943 0.658294
O O1 0.500000 0.848279 0.176053
O O2 0.337668 0.863226 0.250258
O O3 0.399608 0.000000 0.165313
O O4 0.353842 0.861512 0.077771
O O5 0.670574 0.670574 0.500000
O O6 0.708767 0.500000 0.559512
O O7 0.664970 0.636077 0.660396
O O8 0.826317 0.640209 0.591885
O O9 0.307087 0.500000 0.081577
O O10 0.343301 0.646553 0.169897
O O11 0.188920 0.640087 0.077010
O O12 0.348882 0.651119 0.000000
O O13 0.500000 0.360644 0.734518
O O14 0.614020 0.500000 0.753841
O O15 0.128572 0.871429 0.500000
O O16 0.143696 0.807586 0.649694
O O17 0.000000 0.902158 0.605222
O O18 0.152325 0.000000 0.614045
O O19 0.103566 0.500000 0.009640
O O20 0.000000 0.353636 0.032034
O O21 0.000000 0.691072 0.645740
#
# Coordination Sequence:
#
# PCOD9556574 Si02
#       7
#     8   8   8   8   8   8   8
#     4   8  14  25  41  65  97 127 156 197 252 306
#     4  11  23  37  55  75  99 137 181 216 253 309
#     4  10  19  29  47  74 102 130 160 199 251 307
#     4   9  19  35  52  72  99 128 164 212 256 300
#     4   8  14  26  44  65  92 126 160 197 248 307
#     4   8  15  28  46  68  96 131 166 199 242 301
#     4  10  19  30  49  77 103 127 162 213 266 308
#
# _framework density 17.190110000000001
#
# number of rings (size 3 to 8) (size 9 to 14) (size 15 to 20)
#    0.000    2.857    0.000    3.000    2.000    2.286 
#    0.000    0.000    0.000    1.714    0.000    2.000 
#    0.000    0.286    0.000    0.000    0.000    0.000 
#
# Total GULP energy -311978.900586 kJ/mol
# GULP energy per Si atom -5571.051796 kJ/mol
# Density = 1.715098 g / cm^3
# Si number density = 17.190110 Si / 1000 Ang^3
#
#
#
# Elastic Constant Matrix: (Units=GPa)
#
#
# Indices 1 2 3 4 5 6 
#
# 1 60.1452 17.5185 43.2414 0.0000 0.0000 0.0000
# 2 17.5185 60.1458 43.2408 0.0000 0.0000 0.0000
# 3 43.2414 43.2408 99.2435 0.0000 0.0000 0.0000
# 4 0.0000 0.0000 0.0000 18.0066 0.0000 0.0000
# 5 0.0000 0.0000 0.0000 0.0000 18.0066 0.0000
# 6 0.0000 0.0000 0.0000 0.0000 0.0000 13.1942
#
#
#
# Elastic Compliance Matrix: (Units=1/GPa)
#
#
# Indices 1 2 3 4 5 6 
#
# 1 0.024235 0.000776 -0.010897 0.000000 0.000000 0.000000
# 2 0.000776 0.024235 -0.010897 0.000000 0.000000 0.000000
# 3 -0.010897 -0.010897 0.019572 0.000000 0.000000 0.000000
# 4 0.000000 0.000000 0.000000 0.055535 0.000000 0.000000
# 5 0.000000 0.000000 0.000000 0.000000 0.055535 0.000000
# 6 0.000000 0.000000 0.000000 0.000000 0.000000 0.075791
#
#
# Mechanical properties :
#
#
# Convention : Reuss Voigt Hill
#
# Bulk Modulus (GPa) = 38.45520 47.50397 42.97959
# Shear Modulus (GPa) = 16.36074 17.54372 16.95223
#
# Velocity S-wave (km/s) = 3.08840 3.19810 3.14373
# Velocity P-wave (km/s) = 5.92762 6.42897 6.18338
#
# Compressibility (1/GPa) = 0.02600429
#
# Stress axis : x y z
#
# Youngs Moduli (GPa) = 41.26226 41.26331 51.09275
#
# Poissons Ratio (x) = -0.03201 0.55678
# Poissons Ratio (y) = -0.03200 0.55676
# Poissons Ratio (z) = 0.44965 0.44965
#
# Static dielectric constant tensor:
#      x y z
#    x 1.615330 0.000000 0.000000 
#    y 0.000000 1.615330 0.000000 
#    z 0.000000 0.000000 1.577730 
# 
# From -- ./inp_files/3843.got.cif
#   From: 2010.05.17/outbox.cif.g08.bks.cpg/sg115_2_cif.got.tgz:3843.got - 2010.05.20 11:07:42.
