data_PCOD9556197
_publ_section_title
;
Structure prediction by ZEFSAII (Michael W. Deem and Ramdas Pophale) SiO2 
 PCOD9556197
Probable space group: P -4 21 C
;
_chemical_formula_sum "Si O2"
_cell_formula_units_Z 40
_cell_length_a 11.481057
_cell_length_b 11.481057
_cell_length_c 15.049481
_cell_angle_alpha 90.000000
_cell_angle_beta 90.000000
_cell_angle_gamma 90.000000
_cell_volume 1983.742369
_symmetry_space_group_name_H-M "P -4 21 C"
_symmetry_group_IT_number 114
_symmetry_cell_setting 'tetragonal'
loop_
_space_group_symop_operation_xyz
x,y,z
y,-x,-z
-x,-y,z
-y,x,-z
1/2+x,1/2-y,1/2-z
1/2-x,1/2+y,1/2-z
1/2-y,1/2-x,1/2+z
1/2+y,1/2+x,1/2+z
loop_
_atom_site_type_symbol
_atom_site_label
_atom_site_fract_x
_atom_site_fract_y
_atom_site_fract_z
Si Si1 0.669045 0.395967 0.500596
Si Si2 0.325719 0.468994 0.025288
Si Si3 0.098217 0.662098 0.845421
Si Si4 0.597010 0.163459 0.115297
Si Si5 0.334240 0.224761 0.850013
O O1 0.537295 0.345838 0.500301
O O2 0.734952 0.360419 0.409760
O O3 0.751550 0.352221 0.583379
O O4 0.271726 0.550505 0.100314
O O5 0.383838 0.564908 0.957357
O O6 0.222785 0.393675 0.981842
O O7 0.149827 0.539533 0.874925
O O8 0.126845 0.669876 0.741961
O O9 0.960414 0.651920 0.864386
O O10 0.662353 0.257281 0.174877
#
# Coordination Sequence:
#
# PCOD9556197 Si02
#       5
#     8   8   8   8   8
#     4  11  24  47  69  99 140 187 230 282 349 417
#     4   9  19  39  66  93 125 170 215 277 347 401
#     4  11  24  42  64  99 132 172 227 279 335 412
#     4  10  22  44  60  93 134 163 223 280 328 411
#     4  11  23  42  67  98 130 181 219 284 347 401
#
# _framework density 20.163907999999999
#
# number of rings (size 3 to 8) (size 9 to 14) (size 15 to 20)
#    0.000    1.600    4.000    0.000    2.800    1.600 
#    7.200    2.000    0.000    0.000    0.000    0.000 
#    0.000    0.000    0.000    0.000    0.000    0.000 
#
# Total GULP energy -222754.970988 kJ/mol
# GULP energy per Si atom -5568.874275 kJ/mol
# Density = 2.011801 g / cm^3
# Si number density = 20.163908 Si / 1000 Ang^3
#
#
#
# Elastic Constant Matrix: (Units=GPa)
#
#
# Indices 1 2 3 4 5 6 
#
# 1 66.3041 12.0305 36.9769 0.0000 0.0000 0.0000
# 2 12.0305 66.3041 36.9769 0.0000 0.0000 0.0000
# 3 36.9769 36.9769 86.7796 0.0000 0.0000 0.0000
# 4 0.0000 0.0000 0.0000 11.7057 0.0000 0.0000
# 5 0.0000 0.0000 0.0000 0.0000 11.7057 0.0000
# 6 0.0000 0.0000 0.0000 0.0000 0.0000 17.5694
#
#
#
# Elastic Compliance Matrix: (Units=1/GPa)
#
#
# Indices 1 2 3 4 5 6 
#
# 1 0.019891 0.001466 -0.009100 0.000000 0.000000 0.000000
# 2 0.001466 0.019891 -0.009100 0.000000 0.000000 0.000000
# 3 -0.009100 -0.009100 0.019279 0.000000 0.000000 0.000000
# 4 0.000000 0.000000 0.000000 0.085428 0.000000 0.000000
# 5 0.000000 0.000000 0.000000 0.000000 0.085428 0.000000
# 6 0.000000 0.000000 0.000000 0.000000 0.000000 0.056917
#
#
# Mechanical properties :
#
#
# Convention : Reuss Voigt Hill
#
# Bulk Modulus (GPa) = 39.07499 43.48401 41.27950
# Shear Modulus (GPa) = 15.20521 17.08974 16.14748
#
# Velocity S-wave (km/s) = 2.74903 2.91441 2.83293
# Velocity P-wave (km/s) = 5.43111 5.73909 5.58722
#
# Compressibility (1/GPa) = 0.02559182
#
# Stress axis : x y z
#
# Youngs Moduli (GPa) = 50.27364 50.27364 51.87063
#
# Poissons Ratio (x) = -0.07370 0.47204
# Poissons Ratio (y) = -0.07370 0.47204
# Poissons Ratio (z) = 0.45750 0.45750
#
# Static dielectric constant tensor:
#      x y z
#    x 1.766600 0.000000 0.000000 
#    y 0.000000 1.766600 0.000000 
#    z 0.000000 0.000000 1.709090 
# 
# From -- ./inp_files/2113.got.cif
#   From: 2010.05.17/outbox.cif.g08.bks.cpg/sg114_2_cif.got.tgz:2113.got - 2010.05.20 11:04:54.
