data_PCOD9556242
_publ_section_title
;
Structure prediction by ZEFSAII (Michael W. Deem and Ramdas Pophale) SiO2 
 PCOD9556242
Probable space group: P -4 21 C
;
_chemical_formula_sum "Si O2"
_cell_formula_units_Z 56
_cell_length_a 13.347432
_cell_length_b 13.347432
_cell_length_c 13.287311
_cell_angle_alpha 90.000000
_cell_angle_beta 90.000000
_cell_angle_gamma 90.000000
_cell_volume 2367.186820
_symmetry_space_group_name_H-M "P -4 21 C"
_symmetry_group_IT_number 114
_symmetry_cell_setting 'tetragonal'
loop_
_space_group_symop_operation_xyz
x,y,z
y,-x,-z
-x,-y,z
-y,x,-z
1/2+x,1/2-y,1/2-z
1/2-x,1/2+y,1/2-z
1/2-y,1/2-x,1/2+z
1/2+y,1/2+x,1/2+z
loop_
_atom_site_type_symbol
_atom_site_label
_atom_site_fract_x
_atom_site_fract_y
_atom_site_fract_z
Si Si1 0.861086 0.921771 0.524466
Si Si2 0.140321 0.562343 0.779856
Si Si3 0.624292 0.647892 0.259084
Si Si4 0.936038 0.646677 0.034850
Si Si5 0.969749 0.870641 0.063520
Si Si6 0.942447 0.348381 0.524531
Si Si7 0.152062 0.427929 0.293027
O O1 0.761202 0.895861 0.461447
O O2 0.958417 0.871661 0.478159
O O3 0.866749 0.898201 0.642045
O O4 0.232376 0.619239 0.731066
O O5 0.136363 0.443593 0.753744
O O6 0.039235 0.622320 0.758291
O O7 0.148153 0.560103 0.901809
O O8 0.536957 0.611573 0.336302
O O9 0.735203 0.605776 0.274060
O O10 0.922311 0.760908 0.067183
O O11 0.050144 0.612405 0.058274
O O12 0.929438 0.645588 0.913881
O O13 0.885136 0.950510 0.029389
O O14 0.057338 0.359632 0.562512
#
# Coordination Sequence:
#
# PCOD9556242 Si02
#       7
#     8   8   8   8   8   8   8
#     4  10  23  44  64  89 124 167 222 279 330 391
#     4   8  18  38  67 100 127 172 226 264 324 392
#     4  11  22  44  66  94 131 173 223 273 345 395
#     4   9  17  38  64  94 126 170 211 259 328 395
#     4  11  24  40  59  94 137 168 208 267 335 412
#     4   8  17  37  68  90 122 168 218 269 317 384
#     4   9  17  40  69  93 136 172 215 278 318 385
#
# _framework density 23.656772
#
# number of rings (size 3 to 8) (size 9 to 14) (size 15 to 20)
#    0.000    2.571    1.429    1.714    0.000    3.429 
#   15.429    4.286    0.000    0.000    0.000    0.000 
#    0.000    0.000    0.000    0.000    0.000    0.000 
#
# Total GULP energy -312746.970157 kJ/mol
# GULP energy per Si atom -5584.767324 kJ/mol
# Density = 2.360293 g / cm^3
# Si number density = 23.656772 Si / 1000 Ang^3
#
#
#
# Elastic Constant Matrix: (Units=GPa)
#
#
# Indices 1 2 3 4 5 6 
#
# 1 80.5124 8.8610 23.0628 0.0000 0.0000 0.0000
# 2 8.8610 80.5124 23.0628 0.0000 0.0000 0.0000
# 3 23.0628 23.0628 60.2732 0.0000 0.0000 0.0000
# 4 0.0000 0.0000 0.0000 34.6621 0.0000 0.0000
# 5 0.0000 0.0000 0.0000 0.0000 34.6621 0.0000
# 6 0.0000 0.0000 0.0000 0.0000 0.0000 16.8902
#
#
#
# Elastic Compliance Matrix: (Units=1/GPa)
#
#
# Indices 1 2 3 4 5 6 
#
# 1 0.013949 -0.000007 -0.005335 0.000000 0.000000 0.000000
# 2 -0.000007 0.013949 -0.005335 0.000000 0.000000 0.000000
# 3 -0.005335 -0.005335 0.020674 0.000000 0.000000 0.000000
# 4 0.000000 0.000000 0.000000 0.028850 0.000000 0.000000
# 5 0.000000 0.000000 0.000000 0.000000 0.028850 0.000000
# 6 0.000000 0.000000 0.000000 0.000000 0.000000 0.059206
#
#
# Mechanical properties :
#
#
# Convention : Reuss Voigt Hill
#
# Bulk Modulus (GPa) = 36.73910 36.80794 36.77352
# Shear Modulus (GPa) = 25.52258 28.33031 26.92644
#
# Velocity S-wave (km/s) = 3.28818 3.46433 3.37740
# Velocity P-wave (km/s) = 5.47539 5.62094 5.54865
#
# Compressibility (1/GPa) = 0.02721896
#
# Stress axis : x y z
#
# Youngs Moduli (GPa) = 71.68772 71.68772 48.37051
#
# Poissons Ratio (x) = 0.00051 0.25805
# Poissons Ratio (y) = 0.00051 0.25805
# Poissons Ratio (z) = 0.38244 0.38244
#
# Static dielectric constant tensor:
#      x y z
#    x 1.883390 0.000000 0.000000 
#    y 0.000000 1.883390 0.000000 
#    z 0.000000 0.000000 1.980910 
# 
# From -- ./inp_files/1795.got.cif
#   From: 2010.05.17/outbox.cif.g08.bks.cpg/sg114_1_cif.got.tgz:1795.got - 2010.05.20 11:04:54.
