data_PCOD9556927
_publ_section_title
;
Structure prediction by ZEFSAII (Michael W. Deem and Ramdas Pophale) SiO2 
 PCOD9556927
Probable space group: P -4 M 2
;
_chemical_formula_sum "Si O2"
_cell_formula_units_Z 48
_cell_length_a 9.288238
_cell_length_b 9.288238
_cell_length_c 32.254078
_cell_angle_alpha 90.000000
_cell_angle_beta 90.000000
_cell_angle_gamma 90.000000
_cell_volume 2782.603341
_symmetry_space_group_name_H-M "P -4 M 2"
_symmetry_group_IT_number 115
_symmetry_cell_setting 'tetragonal'
loop_
_space_group_symop_operation_xyz
x,y,z
y,-x,-z
-x,-y,z
-y,x,-z
y,x,-z
-y,-x,-z
-x,y,z
x,-y,z
loop_
_atom_site_type_symbol
_atom_site_label
_atom_site_fract_x
_atom_site_fract_y
_atom_site_fract_z
Si Si1 0.172573 0.670070 0.295592
Si Si2 0.833194 0.175569 0.045427
Si Si3 0.328467 0.829121 0.127974
Si Si4 0.824790 0.834530 0.378366
Si Si5 0.172559 0.670737 0.462254
Si Si6 0.328367 0.329277 0.788613
O O1 0.203003 0.500000 0.301916
O O2 0.221451 0.758820 0.335748
O O3 0.247478 0.717110 0.253019
O O4 0.000000 0.685243 0.291580
O O5 0.745718 0.222348 0.085664
O O6 0.000000 0.217945 0.049798
O O7 0.829423 0.000000 0.044245
O O8 0.777936 0.222065 0.000000
O O9 0.500000 0.808264 0.124395
O O10 0.278761 0.749806 0.169615
O O11 0.301182 0.000000 0.132135
O O12 0.782856 0.744878 0.418992
O O13 0.000000 0.834173 0.377740
O O14 0.777129 0.000000 0.380947
O O15 0.255288 0.744713 0.500000
O O16 0.198592 0.500000 0.460798
O O17 0.000000 0.692795 0.467328
O O18 0.500000 0.309636 0.793289
O O19 0.300365 0.500000 0.783812
#
# Coordination Sequence:
#
# PCOD9556927 Si02
#       6
#     8   8   8   8   8   8
#     4   9  17  30  48  69  93 121 154 192 232 274
#     4   8  14  26  44  64  86 113 144 178 219 267
#     4   9  17  29  45  64  86 113 146 183 221 262
#     4   9  17  30  50  75 100 126 158 197 240 284
#     4  10  20  34  53  76 102 133 168 204 243 288
#     4   9  18  32  47  63  88 122 153 181 222 275
#
# _framework density 17.250033999999999
#
# number of rings (size 3 to 8) (size 9 to 14) (size 15 to 20)
#    0.000    3.000    0.000    1.500    0.000    4.333 
#    0.000    1.667    0.000    4.000    0.000    0.000 
#    0.000    0.000    0.000    0.000    0.000    0.000 
#
# Total GULP energy -267470.585126 kJ/mol
# GULP energy per Si atom -5572.303857 kJ/mol
# Density = 1.721077 g / cm^3
# Si number density = 17.250034 Si / 1000 Ang^3
#
#
#
# Elastic Constant Matrix: (Units=GPa)
#
#
# Indices 1 2 3 4 5 6 
#
# 1 40.9617 37.9627 72.6559 0.0000 0.0000 0.0000
# 2 37.9627 40.9609 72.6562 0.0000 0.0000 0.0000
# 3 72.6559 72.6562 226.5001 0.0000 0.0000 0.0000
# 4 0.0000 0.0000 0.0000 -376.8086 0.0000 0.0000
# 5 0.0000 0.0000 0.0000 0.0000 -377.0834 0.0000
# 6 0.0000 0.0000 0.0000 0.0000 0.0000 14.7435
#
#
#
# Elastic Compliance Matrix: (Units=1/GPa)
#
#
# Indices 1 2 3 4 5 6 
#
# 1 0.182212 -0.151269 -0.009926 0.000000 0.000000 0.000000
# 2 -0.151269 0.182223 -0.009930 0.000000 0.000000 0.000000
# 3 -0.009926 -0.009930 0.010784 0.000000 0.000000 0.000000
# 4 0.000000 0.000000 0.000000 -0.002654 0.000000 0.000000
# 5 0.000000 0.000000 0.000000 0.000000 -0.002652 0.000000
# 6 0.000000 0.000000 0.000000 0.000000 0.000000 0.067826
#
#
# Mechanical properties :
#
#
# Convention : Reuss Voigt Hill
#
# Bulk Modulus (GPa) = 30.32940 74.99693 52.66316
# Shear Modulus (GPa) = 6.32127 -139.48651 -66.58262
#
# Velocity S-wave (km/s) = 1.91637 -9.00206 -6.21951
# Velocity P-wave (km/s) = 4.74521 8.02986 4.58049
#
# Compressibility (1/GPa) = 0.03297130
#
# Stress axis : x y z
#
# Youngs Moduli (GPa) = 5.48810 5.48777 92.72831
#
# Poissons Ratio (x) = 0.83013 0.92039
# Poissons Ratio (y) = 0.83018 0.92077
# Poissons Ratio (z) = 0.05447 0.05449
#
# Static dielectric constant tensor:
#      x y z
#    x 1.577280 0.000000 0.000000 
#    y 0.000000 1.577280 0.000000 
#    z 0.000000 0.000000 1.577210 
# 
# From -- ./inp_files/5900.got.cif
#   From: 2010.05.17/outbox.cif.g08.bks.cpg/sg115_3_cif.got.tgz:5900.got - 2010.05.20 11:07:42.
