data_PCOD9556810
_publ_section_title
;
Structure prediction by ZEFSAII (Michael W. Deem and Ramdas Pophale) SiO2 
 PCOD9556810
Probable space group: P -4 M 2
;
_chemical_formula_sum "Si O2"
_cell_formula_units_Z 44
_cell_length_a 9.238436
_cell_length_b 9.238436
_cell_length_c 29.454596
_cell_angle_alpha 90.000000
_cell_angle_beta 90.000000
_cell_angle_gamma 90.000000
_cell_volume 2513.911470
_symmetry_space_group_name_H-M "P -4 M 2"
_symmetry_group_IT_number 115
_symmetry_cell_setting 'tetragonal'
loop_
_space_group_symop_operation_xyz
x,y,z
y,-x,-z
-x,-y,z
-y,x,-z
y,x,-z
-y,-x,-z
-x,y,z
x,-y,z
loop_
_atom_site_type_symbol
_atom_site_label
_atom_site_fract_x
_atom_site_fract_y
_atom_site_fract_z
Si Si1 0.328688 0.826885 0.858688
Si Si2 0.176178 0.167041 0.049946
Si Si3 0.173509 0.670952 0.592416
Si Si4 0.833558 0.176299 0.316513
Si Si5 0.672096 0.672096 0.500000
Si Si6 0.670858 0.173760 0.224642
O O1 0.500000 0.802123 0.858009
O O2 0.261638 0.780490 0.907035
O O3 0.251452 0.745079 0.817686
O O4 0.303192 0.000000 0.853978
O O5 0.000000 0.166229 0.048325
O O6 0.222524 0.000000 0.056151
O O7 0.221432 0.221432 0.000000
O O8 0.204717 0.500000 0.598777
O O9 0.222936 0.758036 0.636756
O O10 0.247426 0.719617 0.545720
O O11 0.000000 0.686163 0.588316
O O12 0.745797 0.220322 0.271760
O O13 0.000000 0.223114 0.314039
O O14 0.831723 0.000000 0.317004
O O15 0.696126 0.500000 0.494722
O O16 0.500000 0.203025 0.226214
O O17 0.690468 0.000000 0.220184
#
# Coordination Sequence:
#
# PCOD9556810 Si02
#       6
#     8   8   8   8   4   8
#     4  10  20  33  50  74 104 135 165 201 249 299
#     4   8  14  27  49  74  98 128 168 210 248 288
#     4   9  17  30  48  69  94 124 157 194 236 282
#     4   9  17  30  50  75  99 123 156 201 249 293
#     4   9  18  32  48  67  94 128 162 193 230 280
#     4  10  20  34  53  75  98 129 170 210 248 295
#
# _framework density 17.502604000000002
#
# number of rings (size 3 to 8) (size 9 to 14) (size 15 to 20)
#    0.000    2.818    0.000    2.182    0.000    5.091 
#    0.000    1.818    0.000    6.545    0.000    0.000 
#    0.000    0.000    0.000    0.000    0.000    0.000 
#
# Total GULP energy -245314.286112 kJ/mol
# GULP energy per Si atom -5575.324684 kJ/mol
# Density = 1.746277 g / cm^3
# Si number density = 17.502604 Si / 1000 Ang^3
#
#
#
# Elastic Constant Matrix: (Units=GPa)
#
#
# Indices 1 2 3 4 5 6 
#
# 1 53.2266 48.1748 80.4546 0.0000 0.0000 0.0000
# 2 48.1748 53.2266 80.4546 0.0000 0.0000 0.0000
# 3 80.4546 80.4546 227.5658 0.0000 0.0000 0.0000
# 4 0.0000 0.0000 0.0000 -24.9815 0.0000 0.0000
# 5 0.0000 0.0000 0.0000 0.0000 -24.9815 0.0000
# 6 0.0000 0.0000 0.0000 0.0000 0.0000 16.0990
#
#
#
# Elastic Compliance Matrix: (Units=1/GPa)
#
#
# Indices 1 2 3 4 5 6 
#
# 1 0.110207 -0.087742 -0.007943 0.000000 0.000000 0.000000
# 2 -0.087742 0.110207 -0.007943 0.000000 0.000000 0.000000
# 3 -0.007943 -0.007943 0.010010 0.000000 0.000000 0.000000
# 4 0.000000 0.000000 0.000000 -0.040030 0.000000 0.000000
# 5 0.000000 0.000000 0.000000 0.000000 -0.040030 0.000000
# 6 0.000000 0.000000 0.000000 0.000000 0.000000 0.062116
#
#
# Mechanical properties :
#
#
# Convention : Reuss Voigt Hill
#
# Bulk Modulus (GPa) = 43.15711 83.57632 63.36671
# Shear Modulus (GPa) = 11.69702 1.55621 6.62662
#
# Velocity S-wave (km/s) = 2.58796 0.94396 1.94789
# Velocity P-wave (km/s) = 5.80010 7.00304 6.42976
#
# Compressibility (1/GPa) = 0.02317115
#
# Stress axis : x y z
#
# Youngs Moduli (GPa) = 9.07381 9.07381 99.89621
#
# Poissons Ratio (x) = 0.79615 0.79343
# Poissons Ratio (y) = 0.79615 0.79343
# Poissons Ratio (z) = 0.07207 0.07207
#
# Static dielectric constant tensor:
#      x y z
#    x 1.583580 0.000000 0.000000 
#    y 0.000000 1.583580 0.000000 
#    z 0.000000 0.000000 1.583630 
# 
# From -- ./inp_files/5819.got.cif
#   From: 2010.05.17/outbox.cif.g08.bks.cpg/sg115_3_cif.got.tgz:5819.got - 2010.05.20 11:07:42.
