data_PCOD9556523
_publ_section_title
;
Structure prediction by ZEFSAII (Michael W. Deem and Ramdas Pophale) SiO2 
 PCOD9556523
Probable space group: P -4 M 2
;
_chemical_formula_sum "Si O2"
_cell_formula_units_Z 48
_cell_length_a 18.869747
_cell_length_b 18.869747
_cell_length_c 5.657857
_cell_angle_alpha 90.000000
_cell_angle_beta 90.000000
_cell_angle_gamma 90.000000
_cell_volume 2014.578159
_symmetry_space_group_name_H-M "P -4 M 2"
_symmetry_group_IT_number 115
_symmetry_cell_setting 'tetragonal'
loop_
_space_group_symop_operation_xyz
x,y,z
y,-x,-z
-x,-y,z
-y,x,-z
y,x,-z
-y,-x,-z
-x,y,z
x,-y,z
loop_
_atom_site_type_symbol
_atom_site_label
_atom_site_fract_x
_atom_site_fract_y
_atom_site_fract_z
Si Si1 0.387844 0.860344 0.171440
Si Si2 0.227395 0.915437 0.129614
Si Si3 0.421011 0.630303 0.750237
Si Si4 0.297471 0.270736 0.248009
Si Si5 0.227889 0.085229 0.629956
Si Si6 0.397043 0.084508 0.670314
O O1 0.311596 0.899250 0.144890
O O2 0.366912 0.778620 0.225950
O O3 0.422998 0.890442 0.410790
O O4 0.420500 0.875453 0.911704
O O5 0.200381 0.889533 0.379839
O O6 0.219537 0.000000 0.127540
O O7 0.199290 0.890723 0.879690
O O8 0.411423 0.588578 0.500000
O O9 0.500000 0.661650 0.749975
O O10 0.354454 0.684078 0.750679
O O11 0.411631 0.588370 0.000000
O O12 0.259524 0.259524 0.500000
O O13 0.257561 0.257561 0.000000
O O14 0.312564 0.098546 0.646584
O O15 0.220298 0.000000 0.625177
O O16 0.408770 0.000000 0.698844
#
# Coordination Sequence:
#
# PCOD9556523 Si02
#       6
#     8   8   8   8   8   8
#     4  10  16  25  41  57  83 127 165 205 257 302
#     4   8  12  18  29  48  70  95 136 181 224 266
#     4  10  21  37  58  82 106 130 165 218 275 336
#     4  10  21  35  47  66  98 135 179 215 261 331
#     4   7  10  15  23  37  61  87 115 162 210 252
#     4   9  15  23  37  61  87 115 162 210 252 294
#
# _framework density 23.826326000000002
#
# number of rings (size 3 to 8) (size 9 to 14) (size 15 to 20)
#    0.000    3.000    0.000    5.000    0.000    1.000 
#    0.000    0.000    0.000    0.000    0.000    0.000 
#    0.000    0.000    0.000    0.000    0.000 1546.667 
#
# Total GULP energy -267440.255866 kJ/mol
# GULP energy per Si atom -5571.671997 kJ/mol
# Density = 2.377210 g / cm^3
# Si number density = 23.826326 Si / 1000 Ang^3
#
#
#
# Elastic Constant Matrix: (Units=GPa)
#
#
# Indices 1 2 3 4 5 6 
#
# 1 -139.2168 251.4179 57.1633 0.0000 0.0000 0.0000
# 2 251.4179 -139.2183 57.1612 0.0000 0.0000 0.0000
# 3 57.1633 57.1612 323.5497 0.0000 0.0000 0.0000
# 4 0.0000 0.0000 0.0000 -214.3140 0.0000 0.0000
# 5 0.0000 0.0000 0.0000 0.0000 -214.3128 0.0000
# 6 0.0000 0.0000 0.0000 0.0000 0.0000 -4.8408
#
#
#
# Elastic Compliance Matrix: (Units=1/GPa)
#
#
# Indices 1 2 3 4 5 6 
#
# 1 0.004155 0.006715 -0.001920 0.000000 0.000000 0.000000
# 2 0.006715 0.004155 -0.001920 0.000000 0.000000 0.000000
# 3 -0.001920 -0.001920 0.003769 0.000000 0.000000 0.000000
# 4 0.000000 0.000000 0.000000 -0.004666 0.000000 0.000000
# 5 0.000000 0.000000 0.000000 0.000000 -0.004666 0.000000
# 6 0.000000 0.000000 0.000000 0.000000 0.000000 -0.206576
#
#
# Mechanical properties :
#
#
# Convention : Reuss Voigt Hill
#
# Bulk Modulus (GPa) = 56.09593 86.28884 71.19238
# Shear Modulus (GPa) = -24.55372 -108.06870 -66.31121
#
# Velocity S-wave (km/s) = -3.21367 -6.74206 -5.28124
# Velocity P-wave (km/s) = 3.13442 4.93079 2.69148
#
# Compressibility (1/GPa) = 0.01782660
#
# Stress axis : x y z
#
# Youngs Moduli (GPa) = 240.69210 240.69325 265.30526
#
# Poissons Ratio (x) = -1.61616 0.50946
# Poissons Ratio (y) = -1.61615 0.50947
# Poissons Ratio (z) = 0.46220 0.46221
#
# Static dielectric constant tensor:
#      x y z
#    x 1.841870 0.000000 0.000000 
#    y 0.000000 1.841860 0.000000 
#    z 0.000000 0.000000 2.144450 
# 
# From -- ./inp_files/647.got.cif
#   From: 2010.05.17/outbox.cif.g08.bks.cpg/sg115_1_cif.got.tgz:647.got - 2010.05.20 11:07:42.
