data_PCOD9556849
_publ_section_title
;
Structure prediction by ZEFSAII (Michael W. Deem and Ramdas Pophale) SiO2 
 PCOD9556849
Probable space group: P -4 M 2
;
_chemical_formula_sum "Si O2"
_cell_formula_units_Z 44
_cell_length_a 9.315760
_cell_length_b 9.315760
_cell_length_c 29.335685
_cell_angle_alpha 90.000000
_cell_angle_beta 90.000000
_cell_angle_gamma 90.000000
_cell_volume 2545.850027
_symmetry_space_group_name_H-M "P -4 M 2"
_symmetry_group_IT_number 115
_symmetry_cell_setting 'tetragonal'
loop_
_space_group_symop_operation_xyz
x,y,z
y,-x,-z
-x,-y,z
-y,x,-z
y,x,-z
-y,-x,-z
-x,y,z
x,-y,z
loop_
_atom_site_type_symbol
_atom_site_label
_atom_site_fract_x
_atom_site_fract_y
_atom_site_fract_z
Si Si1 0.671786 0.830054 0.858654
Si Si2 0.668947 0.671607 0.683927
Si Si3 0.829561 0.670824 0.408297
Si Si4 0.328355 0.830109 0.223481
Si Si5 0.829263 0.170738 0.500000
Si Si6 0.325358 0.665504 0.949773
O O1 0.500000 0.805682 0.853638
O O2 0.753774 0.753864 0.817558
O O3 0.717173 0.761099 0.906927
O O4 0.696809 0.000000 0.858523
O O5 0.500000 0.705023 0.691397
O O6 0.681406 0.500000 0.678181
O O7 0.716383 0.748903 0.637606
O O8 0.759050 0.713648 0.728319
O O9 0.807800 0.500000 0.413696
O O10 0.780617 0.750339 0.454079
O O11 0.000000 0.696642 0.402982
O O12 0.500000 0.807486 0.217877
O O13 0.301304 0.000000 0.223923
O O14 0.000000 0.194674 0.504928
O O15 0.500000 0.664002 0.951355
O O16 0.278801 0.500000 0.943306
O O17 0.280933 0.719068 0.000000
#
# Coordination Sequence:
#
# PCOD9556849 Si02
#       6
#     8   8   8   8   4   8
#     4  10  20  33  51  76 104 134 168 205 247 296
#     4   9  18  33  52  73  97 125 158 199 247 295
#     4   9  18  32  49  70  96 125 158 196 237 283
#     4  10  21  36  53  74 100 131 168 208 251 299
#     4   9  18  32  48  67  94 128 162 193 230 280
#     4   8  14  27  49  74  98 128 168 210 248 288
#
# _framework density 17.283027000000001
#
# number of rings (size 3 to 8) (size 9 to 14) (size 15 to 20)
#    0.000    2.818    0.000    1.636    0.000    4.364 
#    0.000    2.727    0.000    3.273    0.000    0.000 
#    0.000    0.000    0.000    0.000    0.000    0.000 
#
# Total GULP energy -245327.991964 kJ/mol
# GULP energy per Si atom -5575.636181 kJ/mol
# Density = 1.724369 g / cm^3
# Si number density = 17.283027 Si / 1000 Ang^3
#
#
#
# Elastic Constant Matrix: (Units=GPa)
#
#
# Indices 1 2 3 4 5 6 
#
# 1 48.0545 48.0002 83.3861 0.0000 0.0000 0.0000
# 2 48.0002 48.0540 83.3861 0.0000 0.0000 0.0000
# 3 83.3861 83.3861 227.2583 0.0000 0.0000 0.0000
# 4 0.0000 0.0000 0.0000 -25.8773 0.0000 0.0000
# 5 0.0000 0.0000 0.0000 0.0000 -25.8831 0.0000
# 6 0.0000 0.0000 0.0000 0.0000 0.0000 17.9299
#
#
#
# Elastic Compliance Matrix: (Units=1/GPa)
#
#
# Indices 1 2 3 4 5 6 
#
# 1 9.274992 -9.246429 -0.010481 0.000000 0.000000 0.000000
# 2 -9.246429 9.275236 -0.010569 0.000000 0.000000 0.000000
# 3 -0.010481 -0.010569 0.012124 0.000000 0.000000 0.000000
# 4 0.000000 0.000000 0.000000 -0.038644 0.000000 0.000000
# 5 0.000000 0.000000 0.000000 0.000000 -0.038635 0.000000
# 6 0.000000 0.000000 0.000000 0.000000 0.000000 0.055773
#
#
# Mechanical properties :
#
#
# Convention : Reuss Voigt Hill
#
# Bulk Modulus (GPa) = 36.50558 83.65686 60.08122
# Shear Modulus (GPa) = 0.13483 0.47352 0.30417
#
# Velocity S-wave (km/s) = 0.27961 0.52400 0.41997
# Velocity P-wave (km/s) = 4.61219 6.99108 5.92231
#
# Compressibility (1/GPa) = 0.02739307
#
# Stress axis : x y z
#
# Youngs Moduli (GPa) = 0.10782 0.10781 82.48109
#
# Poissons Ratio (x) = 0.99689 0.86451
# Poissons Ratio (y) = 0.99692 0.87172
# Poissons Ratio (z) = 0.00113 0.00114
#
# Static dielectric constant tensor:
#      x y z
#    x 1.574820 0.000000 0.000000 
#    y 0.000000 1.574820 0.000000 
#    z 0.000000 0.000000 1.571930 
# 
# From -- ./inp_files/5729.got.cif
#   From: 2010.05.17/outbox.cif.g08.bks.cpg/sg115_3_cif.got.tgz:5729.got - 2010.05.20 11:07:42.
