data_PCOD9556172
_publ_section_title
;
Structure prediction by ZEFSAII (Michael W. Deem and Ramdas Pophale) SiO2 
 PCOD9556172
Probable space group: P -4 21 C
;
_chemical_formula_sum "Si O2"
_cell_formula_units_Z 40
_cell_length_a 11.299659
_cell_length_b 11.299659
_cell_length_c 15.109189
_cell_angle_alpha 90.000000
_cell_angle_beta 90.000000
_cell_angle_gamma 90.000000
_cell_volume 1929.175905
_symmetry_space_group_name_H-M "P -4 21 C"
_symmetry_group_IT_number 114
_symmetry_cell_setting 'tetragonal'
loop_
_space_group_symop_operation_xyz
x,y,z
y,-x,-z
-x,-y,z
-y,x,-z
1/2+x,1/2-y,1/2-z
1/2-x,1/2+y,1/2-z
1/2-y,1/2-x,1/2+z
1/2+y,1/2+x,1/2+z
loop_
_atom_site_type_symbol
_atom_site_label
_atom_site_fract_x
_atom_site_fract_y
_atom_site_fract_z
Si Si1 0.018195 0.641279 0.469497
Si Si2 0.633453 0.555803 0.407745
Si Si3 0.205761 0.366063 0.569874
Si Si4 0.881353 0.325715 0.132496
Si Si5 0.304209 0.139432 0.175919
O O1 0.118011 0.671063 0.542724
O O2 0.071700 0.665421 0.373630
O O3 0.000000 0.500000 0.468328
O O4 0.893569 0.688425 0.505162
O O5 0.500000 0.500000 0.401309
O O6 0.688836 0.584623 0.505679
O O7 0.631563 0.684482 0.363750
O O8 0.732716 0.472479 0.363743
O O9 0.152130 0.478627 0.621096
O O10 0.253643 0.278334 0.643464
O O11 0.825410 0.376229 0.220944
#
# Coordination Sequence:
#
# PCOD9556172 Si02
#       5
#     8   8   8   8   8
#     4  10  22  42  61  95 135 171 213 275 345 395
#     4  12  23  44  73 100 130 176 236 284 329 402
#     4  11  23  43  69  95 136 177 225 282 339 404
#     4  11  25  39  63 103 134 171 223 280 333 404
#     4  12  25  41  69 100 133 178 224 286 341 401
#
# _framework density 20.734242999999999
#
# number of rings (size 3 to 8) (size 9 to 14) (size 15 to 20)
#    0.000    0.800    8.000    0.000    5.600    4.000 
#    0.000    0.000    0.000    0.000    0.000    0.000 
#    0.000    0.000    0.000    0.000    0.000    0.000 
#
# Total GULP energy -223141.905913 kJ/mol
# GULP energy per Si atom -5578.547648 kJ/mol
# Density = 2.068705 g / cm^3
# Si number density = 20.734243 Si / 1000 Ang^3
#
#
#
# Elastic Constant Matrix: (Units=GPa)
#
#
# Indices 1 2 3 4 5 6 
#
# 1 68.0018 0.9704 -0.5682 0.0000 0.0000 0.0000
# 2 0.9704 68.0018 -0.5682 0.0000 0.0000 0.0000
# 3 -0.5682 -0.5682 72.2083 0.0000 0.0000 0.0000
# 4 0.0000 0.0000 0.0000 25.4615 0.0000 0.0000
# 5 0.0000 0.0000 0.0000 0.0000 25.4615 0.0000
# 6 0.0000 0.0000 0.0000 0.0000 0.0000 18.0432
#
#
#
# Elastic Compliance Matrix: (Units=1/GPa)
#
#
# Indices 1 2 3 4 5 6 
#
# 1 0.014709 -0.000209 0.000114 0.000000 0.000000 0.000000
# 2 -0.000209 0.014709 0.000114 0.000000 0.000000 0.000000
# 3 0.000114 0.000114 0.013851 0.000000 0.000000 0.000000
# 4 0.000000 0.000000 0.000000 0.039275 0.000000 0.000000
# 5 0.000000 0.000000 0.000000 0.000000 0.039275 0.000000
# 6 0.000000 0.000000 0.000000 0.000000 0.000000 0.055422
#
#
# Mechanical properties :
#
#
# Convention : Reuss Voigt Hill
#
# Bulk Modulus (GPa) = 23.09044 23.09778 23.09411
# Shear Modulus (GPa) = 26.09067 27.68509 26.88788
#
# Velocity S-wave (km/s) = 3.55115 3.65805 3.60500
# Velocity P-wave (km/s) = 5.28912 5.38571 5.33764
#
# Compressibility (1/GPa) = 0.04330796
#
# Stress axis : x y z
#
# Youngs Moduli (GPa) = 67.98358 67.98358 72.19891
#
# Poissons Ratio (x) = 0.01421 -0.00824
# Poissons Ratio (y) = 0.01421 -0.00824
# Poissons Ratio (z) = -0.00776 -0.00776
#
# Static dielectric constant tensor:
#      x y z
#    x 1.795740 0.000000 0.000000 
#    y 0.000000 1.795740 0.000000 
#    z 0.000000 0.000000 1.728010 
# 
# From -- ./inp_files/2099.got.cif
#   From: 2010.05.17/outbox.cif.g08.bks.cpg/sg114_2_cif.got.tgz:2099.got - 2010.05.20 11:04:54.
