data_PCOD9556269
_publ_section_title
;
Structure prediction by ZEFSAII (Michael W. Deem and Ramdas Pophale) SiO2 
 PCOD9556269
Probable space group: P -4 21 C
;
_chemical_formula_sum "Si O2"
_cell_formula_units_Z 28
_cell_length_a 8.195230
_cell_length_b 8.195230
_cell_length_c 18.178349
_cell_angle_alpha 90.000000
_cell_angle_beta 90.000000
_cell_angle_gamma 90.000000
_cell_volume 1220.890544
_symmetry_space_group_name_H-M "P -4 21 C"
_symmetry_group_IT_number 114
_symmetry_cell_setting 'tetragonal'
loop_
_space_group_symop_operation_xyz
x,y,z
y,-x,-z
-x,-y,z
-y,x,-z
1/2+x,1/2-y,1/2-z
1/2-x,1/2+y,1/2-z
1/2-y,1/2-x,1/2+z
1/2+y,1/2+x,1/2+z
loop_
_atom_site_type_symbol
_atom_site_label
_atom_site_fract_x
_atom_site_fract_y
_atom_site_fract_z
Si Si1 0.500000 0.500000 0.254372
Si Si2 0.239237 0.419124 0.014697
Si Si3 0.500000 0.000000 0.599006
Si Si4 0.500000 0.000000 0.353610
Si Si5 0.316587 0.189112 0.223142
O O1 0.366054 0.377971 0.220147
O O2 0.629255 0.366045 0.284451
O O3 0.134981 0.422218 0.090058
O O4 0.304793 0.602996 0.995619
O O5 0.106919 0.382314 0.951782
O O6 0.614061 0.903474 0.653355
O O7 0.604473 0.883783 0.298568
#
# Coordination Sequence:
#
# PCOD9556269 Si02
#       5
#     4   8   4   4   8
#     4  12  28  48  72 122 144 192 236 318 376 448
#     4  10  24  42  70 100 148 198 248 302 370 442
#     4  10  24  46  66 110 144 194 242 310 364 444
#     4  10  24  46  66 110 144 194 242 310 364 444
#     4  11  26  45  78 106 146 186 250 304 378 428
#
# _framework density 22.934080000000002
#
# number of rings (size 3 to 8) (size 9 to 14) (size 15 to 20)
#    0.000    1.429    0.000    3.429   16.000    0.000 
#    0.000    0.000    0.000    6.857    0.000    0.000 
#    0.000    0.000    0.000    0.000    0.000    0.000 
#
# Total GULP energy -155997.392491 kJ/mol
# GULP energy per Si atom -5571.335446 kJ/mol
# Density = 2.288188 g / cm^3
# Si number density = 22.934080 Si / 1000 Ang^3
#
#
#
# Elastic Constant Matrix: (Units=GPa)
#
#
# Indices 1 2 3 4 5 6 
#
# 1 90.7511 21.1646 33.1201 0.0000 0.0000 0.0000
# 2 21.1646 90.7511 33.1201 0.0000 0.0000 0.0000
# 3 33.1201 33.1201 150.5707 0.0000 0.0000 0.0000
# 4 0.0000 0.0000 0.0000 18.0768 0.0000 0.0000
# 5 0.0000 0.0000 0.0000 0.0000 18.0768 0.0000
# 6 0.0000 0.0000 0.0000 0.0000 0.0000 -777.7746
#
#
#
# Elastic Compliance Matrix: (Units=1/GPa)
#
#
# Indices 1 2 3 4 5 6 
#
# 1 0.012322 -0.002049 -0.002260 0.000000 0.000000 0.000000
# 2 -0.002049 0.012322 -0.002260 0.000000 0.000000 0.000000
# 3 -0.002260 -0.002260 0.007635 0.000000 0.000000 0.000000
# 4 0.000000 0.000000 0.000000 0.055320 0.000000 0.000000
# 5 0.000000 0.000000 0.000000 0.000000 0.055320 0.000000
# 6 0.000000 0.000000 0.000000 0.000000 0.000000 -0.001286
#
#
# Mechanical properties :
#
#
# Convention : Reuss Voigt Hill
#
# Bulk Modulus (GPa) = 52.24005 56.32027 54.28016
# Shear Modulus (GPa) = 31.02713 -132.01299 -50.49293
#
# Velocity S-wave (km/s) = 3.68215 -7.59519 -4.69727
# Velocity P-wave (km/s) = 6.39573 7.23223 2.38743
#
# Compressibility (1/GPa) = 0.01914240
#
# Stress axis : x y z
#
# Youngs Moduli (GPa) = 81.15786 81.15786 130.96774
#
# Poissons Ratio (x) = 0.16629 0.29594
# Poissons Ratio (y) = 0.16629 0.29594
# Poissons Ratio (z) = 0.18339 0.18339
#
# Static dielectric constant tensor:
#      x y z
#    x 2.028580 0.000000 0.000000 
#    y 0.000000 2.028580 0.000000 
#    z 0.000000 0.000000 1.846990 
# 
# From -- ./inp_files/2395.got.cif
#   From: 2010.05.17/outbox.cif.g08.bks.cpg/sg114_2_cif.got.tgz:2395.got - 2010.05.20 11:04:54.
