data_PCOD9556806
_publ_section_title
;
Structure prediction by ZEFSAII (Michael W. Deem and Ramdas Pophale) SiO2 
 PCOD9556806
Probable space group: P -4 M 2
;
_chemical_formula_sum "Si O2"
_cell_formula_units_Z 44
_cell_length_a 9.264533
_cell_length_b 9.264533
_cell_length_c 29.371898
_cell_angle_alpha 90.000000
_cell_angle_beta 90.000000
_cell_angle_gamma 90.000000
_cell_volume 2521.036169
_symmetry_space_group_name_H-M "P -4 M 2"
_symmetry_group_IT_number 115
_symmetry_cell_setting 'tetragonal'
loop_
_space_group_symop_operation_xyz
x,y,z
y,-x,-z
-x,-y,z
-y,x,-z
y,x,-z
-y,-x,-z
-x,y,z
x,-y,z
loop_
_atom_site_type_symbol
_atom_site_label
_atom_site_fract_x
_atom_site_fract_y
_atom_site_fract_z
Si Si1 0.826062 0.830014 0.234051
Si Si2 0.173272 0.330098 0.958568
Si Si3 0.673374 0.669900 0.316516
Si Si4 0.833954 0.324271 0.591754
Si Si5 0.166127 0.175523 0.132179
Si Si6 0.327948 0.672053 0.500000
O O1 0.750119 0.740140 0.273246
O O2 0.785337 0.780782 0.182825
O O3 0.000000 0.818545 0.237053
O O4 0.789389 0.000000 0.238935
O O5 0.202755 0.500000 0.959858
O O6 0.220609 0.263148 0.910181
O O7 0.000000 0.309239 0.962302
O O8 0.249830 0.249830 0.000000
O O9 0.500000 0.688030 0.312315
O O10 0.703688 0.500000 0.319597
O O11 0.720708 0.749297 0.362920
O O12 0.832269 0.500000 0.591603
O O13 0.755039 0.279736 0.545308
O O14 0.000000 0.277227 0.593022
O O15 0.000000 0.221467 0.125190
O O16 0.165595 0.000000 0.133090
O O17 0.500000 0.694123 0.506252
#
# Coordination Sequence:
#
# PCOD9556806 Si02
#       6
#     8   8   8   8   8   4
#     4   9  18  33  53  77 103 130 163 205 253 301
#     4  10  20  33  51  76 103 132 168 207 248 296
#     4  10  20  33  50  74 103 135 172 209 245 291
#     4   9  17  30  49  72  97 127 164 204 246 293
#     4   8  15  30  52  75  98 127 165 207 248 293
#     4   9  16  28  48  71  94 122 158 201 246 292
#
# _framework density 17.453140000000001
#
# number of rings (size 3 to 8) (size 9 to 14) (size 15 to 20)
#    0.000    2.818    0.000    2.727    0.000    5.455 
#    0.000    3.636    0.000    4.636    0.000    0.000 
#    0.000    0.000    0.000    0.000    0.000    0.000 
#
# Total GULP energy -245318.571333 kJ/mol
# GULP energy per Si atom -5575.422076 kJ/mol
# Density = 1.741342 g / cm^3
# Si number density = 17.453140 Si / 1000 Ang^3
#
#
#
# Elastic Constant Matrix: (Units=GPa)
#
#
# Indices 1 2 3 4 5 6 
#
# 1 56.8244 46.7312 79.8902 0.0000 0.0000 0.0000
# 2 46.7312 56.8239 79.8902 0.0000 0.0000 0.0000
# 3 79.8902 79.8902 216.4621 0.0000 0.0000 0.0000
# 4 0.0000 0.0000 0.0000 40.1714 0.0000 0.0000
# 5 0.0000 0.0000 0.0000 0.0000 40.1708 0.0000
# 6 0.0000 0.0000 0.0000 0.0000 0.0000 19.7907
#
#
#
# Elastic Compliance Matrix: (Units=1/GPa)
#
#
# Indices 1 2 3 4 5 6 
#
# 1 0.060753 -0.038325 -0.008278 0.000000 0.000000 0.000000
# 2 -0.038325 0.060754 -0.008278 0.000000 0.000000 0.000000
# 3 -0.008278 -0.008278 0.010730 0.000000 0.000000 0.000000
# 4 0.000000 0.000000 0.000000 0.024893 0.000000 0.000000
# 5 0.000000 0.000000 0.000000 0.000000 0.024894 0.000000
# 6 0.000000 0.000000 0.000000 0.000000 0.000000 0.050529
#
#
# Mechanical properties :
#
#
# Convention : Reuss Voigt Hill
#
# Bulk Modulus (GPa) = 44.49089 82.57040 63.53065
# Shear Modulus (GPa) = 14.29357 28.26649 21.28003
#
# Velocity S-wave (km/s) = 2.86487 4.02875 3.49559
# Velocity P-wave (km/s) = 6.04072 8.30985 7.26443
#
# Compressibility (1/GPa) = 0.02247651
#
# Stress axis : x y z
#
# Youngs Moduli (GPa) = 16.45997 16.45971 93.19563
#
# Poissons Ratio (x) = 0.63081 0.77146
# Poissons Ratio (y) = 0.63082 0.77149
# Poissons Ratio (z) = 0.13625 0.13626
#
# Static dielectric constant tensor:
#      x y z
#    x 1.582330 0.000000 0.000000 
#    y 0.000000 1.582330 0.000000 
#    z 0.000000 0.000000 1.582020 
# 
# From -- ./inp_files/5717.got.cif
#   From: 2010.05.17/outbox.cif.g08.bks.cpg/sg115_3_cif.got.tgz:5717.got - 2010.05.20 11:07:42.
