data_PCOD9556062
_publ_section_title
;
Structure prediction by ZEFSAII (Michael W. Deem and Ramdas Pophale) SiO2 
 PCOD9556062
Probable space group: P -4 21 C
;
_chemical_formula_sum "Si O2"
_cell_formula_units_Z 60
_cell_length_a 11.778029
_cell_length_b 11.778029
_cell_length_c 22.926731
_cell_angle_alpha 90.000000
_cell_angle_beta 90.000000
_cell_angle_gamma 90.000000
_cell_volume 3180.441224
_symmetry_space_group_name_H-M "P -4 21 C"
_symmetry_group_IT_number 114
_symmetry_cell_setting 'tetragonal'
loop_
_space_group_symop_operation_xyz
x,y,z
y,-x,-z
-x,-y,z
-y,x,-z
1/2+x,1/2-y,1/2-z
1/2-x,1/2+y,1/2-z
1/2-y,1/2-x,1/2+z
1/2+y,1/2+x,1/2+z
loop_
_atom_site_type_symbol
_atom_site_label
_atom_site_fract_x
_atom_site_fract_y
_atom_site_fract_z
Si Si1 0.804392 0.746119 0.159138
Si Si2 0.218457 0.033887 0.651653
Si Si3 0.000000 0.000000 0.715123
Si Si4 0.079410 0.396723 0.260996
Si Si5 0.686808 0.511387 0.308691
Si Si6 0.633488 0.536404 0.432804
Si Si7 0.696053 0.712986 0.531907
Si Si8 0.158113 0.072342 0.520709
O O1 0.670105 0.717272 0.162450
O O2 0.878142 0.673894 0.204661
O O3 0.820099 0.877100 0.178159
O O4 0.831200 0.735874 0.089490
O O5 0.206392 0.022666 0.581723
O O6 0.107268 0.972232 0.676095
O O7 0.321470 0.983226 0.689387
O O8 0.035670 0.102335 0.756371
O O9 0.189145 0.450546 0.291391
O O10 0.000000 0.500000 0.241986
O O11 0.645901 0.575602 0.366605
O O12 0.500000 0.500000 0.439393
O O13 0.674406 0.626677 0.479589
O O14 0.719456 0.430769 0.441635
O O15 0.752693 0.827329 0.507989
O O16 0.033980 0.134652 0.522471
#
# Coordination Sequence:
#
# PCOD9556062 Si02
#       8
#     8   8   4   8   8   8   8   8
#     4  10  22  42  59  90 135 164 206 266 320 389
#     4  11  23  40  65  92 128 174 213 266 330 385
#     4  12  20  36  65  91 124 174 214 256 318 404
#     4  12  24  41  66  98 132 171 214 272 336 390
#     4  11  23  36  62  95 127 167 216 257 318 399
#     4  11  20  39  64  95 128 167 208 266 330 389
#     4  10  21  39  66  91 123 164 207 267 323 378
#     4  10  23  45  64  87 126 173 222 270 313 389
#
# _framework density 18.865307999999999
#
# number of rings (size 3 to 8) (size 9 to 14) (size 15 to 20)
#    0.000    1.200    6.000    0.800    1.867    0.000 
#    0.000    3.333    0.000    0.000    0.000    0.000 
#    0.000    0.000    0.000    0.000    0.000    0.000 
#
# Total GULP energy -334279.194291 kJ/mol
# GULP energy per Si atom -5571.319905 kJ/mol
# Density = 1.882237 g / cm^3
# Si number density = 18.865308 Si / 1000 Ang^3
#
#
#
# Elastic Constant Matrix: (Units=GPa)
#
#
# Indices 1 2 3 4 5 6 
#
# 1 74.5031 30.3117 34.8892 0.0000 0.0000 0.0000
# 2 30.3117 74.5031 34.8892 0.0000 0.0000 0.0000
# 3 34.8892 34.8892 88.2256 0.0000 0.0000 0.0000
# 4 0.0000 0.0000 0.0000 11.4051 0.0000 0.0000
# 5 0.0000 0.0000 0.0000 0.0000 11.4051 0.0000
# 6 0.0000 0.0000 0.0000 0.0000 0.0000 24.6056
#
#
#
# Elastic Compliance Matrix: (Units=1/GPa)
#
#
# Indices 1 2 3 4 5 6 
#
# 1 0.017789 -0.004839 -0.005121 0.000000 0.000000 0.000000
# 2 -0.004839 0.017789 -0.005121 0.000000 0.000000 0.000000
# 3 -0.005121 -0.005121 0.015385 0.000000 0.000000 0.000000
# 4 0.000000 0.000000 0.000000 0.087680 0.000000 0.000000
# 5 0.000000 0.000000 0.000000 0.000000 0.087680 0.000000
# 6 0.000000 0.000000 0.000000 0.000000 0.000000 0.040641
#
#
# Mechanical properties :
#
#
# Convention : Reuss Voigt Hill
#
# Bulk Modulus (GPa) = 48.07618 48.60135 48.33876
# Shear Modulus (GPa) = 16.44402 18.62593 17.53498
#
# Velocity S-wave (km/s) = 2.95558 3.14556 3.05205
# Velocity P-wave (km/s) = 6.09808 6.24587 6.17242
#
# Compressibility (1/GPa) = 0.02080032
#
# Stress axis : x y z
#
# Youngs Moduli (GPa) = 56.21326 56.21326 64.99877
#
# Poissons Ratio (x) = 0.27204 0.33287
# Poissons Ratio (y) = 0.27204 0.33287
# Poissons Ratio (z) = 0.28787 0.28787
#
# Static dielectric constant tensor:
#      x y z
#    x 1.683260 0.000000 0.000000 
#    y 0.000000 1.683260 0.000000 
#    z 0.000000 0.000000 1.706100 
# 
# From -- ./inp_files/3228.got.cif
#   From: 2010.05.17/outbox.cif.g08.bks.cpg/sg114_2_cif.got.tgz:3228.got - 2010.05.20 11:04:54.
