data_PCOD9556318
_publ_section_title
;
Structure prediction by ZEFSAII (Michael W. Deem and Ramdas Pophale) SiO2 
 PCOD9556318
Probable space group: P -4 21 C
;
_chemical_formula_sum "Si O2"
_cell_formula_units_Z 40
_cell_length_a 7.962593
_cell_length_b 7.962593
_cell_length_c 24.373276
_cell_angle_alpha 90.000000
_cell_angle_beta 90.000000
_cell_angle_gamma 90.000000
_cell_volume 1545.336071
_symmetry_space_group_name_H-M "P -4 21 C"
_symmetry_group_IT_number 114
_symmetry_cell_setting 'tetragonal'
loop_
_space_group_symop_operation_xyz
x,y,z
y,-x,-z
-x,-y,z
-y,x,-z
1/2+x,1/2-y,1/2-z
1/2-x,1/2+y,1/2-z
1/2-y,1/2-x,1/2+z
1/2+y,1/2+x,1/2+z
loop_
_atom_site_type_symbol
_atom_site_label
_atom_site_fract_x
_atom_site_fract_y
_atom_site_fract_z
Si Si1 0.912789 0.733048 0.718087
Si Si2 0.571971 0.248384 0.189414
Si Si3 0.826276 0.795087 0.420897
Si Si4 0.115664 0.331710 0.542332
Si Si5 0.024319 0.190678 0.133613
O O1 0.904565 0.657574 0.778960
O O2 0.821504 0.598492 0.678039
O O3 0.091840 0.803283 0.699256
O O4 0.797834 0.897974 0.716767
O O5 0.541888 0.236638 0.124641
O O6 0.843811 0.713263 0.480164
O O7 0.655548 0.740006 0.390692
O O8 0.808926 0.993977 0.431718
O O9 0.278703 0.358383 0.580017
O O10 0.000000 0.500000 0.543040
O O11 0.000000 0.000000 0.153396
#
# Coordination Sequence:
#
# PCOD9556318 Si02
#       5
#     8   8   8   8   8
#     4  11  26  47  74 104 148 189 247 302 374 439
#     4  11  26  47  72 109 143 196 244 307 366 441
#     4  11  25  44  73 100 151 191 244 308 367 446
#     4  10  25  45  70 107 144 192 247 304 375 445
#     4  11  26  45  72 104 145 191 244 306 372 441
#
# _framework density 25.884333999999999
#
# number of rings (size 3 to 8) (size 9 to 14) (size 15 to 20)
#    0.000    1.200    2.000    1.200   14.000    2.800 
#    0.000    0.000    0.000    0.000    0.000    0.000 
#    0.000    0.000    0.000    0.000    0.000    0.000 
#
# Total GULP energy -224109.218750 kJ/mol
# GULP energy per Si atom -5602.730469 kJ/mol
# Density = 2.582542 g / cm^3
# Si number density = 25.884334 Si / 1000 Ang^3
#
#
#
# Elastic Constant Matrix: (Units=GPa)
#
#
# Indices 1 2 3 4 5 6 
#
# 1 106.1769 14.6104 20.0469 0.0000 0.0000 0.0000
# 2 14.6104 106.1769 20.0469 0.0000 0.0000 0.0000
# 3 20.0469 20.0469 150.7484 0.0000 0.0000 0.0000
# 4 0.0000 0.0000 0.0000 44.9794 0.0000 0.0000
# 5 0.0000 0.0000 0.0000 0.0000 44.9794 0.0000
# 6 0.0000 0.0000 0.0000 0.0000 0.0000 28.0715
#
#
#
# Elastic Compliance Matrix: (Units=1/GPa)
#
#
# Indices 1 2 3 4 5 6 
#
# 1 0.009791 -0.001130 -0.001152 0.000000 0.000000 0.000000
# 2 -0.001130 0.009791 -0.001152 0.000000 0.000000 0.000000
# 3 -0.001152 -0.001152 0.006940 0.000000 0.000000 0.000000
# 4 0.000000 0.000000 0.000000 0.022232 0.000000 0.000000
# 5 0.000000 0.000000 0.000000 0.000000 0.022232 0.000000
# 6 0.000000 0.000000 0.000000 0.000000 0.000000 0.035623
#
#
# Mechanical properties :
#
#
# Convention : Reuss Voigt Hill
#
# Bulk Modulus (GPa) = 50.87668 52.50117 51.68892
# Shear Modulus (GPa) = 41.65657 44.16593 42.91125
#
# Velocity S-wave (km/s) = 4.01600 4.13520 4.07604
# Velocity P-wave (km/s) = 6.41891 6.56710 6.49343
#
# Compressibility (1/GPa) = 0.01965537
#
# Stress axis : x y z
#
# Youngs Moduli (GPa) = 102.13275 102.13275 144.09415
#
# Poissons Ratio (x) = 0.11539 0.16597
# Poissons Ratio (y) = 0.11539 0.16597
# Poissons Ratio (z) = 0.11764 0.11764
#
# Static dielectric constant tensor:
#      x y z
#    x 2.072890 0.000000 0.000000 
#    y 0.000000 2.072890 0.000000 
#    z 0.000000 0.000000 2.032380 
# 
# From -- ./inp_files/3370.got.cif
#   From: 2010.05.17/outbox.cif.g08.bks.cpg/sg114_2_cif.got.tgz:3370.got - 2010.05.20 11:04:54.
