data_PCOD9556835
_publ_section_title
;
Structure prediction by ZEFSAII (Michael W. Deem and Ramdas Pophale) SiO2 
 PCOD9556835
Probable space group: P -4 M 2
;
_chemical_formula_sum "Si O2"
_cell_formula_units_Z 48
_cell_length_a 9.361911
_cell_length_b 9.361911
_cell_length_c 32.037624
_cell_angle_alpha 90.000000
_cell_angle_beta 90.000000
_cell_angle_gamma 90.000000
_cell_volume 2807.949652
_symmetry_space_group_name_H-M "P -4 M 2"
_symmetry_group_IT_number 115
_symmetry_cell_setting 'tetragonal'
loop_
_space_group_symop_operation_xyz
x,y,z
y,-x,-z
-x,-y,z
-y,x,-z
y,x,-z
-y,-x,-z
-x,y,z
x,-y,z
loop_
_atom_site_type_symbol
_atom_site_label
_atom_site_fract_x
_atom_site_fract_y
_atom_site_fract_z
Si Si1 0.326057 0.164315 0.704559
Si Si2 0.174126 0.165274 0.954216
Si Si3 0.332293 0.328185 0.378758
Si Si4 0.168176 0.170963 0.451956
Si Si5 0.670386 0.831019 0.128384
Si Si6 0.671046 0.668901 0.787504
O O1 0.500000 0.165192 0.704784
O O2 0.282147 0.250409 0.663334
O O3 0.281255 0.242683 0.747066
O O4 0.279116 0.000000 0.703056
O O5 0.219511 0.254012 0.913974
O O6 0.000000 0.168047 0.955471
O O7 0.217105 0.000000 0.949547
O O8 0.219887 0.219887 0.000000
O O9 0.500000 0.295533 0.375544
O O10 0.317396 0.500000 0.382454
O O11 0.261999 0.253553 0.418538
O O12 0.205860 0.205860 0.500000
O O13 0.000000 0.204292 0.445906
O O14 0.184329 0.000000 0.447165
O O15 0.500000 0.814050 0.123936
O O16 0.715260 0.747581 0.169928
O O17 0.700328 0.000000 0.133501
O O18 0.500000 0.684706 0.791960
O O19 0.700166 0.500000 0.780972
#
# Coordination Sequence:
#
# PCOD9556835 Si02
#       6
#     8   8   8   8   8   8
#     4   9  17  30  49  71  94 123 160 199 237 278
#     4   8  14  26  44  63  83 111 146 180 216 262
#     4  10  20  33  51  76 103 130 163 202 242 287
#     4   9  19  36  55  74  99 132 167 202 243 290
#     4   9  17  29  45  65  89 116 146 182 225 271
#     4   9  17  30  47  65  88 119 152 186 228 278
#
# _framework density 17.094324
#
# number of rings (size 3 to 8) (size 9 to 14) (size 15 to 20)
#    0.000    3.000    0.000    2.000    0.000    4.667 
#    0.000    4.167    0.000    4.000    0.000    0.000 
#    0.000    0.000    0.000    0.000    0.000    0.000 
#
# Total GULP energy -267490.382139 kJ/mol
# GULP energy per Si atom -5572.716295 kJ/mol
# Density = 1.705542 g / cm^3
# Si number density = 17.094324 Si / 1000 Ang^3
#
#
#
# Elastic Constant Matrix: (Units=GPa)
#
#
# Indices 1 2 3 4 5 6 
#
# 1 49.7358 39.3852 78.7254 0.0000 0.0000 0.0000
# 2 39.3852 49.7358 78.7254 0.0000 0.0000 0.0000
# 3 78.7254 78.7254 208.5121 0.0000 0.0000 0.0000
# 4 0.0000 0.0000 0.0000 35.4832 0.0000 0.0000
# 5 0.0000 0.0000 0.0000 0.0000 35.4832 0.0000
# 6 0.0000 0.0000 0.0000 0.0000 0.0000 18.5911
#
#
#
# Elastic Compliance Matrix: (Units=1/GPa)
#
#
# Indices 1 2 3 4 5 6 
#
# 1 0.065156 -0.031457 -0.012723 0.000000 0.000000 0.000000
# 2 -0.031457 0.065156 -0.012723 0.000000 0.000000 0.000000
# 3 -0.012723 -0.012723 0.014404 0.000000 0.000000 0.000000
# 4 0.000000 0.000000 0.000000 0.028182 0.000000 0.000000
# 5 0.000000 0.000000 0.000000 0.000000 0.028182 0.000000
# 6 0.000000 0.000000 0.000000 0.000000 0.000000 0.053789
#
#
# Mechanical properties :
#
#
# Convention : Reuss Voigt Hill
#
# Bulk Modulus (GPa) = 32.35358 77.96175 55.15767
# Shear Modulus (GPa) = 13.19331 25.32133 19.25732
#
# Velocity S-wave (km/s) = 2.78113 3.85290 3.36003
# Velocity P-wave (km/s) = 5.41115 8.09314 6.88402
#
# Compressibility (1/GPa) = 0.03090848
#
# Stress axis : x y z
#
# Youngs Moduli (GPa) = 15.34774 15.34774 69.42710
#
# Poissons Ratio (x) = 0.48279 0.88335
# Poissons Ratio (y) = 0.48279 0.88335
# Poissons Ratio (z) = 0.19528 0.19528
#
# Static dielectric constant tensor:
#      x y z
#    x 1.570210 0.000000 0.000000 
#    y 0.000000 1.570210 0.000000 
#    z 0.000000 0.000000 1.568890 
# 
# From -- ./inp_files/5948.got.cif
#   From: 2010.05.17/outbox.cif.g08.bks.cpg/sg115_3_cif.got.tgz:5948.got - 2010.05.20 11:07:42.
