data_PCOD9556692
_publ_section_title
;
Structure prediction by ZEFSAII (Michael W. Deem and Ramdas Pophale) SiO2 
 PCOD9556692
Probable space group: P -4 M 2
;
_chemical_formula_sum "Si O2"
_cell_formula_units_Z 40
_cell_length_a 15.502317
_cell_length_b 15.502317
_cell_length_c 8.170677
_cell_angle_alpha 90.000000
_cell_angle_beta 90.000000
_cell_angle_gamma 90.000000
_cell_volume 1963.592068
_symmetry_space_group_name_H-M "P -4 M 2"
_symmetry_group_IT_number 115
_symmetry_cell_setting 'tetragonal'
loop_
_space_group_symop_operation_xyz
x,y,z
y,-x,-z
-x,-y,z
-y,x,-z
y,x,-z
-y,-x,-z
-x,y,z
x,-y,z
loop_
_atom_site_type_symbol
_atom_site_label
_atom_site_fract_x
_atom_site_fract_y
_atom_site_fract_z
Si Si1 0.762870 0.647457 0.612189
Si Si2 0.899346 0.247622 0.803851
Si Si3 0.226852 0.095410 0.803228
Si Si4 0.359159 0.596545 0.183487
Si Si5 0.591742 0.834221 0.712620
O O1 0.726743 0.726743 0.500000
O O2 0.837509 0.677096 0.735764
O O3 0.677864 0.613338 0.705745
O O4 0.802832 0.587981 0.474338
O O5 0.846430 0.162493 0.751455
O O6 0.000000 0.252372 0.752200
O O7 0.898327 0.242937 0.001102
O O8 0.321133 0.112635 0.729723
O O9 0.197275 0.000000 0.762950
O O10 0.381497 0.500000 0.244577
O O11 0.254483 0.602170 0.184050
O O12 0.392574 0.607427 0.000000
O O13 0.500000 0.875419 0.758505
#
# Coordination Sequence:
#
# PCOD9556692 Si02
#       5
#     8   8   8   8   8
#     4  10  19  36  58  83 118 156 194 241 291 352
#     4  10  20  36  60  86 114 151 193 240 299 361
#     4  10  20  36  60  86 116 150 191 247 299 356
#     4  10  20  35  58  84 114 153 196 240 289 345
#     4  10  21  37  58  83 113 158 201 238 293 349
#
# _framework density 20.370827999999999
#
# number of rings (size 3 to 8) (size 9 to 14) (size 15 to 20)
#    0.000    2.000    4.000    1.200    0.000    2.600 
#    0.000    6.000    0.000    2.400    0.000    0.000 
#    0.000    0.000    0.000    0.000    0.000    0.000 
#
# Total GULP energy -222940.170595 kJ/mol
# GULP energy per Si atom -5573.504265 kJ/mol
# Density = 2.032446 g / cm^3
# Si number density = 20.370828 Si / 1000 Ang^3
#
#
#
# Elastic Constant Matrix: (Units=GPa)
#
#
# Indices 1 2 3 4 5 6 
#
# 1 103.3703 33.6017 27.7171 0.0000 0.0000 0.0000
# 2 33.6017 103.3705 27.7178 0.0000 0.0000 0.0000
# 3 27.7171 27.7178 40.8160 0.0000 0.0000 0.0000
# 4 0.0000 0.0000 0.0000 8.2427 0.0000 0.0000
# 5 0.0000 0.0000 0.0000 0.0000 8.2426 0.0000
# 6 0.0000 0.0000 0.0000 0.0000 0.0000 22.4117
#
#
#
# Elastic Compliance Matrix: (Units=1/GPa)
#
#
# Indices 1 2 3 4 5 6 
#
# 1 0.012200 -0.002133 -0.006837 0.000000 0.000000 0.000000
# 2 -0.002133 0.012200 -0.006837 0.000000 0.000000 0.000000
# 3 -0.006837 -0.006837 0.033786 0.000000 0.000000 0.000000
# 4 0.000000 0.000000 0.000000 0.121319 0.000000 0.000000
# 5 0.000000 0.000000 0.000000 0.000000 0.121321 0.000000
# 6 0.000000 0.000000 0.000000 0.000000 0.000000 0.044620
#
#
# Mechanical properties :
#
#
# Convention : Reuss Voigt Hill
#
# Bulk Modulus (GPa) = 37.63088 47.29221 42.46155
# Shear Modulus (GPa) = 12.95616 18.34741 15.65179
#
# Velocity S-wave (km/s) = 2.52467 3.00437 2.77491
# Velocity P-wave (km/s) = 5.19727 5.94147 5.58179
#
# Compressibility (1/GPa) = 0.02657392
#
# Stress axis : x y z
#
# Youngs Moduli (GPa) = 81.96479 81.96412 29.59823
#
# Poissons Ratio (x) = 0.17480 0.20235
# Poissons Ratio (y) = 0.17480 0.20236
# Poissons Ratio (z) = 0.56037 0.56039
#
# Static dielectric constant tensor:
#      x y z
#    x 1.741740 0.000000 0.000000 
#    y 0.000000 1.741740 0.000000 
#    z 0.000000 0.000000 1.739120 
# 
# From -- ./inp_files/1625.got.cif
#   From: 2010.05.17/outbox.cif.g08.bks.cpg/sg115_1_cif.got.tgz:1625.got - 2010.05.20 11:07:42.
