data_PCOD9556082
_publ_section_title
;
Structure prediction by ZEFSAII (Michael W. Deem and Ramdas Pophale) SiO2 
 PCOD9556082
Probable space group: P -4 21 C
;
_chemical_formula_sum "Si O2"
_cell_formula_units_Z 26
_cell_length_a 7.798928
_cell_length_b 7.798928
_cell_length_c 22.489674
_cell_angle_alpha 90.000000
_cell_angle_beta 90.000000
_cell_angle_gamma 90.000000
_cell_volume 1367.895693
_symmetry_space_group_name_H-M "P -4 21 C"
_symmetry_group_IT_number 114
_symmetry_cell_setting 'tetragonal'
loop_
_space_group_symop_operation_xyz
x,y,z
y,-x,-z
-x,-y,z
-y,x,-z
1/2+x,1/2-y,1/2-z
1/2-x,1/2+y,1/2-z
1/2-y,1/2-x,1/2+z
1/2+y,1/2+x,1/2+z
loop_
_atom_site_type_symbol
_atom_site_label
_atom_site_fract_x
_atom_site_fract_y
_atom_site_fract_z
Si Si1 0.500000 0.500000 0.500000
Si Si2 0.624541 0.737738 0.181787
Si Si3 0.547935 0.316188 0.384277
Si Si4 0.748137 0.848263 0.311202
O O1 0.516539 0.341996 0.454397
O O2 0.682316 0.816218 0.244620
O O3 0.420407 0.761903 0.174445
O O4 0.679902 0.539238 0.185686
O O5 0.752105 0.798025 0.130045
O O6 0.500000 0.500000 0.355585
O O7 0.412243 0.187650 0.354573
#
# Coordination Sequence:
#
# PCOD9556082 Si02
#       4
#     2   8   8   8
#     4   8  24  44  64  84 120 184 212 246 304 396
#     4  11  22  35  58  94 130 163 204 264 328 382
#     4  10  21  41  62  86 121 167 216 253 315 377
#     4  11  22  35  58  94 130 163 204 264 328 382
#
# _framework density 19.007297999999999
#
# number of rings (size 3 to 8) (size 9 to 14) (size 15 to 20)
#    0.923    0.615    3.077    2.769    0.000    3.692 
#    0.000    6.154    0.000    3.692    0.000    0.000 
#    0.000    0.000    0.000    0.000    0.000    0.000 
#
# Total GULP energy -144779.515082 kJ/mol
# GULP energy per Si atom -5568.442888 kJ/mol
# Density = 1.896404 g / cm^3
# Si number density = 19.007298 Si / 1000 Ang^3
#
#
#
# Elastic Constant Matrix: (Units=GPa)
#
#
# Indices 1 2 3 4 5 6 
#
# 1 61.0934 -4.5766 14.0386 0.0000 0.0000 0.0000
# 2 -4.5766 61.0934 14.0386 0.0000 0.0000 0.0000
# 3 14.0386 14.0386 105.2730 0.0000 0.0000 0.0000
# 4 0.0000 0.0000 0.0000 28.6026 0.0000 0.0000
# 5 0.0000 0.0000 0.0000 0.0000 28.6026 0.0000
# 6 0.0000 0.0000 0.0000 0.0000 0.0000 27.5436
#
#
#
# Elastic Compliance Matrix: (Units=1/GPa)
#
#
# Indices 1 2 3 4 5 6 
#
# 1 0.017088 0.001861 -0.002527 0.000000 0.000000 0.000000
# 2 0.001861 0.017088 -0.002527 0.000000 0.000000 0.000000
# 3 -0.002527 -0.002527 0.010173 0.000000 0.000000 0.000000
# 4 0.000000 0.000000 0.000000 0.034962 0.000000 0.000000
# 5 0.000000 0.000000 0.000000 0.000000 0.034962 0.000000
# 6 0.000000 0.000000 0.000000 0.000000 0.000000 0.036306
#
#
# Mechanical properties :
#
#
# Convention : Reuss Voigt Hill
#
# Bulk Modulus (GPa) = 26.34096 30.49566 28.41831
# Shear Modulus (GPa) = 29.47753 30.54702 30.01228
#
# Velocity S-wave (km/s) = 3.94236 4.01324 3.97796
# Velocity P-wave (km/s) = 5.88314 6.12812 6.00688
#
# Compressibility (1/GPa) = 0.03796369
#
# Stress axis : x y z
#
# Youngs Moduli (GPa) = 58.51910 58.51910 98.29880
#
# Poissons Ratio (x) = -0.10889 0.24840
# Poissons Ratio (y) = -0.10889 0.24840
# Poissons Ratio (z) = 0.14787 0.14787
#
# Static dielectric constant tensor:
#      x y z
#    x 1.733770 0.000000 0.000000 
#    y 0.000000 1.733770 0.000000 
#    z 0.000000 0.000000 1.610380 
# 
# From -- ./inp_files/2756.got.cif
#   From: 2010.05.17/outbox.cif.g08.bks.cpg/sg114_2_cif.got.tgz:2756.got - 2010.05.20 11:04:54.
