data_PCOD9556710
_publ_section_title
;
Structure prediction by ZEFSAII (Michael W. Deem and Ramdas Pophale) SiO2 
 PCOD9556710
Probable space group: P -4 M 2
;
_chemical_formula_sum "Si O2"
_cell_formula_units_Z 64
_cell_length_a 14.268733
_cell_length_b 14.268733
_cell_length_c 18.633305
_cell_angle_alpha 90.000000
_cell_angle_beta 90.000000
_cell_angle_gamma 90.000000
_cell_volume 3793.680180
_symmetry_space_group_name_H-M "P -4 M 2"
_symmetry_group_IT_number 115
_symmetry_cell_setting 'tetragonal'
loop_
_space_group_symop_operation_xyz
x,y,z
y,-x,-z
-x,-y,z
-y,x,-z
y,x,-z
-y,-x,-z
-x,y,z
x,-y,z
loop_
_atom_site_type_symbol
_atom_site_label
_atom_site_fract_x
_atom_site_fract_y
_atom_site_fract_z
Si Si1 0.386679 0.779455 0.945925
Si Si2 0.735293 0.889027 0.511863
Si Si3 0.614422 0.891381 0.084991
Si Si4 0.391752 0.885688 0.646430
Si Si5 0.213134 0.386560 0.770787
Si Si6 0.109578 0.389304 0.629688
Si Si7 0.608537 0.609370 0.855526
Si Si8 0.891911 0.613962 0.194822
O O1 0.500000 0.787324 0.949546
O O2 0.368029 0.672432 0.924073
O O3 0.354830 0.835167 0.874599
O O4 0.351649 0.829147 0.017850
O O5 0.826689 0.826689 0.500000
O O6 0.677252 0.858582 0.582507
O O7 0.667975 0.877260 0.443011
O O8 0.756455 0.000000 0.518544
O O9 0.500000 0.888340 0.085093
O O10 0.645294 0.848354 0.160958
O O11 0.641072 0.000000 0.077112
O O12 0.500000 0.855586 0.634457
O O13 0.359119 0.856171 0.726074
O O14 0.394050 0.000000 0.647846
O O15 0.204035 0.500000 0.768287
O O16 0.173857 0.353643 0.694891
O O17 0.320452 0.366874 0.791614
O O18 0.127537 0.500000 0.616848
O O19 0.000000 0.381443 0.651436
O O20 0.500000 0.625736 0.836076
O O21 0.620994 0.500000 0.873273
O O22 0.890451 0.500000 0.195061
O O23 0.000000 0.642967 0.187617
#
# Coordination Sequence:
#
# PCOD9556710 Si02
#       8
#     8   8   8   8   8   8   8   8
#     4   9  16  25  38  57  82 115 152 184 217 257
#     4  10  20  32  47  68  93 120 148 178 218 271
#     4   9  16  26  41  61  84 108 139 185 237 281
#     4   8  14  26  44  65  88 112 141 182 229 271
#     4   9  17  29  45  65  88 116 151 190 233 274
#     4   9  17  31  52  74  93 114 146 192 241 283
#     4   9  18  31  43  57  84 123 164 197 219 252
#     4   8  13  22  38  60  84 108 135 171 217 267
#
# _framework density 16.870162000000001
#
# number of rings (size 3 to 8) (size 9 to 14) (size 15 to 20)
#    0.000    3.125    0.000    1.875    0.000    6.125 
#    0.000    1.875    0.000    6.000    0.000    0.000 
#    0.000    2.250    0.000    0.750    0.000    7.625 
#
# Total GULP energy -356534.526906 kJ/mol
# GULP energy per Si atom -5570.851983 kJ/mol
# Density = 1.683176 g / cm^3
# Si number density = 16.870162 Si / 1000 Ang^3
#
#
#
# Elastic Constant Matrix: (Units=GPa)
#
#
# Indices 1 2 3 4 5 6 
#
# 1 52.4377 25.1085 31.3543 0.0000 0.0000 0.0000
# 2 25.1085 52.4377 31.3543 0.0000 0.0000 0.0000
# 3 31.3543 31.3543 99.0486 0.0000 0.0000 0.0000
# 4 0.0000 0.0000 0.0000 14.6253 0.0000 0.0000
# 5 0.0000 0.0000 0.0000 0.0000 14.6253 0.0000
# 6 0.0000 0.0000 0.0000 0.0000 0.0000 11.8814
#
#
#
# Elastic Compliance Matrix: (Units=1/GPa)
#
#
# Indices 1 2 3 4 5 6 
#
# 1 0.026962 -0.009629 -0.005487 0.000000 0.000000 0.000000
# 2 -0.009629 0.026962 -0.005487 0.000000 0.000000 0.000000
# 3 -0.005487 -0.005487 0.013570 0.000000 0.000000 0.000000
# 4 0.000000 0.000000 0.000000 0.068374 0.000000 0.000000
# 5 0.000000 0.000000 0.000000 0.000000 0.068374 0.000000
# 6 0.000000 0.000000 0.000000 0.000000 0.000000 0.084165
#
#
# Mechanical properties :
#
#
# Convention : Reuss Voigt Hill
#
# Bulk Modulus (GPa) = 38.04034 42.17311 40.10672
# Shear Modulus (GPa) = 14.77650 15.96687 15.37169
#
# Velocity S-wave (km/s) = 2.96276 3.07979 3.02184
# Velocity P-wave (km/s) = 5.85677 6.14001 6.00006
#
# Compressibility (1/GPa) = 0.02628788
#
# Stress axis : x y z
#
# Youngs Moduli (GPa) = 37.08969 37.08969 73.69363
#
# Poissons Ratio (x) = 0.35715 0.40433
# Poissons Ratio (y) = 0.35715 0.40433
# Poissons Ratio (z) = 0.20350 0.20350
#
# Static dielectric constant tensor:
#      x y z
#    x 1.578510 0.000000 0.000000 
#    y 0.000000 1.578510 0.000000 
#    z 0.000000 0.000000 1.587230 
# 
# From -- ./inp_files/4463.got.cif
#   From: 2010.05.17/outbox.cif.g08.bks.cpg/sg115_3_cif.got.tgz:4463.got - 2010.05.20 11:07:42.
