data_PCOD9556194
_publ_section_title
;
Structure prediction by ZEFSAII (Michael W. Deem and Ramdas Pophale) SiO2 
 PCOD9556194
Probable space group: P -4 21 C
;
_chemical_formula_sum "Si O2"
_cell_formula_units_Z 48
_cell_length_a 8.629332
_cell_length_b 8.629332
_cell_length_c 28.830163
_cell_angle_alpha 90.000000
_cell_angle_beta 90.000000
_cell_angle_gamma 90.000000
_cell_volume 2146.848777
_symmetry_space_group_name_H-M "P -4 21 C"
_symmetry_group_IT_number 114
_symmetry_cell_setting 'tetragonal'
loop_
_space_group_symop_operation_xyz
x,y,z
y,-x,-z
-x,-y,z
-y,x,-z
1/2+x,1/2-y,1/2-z
1/2-x,1/2+y,1/2-z
1/2-y,1/2-x,1/2+z
1/2+y,1/2+x,1/2+z
loop_
_atom_site_type_symbol
_atom_site_label
_atom_site_fract_x
_atom_site_fract_y
_atom_site_fract_z
Si Si1 0.319008 0.812367 0.189273
Si Si2 0.366741 0.895535 0.594041
Si Si3 0.123410 0.125885 0.564960
Si Si4 0.150430 0.109619 0.722069
Si Si5 0.815882 0.508065 0.148206
Si Si6 0.176366 0.184411 0.991470
O O1 0.334146 0.919914 0.144045
O O2 0.197014 0.850188 0.229036
O O3 0.488255 0.788172 0.212333
O O4 0.257472 0.653156 0.165746
O O5 0.320003 0.759891 0.559341
O O6 0.500000 0.000000 0.571529
O O7 0.228947 0.019208 0.598580
O O8 0.045740 0.256582 0.596694
O O9 0.224746 0.205263 0.524907
O O10 0.000000 0.000000 0.548054
O O11 0.134667 0.241233 0.682897
O O12 0.000000 0.000000 0.720005
O O13 0.000000 0.500000 0.150902
O O14 0.999295 0.206446 0.009214
#
# Coordination Sequence:
#
# PCOD9556194 Si02
#       6
#     8   8   8   8   8   8
#     4  11  23  44  68 101 143 186 242 300 363 432
#     4  12  26  46  71 106 143 186 242 299 365 437
#     4  12  25  47  75 104 141 186 238 298 361 434
#     4  10  22  43  66 100 143 185 240 295 361 434
#     4  11  23  42  69 101 139 184 237 296 355 430
#     4  11  28  51  73 106 149 188 243 306 373 449
#
# _framework density 22.358353999999999
#
# number of rings (size 3 to 8) (size 9 to 14) (size 15 to 20)
#    0.000    0.833    5.000    1.500    4.667    4.000 
#    6.000    0.000    0.000    0.000    0.000    0.000 
#    0.000    0.000    0.000    0.000    0.000    0.000 
#
# Total GULP energy -268392.985498 kJ/mol
# GULP energy per Si atom -5591.520531 kJ/mol
# Density = 2.230746 g / cm^3
# Si number density = 22.358354 Si / 1000 Ang^3
#
#
#
# Elastic Constant Matrix: (Units=GPa)
#
#
# Indices 1 2 3 4 5 6 
#
# 1 104.8076 42.5119 40.5466 0.0000 0.0000 0.0000
# 2 42.5119 104.8076 40.5466 0.0000 0.0000 0.0000
# 3 40.5466 40.5466 135.1120 0.0000 0.0000 0.0000
# 4 0.0000 0.0000 0.0000 31.5529 0.0000 0.0000
# 5 0.0000 0.0000 0.0000 0.0000 31.5529 0.0000
# 6 0.0000 0.0000 0.0000 0.0000 0.0000 29.3678
#
#
#
# Elastic Compliance Matrix: (Units=1/GPa)
#
#
# Indices 1 2 3 4 5 6 
#
# 1 0.012092 -0.003961 -0.002440 0.000000 0.000000 0.000000
# 2 -0.003961 0.012092 -0.002440 0.000000 0.000000 0.000000
# 3 -0.002440 -0.002440 0.008866 0.000000 0.000000 0.000000
# 4 0.000000 0.000000 0.000000 0.031693 0.000000 0.000000
# 5 0.000000 0.000000 0.000000 0.000000 0.031693 0.000000
# 6 0.000000 0.000000 0.000000 0.000000 0.000000 0.034051
#
#
# Mechanical properties :
#
#
# Convention : Reuss Voigt Hill
#
# Bulk Modulus (GPa) = 65.07192 65.77082 65.42137
# Shear Modulus (GPa) = 32.61782 33.23617 32.92699
#
# Velocity S-wave (km/s) = 3.82365 3.85973 3.84173
# Velocity P-wave (km/s) = 6.97574 7.02452 7.00017
#
# Compressibility (1/GPa) = 0.01536761
#
# Stress axis : x y z
#
# Youngs Moduli (GPa) = 82.70056 82.70056 112.79280
#
# Poissons Ratio (x) = 0.32755 0.27523
# Poissons Ratio (y) = 0.32755 0.27523
# Poissons Ratio (z) = 0.20180 0.20180
#
# Static dielectric constant tensor:
#      x y z
#    x 1.849400 0.000000 0.000000 
#    y 0.000000 1.849400 0.000000 
#    z 0.000000 0.000000 1.823210 
# 
# From -- ./inp_files/3965.got.cif
#   From: 2010.05.17/outbox.cif.g08.bks.cpg/sg114_2_cif.got.tgz:3965.got - 2010.05.20 11:04:54.
