data_PCOD9556037
_publ_section_title
;
Structure prediction by ZEFSAII (Michael W. Deem and Ramdas Pophale) SiO2 
 PCOD9556037
Probable space group: P -4 21 C
;
_chemical_formula_sum "Si O2"
_cell_formula_units_Z 40
_cell_length_a 8.115178
_cell_length_b 8.115178
_cell_length_c 24.785818
_cell_angle_alpha 90.000000
_cell_angle_beta 90.000000
_cell_angle_gamma 90.000000
_cell_volume 1632.297655
_symmetry_space_group_name_H-M "P -4 21 C"
_symmetry_group_IT_number 114
_symmetry_cell_setting 'tetragonal'
loop_
_space_group_symop_operation_xyz
x,y,z
y,-x,-z
-x,-y,z
-y,x,-z
1/2+x,1/2-y,1/2-z
1/2-x,1/2+y,1/2-z
1/2-y,1/2-x,1/2+z
1/2+y,1/2+x,1/2+z
loop_
_atom_site_type_symbol
_atom_site_label
_atom_site_fract_x
_atom_site_fract_y
_atom_site_fract_z
Si Si1 0.769622 0.373649 0.587553
Si Si2 0.737116 0.119143 0.380483
Si Si3 0.863889 0.231369 0.485011
Si Si4 0.746649 0.109712 0.184830
Si Si5 0.893357 0.260872 0.282795
O O1 0.814230 0.553772 0.609149
O O2 0.774259 0.365943 0.522535
O O3 0.620654 0.301381 0.622555
O O4 0.928439 0.261809 0.602669
O O5 0.844668 0.231338 0.420866
O O6 0.802133 0.129866 0.320435
O O7 0.057463 0.219285 0.497581
O O8 0.882678 0.199986 0.221674
O O9 0.576910 0.205965 0.196856
O O10 0.708661 0.927787 0.205973
#
# Coordination Sequence:
#
# PCOD9556037 Si02
#       5
#     8   8   8   8   8
#     4  10  21  37  58  85 116 149 187 231 278 330
#     4  10  21  37  58  85 116 149 187 231 278 330
#     4   9  18  34  56  81 112 152 192 229 274 327
#     4  11  24  40  59  84 113 146 186 231 279 333
#     4  11  24  40  59  84 113 146 186 231 279 333
#
# _framework density 24.505334000000001
#
# number of rings (size 3 to 8) (size 9 to 14) (size 15 to 20)
#    0.000    1.800    0.000    3.600    0.000   12.000 
#    0.000    4.000    0.000    0.000    0.000    0.000 
#    0.000    0.000    0.000    0.000    0.000    0.000 
#
# Total GULP energy -223792.145296 kJ/mol
# GULP energy per Si atom -5594.803632 kJ/mol
# Density = 2.444956 g / cm^3
# Si number density = 24.505334 Si / 1000 Ang^3
#
#
#
# Elastic Constant Matrix: (Units=GPa)
#
#
# Indices 1 2 3 4 5 6 
#
# 1 36.5481 -0.0844 1.0281 0.0000 0.0000 0.0000
# 2 -0.0844 36.5481 1.0281 0.0000 0.0000 0.0000
# 3 1.0281 1.0281 74.0743 0.0000 0.0000 0.0000
# 4 0.0000 0.0000 0.0000 28.6849 0.0000 0.0000
# 5 0.0000 0.0000 0.0000 0.0000 28.6849 0.0000
# 6 0.0000 0.0000 0.0000 0.0000 0.0000 19.5073
#
#
#
# Elastic Compliance Matrix: (Units=1/GPa)
#
#
# Indices 1 2 3 4 5 6 
#
# 1 0.027372 0.000074 -0.000381 0.000000 0.000000 0.000000
# 2 0.000074 0.027372 -0.000381 0.000000 0.000000 0.000000
# 3 -0.000381 -0.000381 0.013511 0.000000 0.000000 0.000000
# 4 0.000000 0.000000 0.000000 0.034862 0.000000 0.000000
# 5 0.000000 0.000000 0.000000 0.000000 0.034862 0.000000
# 6 0.000000 0.000000 0.000000 0.000000 0.000000 0.051263
#
#
# Mechanical properties :
#
#
# Convention : Reuss Voigt Hill
#
# Bulk Modulus (GPa) = 14.95241 16.79044 15.87142
# Shear Modulus (GPa) = 23.48414 25.05532 24.26973
#
# Velocity S-wave (km/s) = 3.09905 3.20104 3.15045
# Velocity P-wave (km/s) = 4.34976 4.53087 4.44124
#
# Compressibility (1/GPa) = 0.06687886
#
# Stress axis : x y z
#
# Youngs Moduli (GPa) = 36.53353 36.53353 74.01630
#
# Poissons Ratio (x) = -0.00270 0.02819
# Poissons Ratio (y) = -0.00270 0.02819
# Poissons Ratio (z) = 0.01392 0.01392
#
# Static dielectric constant tensor:
#      x y z
#    x 1.938940 0.000000 0.000000 
#    y 0.000000 1.938940 0.000000 
#    z 0.000000 0.000000 1.948070 
# 
# From -- ./inp_files/3336.got.cif
#   From: 2010.05.17/outbox.cif.g08.bks.cpg/sg114_2_cif.got.tgz:3336.got - 2010.05.20 11:04:54.
