data_PCOD9556556
_publ_section_title
;
Structure prediction by ZEFSAII (Michael W. Deem and Ramdas Pophale) SiO2 
 PCOD9556556
Probable space group: P -4 M 2
;
_chemical_formula_sum "Si O2"
_cell_formula_units_Z 56
_cell_length_a 14.666382
_cell_length_b 14.666382
_cell_length_c 14.971454
_cell_angle_alpha 90.000000
_cell_angle_beta 90.000000
_cell_angle_gamma 90.000000
_cell_volume 3220.401091
_symmetry_space_group_name_H-M "P -4 M 2"
_symmetry_group_IT_number 115
_symmetry_cell_setting 'tetragonal'
loop_
_space_group_symop_operation_xyz
x,y,z
y,-x,-z
-x,-y,z
-y,x,-z
y,x,-z
-y,-x,-z
-x,y,z
x,-y,z
loop_
_atom_site_type_symbol
_atom_site_label
_atom_site_fract_x
_atom_site_fract_y
_atom_site_fract_z
Si Si1 0.396629 0.645376 0.102173
Si Si2 0.601423 0.716471 0.731198
Si Si3 0.610071 0.899857 0.353409
Si Si4 0.106280 0.392389 0.174780
Si Si5 0.292403 0.389948 0.582073
Si Si6 0.859385 0.395227 0.853138
Si Si7 0.102983 0.257434 0.009015
O O1 0.500000 0.611424 0.113766
O O2 0.327832 0.599461 0.170597
O O3 0.395933 0.751593 0.127920
O O4 0.368260 0.631741 0.000000
O O5 0.500000 0.715230 0.691616
O O6 0.629354 0.821091 0.747739
O O7 0.665032 0.654342 0.670836
O O8 0.500000 0.902514 0.356885
O O9 0.635950 0.814498 0.414706
O O10 0.630911 0.879808 0.249195
O O11 0.645141 0.000000 0.378318
O O12 0.119960 0.500000 0.150812
O O13 0.124062 0.325354 0.091734
O O14 0.000000 0.382511 0.200155
O O15 0.346160 0.346160 0.500000
O O16 0.301128 0.500000 0.583472
O O17 0.891822 0.500000 0.867380
O O18 0.897496 0.322082 0.922092
O O19 0.000000 0.220868 0.021952
O O20 0.178937 0.178937 0.000000
#
# Coordination Sequence:
#
# PCOD9556556 Si02
#       7
#     8   8   8   8   8   8   8
#     4  11  21  31  45  72 112 152 186 221 262 313
#     4  11  21  34  53  76 106 147 187 223 263 318
#     4   9  18  34  56  81 108 136 173 226 278 316
#     4   9  19  36  55  76 103 137 181 233 282 323
#     4  11  23  39  57  82 114 149 183 219 264 323
#     4  10  18  31  52  78 105 135 176 226 275 322
#     4  11  22  33  49  73 104 144 184 223 268 322
#
# _framework density 17.389139
#
# number of rings (size 3 to 8) (size 9 to 14) (size 15 to 20)
#    0.000    1.714    1.429    4.286    0.000    6.429 
#    0.000    0.714    0.000    3.429    0.000    0.000 
#    0.000    1.429    0.000    0.000    0.000    0.000 
#
# Total GULP energy -312475.159746 kJ/mol
# GULP energy per Si atom -5579.913567 kJ/mol
# Density = 1.734956 g / cm^3
# Si number density = 17.389139 Si / 1000 Ang^3
#
#
#
# Elastic Constant Matrix: (Units=GPa)
#
#
# Indices 1 2 3 4 5 6 
#
# 1 106.1034 52.8710 36.1889 0.0000 0.0000 0.0000
# 2 52.8710 106.1035 36.1892 0.0000 0.0000 0.0000
# 3 36.1889 36.1892 58.9518 0.0000 0.0000 0.0000
# 4 0.0000 0.0000 0.0000 18.0239 0.0000 0.0000
# 5 0.0000 0.0000 0.0000 0.0000 18.0240 0.0000
# 6 0.0000 0.0000 0.0000 0.0000 0.0000 19.2730
#
#
#
# Elastic Compliance Matrix: (Units=1/GPa)
#
#
# Indices 1 2 3 4 5 6 
#
# 1 0.013758 -0.005028 -0.005359 0.000000 0.000000 0.000000
# 2 -0.005028 0.013758 -0.005359 0.000000 0.000000 0.000000
# 3 -0.005359 -0.005359 0.023543 0.000000 0.000000 0.000000
# 4 0.000000 0.000000 0.000000 0.055482 0.000000 0.000000
# 5 0.000000 0.000000 0.000000 0.000000 0.055482 0.000000
# 6 0.000000 0.000000 0.000000 0.000000 0.000000 0.051886
#
#
# Mechanical properties :
#
#
# Convention : Reuss Voigt Hill
#
# Bulk Modulus (GPa) = 51.10840 57.96189 54.53514
# Shear Modulus (GPa) = 19.84732 20.79147 20.31939
#
# Velocity S-wave (km/s) = 3.38207 3.46158 3.42206
# Velocity P-wave (km/s) = 6.68625 7.02718 6.85884
#
# Compressibility (1/GPa) = 0.01956626
#
# Stress axis : x y z
#
# Youngs Moduli (GPa) = 72.68546 72.68518 42.47556
#
# Poissons Ratio (x) = 0.36543 0.22764
# Poissons Ratio (y) = 0.36543 0.22764
# Poissons Ratio (z) = 0.38954 0.38955
#
# Static dielectric constant tensor:
#      x y z
#    x 1.617440 0.000000 0.000000 
#    y 0.000000 1.617440 0.000000 
#    z 0.000000 0.000000 1.585870 
# 
# From -- ./inp_files/3794.got.cif
#   From: 2010.05.17/outbox.cif.g08.bks.cpg/sg115_2_cif.got.tgz:3794.got - 2010.05.20 11:07:42.
