data_PCOD9556491
_publ_section_title
;
Structure prediction by ZEFSAII (Michael W. Deem and Ramdas Pophale) SiO2 
 PCOD9556491
Probable space group: P -4 21 C
;
_chemical_formula_sum "Si O2"
_cell_formula_units_Z 34
_cell_length_a 13.293288
_cell_length_b 13.293288
_cell_length_c 8.207148
_cell_angle_alpha 90.000000
_cell_angle_beta 90.000000
_cell_angle_gamma 90.000000
_cell_volume 1450.297482
_symmetry_space_group_name_H-M "P -4 21 C"
_symmetry_group_IT_number 114
_symmetry_cell_setting 'tetragonal'
loop_
_space_group_symop_operation_xyz
x,y,z
y,-x,-z
-x,-y,z
-y,x,-z
1/2+x,1/2-y,1/2-z
1/2-x,1/2+y,1/2-z
1/2-y,1/2-x,1/2+z
1/2+y,1/2+x,1/2+z
loop_
_atom_site_type_symbol
_atom_site_label
_atom_site_fract_x
_atom_site_fract_y
_atom_site_fract_z
Si Si1 0.785941 0.415692 0.693389
Si Si2 0.379994 0.010056 0.133509
Si Si3 0.000000 0.000000 0.500000
Si Si4 0.823511 0.732342 0.706335
Si Si5 0.687100 0.595918 0.864462
O O1 0.815510 0.471642 0.528405
O O2 0.701816 0.329764 0.684796
O O3 0.891024 0.370174 0.755969
O O4 0.744607 0.492295 0.828683
O O5 0.337129 0.912577 0.224680
O O6 0.500000 0.000000 0.097209
O O7 0.071386 0.070507 0.391018
O O8 0.721676 0.667242 0.717894
O O9 0.853565 0.770760 0.528690
#
# Coordination Sequence:
#
# PCOD9556491 Si02
#       5
#     8   8   2   8   8
#     4  12  26  46  75 110 151 198 254 320 380 455
#     4  12  26  47  75 112 149 197 261 316 378 453
#     4  12  28  52  80 110 160 212 244 326 396 472
#     4  12  27  46  77 113 150 204 254 318 381 461
#     4  12  26  50  75 112 154 201 259 312 388 454
#
# _framework density 23.443466000000001
#
# number of rings (size 3 to 8) (size 9 to 14) (size 15 to 20)
#    0.000    0.000    4.706    4.941    3.294    0.000 
#    0.000    0.000    0.000    1.412    0.000    0.000 
#    0.000    0.000    0.000    0.000    0.000    0.000 
#
# Total GULP energy -190404.148451 kJ/mol
# GULP energy per Si atom -5600.122013 kJ/mol
# Density = 2.339011 g / cm^3
# Si number density = 23.443466 Si / 1000 Ang^3
#
#
#
# Elastic Constant Matrix: (Units=GPa)
#
#
# Indices 1 2 3 4 5 6 
#
# 1 85.2094 20.2620 15.4272 0.0000 0.0000 0.0000
# 2 20.2620 85.2094 15.4272 0.0000 0.0000 0.0000
# 3 15.4272 15.4272 80.3385 0.0000 0.0000 0.0000
# 4 0.0000 0.0000 0.0000 22.1460 0.0000 0.0000
# 5 0.0000 0.0000 0.0000 0.0000 22.1460 0.0000
# 6 0.0000 0.0000 0.0000 0.0000 0.0000 63.3162
#
#
#
# Elastic Compliance Matrix: (Units=1/GPa)
#
#
# Indices 1 2 3 4 5 6 
#
# 1 0.012721 -0.002676 -0.001929 0.000000 0.000000 0.000000
# 2 -0.002676 0.012721 -0.001929 0.000000 0.000000 0.000000
# 3 -0.001929 -0.001929 0.013188 0.000000 0.000000 0.000000
# 4 0.000000 0.000000 0.000000 0.045155 0.000000 0.000000
# 5 0.000000 0.000000 0.000000 0.000000 0.045155 0.000000
# 6 0.000000 0.000000 0.000000 0.000000 0.000000 0.015794
#
#
# Mechanical properties :
#
#
# Convention : Reuss Voigt Hill
#
# Bulk Modulus (GPa) = 39.11875 39.22114 39.16995
# Shear Modulus (GPa) = 30.06195 34.83100 32.44648
#
# Velocity S-wave (km/s) = 3.58483 3.85872 3.72429
# Velocity P-wave (km/s) = 5.81870 6.05139 5.93619
#
# Compressibility (1/GPa) = 0.02556319
#
# Stress axis : x y z
#
# Youngs Moduli (GPa) = 78.60820 78.60820 75.82545
#
# Poissons Ratio (x) = 0.21034 0.14627
# Poissons Ratio (y) = 0.21034 0.14627
# Poissons Ratio (z) = 0.15164 0.15164
#
# Static dielectric constant tensor:
#      x y z
#    x 1.916060 0.000000 0.000000 
#    y 0.000000 1.916060 0.000000 
#    z 0.000000 0.000000 1.867930 
# 
# From -- ./inp_files/684.got.cif
#   From: 2010.05.17/outbox.cif.g08.bks.cpg/sg114_1_cif.got.tgz:684.got - 2010.05.20 11:04:54.
