data_PCOD9556769
_publ_section_title
;
Structure prediction by ZEFSAII (Michael W. Deem and Ramdas Pophale) SiO2 
 PCOD9556769
Probable space group: P -4 M 2
;
_chemical_formula_sum "Si O2"
_cell_formula_units_Z 44
_cell_length_a 9.184840
_cell_length_b 9.184840
_cell_length_c 29.527780
_cell_angle_alpha 90.000000
_cell_angle_beta 90.000000
_cell_angle_gamma 90.000000
_cell_volume 2491.001488
_symmetry_space_group_name_H-M "P -4 M 2"
_symmetry_group_IT_number 115
_symmetry_cell_setting 'tetragonal'
loop_
_space_group_symop_operation_xyz
x,y,z
y,-x,-z
-x,-y,z
-y,x,-z
y,x,-z
-y,-x,-z
-x,y,z
x,-y,z
loop_
_atom_site_type_symbol
_atom_site_label
_atom_site_fract_x
_atom_site_fract_y
_atom_site_fract_z
Si Si1 0.674287 0.827989 0.957993
Si Si2 0.677134 0.830089 0.776165
Si Si3 0.169157 0.676937 0.324451
Si Si4 0.328304 0.324843 0.415707
Si Si5 0.677580 0.667098 0.866065
Si Si6 0.826949 0.826949 0.500000
O O1 0.500000 0.805071 0.962496
O O2 0.721344 0.757019 0.910383
O O3 0.701279 0.000000 0.957205
O O4 0.753506 0.753506 0.000000
O O5 0.500000 0.823430 0.776240
O O6 0.725043 0.782599 0.725821
O O7 0.728409 0.737791 0.818957
O O8 0.715486 0.000000 0.781791
O O9 0.172033 0.500000 0.323866
O O10 0.265553 0.722563 0.366922
O O11 0.000000 0.719380 0.330787
O O12 0.500000 0.295868 0.418733
O O13 0.307511 0.500000 0.419754
O O14 0.243708 0.245956 0.455866
O O15 0.500000 0.669898 0.865113
O O16 0.723332 0.500000 0.869890
O O17 0.000000 0.801222 0.500270
#
# Coordination Sequence:
#
# PCOD9556769 Si02
#       6
#     8   8   8   8   8   4
#     4  10  20  33  49  69  94 125 161 202 248 297
#     4   8  13  22  37  60  93 131 167 200 237 284
#     4   8  14  25  42  65  96 134 169 201 240 285
#     4  10  20  33  51  76 103 130 162 202 249 298
#     4   9  16  25  40  64  94 127 161 200 246 292
#     4  11  24  39  54  72  94 125 166 207 248 298
#
# _framework density 17.663577
#
# number of rings (size 3 to 8) (size 9 to 14) (size 15 to 20)
#    0.000    2.818    0.000    3.273    0.000    6.909 
#    0.000    3.636    0.000    0.000    0.000    1.273 
#    0.000    1.455    0.000    0.000    0.000    0.000 
#
# Total GULP energy -245260.973251 kJ/mol
# GULP energy per Si atom -5574.113028 kJ/mol
# Density = 1.762337 g / cm^3
# Si number density = 17.663577 Si / 1000 Ang^3
#
#
#
# Elastic Constant Matrix: (Units=GPa)
#
#
# Indices 1 2 3 4 5 6 
#
# 1 55.6710 51.5897 78.8842 0.0000 0.0000 0.0000
# 2 51.5897 55.6710 78.8842 0.0000 0.0000 0.0000
# 3 78.8842 78.8842 209.8738 0.0000 0.0000 0.0000
# 4 0.0000 0.0000 0.0000 -32.1010 0.0000 0.0000
# 5 0.0000 0.0000 0.0000 0.0000 -32.1010 0.0000
# 6 0.0000 0.0000 0.0000 0.0000 0.0000 14.6601
#
#
#
# Elastic Compliance Matrix: (Units=1/GPa)
#
#
# Indices 1 2 3 4 5 6 
#
# 1 0.132934 -0.112084 -0.007837 0.000000 0.000000 0.000000
# 2 -0.112084 0.132934 -0.007837 0.000000 0.000000 0.000000
# 3 -0.007837 -0.007837 0.010656 0.000000 0.000000 0.000000
# 4 0.000000 0.000000 0.000000 -0.031152 0.000000 0.000000
# 5 0.000000 0.000000 0.000000 0.000000 -0.031152 0.000000
# 6 0.000000 0.000000 0.000000 0.000000 0.000000 0.068213
#
#
# Mechanical properties :
#
#
# Convention : Reuss Voigt Hill
#
# Bulk Modulus (GPa) = 47.59877 82.21468 64.90673
# Shear Modulus (GPa) = 9.17510 -2.45120 3.36195
#
# Velocity S-wave (km/s) = 2.28159 -1.17929 1.38111
# Velocity P-wave (km/s) = 5.82639 6.69264 6.27448
#
# Compressibility (1/GPa) = 0.02100895
#
# Stress axis : x y z
#
# Youngs Moduli (GPa) = 7.52250 7.52250 93.84402
#
# Poissons Ratio (x) = 0.84315 0.73544
# Poissons Ratio (y) = 0.84315 0.73544
# Poissons Ratio (z) = 0.05895 0.05895
#
# Static dielectric constant tensor:
#      x y z
#    x 1.589400 0.000000 0.000000 
#    y 0.000000 1.589400 0.000000 
#    z 0.000000 0.000000 1.601790 
# 
# From -- ./inp_files/5814.got.cif
#   From: 2010.05.17/outbox.cif.g08.bks.cpg/sg115_3_cif.got.tgz:5814.got - 2010.05.20 11:07:42.
