data_PCOD9556191
_publ_section_title
;
Structure prediction by ZEFSAII (Michael W. Deem and Ramdas Pophale) SiO2 
 PCOD9556191
Probable space group: P -4 21 C
;
_chemical_formula_sum "Si O2"
_cell_formula_units_Z 58
_cell_length_a 16.854699
_cell_length_b 16.854699
_cell_length_c 9.301008
_cell_angle_alpha 90.000000
_cell_angle_beta 90.000000
_cell_angle_gamma 90.000000
_cell_volume 2642.238522
_symmetry_space_group_name_H-M "P -4 21 C"
_symmetry_group_IT_number 114
_symmetry_cell_setting 'tetragonal'
loop_
_space_group_symop_operation_xyz
x,y,z
y,-x,-z
-x,-y,z
-y,x,-z
1/2+x,1/2-y,1/2-z
1/2-x,1/2+y,1/2-z
1/2-y,1/2-x,1/2+z
1/2+y,1/2+x,1/2+z
loop_
_atom_site_type_symbol
_atom_site_label
_atom_site_fract_x
_atom_site_fract_y
_atom_site_fract_z
Si Si1 0.038581 0.349326 0.236819
Si Si2 0.748523 0.348317 0.033836
Si Si3 0.588670 0.026248 0.068729
Si Si4 0.500000 0.500000 0.000000
Si Si5 0.130667 0.646024 0.804260
Si Si6 0.634306 0.447155 0.835456
Si Si7 0.894369 0.918824 0.983614
Si Si8 0.881570 0.813581 0.246209
O O1 0.094893 0.389699 0.354580
O O2 0.079363 0.267717 0.192293
O O3 0.946729 0.342225 0.286766
O O4 0.035999 0.405307 0.099623
O O5 0.812758 0.378101 0.150321
O O6 0.685829 0.301385 0.133541
O O7 0.802724 0.313800 0.905415
O O8 0.694636 0.412619 0.951355
O O9 0.500000 0.000000 0.108425
O O10 0.644828 0.955424 0.120776
O O11 0.438790 0.454269 0.102796
O O12 0.641652 0.409684 0.676207
O O13 0.644319 0.541573 0.816643
O O14 0.856219 0.868575 0.112371
O O15 0.987352 0.893841 0.980543
#
# Coordination Sequence:
#
# PCOD9556191 Si02
#       8
#     8   8   8   2   8   8   8   8
#     4  11  23  42  69 101 132 175 233 291 347 420
#     4  12  26  43  69 100 139 184 232 289 359 429
#     4  10  22  42  73  97 126 172 233 288 341 422
#     4  12  20  40  70 108 140 192 242 284 328 420
#     4  11  24  45  69 100 137 180 230 287 363 429
#     4  11  22  40  69  99 142 185 240 284 337 425
#     4   9  20  39  64  97 139 191 236 278 336 412
#     4  11  24  41  66 103 139 180 231 295 354 406
#
# _framework density 21.951084999999999
#
# number of rings (size 3 to 8) (size 9 to 14) (size 15 to 20)
#    0.000    1.241    4.138    2.897    1.931    4.414 
#    0.000    1.379    0.000    0.000    0.000    0.000 
#    0.000    0.000    0.000    0.000    0.000    0.000 
#
# Total GULP energy -323699.220120 kJ/mol
# GULP energy per Si atom -5581.021037 kJ/mol
# Density = 2.190112 g / cm^3
# Si number density = 21.951085 Si / 1000 Ang^3
#
#
#
# Elastic Constant Matrix: (Units=GPa)
#
#
# Indices 1 2 3 4 5 6 
#
# 1 56.9416 30.7017 30.5223 0.0000 0.0000 0.0000
# 2 30.7017 56.9416 30.5223 0.0000 0.0000 0.0000
# 3 30.5223 30.5223 130.8006 0.0000 0.0000 0.0000
# 4 0.0000 0.0000 0.0000 34.5152 0.0000 0.0000
# 5 0.0000 0.0000 0.0000 0.0000 34.5152 0.0000
# 6 0.0000 0.0000 0.0000 0.0000 0.0000 7.7200
#
#
#
# Elastic Compliance Matrix: (Units=1/GPa)
#
#
# Indices 1 2 3 4 5 6 
#
# 1 0.025867 -0.012243 -0.003179 0.000000 0.000000 0.000000
# 2 -0.012243 0.025867 -0.003179 0.000000 0.000000 0.000000
# 3 -0.003179 -0.003179 0.009129 0.000000 0.000000 0.000000
# 4 0.000000 0.000000 0.000000 0.028973 0.000000 0.000000
# 5 0.000000 0.000000 0.000000 0.000000 0.028973 0.000000
# 6 0.000000 0.000000 0.000000 0.000000 0.000000 0.129534
#
#
# Mechanical properties :
#
#
# Convention : Reuss Voigt Hill
#
# Bulk Modulus (GPa) = 42.26436 47.57516 44.91976
# Shear Modulus (GPa) = 17.03972 25.54590 21.29281
#
# Velocity S-wave (km/s) = 2.78916 3.41510 3.11788
# Velocity P-wave (km/s) = 5.44686 6.10499 5.78529
#
# Compressibility (1/GPa) = 0.02366060
#
# Stress axis : x y z
#
# Youngs Moduli (GPa) = 38.65918 38.65918 109.54144
#
# Poissons Ratio (x) = 0.47330 0.34826
# Poissons Ratio (y) = 0.47330 0.34826
# Poissons Ratio (z) = 0.12291 0.12291
#
# Static dielectric constant tensor:
#      x y z
#    x 1.835480 0.000000 0.000000 
#    y 0.000000 1.835480 0.000000 
#    z 0.000000 0.000000 1.818180 
# 
# From -- ./inp_files/1025.got.cif
#   From: 2010.05.17/outbox.cif.g08.bks.cpg/sg114_1_cif.got.tgz:1025.got - 2010.05.20 11:04:54.
