data_PCOD9556664
_publ_section_title
;
Structure prediction by ZEFSAII (Michael W. Deem and Ramdas Pophale) SiO2 
 PCOD9556664
Probable space group: P -4 M 2
;
_chemical_formula_sum "Si O2"
_cell_formula_units_Z 37
_cell_length_a 8.131378
_cell_length_b 8.131378
_cell_length_c 27.209299
_cell_angle_alpha 90.000000
_cell_angle_beta 90.000000
_cell_angle_gamma 90.000000
_cell_volume 1799.060026
_symmetry_space_group_name_H-M "P -4 M 2"
_symmetry_group_IT_number 115
_symmetry_cell_setting 'tetragonal'
loop_
_space_group_symop_operation_xyz
x,y,z
y,-x,-z
-x,-y,z
-y,x,-z
y,x,-z
-y,-x,-z
-x,y,z
x,-y,z
loop_
_atom_site_type_symbol
_atom_site_label
_atom_site_fract_x
_atom_site_fract_y
_atom_site_fract_z
Si Si1 0.000000 0.000000 0.000000
Si Si2 0.309208 0.810995 0.757687
Si Si3 0.299516 0.000000 0.924183
Si Si4 0.318606 0.803222 0.342404
Si Si5 0.806729 0.200494 0.446851
Si Si6 0.300068 0.319853 0.858564
O O1 0.000000 0.169393 0.031503
O O2 0.500000 0.765053 0.751848
O O3 0.233997 0.794135 0.703907
O O4 0.237643 0.707228 0.802771
O O5 0.301284 0.000000 0.773888
O O6 0.261664 0.835967 0.892368
O O7 0.500000 0.000000 0.934998
O O8 0.500000 0.743116 0.329198
O O9 0.270922 0.738356 0.396230
O O10 0.321783 0.000000 0.347568
O O11 0.741504 0.258497 0.500000
O O12 0.000000 0.238312 0.444205
O O13 0.792580 0.000000 0.448072
O O14 0.500000 0.319820 0.855510
O O15 0.248119 0.500000 0.876943
#
# Coordination Sequence:
#
# PCOD9556664 Si02
#       6
#     1   8   4   8   8   8
#     4  12  28  44  68 104 132 172 220 256 314 352
#     4  10  19  33  54  80 110 146 189 237 287 345
#     4  10  22  44  66  92 132 168 210 261 303 360
#     4  10  20  32  46  71 106 140 176 223 281 347
#     4   8  14  27  47  65  84 121 174 226 279 339
#     4   9  17  34  62  89 117 159 203 245 301 361
#
# _framework density 20.566293000000002
#
# number of rings (size 3 to 8) (size 9 to 14) (size 15 to 20)
#    0.000    2.595    1.081    1.946    0.000    3.459 
#    1.946    1.081    0.000    3.892    0.000    0.000 
#    0.000    0.000    0.000    0.000    0.000    0.000 
#
# Total GULP energy -206156.387204 kJ/mol
# GULP energy per Si atom -5571.794249 kJ/mol
# Density = 2.051948 g / cm^3
# Si number density = 20.566293 Si / 1000 Ang^3
#
#
#
# Elastic Constant Matrix: (Units=GPa)
#
#
# Indices 1 2 3 4 5 6 
#
# 1 52.4748 23.1137 45.0819 0.0000 0.0000 0.0000
# 2 23.1137 52.4747 45.0819 0.0000 0.0000 0.0000
# 3 45.0819 45.0819 129.9822 0.0000 0.0000 0.0000
# 4 0.0000 0.0000 0.0000 45.2487 0.0000 0.0000
# 5 0.0000 0.0000 0.0000 0.0000 45.2481 0.0000
# 6 0.0000 0.0000 0.0000 0.0000 0.0000 9.0319
#
#
#
# Elastic Compliance Matrix: (Units=1/GPa)
#
#
# Indices 1 2 3 4 5 6 
#
# 1 0.028312 -0.005747 -0.007826 0.000000 0.000000 0.000000
# 2 -0.005747 0.028312 -0.007826 0.000000 0.000000 0.000000
# 3 -0.007826 -0.007826 0.013122 0.000000 0.000000 0.000000
# 4 0.000000 0.000000 0.000000 0.022100 0.000000 0.000000
# 5 0.000000 0.000000 0.000000 0.000000 0.022100 0.000000
# 6 0.000000 0.000000 0.000000 0.000000 0.000000 0.110719
#
#
# Mechanical properties :
#
#
# Convention : Reuss Voigt Hill
#
# Bulk Modulus (GPa) = 37.10992 51.27629 44.19310
# Shear Modulus (GPa) = 18.08669 28.01601 23.05135
#
# Velocity S-wave (km/s) = 2.96874 3.69484 3.35151
# Velocity P-wave (km/s) = 5.46209 6.57182 6.04249
#
# Compressibility (1/GPa) = 0.02694697
#
# Stress axis : x y z
#
# Youngs Moduli (GPa) = 35.32100 35.32093 76.20738
#
# Poissons Ratio (x) = 0.20299 0.59641
# Poissons Ratio (y) = 0.20299 0.59641
# Poissons Ratio (z) = 0.27643 0.27643
#
# Static dielectric constant tensor:
#      x y z
#    x 1.735600 0.000000 0.000000 
#    y 0.000000 1.735600 0.000000 
#    z 0.000000 0.000000 1.746580 
# 
# From -- ./inp_files/5180.got.cif
#   From: 2010.05.17/outbox.cif.g08.bks.cpg/sg115_3_cif.got.tgz:5180.got - 2010.05.20 11:07:42.
