data_PCOD9556681
_publ_section_title
;
Structure prediction by ZEFSAII (Michael W. Deem and Ramdas Pophale) SiO2 
 PCOD9556681
Probable space group: P -4 M 2
;
_chemical_formula_sum "Si O2"
_cell_formula_units_Z 48
_cell_length_a 8.642153
_cell_length_b 8.642153
_cell_length_c 29.358353
_cell_angle_alpha 90.000000
_cell_angle_beta 90.000000
_cell_angle_gamma 90.000000
_cell_volume 2192.681688
_symmetry_space_group_name_H-M "P -4 M 2"
_symmetry_group_IT_number 115
_symmetry_cell_setting 'tetragonal'
loop_
_space_group_symop_operation_xyz
x,y,z
y,-x,-z
-x,-y,z
-y,x,-z
y,x,-z
-y,-x,-z
-x,y,z
x,-y,z
loop_
_atom_site_type_symbol
_atom_site_label
_atom_site_fract_x
_atom_site_fract_y
_atom_site_fract_z
Si Si1 0.816683 0.000000 0.091015
Si Si2 0.814467 0.824229 0.225315
Si Si3 0.330752 0.330752 0.000000
Si Si4 0.188852 0.673681 0.132050
Si Si5 0.814938 0.820507 0.406784
Si Si6 0.683425 0.316576 0.500000
Si Si7 0.669913 0.000000 0.996495
Si Si8 0.684842 0.676428 0.315014
O O1 0.753882 0.164192 0.109554
O O2 0.791852 0.000000 0.036799
O O3 0.000000 0.000000 0.101464
O O4 0.774549 0.704202 0.185345
O O5 0.743303 0.780718 0.273566
O O6 0.000000 0.821490 0.229534
O O7 0.770880 0.000000 0.211846
O O8 0.325904 0.167276 0.972697
O O9 0.328157 0.500000 0.976626
O O10 0.243758 0.500000 0.118654
O O11 0.000000 0.672084 0.126856
O O12 0.754199 0.754906 0.454389
O O13 0.748970 0.730804 0.363454
O O14 0.000000 0.810195 0.406207
O O15 0.769628 0.000000 0.402851
O O16 0.500000 0.288945 0.500117
O O17 0.500000 0.000000 0.018877
O O18 0.500000 0.681777 0.316640
O O19 0.734990 0.500000 0.306297
#
# Coordination Sequence:
#
# PCOD9556681 Si02
#       8
#     4   8   4   8   8   4   4   8
#     4  10  20  34  54  86 118 152 198 254 298 355
#     4  10  19  34  58  84 111 147 194 244 293 350
#     4   9  20  39  60  86 124 163 206 263 316 376
#     4   9  17  32  54  81 116 154 194 245 303 357
#     4  11  24  41  61  86 113 143 185 231 276 335
#     4  11  24  41  62  88 116 147 180 219 274 336
#     4  10  22  38  60  88 120 162 208 249 313 380
#     4  11  24  39  55  81 115 148 188 236 286 345
#
# _framework density 21.891002
#
# number of rings (size 3 to 8) (size 9 to 14) (size 15 to 20)
#    0.000    1.833    0.833    3.000    1.167   10.000 
#    0.000    0.833    0.000    1.000    0.000    0.000 
#    0.000    0.000    0.000    0.000    0.000    0.000 
#
# Total GULP energy -267921.148976 kJ/mol
# GULP energy per Si atom -5581.690604 kJ/mol
# Density = 2.184118 g / cm^3
# Si number density = 21.891002 Si / 1000 Ang^3
#
#
#
# Elastic Constant Matrix: (Units=GPa)
#
#
# Indices 1 2 3 4 5 6 
#
# 1 94.7256 46.0921 29.3437 0.0000 0.0000 0.0000
# 2 46.0921 94.7234 29.3506 0.0000 0.0000 0.0000
# 3 29.3437 29.3506 95.3613 0.0000 0.0000 0.0000
# 4 0.0000 0.0000 0.0000 11.7965 0.0000 0.0000
# 5 0.0000 0.0000 0.0000 0.0000 11.7962 0.0000
# 6 0.0000 0.0000 0.0000 0.0000 0.0000 25.6769
#
#
#
# Elastic Compliance Matrix: (Units=1/GPa)
#
#
# Indices 1 2 3 4 5 6 
#
# 1 0.014354 -0.006208 -0.002506 0.000000 0.000000 0.000000
# 2 -0.006208 0.014355 -0.002508 0.000000 0.000000 0.000000
# 3 -0.002506 -0.002508 0.012030 0.000000 0.000000 0.000000
# 4 0.000000 0.000000 0.000000 0.084771 0.000000 0.000000
# 5 0.000000 0.000000 0.000000 0.000000 0.084773 0.000000
# 6 0.000000 0.000000 0.000000 0.000000 0.000000 0.038945
#
#
# Mechanical properties :
#
#
# Convention : Reuss Voigt Hill
#
# Bulk Modulus (GPa) = 54.66221 54.93147 54.79684
# Shear Modulus (GPa) = 18.00053 21.85552 19.92802
#
# Velocity S-wave (km/s) = 2.87065 3.16314 3.02044
# Velocity P-wave (km/s) = 6.00099 6.20389 6.10329
#
# Compressibility (1/GPa) = 0.01829417
#
# Stress axis : x y z
#
# Youngs Moduli (GPa) = 69.66760 69.66237 83.12896
#
# Poissons Ratio (x) = 0.43246 0.20833
# Poissons Ratio (y) = 0.43250 0.20848
# Poissons Ratio (z) = 0.17460 0.17471
#
# Static dielectric constant tensor:
#      x y z
#    x 1.810140 0.000000 0.000000 
#    y 0.000000 1.810140 0.000000 
#    z 0.000000 0.000000 1.826840 
# 
# From -- ./inp_files/6327.got.cif
#   From: 2010.05.17/outbox.cif.g08.bks.cpg/sg115_4_cif.got.tgz:6327.got - 2010.05.20 11:07:42.
