data_PCOD9556393
_publ_section_title
;
Structure prediction by ZEFSAII (Michael W. Deem and Ramdas Pophale) SiO2 
 PCOD9556393
Probable space group: P -4 21 C
;
_chemical_formula_sum "Si O2"
_cell_formula_units_Z 48
_cell_length_a 8.961739
_cell_length_b 8.961739
_cell_length_c 28.842290
_cell_angle_alpha 90.000000
_cell_angle_beta 90.000000
_cell_angle_gamma 90.000000
_cell_volume 2316.404085
_symmetry_space_group_name_H-M "P -4 21 C"
_symmetry_group_IT_number 114
_symmetry_cell_setting 'tetragonal'
loop_
_space_group_symop_operation_xyz
x,y,z
y,-x,-z
-x,-y,z
-y,x,-z
1/2+x,1/2-y,1/2-z
1/2-x,1/2+y,1/2-z
1/2-y,1/2-x,1/2+z
1/2+y,1/2+x,1/2+z
loop_
_atom_site_type_symbol
_atom_site_label
_atom_site_fract_x
_atom_site_fract_y
_atom_site_fract_z
Si Si1 0.368118 0.893593 0.859191
Si Si2 0.894732 0.144419 0.196331
Si Si3 0.714558 0.646688 0.448670
Si Si4 0.855538 0.596463 0.862217
Si Si5 0.392934 0.359208 0.199152
Si Si6 0.860875 0.797905 0.052573
O O1 0.406866 0.764595 0.822733
O O2 0.295604 0.812945 0.903324
O O3 0.500000 0.000000 0.875406
O O4 0.257609 0.008334 0.833907
O O5 0.737515 0.111044 0.171533
O O6 0.868965 0.201607 0.248722
O O7 0.000000 0.000000 0.197844
O O8 0.824670 0.705061 0.409055
O O9 0.542234 0.697861 0.444161
O O10 0.699651 0.466669 0.443613
O O11 0.761189 0.679037 0.501562
O O12 0.751829 0.482330 0.834266
O O13 0.000000 0.500000 0.874687
O O14 0.500000 0.500000 0.203276
#
# Coordination Sequence:
#
# PCOD9556393 Si02
#       6
#     8   8   8   8   8   8
#     4  12  24  40  64  89 124 166 213 259 318 390
#     4  11  23  42  65  88 120 167 220 257 314 385
#     4   9  18  35  64  93 124 158 208 262 309 365
#     4  12  23  37  64  95 127 160 209 272 326 376
#     4  11  26  42  59  89 129 167 206 265 324 385
#     4   9  18  36  62  95 122 159 210 259 303 375
#
# _framework density 20.721772000000001
#
# number of rings (size 3 to 8) (size 9 to 14) (size 15 to 20)
#    0.000    1.333    1.667    6.000    0.000    6.000 
#    0.000    0.000    0.000    0.000    0.000    0.000 
#    0.000    0.000    0.000    0.000    0.000    0.000 
#
# Total GULP energy -268151.552898 kJ/mol
# GULP energy per Si atom -5586.490685 kJ/mol
# Density = 2.067461 g / cm^3
# Si number density = 20.721772 Si / 1000 Ang^3
#
#
#
# Elastic Constant Matrix: (Units=GPa)
#
#
# Indices 1 2 3 4 5 6 
#
# 1 49.9681 -12.2371 8.7925 0.0000 0.0000 0.0000
# 2 -12.2371 49.9681 8.7925 0.0000 0.0000 0.0000
# 3 8.7925 8.7925 140.0738 0.0000 0.0000 0.0000
# 4 0.0000 0.0000 0.0000 6.7038 0.0000 0.0000
# 5 0.0000 0.0000 0.0000 0.0000 6.7038 0.0000
# 6 0.0000 0.0000 0.0000 0.0000 0.0000 27.4585
#
#
#
# Elastic Compliance Matrix: (Units=1/GPa)
#
#
# Indices 1 2 3 4 5 6 
#
# 1 0.021689 0.005613 -0.001714 0.000000 0.000000 0.000000
# 2 0.005613 0.021689 -0.001714 0.000000 0.000000 0.000000
# 3 -0.001714 -0.001714 0.007354 0.000000 0.000000 0.000000
# 4 0.000000 0.000000 0.000000 0.149169 0.000000 0.000000
# 5 0.000000 0.000000 0.000000 0.000000 0.149169 0.000000
# 6 0.000000 0.000000 0.000000 0.000000 0.000000 0.036419
#
#
# Mechanical properties :
#
#
# Convention : Reuss Voigt Hill
#
# Bulk Modulus (GPa) = 18.14767 27.85621 23.00194
# Shear Modulus (GPa) = 12.51610 23.81735 18.16672
#
# Velocity S-wave (km/s) = 2.46032 3.39394 2.96412
# Velocity P-wave (km/s) = 4.10460 5.36941 4.77903
#
# Compressibility (1/GPa) = 0.05510348
#
# Stress axis : x y z
#
# Youngs Moduli (GPa) = 46.10631 46.10631 135.97591
#
# Poissons Ratio (x) = -0.25880 0.23303
# Poissons Ratio (y) = -0.25880 0.23303
# Poissons Ratio (z) = 0.07902 0.07902
#
# Static dielectric constant tensor:
#      x y z
#    x 1.751940 0.000000 0.000000 
#    y 0.000000 1.751940 0.000000 
#    z 0.000000 0.000000 1.774050 
# 
# From -- ./inp_files/3953.got.cif
#   From: 2010.05.17/outbox.cif.g08.bks.cpg/sg114_2_cif.got.tgz:3953.got - 2010.05.20 11:04:54.
