data_PCOD9556641
_publ_section_title
;
Structure prediction by ZEFSAII (Michael W. Deem and Ramdas Pophale) SiO2 
 PCOD9556641
Probable space group: P -4 M 2
;
_chemical_formula_sum "Si O2"
_cell_formula_units_Z 24
_cell_length_a 15.745634
_cell_length_b 15.745634
_cell_length_c 5.044231
_cell_angle_alpha 90.000000
_cell_angle_beta 90.000000
_cell_angle_gamma 90.000000
_cell_volume 1250.590921
_symmetry_space_group_name_H-M "P -4 M 2"
_symmetry_group_IT_number 115
_symmetry_cell_setting 'tetragonal'
loop_
_space_group_symop_operation_xyz
x,y,z
y,-x,-z
-x,-y,z
-y,x,-z
y,x,-z
-y,-x,-z
-x,y,z
x,-y,z
loop_
_atom_site_type_symbol
_atom_site_label
_atom_site_fract_x
_atom_site_fract_y
_atom_site_fract_z
Si Si1 0.240748 0.095807 0.510570
Si Si2 0.830627 0.685616 0.987203
Si Si3 0.403468 0.679848 0.249949
O O1 0.160921 0.160921 0.500000
O O2 0.284488 0.101178 0.225502
O O3 0.214177 0.000000 0.574871
O O4 0.310078 0.128801 0.723763
O O5 0.774953 0.609503 0.866539
O O6 0.759022 0.759022 0.000000
O O7 0.342323 0.657678 0.500000
O O8 0.500000 0.666424 0.335987
O O9 0.379534 0.620467 0.000000
#
# Coordination Sequence:
#
# PCOD9556641 Si02
#       3
#     8   8   8
#     4  10  19  32  53  78 105 138 176 220 266 313
#     4   9  18  34  52  72 101 142 183 210 250 320
#     4  11  22  36  56  81 109 141 177 222 274 327
#
# _framework density 19.190926000000001
#
# number of rings (size 3 to 8) (size 9 to 14) (size 15 to 20)
#    0.000    2.000    0.000    7.000    0.000    2.333 
#    0.000    0.000    0.000   12.000    0.000    0.000 
#    0.000    0.000    0.000    0.000    0.000    0.000 
#
# Total GULP energy -133657.012778 kJ/mol
# GULP energy per Si atom -5569.042199 kJ/mol
# Density = 1.914725 g / cm^3
# Si number density = 19.190926 Si / 1000 Ang^3
#
#
#
# Elastic Constant Matrix: (Units=GPa)
#
#
# Indices 1 2 3 4 5 6 
#
# 1 51.0092 37.9462 16.2092 0.0000 0.0000 0.0000
# 2 37.9462 51.0127 16.2100 0.0000 0.0000 0.0000
# 3 16.2092 16.2100 102.3133 0.0000 0.0000 0.0000
# 4 0.0000 0.0000 0.0000 22.1378 0.0000 0.0000
# 5 0.0000 0.0000 0.0000 0.0000 22.1383 0.0000
# 6 0.0000 0.0000 0.0000 0.0000 0.0000 11.3351
#
#
#
# Elastic Compliance Matrix: (Units=1/GPa)
#
#
# Indices 1 2 3 4 5 6 
#
# 1 0.044237 -0.032306 -0.001890 0.000000 0.000000 0.000000
# 2 -0.032306 0.044234 -0.001890 0.000000 0.000000 0.000000
# 3 -0.001890 -0.001890 0.010373 0.000000 0.000000 0.000000
# 4 0.000000 0.000000 0.000000 0.045172 0.000000 0.000000
# 5 0.000000 0.000000 0.000000 0.000000 0.045171 0.000000
# 6 0.000000 0.000000 0.000000 0.000000 0.000000 0.088222
#
#
# Mechanical properties :
#
#
# Convention : Reuss Voigt Hill
#
# Bulk Modulus (GPa) = 37.49145 38.34066 37.91606
# Shear Modulus (GPa) = 13.94812 20.05357 17.00085
#
# Velocity S-wave (km/s) = 2.69886 3.23608 2.97960
# Velocity P-wave (km/s) = 5.41205 5.82965 5.62473
#
# Compressibility (1/GPa) = 0.02667274
#
# Stress axis : x y z
#
# Youngs Moduli (GPa) = 22.60529 22.60680 96.40592
#
# Poissons Ratio (x) = 0.73033 0.18221
# Poissons Ratio (y) = 0.73028 0.18222
# Poissons Ratio (z) = 0.04273 0.04273
#
# Static dielectric constant tensor:
#      x y z
#    x 1.705140 0.000000 0.000000 
#    y 0.000000 1.705140 0.000000 
#    z 0.000000 0.000000 1.691480 
# 
# From -- ./inp_files/192.got.cif
#   From: 2010.05.17/outbox.cif.g08.bks.cpg/sg115_1_cif.got.tgz:192.got - 2010.05.20 11:07:42.
