data_PCOD9556795
_publ_section_title
;
Structure prediction by ZEFSAII (Michael W. Deem and Ramdas Pophale) SiO2 
 PCOD9556795
Probable space group: P -4 M 2
;
_chemical_formula_sum "Si O2"
_cell_formula_units_Z 44
_cell_length_a 9.212249
_cell_length_b 9.212249
_cell_length_c 29.450164
_cell_angle_alpha 90.000000
_cell_angle_beta 90.000000
_cell_angle_gamma 90.000000
_cell_volume 2499.303825
_symmetry_space_group_name_H-M "P -4 M 2"
_symmetry_group_IT_number 115
_symmetry_cell_setting 'tetragonal'
loop_
_space_group_symop_operation_xyz
x,y,z
y,-x,-z
-x,-y,z
-y,x,-z
y,x,-z
-y,-x,-z
-x,y,z
x,-y,z
loop_
_atom_site_type_symbol
_atom_site_label
_atom_site_fract_x
_atom_site_fract_y
_atom_site_fract_z
Si Si1 0.172319 0.172319 0.500000
Si Si2 0.333146 0.323071 0.231043
Si Si3 0.166908 0.677271 0.140368
Si Si4 0.829793 0.325087 0.323063
Si Si5 0.322951 0.331981 0.949929
Si Si6 0.329407 0.174269 0.406733
O O1 0.259325 0.215633 0.455051
O O2 0.000000 0.194796 0.492235
O O3 0.500000 0.275712 0.233190
O O4 0.332714 0.500000 0.230427
O O5 0.256751 0.275456 0.184504
O O6 0.245672 0.279279 0.275923
O O7 0.169717 0.500000 0.140211
O O8 0.238805 0.724697 0.093080
O O9 0.000000 0.722073 0.143718
O O10 0.816522 0.500000 0.326510
O O11 0.751686 0.252095 0.365601
O O12 0.000000 0.289110 0.322384
O O13 0.500000 0.331074 0.950806
O O14 0.278946 0.500000 0.944124
O O15 0.278240 0.278240 0.000000
O O16 0.500000 0.208356 0.405949
O O17 0.312550 0.000000 0.402219
#
# Coordination Sequence:
#
# PCOD9556795 Si02
#       6
#     4   8   8   8   8   8
#     4   9  18  34  54  73  96 128 164 201 242 289
#     4   9  16  26  41  62  91 126 160 196 242 293
#     4   9  15  22  34  55  84 115 147 186 233 283
#     4  10  20  33  50  73 101 133 169 208 249 294
#     4   8  13  21  33  50  74 105 140 177 220 273
#     4  10  21  36  54  77 104 133 166 204 246 294
#
# _framework density 17.604903
#
# number of rings (size 3 to 8) (size 9 to 14) (size 15 to 20)
#    0.000    2.818    0.000    2.727    0.000    7.273 
#    0.000    1.818    0.000    0.000    0.000    1.273 
#    0.000    7.636    0.000    0.000    0.000    0.000 
#
# Total GULP energy -245311.754173 kJ/mol
# GULP energy per Si atom -5575.267140 kJ/mol
# Density = 1.756483 g / cm^3
# Si number density = 17.604903 Si / 1000 Ang^3
#
#
#
# Elastic Constant Matrix: (Units=GPa)
#
#
# Indices 1 2 3 4 5 6 
#
# 1 68.1140 39.3107 80.8777 0.0000 0.0000 0.0000
# 2 39.3107 68.1140 80.8777 0.0000 0.0000 0.0000
# 3 80.8777 80.8777 220.5235 0.0000 0.0000 0.0000
# 4 0.0000 0.0000 0.0000 -29.3727 0.0000 0.0000
# 5 0.0000 0.0000 0.0000 0.0000 -29.3727 0.0000
# 6 0.0000 0.0000 0.0000 0.0000 0.0000 14.3695
#
#
#
# Elastic Compliance Matrix: (Units=1/GPa)
#
#
# Indices 1 2 3 4 5 6 
#
# 1 0.027754 -0.006964 -0.007625 0.000000 0.000000 0.000000
# 2 -0.006964 0.027754 -0.007625 0.000000 0.000000 0.000000
# 3 -0.007625 -0.007625 0.010127 0.000000 0.000000 0.000000
# 4 0.000000 0.000000 0.000000 -0.034045 0.000000 0.000000
# 5 0.000000 0.000000 0.000000 0.000000 -0.034045 0.000000
# 6 0.000000 0.000000 0.000000 0.000000 0.000000 0.069592
#
#
# Mechanical properties :
#
#
# Convention : Reuss Voigt Hill
#
# Bulk Modulus (GPa) = 47.15155 84.32041 65.73598
# Shear Modulus (GPa) = 42.14645 1.50384 21.82514
#
# Velocity S-wave (km/s) = 4.89818 0.92524 3.52479
# Velocity P-wave (km/s) = 7.67013 7.01009 7.34753
#
# Compressibility (1/GPa) = 0.02120821
#
# Stress axis : x y z
#
# Youngs Moduli (GPa) = 36.03076 36.03076 98.74126
#
# Poissons Ratio (x) = 0.25092 0.75288
# Poissons Ratio (y) = 0.25092 0.75288
# Poissons Ratio (z) = 0.27473 0.27473
#
# Static dielectric constant tensor:
#      x y z
#    x 1.587580 0.000000 0.000000 
#    y 0.000000 1.587580 0.000000 
#    z 0.000000 0.000000 1.585710 
# 
# From -- ./inp_files/5740.got.cif
#   From: 2010.05.17/outbox.cif.g08.bks.cpg/sg115_3_cif.got.tgz:5740.got - 2010.05.20 11:07:42.
