data_PCOD9556517
_publ_section_title
;
Structure prediction by ZEFSAII (Michael W. Deem and Ramdas Pophale) SiO2 
 PCOD9556517
Probable space group: P -4 21 C
;
_chemical_formula_sum "Si O2"
_cell_formula_units_Z 56
_cell_length_a 15.000000
_cell_length_b 15.000000
_cell_length_c 12.000000
_cell_angle_alpha 90.000000
_cell_angle_beta 90.000000
_cell_angle_gamma 90.000000
_cell_volume 2700.000000
_symmetry_space_group_name_H-M "P -4 21 C"
_symmetry_group_IT_number 114
_symmetry_cell_setting 'tetragonal'
loop_
_space_group_symop_operation_xyz
x,y,z
y,-x,-z
-x,-y,z
-y,x,-z
1/2+x,1/2-y,1/2-z
1/2-x,1/2+y,1/2-z
1/2-y,1/2-x,1/2+z
1/2+y,1/2+x,1/2+z
loop_
_atom_site_type_symbol
_atom_site_label
_atom_site_fract_x
_atom_site_fract_y
_atom_site_fract_z
Si Si1 0.120422 0.018141 0.566600
Si Si2 0.312820 0.094408 0.990780
Si Si3 0.662478 0.683608 0.682215
Si Si4 0.612482 0.183298 0.462981
Si Si5 0.797142 0.493830 0.040349
Si Si6 0.473709 0.650708 0.770906
Si Si7 0.206272 0.215359 0.846123
O O1 0.226648 0.011426 0.563301
O O2 0.075033 0.065606 0.671779
O O3 0.078421 0.081495 0.467777
O O4 0.262357 0.134413 0.097429
O O5 0.407753 0.140863 0.969288
O O6 0.248722 0.123741 0.889777
O O7 0.320812 0.989045 0.001974
O O8 0.739532 0.620476 0.630581
O O9 0.568133 0.634600 0.708461
O O10 0.717391 0.734491 0.777568
O O11 0.682148 0.219555 0.553109
O O12 0.645434 0.082951 0.441965
O O13 0.727055 0.497106 0.141469
O O14 0.389970 0.694523 0.706691
#
# Coordination Sequence:
#
# PCOD9556517 Si02
#       7
#     8   8   8   8   8   8   8
#     4   9  21  37  62 101 131 162 221 289 346 383
#     4  11  24  44  67 100 139 183 221 285 352 410
#     4  11  23  44  71  96 133 186 229 277 350 420
#     4  11  25  44  68  99 142 176 228 283 353 412
#     4  11  22  41  72  97 135 173 227 290 347 406
#     4  11  21  43  67 100 135 176 234 284 342 424
#     4  11  23  43  69  96 132 182 229 279 342 417
#
# _framework density 20.740741
#
# number of rings (size 3 to 8) (size 9 to 14) (size 15 to 20)
#    0.000    1.286    4.286    1.286    6.000    1.143 
#   15.429    0.000    0.000    0.000    0.000    0.000 
#    0.000    0.000    0.000    0.000    0.000    0.000 
#
# Total GULP energy -312082.211452 kJ/mol
# GULP energy per Si atom -5572.896633 kJ/mol
# Density = 2.069353 g / cm^3
# Si number density = 20.740741 Si / 1000 Ang^3
#
#
#
# Elastic Constant Matrix: (Units=GPa)
#
#
# Indices 1 2 3 4 5 6 
#
# 1 131.3762 55.0344 22.9846 0.0000 0.0000 0.0000
# 2 55.0344 131.3762 22.9846 0.0000 0.0000 0.0000
# 3 22.9846 22.9846 39.5821 0.0000 0.0000 0.0000
# 4 0.0000 0.0000 0.0000 23.4525 0.0000 0.0000
# 5 0.0000 0.0000 0.0000 0.0000 23.4525 0.0000
# 6 0.0000 0.0000 0.0000 0.0000 0.0000 28.5839
#
#
#
# Elastic Compliance Matrix: (Units=1/GPa)
#
#
# Indices 1 2 3 4 5 6 
#
# 1 0.009680 -0.003419 -0.003636 0.000000 0.000000 0.000000
# 2 -0.003419 0.009680 -0.003636 0.000000 0.000000 0.000000
# 3 -0.003636 -0.003636 0.029486 0.000000 0.000000 0.000000
# 4 0.000000 0.000000 0.000000 0.042639 0.000000 0.000000
# 5 0.000000 0.000000 0.000000 0.000000 0.042639 0.000000
# 6 0.000000 0.000000 0.000000 0.000000 0.000000 0.034985
#
#
# Mechanical properties :
#
#
# Convention : Reuss Voigt Hill
#
# Bulk Modulus (GPa) = 36.40909 56.03799 46.22354
# Shear Modulus (GPa) = 25.04435 28.51982 26.78208
#
# Velocity S-wave (km/s) = 3.47867 3.71221 3.59734
# Velocity P-wave (km/s) = 5.80753 6.74173 6.29199
#
# Compressibility (1/GPa) = 0.02746567
#
# Stress axis : x y z
#
# Youngs Moduli (GPa) = 103.30540 103.30540 33.91405
#
# Poissons Ratio (x) = 0.35320 0.12330
# Poissons Ratio (y) = 0.35320 0.12330
# Poissons Ratio (z) = 0.37559 0.37559
#
# Static dielectric constant tensor:
#      x y z
#    x 1.750260 0.000000 0.000000 
#    y 0.000000 1.750260 0.000000 
#    z 0.000000 0.000000 1.885650 
# 
# From -- ./inp_files/1757.got.cif
#   From: 2010.05.17/outbox.ucp.g08.bks.cvg/sg114_1_cif.got.tgz:1757.got - 2010.06.11 11:33:27.
