data_PCOD9556910
_publ_section_title
;
Structure prediction by ZEFSAII (Michael W. Deem and Ramdas Pophale) SiO2 
 PCOD9556910
Probable space group: P -4 M 2
;
_chemical_formula_sum "Si O2"
_cell_formula_units_Z 37
_cell_length_a 16.281714
_cell_length_b 16.281714
_cell_length_c 9.158322
_cell_angle_alpha 90.000000
_cell_angle_beta 90.000000
_cell_angle_gamma 90.000000
_cell_volume 2427.818143
_symmetry_space_group_name_H-M "P -4 M 2"
_symmetry_group_IT_number 115
_symmetry_cell_setting 'tetragonal'
loop_
_space_group_symop_operation_xyz
x,y,z
y,-x,-z
-x,-y,z
-y,x,-z
y,x,-z
-y,-x,-z
-x,y,z
x,-y,z
loop_
_atom_site_type_symbol
_atom_site_label
_atom_site_fract_x
_atom_site_fract_y
_atom_site_fract_z
Si Si1 0.000000 0.092719 0.783331
Si Si2 0.899746 0.500000 0.160380
Si Si3 0.901004 0.500000 0.824559
Si Si4 0.901819 0.670376 0.314702
Si Si5 0.901290 0.332942 0.660804
Si Si6 0.000000 0.000000 0.500000
Si Si7 0.817415 0.827853 0.168610
O O1 0.915088 0.134475 0.827458
O O2 0.000000 0.078448 0.606616
O O3 0.000000 0.000000 0.839488
O O4 0.874262 0.584632 0.239934
O O5 0.000000 0.500000 0.163183
O O6 0.871846 0.500000 0.991821
O O7 0.879262 0.419337 0.734129
O O8 0.000000 0.500000 0.833572
O O9 0.886212 0.667175 0.487913
O O10 0.863499 0.752105 0.245005
O O11 0.000000 0.675612 0.293728
O O12 0.849373 0.264243 0.742739
O O13 0.000000 0.318412 0.682561
O O14 0.804853 0.804853 0.000000
#
# Coordination Sequence:
#
# PCOD9556910 Si02
#       7
#     4   4   4   8   8   1   8
#     4  10  24  33  50  60  95 128 180 211 254 289
#     4   9  17  33  51  75  95 120 157 208 259 307
#     4   9  17  31  53  71  97 122 155 204 261 305
#     4  10  21  33  53  70  96 128 170 209 255 303
#     4  10  20  34  51  71  95 129 168 209 252 307
#     4   8  24  36  50  60  84 128 186 204 264 280
#     4  12  24  33  48  70  99 131 172 212 259 294
#
# _framework density 15.240021
#
# number of rings (size 3 to 8) (size 9 to 14) (size 15 to 20)
#    0.324    1.514    1.081    3.243    6.054    4.324 
#    0.000    0.000    0.000    0.000    0.000    0.000 
#    0.000    0.865    0.000    8.649    0.000    5.189 
#
# Total GULP energy -206313.877161 kJ/mol
# GULP energy per Si atom -5576.050734 kJ/mol
# Density = 1.520533 g / cm^3
# Si number density = 15.240021 Si / 1000 Ang^3
#
#
#
# Elastic Constant Matrix: (Units=GPa)
#
#
# Indices 1 2 3 4 5 6 
#
# 1 99.6200 51.4307 64.2655 0.0000 0.0000 0.0000
# 2 51.4307 99.6200 64.2655 0.0000 0.0000 0.0000
# 3 64.2655 64.2655 151.2178 0.0000 0.0000 0.0000
# 4 0.0000 0.0000 0.0000 21.1119 0.0000 0.0000
# 5 0.0000 0.0000 0.0000 0.0000 21.1119 0.0000
# 6 0.0000 0.0000 0.0000 0.0000 0.0000 5.8904
#
#
#
# Elastic Compliance Matrix: (Units=1/GPa)
#
#
# Indices 1 2 3 4 5 6 
#
# 1 0.015561 -0.005190 -0.004407 0.000000 0.000000 0.000000
# 2 -0.005190 0.015561 -0.004407 0.000000 0.000000 0.000000
# 3 -0.004407 -0.004407 0.010359 0.000000 0.000000 0.000000
# 4 0.000000 0.000000 0.000000 0.047367 0.000000 0.000000
# 5 0.000000 0.000000 0.000000 0.000000 0.047367 0.000000
# 6 0.000000 0.000000 0.000000 0.000000 0.000000 0.169767
#
#
# Mechanical properties :
#
#
# Convention : Reuss Voigt Hill
#
# Bulk Modulus (GPa) = 74.23444 78.93125 76.58285
# Shear Modulus (GPa) = 14.77183 20.98926 17.88054
#
# Velocity S-wave (km/s) = 3.11670 3.71515 3.42901
# Velocity P-wave (km/s) = 7.85924 8.38497 8.12636
#
# Compressibility (1/GPa) = 0.01347084
#
# Stress axis : x y z
#
# Youngs Moduli (GPa) = 64.26315 64.26315 96.53349
#
# Poissons Ratio (x) = 0.33356 0.42546
# Poissons Ratio (y) = 0.33356 0.42546
# Poissons Ratio (z) = 0.28323 0.28323
#
# Static dielectric constant tensor:
#      x y z
#    x 1.512710 0.000000 0.000000 
#    y 0.000000 1.512710 0.000000 
#    z 0.000000 0.000000 1.528050 
# 
# From -- ./inp_files/1558.got.cif
#   From: 2010.05.17/outbox.cif.g08.bks.cpg/sg115_1_cif.got.tgz:1558.got - 2010.05.20 11:07:42.
