data_PCOD9556281
_publ_section_title
;
Structure prediction by ZEFSAII (Michael W. Deem and Ramdas Pophale) SiO2 
 PCOD9556281
Probable space group: P -4 21 C
;
_chemical_formula_sum "Si O2"
_cell_formula_units_Z 42
_cell_length_a 14.281481
_cell_length_b 14.281481
_cell_length_c 9.576081
_cell_angle_alpha 90.000000
_cell_angle_beta 90.000000
_cell_angle_gamma 90.000000
_cell_volume 1953.144180
_symmetry_space_group_name_H-M "P -4 21 C"
_symmetry_group_IT_number 114
_symmetry_cell_setting 'tetragonal'
loop_
_space_group_symop_operation_xyz
x,y,z
y,-x,-z
-x,-y,z
-y,x,-z
1/2+x,1/2-y,1/2-z
1/2-x,1/2+y,1/2-z
1/2-y,1/2-x,1/2+z
1/2+y,1/2+x,1/2+z
loop_
_atom_site_type_symbol
_atom_site_label
_atom_site_fract_x
_atom_site_fract_y
_atom_site_fract_z
Si Si1 0.602667 0.893159 0.434536
Si Si2 0.401500 0.882538 0.949362
Si Si3 0.605810 0.513962 0.274331
Si Si4 0.736014 0.861242 0.182741
Si Si5 0.761996 0.656804 0.304858
Si Si6 0.000000 0.000000 0.500000
O O1 0.491481 0.882990 0.416315
O O2 0.655423 0.896587 0.287926
O O3 0.639655 0.808910 0.529663
O O4 0.621596 0.993080 0.508744
O O5 0.399855 0.820070 0.811519
O O6 0.322195 0.848376 0.054959
O O7 0.500000 0.500000 0.330850
O O8 0.674068 0.428401 0.310920
O O9 0.660929 0.607285 0.318969
O O10 0.586274 0.515662 0.106134
O O11 0.758569 0.759770 0.242100
#
# Coordination Sequence:
#
# PCOD9556281 Si02
#       6
#     8   8   8   8   8   2
#     4  11  23  43  70  99 135 174 229 298 352 408
#     4  11  23  43  70  99 135 174 229 298 352 408
#     4  10  24  44  67  98 140 188 237 283 345 427
#     4  12  25  41  69 103 138 180 237 283 353 419
#     4  12  25  41  69 103 138 180 237 283 353 419
#     4   8  24  40  72  80 138 184 240 260 338 412
#
# _framework density 21.503789000000001
#
# number of rings (size 3 to 8) (size 9 to 14) (size 15 to 20)
#    0.571    0.381    3.810    2.286    5.333    6.095 
#    0.000    0.000    0.000    0.000    0.000    0.000 
#    0.000    0.000    0.000    0.000    0.000    0.000 
#
# Total GULP energy -234733.221860 kJ/mol
# GULP energy per Si atom -5588.886235 kJ/mol
# Density = 2.145485 g / cm^3
# Si number density = 21.503789 Si / 1000 Ang^3
#
#
#
# Elastic Constant Matrix: (Units=GPa)
#
#
# Indices 1 2 3 4 5 6 
#
# 1 90.1338 2.0386 0.2632 0.0000 0.0000 0.0000
# 2 2.0386 90.1338 0.2632 0.0000 0.0000 0.0000
# 3 0.2632 0.2632 67.9380 0.0000 0.0000 0.0000
# 4 0.0000 0.0000 0.0000 28.4789 0.0000 0.0000
# 5 0.0000 0.0000 0.0000 0.0000 28.4789 0.0000
# 6 0.0000 0.0000 0.0000 0.0000 0.0000 31.7740
#
#
#
# Elastic Compliance Matrix: (Units=1/GPa)
#
#
# Indices 1 2 3 4 5 6 
#
# 1 0.011100 -0.000251 -0.000042 0.000000 0.000000 0.000000
# 2 -0.000251 0.011100 -0.000042 0.000000 0.000000 0.000000
# 3 -0.000042 -0.000042 0.014720 0.000000 0.000000 0.000000
# 4 0.000000 0.000000 0.000000 0.035114 0.000000 0.000000
# 5 0.000000 0.000000 0.000000 0.000000 0.035114 0.000000
# 6 0.000000 0.000000 0.000000 0.000000 0.000000 0.031472
#
#
# Mechanical properties :
#
#
# Convention : Reuss Voigt Hill
#
# Bulk Modulus (GPa) = 27.58585 28.14839 27.86712
# Shear Modulus (GPa) = 33.03086 34.12242 33.57664
#
# Velocity S-wave (km/s) = 3.92350 3.98780 3.95578
# Velocity P-wave (km/s) = 5.77766 5.85848 5.81821
#
# Compressibility (1/GPa) = 0.03625048
#
# Stress axis : x y z
#
# Youngs Moduli (GPa) = 90.08672 90.08672 67.93646
#
# Poissons Ratio (x) = 0.02261 0.00286
# Poissons Ratio (y) = 0.02261 0.00286
# Poissons Ratio (z) = 0.00379 0.00379
#
# Static dielectric constant tensor:
#      x y z
#    x 1.780680 0.000000 0.000000 
#    y 0.000000 1.780680 0.000000 
#    z 0.000000 0.000000 1.747370 
# 
# From -- ./inp_files/833.got.cif
#   From: 2010.05.17/outbox.cif.g08.bks.cpg/sg114_1_cif.got.tgz:833.got - 2010.05.20 11:04:54.
