data_PCOD9556221
_publ_section_title
;
Structure prediction by ZEFSAII (Michael W. Deem and Ramdas Pophale) SiO2 
 PCOD9556221
Probable space group: P -4 21 C
;
_chemical_formula_sum "Si O2"
_cell_formula_units_Z 36
_cell_length_a 14.164078
_cell_length_b 14.164078
_cell_length_c 9.097506
_cell_angle_alpha 90.000000
_cell_angle_beta 90.000000
_cell_angle_gamma 90.000000
_cell_volume 1825.151712
_symmetry_space_group_name_H-M "P -4 21 C"
_symmetry_group_IT_number 114
_symmetry_cell_setting 'tetragonal'
loop_
_space_group_symop_operation_xyz
x,y,z
y,-x,-z
-x,-y,z
-y,x,-z
1/2+x,1/2-y,1/2-z
1/2-x,1/2+y,1/2-z
1/2-y,1/2-x,1/2+z
1/2+y,1/2+x,1/2+z
loop_
_atom_site_type_symbol
_atom_site_label
_atom_site_fract_x
_atom_site_fract_y
_atom_site_fract_z
Si Si1 0.637453 0.300428 0.189086
Si Si2 0.500000 0.000000 0.421778
Si Si3 0.422287 0.372556 0.550980
Si Si4 0.346857 0.023529 0.670077
Si Si5 0.276889 0.222005 0.070785
O O1 0.626013 0.399597 0.274529
O O2 0.540225 0.246131 0.172292
O O3 0.702363 0.243195 0.306886
O O4 0.697345 0.305483 0.041692
O O5 0.589571 0.005876 0.529785
O O6 0.508283 0.909841 0.315113
O O7 0.376174 0.467980 0.486047
O O8 0.364710 0.281297 0.495636
O O9 0.320979 0.132471 0.649362
#
# Coordination Sequence:
#
# PCOD9556221 Si02
#       5
#     8   4   8   8   8
#     4  10  23  39  64  96 125 171 213 272 325 404
#     4  10  24  36  64  94 132 172 206 286 328 402
#     4   9  22  41  66  89 122 173 220 262 326 397
#     4  11  22  41  62  97 133 169 222 267 344 390
#     4  10  23  40  68  94 131 174 212 279 330 396
#
# _framework density 19.724388000000001
#
# number of rings (size 3 to 8) (size 9 to 14) (size 15 to 20)
#    1.333    0.667    0.000    2.667    6.222    1.778 
#    4.000    0.000    0.000    0.000    0.000    0.000 
#    0.000    0.000    0.000    0.000    0.000    0.000 
#
# Total GULP energy -200726.872991 kJ/mol
# GULP energy per Si atom -5575.746472 kJ/mol
# Density = 1.967949 g / cm^3
# Si number density = 19.724388 Si / 1000 Ang^3
#
#
#
# Elastic Constant Matrix: (Units=GPa)
#
#
# Indices 1 2 3 4 5 6 
#
# 1 83.5001 22.2820 7.5884 0.0000 0.0000 0.0000
# 2 22.2820 83.5001 7.5884 0.0000 0.0000 0.0000
# 3 7.5884 7.5884 64.4382 0.0000 0.0000 0.0000
# 4 0.0000 0.0000 0.0000 15.5072 0.0000 0.0000
# 5 0.0000 0.0000 0.0000 0.0000 15.5072 0.0000
# 6 0.0000 0.0000 0.0000 0.0000 0.0000 23.2089
#
#
#
# Elastic Compliance Matrix: (Units=1/GPa)
#
#
# Indices 1 2 3 4 5 6 
#
# 1 0.012975 -0.003360 -0.001132 0.000000 0.000000 0.000000
# 2 -0.003360 0.012975 -0.001132 0.000000 0.000000 0.000000
# 3 -0.001132 -0.001132 0.015785 0.000000 0.000000 0.000000
# 4 0.000000 0.000000 0.000000 0.064486 0.000000 0.000000
# 5 0.000000 0.000000 0.000000 0.000000 0.064486 0.000000
# 6 0.000000 0.000000 0.000000 0.000000 0.000000 0.043087
#
#
# Mechanical properties :
#
#
# Convention : Reuss Voigt Hill
#
# Bulk Modulus (GPa) = 32.80021 34.03957 33.41989
# Shear Modulus (GPa) = 21.25789 23.77664 22.51727
#
# Velocity S-wave (km/s) = 3.28647 3.47572 3.38242
# Velocity P-wave (km/s) = 5.57373 5.77949 5.67755
#
# Compressibility (1/GPa) = 0.03048761
#
# Stress axis : x y z
#
# Youngs Moduli (GPa) = 77.06866 77.06866 63.34944
#
# Poissons Ratio (x) = 0.25892 0.07174
# Poissons Ratio (y) = 0.25892 0.07174
# Poissons Ratio (z) = 0.08727 0.08727
#
# Static dielectric constant tensor:
#      x y z
#    x 1.680040 0.000000 0.000000 
#    y 0.000000 1.680040 0.000000 
#    z 0.000000 0.000000 1.709100 
# 
# From -- ./inp_files/710.got.cif
#   From: 2010.05.17/outbox.cif.g08.bks.cpg/sg114_1_cif.got.tgz:710.got - 2010.05.20 11:04:54.
