data_PCOD9556017
_publ_section_title
;
Structure prediction by ZEFSAII (Michael W. Deem and Ramdas Pophale) SiO2 
 PCOD9556017
Probable space group: P -4 21 C
;
_chemical_formula_sum "Si O2"
_cell_formula_units_Z 48
_cell_length_a 8.408227
_cell_length_b 8.408227
_cell_length_c 29.385119
_cell_angle_alpha 90.000000
_cell_angle_beta 90.000000
_cell_angle_gamma 90.000000
_cell_volume 2077.477409
_symmetry_space_group_name_H-M "P -4 21 C"
_symmetry_group_IT_number 114
_symmetry_cell_setting 'tetragonal'
loop_
_space_group_symop_operation_xyz
x,y,z
y,-x,-z
-x,-y,z
-y,x,-z
1/2+x,1/2-y,1/2-z
1/2-x,1/2+y,1/2-z
1/2-y,1/2-x,1/2+z
1/2+y,1/2+x,1/2+z
loop_
_atom_site_type_symbol
_atom_site_label
_atom_site_fract_x
_atom_site_fract_y
_atom_site_fract_z
Si Si1 0.201615 0.843670 0.486932
Si Si2 0.672638 0.589916 0.440454
Si Si3 0.471158 0.188464 0.368438
Si Si4 0.384113 0.130219 0.775072
Si Si5 0.303116 0.189904 0.609205
Si Si6 0.636756 0.372166 0.802803
O O1 0.341283 0.747470 0.512826
O O2 0.188195 0.813624 0.433562
O O3 0.031152 0.784715 0.505259
O O4 0.500000 0.500000 0.445926
O O5 0.640202 0.738210 0.407129
O O6 0.801620 0.476395 0.414701
O O7 0.415129 0.224984 0.317448
O O8 0.634922 0.283446 0.370876
O O9 0.500000 0.000000 0.376371
O O10 0.516541 0.225976 0.803815
O O11 0.266434 0.176450 0.734943
O O12 0.500000 0.000000 0.752990
O O13 0.232490 0.085037 0.650818
O O14 0.500000 0.500000 0.789310
#
# Coordination Sequence:
#
# PCOD9556017 Si02
#       6
#     8   8   8   8   8   8
#     4  11  27  48  75 103 149 193 242 310 386 441
#     4  10  25  43  75 109 144 190 256 303 366 454
#     4  10  20  42  75  99 143 190 242 299 367 437
#     4  11  24  47  72 104 142 197 242 298 374 437
#     4  11  25  45  70 107 145 189 245 300 373 433
#     4  12  27  44  75 107 153 189 249 305 367 452
#
# _framework density 23.104942999999999
#
# number of rings (size 3 to 8) (size 9 to 14) (size 15 to 20)
#    0.000    1.167    3.333    2.000    9.333    1.333 
#    3.000    0.000    0.000    0.000    0.000    0.000 
#    0.000    0.000    0.000    0.000    0.000    0.000 
#
# Total GULP energy -267344.029536 kJ/mol
# GULP energy per Si atom -5569.667282 kJ/mol
# Density = 2.305236 g / cm^3
# Si number density = 23.104943 Si / 1000 Ang^3
#
#
#
# Elastic Constant Matrix: (Units=GPa)
#
#
# Indices 1 2 3 4 5 6 
#
# 1 59.2209 9.8851 14.9127 0.0000 0.0000 0.0000
# 2 9.8851 59.2209 14.9127 0.0000 0.0000 0.0000
# 3 14.9127 14.9127 139.5003 0.0000 0.0000 0.0000
# 4 0.0000 0.0000 0.0000 45.5099 0.0000 0.0000
# 5 0.0000 0.0000 0.0000 0.0000 45.5099 0.0000
# 6 0.0000 0.0000 0.0000 0.0000 0.0000 26.7143
#
#
#
# Elastic Compliance Matrix: (Units=1/GPa)
#
#
# Indices 1 2 3 4 5 6 
#
# 1 0.017720 -0.002549 -0.001622 0.000000 0.000000 0.000000
# 2 -0.002549 0.017720 -0.001622 0.000000 0.000000 0.000000
# 3 -0.001622 -0.001622 0.007515 0.000000 0.000000 0.000000
# 4 0.000000 0.000000 0.000000 0.021973 0.000000 0.000000
# 5 0.000000 0.000000 0.000000 0.000000 0.021973 0.000000
# 6 0.000000 0.000000 0.000000 0.000000 0.000000 0.037433
#
#
# Mechanical properties :
#
#
# Convention : Reuss Voigt Hill
#
# Bulk Modulus (GPa) = 31.87848 37.48481 34.68165
# Shear Modulus (GPa) = 34.15847 38.09560 36.12704
#
# Velocity S-wave (km/s) = 3.84917 4.06496 3.95854
# Velocity P-wave (km/s) = 5.79500 6.18795 5.99470
#
# Compressibility (1/GPa) = 0.03136912
#
# Stress axis : x y z
#
# Youngs Moduli (GPa) = 56.43392 56.43392 133.06412
#
# Poissons Ratio (x) = 0.14387 0.21580
# Poissons Ratio (y) = 0.14387 0.21580
# Poissons Ratio (z) = 0.09152 0.09152
#
# Static dielectric constant tensor:
#      x y z
#    x 2.121820 0.000000 0.000000 
#    y 0.000000 2.121820 0.000000 
#    z 0.000000 0.000000 1.898110 
# 
# From -- ./inp_files/3914.got.cif
#   From: 2010.05.17/outbox.cif.g08.bks.cpg/sg114_2_cif.got.tgz:3914.got - 2010.05.20 11:04:54.
