data_PCOD9556307
_publ_section_title
;
Structure prediction by ZEFSAII (Michael W. Deem and Ramdas Pophale) SiO2 
 PCOD9556307
Probable space group: P -4 21 C
;
_chemical_formula_sum "Si O2"
_cell_formula_units_Z 40
_cell_length_a 13.716784
_cell_length_b 13.716784
_cell_length_c 9.368196
_cell_angle_alpha 90.000000
_cell_angle_beta 90.000000
_cell_angle_gamma 90.000000
_cell_volume 1762.627607
_symmetry_space_group_name_H-M "P -4 21 C"
_symmetry_group_IT_number 114
_symmetry_cell_setting 'tetragonal'
loop_
_space_group_symop_operation_xyz
x,y,z
y,-x,-z
-x,-y,z
-y,x,-z
1/2+x,1/2-y,1/2-z
1/2-x,1/2+y,1/2-z
1/2-y,1/2-x,1/2+z
1/2+y,1/2+x,1/2+z
loop_
_atom_site_type_symbol
_atom_site_label
_atom_site_fract_x
_atom_site_fract_y
_atom_site_fract_z
Si Si1 0.500000 0.500000 0.500000
Si Si2 0.802300 0.941277 0.025159
Si Si3 0.112168 0.678458 0.459629
Si Si4 0.038801 0.302193 0.217464
Si Si5 0.000000 0.000000 0.500000
Si Si6 0.500000 0.000000 0.893012
Si Si7 0.377149 0.357332 0.828313
O O1 0.443437 0.404460 0.438178
O O2 0.839203 0.940865 0.187283
O O3 0.725113 0.852963 0.036989
O O4 0.740963 0.023025 0.941477
O O5 0.052139 0.584597 0.516612
O O6 0.105716 0.767257 0.568131
O O7 0.062445 0.705629 0.308318
O O8 0.053514 0.417220 0.200592
O O9 0.120609 0.235611 0.290002
O O10 0.046390 0.083271 0.403686
#
# Coordination Sequence:
#
# PCOD9556307 Si02
#       7
#     2   8   8   8   2   4   8
#     4  12  22  44  68 106 138 184 240 298 354 428
#     4  11  24  44  71 102 145 187 248 296 368 447
#     4  11  25  48  72 108 149 195 250 308 382 447
#     4  11  24  47  73 107 148 195 254 304 378 448
#     4  12  26  48  74 100 162 180 242 320 370 432
#     4  10  24  48  76 100 148 198 250 316 366 456
#     4  12  25  46  73 109 143 198 240 307 376 447
#
# _framework density 22.693394000000001
#
# number of rings (size 3 to 8) (size 9 to 14) (size 15 to 20)
#    0.000    0.800    4.000    3.600    0.000    3.200 
#    7.200    0.000    0.000    0.000    0.000    0.000 
#    0.000    0.000    0.000    0.000    0.000    0.000 
#
# Total GULP energy -222960.523987 kJ/mol
# GULP energy per Si atom -5574.013100 kJ/mol
# Density = 2.264174 g / cm^3
# Si number density = 22.693394 Si / 1000 Ang^3
#
#
#
# Elastic Constant Matrix: (Units=GPa)
#
#
# Indices 1 2 3 4 5 6 
#
# 1 120.1680 24.2625 25.4909 0.0000 0.0000 0.0000
# 2 24.2625 120.1680 25.4909 0.0000 0.0000 0.0000
# 3 25.4909 25.4909 76.8206 0.0000 0.0000 0.0000
# 4 0.0000 0.0000 0.0000 21.8642 0.0000 0.0000
# 5 0.0000 0.0000 0.0000 0.0000 21.8642 0.0000
# 6 0.0000 0.0000 0.0000 0.0000 0.0000 32.7083
#
#
#
# Elastic Compliance Matrix: (Units=1/GPa)
#
#
# Indices 1 2 3 4 5 6 
#
# 1 0.009135 -0.001292 -0.002602 0.000000 0.000000 0.000000
# 2 -0.001292 0.009135 -0.002602 0.000000 0.000000 0.000000
# 3 -0.002602 -0.002602 0.014744 0.000000 0.000000 0.000000
# 4 0.000000 0.000000 0.000000 0.045737 0.000000 0.000000
# 5 0.000000 0.000000 0.000000 0.000000 0.045737 0.000000
# 6 0.000000 0.000000 0.000000 0.000000 0.000000 0.030573
#
#
# Mechanical properties :
#
#
# Convention : Reuss Voigt Hill
#
# Bulk Modulus (GPa) = 49.95033 51.96057 50.95545
# Shear Modulus (GPa) = 28.61601 31.41485 30.01543
#
# Velocity S-wave (km/s) = 3.55489 3.72468 3.64077
# Velocity P-wave (km/s) = 6.23766 6.43771 6.33847
#
# Compressibility (1/GPa) = 0.02001989
#
# Stress axis : x y z
#
# Youngs Moduli (GPa) = 109.47368 109.47368 67.82266
#
# Poissons Ratio (x) = 0.14147 0.17649
# Poissons Ratio (y) = 0.14147 0.17649
# Poissons Ratio (z) = 0.28488 0.28488
#
# Static dielectric constant tensor:
#      x y z
#    x 1.892000 0.000000 0.000000 
#    y 0.000000 1.892000 0.000000 
#    z 0.000000 0.000000 1.882630 
# 
# From -- ./inp_files/845.got.cif
#   From: 2010.05.17/outbox.cif.g08.bks.cpg/sg114_1_cif.got.tgz:845.got - 2010.05.20 11:04:54.
