data_PCOD9556241
_publ_section_title
;
Structure prediction by ZEFSAII (Michael W. Deem and Ramdas Pophale) SiO2 
 PCOD9556241
Probable space group: P -4 21 C
;
_chemical_formula_sum "Si O2"
_cell_formula_units_Z 32
_cell_length_a 8.644793
_cell_length_b 8.644793
_cell_length_c 19.211312
_cell_angle_alpha 90.000000
_cell_angle_beta 90.000000
_cell_angle_gamma 90.000000
_cell_volume 1435.708337
_symmetry_space_group_name_H-M "P -4 21 C"
_symmetry_group_IT_number 114
_symmetry_cell_setting 'tetragonal'
loop_
_space_group_symop_operation_xyz
x,y,z
y,-x,-z
-x,-y,z
-y,x,-z
1/2+x,1/2-y,1/2-z
1/2-x,1/2+y,1/2-z
1/2-y,1/2-x,1/2+z
1/2+y,1/2+x,1/2+z
loop_
_atom_site_type_symbol
_atom_site_label
_atom_site_fract_x
_atom_site_fract_y
_atom_site_fract_z
Si Si1 0.316268 0.679711 0.989200
Si Si2 0.329013 0.183766 0.655389
Si Si3 0.681067 0.517523 0.741192
Si Si4 0.613467 0.354326 0.601608
O O1 0.205591 0.776315 0.040729
O O2 0.495985 0.711977 0.003849
O O3 0.281845 0.716401 0.909326
O O4 0.296638 0.310331 0.714517
O O5 0.288333 0.027178 0.694819
O O6 0.498057 0.217335 0.624999
O O7 0.500000 0.500000 0.761745
O O8 0.700422 0.414751 0.670882
O O9 0.500000 0.500000 0.582826
#
# Coordination Sequence:
#
# PCOD9556241 Si02
#       4
#     8   8   8   8
#     4  11  27  45  71 103 147 192 239 301 359 438
#     4  10  23  43  73 100 139 191 230 303 352 434
#     4   9  22  43  69 101 137 179 231 299 350 430
#     4   9  23  46  72 103 142 185 240 296 360 437
#
# _framework density 22.288648999999999
#
# number of rings (size 3 to 8) (size 9 to 14) (size 15 to 20)
#    0.000    2.750    0.000    0.000   14.000    4.000 
#    4.500   10.000    0.000    0.000    0.000    0.000 
#    0.000    0.000    0.000    0.000    0.000    0.000 
#
# Total GULP energy -178851.149222 kJ/mol
# GULP energy per Si atom -5589.098413 kJ/mol
# Density = 2.223792 g / cm^3
# Si number density = 22.288649 Si / 1000 Ang^3
#
#
#
# Elastic Constant Matrix: (Units=GPa)
#
#
# Indices 1 2 3 4 5 6 
#
# 1 60.6755 68.0227 46.2466 0.0000 0.0000 0.0000
# 2 68.0227 60.6755 46.2466 0.0000 0.0000 0.0000
# 3 46.2466 46.2466 83.5533 0.0000 0.0000 0.0000
# 4 0.0000 0.0000 0.0000 -33.6495 0.0000 0.0000
# 5 0.0000 0.0000 0.0000 0.0000 -33.6495 0.0000
# 6 0.0000 0.0000 0.0000 0.0000 0.0000 40.6754
#
#
#
# Elastic Compliance Matrix: (Units=1/GPa)
#
#
# Indices 1 2 3 4 5 6 
#
# 1 -0.061602 0.074505 -0.007142 0.000000 0.000000 0.000000
# 2 0.074505 -0.061602 -0.007142 0.000000 0.000000 0.000000
# 3 -0.007142 -0.007142 0.019874 0.000000 0.000000 0.000000
# 4 0.000000 0.000000 0.000000 -0.029718 0.000000 0.000000
# 5 0.000000 0.000000 0.000000 0.000000 -0.029718 0.000000
# 6 0.000000 0.000000 0.000000 0.000000 0.000000 0.024585
#
#
# Mechanical properties :
#
#
# Convention : Reuss Voigt Hill
#
# Bulk Modulus (GPa) = 58.43490 58.43733 58.43611
# Shear Modulus (GPa) = -19.76900 -2.36546 -11.06723
#
# Velocity S-wave (km/s) = -2.98141 -1.03130 -2.23074
# Velocity P-wave (km/s) = 3.79770 4.98570 4.43169
#
# Compressibility (1/GPa) = 0.01711306
#
# Stress axis : x y z
#
# Youngs Moduli (GPa) = -16.23316 -16.23316 50.31675
#
# Poissons Ratio (x) = 1.20945 0.35934
# Poissons Ratio (y) = 1.20945 0.35934
# Poissons Ratio (z) = -0.11593 -0.11593
#
# Static dielectric constant tensor:
#      x y z
#    x 1.905780 0.000000 0.000000 
#    y 0.000000 1.905780 0.000000 
#    z 0.000000 0.000000 1.787350 
# 
# From -- ./inp_files/2847.got.cif
#   From: 2010.05.17/outbox.cif.g08.bks.cpg/sg114_2_cif.got.tgz:2847.got - 2010.05.20 11:04:54.
