data_PCOD9556108
_publ_section_title
;
Structure prediction by ZEFSAII (Michael W. Deem and Ramdas Pophale) SiO2 
 PCOD9556108
Probable space group: P -4 21 C
;
_chemical_formula_sum "Si O2"
_cell_formula_units_Z 56
_cell_length_a 14.833365
_cell_length_b 14.833365
_cell_length_c 12.518631
_cell_angle_alpha 90.000000
_cell_angle_beta 90.000000
_cell_angle_gamma 90.000000
_cell_volume 2754.458320
_symmetry_space_group_name_H-M "P -4 21 C"
_symmetry_group_IT_number 114
_symmetry_cell_setting 'tetragonal'
loop_
_space_group_symop_operation_xyz
x,y,z
y,-x,-z
-x,-y,z
-y,x,-z
1/2+x,1/2-y,1/2-z
1/2-x,1/2+y,1/2-z
1/2-y,1/2-x,1/2+z
1/2+y,1/2+x,1/2+z
loop_
_atom_site_type_symbol
_atom_site_label
_atom_site_fract_x
_atom_site_fract_y
_atom_site_fract_z
Si Si1 0.235936 0.923349 0.306401
Si Si2 0.127010 0.810421 0.010550
Si Si3 0.083772 0.429829 0.800515
Si Si4 0.892925 0.016070 0.148135
Si Si5 0.224143 0.676640 0.857676
Si Si6 0.009378 0.668491 0.502981
Si Si7 0.577534 0.853308 0.341372
O O1 0.326990 0.930380 0.233910
O O2 0.197697 0.822458 0.312999
O O3 0.157988 0.986594 0.259963
O O4 0.263343 0.955650 0.423442
O O5 0.084710 0.730237 0.079459
O O6 0.142333 0.890477 0.094841
O O7 0.059075 0.855437 0.929002
O O8 0.198548 0.760838 0.933696
O O9 0.146119 0.479454 0.712872
O O10 0.000000 0.500000 0.798587
O O11 0.122005 0.442036 0.919297
O O12 0.000000 0.000000 0.155223
O O13 0.160620 0.650476 0.755412
O O14 0.214465 0.588512 0.933004
O O15 0.059914 0.600715 0.585760
#
# Coordination Sequence:
#
# PCOD9556108 Si02
#       7
#     8   8   8   8   8   8   8
#     4  12  26  44  69 104 135 183 236 288 349 421
#     4  11  22  40  70  93 132 173 227 285 337 401
#     4  11  25  39  67 104 138 182 224 278 361 425
#     4  12  25  45  67  99 130 180 239 283 344 405
#     4  10  24  43  66  99 134 181 227 279 346 412
#     4  10  24  43  65  99 140 177 221 282 354 417
#     4  10  21  44  63  94 141 175 216 282 341 422
#
# _framework density 20.330677999999999
#
# number of rings (size 3 to 8) (size 9 to 14) (size 15 to 20)
#    0.000    1.143    4.286    0.857   10.000    0.000 
#    2.571    0.000    0.000    0.000    0.000    0.000 
#    0.000    0.000    0.000    0.000    0.000    0.000 
#
# Total GULP energy -312493.711066 kJ/mol
# GULP energy per Si atom -5580.244840 kJ/mol
# Density = 2.028440 g / cm^3
# Si number density = 20.330678 Si / 1000 Ang^3
#
#
#
# Elastic Constant Matrix: (Units=GPa)
#
#
# Indices 1 2 3 4 5 6 
#
# 1 63.9748 12.5973 35.6260 0.0000 0.0000 0.0000
# 2 12.5973 63.9748 35.6260 0.0000 0.0000 0.0000
# 3 35.6260 35.6260 127.8144 0.0000 0.0000 0.0000
# 4 0.0000 0.0000 0.0000 50.5847 0.0000 0.0000
# 5 0.0000 0.0000 0.0000 0.0000 50.5847 0.0000
# 6 0.0000 0.0000 0.0000 0.0000 0.0000 18.5440
#
#
#
# Elastic Compliance Matrix: (Units=1/GPa)
#
#
# Indices 1 2 3 4 5 6 
#
# 1 0.018548 -0.000915 -0.004915 0.000000 0.000000 0.000000
# 2 -0.000915 0.018548 -0.004915 0.000000 0.000000 0.000000
# 3 -0.004915 -0.004915 0.010564 0.000000 0.000000 0.000000
# 4 0.000000 0.000000 0.000000 0.019769 0.000000 0.000000
# 5 0.000000 0.000000 0.000000 0.000000 0.019769 0.000000
# 6 0.000000 0.000000 0.000000 0.000000 0.000000 0.053926
#
#
# Mechanical properties :
#
#
# Convention : Reuss Voigt Hill
#
# Bulk Modulus (GPa) = 38.21148 47.05143 42.63146
# Shear Modulus (GPa) = 29.18215 35.40365 32.29290
#
# Velocity S-wave (km/s) = 3.79274 4.17752 3.98978
# Velocity P-wave (km/s) = 6.16568 6.81632 6.49915
#
# Compressibility (1/GPa) = 0.02617015
#
# Stress axis : x y z
#
# Youngs Moduli (GPa) = 53.91307 53.91307 94.66365
#
# Poissons Ratio (x) = 0.04935 0.46526
# Poissons Ratio (y) = 0.04935 0.46526
# Poissons Ratio (z) = 0.26498 0.26498
#
# Static dielectric constant tensor:
#      x y z
#    x 1.633650 0.000000 0.000000 
#    y 0.000000 1.633650 0.000000 
#    z 0.000000 0.000000 1.802360 
# 
# From -- ./inp_files/1736.got.cif
#   From: 2010.05.17/outbox.cif.g08.bks.cpg/sg114_1_cif.got.tgz:1736.got - 2010.05.20 11:04:54.
