data_PCOD9556116
_publ_section_title
;
Structure prediction by ZEFSAII (Michael W. Deem and Ramdas Pophale) SiO2 
 PCOD9556116
Probable space group: P -4 21 C
;
_chemical_formula_sum "Si O2"
_cell_formula_units_Z 30
_cell_length_a 7.028289
_cell_length_b 7.028289
_cell_length_c 22.306582
_cell_angle_alpha 90.000000
_cell_angle_beta 90.000000
_cell_angle_gamma 90.000000
_cell_volume 1101.874802
_symmetry_space_group_name_H-M "P -4 21 C"
_symmetry_group_IT_number 114
_symmetry_cell_setting 'tetragonal'
loop_
_space_group_symop_operation_xyz
x,y,z
y,-x,-z
-x,-y,z
-y,x,-z
1/2+x,1/2-y,1/2-z
1/2-x,1/2+y,1/2-z
1/2-y,1/2-x,1/2+z
1/2+y,1/2+x,1/2+z
loop_
_atom_site_type_symbol
_atom_site_label
_atom_site_fract_x
_atom_site_fract_y
_atom_site_fract_z
Si Si1 0.272022 0.015117 0.471124
Si Si2 0.500000 0.500000 0.500000
Si Si3 0.500000 0.500000 0.790587
Si Si4 0.827891 0.194894 0.113657
Si Si5 0.274683 0.665928 0.318617
O O1 0.235756 0.109254 0.406114
O O2 0.500000 0.000000 0.477676
O O3 0.117860 0.826835 0.318801
O O4 0.150949 0.822906 0.478232
O O5 0.370111 0.392007 0.452180
O O6 0.607517 0.655575 0.747774
O O7 0.030212 0.225310 0.146518
O O8 0.720556 0.033641 0.150038
#
# Coordination Sequence:
#
# PCOD9556116 Si02
#       5
#     8   2   4   8   8
#     4  11  25  47  83 117 166 230 278 343 416 500
#     4   8  14  32  76  96 156 208 254 324 404 470
#     4  10  21  48  82 119 159 228 281 366 426 504
#     4   9  19  43  75 119 159 226 266 346 413 509
#     4   9  22  44  87 114 168 216 286 347 440 502
#
# _framework density 27.226320000000001
#
# number of rings (size 3 to 8) (size 9 to 14) (size 15 to 20)
#    0.000    2.933    0.000    1.600    0.000    5.867 
#    9.600   10.667   46.933    0.000    0.000    0.000 
#    0.000    0.000    0.000    0.000    0.000    0.000 
#
# Total GULP energy -167927.263163 kJ/mol
# GULP energy per Si atom -5597.575439 kJ/mol
# Density = 2.716435 g / cm^3
# Si number density = 27.226320 Si / 1000 Ang^3
#
#
#
# Elastic Constant Matrix: (Units=GPa)
#
#
# Indices 1 2 3 4 5 6 
#
# 1 200.2645 119.4196 79.9558 0.0000 0.0000 0.0000
# 2 119.4196 200.2645 79.9558 0.0000 0.0000 0.0000
# 3 79.9558 79.9558 91.4529 0.0000 0.0000 0.0000
# 4 0.0000 0.0000 0.0000 28.3620 0.0000 0.0000
# 5 0.0000 0.0000 0.0000 0.0000 28.3620 0.0000
# 6 0.0000 0.0000 0.0000 0.0000 0.0000 81.7724
#
#
#
# Elastic Compliance Matrix: (Units=1/GPa)
#
#
# Indices 1 2 3 4 5 6 
#
# 1 0.008964 -0.003405 -0.004860 0.000000 0.000000 0.000000
# 2 -0.003405 0.008964 -0.004860 0.000000 0.000000 0.000000
# 3 -0.004860 -0.004860 0.019434 0.000000 0.000000 0.000000
# 4 0.000000 0.000000 0.000000 0.035258 0.000000 0.000000
# 5 0.000000 0.000000 0.000000 0.000000 0.035258 0.000000
# 6 0.000000 0.000000 0.000000 0.000000 0.000000 0.012229
#
#
# Mechanical properties :
#
#
# Convention : Reuss Voigt Hill
#
# Bulk Modulus (GPa) = 90.00640 116.73826 103.37233
# Shear Modulus (GPa) = 33.31920 41.87598 37.59759
#
# Velocity S-wave (km/s) = 3.50206 3.92608 3.72012
# Velocity P-wave (km/s) = 7.03441 7.97008 7.51682
#
# Compressibility (1/GPa) = 0.01111032
#
# Stress axis : x y z
#
# Youngs Moduli (GPa) = 111.55265 111.55265 51.45753
#
# Poissons Ratio (x) = 0.37984 0.25011
# Poissons Ratio (y) = 0.37984 0.25011
# Poissons Ratio (z) = 0.54220 0.54220
#
# Static dielectric constant tensor:
#      x y z
#    x 2.225430 0.000000 0.000000 
#    y 0.000000 2.225430 0.000000 
#    z 0.000000 0.000000 2.146730 
# 
# From -- ./inp_files/2795.got.cif
#   From: 2010.05.17/outbox.cif.g08.bks.cpg/sg114_2_cif.got.tgz:2795.got - 2010.05.20 11:04:54.
