data_PCOD9556971
_publ_section_title
;
Structure prediction by ZEFSAII (Michael W. Deem and Ramdas Pophale) SiO2 
 PCOD9556971
Probable space group: P -4 M 2
;
_chemical_formula_sum "Si O2"
_cell_formula_units_Z 48
_cell_length_a 9.257622
_cell_length_b 9.257622
_cell_length_c 31.419318
_cell_angle_alpha 90.000000
_cell_angle_beta 90.000000
_cell_angle_gamma 90.000000
_cell_volume 2692.747565
_symmetry_space_group_name_H-M "P -4 M 2"
_symmetry_group_IT_number 115
_symmetry_cell_setting 'tetragonal'
loop_
_space_group_symop_operation_xyz
x,y,z
y,-x,-z
-x,-y,z
-y,x,-z
y,x,-z
-y,-x,-z
-x,y,z
x,-y,z
loop_
_atom_site_type_symbol
_atom_site_label
_atom_site_fract_x
_atom_site_fract_y
_atom_site_fract_z
Si Si1 0.666583 0.675761 0.546888
Si Si2 0.828394 0.329035 0.289857
Si Si3 0.171507 0.671508 0.039035
Si Si4 0.328788 0.171198 0.213964
Si Si5 0.170333 0.326511 0.632329
Si Si6 0.671325 0.828687 0.114897
O O1 0.720493 0.720493 0.500000
O O2 0.500000 0.722535 0.552896
O O3 0.665099 0.500000 0.545438
O O4 0.762578 0.718537 0.586941
O O5 0.800392 0.500000 0.291790
O O6 0.763004 0.263155 0.246757
O O7 0.752396 0.251031 0.329453
O O8 0.000000 0.305362 0.291292
O O9 0.196847 0.500000 0.036772
O O10 0.236042 0.736005 0.082427
O O11 0.000000 0.696867 0.036785
O O12 0.249992 0.750009 0.000000
O O13 0.500000 0.196500 0.220760
O O14 0.296989 0.202857 0.164440
O O15 0.303493 0.000000 0.220827
O O16 0.190526 0.500000 0.636572
O O17 0.000000 0.297250 0.633788
O O18 0.500000 0.803401 0.108009
O O19 0.696550 0.000000 0.107968
#
# Coordination Sequence:
#
# PCOD9556971 Si02
#       6
#     8   8   8   8   8   8
#     4   8  14  27  49  75 102 134 172 213 257 306
#     4  11  24  38  52  75 107 141 178 221 267 313
#     4  11  24  39  56  81 112 145 183 226 269 315
#     4   9  19  37  60  84 109 139 176 217 262 315
#     4  10  20  34  54  79 105 136 176 218 261 313
#     4   9  19  37  60  85 112 141 176 218 263 315
#
# _framework density 17.825658000000001
#
# number of rings (size 3 to 8) (size 9 to 14) (size 15 to 20)
#    0.000    2.333    0.000    4.000    0.000    9.667 
#    0.000    5.833    0.000    3.000    0.000    0.000 
#    0.000    0.000    0.000    0.000    0.000    0.000 
#
# Total GULP energy -267973.043883 kJ/mol
# GULP energy per Si atom -5582.771748 kJ/mol
# Density = 1.778509 g / cm^3
# Si number density = 17.825658 Si / 1000 Ang^3
#
#
#
# Elastic Constant Matrix: (Units=GPa)
#
#
# Indices 1 2 3 4 5 6 
#
# 1 95.0486 89.4653 103.5560 0.0000 0.0000 0.0000
# 2 89.4653 95.0486 103.5559 0.0000 0.0000 0.0000
# 3 103.5560 103.5559 160.9694 0.0000 0.0000 0.0000
# 4 0.0000 0.0000 0.0000 83.3896 0.0000 0.0000
# 5 0.0000 0.0000 0.0000 0.0000 83.3944 0.0000
# 6 0.0000 0.0000 0.0000 0.0000 0.0000 115.2100
#
#
#
# Elastic Compliance Matrix: (Units=1/GPa)
#
#
# Indices 1 2 3 4 5 6 
#
# 1 0.099305 -0.079801 -0.012547 0.000000 0.000000 0.000000
# 2 -0.079801 0.099304 -0.012547 0.000000 0.000000 0.000000
# 3 -0.012547 -0.012547 0.022356 0.000000 0.000000 0.000000
# 4 0.000000 0.000000 0.000000 0.011992 0.000000 0.000000
# 5 0.000000 0.000000 0.000000 0.000000 0.011991 0.000000
# 6 0.000000 0.000000 0.000000 0.000000 0.000000 0.008680
#
#
# Mechanical properties :
#
#
# Convention : Reuss Voigt Hill
#
# Bulk Modulus (GPa) = 89.48844 104.91344 97.20094
# Shear Modulus (GPa) = 10.70334 60.03142 35.36738
#
# Velocity S-wave (km/s) = 2.45306 5.80948 4.45912
# Velocity P-wave (km/s) = 7.63769 10.19721 9.00882
#
# Compressibility (1/GPa) = 0.01117463
#
# Stress axis : x y z
#
# Youngs Moduli (GPa) = 10.07001 10.07004 44.73061
#
# Poissons Ratio (x) = 0.80360 0.56124
# Poissons Ratio (y) = 0.80360 0.56123
# Poissons Ratio (z) = 0.12635 0.12635
#
# Static dielectric constant tensor:
#      x y z
#    x 1.588440 0.000000 0.000000 
#    y 0.000000 1.588440 0.000000 
#    z 0.000000 0.000000 1.598760 
# 
# From -- ./inp_files/6083.got.cif
#   From: 2010.05.17/outbox.cif.g08.bks.cpg/sg115_4_cif.got.tgz:6083.got - 2010.05.20 11:07:42.
