data_PCOD9556204
_publ_section_title
;
Structure prediction by ZEFSAII (Michael W. Deem and Ramdas Pophale) SiO2 
 PCOD9556204
Probable space group: P -4 21 C
;
_chemical_formula_sum "Si O2"
_cell_formula_units_Z 48
_cell_length_a 16.111505
_cell_length_b 16.111505
_cell_length_c 8.137555
_cell_angle_alpha 90.000000
_cell_angle_beta 90.000000
_cell_angle_gamma 90.000000
_cell_volume 2112.351355
_symmetry_space_group_name_H-M "P -4 21 C"
_symmetry_group_IT_number 114
_symmetry_cell_setting 'tetragonal'
loop_
_space_group_symop_operation_xyz
x,y,z
y,-x,-z
-x,-y,z
-y,x,-z
1/2+x,1/2-y,1/2-z
1/2-x,1/2+y,1/2-z
1/2-y,1/2-x,1/2+z
1/2+y,1/2+x,1/2+z
loop_
_atom_site_type_symbol
_atom_site_label
_atom_site_fract_x
_atom_site_fract_y
_atom_site_fract_z
Si Si1 0.582916 0.853786 0.940716
Si Si2 0.802526 0.710889 0.468923
Si Si3 0.648627 0.090269 0.268946
Si Si4 0.715426 0.343434 0.290801
Si Si5 0.525088 0.633951 0.500059
Si Si6 0.303422 0.018336 0.799184
O O1 0.498160 0.874495 0.842197
O O2 0.628393 0.791689 0.817913
O O3 0.643110 0.933180 0.939020
O O4 0.563666 0.814622 0.119826
O O5 0.871100 0.716050 0.607946
O O6 0.809184 0.615688 0.403542
O O7 0.712456 0.728595 0.546124
O O8 0.825993 0.776149 0.329237
O O9 0.566252 0.146333 0.268429
O O10 0.670955 0.427036 0.343602
O O11 0.588886 0.560277 0.449038
O O12 0.513967 0.708560 0.366642
#
# Coordination Sequence:
#
# PCOD9556204 Si02
#       6
#     8   8   8   8   8   8
#     4  12  27  43  71 110 151 198 243 314 381 453
#     4  10  22  44  69 102 144 192 246 296 365 448
#     4  11  24  42  75 108 144 197 243 306 373 455
#     4  11  24  43  71 102 140 191 250 300 370 440
#     4  11  26  48  75 104 140 197 255 318 378 443
#     4  12  26  46  70 111 156 193 254 312 385 456
#
# _framework density 22.723493999999999
#
# number of rings (size 3 to 8) (size 9 to 14) (size 15 to 20)
#    0.000    0.833    1.667    5.500    7.000    2.667 
#    0.000    0.000    0.000    2.000    0.000    0.000 
#    0.000    0.000    0.000    0.000    0.000    0.000 
#
# Total GULP energy -267848.781762 kJ/mol
# GULP energy per Si atom -5580.182953 kJ/mol
# Density = 2.267177 g / cm^3
# Si number density = 22.723494 Si / 1000 Ang^3
#
#
#
# Elastic Constant Matrix: (Units=GPa)
#
#
# Indices 1 2 3 4 5 6 
#
# 1 129.5124 42.7504 33.0019 0.0000 0.0000 0.0000
# 2 42.7504 129.5124 33.0019 0.0000 0.0000 0.0000
# 3 33.0019 33.0019 108.1498 0.0000 0.0000 0.0000
# 4 0.0000 0.0000 0.0000 30.0168 0.0000 0.0000
# 5 0.0000 0.0000 0.0000 0.0000 30.0168 0.0000
# 6 0.0000 0.0000 0.0000 0.0000 0.0000 37.8835
#
#
#
# Elastic Compliance Matrix: (Units=1/GPa)
#
#
# Indices 1 2 3 4 5 6 
#
# 1 0.009050 -0.002476 -0.002006 0.000000 0.000000 0.000000
# 2 -0.002476 0.009050 -0.002006 0.000000 0.000000 0.000000
# 3 -0.002006 -0.002006 0.010471 0.000000 0.000000 0.000000
# 4 0.000000 0.000000 0.000000 0.033315 0.000000 0.000000
# 5 0.000000 0.000000 0.000000 0.000000 0.033315 0.000000
# 6 0.000000 0.000000 0.000000 0.000000 0.000000 0.026397
#
#
# Mechanical properties :
#
#
# Convention : Reuss Voigt Hill
#
# Bulk Modulus (GPa) = 64.12640 64.96477 64.54558
# Shear Modulus (GPa) = 35.77298 36.81143 36.29220
#
# Velocity S-wave (km/s) = 3.97202 4.02925 4.00074
# Velocity P-wave (km/s) = 7.02264 7.09210 7.05745
#
# Compressibility (1/GPa) = 0.01559420
#
# Stress axis : x y z
#
# Youngs Moduli (GPa) = 110.50047 110.50047 95.50480
#
# Poissons Ratio (x) = 0.27360 0.19158
# Poissons Ratio (y) = 0.27360 0.19158
# Poissons Ratio (z) = 0.22166 0.22166
#
# Static dielectric constant tensor:
#      x y z
#    x 1.923990 0.000000 0.000000 
#    y 0.000000 1.923990 0.000000 
#    z 0.000000 0.000000 1.944530 
# 
# From -- ./inp_files/929.got.cif
#   From: 2010.05.17/outbox.cif.g08.bks.cpg/sg114_1_cif.got.tgz:929.got - 2010.05.20 11:04:54.
