data_PCOD9556739
_publ_section_title
;
Structure prediction by ZEFSAII (Michael W. Deem and Ramdas Pophale) SiO2 
 PCOD9556739
Probable space group: P -4 M 2
;
_chemical_formula_sum "Si O2"
_cell_formula_units_Z 48
_cell_length_a 9.371630
_cell_length_b 9.371630
_cell_length_c 32.011981
_cell_angle_alpha 90.000000
_cell_angle_beta 90.000000
_cell_angle_gamma 90.000000
_cell_volume 2811.530624
_symmetry_space_group_name_H-M "P -4 M 2"
_symmetry_group_IT_number 115
_symmetry_cell_setting 'tetragonal'
loop_
_space_group_symop_operation_xyz
x,y,z
y,-x,-z
-x,-y,z
-y,x,-z
y,x,-z
-y,-x,-z
-x,y,z
x,-y,z
loop_
_atom_site_type_symbol
_atom_site_label
_atom_site_fract_x
_atom_site_fract_y
_atom_site_fract_z
Si Si1 0.669184 0.828951 0.630975
Si Si2 0.673646 0.664466 0.212531
Si Si3 0.326459 0.335546 0.879661
Si Si4 0.831099 0.671055 0.037216
Si Si5 0.670803 0.168057 0.536482
Si Si6 0.167874 0.328634 0.704737
O O1 0.500000 0.799701 0.635714
O O2 0.712092 0.787424 0.583653
O O3 0.756641 0.747887 0.666111
O O4 0.687653 0.000000 0.634557
O O5 0.500000 0.663099 0.211395
O O6 0.720085 0.500000 0.218245
O O7 0.716650 0.718018 0.166440
O O8 0.717452 0.759129 0.251723
O O9 0.500000 0.337634 0.878133
O O10 0.279971 0.500000 0.885992
O O11 0.284960 0.238253 0.918528
O O12 0.808655 0.500000 0.032478
O O13 0.000000 0.697587 0.036907
O O14 0.752755 0.752755 0.000000
O O15 0.746149 0.253852 0.500000
O O16 0.500000 0.183996 0.533557
O O17 0.703330 0.000000 0.532341
O O18 0.186849 0.500000 0.701100
O O19 0.000000 0.298399 0.705351
#
# Coordination Sequence:
#
# PCOD9556739 Si02
#       6
#     8   8   8   8   8   8
#     4   9  19  36  54  71  95 130 169 205 242 286
#     4   8  14  27  48  71  95 126 163 201 242 287
#     4   8  14  27  49  73  94 121 161 206 245 282
#     4  10  20  33  50  73 100 130 164 201 243 291
#     4   9  19  35  53  74 100 128 161 202 245 291
#     4  10  20  32  48  74 105 133 162 199 243 289
#
# _framework density 17.072551000000001
#
# number of rings (size 3 to 8) (size 9 to 14) (size 15 to 20)
#    0.000    3.000    0.000    3.000    0.000    4.000 
#    0.000    6.667    0.000    6.000    0.000    0.000 
#    0.000    0.000    0.000    0.000    0.000    0.000 
#
# Total GULP energy -267497.031609 kJ/mol
# GULP energy per Si atom -5572.854825 kJ/mol
# Density = 1.703369 g / cm^3
# Si number density = 17.072551 Si / 1000 Ang^3
#
#
#
# Elastic Constant Matrix: (Units=GPa)
#
#
# Indices 1 2 3 4 5 6 
#
# 1 49.9063 43.1483 78.0894 0.0000 0.0000 0.0000
# 2 43.1483 49.9033 78.0869 0.0000 0.0000 0.0000
# 3 78.0894 78.0869 211.8720 0.0000 0.0000 0.0000
# 4 0.0000 0.0000 0.0000 -18.1223 0.0000 0.0000
# 5 0.0000 0.0000 0.0000 0.0000 -18.1236 0.0000
# 6 0.0000 0.0000 0.0000 0.0000 0.0000 21.5148
#
#
#
# Elastic Compliance Matrix: (Units=1/GPa)
#
#
# Indices 1 2 3 4 5 6 
#
# 1 0.088088 -0.059915 -0.010384 0.000000 0.000000 0.000000
# 2 -0.059915 0.088092 -0.010384 0.000000 0.000000 0.000000
# 3 -0.010384 -0.010384 0.012374 0.000000 0.000000 0.000000
# 4 0.000000 0.000000 0.000000 -0.055181 0.000000 0.000000
# 5 0.000000 0.000000 0.000000 0.000000 -0.055177 0.000000
# 6 0.000000 0.000000 0.000000 0.000000 0.000000 0.046480
#
#
# Mechanical properties :
#
#
# Convention : Reuss Voigt Hill
#
# Bulk Modulus (GPa) = 36.78180 78.92565 57.85373
# Shear Modulus (GPa) = 16.94310 4.54427 10.74368
#
# Velocity S-wave (km/s) = 3.15368 1.63325 2.51130
# Velocity P-wave (km/s) = 5.90357 7.06305 6.50918
#
# Compressibility (1/GPa) = 0.02718736
#
# Stress axis : x y z
#
# Youngs Moduli (GPa) = 11.35235 11.35174 80.81235
#
# Poissons Ratio (x) = 0.68014 0.83918
# Poissons Ratio (y) = 0.68017 0.83918
# Poissons Ratio (z) = 0.11789 0.11788
#
# Static dielectric constant tensor:
#      x y z
#    x 1.561680 0.000000 0.000000 
#    y 0.000000 1.561680 0.000000 
#    z 0.000000 0.000000 1.580280 
# 
# From -- ./inp_files/6088.got.cif
#   From: 2010.05.17/outbox.cif.g08.bks.cpg/sg115_4_cif.got.tgz:6088.got - 2010.05.20 11:07:42.
