data_PCOD9556045
_publ_section_title
;
Structure prediction by ZEFSAII (Michael W. Deem and Ramdas Pophale) SiO2 
 PCOD9556045
Probable space group: P -4 21 C
;
_chemical_formula_sum "Si O2"
_cell_formula_units_Z 56
_cell_length_a 16.580879
_cell_length_b 16.580879
_cell_length_c 10.712101
_cell_angle_alpha 90.000000
_cell_angle_beta 90.000000
_cell_angle_gamma 90.000000
_cell_volume 2945.030242
_symmetry_space_group_name_H-M "P -4 21 C"
_symmetry_group_IT_number 114
_symmetry_cell_setting 'tetragonal'
loop_
_space_group_symop_operation_xyz
x,y,z
y,-x,-z
-x,-y,z
-y,x,-z
1/2+x,1/2-y,1/2-z
1/2-x,1/2+y,1/2-z
1/2-y,1/2-x,1/2+z
1/2+y,1/2+x,1/2+z
loop_
_atom_site_type_symbol
_atom_site_label
_atom_site_fract_x
_atom_site_fract_y
_atom_site_fract_z
Si Si1 0.413386 0.816307 0.788607
Si Si2 0.672077 0.688378 0.305989
Si Si3 0.616140 0.450921 0.511764
Si Si4 0.920780 0.260905 0.827990
Si Si5 0.083145 0.324510 0.426202
Si Si6 0.395608 0.199242 0.103110
Si Si7 0.310029 0.294459 0.893800
O O1 0.362167 0.733361 0.779288
O O2 0.505744 0.795054 0.755148
O O3 0.378741 0.873694 0.679278
O O4 0.402145 0.848999 0.929064
O O5 0.609009 0.632960 0.375244
O O6 0.623233 0.755638 0.231839
O O7 0.730791 0.735720 0.400657
O O8 0.538947 0.411377 0.443748
O O9 0.694671 0.453046 0.424993
O O10 0.876439 0.334545 0.898329
O O11 0.854316 0.218391 0.738538
O O12 0.120295 0.234167 0.409560
O O13 0.987748 0.325161 0.406970
O O14 0.371917 0.264352 0.997729
#
# Coordination Sequence:
#
# PCOD9556045 Si02
#       7
#     8   8   8   8   8   8   8
#     4  11  23  43  66  91 133 165 213 261 333 375
#     4  10  21  38  61  89 120 166 209 258 315 389
#     4  11  23  37  60  97 132 166 217 271 327 385
#     4  11  23  41  65  88 127 176 208 269 321 393
#     4  11  25  42  66  99 124 167 213 272 314 388
#     4  11  22  40  63  93 120 163 219 259 315 388
#     4  10  21  39  64  87 120 160 216 252 319 383
#
# _framework density 19.015084999999999
#
# number of rings (size 3 to 8) (size 9 to 14) (size 15 to 20)
#    0.000    1.286    5.714    0.000    2.000    1.714 
#    0.000    1.429    0.000    2.143    0.000    0.000 
#    0.000    0.000    0.000    0.000    0.000    0.000 
#
# Total GULP energy -312419.991030 kJ/mol
# GULP energy per Si atom -5578.928411 kJ/mol
# Density = 1.897181 g / cm^3
# Si number density = 19.015085 Si / 1000 Ang^3
#
#
#
# Elastic Constant Matrix: (Units=GPa)
#
#
# Indices 1 2 3 4 5 6 
#
# 1 88.0695 30.1443 32.4863 0.0000 0.0000 0.0000
# 2 30.1443 88.0695 32.4863 0.0000 0.0000 0.0000
# 3 32.4863 32.4863 77.0583 0.0000 0.0000 0.0000
# 4 0.0000 0.0000 0.0000 25.8690 0.0000 0.0000
# 5 0.0000 0.0000 0.0000 0.0000 25.8690 0.0000
# 6 0.0000 0.0000 0.0000 0.0000 0.0000 23.1020
#
#
#
# Elastic Compliance Matrix: (Units=1/GPa)
#
#
# Indices 1 2 3 4 5 6 
#
# 1 0.014137 -0.003127 -0.004642 0.000000 0.000000 0.000000
# 2 -0.003127 0.014137 -0.004642 0.000000 0.000000 0.000000
# 3 -0.004642 -0.004642 0.016891 0.000000 0.000000 0.000000
# 4 0.000000 0.000000 0.000000 0.038656 0.000000 0.000000
# 5 0.000000 0.000000 0.000000 0.000000 0.038656 0.000000
# 6 0.000000 0.000000 0.000000 0.000000 0.000000 0.043286
#
#
# Mechanical properties :
#
#
# Convention : Reuss Voigt Hill
#
# Bulk Modulus (GPa) = 49.15284 49.27013 49.21149
# Shear Modulus (GPa) = 25.33364 25.50669 25.42017
#
# Velocity S-wave (km/s) = 3.65402 3.66648 3.66025
# Velocity P-wave (km/s) = 6.61120 6.62506 6.61813
#
# Compressibility (1/GPa) = 0.02034470
#
# Stress axis : x y z
#
# Youngs Moduli (GPa) = 70.73612 70.73612 59.20316
#
# Poissons Ratio (x) = 0.22116 0.27481
# Poissons Ratio (y) = 0.22116 0.27481
# Poissons Ratio (z) = 0.32834 0.32834
#
# Static dielectric constant tensor:
#      x y z
#    x 1.660140 0.000000 0.000000 
#    y 0.000000 1.660140 0.000000 
#    z 0.000000 0.000000 1.672620 
# 
# From -- ./inp_files/1745.got.cif
#   From: 2010.05.17/outbox.cif.g08.bks.cpg/sg114_1_cif.got.tgz:1745.got - 2010.05.20 11:04:54.
