data_PCOD9556639
_publ_section_title
;
Structure prediction by ZEFSAII (Michael W. Deem and Ramdas Pophale) SiO2 
 PCOD9556639
Probable space group: P -4 M 2
;
_chemical_formula_sum "Si O2"
_cell_formula_units_Z 32
_cell_length_a 7.824180
_cell_length_b 7.824180
_cell_length_c 25.187205
_cell_angle_alpha 90.000000
_cell_angle_beta 90.000000
_cell_angle_gamma 90.000000
_cell_volume 1541.905094
_symmetry_space_group_name_H-M "P -4 M 2"
_symmetry_group_IT_number 115
_symmetry_cell_setting 'tetragonal'
loop_
_space_group_symop_operation_xyz
x,y,z
y,-x,-z
-x,-y,z
-y,x,-z
y,x,-z
-y,-x,-z
-x,y,z
x,-y,z
loop_
_atom_site_type_symbol
_atom_site_label
_atom_site_fract_x
_atom_site_fract_y
_atom_site_fract_z
Si Si1 0.686382 0.791167 0.327312
Si Si2 0.208424 0.799555 0.557526
Si Si3 0.209204 0.000000 0.866629
Si Si4 0.209608 0.000000 0.744919
Si Si5 0.309447 0.793153 0.059012
O O1 0.500000 0.740130 0.308235
O O2 0.712582 0.734754 0.388217
O O3 0.835347 0.734432 0.288394
O O4 0.693485 0.000000 0.328637
O O5 0.267130 0.732871 0.500000
O O6 0.000000 0.789900 0.555782
O O7 0.252241 0.000000 0.561875
O O8 0.265935 0.000000 0.805777
O O9 0.264267 0.165819 0.899747
O O10 0.000000 0.000000 0.865975
O O11 0.000000 0.000000 0.745274
O O12 0.500000 0.744970 0.075848
O O13 0.300082 0.000000 0.055974
O O14 0.273910 0.726091 0.000000
#
# Coordination Sequence:
#
# PCOD9556639 Si02
#       5
#     8   8   4   4   8
#     4   9  15  22  34  53  84 125 169 219 268 319
#     4   8  12  19  32  49  72 108 156 205 259 323
#     4   9  18  30  47  69 101 142 183 230 272 322
#     4   9  16  26  38  57  91 135 176 214 265 319
#     4  10  19  32  53  77 104 142 184 226 279 334
#
# _framework density 20.753546
#
# number of rings (size 3 to 8) (size 9 to 14) (size 15 to 20)
#    0.000    3.000    2.500    0.750    0.000    1.250 
#    0.000    5.000    0.000    0.000    0.000    0.000 
#    0.000    4.500    0.000    1.250    0.000    0.500 
#
# Total GULP energy -178574.610853 kJ/mol
# GULP energy per Si atom -5580.456589 kJ/mol
# Density = 2.070631 g / cm^3
# Si number density = 20.753546 Si / 1000 Ang^3
#
#
#
# Elastic Constant Matrix: (Units=GPa)
#
#
# Indices 1 2 3 4 5 6 
#
# 1 80.3990 30.2629 63.2255 0.0000 0.0000 0.0000
# 2 30.2629 80.3985 63.2268 0.0000 0.0000 0.0000
# 3 63.2255 63.2268 191.2486 0.0000 0.0000 0.0000
# 4 0.0000 0.0000 0.0000 -11.6124 0.0000 0.0000
# 5 0.0000 0.0000 0.0000 0.0000 -11.6127 0.0000
# 6 0.0000 0.0000 0.0000 0.0000 0.0000 -0.7203
#
#
#
# Elastic Compliance Matrix: (Units=1/GPa)
#
#
# Indices 1 2 3 4 5 6 
#
# 1 0.017234 -0.002711 -0.004801 0.000000 0.000000 0.000000
# 2 -0.002711 0.017235 -0.004801 0.000000 0.000000 0.000000
# 3 -0.004801 -0.004801 0.008403 0.000000 0.000000 0.000000
# 4 0.000000 0.000000 0.000000 -0.086115 0.000000 0.000000
# 5 0.000000 0.000000 0.000000 0.000000 -0.086113 0.000000
# 6 0.000000 0.000000 0.000000 0.000000 0.000000 -1.388289
#
#
# Mechanical properties :
#
#
# Convention : Reuss Voigt Hill
#
# Bulk Modulus (GPa) = 54.81191 73.94183 64.37687
# Shear Modulus (GPa) = -3.36262 8.23298 2.43518
#
# Velocity S-wave (km/s) = -1.27428 1.99390 1.08440
# Velocity P-wave (km/s) = 4.92982 6.40365 5.71445
#
# Compressibility (1/GPa) = 0.01824421
#
# Stress axis : x y z
#
# Youngs Moduli (GPa) = 58.02431 58.02301 119.00050
#
# Poissons Ratio (x) = 0.15733 0.57133
# Poissons Ratio (y) = 0.15733 0.57136
# Poissons Ratio (z) = 0.27858 0.27859
#
# Static dielectric constant tensor:
#      x y z
#    x 1.756190 0.000000 0.000000 
#    y 0.000000 1.756190 0.000000 
#    z 0.000000 0.000000 1.698200 
# 
# From -- ./inp_files/5027.got.cif
#   From: 2010.05.17/outbox.cif.g08.bks.cpg/sg115_3_cif.got.tgz:5027.got - 2010.05.20 11:07:42.
