data_PCOD9556653
_publ_section_title
;
Structure prediction by ZEFSAII (Michael W. Deem and Ramdas Pophale) SiO2 
 PCOD9556653
Probable space group: P -4 M 2
;
_chemical_formula_sum "Si O2"
_cell_formula_units_Z 32
_cell_length_a 8.043531
_cell_length_b 8.043531
_cell_length_c 24.389853
_cell_angle_alpha 90.000000
_cell_angle_beta 90.000000
_cell_angle_gamma 90.000000
_cell_volume 1577.984245
_symmetry_space_group_name_H-M "P -4 M 2"
_symmetry_group_IT_number 115
_symmetry_cell_setting 'tetragonal'
loop_
_space_group_symop_operation_xyz
x,y,z
y,-x,-z
-x,-y,z
-y,x,-z
y,x,-z
-y,-x,-z
-x,y,z
x,-y,z
loop_
_atom_site_type_symbol
_atom_site_label
_atom_site_fract_x
_atom_site_fract_y
_atom_site_fract_z
Si Si1 0.679279 0.198428 0.325347
Si Si2 0.809896 0.301178 0.439930
Si Si3 0.202723 0.000000 0.866788
Si Si4 0.204419 0.000000 0.740527
Si Si5 0.312298 0.798600 0.059648
O O1 0.500000 0.266342 0.308068
O O2 0.705186 0.230100 0.389777
O O3 0.836423 0.263404 0.291632
O O4 0.677080 0.000000 0.317048
O O5 0.751828 0.248173 0.500000
O O6 0.803551 0.500000 0.436849
O O7 0.000000 0.245110 0.432120
O O8 0.256015 0.000000 0.803741
O O9 0.254888 0.833980 0.899209
O O10 0.000000 0.000000 0.866730
O O11 0.000000 0.000000 0.739339
O O12 0.500000 0.757309 0.077678
O O13 0.302019 0.000000 0.054530
O O14 0.276878 0.723123 0.000000
#
# Coordination Sequence:
#
# PCOD9556653 Si02
#       5
#     8   8   4   4   8
#     4  10  20  35  57  82 111 151 197 243 296 357
#     4  11  23  37  55  81 111 144 187 238 299 365
#     4   9  18  32  55  85 121 156 195 246 294 348
#     4   9  18  34  55  83 117 155 194 243 296 344
#     4  10  19  32  55  84 116 156 197 242 301 361
#
# _framework density 20.279038
#
# number of rings (size 3 to 8) (size 9 to 14) (size 15 to 20)
#    0.000    2.000    2.500    1.500    0.000    6.250 
#    0.000    5.000    0.000    3.000    0.000    3.500 
#    0.000    0.000    0.000    0.000    0.000    0.000 
#
# Total GULP energy -178740.206507 kJ/mol
# GULP energy per Si atom -5585.631453 kJ/mol
# Density = 2.023288 g / cm^3
# Si number density = 20.279038 Si / 1000 Ang^3
#
#
#
# Elastic Constant Matrix: (Units=GPa)
#
#
# Indices 1 2 3 4 5 6 
#
# 1 80.3650 47.0550 47.0745 0.0000 0.0000 0.0000
# 2 47.0550 80.3623 47.0757 0.0000 0.0000 0.0000
# 3 47.0745 47.0757 142.3299 0.0000 0.0000 0.0000
# 4 0.0000 0.0000 0.0000 28.6110 0.0000 0.0000
# 5 0.0000 0.0000 0.0000 0.0000 28.6112 0.0000
# 6 0.0000 0.0000 0.0000 0.0000 0.0000 9.5853
#
#
#
# Elastic Compliance Matrix: (Units=1/GPa)
#
#
# Indices 1 2 3 4 5 6 
#
# 1 0.020204 -0.009818 -0.003435 0.000000 0.000000 0.000000
# 2 -0.009818 0.020205 -0.003436 0.000000 0.000000 0.000000
# 3 -0.003435 -0.003436 0.009298 0.000000 0.000000 0.000000
# 4 0.000000 0.000000 0.000000 0.034952 0.000000 0.000000
# 5 0.000000 0.000000 0.000000 0.000000 0.034951 0.000000
# 6 0.000000 0.000000 0.000000 0.000000 0.000000 0.104326
#
#
# Mechanical properties :
#
#
# Convention : Reuss Voigt Hill
#
# Bulk Modulus (GPa) = 61.23636 65.05195 63.14415
# Shear Modulus (GPa) = 19.02904 24.15165 21.59035
#
# Velocity S-wave (km/s) = 3.06659 3.45478 3.26646
# Velocity P-wave (km/s) = 6.54225 6.93268 6.74029
#
# Compressibility (1/GPa) = 0.01633017
#
# Stress axis : x y z
#
# Youngs Moduli (GPa) = 49.49561 49.49294 107.54589
#
# Poissons Ratio (x) = 0.48591 0.36942
# Poissons Ratio (y) = 0.48594 0.36949
# Poissons Ratio (z) = 0.17002 0.17004
#
# Static dielectric constant tensor:
#      x y z
#    x 1.722080 0.000000 0.000000 
#    y 0.000000 1.722080 0.000000 
#    z 0.000000 0.000000 1.670860 
# 
# From -- ./inp_files/5024.got.cif
#   From: 2010.05.17/outbox.cif.g08.bks.cpg/sg115_3_cif.got.tgz:5024.got - 2010.05.20 11:07:42.
