data_PCOD9556407
_publ_section_title
;
Structure prediction by ZEFSAII (Michael W. Deem and Ramdas Pophale) SiO2 
 PCOD9556407
Probable space group: P -4 21 C
;
_chemical_formula_sum "Si O2"
_cell_formula_units_Z 46
_cell_length_a 8.862411
_cell_length_b 8.862411
_cell_length_c 27.604064
_cell_angle_alpha 90.000000
_cell_angle_beta 90.000000
_cell_angle_gamma 90.000000
_cell_volume 2168.087469
_symmetry_space_group_name_H-M "P -4 21 C"
_symmetry_group_IT_number 114
_symmetry_cell_setting 'tetragonal'
loop_
_space_group_symop_operation_xyz
x,y,z
y,-x,-z
-x,-y,z
-y,x,-z
1/2+x,1/2-y,1/2-z
1/2-x,1/2+y,1/2-z
1/2-y,1/2-x,1/2+z
1/2+y,1/2+x,1/2+z
loop_
_atom_site_type_symbol
_atom_site_label
_atom_site_fract_x
_atom_site_fract_y
_atom_site_fract_z
Si Si1 0.178843 0.723153 0.201678
Si Si2 0.500000 0.000000 0.539895
Si Si3 0.500000 0.000000 0.867497
Si Si4 0.320892 0.023364 0.695678
Si Si5 0.288242 0.142970 0.105206
Si Si6 0.689420 0.117511 0.957496
Si Si7 0.000000 0.000000 0.000000
Si Si8 0.000000 0.000000 0.844906
O O1 0.117424 0.586995 0.167659
O O2 0.359356 0.743671 0.198951
O O3 0.124156 0.701721 0.256688
O O4 0.093244 0.875168 0.184733
O O5 0.497812 0.133541 0.579520
O O6 0.615568 0.068525 0.500101
O O7 0.619407 0.064531 0.906262
O O8 0.500000 0.000000 0.691683
O O9 0.281037 0.117924 0.647874
O O10 0.279176 0.248852 0.058017
O O11 0.129049 0.085494 0.125038
O O12 0.838844 0.021598 0.972650
#
# Coordination Sequence:
#
# PCOD9556407 Si02
#       8
#     8   4   4   8   8   8   2   4
#     4  12  26  45  74 105 158 189 250 305 378 450
#     4  11  24  41  66 104 146 173 238 315 356 440
#     4  11  26  45  68 108 150 189 236 313 372 448
#     4  12  26  46  73 111 148 198 246 312 374 453
#     4  12  23  45  72 104 140 186 251 303 370 443
#     4  11  25  41  70 106 138 183 240 302 373 432
#     4  12  22  44  84 100 132 192 260 304 366 456
#     4  12  23  42  79 108 136 198 253 310 365 462
#
# _framework density 21.216853
#
# number of rings (size 3 to 8) (size 9 to 14) (size 15 to 20)
#    0.000    0.348    6.957    1.565    0.000    1.391 
#    0.000    0.000    0.000    0.000    0.000    0.000 
#    0.000    0.000    0.000    0.000    0.000    0.000 
#
# Total GULP energy -256214.520991 kJ/mol
# GULP energy per Si atom -5569.880891 kJ/mol
# Density = 2.116856 g / cm^3
# Si number density = 21.216853 Si / 1000 Ang^3
#
#
#
# Elastic Constant Matrix: (Units=GPa)
#
#
# Indices 1 2 3 4 5 6 
#
# 1 92.2904 13.9985 38.1354 0.0000 0.0000 0.0000
# 2 13.9985 92.2904 38.1354 0.0000 0.0000 0.0000
# 3 38.1354 38.1354 142.3475 0.0000 0.0000 0.0000
# 4 0.0000 0.0000 0.0000 6.2137 0.0000 0.0000
# 5 0.0000 0.0000 0.0000 0.0000 6.2137 0.0000
# 6 0.0000 0.0000 0.0000 0.0000 0.0000 8.4452
#
#
#
# Elastic Compliance Matrix: (Units=1/GPa)
#
#
# Indices 1 2 3 4 5 6 
#
# 1 0.012210 -0.000563 -0.003120 0.000000 0.000000 0.000000
# 2 -0.000563 0.012210 -0.003120 0.000000 0.000000 0.000000
# 3 -0.003120 -0.003120 0.008697 0.000000 0.000000 0.000000
# 4 0.000000 0.000000 0.000000 0.160936 0.000000 0.000000
# 5 0.000000 0.000000 0.000000 0.000000 0.160936 0.000000
# 6 0.000000 0.000000 0.000000 0.000000 0.000000 0.118410
#
#
# Mechanical properties :
#
#
# Convention : Reuss Voigt Hill
#
# Bulk Modulus (GPa) = 51.25494 56.38522 53.82008
# Shear Modulus (GPa) = 10.13152 19.95178 15.04165
#
# Velocity S-wave (km/s) = 2.18760 3.06988 2.66550
# Velocity P-wave (km/s) = 5.53090 6.26090 5.90719
#
# Compressibility (1/GPa) = 0.01951032
#
# Stress axis : x y z
#
# Youngs Moduli (GPa) = 81.89955 81.89955 114.98232
#
# Poissons Ratio (x) = 0.04608 0.35879
# Poissons Ratio (y) = 0.04608 0.35879
# Poissons Ratio (z) = 0.25556 0.25556
#
# Static dielectric constant tensor:
#      x y z
#    x 2.094850 0.000000 0.000000 
#    y 0.000000 2.094850 0.000000 
#    z 0.000000 0.000000 1.792550 
# 
# From -- ./inp_files/3896.got.cif
#   From: 2010.05.17/outbox.cif.g08.bks.cpg/sg114_2_cif.got.tgz:3896.got - 2010.05.20 11:04:54.
