data_PCOD9556196
_publ_section_title
;
Structure prediction by ZEFSAII (Michael W. Deem and Ramdas Pophale) SiO2 
 PCOD9556196
Probable space group: P -4 21 C
;
_chemical_formula_sum "Si O2"
_cell_formula_units_Z 20
_cell_length_a 8.717880
_cell_length_b 8.717880
_cell_length_c 10.515514
_cell_angle_alpha 90.000000
_cell_angle_beta 90.000000
_cell_angle_gamma 90.000000
_cell_volume 799.194119
_symmetry_space_group_name_H-M "P -4 21 C"
_symmetry_group_IT_number 114
_symmetry_cell_setting 'tetragonal'
loop_
_space_group_symop_operation_xyz
x,y,z
y,-x,-z
-x,-y,z
-y,x,-z
1/2+x,1/2-y,1/2-z
1/2-x,1/2+y,1/2-z
1/2-y,1/2-x,1/2+z
1/2+y,1/2+x,1/2+z
loop_
_atom_site_type_symbol
_atom_site_label
_atom_site_fract_x
_atom_site_fract_y
_atom_site_fract_z
Si Si1 0.000000 0.000000 0.000000
Si Si2 0.214692 0.661694 0.877356
Si Si3 0.290335 0.023512 0.882020
Si Si4 0.500000 0.500000 0.000000
O O1 0.884324 0.917097 0.905827
O O2 0.270280 0.840120 0.870580
O O3 0.149366 0.605197 0.743126
O O4 0.360686 0.558817 0.913619
O O5 0.092521 0.637911 0.990352
#
# Coordination Sequence:
#
# PCOD9556196 Si02
#       4
#     2   8   8   2
#     4   8  18  40  68  98 130 176 228 294 350 412
#     4  11  24  45  72 103 140 184 235 294 358 428
#     4  10  22  43  72 102 137 180 233 292 358 427
#     4  12  26  44  68 102 142 188 236 290 350 428
#
# _framework density 25.025209
#
# number of rings (size 3 to 8) (size 9 to 14) (size 15 to 20)
#    0.000    1.600    0.000    3.600    0.000    8.000 
#    0.000   12.000    0.000    0.000    0.000    0.000 
#    0.000    0.000    0.000    0.000    0.000    0.000 
#
# Total GULP energy -111803.800853 kJ/mol
# GULP energy per Si atom -5590.190043 kJ/mol
# Density = 2.496825 g / cm^3
# Si number density = 25.025209 Si / 1000 Ang^3
#
#
#
# Elastic Constant Matrix: (Units=GPa)
#
#
# Indices 1 2 3 4 5 6 
#
# 1 124.4852 15.9390 54.0597 0.0000 0.0000 0.0000
# 2 15.9390 124.4852 54.0597 0.0000 0.0000 0.0000
# 3 54.0597 54.0597 221.6648 0.0000 0.0000 0.0000
# 4 0.0000 0.0000 0.0000 -8.3058 0.0000 0.0000
# 5 0.0000 0.0000 0.0000 0.0000 -8.3058 0.0000
# 6 0.0000 0.0000 0.0000 0.0000 0.0000 39.6867
#
#
#
# Elastic Compliance Matrix: (Units=1/GPa)
#
#
# Indices 1 2 3 4 5 6 
#
# 1 0.008990 -0.000223 -0.002138 0.000000 0.000000 0.000000
# 2 -0.000223 0.008990 -0.002138 0.000000 0.000000 0.000000
# 3 -0.002138 -0.002138 0.005554 0.000000 0.000000 0.000000
# 4 0.000000 0.000000 0.000000 -0.120398 0.000000 0.000000
# 5 0.000000 0.000000 0.000000 0.000000 -0.120398 0.000000
# 6 0.000000 0.000000 0.000000 0.000000 0.000000 0.025197
#
#
# Mechanical properties :
#
#
# Convention : Reuss Voigt Hill
#
# Bulk Modulus (GPa) = 68.79230 79.86134 74.32682
# Shear Modulus (GPa) = -28.05517 27.72015 -0.16751
#
# Velocity S-wave (km/s) = -3.35188 3.33181 -0.25900
# Velocity P-wave (km/s) = 3.54524 6.83980 5.44755
#
# Compressibility (1/GPa) = 0.01453651
#
# Stress axis : x y z
#
# Youngs Moduli (GPa) = 111.23295 111.23295 180.04157
#
# Poissons Ratio (x) = 0.02475 0.38497
# Poissons Ratio (y) = 0.02475 0.38497
# Poissons Ratio (z) = 0.23784 0.23784
#
# Static dielectric constant tensor:
#      x y z
#    x 2.038270 0.000000 0.000000 
#    y 0.000000 2.038270 0.000000 
#    z 0.000000 0.000000 1.975480 
# 
# From -- ./inp_files/408.got.cif
#   From: 2010.05.17/outbox.cif.g08.bks.cpg/sg114_1_cif.got.tgz:408.got - 2010.05.20 11:04:54.
