data_PCOD9556768
_publ_section_title
;
Structure prediction by ZEFSAII (Michael W. Deem and Ramdas Pophale) SiO2 
 PCOD9556768
Probable space group: P -4 M 2
;
_chemical_formula_sum "Si O2"
_cell_formula_units_Z 48
_cell_length_a 9.101401
_cell_length_b 9.101401
_cell_length_c 32.629680
_cell_angle_alpha 90.000000
_cell_angle_beta 90.000000
_cell_angle_gamma 90.000000
_cell_volume 2702.895863
_symmetry_space_group_name_H-M "P -4 M 2"
_symmetry_group_IT_number 115
_symmetry_cell_setting 'tetragonal'
loop_
_space_group_symop_operation_xyz
x,y,z
y,-x,-z
-x,-y,z
-y,x,-z
y,x,-z
-y,-x,-z
-x,y,z
x,-y,z
loop_
_atom_site_type_symbol
_atom_site_label
_atom_site_fract_x
_atom_site_fract_y
_atom_site_fract_z
Si Si1 0.824049 0.673177 0.538640
Si Si2 0.328564 0.820401 0.295415
Si Si3 0.325535 0.174532 0.961063
Si Si4 0.177178 0.675173 0.883591
Si Si5 0.179145 0.168743 0.622130
Si Si6 0.828555 0.678718 0.793516
O O1 0.747789 0.747789 0.500000
O O2 0.795860 0.500000 0.539058
O O3 0.774654 0.743351 0.581722
O O4 0.000000 0.695890 0.535334
O O5 0.500000 0.781517 0.300247
O O6 0.239420 0.771191 0.335073
O O7 0.274260 0.766917 0.250662
O O8 0.322863 0.000000 0.294152
O O9 0.500000 0.201427 0.961194
O O10 0.254428 0.238529 0.919834
O O11 0.300831 0.000000 0.963563
O O12 0.252378 0.252378 0.000000
O O13 0.203375 0.500000 0.888077
O O14 0.231382 0.721847 0.838031
O O15 0.000000 0.695302 0.885381
O O16 0.000000 0.173330 0.622792
O O17 0.224314 0.000000 0.619041
O O18 0.826239 0.500000 0.792746
O O19 0.000000 0.722642 0.793994
#
# Coordination Sequence:
#
# PCOD9556768 Si02
#       6
#     8   8   8   8   8   8
#     4  10  20  33  49  69  93 123 159 198 242 292
#     4   8  12  20  36  59  90 127 162 194 231 277
#     4  11  24  39  54  74  99 127 161 201 245 294
#     4   9  17  31  52  77 103 131 165 203 242 286
#     4   9  16  25  39  62  93 126 158 195 239 285
#     4   7  11  21  39  64  94 127 160 194 233 277
#
# _framework density 17.758731000000001
#
# number of rings (size 3 to 8) (size 9 to 14) (size 15 to 20)
#    0.000    3.000    0.000    4.000    0.000    6.667 
#    0.000    0.833    0.000    3.000    0.000    1.167 
#    0.000    6.667    0.000    0.000    0.000    0.000 
#
# Total GULP energy -267361.269013 kJ/mol
# GULP energy per Si atom -5570.026438 kJ/mol
# Density = 1.771831 g / cm^3
# Si number density = 17.758731 Si / 1000 Ang^3
#
#
#
# Elastic Constant Matrix: (Units=GPa)
#
#
# Indices 1 2 3 4 5 6 
#
# 1 43.9464 46.3969 69.2751 0.0000 0.0000 0.0000
# 2 46.3969 43.9464 69.2751 0.0000 0.0000 0.0000
# 3 69.2751 69.2751 229.9296 0.0000 0.0000 0.0000
# 4 0.0000 0.0000 0.0000 49.2265 0.0000 0.0000
# 5 0.0000 0.0000 0.0000 0.0000 49.2265 0.0000
# 6 0.0000 0.0000 0.0000 0.0000 0.0000 13.4561
#
#
#
# Elastic Compliance Matrix: (Units=1/GPa)
#
#
# Indices 1 2 3 4 5 6 
#
# 1 -0.193751 0.214328 -0.006199 0.000000 0.000000 0.000000
# 2 0.214328 -0.193751 -0.006199 0.000000 0.000000 0.000000
# 3 -0.006199 -0.006199 0.008085 0.000000 0.000000 0.000000
# 4 0.000000 0.000000 0.000000 0.020314 0.000000 0.000000
# 5 0.000000 0.000000 0.000000 0.000000 0.020314 0.000000
# 6 0.000000 0.000000 0.000000 0.000000 0.000000 0.074316
#
#
# Mechanical properties :
#
#
# Convention : Reuss Voigt Hill
#
# Bulk Modulus (GPa) = 40.91705 76.41295 58.66500
# Shear Modulus (GPa) = -7.57363 31.24018 11.83327
#
# Velocity S-wave (km/s) = -2.06736 4.19877 2.58415
# Velocity P-wave (km/s) = 4.17036 8.16260 6.48151
#
# Compressibility (1/GPa) = 0.02443969
#
# Stress axis : x y z
#
# Youngs Moduli (GPa) = -5.16125 -5.16125 123.68966
#
# Poissons Ratio (x) = 1.10620 0.76680
# Poissons Ratio (y) = 1.10620 0.76680
# Poissons Ratio (z) = -0.03200 -0.03200
#
# Static dielectric constant tensor:
#      x y z
#    x 1.594270 0.000000 0.000000 
#    y 0.000000 1.594270 0.000000 
#    z 0.000000 0.000000 1.629740 
# 
# From -- ./inp_files/5908.got.cif
#   From: 2010.05.17/outbox.cif.g08.bks.cpg/sg115_3_cif.got.tgz:5908.got - 2010.05.20 11:07:42.
