data_PCOD9556860
_publ_section_title
;
Structure prediction by ZEFSAII (Michael W. Deem and Ramdas Pophale) SiO2 
 PCOD9556860
Probable space group: P -4 M 2
;
_chemical_formula_sum "Si O2"
_cell_formula_units_Z 40
_cell_length_a 9.212676
_cell_length_b 9.212676
_cell_length_c 26.632319
_cell_angle_alpha 90.000000
_cell_angle_beta 90.000000
_cell_angle_gamma 90.000000
_cell_volume 2260.375439
_symmetry_space_group_name_H-M "P -4 M 2"
_symmetry_group_IT_number 115
_symmetry_cell_setting 'tetragonal'
loop_
_space_group_symop_operation_xyz
x,y,z
y,-x,-z
-x,-y,z
-y,x,-z
y,x,-z
-y,-x,-z
-x,y,z
x,-y,z
loop_
_atom_site_type_symbol
_atom_site_label
_atom_site_fract_x
_atom_site_fract_y
_atom_site_fract_z
Si Si1 0.171555 0.326117 0.695753
Si Si2 0.332927 0.323070 0.797883
Si Si3 0.327233 0.827762 0.603305
Si Si4 0.327072 0.327072 0.000000
Si Si5 0.672214 0.327787 0.500000
Si Si6 0.677047 0.167238 0.101811
O O1 0.192900 0.500000 0.690234
O O2 0.248784 0.279854 0.747510
O O3 0.241750 0.246340 0.648550
O O4 0.000000 0.298947 0.698773
O O5 0.500000 0.276009 0.796714
O O6 0.332156 0.500000 0.798703
O O7 0.253156 0.274519 0.848641
O O8 0.500000 0.800287 0.609829
O O9 0.284823 0.758848 0.549801
O O10 0.304073 0.000000 0.602887
O O11 0.244405 0.278958 0.949866
O O12 0.304738 0.500000 0.006833
O O13 0.500000 0.305109 0.491454
O O14 0.500000 0.169674 0.102272
O O15 0.722638 0.000000 0.103491
#
# Coordination Sequence:
#
# PCOD9556860 Si02
#       6
#     8   8   8   4   4   8
#     4  10  20  33  51  76 105 137 173 212 254 302
#     4   9  16  27  46  72 100 129 163 206 254 300
#     4  10  21  36  54  77 105 136 170 209 254 304
#     4   9  16  26  42  65  92 122 156 193 236 288
#     4   9  18  34  56  79 104 136 174 215 256 299
#     4   9  16  26  42  66  96 126 157 198 246 293
#
# _framework density 17.696175
#
# number of rings (size 3 to 8) (size 9 to 14) (size 15 to 20)
#    0.000    2.600    0.000    2.400    0.000    8.000 
#    0.000    2.000    0.000    1.500    0.000    2.800 
#    0.000    0.000    0.000    0.000    0.000    0.000 
#
# Total GULP energy -223149.687645 kJ/mol
# GULP energy per Si atom -5578.742191 kJ/mol
# Density = 1.765590 g / cm^3
# Si number density = 17.696175 Si / 1000 Ang^3
#
#
#
# Elastic Constant Matrix: (Units=GPa)
#
#
# Indices 1 2 3 4 5 6 
#
# 1 67.8781 54.6638 91.3164 0.0000 0.0000 0.0000
# 2 54.6638 67.8783 91.3163 0.0000 0.0000 0.0000
# 3 91.3164 91.3163 227.8684 0.0000 0.0000 0.0000
# 4 0.0000 0.0000 0.0000 -8.3567 0.0000 0.0000
# 5 0.0000 0.0000 0.0000 0.0000 -8.3563 0.0000
# 6 0.0000 0.0000 0.0000 0.0000 0.0000 14.3952
#
#
#
# Elastic Compliance Matrix: (Units=1/GPa)
#
#
# Indices 1 2 3 4 5 6 
#
# 1 0.047969 -0.027706 -0.008120 0.000000 0.000000 0.000000
# 2 -0.027706 0.047968 -0.008120 0.000000 0.000000 0.000000
# 3 -0.008120 -0.008120 0.010896 0.000000 0.000000 0.000000
# 4 0.000000 0.000000 0.000000 -0.119664 0.000000 0.000000
# 5 0.000000 0.000000 0.000000 0.000000 -0.119670 0.000000
# 6 0.000000 0.000000 0.000000 0.000000 0.000000 0.069468
#
#
# Mechanical properties :
#
#
# Convention : Reuss Voigt Hill
#
# Bulk Modulus (GPa) = 52.79529 93.13534 72.96531
# Shear Modulus (GPa) = 160.39400 7.95831 84.17615
#
# Velocity S-wave (km/s) = 9.53071 2.12296 6.90440
# Velocity P-wave (km/s) = 12.28868 7.66510 10.24122
#
# Compressibility (1/GPa) = 0.01894108
#
# Stress axis : x y z
#
# Youngs Moduli (GPa) = 20.84692 20.84712 91.77338
#
# Poissons Ratio (x) = 0.57760 0.74519
# Poissons Ratio (y) = 0.57760 0.74517
# Poissons Ratio (z) = 0.16928 0.16927
#
# Static dielectric constant tensor:
#      x y z
#    x 1.586840 0.000000 0.000000 
#    y 0.000000 1.586840 0.000000 
#    z 0.000000 0.000000 1.577070 
# 
# From -- ./inp_files/5511.got.cif
#   From: 2010.05.17/outbox.cif.g08.bks.cpg/sg115_3_cif.got.tgz:5511.got - 2010.05.20 11:07:42.
