data_PCOD9556348
_publ_section_title
;
Structure prediction by ZEFSAII (Michael W. Deem and Ramdas Pophale) SiO2 
 PCOD9556348
Probable space group: P -4 21 C
;
_chemical_formula_sum "Si O2"
_cell_formula_units_Z 48
_cell_length_a 8.614806
_cell_length_b 8.614806
_cell_length_c 30.638096
_cell_angle_alpha 90.000000
_cell_angle_beta 90.000000
_cell_angle_gamma 90.000000
_cell_volume 2273.802692
_symmetry_space_group_name_H-M "P -4 21 C"
_symmetry_group_IT_number 114
_symmetry_cell_setting 'tetragonal'
loop_
_space_group_symop_operation_xyz
x,y,z
y,-x,-z
-x,-y,z
-y,x,-z
1/2+x,1/2-y,1/2-z
1/2-x,1/2+y,1/2-z
1/2-y,1/2-x,1/2+z
1/2+y,1/2+x,1/2+z
loop_
_atom_site_type_symbol
_atom_site_label
_atom_site_fract_x
_atom_site_fract_y
_atom_site_fract_z
Si Si1 0.840860 0.579177 0.862164
Si Si2 0.154930 0.716461 0.699264
Si Si3 0.892787 0.755575 0.455373
Si Si4 0.238048 0.906830 0.450664
Si Si5 0.336782 0.416634 0.713048
Si Si6 0.731509 0.661054 0.145387
O O1 0.789178 0.721706 0.832859
O O2 0.851553 0.622809 0.913240
O O3 0.702756 0.450828 0.858308
O O4 0.000000 0.500000 0.847920
O O5 0.199653 0.543848 0.713550
O O6 0.157480 0.821086 0.742308
O O7 0.994920 0.737522 0.672875
O O8 0.867783 0.681857 0.503164
O O9 0.067545 0.827384 0.455887
O O10 0.786336 0.907620 0.448234
O O11 0.297977 0.853817 0.403621
O O12 0.500000 0.500000 0.708420
O O13 0.299024 0.308165 0.672300
#
# Coordination Sequence:
#
# PCOD9556348 Si02
#       6
#     8   8   8   8   8   8
#     4  11  21  35  59  91 123 157 196 250 308 359
#     4  12  24  42  63  86 117 161 203 250 304 369
#     4   8  14  28  54  89 120 152 193 247 296 340
#     4   8  14  29  57  87 117 152 198 247 288 350
#     4  12  26  42  61  89 121 155 201 257 310 369
#     4  11  22  40  64  89 119 160 205 251 303 365
#
# _framework density 21.110014
#
# number of rings (size 3 to 8) (size 9 to 14) (size 15 to 20)
#    0.000    1.667    1.667    6.000    0.000    1.333 
#    0.000    1.667    0.000    0.000    0.000    0.000 
#    0.000    0.000    0.000    0.000    0.000    0.000 
#
# Total GULP energy -268162.432838 kJ/mol
# GULP energy per Si atom -5586.717351 kJ/mol
# Density = 2.106197 g / cm^3
# Si number density = 21.110014 Si / 1000 Ang^3
#
#
#
# Elastic Constant Matrix: (Units=GPa)
#
#
# Indices 1 2 3 4 5 6 
#
# 1 39.5592 2.7790 33.2867 0.0000 0.0000 0.0000
# 2 2.7790 39.5592 33.2867 0.0000 0.0000 0.0000
# 3 33.2867 33.2867 182.8095 0.0000 0.0000 0.0000
# 4 0.0000 0.0000 0.0000 9.0936 0.0000 0.0000
# 5 0.0000 0.0000 0.0000 0.0000 9.0936 0.0000
# 6 0.0000 0.0000 0.0000 0.0000 0.0000 26.0830
#
#
#
# Elastic Compliance Matrix: (Units=1/GPa)
#
#
# Indices 1 2 3 4 5 6 
#
# 1 0.030142 0.002953 -0.006026 0.000000 0.000000 0.000000
# 2 0.002953 0.030142 -0.006026 0.000000 0.000000 0.000000
# 3 -0.006026 -0.006026 0.007665 0.000000 0.000000 0.000000
# 4 0.000000 0.000000 0.000000 0.109967 0.000000 0.000000
# 5 0.000000 0.000000 0.000000 0.000000 0.109967 0.000000
# 6 0.000000 0.000000 0.000000 0.000000 0.000000 0.038339
#
#
# Mechanical properties :
#
#
# Convention : Reuss Voigt Hill
#
# Bulk Modulus (GPa) = 20.10042 44.51475 32.30758
# Shear Modulus (GPa) = 13.85031 21.69240 17.77136
#
# Velocity S-wave (km/s) = 2.56423 3.20908 2.90460
# Velocity P-wave (km/s) = 4.27895 5.90455 5.15622
#
# Compressibility (1/GPa) = 0.04975021
#
# Stress axis : x y z
#
# Youngs Moduli (GPa) = 33.17662 33.17662 130.46860
#
# Poissons Ratio (x) = -0.09798 0.78621
# Poissons Ratio (y) = -0.09798 0.78621
# Poissons Ratio (z) = 0.19992 0.19992
#
# Static dielectric constant tensor:
#      x y z
#    x 1.784190 0.000000 0.000000 
#    y 0.000000 1.784190 0.000000 
#    z 0.000000 0.000000 1.788730 
# 
# From -- ./inp_files/3927.got.cif
#   From: 2010.05.17/outbox.cif.g08.bks.cpg/sg114_2_cif.got.tgz:3927.got - 2010.05.20 11:04:54.
