data_PCOD9556492
_publ_section_title
;
Structure prediction by ZEFSAII (Michael W. Deem and Ramdas Pophale) SiO2 
 PCOD9556492
Probable space group: P -4 21 C
;
_chemical_formula_sum "Si O2"
_cell_formula_units_Z 34
_cell_length_a 8.930589
_cell_length_b 8.930589
_cell_length_c 18.701429
_cell_angle_alpha 90.000000
_cell_angle_beta 90.000000
_cell_angle_gamma 90.000000
_cell_volume 1491.540322
_symmetry_space_group_name_H-M "P -4 21 C"
_symmetry_group_IT_number 114
_symmetry_cell_setting 'tetragonal'
loop_
_space_group_symop_operation_xyz
x,y,z
y,-x,-z
-x,-y,z
-y,x,-z
1/2+x,1/2-y,1/2-z
1/2-x,1/2+y,1/2-z
1/2-y,1/2-x,1/2+z
1/2+y,1/2+x,1/2+z
loop_
_atom_site_type_symbol
_atom_site_label
_atom_site_fract_x
_atom_site_fract_y
_atom_site_fract_z
Si Si1 0.703011 0.020454 0.578615
Si Si2 0.000000 0.000000 0.171638
Si Si3 0.157673 0.585767 0.292665
Si Si4 0.835989 0.268322 0.145387
Si Si5 0.500000 0.000000 0.951203
Si Si6 0.000000 0.000000 0.500000
O O1 0.724482 0.167266 0.626665
O O2 0.609105 0.075284 0.509875
O O3 0.860167 0.964646 0.549482
O O4 0.635498 0.887365 0.627130
O O5 0.833330 0.970626 0.208104
O O6 0.040814 0.855212 0.126440
O O7 0.157060 0.708119 0.230317
O O8 0.000000 0.500000 0.272853
O O9 0.888333 0.410004 0.099902
#
# Coordination Sequence:
#
# PCOD9556492 Si02
#       6
#     8   4   8   8   4   2
#     4  12  26  51  74 111 161 205 265 336 398 481
#     4  12  28  45  79 116 150 210 256 332 414 463
#     4  12  26  51  76 113 159 201 269 337 393 491
#     4  12  27  48  77 113 154 211 261 330 394 489
#     4  12  26  46  76 108 160 202 264 320 396 480
#     4  12  28  46  80 112 146 220 254 320 416 474
#
# _framework density 22.795228000000002
#
# number of rings (size 3 to 8) (size 9 to 14) (size 15 to 20)
#    0.000    0.000    7.059    1.412    3.294    5.647 
#    0.000    1.176    0.000    0.000    0.000    0.000 
#    0.000    0.000    0.000    0.000    0.000    0.000 
#
# Total GULP energy -189284.340506 kJ/mol
# GULP energy per Si atom -5567.186485 kJ/mol
# Density = 2.274334 g / cm^3
# Si number density = 22.795228 Si / 1000 Ang^3
#
#
#
# Elastic Constant Matrix: (Units=GPa)
#
#
# Indices 1 2 3 4 5 6 
#
# 1 123.6955 34.7518 29.9157 0.0000 0.0000 0.0000
# 2 34.7518 123.6955 29.9157 0.0000 0.0000 0.0000
# 3 29.9157 29.9157 71.4383 0.0000 0.0000 0.0000
# 4 0.0000 0.0000 0.0000 38.6001 0.0000 0.0000
# 5 0.0000 0.0000 0.0000 0.0000 38.6001 0.0000
# 6 0.0000 0.0000 0.0000 0.0000 0.0000 30.8511
#
#
#
# Elastic Compliance Matrix: (Units=1/GPa)
#
#
# Indices 1 2 3 4 5 6 
#
# 1 0.009370 -0.001873 -0.003139 0.000000 0.000000 0.000000
# 2 -0.001873 0.009370 -0.003139 0.000000 0.000000 0.000000
# 3 -0.003139 -0.003139 0.016627 0.000000 0.000000 0.000000
# 4 0.000000 0.000000 0.000000 0.025907 0.000000 0.000000
# 5 0.000000 0.000000 0.000000 0.000000 0.025907 0.000000
# 6 0.000000 0.000000 0.000000 0.000000 0.000000 0.032414
#
#
# Mechanical properties :
#
#
# Convention : Reuss Voigt Hill
#
# Bulk Modulus (GPa) = 52.45654 56.44400 54.45027
# Shear Modulus (GPa) = 35.14877 36.55999 35.85438
#
# Velocity S-wave (km/s) = 3.93101 4.00915 3.97027
# Velocity P-wave (km/s) = 6.60801 6.80045 6.70492
#
# Compressibility (1/GPa) = 0.01906340
#
# Stress axis : x y z
#
# Youngs Moduli (GPa) = 106.72496 106.72496 60.14179
#
# Poissons Ratio (x) = 0.19992 0.18881
# Poissons Ratio (y) = 0.19992 0.18881
# Poissons Ratio (z) = 0.33505 0.33505
#
# Static dielectric constant tensor:
#      x y z
#    x 2.038780 0.000000 0.000000 
#    y 0.000000 2.038780 0.000000 
#    z 0.000000 0.000000 1.782140 
# 
# From -- ./inp_files/3004.got.cif
#   From: 2010.05.17/outbox.cif.g08.bks.cpg/sg114_2_cif.got.tgz:3004.got - 2010.05.20 11:04:54.
