data_PCOD9556656
_publ_section_title
;
Structure prediction by ZEFSAII (Michael W. Deem and Ramdas Pophale) SiO2 
 PCOD9556656
Probable space group: P -4 M 2
;
_chemical_formula_sum "Si O2"
_cell_formula_units_Z 64
_cell_length_a 20.480056
_cell_length_b 20.480056
_cell_length_c 8.055212
_cell_angle_alpha 90.000000
_cell_angle_beta 90.000000
_cell_angle_gamma 90.000000
_cell_volume 3378.619268
_symmetry_space_group_name_H-M "P -4 M 2"
_symmetry_group_IT_number 115
_symmetry_cell_setting 'tetragonal'
loop_
_space_group_symop_operation_xyz
x,y,z
y,-x,-z
-x,-y,z
-y,x,-z
y,x,-z
-y,-x,-z
-x,y,z
x,-y,z
loop_
_atom_site_type_symbol
_atom_site_label
_atom_site_fract_x
_atom_site_fract_y
_atom_site_fract_z
Si Si1 0.150640 0.318055 0.721345
Si Si2 0.752090 0.213400 0.692896
Si Si3 0.242815 0.396207 0.243429
Si Si4 0.073737 0.427751 0.900604
Si Si5 0.905889 0.429970 0.288497
Si Si6 0.926716 0.714689 0.411279
Si Si7 0.576343 0.252037 0.406286
Si Si8 0.675214 0.573685 0.930685
O O1 0.194539 0.258042 0.786609
O O2 0.117632 0.366715 0.850763
O O3 0.096566 0.285811 0.602197
O O4 0.195243 0.369151 0.614288
O O5 0.765056 0.234945 0.500000
O O6 0.681672 0.235972 0.755874
O O7 0.748841 0.133976 0.687318
O O8 0.172151 0.426329 0.278506
O O9 0.282194 0.415154 0.410215
O O10 0.267878 0.421202 0.068121
O O11 0.098267 0.500000 0.847034
O O12 0.000000 0.419812 0.834834
O O13 0.070917 0.429433 0.099022
O O14 0.924478 0.500000 0.365996
O O15 0.927780 0.362547 0.368670
O O16 0.000000 0.740732 0.385125
O O17 0.500000 0.231855 0.388025
O O18 0.591208 0.298961 0.251469
O O19 0.651227 0.500000 0.924026
O O20 0.621384 0.621384 0.000000
#
# Coordination Sequence:
#
# PCOD9556656 Si02
#       8
#     8   8   8   8   8   8   8   8
#     4  11  19  33  53  73 104 137 180 222 277 327
#     4   9  18  34  54  76 101 140 175 226 280 330
#     4  11  20  36  58  79 108 137 176 228 288 339
#     4  10  21  34  48  72 109 148 183 224 270 322
#     4  10  19  33  51  72 104 145 180 211 259 326
#     4  10  20  32  49  73 101 134 177 217 261 326
#     4  11  21  35  56  83 110 136 177 232 285 341
#     4  11  25  38  55  79 101 136 183 229 289 352
#
# _framework density 18.94265
#
# number of rings (size 3 to 8) (size 9 to 14) (size 15 to 20)
#    0.000    1.625    3.750    3.750    0.000    3.375 
#    0.000    1.875    0.000    0.000    0.000    1.750 
#    0.000   29.750    0.000    0.000    0.000   58.000 
#
# Total GULP energy -356977.940172 kJ/mol
# GULP energy per Si atom -5577.780315 kJ/mol
# Density = 1.889954 g / cm^3
# Si number density = 18.942650 Si / 1000 Ang^3
#
#
#
# Elastic Constant Matrix: (Units=GPa)
#
#
# Indices 1 2 3 4 5 6 
#
# 1 98.6801 50.9955 16.4507 0.0000 0.0000 0.0000
# 2 50.9955 98.6796 16.4506 0.0000 0.0000 0.0000
# 3 16.4507 16.4506 51.8689 0.0000 0.0000 0.0000
# 4 0.0000 0.0000 0.0000 13.8748 0.0000 0.0000
# 5 0.0000 0.0000 0.0000 0.0000 13.8748 0.0000
# 6 0.0000 0.0000 0.0000 0.0000 0.0000 3.0541
#
#
#
# Elastic Compliance Matrix: (Units=1/GPa)
#
#
# Indices 1 2 3 4 5 6 
#
# 1 0.014077 -0.006895 -0.002278 0.000000 0.000000 0.000000
# 2 -0.006895 0.014077 -0.002278 0.000000 0.000000 0.000000
# 3 -0.002278 -0.002278 0.020724 0.000000 0.000000 0.000000
# 4 0.000000 0.000000 0.000000 0.072073 0.000000 0.000000
# 5 0.000000 0.000000 0.000000 0.000000 0.072073 0.000000
# 6 0.000000 0.000000 0.000000 0.000000 0.000000 0.327430
#
#
# Mechanical properties :
#
#
# Convention : Reuss Voigt Hill
#
# Bulk Modulus (GPa) = 38.49595 46.33579 42.41587
# Shear Modulus (GPa) = 9.05776 17.18285 13.12031
#
# Velocity S-wave (km/s) = 2.18908 3.01508 2.63465
# Velocity P-wave (km/s) = 5.17261 6.05269 5.62988
#
# Compressibility (1/GPa) = 0.02597676
#
# Stress axis : x y z
#
# Youngs Moduli (GPa) = 71.04035 71.04003 48.25274
#
# Poissons Ratio (x) = 0.48980 0.10991
# Poissons Ratio (y) = 0.48980 0.10991
# Poissons Ratio (z) = 0.16182 0.16181
#
# Static dielectric constant tensor:
#      x y z
#    x 1.692530 0.000000 0.000000 
#    y 0.000000 1.692530 0.000000 
#    z 0.000000 0.000000 1.720010 
# 
# From -- ./inp_files/2166.got.cif
#   From: 2010.05.17/outbox.cif.g08.bks.cpg/sg115_2_cif.got.tgz:2166.got - 2010.05.20 11:07:42.
