data_PCOD9556933
_publ_section_title
;
Structure prediction by ZEFSAII (Michael W. Deem and Ramdas Pophale) SiO2 
 PCOD9556933
Probable space group: P -4 M 2
;
_chemical_formula_sum "Si O2"
_cell_formula_units_Z 44
_cell_length_a 9.243836
_cell_length_b 9.243836
_cell_length_c 29.461361
_cell_angle_alpha 90.000000
_cell_angle_beta 90.000000
_cell_angle_gamma 90.000000
_cell_volume 2517.429223
_symmetry_space_group_name_H-M "P -4 M 2"
_symmetry_group_IT_number 115
_symmetry_cell_setting 'tetragonal'
loop_
_space_group_symop_operation_xyz
x,y,z
y,-x,-z
-x,-y,z
-y,x,-z
y,x,-z
-y,-x,-z
-x,y,z
x,-y,z
loop_
_atom_site_type_symbol
_atom_site_label
_atom_site_fract_x
_atom_site_fract_y
_atom_site_fract_z
Si Si1 0.671807 0.827026 0.225133
Si Si2 0.173376 0.328583 0.958282
Si Si3 0.676280 0.666547 0.316789
Si Si4 0.828786 0.326879 0.592186
Si Si5 0.166359 0.176075 0.133791
Si Si6 0.172065 0.827936 0.500000
O O1 0.500000 0.800754 0.218736
O O2 0.721006 0.748713 0.271052
O O3 0.757085 0.778105 0.180413
O O4 0.690246 0.000000 0.230455
O O5 0.199591 0.500000 0.956679
O O6 0.219185 0.254499 0.910965
O O7 0.000000 0.306273 0.963505
O O8 0.255062 0.255062 0.000000
O O9 0.500000 0.670966 0.317040
O O10 0.721267 0.500000 0.316075
O O11 0.723283 0.744984 0.362966
O O12 0.811115 0.500000 0.587944
O O13 0.779572 0.251826 0.545746
O O14 0.000000 0.297756 0.598003
O O15 0.000000 0.223495 0.131409
O O16 0.167461 0.000000 0.134332
O O17 0.000000 0.803863 0.494983
#
# Coordination Sequence:
#
# PCOD9556933 Si02
#       6
#     8   8   8   8   8   4
#     4   9  16  28  48  71  94 123 160 198 234 277
#     4  10  20  34  53  77 104 134 169 208 250 296
#     4   9  17  29  46  69  95 122 154 192 233 277
#     4   9  17  30  48  68  90 119 155 191 227 272
#     4   9  17  30  50  75 100 127 162 203 244 287
#     4   9  18  32  48  67  92 120 150 187 232 278
#
# _framework density 17.478147
#
# number of rings (size 3 to 8) (size 9 to 14) (size 15 to 20)
#    0.000    2.818    0.000    1.636    0.000    6.182 
#    0.000    1.818    0.000    9.273    0.000    0.000 
#    0.000    0.000    0.000    0.000    0.000    0.000 
#
# Total GULP energy -245316.763294 kJ/mol
# GULP energy per Si atom -5575.380984 kJ/mol
# Density = 1.743837 g / cm^3
# Si number density = 17.478147 Si / 1000 Ang^3
#
#
#
# Elastic Constant Matrix: (Units=GPa)
#
#
# Indices 1 2 3 4 5 6 
#
# 1 51.9586 44.9007 79.6560 0.0000 0.0000 0.0000
# 2 44.9007 51.9589 79.6559 0.0000 0.0000 0.0000
# 3 79.6560 79.6559 230.7978 0.0000 0.0000 0.0000
# 4 0.0000 0.0000 0.0000 44.9217 0.0000 0.0000
# 5 0.0000 0.0000 0.0000 0.0000 44.9245 0.0000
# 6 0.0000 0.0000 0.0000 0.0000 0.0000 13.3800
#
#
#
# Elastic Compliance Matrix: (Units=1/GPa)
#
#
# Indices 1 2 3 4 5 6 
#
# 1 0.082781 -0.058901 -0.008242 0.000000 0.000000 0.000000
# 2 -0.058901 0.082780 -0.008242 0.000000 0.000000 0.000000
# 3 -0.008242 -0.008242 0.010022 0.000000 0.000000 0.000000
# 4 0.000000 0.000000 0.000000 0.022261 0.000000 0.000000
# 5 0.000000 0.000000 0.000000 0.000000 0.022260 0.000000
# 6 0.000000 0.000000 0.000000 0.000000 0.000000 0.074738
#
#
# Mechanical properties :
#
#
# Convention : Reuss Voigt Hill
#
# Bulk Modulus (GPa) = 40.29834 82.57116 61.43475
# Shear Modulus (GPa) = 11.01605 29.34543 20.18074
#
# Velocity S-wave (km/s) = 2.51325 4.10198 3.40167
# Velocity P-wave (km/s) = 5.61501 8.35345 7.11718
#
# Compressibility (1/GPa) = 0.02481492
#
# Stress axis : x y z
#
# Youngs Moduli (GPa) = 12.08000 12.08015 99.78174
#
# Poissons Ratio (x) = 0.71153 0.82241
# Poissons Ratio (y) = 0.71152 0.82237
# Poissons Ratio (z) = 0.09956 0.09956
#
# Static dielectric constant tensor:
#      x y z
#    x 1.585910 0.000000 0.000000 
#    y 0.000000 1.585910 0.000000 
#    z 0.000000 0.000000 1.575100 
# 
# From -- ./inp_files/5720.got.cif
#   From: 2010.05.17/outbox.cif.g08.bks.cpg/sg115_3_cif.got.tgz:5720.got - 2010.05.20 11:07:42.
