data_PCOD9556018
_publ_section_title
;
Structure prediction by ZEFSAII (Michael W. Deem and Ramdas Pophale) SiO2 
 PCOD9556018
Probable space group: P -4 21 C
;
_chemical_formula_sum "Si O2"
_cell_formula_units_Z 38
_cell_length_a 8.896648
_cell_length_b 8.896648
_cell_length_c 21.027052
_cell_angle_alpha 90.000000
_cell_angle_beta 90.000000
_cell_angle_gamma 90.000000
_cell_volume 1664.298434
_symmetry_space_group_name_H-M "P -4 21 C"
_symmetry_group_IT_number 114
_symmetry_cell_setting 'tetragonal'
loop_
_space_group_symop_operation_xyz
x,y,z
y,-x,-z
-x,-y,z
-y,x,-z
1/2+x,1/2-y,1/2-z
1/2-x,1/2+y,1/2-z
1/2-y,1/2-x,1/2+z
1/2+y,1/2+x,1/2+z
loop_
_atom_site_type_symbol
_atom_site_label
_atom_site_fract_x
_atom_site_fract_y
_atom_site_fract_z
Si Si1 0.279732 0.049780 0.063625
Si Si2 0.500000 0.500000 0.000000
Si Si3 0.550054 0.841939 0.187906
Si Si4 0.745744 0.287267 0.691330
Si Si5 0.810934 0.263037 0.560227
Si Si6 0.500000 0.500000 0.367285
O O1 0.382073 0.120451 0.119171
O O2 0.109553 0.091262 0.085336
O O3 0.282474 0.867630 0.062156
O O4 0.324085 0.118803 0.996741
O O5 0.378434 0.587222 0.042595
O O6 0.670395 0.779717 0.236802
O O7 0.393156 0.755591 0.185739
O O8 0.500000 0.000000 0.217485
O O9 0.847356 0.328836 0.630029
O O10 0.595069 0.383678 0.674980
#
# Coordination Sequence:
#
# PCOD9556018 Si02
#       6
#     8   2   8   8   8   4
#     4  11  23  45  78 102 143 182 240 295 361 425
#     4  12  28  44  66 100 150 180 228 290 376 408
#     4  12  24  47  68 100 142 190 227 298 351 418
#     4  11  25  44  71 102 138 184 241 285 361 418
#     4  11  24  47  70 107 136 184 233 294 353 429
#     4  10  20  43  73 110 131 179 236 302 352 431
#
# _framework density 22.832443000000001
#
# number of rings (size 3 to 8) (size 9 to 14) (size 15 to 20)
#    0.000    0.842    4.211    5.053    0.000    0.842 
#   15.158    1.053    0.000    0.000    0.000    0.000 
#    0.000    0.000    0.000    0.000    0.000    0.000 
#
# Total GULP energy -212160.032230 kJ/mol
# GULP energy per Si atom -5583.158743 kJ/mol
# Density = 2.278048 g / cm^3
# Si number density = 22.832443 Si / 1000 Ang^3
#
#
#
# Elastic Constant Matrix: (Units=GPa)
#
#
# Indices 1 2 3 4 5 6 
#
# 1 61.6126 -7.7058 13.2759 0.0000 0.0000 0.0000
# 2 -7.7058 61.6126 13.2759 0.0000 0.0000 0.0000
# 3 13.2759 13.2759 116.9156 0.0000 0.0000 0.0000
# 4 0.0000 0.0000 0.0000 18.7902 0.0000 0.0000
# 5 0.0000 0.0000 0.0000 0.0000 18.7902 0.0000
# 6 0.0000 0.0000 0.0000 0.0000 0.0000 36.4385
#
#
#
# Elastic Compliance Matrix: (Units=1/GPa)
#
#
# Indices 1 2 3 4 5 6 
#
# 1 0.017038 0.002612 -0.002231 0.000000 0.000000 0.000000
# 2 0.002612 0.017038 -0.002231 0.000000 0.000000 0.000000
# 3 -0.002231 -0.002231 0.009060 0.000000 0.000000 0.000000
# 4 0.000000 0.000000 0.000000 0.053219 0.000000 0.000000
# 5 0.000000 0.000000 0.000000 0.000000 0.053219 0.000000
# 6 0.000000 0.000000 0.000000 0.000000 0.000000 0.027443
#
#
# Mechanical properties :
#
#
# Convention : Reuss Voigt Hill
#
# Bulk Modulus (GPa) = 25.35878 30.87030 28.11454
# Shear Modulus (GPa) = 25.79133 29.55679 27.67406
#
# Velocity S-wave (km/s) = 3.36459 3.60183 3.48523
# Velocity P-wave (km/s) = 5.12099 5.55403 5.34190
#
# Compressibility (1/GPa) = 0.03943407
#
# Stress axis : x y z
#
# Youngs Moduli (GPa) = 58.69281 58.69281 110.37652
#
# Poissons Ratio (x) = -0.15329 0.24628
# Poissons Ratio (y) = -0.15329 0.24628
# Poissons Ratio (z) = 0.13096 0.13096
#
# Static dielectric constant tensor:
#      x y z
#    x 1.845930 0.000000 0.000000 
#    y 0.000000 1.845930 0.000000 
#    z 0.000000 0.000000 1.865650 
# 
# From -- ./inp_files/3436.got.cif
#   From: 2010.05.17/outbox.cif.g08.bks.cpg/sg114_2_cif.got.tgz:3436.got - 2010.05.20 11:04:54.
