data_PCOD9556341
_publ_section_title
;
Structure prediction by ZEFSAII (Michael W. Deem and Ramdas Pophale) SiO2 
 PCOD9556341
Probable space group: P -4 21 C
;
_chemical_formula_sum "Si O2"
_cell_formula_units_Z 48
_cell_length_a 15.041384
_cell_length_b 15.041384
_cell_length_c 8.782529
_cell_angle_alpha 90.000000
_cell_angle_beta 90.000000
_cell_angle_gamma 90.000000
_cell_volume 1986.987752
_symmetry_space_group_name_H-M "P -4 21 C"
_symmetry_group_IT_number 114
_symmetry_cell_setting 'tetragonal'
loop_
_space_group_symop_operation_xyz
x,y,z
y,-x,-z
-x,-y,z
-y,x,-z
1/2+x,1/2-y,1/2-z
1/2-x,1/2+y,1/2-z
1/2-y,1/2-x,1/2+z
1/2+y,1/2+x,1/2+z
loop_
_atom_site_type_symbol
_atom_site_label
_atom_site_fract_x
_atom_site_fract_y
_atom_site_fract_z
Si Si1 0.443976 0.417005 0.748883
Si Si2 0.152469 0.334272 0.102495
Si Si3 0.193286 0.986430 0.000111
Si Si4 0.519940 0.901378 0.034876
Si Si5 0.313988 0.108968 0.818342
Si Si6 0.212401 0.812728 0.627415
O O1 0.500000 0.500000 0.806234
O O2 0.387186 0.450653 0.602674
O O3 0.501138 0.338832 0.671979
O O4 0.372637 0.375453 0.861238
O O5 0.131810 0.435910 0.064081
O O6 0.249945 0.310631 0.041016
O O7 0.147745 0.293743 0.271389
O O8 0.082945 0.273242 0.010740
O O9 0.229370 0.074072 0.913719
O O10 0.555736 0.831868 0.161886
O O11 0.500000 0.000000 0.101881
O O12 0.601349 0.914020 0.920913
O O13 0.310792 0.215415 0.809427
#
# Coordination Sequence:
#
# PCOD9556341 Si02
#       6
#     8   8   8   8   8   8
#     4  11  21  39  67 102 131 180 236 286 340 411
#     4  11  25  44  67 102 139 181 228 291 353 414
#     4  11  20  40  68 100 136 175 235 288 339 414
#     4  12  25  42  69 101 141 181 224 279 349 423
#     4  12  25  44  70 103 141 184 233 287 353 421
#     4  11  26  44  69 103 137 180 233 291 349 408
#
# _framework density 24.157171000000002
#
# number of rings (size 3 to 8) (size 9 to 14) (size 15 to 20)
#    0.000    0.667    3.333    6.500    2.333    0.000 
#    0.000    0.000    0.000    0.000    4.333    0.000 
#    0.000    0.000    0.000    0.000    0.000    0.000 
#
# Total GULP energy -268770.857510 kJ/mol
# GULP energy per Si atom -5599.392865 kJ/mol
# Density = 2.410219 g / cm^3
# Si number density = 24.157171 Si / 1000 Ang^3
#
#
#
# Elastic Constant Matrix: (Units=GPa)
#
#
# Indices 1 2 3 4 5 6 
#
# 1 86.1167 24.6962 5.8786 0.0000 0.0000 0.0000
# 2 24.6962 86.1167 5.8786 0.0000 0.0000 0.0000
# 3 5.8786 5.8786 35.3427 0.0000 0.0000 0.0000
# 4 0.0000 0.0000 0.0000 19.3707 0.0000 0.0000
# 5 0.0000 0.0000 0.0000 0.0000 19.3707 0.0000
# 6 0.0000 0.0000 0.0000 0.0000 0.0000 42.4551
#
#
#
# Elastic Compliance Matrix: (Units=1/GPa)
#
#
# Indices 1 2 3 4 5 6 
#
# 1 0.012734 -0.003547 -0.001528 0.000000 0.000000 0.000000
# 2 -0.003547 0.012734 -0.001528 0.000000 0.000000 0.000000
# 3 -0.001528 -0.001528 0.028803 0.000000 0.000000 0.000000
# 4 0.000000 0.000000 0.000000 0.051624 0.000000 0.000000
# 5 0.000000 0.000000 0.000000 0.000000 0.051624 0.000000
# 6 0.000000 0.000000 0.000000 0.000000 0.000000 0.023554
#
#
# Mechanical properties :
#
#
# Convention : Reuss Voigt Hill
#
# Bulk Modulus (GPa) = 24.35257 31.16478 27.75868
# Shear Modulus (GPa) = 24.04218 27.64748 25.84483
#
# Velocity S-wave (km/s) = 3.15816 3.38669 3.27442
# Velocity P-wave (km/s) = 4.83750 5.31242 5.08051
#
# Compressibility (1/GPa) = 0.04106342
#
# Stress axis : x y z
#
# Youngs Moduli (GPa) = 78.53129 78.53129 34.71901
#
# Poissons Ratio (x) = 0.27859 0.05305
# Poissons Ratio (y) = 0.27859 0.05305
# Poissons Ratio (z) = 0.11999 0.11999
#
# Static dielectric constant tensor:
#      x y z
#    x 1.952000 0.000000 0.000000 
#    y 0.000000 1.952000 0.000000 
#    z 0.000000 0.000000 1.911050 
# 
# From -- ./inp_files/1649.got.cif
#   From: 2010.05.17/outbox.cif.g08.bks.cpg/sg114_1_cif.got.tgz:1649.got - 2010.05.20 11:04:54.
