data_PCOD9556384
_publ_section_title
;
Structure prediction by ZEFSAII (Michael W. Deem and Ramdas Pophale) SiO2 
 PCOD9556384
Probable space group: P -4 21 C
;
_chemical_formula_sum "Si O2"
_cell_formula_units_Z 36
_cell_length_a 8.770476
_cell_length_b 8.770476
_cell_length_c 19.648561
_cell_angle_alpha 90.000000
_cell_angle_beta 90.000000
_cell_angle_gamma 90.000000
_cell_volume 1511.391858
_symmetry_space_group_name_H-M "P -4 21 C"
_symmetry_group_IT_number 114
_symmetry_cell_setting 'tetragonal'
loop_
_space_group_symop_operation_xyz
x,y,z
y,-x,-z
-x,-y,z
-y,x,-z
1/2+x,1/2-y,1/2-z
1/2-x,1/2+y,1/2-z
1/2-y,1/2-x,1/2+z
1/2+y,1/2+x,1/2+z
loop_
_atom_site_type_symbol
_atom_site_label
_atom_site_fract_x
_atom_site_fract_y
_atom_site_fract_z
Si Si1 0.241838 0.027625 0.510347
Si Si2 0.703862 0.423013 0.539463
Si Si3 0.557321 0.710847 0.302942
Si Si4 0.567334 0.748101 0.730322
Si Si5 0.500000 0.000000 0.618284
O O1 0.358547 0.126882 0.466252
O O2 0.108205 0.151171 0.526527
O O3 0.346150 0.976097 0.573764
O O4 0.584275 0.318072 0.498183
O O5 0.665394 0.432881 0.618317
O O6 0.650322 0.585129 0.259551
O O7 0.381991 0.694718 0.282354
O O8 0.639094 0.870026 0.287816
O O9 0.535465 0.854744 0.665199
#
# Coordination Sequence:
#
# PCOD9556384 Si02
#       5
#     8   8   8   8   4
#     4  11  24  40  64  99 136 179 237 306 365 421
#     4  11  22  43  73 103 141 189 241 289 347 433
#     4  11  24  43  69 105 141 190 237 287 358 424
#     4  11  24  43  68  97 139 182 235 290 350 438
#     4  12  24  46  70  96 142 196 240 298 376 446
#
# _framework density 23.819103999999999
#
# number of rings (size 3 to 8) (size 9 to 14) (size 15 to 20)
#    0.000    0.889    0.000    9.333    0.000    1.778 
#    0.000   10.000    0.000    0.000    0.000    0.000 
#    0.000    0.000    0.000    0.000    0.000    0.000 
#
# Total GULP energy -201295.672651 kJ/mol
# GULP energy per Si atom -5591.546463 kJ/mol
# Density = 2.376489 g / cm^3
# Si number density = 23.819104 Si / 1000 Ang^3
#
#
#
# Elastic Constant Matrix: (Units=GPa)
#
#
# Indices 1 2 3 4 5 6 
#
# 1 130.2172 63.0329 49.7313 0.0000 0.0000 0.0000
# 2 63.0329 130.2172 49.7313 0.0000 0.0000 0.0000
# 3 49.7313 49.7313 85.5652 0.0000 0.0000 0.0000
# 4 0.0000 0.0000 0.0000 4.5175 0.0000 0.0000
# 5 0.0000 0.0000 0.0000 0.0000 4.5175 0.0000
# 6 0.0000 0.0000 0.0000 0.0000 0.0000 66.9709
#
#
#
# Elastic Compliance Matrix: (Units=1/GPa)
#
#
# Indices 1 2 3 4 5 6 
#
# 1 0.011134 -0.003751 -0.004291 0.000000 0.000000 0.000000
# 2 -0.003751 0.011134 -0.004291 0.000000 0.000000 0.000000
# 3 -0.004291 -0.004291 0.016675 0.000000 0.000000 0.000000
# 4 0.000000 0.000000 0.000000 0.221361 0.000000 0.000000
# 5 0.000000 0.000000 0.000000 0.000000 0.221361 0.000000
# 6 0.000000 0.000000 0.000000 0.000000 0.000000 0.014932
#
#
# Mechanical properties :
#
#
# Convention : Reuss Voigt Hill
#
# Bulk Modulus (GPa) = 70.04355 74.55450 72.29902
# Shear Modulus (GPa) = 9.50531 27.43478 18.47005
#
# Velocity S-wave (km/s) = 1.99982 3.39750 2.78768
# Velocity P-wave (km/s) = 5.89938 6.83805 6.38598
#
# Compressibility (1/GPa) = 0.01427683
#
# Stress axis : x y z
#
# Youngs Moduli (GPa) = 89.81618 89.81618 59.96928
#
# Poissons Ratio (x) = 0.33686 0.25734
# Poissons Ratio (y) = 0.33686 0.25734
# Poissons Ratio (z) = 0.38542 0.38542
#
# Static dielectric constant tensor:
#      x y z
#    x 1.959360 0.000000 0.000000 
#    y 0.000000 1.959360 0.000000 
#    z 0.000000 0.000000 1.837140 
# 
# From -- ./inp_files/2926.got.cif
#   From: 2010.05.17/outbox.cif.g08.bks.cpg/sg114_2_cif.got.tgz:2926.got - 2010.05.20 11:04:54.
