data_PCOD9556333
_publ_section_title
;
Structure prediction by ZEFSAII (Michael W. Deem and Ramdas Pophale) SiO2 
 PCOD9556333
Probable space group: P -4 21 C
;
_chemical_formula_sum "Si O2"
_cell_formula_units_Z 36
_cell_length_a 8.385148
_cell_length_b 8.385148
_cell_length_c 20.319739
_cell_angle_alpha 90.000000
_cell_angle_beta 90.000000
_cell_angle_gamma 90.000000
_cell_volume 1428.695215
_symmetry_space_group_name_H-M "P -4 21 C"
_symmetry_group_IT_number 114
_symmetry_cell_setting 'tetragonal'
loop_
_space_group_symop_operation_xyz
x,y,z
y,-x,-z
-x,-y,z
-y,x,-z
1/2+x,1/2-y,1/2-z
1/2-x,1/2+y,1/2-z
1/2-y,1/2-x,1/2+z
1/2+y,1/2+x,1/2+z
loop_
_atom_site_type_symbol
_atom_site_label
_atom_site_fract_x
_atom_site_fract_y
_atom_site_fract_z
Si Si1 0.539146 0.818388 0.089831
Si Si2 0.000000 0.000000 0.500000
Si Si3 0.841622 0.188511 0.678250
Si Si4 0.706355 0.236676 0.819205
Si Si5 0.000000 0.000000 0.000000
Si Si6 0.181049 0.532928 0.587885
O O1 0.460724 0.768645 0.160073
O O2 0.718325 0.810360 0.116404
O O3 0.500000 0.000000 0.072482
O O4 0.516940 0.666892 0.040963
O O5 0.786496 0.248737 0.748914
O O6 0.808557 0.286399 0.611538
O O7 0.032741 0.180492 0.680552
O O8 0.680040 0.053898 0.840733
O O9 0.832665 0.993865 0.959053
O O10 0.000000 0.500000 0.562035
#
# Coordination Sequence:
#
# PCOD9556333 Si02
#       6
#     8   2   8   8   2   8
#     4  12  27  51  77 111 155 218 265 341 424 488
#     4  12  28  60  74 116 168 220 288 330 420 512
#     4  11  23  47  78 115 155 201 265 340 413 489
#     4  11  23  47  78 115 155 201 265 340 413 489
#     4  12  28  52  82 108 160 228 256 322 404 492
#     4  10  27  51  71 113 153 198 267 329 392 481
#
# _framework density 25.197814000000001
#
# number of rings (size 3 to 8) (size 9 to 14) (size 15 to 20)
#    0.000    0.889    2.222    2.667    6.222    3.556 
#    8.000    0.000    0.000    0.000    0.000    0.000 
#    0.000    0.000    0.000    0.000    0.000    0.000 
#
# Total GULP energy -200705.368911 kJ/mol
# GULP energy per Si atom -5575.149136 kJ/mol
# Density = 2.514046 g / cm^3
# Si number density = 25.197814 Si / 1000 Ang^3
#
#
#
# Elastic Constant Matrix: (Units=GPa)
#
#
# Indices 1 2 3 4 5 6 
#
# 1 145.5239 30.1444 84.7088 0.0000 0.0000 0.0000
# 2 30.1444 145.5239 84.7088 0.0000 0.0000 0.0000
# 3 84.7088 84.7088 178.5532 0.0000 0.0000 0.0000
# 4 0.0000 0.0000 0.0000 87.8666 0.0000 0.0000
# 5 0.0000 0.0000 0.0000 0.0000 87.8666 0.0000
# 6 0.0000 0.0000 0.0000 0.0000 0.0000 17.6992
#
#
#
# Elastic Compliance Matrix: (Units=1/GPa)
#
#
# Indices 1 2 3 4 5 6 
#
# 1 0.009580 0.000913 -0.004978 0.000000 0.000000 0.000000
# 2 0.000913 0.009580 -0.004978 0.000000 0.000000 0.000000
# 3 -0.004978 -0.004978 0.010324 0.000000 0.000000 0.000000
# 4 0.000000 0.000000 0.000000 0.011381 0.000000 0.000000
# 5 0.000000 0.000000 0.000000 0.000000 0.011381 0.000000
# 6 0.000000 0.000000 0.000000 0.000000 0.000000 0.056500
#
#
# Mechanical properties :
#
#
# Convention : Reuss Voigt Hill
#
# Bulk Modulus (GPa) = 87.73341 96.52500 92.12920
# Shear Modulus (GPa) = 38.27506 56.68908 47.48207
#
# Velocity S-wave (km/s) = 3.90164 4.74831 4.34565
# Velocity P-wave (km/s) = 7.42903 8.27357 7.86265
#
# Compressibility (1/GPa) = 0.01139817
#
# Stress axis : x y z
#
# Youngs Moduli (GPa) = 104.37903 104.37903 96.85856
#
# Poissons Ratio (x) = -0.09534 0.48221
# Poissons Ratio (y) = -0.09534 0.48221
# Poissons Ratio (z) = 0.51965 0.51965
#
# Static dielectric constant tensor:
#      x y z
#    x -3.769100 0.000000 0.000000 
#    y 0.000000 -3.769100 0.000000 
#    z 0.000000 0.000000 1.900310 
# 
# From -- ./inp_files/2991.got.cif
#   From: 2010.05.17/outbox.cif.g08.bks.cpg/sg114_2_cif.got.tgz:2991.got - 2010.05.20 11:04:54.
