data_PCOD9556601
_publ_section_title
;
Structure prediction by ZEFSAII (Michael W. Deem and Ramdas Pophale) SiO2 
 PCOD9556601
Probable space group: P -4 M 2
;
_chemical_formula_sum "Si O2"
_cell_formula_units_Z 36
_cell_length_a 14.547144
_cell_length_b 14.547144
_cell_length_c 10.151967
_cell_angle_alpha 90.000000
_cell_angle_beta 90.000000
_cell_angle_gamma 90.000000
_cell_volume 2148.353151
_symmetry_space_group_name_H-M "P -4 M 2"
_symmetry_group_IT_number 115
_symmetry_cell_setting 'tetragonal'
loop_
_space_group_symop_operation_xyz
x,y,z
y,-x,-z
-x,-y,z
-y,x,-z
y,x,-z
-y,-x,-z
-x,y,z
x,-y,z
loop_
_atom_site_type_symbol
_atom_site_label
_atom_site_fract_x
_atom_site_fract_y
_atom_site_fract_z
Si Si1 0.107647 0.107647 0.500000
Si Si2 0.391860 0.233204 0.854716
Si Si3 0.893765 0.610379 0.619276
Si Si4 0.715466 0.108630 0.652431
Si Si5 0.607421 0.745107 0.161166
O O1 0.128903 0.178016 0.381569
O O2 0.000000 0.120998 0.534473
O O3 0.500000 0.228577 0.821831
O O4 0.331641 0.163085 0.769900
O O5 0.346229 0.332059 0.826283
O O6 0.382036 0.218333 0.011715
O O7 0.888936 0.500000 0.600569
O O8 0.870922 0.660877 0.483094
O O9 0.822317 0.635468 0.733503
O O10 0.000000 0.632812 0.653208
O O11 0.707209 0.000000 0.677128
O O12 0.500000 0.724718 0.180656
#
# Coordination Sequence:
#
# PCOD9556601 Si02
#       5
#     4   8   8   8   8
#     4   9  18  32  50  74 102 131 164 200 240 293
#     4  10  20  33  49  70  97 127 162 207 250 289
#     4   9  17  30  49  73 100 129 160 196 242 296
#     4  10  19  31  51  77 101 127 160 200 245 289
#     4   9  19  34  50  69  95 129 166 201 243 297
#
# _framework density 16.757021999999999
#
# number of rings (size 3 to 8) (size 9 to 14) (size 15 to 20)
#    0.000    2.556    0.000    2.000    0.000    2.667 
#    0.000    4.444    0.000    1.333    0.000    3.111 
#    0.000    7.111    0.000    0.000    0.000    0.000 
#
# Total GULP energy -200665.827368 kJ/mol
# GULP energy per Si atom -5574.050760 kJ/mol
# Density = 1.671888 g / cm^3
# Si number density = 16.757022 Si / 1000 Ang^3
#
#
#
# Elastic Constant Matrix: (Units=GPa)
#
#
# Indices 1 2 3 4 5 6 
#
# 1 71.8810 42.2797 38.0312 0.0000 0.0000 0.0000
# 2 42.2797 71.8810 38.0312 0.0000 0.0000 0.0000
# 3 38.0312 38.0312 41.4834 0.0000 0.0000 0.0000
# 4 0.0000 0.0000 0.0000 26.8217 0.0000 0.0000
# 5 0.0000 0.0000 0.0000 0.0000 26.8217 0.0000
# 6 0.0000 0.0000 0.0000 0.0000 0.0000 25.7847
#
#
#
# Elastic Compliance Matrix: (Units=1/GPa)
#
#
# Indices 1 2 3 4 5 6 
#
# 1 0.028145 -0.005637 -0.020635 0.000000 0.000000 0.000000
# 2 -0.005637 0.028145 -0.020635 0.000000 0.000000 0.000000
# 3 -0.020635 -0.020635 0.061942 0.000000 0.000000 0.000000
# 4 0.000000 0.000000 0.000000 0.037283 0.000000 0.000000
# 5 0.000000 0.000000 0.000000 0.000000 0.037283 0.000000
# 6 0.000000 0.000000 0.000000 0.000000 0.000000 0.038783
#
#
# Mechanical properties :
#
#
# Convention : Reuss Voigt Hill
#
# Bulk Modulus (GPa) = 40.95375 46.88105 43.91740
# Shear Modulus (GPa) = 14.99091 20.34582 17.66837
#
# Velocity S-wave (km/s) = 2.99424 3.48827 3.25065
# Velocity P-wave (km/s) = 6.03712 6.65295 6.35250
#
# Compressibility (1/GPa) = 0.02441779
#
# Stress axis : x y z
#
# Youngs Moduli (GPa) = 35.52995 35.52995 16.14420
#
# Poissons Ratio (x) = 0.20028 0.33314
# Poissons Ratio (y) = 0.20028 0.33314
# Poissons Ratio (z) = 0.73316 0.73316
#
# Static dielectric constant tensor:
#      x y z
#    x 1.575250 0.000000 0.000000 
#    y 0.000000 1.575250 0.000000 
#    z 0.000000 0.000000 1.538780 
# 
# From -- ./inp_files/1445.got.cif
#   From: 2010.05.17/outbox.cif.g08.bks.cpg/sg115_1_cif.got.tgz:1445.got - 2010.05.20 11:07:42.
