data_PCOD9556925
_publ_section_title
;
Structure prediction by ZEFSAII (Michael W. Deem and Ramdas Pophale) SiO2 
 PCOD9556925
Probable space group: P -4 M 2
;
_chemical_formula_sum "Si O2"
_cell_formula_units_Z 48
_cell_length_a 9.303270
_cell_length_b 9.303270
_cell_length_c 32.173247
_cell_angle_alpha 90.000000
_cell_angle_beta 90.000000
_cell_angle_gamma 90.000000
_cell_volume 2784.621318
_symmetry_space_group_name_H-M "P -4 M 2"
_symmetry_group_IT_number 115
_symmetry_cell_setting 'tetragonal'
loop_
_space_group_symop_operation_xyz
x,y,z
y,-x,-z
-x,-y,z
-y,x,-z
y,x,-z
-y,-x,-z
-x,y,z
x,-y,z
loop_
_atom_site_type_symbol
_atom_site_label
_atom_site_fract_x
_atom_site_fract_y
_atom_site_fract_z
Si Si1 0.825037 0.833862 0.712626
Si Si2 0.173200 0.168640 0.379402
Si Si3 0.327277 0.668946 0.546611
Si Si4 0.327739 0.829467 0.037716
Si Si5 0.665232 0.325053 0.878196
Si Si6 0.169383 0.327524 0.795517
O O1 0.779464 0.781818 0.666818
O O2 0.780243 0.742563 0.752417
O O3 0.000000 0.831514 0.711602
O O4 0.781570 0.000000 0.717676
O O5 0.242910 0.255046 0.416758
O O6 0.000000 0.178972 0.380666
O O7 0.210680 0.000000 0.383291
O O8 0.283630 0.716371 0.500000
O O9 0.500000 0.681431 0.548635
O O10 0.291682 0.500000 0.550902
O O11 0.500000 0.807482 0.032460
O O12 0.283758 0.755052 0.081078
O O13 0.301837 0.000000 0.039261
O O14 0.244447 0.755554 0.000000
O O15 0.500000 0.277425 0.880821
O O16 0.665326 0.500000 0.877435
O O17 0.741328 0.278217 0.835588
O O18 0.180892 0.500000 0.792391
O O19 0.000000 0.293448 0.801459
#
# Coordination Sequence:
#
# PCOD9556925 Si02
#       6
#     8   8   8   8   8   8
#     4   8  15  29  47  67  94 126 156 189 234 285
#     4   9  18  32  50  73  99 126 160 202 243 286
#     4   9  19  35  51  68  94 127 161 198 242 292
#     4  10  20  34  53  76 101 130 165 204 245 290
#     4   9  17  30  49  72  98 128 161 198 241 287
#     4   9  16  27  46  71  95 121 158 200 236 275
#
# _framework density 17.237531000000001
#
# number of rings (size 3 to 8) (size 9 to 14) (size 15 to 20)
#    0.000    3.000    0.000    2.500    0.000    5.000 
#    0.000    5.833    0.000    6.500    0.000    0.000 
#    0.000    0.000    0.000    0.000    0.000    0.000 
#
# Total GULP energy -267468.943716 kJ/mol
# GULP energy per Si atom -5572.269661 kJ/mol
# Density = 1.719830 g / cm^3
# Si number density = 17.237531 Si / 1000 Ang^3
#
#
#
# Elastic Constant Matrix: (Units=GPa)
#
#
# Indices 1 2 3 4 5 6 
#
# 1 41.2677 33.8301 65.9468 0.0000 0.0000 0.0000
# 2 33.8301 41.2684 65.9464 0.0000 0.0000 0.0000
# 3 65.9468 65.9464 206.6035 0.0000 0.0000 0.0000
# 4 0.0000 0.0000 0.0000 32.6675 0.0000 0.0000
# 5 0.0000 0.0000 0.0000 0.0000 32.6676 0.0000
# 6 0.0000 0.0000 0.0000 0.0000 0.0000 20.5603
#
#
#
# Elastic Compliance Matrix: (Units=1/GPa)
#
#
# Indices 1 2 3 4 5 6 
#
# 1 0.082377 -0.052071 -0.009674 0.000000 0.000000 0.000000
# 2 -0.052071 0.082373 -0.009672 0.000000 0.000000 0.000000
# 3 -0.009674 -0.009672 0.011015 0.000000 0.000000 0.000000
# 4 0.000000 0.000000 0.000000 0.030611 0.000000 0.000000
# 5 0.000000 0.000000 0.000000 0.000000 0.030611 0.000000
# 6 0.000000 0.000000 0.000000 0.000000 0.000000 0.048638
#
#
# Mechanical properties :
#
#
# Convention : Reuss Voigt Hill
#
# Bulk Modulus (GPa) = 30.36550 68.95402 49.65976
# Shear Modulus (GPa) = 11.37819 25.40681 18.39250
#
# Velocity S-wave (km/s) = 2.57199 3.84334 3.27005
# Velocity P-wave (km/s) = 5.14533 7.73202 6.56728
#
# Compressibility (1/GPa) = 0.03293211
#
# Stress axis : x y z
#
# Youngs Moduli (GPa) = 12.13929 12.13986 90.78292
#
# Poissons Ratio (x) = 0.63213 0.87821
# Poissons Ratio (y) = 0.63210 0.87807
# Poissons Ratio (z) = 0.11743 0.11742
#
# Static dielectric constant tensor:
#      x y z
#    x 1.574500 0.000000 0.000000 
#    y 0.000000 1.574500 0.000000 
#    z 0.000000 0.000000 1.581370 
# 
# From -- ./inp_files/5917.got.cif
#   From: 2010.05.17/outbox.cif.g08.bks.cpg/sg115_3_cif.got.tgz:5917.got - 2010.05.20 11:07:42.
