data_PCOD9556060
_publ_section_title
;
Structure prediction by ZEFSAII (Michael W. Deem and Ramdas Pophale) SiO2 
 PCOD9556060
Probable space group: P -4 21 C
;
_chemical_formula_sum "Si O2"
_cell_formula_units_Z 40
_cell_length_a 17.949316
_cell_length_b 17.949316
_cell_length_c 5.191998
_cell_angle_alpha 90.000000
_cell_angle_beta 90.000000
_cell_angle_gamma 90.000000
_cell_volume 1672.747245
_symmetry_space_group_name_H-M "P -4 21 C"
_symmetry_group_IT_number 114
_symmetry_cell_setting 'tetragonal'
loop_
_space_group_symop_operation_xyz
x,y,z
y,-x,-z
-x,-y,z
-y,x,-z
1/2+x,1/2-y,1/2-z
1/2-x,1/2+y,1/2-z
1/2-y,1/2-x,1/2+z
1/2+y,1/2+x,1/2+z
loop_
_atom_site_type_symbol
_atom_site_label
_atom_site_fract_x
_atom_site_fract_y
_atom_site_fract_z
Si Si1 0.394941 0.948994 0.915654
Si Si2 0.848518 0.078599 0.345191
Si Si3 0.787860 0.678507 0.170445
Si Si4 0.911582 0.150578 0.848104
Si Si5 0.823283 0.393838 0.468641
O O1 0.456877 0.926862 0.127895
O O2 0.343787 0.874257 0.881726
O O3 0.351490 0.019910 0.022392
O O4 0.765872 0.109466 0.290307
O O5 0.864218 0.103873 0.637979
O O6 0.852089 0.992362 0.282494
O O7 0.903011 0.115308 0.132267
O O8 0.766779 0.718261 0.907377
O O9 0.892433 0.236619 0.896437
O O10 0.864847 0.345716 0.251103
#
# Coordination Sequence:
#
# PCOD9556060 Si02
#       5
#     8   8   8   8   8
#     4  10  21  39  65  97 137 184 232 275 330 409
#     4  12  27  47  75 104 141 185 239 303 364 429
#     4  10  21  39  68 100 133 177 232 282 331 411
#     4  12  28  49  73 105 139 185 239 300 368 429
#     4  12  27  46  69 105 152 189 232 296 361 425
#
# _framework density 23.912759000000001
#
# number of rings (size 3 to 8) (size 9 to 14) (size 15 to 20)
#    0.000    0.800    0.000    7.200    0.000   16.000 
#    0.000    0.000    0.000    0.000    0.000    0.000 
#    0.000    0.000    0.000    0.000    0.000    0.000 
#
# Total GULP energy -223717.006571 kJ/mol
# GULP energy per Si atom -5592.925164 kJ/mol
# Density = 2.385833 g / cm^3
# Si number density = 23.912759 Si / 1000 Ang^3
#
#
#
# Elastic Constant Matrix: (Units=GPa)
#
#
# Indices 1 2 3 4 5 6 
#
# 1 63.0264 -7.9004 -13.0887 0.0000 0.0000 0.0000
# 2 -7.9004 63.0264 -13.0887 0.0000 0.0000 0.0000
# 3 -13.0887 -13.0887 150.1360 0.0000 0.0000 0.0000
# 4 0.0000 0.0000 0.0000 28.6507 0.0000 0.0000
# 5 0.0000 0.0000 0.0000 0.0000 28.6507 0.0000
# 6 0.0000 0.0000 0.0000 0.0000 0.0000 23.2510
#
#
#
# Elastic Compliance Matrix: (Units=1/GPa)
#
#
# Indices 1 2 3 4 5 6 
#
# 1 0.016511 0.002412 0.001650 0.000000 0.000000 0.000000
# 2 0.002412 0.016511 0.001650 0.000000 0.000000 0.000000
# 3 0.001650 0.001650 0.006948 0.000000 0.000000 0.000000
# 4 0.000000 0.000000 0.000000 0.034903 0.000000 0.000000
# 5 0.000000 0.000000 0.000000 0.000000 0.034903 0.000000
# 6 0.000000 0.000000 0.000000 0.000000 0.000000 0.043009
#
#
# Mechanical properties :
#
#
# Convention : Reuss Voigt Hill
#
# Bulk Modulus (GPa) = 19.45730 23.11480 21.28605
# Shear Modulus (GPa) = 31.54691 36.79491 34.17091
#
# Velocity S-wave (km/s) = 3.63609 3.92690 3.78429
# Velocity P-wave (km/s) = 5.07766 5.49982 5.29295
#
# Compressibility (1/GPa) = 0.05139459
#
# Stress axis : x y z
#
# Youngs Moduli (GPa) = 60.56436 60.56436 143.92063
#
# Poissons Ratio (x) = -0.14610 -0.23743
# Poissons Ratio (y) = -0.14610 -0.23743
# Poissons Ratio (z) = -0.09992 -0.09992
#
# Static dielectric constant tensor:
#      x y z
#    x 1.936710 0.000000 0.000000 
#    y 0.000000 1.936710 0.000000 
#    z 0.000000 0.000000 2.041840 
# 
# From -- ./inp_files/161.got.cif
#   From: 2010.05.17/outbox.cif.g08.bks.cpg/sg114_1_cif.got.tgz:161.got - 2010.05.20 11:04:54.
