data_PCOD9556420
_publ_section_title
;
Structure prediction by ZEFSAII (Michael W. Deem and Ramdas Pophale) SiO2 
 PCOD9556420
Probable space group: P -4 21 C
;
_chemical_formula_sum "Si O2"
_cell_formula_units_Z 34
_cell_length_a 8.424265
_cell_length_b 8.424265
_cell_length_c 20.407521
_cell_angle_alpha 90.000000
_cell_angle_beta 90.000000
_cell_angle_gamma 90.000000
_cell_volume 1448.285864
_symmetry_space_group_name_H-M "P -4 21 C"
_symmetry_group_IT_number 114
_symmetry_cell_setting 'tetragonal'
loop_
_space_group_symop_operation_xyz
x,y,z
y,-x,-z
-x,-y,z
-y,x,-z
1/2+x,1/2-y,1/2-z
1/2-x,1/2+y,1/2-z
1/2-y,1/2-x,1/2+z
1/2+y,1/2+x,1/2+z
loop_
_atom_site_type_symbol
_atom_site_label
_atom_site_fract_x
_atom_site_fract_y
_atom_site_fract_z
Si Si1 0.154932 0.614476 0.615868
Si Si2 0.341649 0.104766 0.030702
Si Si3 0.508835 0.689407 0.774595
Si Si4 0.798850 0.198023 0.845536
Si Si5 0.000000 0.000000 0.000000
O O1 0.155257 0.679487 0.541916
O O2 0.134984 0.741447 0.672832
O O3 0.290926 0.484467 0.630359
O O4 0.000000 0.500000 0.616891
O O5 0.313463 0.217784 0.092363
O O6 0.176381 0.004558 0.032381
O O7 0.500000 0.000000 0.038263
O O8 0.500000 0.500000 0.779084
O O9 0.346737 0.769605 0.797162
O O10 0.551675 0.732578 0.700143
#
# Coordination Sequence:
#
# PCOD9556420 Si02
#       5
#     8   8   8   8   2
#     4   9  21  45  67  95 144 186 244 308 370 457
#     4  11  25  45  77 109 146 201 262 316 387 470
#     4  11  25  44  70 104 146 193 242 316 380 469
#     4  11  24  45  70 104 144 195 244 314 389 460
#     4  12  24  44  80 108 144 216 248 326 396 460
#
# _framework density 23.476029
#
# number of rings (size 3 to 8) (size 9 to 14) (size 15 to 20)
#    0.000    1.412    2.353    1.412    1.647    8.471 
#    0.000    0.000    0.000    0.000    0.000    0.000 
#    0.000    0.000    0.000    0.000    0.000    0.000 
#
# Total GULP energy -189833.599175 kJ/mol
# GULP energy per Si atom -5583.341152 kJ/mol
# Density = 2.342260 g / cm^3
# Si number density = 23.476029 Si / 1000 Ang^3
#
#
#
# Elastic Constant Matrix: (Units=GPa)
#
#
# Indices 1 2 3 4 5 6 
#
# 1 73.3836 -8.6005 21.0493 0.0000 0.0000 0.0000
# 2 -8.6005 73.3836 21.0493 0.0000 0.0000 0.0000
# 3 21.0493 21.0493 177.7975 0.0000 0.0000 0.0000
# 4 0.0000 0.0000 0.0000 23.1040 0.0000 0.0000
# 5 0.0000 0.0000 0.0000 0.0000 23.1040 0.0000
# 6 0.0000 0.0000 0.0000 0.0000 0.0000 33.4754
#
#
#
# Elastic Compliance Matrix: (Units=1/GPa)
#
#
# Indices 1 2 3 4 5 6 
#
# 1 0.014460 0.002263 -0.001980 0.000000 0.000000 0.000000
# 2 0.002263 0.014460 -0.001980 0.000000 0.000000 0.000000
# 3 -0.001980 -0.001980 0.006093 0.000000 0.000000 0.000000
# 4 0.000000 0.000000 0.000000 0.043282 0.000000 0.000000
# 5 0.000000 0.000000 0.000000 0.000000 0.043282 0.000000
# 6 0.000000 0.000000 0.000000 0.000000 0.000000 0.029873
#
#
# Mechanical properties :
#
#
# Convention : Reuss Voigt Hill
#
# Bulk Modulus (GPa) = 31.62624 43.50677 37.56651
# Shear Modulus (GPa) = 30.23257 35.34115 32.78686
#
# Velocity S-wave (km/s) = 3.59249 3.88418 3.74118
# Velocity P-wave (km/s) = 5.54157 6.22000 5.89056
#
# Compressibility (1/GPa) = 0.03161931
#
# Stress axis : x y z
#
# Youngs Moduli (GPa) = 69.15599 69.15599 164.11887
#
# Poissons Ratio (x) = -0.15647 0.32492
# Poissons Ratio (y) = -0.15647 0.32492
# Poissons Ratio (z) = 0.13691 0.13691
#
# Static dielectric constant tensor:
#      x y z
#    x 1.922410 0.000000 0.000000 
#    y 0.000000 1.922410 0.000000 
#    z 0.000000 0.000000 1.934870 
# 
# From -- ./inp_files/2962.got.cif
#   From: 2010.05.17/outbox.cif.g08.bks.cpg/sg114_2_cif.got.tgz:2962.got - 2010.05.20 11:04:54.
