data_PCOD9556206
_publ_section_title
;
Structure prediction by ZEFSAII (Michael W. Deem and Ramdas Pophale) SiO2 
 PCOD9556206
Probable space group: P -4 21 C
;
_chemical_formula_sum "Si O2"
_cell_formula_units_Z 40
_cell_length_a 14.103214
_cell_length_b 14.103214
_cell_length_c 9.679060
_cell_angle_alpha 90.000000
_cell_angle_beta 90.000000
_cell_angle_gamma 90.000000
_cell_volume 1925.171278
_symmetry_space_group_name_H-M "P -4 21 C"
_symmetry_group_IT_number 114
_symmetry_cell_setting 'tetragonal'
loop_
_space_group_symop_operation_xyz
x,y,z
y,-x,-z
-x,-y,z
-y,x,-z
1/2+x,1/2-y,1/2-z
1/2-x,1/2+y,1/2-z
1/2-y,1/2-x,1/2+z
1/2+y,1/2+x,1/2+z
loop_
_atom_site_type_symbol
_atom_site_label
_atom_site_fract_x
_atom_site_fract_y
_atom_site_fract_z
Si Si1 0.486184 0.855022 0.548114
Si Si2 0.149453 0.033268 0.973804
Si Si3 0.908885 0.314663 0.545185
Si Si4 0.399998 0.832449 0.826271
Si Si5 0.663012 0.737282 0.244072
O O1 0.522807 0.746119 0.560506
O O2 0.574674 0.916090 0.497633
O O3 0.443828 0.885371 0.693886
O O4 0.405666 0.853905 0.431941
O O5 0.181801 0.083111 0.831860
O O6 0.069548 0.100824 0.041049
O O7 0.830992 0.312374 0.666776
O O8 0.873253 0.262624 0.408222
O O9 0.011430 0.283268 0.596895
O O10 0.326461 0.755888 0.771164
#
# Coordination Sequence:
#
# PCOD9556206 Si02
#       5
#     8   8   8   8   8
#     4  11  25  42  70 102 139 185 228 299 364 430
#     4  10  22  44  71  99 139 192 240 288 358 433
#     4  11  25  46  69 100 151 177 244 302 357 440
#     4  12  25  44  70 105 138 186 238 292 369 424
#     4  11  24  46  70 107 137 193 240 300 360 432
#
# _framework density 20.777372
#
# number of rings (size 3 to 8) (size 9 to 14) (size 15 to 20)
#    0.000    1.000    4.000    1.800    8.400    1.600 
#    3.600    0.000    0.000    0.000    0.000    0.000 
#    0.000    0.000    0.000    0.000    0.000    0.000 
#
# Total GULP energy -223798.393891 kJ/mol
# GULP energy per Si atom -5594.959847 kJ/mol
# Density = 2.073008 g / cm^3
# Si number density = 20.777372 Si / 1000 Ang^3
#
#
#
# Elastic Constant Matrix: (Units=GPa)
#
#
# Indices 1 2 3 4 5 6 
#
# 1 65.8298 16.5948 14.4547 0.0000 0.0000 0.0000
# 2 16.5948 65.8298 14.4547 0.0000 0.0000 0.0000
# 3 14.4547 14.4547 94.2256 0.0000 0.0000 0.0000
# 4 0.0000 0.0000 0.0000 38.2160 0.0000 0.0000
# 5 0.0000 0.0000 0.0000 0.0000 38.2160 0.0000
# 6 0.0000 0.0000 0.0000 0.0000 0.0000 28.2762
#
#
#
# Elastic Compliance Matrix: (Units=1/GPa)
#
#
# Indices 1 2 3 4 5 6 
#
# 1 0.016566 -0.003744 -0.001967 0.000000 0.000000 0.000000
# 2 -0.003744 0.016566 -0.001967 0.000000 0.000000 0.000000
# 3 -0.001967 -0.001967 0.011216 0.000000 0.000000 0.000000
# 4 0.000000 0.000000 0.000000 0.026167 0.000000 0.000000
# 5 0.000000 0.000000 0.000000 0.000000 0.026167 0.000000
# 6 0.000000 0.000000 0.000000 0.000000 0.000000 0.035365
#
#
# Mechanical properties :
#
#
# Convention : Reuss Voigt Hill
#
# Bulk Modulus (GPa) = 34.49137 35.21040 34.85089
# Shear Modulus (GPa) = 31.83302 32.96703 32.40003
#
# Velocity S-wave (km/s) = 3.91845 3.98764 3.95320
# Velocity P-wave (km/s) = 6.09170 6.17940 6.13571
#
# Compressibility (1/GPa) = 0.02899276
#
# Stress axis : x y z
#
# Youngs Moduli (GPa) = 60.36288 60.36288 89.15583
#
# Poissons Ratio (x) = 0.22601 0.17537
# Poissons Ratio (y) = 0.22601 0.17537
# Poissons Ratio (z) = 0.11873 0.11873
#
# Static dielectric constant tensor:
#      x y z
#    x 1.745010 0.000000 0.000000 
#    y 0.000000 1.745010 0.000000 
#    z 0.000000 0.000000 1.716840 
# 
# From -- ./inp_files/770.got.cif
#   From: 2010.05.17/outbox.cif.g08.bks.cpg/sg114_1_cif.got.tgz:770.got - 2010.05.20 11:04:54.
