data_PCOD9556904
_publ_section_title
;
Structure prediction by ZEFSAII (Michael W. Deem and Ramdas Pophale) SiO2 
 PCOD9556904
Probable space group: P -4 M 2
;
_chemical_formula_sum "Si O2"
_cell_formula_units_Z 48
_cell_length_a 9.180253
_cell_length_b 9.180253
_cell_length_c 31.794533
_cell_angle_alpha 90.000000
_cell_angle_beta 90.000000
_cell_angle_gamma 90.000000
_cell_volume 2679.549293
_symmetry_space_group_name_H-M "P -4 M 2"
_symmetry_group_IT_number 115
_symmetry_cell_setting 'tetragonal'
loop_
_space_group_symop_operation_xyz
x,y,z
y,-x,-z
-x,-y,z
-y,x,-z
y,x,-z
-y,-x,-z
-x,y,z
x,-y,z
loop_
_atom_site_type_symbol
_atom_site_label
_atom_site_fract_x
_atom_site_fract_y
_atom_site_fract_z
Si Si1 0.332190 0.322900 0.671670
Si Si2 0.326891 0.826998 0.243600
Si Si3 0.672586 0.325718 0.078417
Si Si4 0.826754 0.173247 0.000000
Si Si5 0.324499 0.672090 0.577767
Si Si6 0.170899 0.674432 0.165855
Si Si7 0.172582 0.827419 0.500000
O O1 0.500000 0.277066 0.677835
O O2 0.331976 0.500000 0.670593
O O3 0.236463 0.278112 0.711314
O O4 0.282719 0.278001 0.624990
O O5 0.500000 0.794578 0.239008
O O6 0.240894 0.753316 0.205665
O O7 0.308662 0.000000 0.242813
O O8 0.500000 0.296725 0.079028
O O9 0.692694 0.500000 0.072164
O O10 0.749737 0.240586 0.040857
O O11 0.744654 0.286600 0.123049
O O12 0.000000 0.198688 0.002072
O O13 0.500000 0.685317 0.574739
O O14 0.290104 0.500000 0.573423
O O15 0.247901 0.760237 0.541126
O O16 0.185182 0.500000 0.171439
O O17 0.000000 0.708896 0.161755
O O18 0.000000 0.801299 0.501696
#
# Coordination Sequence:
#
# PCOD9556904 Si02
#       7
#     8   8   8   4   8   8   4
#     4   8  15  30  53  79 105 133 169 216 264 309
#     4  10  20  33  52  80 111 142 177 216 261 315
#     4  10  21  38  61  86 109 138 180 227 272 317
#     4  11  24  39  56  82 116 151 182 215 262 318
#     4   9  18  34  57  82 103 128 170 220 265 312
#     4  10  21  37  57  80 107 142 183 224 267 315
#     4  11  24  37  48  70 106 143 176 211 256 312
#
# _framework density 17.913459
#
# number of rings (size 3 to 8) (size 9 to 14) (size 15 to 20)
#    0.000    2.333    0.000    3.500    0.000    8.000 
#    0.000    2.500    0.000    1.000    0.000    0.000 
#    0.000    0.000    0.000    0.000    0.000    0.000 
#
# Total GULP energy -267945.004053 kJ/mol
# GULP energy per Si atom -5582.187584 kJ/mol
# Density = 1.787269 g / cm^3
# Si number density = 17.913459 Si / 1000 Ang^3
#
#
#
# Elastic Constant Matrix: (Units=GPa)
#
#
# Indices 1 2 3 4 5 6 
#
# 1 70.2693 65.9275 91.6277 0.0000 0.0000 0.0000
# 2 65.9275 70.2692 91.6276 0.0000 0.0000 0.0000
# 3 91.6277 91.6276 211.0005 0.0000 0.0000 0.0000
# 4 0.0000 0.0000 0.0000 -24.4525 0.0000 0.0000
# 5 0.0000 0.0000 0.0000 0.0000 -24.4528 0.0000
# 6 0.0000 0.0000 0.0000 0.0000 0.0000 26.6364
#
#
#
# Elastic Compliance Matrix: (Units=1/GPa)
#
#
# Indices 1 2 3 4 5 6 
#
# 1 0.123992 -0.106330 -0.007670 0.000000 0.000000 0.000000
# 2 -0.106330 0.123992 -0.007670 0.000000 0.000000 0.000000
# 3 -0.007670 -0.007670 0.011401 0.000000 0.000000 0.000000
# 4 0.000000 0.000000 0.000000 -0.040896 0.000000 0.000000
# 5 0.000000 0.000000 0.000000 0.000000 -0.040895 0.000000
# 6 0.000000 0.000000 0.000000 0.000000 0.000000 0.037543
#
#
# Mechanical properties :
#
#
# Convention : Reuss Voigt Hill
#
# Bulk Modulus (GPa) = 62.32207 94.43388 78.37798
# Shear Modulus (GPa) = 10.77994 2.36998 6.57496
#
# Velocity S-wave (km/s) = 2.45578 1.15147 1.91791
# Velocity P-wave (km/s) = 6.55037 7.38911 6.98235
#
# Compressibility (1/GPa) = 0.01604568
#
# Stress axis : x y z
#
# Youngs Moduli (GPa) = 8.06504 8.06502 87.71382
#
# Poissons Ratio (x) = 0.85755 0.67276
# Poissons Ratio (y) = 0.85755 0.67276
# Poissons Ratio (z) = 0.06186 0.06186
#
# Static dielectric constant tensor:
#      x y z
#    x 1.593350 0.000000 0.000000 
#    y 0.000000 1.593350 0.000000 
#    z 0.000000 0.000000 1.593330 
# 
# From -- ./inp_files/6155.got.cif
#   From: 2010.05.17/outbox.cif.g08.bks.cpg/sg115_4_cif.got.tgz:6155.got - 2010.05.20 11:07:42.
