data_PCOD9556881
_publ_section_title
;
Structure prediction by ZEFSAII (Michael W. Deem and Ramdas Pophale) SiO2 
 PCOD9556881
Probable space group: P -4 M 2
;
_chemical_formula_sum "Si O2"
_cell_formula_units_Z 48
_cell_length_a 9.217015
_cell_length_b 9.217015
_cell_length_c 31.638198
_cell_angle_alpha 90.000000
_cell_angle_beta 90.000000
_cell_angle_gamma 90.000000
_cell_volume 2687.771399
_symmetry_space_group_name_H-M "P -4 M 2"
_symmetry_group_IT_number 115
_symmetry_cell_setting 'tetragonal'
loop_
_space_group_symop_operation_xyz
x,y,z
y,-x,-z
-x,-y,z
-y,x,-z
y,x,-z
-y,-x,-z
-x,y,z
x,-y,z
loop_
_atom_site_type_symbol
_atom_site_label
_atom_site_fract_x
_atom_site_fract_y
_atom_site_fract_z
Si Si1 0.172217 0.672802 0.368266
Si Si2 0.667453 0.676595 0.453556
Si Si3 0.170765 0.673659 0.709400
Si Si4 0.328169 0.327334 0.951046
Si Si5 0.827048 0.829093 0.125235
Si Si6 0.673767 0.328827 0.203102
O O1 0.201931 0.500000 0.363460
O O2 0.238589 0.719832 0.413320
O O3 0.246073 0.757940 0.330093
O O4 0.000000 0.693321 0.367996
O O5 0.722293 0.722293 0.500000
O O6 0.500000 0.722881 0.447884
O O7 0.666931 0.500000 0.455152
O O8 0.187399 0.500000 0.703743
O O9 0.251858 0.713416 0.752841
O O10 0.000000 0.705924 0.712718
O O11 0.500000 0.299651 0.944565
O O12 0.305727 0.500000 0.944897
O O13 0.235317 0.238407 0.917816
O O14 0.293852 0.293852 0.000000
O O15 0.755185 0.745110 0.164288
O O16 0.000000 0.809959 0.125872
O O17 0.794436 0.000000 0.128475
O O18 0.500000 0.311807 0.197235
O O19 0.705309 0.500000 0.205076
#
# Coordination Sequence:
#
# PCOD9556881 Si02
#       6
#     8   8   8   8   8   8
#     4  10  20  33  51  77 108 141 175 212 259 314
#     4   8  14  27  49  74  99 132 176 223 265 304
#     4  10  21  37  57  80 105 136 175 217 263 315
#     4   9  19  37  60  84 109 140 182 229 272 315
#     4  11  24  38  53  79 115 150 181 216 262 316
#     4  10  21  38  61  85 106 133 174 222 268 315
#
# _framework density 17.858661999999999
#
# number of rings (size 3 to 8) (size 9 to 14) (size 15 to 20)
#    0.000    2.333    0.000    3.500    0.000    8.000 
#    0.000    3.333    0.000    3.000    0.000    0.000 
#    0.000    0.000    0.000    0.000    0.000    0.000 
#
# Total GULP energy -267965.089471 kJ/mol
# GULP energy per Si atom -5582.606031 kJ/mol
# Density = 1.781802 g / cm^3
# Si number density = 17.858662 Si / 1000 Ang^3
#
#
#
# Elastic Constant Matrix: (Units=GPa)
#
#
# Indices 1 2 3 4 5 6 
#
# 1 79.9232 72.2751 95.4841 0.0000 0.0000 0.0000
# 2 72.2751 79.9232 95.4841 0.0000 0.0000 0.0000
# 3 95.4841 95.4841 185.0667 0.0000 0.0000 0.0000
# 4 0.0000 0.0000 0.0000 -24.4086 0.0000 0.0000
# 5 0.0000 0.0000 0.0000 0.0000 -24.4086 0.0000
# 6 0.0000 0.0000 0.0000 0.0000 0.0000 26.7977
#
#
#
# Elastic Compliance Matrix: (Units=1/GPa)
#
#
# Indices 1 2 3 4 5 6 
#
# 1 0.074692 -0.056059 -0.009613 0.000000 0.000000 0.000000
# 2 -0.056059 0.074692 -0.009613 0.000000 0.000000 0.000000
# 3 -0.009613 -0.009613 0.015323 0.000000 0.000000 0.000000
# 4 0.000000 0.000000 0.000000 -0.040969 0.000000 0.000000
# 5 0.000000 0.000000 0.000000 0.000000 -0.040969 0.000000
# 6 0.000000 0.000000 0.000000 0.000000 0.000000 0.037317
#
#
# Mechanical properties :
#
#
# Convention : Reuss Voigt Hill
#
# Bulk Modulus (GPa) = 70.74610 96.82220 83.78415
# Shear Modulus (GPa) = 18.15748 1.04079 9.59913
#
# Velocity S-wave (km/s) = 3.19208 0.76424 2.32093
# Velocity P-wave (km/s) = 7.29975 7.42376 7.36202
#
# Compressibility (1/GPa) = 0.01413506
#
# Stress axis : x y z
#
# Youngs Moduli (GPa) = 13.38835 13.38835 65.25977
#
# Poissons Ratio (x) = 0.75054 0.62737
# Poissons Ratio (y) = 0.75054 0.62737
# Poissons Ratio (z) = 0.12871 0.12871
#
# Static dielectric constant tensor:
#      x y z
#    x 1.590650 0.000000 0.000000 
#    y 0.000000 1.590650 0.000000 
#    z 0.000000 0.000000 1.590910 
# 
# From -- ./inp_files/6047.got.cif
#   From: 2010.05.17/outbox.cif.g08.bks.cpg/sg115_4_cif.got.tgz:6047.got - 2010.05.20 11:07:42.
