data_PCOD9556099
_publ_section_title
;
Structure prediction by ZEFSAII (Michael W. Deem and Ramdas Pophale) SiO2 
 PCOD9556099
Probable space group: P -4 21 C
;
_chemical_formula_sum "Si O2"
_cell_formula_units_Z 32
_cell_length_a 8.893548
_cell_length_b 8.893548
_cell_length_c 17.046201
_cell_angle_alpha 90.000000
_cell_angle_beta 90.000000
_cell_angle_gamma 90.000000
_cell_volume 1348.272610
_symmetry_space_group_name_H-M "P -4 21 C"
_symmetry_group_IT_number 114
_symmetry_cell_setting 'tetragonal'
loop_
_space_group_symop_operation_xyz
x,y,z
y,-x,-z
-x,-y,z
-y,x,-z
1/2+x,1/2-y,1/2-z
1/2-x,1/2+y,1/2-z
1/2-y,1/2-x,1/2+z
1/2+y,1/2+x,1/2+z
loop_
_atom_site_type_symbol
_atom_site_label
_atom_site_fract_x
_atom_site_fract_y
_atom_site_fract_z
Si Si1 0.557838 0.714206 0.539434
Si Si2 0.178168 0.103253 0.534831
Si Si3 0.352671 0.590327 0.282128
Si Si4 0.346952 0.925937 0.336504
O O1 0.678138 0.587225 0.511342
O O2 0.646450 0.866670 0.525933
O O3 0.529421 0.688887 0.630870
O O4 0.120842 0.214395 0.602954
O O5 0.074511 0.149247 0.459992
O O6 0.500000 0.500000 0.256265
O O7 0.379896 0.768076 0.291889
O O8 0.220964 0.547603 0.223246
O O9 0.500000 0.000000 0.368596
#
# Coordination Sequence:
#
# PCOD9556099 Si02
#       4
#     8   8   8   8
#     4  10  21  42  68 102 136 179 227 281 348 418
#     4  10  25  43  65 101 137 182 220 288 348 413
#     4  11  23  44  70  99 138 182 231 293 348 424
#     4  11  26  46  70 101 137 188 237 293 356 426
#
# _framework density 23.734071
#
# number of rings (size 3 to 8) (size 9 to 14) (size 15 to 20)
#    0.000    1.500    2.500    1.500   10.500    2.000 
#    9.000    0.000    0.000    0.000    0.000    0.000 
#    0.000    0.000    0.000    0.000    0.000    0.000 
#
# Total GULP energy -178830.058346 kJ/mol
# GULP energy per Si atom -5588.439323 kJ/mol
# Density = 2.368005 g / cm^3
# Si number density = 23.734071 Si / 1000 Ang^3
#
#
#
# Elastic Constant Matrix: (Units=GPa)
#
#
# Indices 1 2 3 4 5 6 
#
# 1 72.0465 17.1548 17.7060 0.0000 0.0000 0.0000
# 2 17.1548 72.0465 17.7060 0.0000 0.0000 0.0000
# 3 17.7060 17.7060 84.1297 0.0000 0.0000 0.0000
# 4 0.0000 0.0000 0.0000 28.7220 0.0000 0.0000
# 5 0.0000 0.0000 0.0000 0.0000 28.7220 0.0000
# 6 0.0000 0.0000 0.0000 0.0000 0.0000 49.3212
#
#
#
# Elastic Compliance Matrix: (Units=1/GPa)
#
#
# Indices 1 2 3 4 5 6 
#
# 1 0.015225 -0.002993 -0.002574 0.000000 0.000000 0.000000
# 2 -0.002993 0.015225 -0.002574 0.000000 0.000000 0.000000
# 3 -0.002574 -0.002574 0.012970 0.000000 0.000000 0.000000
# 4 0.000000 0.000000 0.000000 0.034817 0.000000 0.000000
# 5 0.000000 0.000000 0.000000 0.000000 0.034817 0.000000
# 6 0.000000 0.000000 0.000000 0.000000 0.000000 0.020275
#
#
# Mechanical properties :
#
#
# Convention : Reuss Voigt Hill
#
# Bulk Modulus (GPa) = 36.84954 37.03961 36.94457
# Shear Modulus (GPa) = 31.51442 33.06343 32.28893
#
# Velocity S-wave (km/s) = 3.64787 3.73645 3.69242
# Velocity P-wave (km/s) = 5.77082 5.85275 5.81193
#
# Compressibility (1/GPa) = 0.02713738
#
# Stress axis : x y z
#
# Youngs Moduli (GPa) = 65.68074 65.68074 77.10062
#
# Poissons Ratio (x) = 0.19655 0.19849
# Poissons Ratio (y) = 0.19655 0.19849
# Poissons Ratio (z) = 0.16909 0.16909
#
# Static dielectric constant tensor:
#      x y z
#    x 1.929460 0.000000 0.000000 
#    y 0.000000 1.929460 0.000000 
#    z 0.000000 0.000000 1.913370 
# 
# From -- ./inp_files/2837.got.cif
#   From: 2010.05.17/outbox.cif.g08.bks.cpg/sg114_2_cif.got.tgz:2837.got - 2010.05.20 11:04:54.
