data_PCOD9556102
_publ_section_title
;
Structure prediction by ZEFSAII (Michael W. Deem and Ramdas Pophale) SiO2 
 PCOD9556102
Probable space group: P -4 21 C
;
_chemical_formula_sum "Si O2"
_cell_formula_units_Z 60
_cell_length_a 13.010571
_cell_length_b 13.010571
_cell_length_c 14.407768
_cell_angle_alpha 90.000000
_cell_angle_beta 90.000000
_cell_angle_gamma 90.000000
_cell_volume 2438.874319
_symmetry_space_group_name_H-M "P -4 21 C"
_symmetry_group_IT_number 114
_symmetry_cell_setting 'tetragonal'
loop_
_space_group_symop_operation_xyz
x,y,z
y,-x,-z
-x,-y,z
-y,x,-z
1/2+x,1/2-y,1/2-z
1/2-x,1/2+y,1/2-z
1/2-y,1/2-x,1/2+z
1/2+y,1/2+x,1/2+z
loop_
_atom_site_type_symbol
_atom_site_label
_atom_site_fract_x
_atom_site_fract_y
_atom_site_fract_z
Si Si1 0.374264 0.335089 0.212595
Si Si2 0.489121 0.358205 0.645252
Si Si3 0.678813 0.006572 0.601208
Si Si4 0.298577 0.116390 0.286641
Si Si5 0.153990 0.291011 0.570394
Si Si6 0.000000 0.500000 0.762482
Si Si7 0.209522 0.965402 0.942981
Si Si8 0.833465 0.324195 0.024364
O O1 0.466184 0.282587 0.152555
O O2 0.321643 0.233102 0.254851
O O3 0.287259 0.385915 0.146927
O O4 0.402150 0.421608 0.287388
O O5 0.431042 0.277108 0.711326
O O6 0.194699 0.401993 0.600259
O O7 0.399063 0.429672 0.600424
O O8 0.541543 0.304974 0.555092
O O9 0.702286 0.085971 0.520731
O O10 0.594267 0.041907 0.674701
O O11 0.626568 0.911272 0.545376
O O12 0.403779 0.049924 0.289876
O O13 0.266828 0.125273 0.393719
O O14 0.261439 0.243110 0.538737
O O15 0.251508 0.080407 0.933244
#
# Coordination Sequence:
#
# PCOD9556102 Si02
#       8
#     8   8   8   8   8   4   8   8
#     4  10  23  43  70 107 148 188 246 307 369 452
#     4  12  25  47  76 106 157 198 246 304 383 454
#     4  10  21  42  74 104 146 194 248 313 370 441
#     4  11  23  46  68 110 147 193 247 320 373 442
#     4  11  21  45  75 104 145 200 243 305 381 434
#     4  10  22  40  68 102 144 188 254 314 366 436
#     4  12  24  46  74 108 146 201 246 306 381 445
#     4  11  24  43  71 110 149 189 256 307 371 459
#
# _framework density 24.601514000000002
#
# number of rings (size 3 to 8) (size 9 to 14) (size 15 to 20)
#    0.000    1.067    2.667    4.800    0.000    2.933 
#    4.800    0.000    5.867    3.600    0.000    0.000 
#    0.000    0.000    0.000    0.000    0.000    0.000 
#
# Total GULP energy -335633.950600 kJ/mol
# GULP energy per Si atom -5593.899177 kJ/mol
# Density = 2.454552 g / cm^3
# Si number density = 24.601514 Si / 1000 Ang^3
#
#
#
# Elastic Constant Matrix: (Units=GPa)
#
#
# Indices 1 2 3 4 5 6 
#
# 1 78.4499 30.8796 33.2599 0.0000 0.0000 0.0000
# 2 30.8796 78.4499 33.2599 0.0000 0.0000 0.0000
# 3 33.2599 33.2599 104.3592 0.0000 0.0000 0.0000
# 4 0.0000 0.0000 0.0000 37.5360 0.0000 0.0000
# 5 0.0000 0.0000 0.0000 0.0000 37.5360 0.0000
# 6 0.0000 0.0000 0.0000 0.0000 0.0000 28.5064
#
#
#
# Elastic Compliance Matrix: (Units=1/GPa)
#
#
# Indices 1 2 3 4 5 6 
#
# 1 0.016184 -0.004837 -0.003616 0.000000 0.000000 0.000000
# 2 -0.004837 0.016184 -0.003616 0.000000 0.000000 0.000000
# 3 -0.003616 -0.003616 0.011887 0.000000 0.000000 0.000000
# 4 0.000000 0.000000 0.000000 0.026641 0.000000 0.000000
# 5 0.000000 0.000000 0.000000 0.000000 0.026641 0.000000
# 6 0.000000 0.000000 0.000000 0.000000 0.000000 0.035080
#
#
# Mechanical properties :
#
#
# Convention : Reuss Voigt Hill
#
# Bulk Modulus (GPa) = 49.71183 50.67310 50.19246
# Shear Modulus (GPa) = 30.58792 31.63964 31.11378
#
# Velocity S-wave (km/s) = 3.52992 3.59009 3.56013
# Velocity P-wave (km/s) = 6.07161 6.15039 6.11113
#
# Compressibility (1/GPa) = 0.02011594
#
# Stress axis : x y z
#
# Youngs Moduli (GPa) = 61.78847 61.78847 84.12269
#
# Poissons Ratio (x) = 0.29889 0.30422
# Poissons Ratio (y) = 0.29889 0.30422
# Poissons Ratio (z) = 0.22345 0.22345
#
# Static dielectric constant tensor:
#      x y z
#    x 2.078400 0.000000 0.000000 
#    y 0.000000 2.078400 0.000000 
#    z 0.000000 0.000000 1.975760 
# 
# From -- ./inp_files/2293.got.cif
#   From: 2010.05.17/outbox.cif.g08.bks.cpg/sg114_2_cif.got.tgz:2293.got - 2010.05.20 11:04:54.
