data_PCOD9556902
_publ_section_title
;
Structure prediction by ZEFSAII (Michael W. Deem and Ramdas Pophale) SiO2 
 PCOD9556902
Probable space group: P -4 M 2
;
_chemical_formula_sum "Si O2"
_cell_formula_units_Z 56
_cell_length_a 14.728787
_cell_length_b 14.728787
_cell_length_c 14.646241
_cell_angle_alpha 90.000000
_cell_angle_beta 90.000000
_cell_angle_gamma 90.000000
_cell_volume 3177.314022
_symmetry_space_group_name_H-M "P -4 M 2"
_symmetry_group_IT_number 115
_symmetry_cell_setting 'tetragonal'
loop_
_space_group_symop_operation_xyz
x,y,z
y,-x,-z
-x,-y,z
-y,x,-z
y,x,-z
-y,-x,-z
-x,y,z
x,-y,z
loop_
_atom_site_type_symbol
_atom_site_label
_atom_site_fract_x
_atom_site_fract_y
_atom_site_fract_z
Si Si1 0.399087 0.108317 0.423312
Si Si2 0.749531 0.697406 0.259124
Si Si3 0.898127 0.392834 0.942985
Si Si4 0.607942 0.393391 0.391544
Si Si5 0.391970 0.724015 0.935027
Si Si6 0.609402 0.104068 0.619133
Si Si7 0.897009 0.278494 0.756593
O O1 0.500000 0.146963 0.409401
O O2 0.359822 0.142253 0.519747
O O3 0.341782 0.113543 0.332334
O O4 0.408217 0.000000 0.440136
O O5 0.667703 0.673601 0.329727
O O6 0.721263 0.658199 0.161411
O O7 0.834494 0.644243 0.300040
O O8 0.776260 0.803229 0.248407
O O9 0.889538 0.500000 0.921689
O O10 0.891304 0.337457 0.849040
O O11 0.000000 0.377977 0.980534
O O12 0.818608 0.369530 0.013166
O O13 0.621634 0.378367 0.500000
O O14 0.500000 0.383811 0.373694
O O15 0.632391 0.500000 0.372739
O O16 0.500000 0.719238 0.922340
O O17 0.355408 0.644593 0.000000
O O18 0.500000 0.105869 0.615899
O O19 0.638830 0.000000 0.630766
O O20 0.000000 0.238549 0.753711
#
# Coordination Sequence:
#
# PCOD9556902 Si02
#       7
#     8   8   8   8   8   8   8
#     4   8  15  29  49  75 108 141 174 219 275 326
#     4  12  23  35  57  82 109 144 191 225 278 332
#     4   9  18  35  58  80 104 136 178 230 284 329
#     4   9  20  37  53  76 113 153 191 225 258 312
#     4  11  23  39  54  77 109 143 186 230 274 329
#     4   9  19  35  54  80 113 145 181 230 281 328
#     4  10  20  33  52  79 110 141 179 228 279 329
#
# _framework density 17.624949999999998
#
# number of rings (size 3 to 8) (size 9 to 14) (size 15 to 20)
#    0.000    2.286    1.429    3.000    2.000    4.143 
#    0.000    1.429    0.000    0.429    0.000    0.000 
#    0.000    3.714    0.000    0.000    0.000    0.143 
#
# Total GULP energy -312103.647154 kJ/mol
# GULP energy per Si atom -5573.279413 kJ/mol
# Density = 1.758483 g / cm^3
# Si number density = 17.624950 Si / 1000 Ang^3
#
#
#
# Elastic Constant Matrix: (Units=GPa)
#
#
# Indices 1 2 3 4 5 6 
#
# 1 63.1432 13.7722 20.8562 0.0000 0.0000 0.0000
# 2 13.7722 63.1453 20.8566 0.0000 0.0000 0.0000
# 3 20.8562 20.8566 80.6253 0.0000 0.0000 0.0000
# 4 0.0000 0.0000 0.0000 21.0513 0.0000 0.0000
# 5 0.0000 0.0000 0.0000 0.0000 21.0516 0.0000
# 6 0.0000 0.0000 0.0000 0.0000 0.0000 9.6669
#
#
#
# Elastic Compliance Matrix: (Units=1/GPa)
#
#
# Indices 1 2 3 4 5 6 
#
# 1 0.017689 -0.002566 -0.003912 0.000000 0.000000 0.000000
# 2 -0.002566 0.017688 -0.003912 0.000000 0.000000 0.000000
# 3 -0.003912 -0.003912 0.014427 0.000000 0.000000 0.000000
# 4 0.000000 0.000000 0.000000 0.047503 0.000000 0.000000
# 5 0.000000 0.000000 0.000000 0.000000 0.047502 0.000000
# 6 0.000000 0.000000 0.000000 0.000000 0.000000 0.103446
#
#
# Mechanical properties :
#
#
# Convention : Reuss Voigt Hill
#
# Bulk Modulus (GPa) = 34.45383 35.32043 34.88713
# Shear Modulus (GPa) = 17.93979 20.44919 19.19449
#
# Velocity S-wave (km/s) = 3.19386 3.40993 3.30366
# Velocity P-wave (km/s) = 5.76123 5.96548 5.86424
#
# Compressibility (1/GPa) = 0.02902435
#
# Stress axis : x y z
#
# Youngs Moduli (GPa) = 56.53300 56.53481 69.31455
#
# Poissons Ratio (x) = 0.14506 0.27116
# Poissons Ratio (y) = 0.14506 0.27116
# Poissons Ratio (z) = 0.22116 0.22116
#
# Static dielectric constant tensor:
#      x y z
#    x 1.618780 0.000000 0.000000 
#    y 0.000000 1.618780 0.000000 
#    z 0.000000 0.000000 1.592790 
# 
# From -- ./inp_files/3874.got.cif
#   From: 2010.05.17/outbox.cif.g08.bks.cpg/sg115_2_cif.got.tgz:3874.got - 2010.05.20 11:07:42.
