data_PCOD9556353
_publ_section_title
;
Structure prediction by ZEFSAII (Michael W. Deem and Ramdas Pophale) SiO2 
 PCOD9556353
Probable space group: P -4 21 C
;
_chemical_formula_sum "Si O2"
_cell_formula_units_Z 48
_cell_length_a 8.870587
_cell_length_b 8.870587
_cell_length_c 30.348454
_cell_angle_alpha 90.000000
_cell_angle_beta 90.000000
_cell_angle_gamma 90.000000
_cell_volume 2388.038321
_symmetry_space_group_name_H-M "P -4 21 C"
_symmetry_group_IT_number 114
_symmetry_cell_setting 'tetragonal'
loop_
_space_group_symop_operation_xyz
x,y,z
y,-x,-z
-x,-y,z
-y,x,-z
1/2+x,1/2-y,1/2-z
1/2-x,1/2+y,1/2-z
1/2-y,1/2-x,1/2+z
1/2+y,1/2+x,1/2+z
loop_
_atom_site_type_symbol
_atom_site_label
_atom_site_fract_x
_atom_site_fract_y
_atom_site_fract_z
Si Si1 0.329307 0.550875 0.292638
Si Si2 0.891340 0.864996 0.880094
Si Si3 0.687136 0.659075 0.049869
Si Si4 0.657790 0.089259 0.289048
Si Si5 0.362476 0.909530 0.880345
Si Si6 0.705110 0.659583 0.947812
O O1 0.500000 0.500000 0.291220
O O2 0.280491 0.481799 0.340497
O O3 0.326568 0.730103 0.286415
O O4 0.252030 0.477215 0.250638
O O5 0.750820 0.964706 0.861282
O O6 0.812763 0.756391 0.915990
O O7 0.000000 0.000000 0.897403
O O8 0.685047 0.476389 0.057060
O O9 0.520329 0.722041 0.058425
O O10 0.806735 0.719413 0.084448
O O11 0.733082 0.690353 0.999601
O O12 0.691419 0.068464 0.341132
O O13 0.500000 0.000000 0.284493
O O14 0.500000 0.000000 0.901911
#
# Coordination Sequence:
#
# PCOD9556353 Si02
#       6
#     8   8   8   8   8   8
#     4  11  23  44  65  92 130 167 217 271 325 397
#     4  11  22  43  62  91 136 173 213 275 333 402
#     4   9  19  39  67  94 125 167 226 274 332 387
#     4  11  24  43  68  93 124 169 215 268 331 394
#     4  11  21  40  65  90 125 173 219 261 333 397
#     4   9  19  40  65  95 128 167 218 284 325 392
#
# _framework density 20.100180999999999
#
# number of rings (size 3 to 8) (size 9 to 14) (size 15 to 20)
#    0.000    1.667    5.000    2.000    2.333    0.000 
#   12.000    0.833    0.000    0.000    0.000    0.000 
#    0.000    0.000    0.000    0.000    0.000    0.000 
#
# Total GULP energy -267208.929239 kJ/mol
# GULP energy per Si atom -5566.852692 kJ/mol
# Density = 2.005443 g / cm^3
# Si number density = 20.100181 Si / 1000 Ang^3
#
#
#
# Elastic Constant Matrix: (Units=GPa)
#
#
# Indices 1 2 3 4 5 6 
#
# 1 76.9779 36.3205 64.5192 0.0000 0.0000 0.0000
# 2 36.3205 76.9779 64.5192 0.0000 0.0000 0.0000
# 3 64.5192 64.5192 142.8285 0.0000 0.0000 0.0000
# 4 0.0000 0.0000 0.0000 41.4079 0.0000 0.0000
# 5 0.0000 0.0000 0.0000 0.0000 41.4079 0.0000
# 6 0.0000 0.0000 0.0000 0.0000 0.0000 35.8743
#
#
#
# Elastic Compliance Matrix: (Units=1/GPa)
#
#
# Indices 1 2 3 4 5 6 
#
# 1 0.021387 -0.003208 -0.008212 0.000000 0.000000 0.000000
# 2 -0.003208 0.021387 -0.008212 0.000000 0.000000 0.000000
# 3 -0.008212 -0.008212 0.014420 0.000000 0.000000 0.000000
# 4 0.000000 0.000000 0.000000 0.024150 0.000000 0.000000
# 5 0.000000 0.000000 0.000000 0.000000 0.024150 0.000000
# 6 0.000000 0.000000 0.000000 0.000000 0.000000 0.027875
#
#
# Mechanical properties :
#
#
# Convention : Reuss Voigt Hill
#
# Bulk Modulus (GPa) = 55.76989 69.72245 62.74617
# Shear Modulus (GPa) = 27.99369 32.49970 30.24670
#
# Velocity S-wave (km/s) = 3.73595 4.02541 3.88338
# Velocity P-wave (km/s) = 6.81293 7.50787 7.16882
#
# Compressibility (1/GPa) = 0.01793082
#
# Stress axis : x y z
#
# Youngs Moduli (GPa) = 46.75654 46.75654 69.34598
#
# Poissons Ratio (x) = 0.15001 0.56946
# Poissons Ratio (y) = 0.15001 0.56946
# Poissons Ratio (z) = 0.38396 0.38396
#
# Static dielectric constant tensor:
#      x y z
#    x 1.760810 0.000000 0.000000 
#    y 0.000000 1.760810 0.000000 
#    z 0.000000 0.000000 1.779200 
# 
# From -- ./inp_files/3952.got.cif
#   From: 2010.05.17/outbox.cif.g08.bks.cpg/sg114_2_cif.got.tgz:3952.got - 2010.05.20 11:04:54.
