data_PCOD9556714
_publ_section_title
;
Structure prediction by ZEFSAII (Michael W. Deem and Ramdas Pophale) SiO2 
 PCOD9556714
Probable space group: P -4 M 2
;
_chemical_formula_sum "Si O2"
_cell_formula_units_Z 36
_cell_length_a 9.294904
_cell_length_b 9.294904
_cell_length_c 24.355452
_cell_angle_alpha 90.000000
_cell_angle_beta 90.000000
_cell_angle_gamma 90.000000
_cell_volume 2104.195130
_symmetry_space_group_name_H-M "P -4 M 2"
_symmetry_group_IT_number 115
_symmetry_cell_setting 'tetragonal'
loop_
_space_group_symop_operation_xyz
x,y,z
y,-x,-z
-x,-y,z
-y,x,-z
y,x,-z
-y,-x,-z
-x,y,z
x,-y,z
loop_
_atom_site_type_symbol
_atom_site_label
_atom_site_fract_x
_atom_site_fract_y
_atom_site_fract_z
Si Si1 0.675070 0.165959 0.170941
Si Si2 0.172652 0.172152 0.379724
Si Si3 0.172325 0.172325 0.500000
Si Si4 0.669117 0.327145 0.719750
Si Si5 0.173303 0.668511 0.951110
O O1 0.500000 0.165891 0.169530
O O2 0.719979 0.261577 0.222326
O O3 0.720217 0.216069 0.110170
O O4 0.720120 0.000000 0.179026
O O5 0.223938 0.224087 0.440411
O O6 0.251279 0.252028 0.330676
O O7 0.000000 0.193550 0.376480
O O8 0.197490 0.000000 0.376041
O O9 0.000000 0.194358 0.500143
O O10 0.500000 0.296178 0.718985
O O11 0.688345 0.500000 0.715507
O O12 0.212311 0.500000 0.956379
O O13 0.000000 0.677692 0.953208
O O14 0.243463 0.756538 0.000000
#
# Coordination Sequence:
#
# PCOD9556714 Si02
#       5
#     8   8   4   8   8
#     4   8  15  30  50  68  89 122 163 201 232 269
#     4   9  17  31  52  74  94 120 157 198 238 281
#     4   7  12  26  48  71  92 116 152 197 236 273
#     4  10  20  32  47  70  99 128 158 194 237 282
#     4   9  18  32  50  73  98 123 155 195 237 281
#
# _framework density 17.108678000000001
#
# number of rings (size 3 to 8) (size 9 to 14) (size 15 to 20)
#    0.000    3.222    0.000    3.333    0.000    3.111 
#    0.000    4.444    0.000    6.667    0.000    0.000 
#    0.000    0.000    0.000    0.000    0.000    0.000 
#
# Total GULP energy -200436.519664 kJ/mol
# GULP energy per Si atom -5567.681102 kJ/mol
# Density = 1.706974 g / cm^3
# Si number density = 17.108678 Si / 1000 Ang^3
#
#
#
# Elastic Constant Matrix: (Units=GPa)
#
#
# Indices 1 2 3 4 5 6 
#
# 1 36.4826 30.4463 65.0451 0.0000 0.0000 0.0000
# 2 30.4463 36.4807 65.0439 0.0000 0.0000 0.0000
# 3 65.0451 65.0439 222.3959 0.0000 0.0000 0.0000
# 4 0.0000 0.0000 0.0000 45.8173 0.0000 0.0000
# 5 0.0000 0.0000 0.0000 0.0000 45.8168 0.0000
# 6 0.0000 0.0000 0.0000 0.0000 0.0000 23.0481
#
#
#
# Elastic Compliance Matrix: (Units=1/GPa)
#
#
# Indices 1 2 3 4 5 6 
#
# 1 0.100155 -0.065533 -0.010126 0.000000 0.000000 0.000000
# 2 -0.065533 0.100162 -0.010128 0.000000 0.000000 0.000000
# 3 -0.010126 -0.010128 0.010420 0.000000 0.000000 0.000000
# 4 0.000000 0.000000 0.000000 0.021826 0.000000 0.000000
# 5 0.000000 0.000000 0.000000 0.000000 0.021826 0.000000
# 6 0.000000 0.000000 0.000000 0.000000 0.000000 0.043387
#
#
# Mechanical properties :
#
#
# Convention : Reuss Voigt Hill
#
# Bulk Modulus (GPa) = 25.53426 68.49220 47.01323
# Shear Modulus (GPa) = 10.36476 31.92471 21.14473
#
# Velocity S-wave (km/s) = 2.46401 4.32440 3.51936
# Velocity P-wave (km/s) = 4.80128 8.06563 6.63727
#
# Compressibility (1/GPa) = 0.03916307
#
# Stress axis : x y z
#
# Youngs Moduli (GPa) = 9.98456 9.98384 95.96788
#
# Poissons Ratio (x) = 0.65427 0.97180
# Poissons Ratio (y) = 0.65432 0.97192
# Poissons Ratio (z) = 0.10111 0.10111
#
# Static dielectric constant tensor:
#      x y z
#    x 1.566300 0.000000 0.000000 
#    y 0.000000 1.566300 0.000000 
#    z 0.000000 0.000000 1.600760 
# 
# From -- ./inp_files/5089.got.cif
#   From: 2010.05.17/outbox.cif.g08.bks.cpg/sg115_3_cif.got.tgz:5089.got - 2010.05.20 11:07:42.
