data_PCOD9556073
_publ_section_title
;
Structure prediction by ZEFSAII (Michael W. Deem and Ramdas Pophale) SiO2 
 PCOD9556073
Probable space group: P -4 21 C
;
_chemical_formula_sum "Si O2"
_cell_formula_units_Z 40
_cell_length_a 18.816819
_cell_length_b 18.816819
_cell_length_c 5.016604
_cell_angle_alpha 90.000000
_cell_angle_beta 90.000000
_cell_angle_gamma 90.000000
_cell_volume 1776.242409
_symmetry_space_group_name_H-M "P -4 21 C"
_symmetry_group_IT_number 114
_symmetry_cell_setting 'tetragonal'
loop_
_space_group_symop_operation_xyz
x,y,z
y,-x,-z
-x,-y,z
-y,x,-z
1/2+x,1/2-y,1/2-z
1/2-x,1/2+y,1/2-z
1/2-y,1/2-x,1/2+z
1/2+y,1/2+x,1/2+z
loop_
_atom_site_type_symbol
_atom_site_label
_atom_site_fract_x
_atom_site_fract_y
_atom_site_fract_z
Si Si1 0.386326 0.952698 0.043448
Si Si2 0.957996 0.107338 0.570656
Si Si3 0.766653 0.664868 0.452387
Si Si4 0.898786 0.174362 0.082427
Si Si5 0.830409 0.392729 0.340920
O O1 0.416924 0.941175 0.749295
O O2 0.370775 0.033097 0.117169
O O3 0.313554 0.906704 0.066667
O O4 0.939883 0.123937 0.874761
O O5 0.039522 0.087445 0.526081
O O6 0.934938 0.169777 0.370454
O O7 0.780785 0.699828 0.738916
O O8 0.684025 0.653025 0.401027
O O9 0.901252 0.251545 0.950675
O O10 0.835988 0.367810 0.037346
#
# Coordination Sequence:
#
# PCOD9556073 Si02
#       5
#     8   8   8   8   8
#     4  10  23  41  64  96 128 174 223 265 320 393
#     4  11  26  44  65  99 134 170 217 266 324 401
#     4  10  21  40  64  95 130 166 215 268 320 385
#     4  12  24  43  71  96 133 175 213 271 337 388
#     4  12  26  43  66 100 136 172 222 279 335 397
#
# _framework density 22.519449000000002
#
# number of rings (size 3 to 8) (size 9 to 14) (size 15 to 20)
#    0.000    1.000    0.000    6.000    5.600    4.000 
#    0.000    0.000    0.000    0.000    0.000    0.000 
#    0.000    0.000    0.000    0.000    0.000    0.000 
#
# Total GULP energy -224146.884051 kJ/mol
# GULP energy per Si atom -5603.672101 kJ/mol
# Density = 2.246819 g / cm^3
# Si number density = 22.519449 Si / 1000 Ang^3
#
#
#
# Elastic Constant Matrix: (Units=GPa)
#
#
# Indices 1 2 3 4 5 6 
#
# 1 366.0191 -323.9625 -7.6529 0.0000 0.0000 0.0000
# 2 -323.9625 366.0191 -7.6529 0.0000 0.0000 0.0000
# 3 -7.6529 -7.6529 64.6286 0.0000 0.0000 0.0000
# 4 0.0000 0.0000 0.0000 26.0786 0.0000 0.0000
# 5 0.0000 0.0000 0.0000 0.0000 26.0786 0.0000
# 6 0.0000 0.0000 0.0000 0.0000 0.0000 14.4965
#
#
#
# Elastic Compliance Matrix: (Units=1/GPa)
#
#
# Indices 1 2 3 4 5 6 
#
# 1 0.013149 0.011699 0.002942 0.000000 0.000000 0.000000
# 2 0.011699 0.013149 0.002942 0.000000 0.000000 0.000000
# 3 0.002942 0.002942 0.016170 0.000000 0.000000 0.000000
# 4 0.000000 0.000000 0.000000 0.038346 0.000000 0.000000
# 5 0.000000 0.000000 0.000000 0.000000 0.038346 0.000000
# 6 0.000000 0.000000 0.000000 0.000000 0.000000 0.068982
#
#
# Mechanical properties :
#
#
# Convention : Reuss Voigt Hill
#
# Bulk Modulus (GPa) = 12.88064 13.12559 13.00312
# Shear Modulus (GPa) = 27.95617 89.05971 58.50794
#
# Velocity S-wave (km/s) = 3.52721 6.29554 5.10269
# Velocity P-wave (km/s) = 4.72445 7.66069 6.36422
#
# Compressibility (1/GPa) = 0.07763589
#
# Stress axis : x y z
#
# Youngs Moduli (GPa) = 76.05253 76.05253 61.84345
#
# Poissons Ratio (x) = -0.88978 -0.18197
# Poissons Ratio (y) = -0.88978 -0.18197
# Poissons Ratio (z) = -0.22377 -0.22377
#
# Static dielectric constant tensor:
#      x y z
#    x 1.818280 0.000000 0.000000 
#    y 0.000000 1.818280 0.000000 
#    z 0.000000 0.000000 1.778100 
# 
# From -- ./inp_files/156.got.cif
#   From: 2010.05.17/outbox.cif.g08.bks.cpg/sg114_1_cif.got.tgz:156.got - 2010.05.20 11:04:54.
