data_PCOD9556186
_publ_section_title
;
Structure prediction by ZEFSAII (Michael W. Deem and Ramdas Pophale) SiO2 
 PCOD9556186
Probable space group: P -4 21 C
;
_chemical_formula_sum "Si O2"
_cell_formula_units_Z 48
_cell_length_a 8.213356
_cell_length_b 8.213356
_cell_length_c 33.521086
_cell_angle_alpha 90.000000
_cell_angle_beta 90.000000
_cell_angle_gamma 90.000000
_cell_volume 2261.306207
_symmetry_space_group_name_H-M "P -4 21 C"
_symmetry_group_IT_number 114
_symmetry_cell_setting 'tetragonal'
loop_
_space_group_symop_operation_xyz
x,y,z
y,-x,-z
-x,-y,z
-y,x,-z
1/2+x,1/2-y,1/2-z
1/2-x,1/2+y,1/2-z
1/2-y,1/2-x,1/2+z
1/2+y,1/2+x,1/2+z
loop_
_atom_site_type_symbol
_atom_site_label
_atom_site_fract_x
_atom_site_fract_y
_atom_site_fract_z
Si Si1 0.595279 0.334704 0.667744
Si Si2 0.403974 0.250359 0.492290
Si Si3 0.311513 0.980806 0.772502
Si Si4 0.000000 0.000000 0.368218
Si Si5 0.500000 0.000000 0.053820
Si Si6 0.287987 0.135219 0.689266
Si Si7 0.232244 0.229594 0.409771
O O1 0.500000 0.500000 0.658792
O O2 0.698558 0.381276 0.707013
O O3 0.464677 0.187786 0.671506
O O4 0.715748 0.314267 0.631110
O O5 0.303393 0.407475 0.506701
O O6 0.346687 0.207146 0.447989
O O7 0.389335 0.108478 0.524413
O O8 0.296366 0.005210 0.725108
O O9 0.500000 0.000000 0.783184
O O10 0.260555 0.805916 0.789502
O O11 0.929077 0.149796 0.341337
O O12 0.136697 0.069577 0.397392
O O13 0.611867 0.120997 0.078973
#
# Coordination Sequence:
#
# PCOD9556186 Si02
#       7
#     8   8   8   4   4   8   8
#     4  10  24  43  66 101 128 179 226 287 348 397
#     4   9  21  42  70  99 128 171 224 272 335 417
#     4  11  24  42  70  96 131 180 233 293 336 417
#     4  12  28  42  63 104 144 184 224 284 351 408
#     4  10  22  42  70 100 130 174 222 272 348 408
#     4  11  26  43  68  96 140 184 237 281 346 410
#     4  11  24  43  67  96 137 174 220 282 338 409
#
# _framework density 21.226671
#
# number of rings (size 3 to 8) (size 9 to 14) (size 15 to 20)
#    0.000    1.500    0.000    3.000   15.167    2.667 
#    7.500    0.000    0.000    0.000    0.000    0.000 
#    0.000    0.000    0.000    0.000    0.000    0.000 
#
# Total GULP energy -268236.213474 kJ/mol
# GULP energy per Si atom -5588.254447 kJ/mol
# Density = 2.117836 g / cm^3
# Si number density = 21.226671 Si / 1000 Ang^3
#
#
#
# Elastic Constant Matrix: (Units=GPa)
#
#
# Indices 1 2 3 4 5 6 
#
# 1 71.6235 9.9398 25.5284 0.0000 0.0000 0.0000
# 2 9.9398 71.6235 25.5284 0.0000 0.0000 0.0000
# 3 25.5284 25.5284 98.2845 0.0000 0.0000 0.0000
# 4 0.0000 0.0000 0.0000 34.6291 0.0000 0.0000
# 5 0.0000 0.0000 0.0000 0.0000 34.6291 0.0000
# 6 0.0000 0.0000 0.0000 0.0000 0.0000 27.6081
#
#
#
# Elastic Compliance Matrix: (Units=1/GPa)
#
#
# Indices 1 2 3 4 5 6 
#
# 1 0.015426 -0.000785 -0.003803 0.000000 0.000000 0.000000
# 2 -0.000785 0.015426 -0.003803 0.000000 0.000000 0.000000
# 3 -0.003803 -0.003803 0.012150 0.000000 0.000000 0.000000
# 4 0.000000 0.000000 0.000000 0.028877 0.000000 0.000000
# 5 0.000000 0.000000 0.000000 0.000000 0.028877 0.000000
# 6 0.000000 0.000000 0.000000 0.000000 0.000000 0.036221
#
#
# Mechanical properties :
#
#
# Convention : Reuss Voigt Hill
#
# Bulk Modulus (GPa) = 38.13804 40.39163 39.26484
# Shear Modulus (GPa) = 30.76902 31.40893 31.08898
#
# Velocity S-wave (km/s) = 3.81142 3.85085 3.83119
# Velocity P-wave (km/s) = 6.11353 6.23234 6.17322
#
# Compressibility (1/GPa) = 0.02622054
#
# Stress axis : x y z
#
# Youngs Moduli (GPa) = 64.82427 64.82427 82.30425
#
# Poissons Ratio (x) = 0.05091 0.31299
# Poissons Ratio (y) = 0.05091 0.31299
# Poissons Ratio (z) = 0.24652 0.24652
#
# Static dielectric constant tensor:
#      x y z
#    x 1.787200 0.000000 0.000000 
#    y 0.000000 1.787200 0.000000 
#    z 0.000000 0.000000 1.726170 
# 
# From -- ./inp_files/4005.got.cif
#   From: 2010.05.17/outbox.cif.g08.bks.cpg/sg114_3_cif.got.tgz:4005.got - 2010.05.20 11:04:54.
