data_PCOD9556047
_publ_section_title
;
Structure prediction by ZEFSAII (Michael W. Deem and Ramdas Pophale) SiO2 
 PCOD9556047
Probable space group: P -4 21 C
;
_chemical_formula_sum "Si O2"
_cell_formula_units_Z 54
_cell_length_a 11.554723
_cell_length_b 11.554723
_cell_length_c 21.647177
_cell_angle_alpha 90.000000
_cell_angle_beta 90.000000
_cell_angle_gamma 90.000000
_cell_volume 2890.149748
_symmetry_space_group_name_H-M "P -4 21 C"
_symmetry_group_IT_number 114
_symmetry_cell_setting 'tetragonal'
loop_
_space_group_symop_operation_xyz
x,y,z
y,-x,-z
-x,-y,z
-y,x,-z
1/2+x,1/2-y,1/2-z
1/2-x,1/2+y,1/2-z
1/2-y,1/2-x,1/2+z
1/2+y,1/2+x,1/2+z
loop_
_atom_site_type_symbol
_atom_site_label
_atom_site_fract_x
_atom_site_fract_y
_atom_site_fract_z
Si Si1 0.676417 0.015648 0.325641
Si Si2 0.359566 0.778908 0.409727
Si Si3 0.629788 0.544208 0.265008
Si Si4 0.267798 0.406826 0.448957
Si Si5 0.751960 0.387440 0.646421
Si Si6 0.695817 0.913571 0.142333
Si Si7 0.000000 0.000000 0.000000
Si Si8 0.500000 0.000000 0.223377
O O1 0.655717 0.091635 0.385493
O O2 0.804517 0.032787 0.299581
O O3 0.643196 0.883434 0.338078
O O4 0.591996 0.059105 0.269858
O O5 0.369966 0.770776 0.483262
O O6 0.482468 0.738464 0.380360
O O7 0.252940 0.702284 0.384345
O O8 0.500000 0.500000 0.262557
O O9 0.628427 0.672667 0.293312
O O10 0.706381 0.467421 0.312288
O O11 0.302030 0.299958 0.405601
O O12 0.183438 0.493380 0.412997
O O13 0.386902 0.479394 0.459002
O O14 0.576830 0.914495 0.181116
#
# Coordination Sequence:
#
# PCOD9556047 Si02
#       8
#     8   8   8   8   8   8   2   4
#     4  11  25  39  60  92 128 169 197 253 317 370
#     4  12  20  37  63  89 125 161 202 249 318 370
#     4  10  22  38  64  88 118 159 211 251 304 360
#     4  11  21  36  61  90 116 155 205 265 303 362
#     4  11  21  39  61  91 127 157 206 257 305 364
#     4  10  21  38  61  91 118 159 201 263 316 356
#     4  12  16  32  60  88 116 136 212 264 296 350
#     4  10  22  42  54  88 132 154 206 248 310 378
#
# _framework density 18.684153999999999
#
# number of rings (size 3 to 8) (size 9 to 14) (size 15 to 20)
#    0.000    1.185    5.926    0.000    6.222    0.000 
#    8.000    0.000    0.000    0.000    0.000    0.000 
#    0.000    0.000    0.000    0.000    0.000    0.000 
#
# Total GULP energy -301510.637273 kJ/mol
# GULP energy per Si atom -5583.530320 kJ/mol
# Density = 1.864163 g / cm^3
# Si number density = 18.684154 Si / 1000 Ang^3
#
#
#
# Elastic Constant Matrix: (Units=GPa)
#
#
# Indices 1 2 3 4 5 6 
#
# 1 91.1841 36.5997 40.1672 0.0000 0.0000 0.0000
# 2 36.5997 91.1841 40.1672 0.0000 0.0000 0.0000
# 3 40.1672 40.1672 90.8397 0.0000 0.0000 0.0000
# 4 0.0000 0.0000 0.0000 21.8506 0.0000 0.0000
# 5 0.0000 0.0000 0.0000 0.0000 21.8506 0.0000
# 6 0.0000 0.0000 0.0000 0.0000 0.0000 12.3326
#
#
#
# Elastic Compliance Matrix: (Units=1/GPa)
#
#
# Indices 1 2 3 4 5 6 
#
# 1 0.014579 -0.003741 -0.004793 0.000000 0.000000 0.000000
# 2 -0.003741 0.014579 -0.004793 0.000000 0.000000 0.000000
# 3 -0.004793 -0.004793 0.015247 0.000000 0.000000 0.000000
# 4 0.000000 0.000000 0.000000 0.045765 0.000000 0.000000
# 5 0.000000 0.000000 0.000000 0.000000 0.045765 0.000000
# 6 0.000000 0.000000 0.000000 0.000000 0.000000 0.081086
#
#
# Mechanical properties :
#
#
# Convention : Reuss Voigt Hill
#
# Bulk Modulus (GPa) = 56.32626 56.34177 56.33401
# Shear Modulus (GPa) = 20.03269 21.62504 20.82886
#
# Velocity S-wave (km/s) = 3.27796 3.40575 3.34247
# Velocity P-wave (km/s) = 6.67373 6.75913 6.71657
#
# Compressibility (1/GPa) = 0.01775371
#
# Stress axis : x y z
#
# Youngs Moduli (GPa) = 68.58956 68.58956 65.58764
#
# Poissons Ratio (x) = 0.25658 0.31434
# Poissons Ratio (y) = 0.25658 0.31434
# Poissons Ratio (z) = 0.32872 0.32872
#
# Static dielectric constant tensor:
#      x y z
#    x 1.653260 0.000000 0.000000 
#    y 0.000000 1.653260 0.000000 
#    z 0.000000 0.000000 1.663690 
# 
# From -- ./inp_files/3187.got.cif
#   From: 2010.05.17/outbox.cif.g08.bks.cpg/sg114_2_cif.got.tgz:3187.got - 2010.05.20 11:04:54.
