data_PCOD9556159
_publ_section_title
;
Structure prediction by ZEFSAII (Michael W. Deem and Ramdas Pophale) SiO2 
 PCOD9556159
Probable space group: P -4 21 C
;
_chemical_formula_sum "Si O2"
_cell_formula_units_Z 36
_cell_length_a 11.622727
_cell_length_b 11.622727
_cell_length_c 12.452362
_cell_angle_alpha 90.000000
_cell_angle_beta 90.000000
_cell_angle_gamma 90.000000
_cell_volume 1682.161975
_symmetry_space_group_name_H-M "P -4 21 C"
_symmetry_group_IT_number 114
_symmetry_cell_setting 'tetragonal'
loop_
_space_group_symop_operation_xyz
x,y,z
y,-x,-z
-x,-y,z
-y,x,-z
1/2+x,1/2-y,1/2-z
1/2-x,1/2+y,1/2-z
1/2-y,1/2-x,1/2+z
1/2+y,1/2+x,1/2+z
loop_
_atom_site_type_symbol
_atom_site_label
_atom_site_fract_x
_atom_site_fract_y
_atom_site_fract_z
Si Si1 0.741868 0.309592 0.384216
Si Si2 0.197832 0.477400 0.506870
Si Si3 0.500000 0.000000 0.141939
Si Si4 0.675735 0.438821 0.011296
Si Si5 0.160851 0.622074 0.185096
O O1 0.734457 0.444215 0.420187
O O2 0.631189 0.253581 0.437653
O O3 0.855968 0.250969 0.435210
O O4 0.755817 0.296725 0.256058
O O5 0.172654 0.571005 0.600000
O O6 0.084820 0.436630 0.441430
O O7 0.581723 0.932271 0.222928
O O8 0.753816 0.458281 0.116748
O O9 0.559176 0.367255 0.036723
#
# Coordination Sequence:
#
# PCOD9556159 Si02
#       5
#     8   8   4   8   8
#     4  10  24  41  68  94 134 178 222 284 344 404
#     4  10  23  42  63 100 134 173 222 286 329 408
#     4  10  22  40  70 100 132 172 232 278 334 408
#     4  10  24  45  64  97 138 175 226 288 347 408
#     4  10  23  41  67 103 125 184 226 272 348 403
#
# _framework density 21.401032000000001
#
# number of rings (size 3 to 8) (size 9 to 14) (size 15 to 20)
#    0.000    2.000    0.000    0.667   15.556    2.222 
#    8.000    0.000    0.000    0.000    0.000    0.000 
#    0.000    0.000    0.000    0.000    0.000    0.000 
#
# Total GULP energy -200596.732282 kJ/mol
# GULP energy per Si atom -5572.131452 kJ/mol
# Density = 2.135232 g / cm^3
# Si number density = 21.401032 Si / 1000 Ang^3
#
#
#
# Elastic Constant Matrix: (Units=GPa)
#
#
# Indices 1 2 3 4 5 6 
#
# 1 85.9698 21.0511 26.8575 0.0000 0.0000 0.0000
# 2 21.0511 85.9698 26.8575 0.0000 0.0000 0.0000
# 3 26.8575 26.8575 96.2635 0.0000 0.0000 0.0000
# 4 0.0000 0.0000 0.0000 27.7319 0.0000 0.0000
# 5 0.0000 0.0000 0.0000 0.0000 27.7319 0.0000
# 6 0.0000 0.0000 0.0000 0.0000 0.0000 32.7641
#
#
#
# Elastic Compliance Matrix: (Units=1/GPa)
#
#
# Indices 1 2 3 4 5 6 
#
# 1 0.013135 -0.002269 -0.003031 0.000000 0.000000 0.000000
# 2 -0.002269 0.013135 -0.003031 0.000000 0.000000 0.000000
# 3 -0.003031 -0.003031 0.012080 0.000000 0.000000 0.000000
# 4 0.000000 0.000000 0.000000 0.036060 0.000000 0.000000
# 5 0.000000 0.000000 0.000000 0.000000 0.036060 0.000000
# 6 0.000000 0.000000 0.000000 0.000000 0.000000 0.030521
#
#
# Mechanical properties :
#
#
# Convention : Reuss Voigt Hill
#
# Bulk Modulus (GPa) = 46.11523 46.41506 46.26515
# Shear Modulus (GPa) = 30.32471 30.54137 30.43304
#
# Velocity S-wave (km/s) = 3.76836 3.78179 3.77508
# Velocity P-wave (km/s) = 6.36623 6.38785 6.37705
#
# Compressibility (1/GPa) = 0.02168481
#
# Stress axis : x y z
#
# Youngs Moduli (GPa) = 76.13428 76.13428 82.78335
#
# Poissons Ratio (x) = 0.17276 0.25096
# Poissons Ratio (y) = 0.17276 0.25096
# Poissons Ratio (z) = 0.23080 0.23080
#
# Static dielectric constant tensor:
#      x y z
#    x 1.841060 0.000000 0.000000 
#    y 0.000000 1.841060 0.000000 
#    z 0.000000 0.000000 1.811730 
# 
# From -- ./inp_files/1476.got.cif
#   From: 2010.05.17/outbox.cif.g08.bks.cpg/sg114_1_cif.got.tgz:1476.got - 2010.05.20 11:04:54.
