data_PCOD9556019
_publ_section_title
;
Structure prediction by ZEFSAII (Michael W. Deem and Ramdas Pophale) SiO2 
 PCOD9556019
Probable space group: P -4 21 C
;
_chemical_formula_sum "Si O2"
_cell_formula_units_Z 44
_cell_length_a 8.918748
_cell_length_b 8.918748
_cell_length_c 26.556333
_cell_angle_alpha 90.000000
_cell_angle_beta 90.000000
_cell_angle_gamma 90.000000
_cell_volume 2112.398702
_symmetry_space_group_name_H-M "P -4 21 C"
_symmetry_group_IT_number 114
_symmetry_cell_setting 'tetragonal'
loop_
_space_group_symop_operation_xyz
x,y,z
y,-x,-z
-x,-y,z
-y,x,-z
1/2+x,1/2-y,1/2-z
1/2-x,1/2+y,1/2-z
1/2-y,1/2-x,1/2+z
1/2+y,1/2+x,1/2+z
loop_
_atom_site_type_symbol
_atom_site_label
_atom_site_fract_x
_atom_site_fract_y
_atom_site_fract_z
Si Si1 0.500000 0.500000 0.752748
Si Si2 0.243192 0.930999 0.005549
Si Si3 0.692722 0.152998 0.901155
Si Si4 0.172748 0.096136 0.834297
Si Si5 0.334777 0.022895 0.113294
Si Si6 0.322408 0.015721 0.305873
O O1 0.637069 0.509828 0.713163
O O2 0.525417 0.336981 0.779137
O O3 0.345878 0.878517 0.959017
O O4 0.097463 0.823127 0.004590
O O5 0.319481 0.936475 0.059915
O O6 0.805256 0.292806 0.897114
O O7 0.565646 0.171574 0.859893
O O8 0.784784 0.007401 0.881481
O O9 0.310172 0.195397 0.817154
O O10 0.042227 0.207884 0.850260
O O11 0.500000 0.000000 0.134017
O O12 0.500000 0.000000 0.285884
#
# Coordination Sequence:
#
# PCOD9556019 Si02
#       6
#     4   8   8   8   8   8
#     4  12  26  44  70  91 133 170 230 286 336 400
#     4   9  17  34  65  92 127 167 214 261 325 398
#     4  10  20  44  64  92 129 169 215 270 330 403
#     4  11  23  43  62  91 127 165 215 276 327 397
#     4  11  22  35  64 101 128 167 216 272 331 403
#     4  10  27  44  68  93 124 179 225 275 348 402
#
# _framework density 20.829398999999999
#
# number of rings (size 3 to 8) (size 9 to 14) (size 15 to 20)
#    0.000    1.636    3.636    0.000    7.636    2.909 
#    0.000    0.000    0.000    0.000    0.000    0.000 
#    0.000    0.000    0.000    0.000    0.000    0.000 
#
# Total GULP energy -245016.711491 kJ/mol
# GULP energy per Si atom -5568.561625 kJ/mol
# Density = 2.078199 g / cm^3
# Si number density = 20.829399 Si / 1000 Ang^3
#
#
#
# Elastic Constant Matrix: (Units=GPa)
#
#
# Indices 1 2 3 4 5 6 
#
# 1 60.8465 1.4692 32.9002 0.0000 0.0000 0.0000
# 2 1.4692 60.8465 32.9002 0.0000 0.0000 0.0000
# 3 32.9002 32.9002 94.4894 0.0000 0.0000 0.0000
# 4 0.0000 0.0000 0.0000 23.5815 0.0000 0.0000
# 5 0.0000 0.0000 0.0000 0.0000 23.5815 0.0000
# 6 0.0000 0.0000 0.0000 0.0000 0.0000 22.9521
#
#
#
# Elastic Compliance Matrix: (Units=1/GPa)
#
#
# Indices 1 2 3 4 5 6 
#
# 1 0.021110 0.004268 -0.008836 0.000000 0.000000 0.000000
# 2 0.004268 0.021110 -0.008836 0.000000 0.000000 0.000000
# 3 -0.008836 -0.008836 0.016737 0.000000 0.000000 0.000000
# 4 0.000000 0.000000 0.000000 0.042406 0.000000 0.000000
# 5 0.000000 0.000000 0.000000 0.000000 0.042406 0.000000
# 6 0.000000 0.000000 0.000000 0.000000 0.000000 0.043569
#
#
# Mechanical properties :
#
#
# Convention : Reuss Voigt Hill
#
# Bulk Modulus (GPa) = 31.10710 38.96907 35.03809
# Shear Modulus (GPa) = 22.23593 23.95055 23.09324
#
# Velocity S-wave (km/s) = 3.27085 3.39461 3.33330
# Velocity P-wave (km/s) = 5.40659 5.84070 5.62784
#
# Compressibility (1/GPa) = 0.03214700
#
# Stress axis : x y z
#
# Youngs Moduli (GPa) = 47.37186 47.37186 59.74938
#
# Poissons Ratio (x) = -0.20219 0.52796
# Poissons Ratio (y) = -0.20219 0.52796
# Poissons Ratio (z) = 0.41859 0.41859
#
# Static dielectric constant tensor:
#      x y z
#    x 1.788570 0.000000 0.000000 
#    y 0.000000 1.788570 0.000000 
#    z 0.000000 0.000000 1.752930 
# 
# From -- ./inp_files/3848.got.cif
#   From: 2010.05.17/outbox.cif.g08.bks.cpg/sg114_2_cif.got.tgz:3848.got - 2010.05.20 11:04:54.
