data_PCOD9556557
_publ_section_title
;
Structure prediction by ZEFSAII (Michael W. Deem and Ramdas Pophale) SiO2 
 PCOD9556557
Probable space group: P -4 M 2
;
_chemical_formula_sum "Si O2"
_cell_formula_units_Z 36
_cell_length_a 13.855236
_cell_length_b 13.855236
_cell_length_c 10.454417
_cell_angle_alpha 90.000000
_cell_angle_beta 90.000000
_cell_angle_gamma 90.000000
_cell_volume 2006.908971
_symmetry_space_group_name_H-M "P -4 M 2"
_symmetry_group_IT_number 115
_symmetry_cell_setting 'tetragonal'
loop_
_space_group_symop_operation_xyz
x,y,z
y,-x,-z
-x,-y,z
-y,x,-z
y,x,-z
-y,-x,-z
-x,y,z
x,-y,z
loop_
_atom_site_type_symbol
_atom_site_label
_atom_site_fract_x
_atom_site_fract_y
_atom_site_fract_z
Si Si1 0.117554 0.612065 0.434160
Si Si2 0.382566 0.110587 0.280620
Si Si3 0.612378 0.232309 0.034837
Si Si4 0.710394 0.884734 0.821627
Si Si5 0.886938 0.113063 0.000000
O O1 0.147742 0.500000 0.413138
O O2 0.144601 0.644860 0.577125
O O3 0.150447 0.681246 0.319477
O O4 0.000000 0.610883 0.435438
O O5 0.500000 0.106491 0.281312
O O6 0.355536 0.182191 0.167147
O O7 0.348889 0.000000 0.258108
O O8 0.500000 0.254615 0.043279
O O9 0.675366 0.324635 0.000000
O O10 0.633832 0.156518 0.922319
O O11 0.815263 0.863420 0.882782
O O12 0.702966 0.000000 0.818590
O O13 0.000000 0.126701 0.967112
#
# Coordination Sequence:
#
# PCOD9556557 Si02
#       5
#     8   8   8   8   4
#     4   8  14  26  48  80 111 134 161 210 270 311
#     4   8  15  30  52  78 107 134 165 213 270 317
#     4  11  22  35  51  75 104 137 176 215 262 313
#     4  10  18  31  54  81 106 133 172 217 258 302
#     4   9  18  32  50  76 113 148 174 204 249 312
#
# _framework density 17.938033999999998
#
# number of rings (size 3 to 8) (size 9 to 14) (size 15 to 20)
#    0.000    2.778    1.111    2.667    0.000    2.444 
#    0.000    1.111    0.000    0.000    0.000    3.111 
#    0.000   16.000    0.000    0.000    0.000    0.000 
#
# Total GULP energy -200625.446577 kJ/mol
# GULP energy per Si atom -5572.929072 kJ/mol
# Density = 1.789721 g / cm^3
# Si number density = 17.938034 Si / 1000 Ang^3
#
#
#
# Elastic Constant Matrix: (Units=GPa)
#
#
# Indices 1 2 3 4 5 6 
#
# 1 74.4557 42.8287 63.5035 0.0000 0.0000 0.0000
# 2 42.8287 74.4554 63.5031 0.0000 0.0000 0.0000
# 3 63.5035 63.5031 183.7664 0.0000 0.0000 0.0000
# 4 0.0000 0.0000 0.0000 5.9837 0.0000 0.0000
# 5 0.0000 0.0000 0.0000 0.0000 5.9690 0.0000
# 6 0.0000 0.0000 0.0000 0.0000 0.0000 24.2962
#
#
#
# Elastic Compliance Matrix: (Units=1/GPa)
#
#
# Indices 1 2 3 4 5 6 
#
# 1 0.022622 -0.008997 -0.004708 0.000000 0.000000 0.000000
# 2 -0.008997 0.022622 -0.004708 0.000000 0.000000 0.000000
# 3 -0.004708 -0.004708 0.008696 0.000000 0.000000 0.000000
# 4 0.000000 0.000000 0.000000 0.167122 0.000000 0.000000
# 5 0.000000 0.000000 0.000000 0.000000 0.167533 0.000000
# 6 0.000000 0.000000 0.000000 0.000000 0.000000 0.041159
#
#
# Mechanical properties :
#
#
# Convention : Reuss Voigt Hill
#
# Bulk Modulus (GPa) = 58.43736 74.70535 66.57135
# Shear Modulus (GPa) = 10.58685 18.10591 14.34638
#
# Velocity S-wave (km/s) = 2.43202 3.18049 2.83110
# Velocity P-wave (km/s) = 6.36666 7.43129 6.91948
#
# Compressibility (1/GPa) = 0.01711234
#
# Stress axis : x y z
#
# Youngs Moduli (GPa) = 44.20519 44.20520 114.99895
#
# Poissons Ratio (x) = 0.39771 0.54145
# Poissons Ratio (y) = 0.39771 0.54144
# Poissons Ratio (z) = 0.20813 0.20813
#
# Static dielectric constant tensor:
#      x y z
#    x 1.621810 0.000000 0.000000 
#    y 0.000000 1.621810 0.000000 
#    z 0.000000 0.000000 1.633650 
# 
# From -- ./inp_files/1507.got.cif
#   From: 2010.05.17/outbox.cif.g08.bks.cpg/sg115_1_cif.got.tgz:1507.got - 2010.05.20 11:07:42.
