data_PCOD9556173
_publ_section_title
;
Structure prediction by ZEFSAII (Michael W. Deem and Ramdas Pophale) SiO2 
 PCOD9556173
Probable space group: P -4 21 C
;
_chemical_formula_sum "Si O2"
_cell_formula_units_Z 34
_cell_length_a 9.540165
_cell_length_b 9.540165
_cell_length_c 17.997312
_cell_angle_alpha 90.000000
_cell_angle_beta 90.000000
_cell_angle_gamma 90.000000
_cell_volume 1638.020820
_symmetry_space_group_name_H-M "P -4 21 C"
_symmetry_group_IT_number 114
_symmetry_cell_setting 'tetragonal'
loop_
_space_group_symop_operation_xyz
x,y,z
y,-x,-z
-x,-y,z
-y,x,-z
1/2+x,1/2-y,1/2-z
1/2-x,1/2+y,1/2-z
1/2-y,1/2-x,1/2+z
1/2+y,1/2+x,1/2+z
loop_
_atom_site_type_symbol
_atom_site_label
_atom_site_fract_x
_atom_site_fract_y
_atom_site_fract_z
Si Si1 0.660798 0.020892 0.442135
Si Si2 0.000000 0.000000 0.000000
Si Si3 0.185000 0.772561 0.987101
Si Si4 0.083161 0.351844 0.718973
Si Si5 0.144341 0.089588 0.178825
O O1 0.702570 0.884952 0.486860
O O2 0.500000 0.000000 0.424345
O O3 0.669240 0.159328 0.490583
O O4 0.723323 0.046554 0.360556
O O5 0.864544 0.923062 0.964118
O O6 0.126266 0.796941 0.903858
O O7 0.253979 0.370036 0.717177
O O8 0.000000 0.500000 0.725833
O O9 0.013467 0.253813 0.780854
O O10 0.000000 0.000000 0.177653
#
# Coordination Sequence:
#
# PCOD9556173 Si02
#       5
#     8   2   8   8   8
#     4  10  22  42  62  94 135 171 220 274 342 392
#     4  12  20  36  68  92 120 172 216 270 336 396
#     4  11  23  40  67  95 130 176 221 282 330 415
#     4  10  23  43  66  91 136 180 217 284 339 411
#     4  11  23  43  68 101 133 177 230 277 349 420
#
# _framework density 20.756755999999999
#
# number of rings (size 3 to 8) (size 9 to 14) (size 15 to 20)
#    0.000    1.412    3.529    1.412    0.000    3.294 
#   12.706    0.000    0.000    0.000    0.000    0.000 
#    0.000    0.000    0.000    0.000    0.000    0.000 
#
# Total GULP energy -189280.017791 kJ/mol
# GULP energy per Si atom -5567.059347 kJ/mol
# Density = 2.070951 g / cm^3
# Si number density = 20.756756 Si / 1000 Ang^3
#
#
#
# Elastic Constant Matrix: (Units=GPa)
#
#
# Indices 1 2 3 4 5 6 
#
# 1 157.9317 55.0903 52.3923 0.0000 0.0000 0.0000
# 2 55.0903 157.9317 52.3923 0.0000 0.0000 0.0000
# 3 52.3923 52.3923 59.6187 0.0000 0.0000 0.0000
# 4 0.0000 0.0000 0.0000 34.5514 0.0000 0.0000
# 5 0.0000 0.0000 0.0000 0.0000 34.5514 0.0000
# 6 0.0000 0.0000 0.0000 0.0000 0.0000 29.8968
#
#
#
# Elastic Compliance Matrix: (Units=1/GPa)
#
#
# Indices 1 2 3 4 5 6 
#
# 1 0.008996 -0.000728 -0.007266 0.000000 0.000000 0.000000
# 2 -0.000728 0.008996 -0.007266 0.000000 0.000000 0.000000
# 3 -0.007266 -0.007266 0.029545 0.000000 0.000000 0.000000
# 4 0.000000 0.000000 0.000000 0.028942 0.000000 0.000000
# 5 0.000000 0.000000 0.000000 0.000000 0.028942 0.000000
# 6 0.000000 0.000000 0.000000 0.000000 0.000000 0.033448
#
#
# Mechanical properties :
#
#
# Convention : Reuss Voigt Hill
#
# Bulk Modulus (GPa) = 58.76745 77.24798 68.00772
# Shear Modulus (GPa) = 28.56116 34.17372 31.36744
#
# Velocity S-wave (km/s) = 3.71346 4.06198 3.89162
# Velocity P-wave (km/s) = 6.83815 7.70040 7.28205
#
# Compressibility (1/GPa) = 0.01701622
#
# Stress axis : x y z
#
# Youngs Moduli (GPa) = 111.15814 111.15814 33.84720
#
# Poissons Ratio (x) = 0.08087 0.24595
# Poissons Ratio (y) = 0.08087 0.24595
# Poissons Ratio (z) = 0.80772 0.80772
#
# Static dielectric constant tensor:
#      x y z
#    x 1.687760 0.000000 0.000000 
#    y 0.000000 1.687760 0.000000 
#    z 0.000000 0.000000 2.006700 
# 
# From -- ./inp_files/2959.got.cif
#   From: 2010.05.17/outbox.cif.g08.bks.cpg/sg114_2_cif.got.tgz:2959.got - 2010.05.20 11:04:54.
