data_PCOD9556914
_publ_section_title
;
Structure prediction by ZEFSAII (Michael W. Deem and Ramdas Pophale) SiO2 
 PCOD9556914
Probable space group: P -4 M 2
;
_chemical_formula_sum "Si O2"
_cell_formula_units_Z 37
_cell_length_a 8.040652
_cell_length_b 8.040652
_cell_length_c 27.703308
_cell_angle_alpha 90.000000
_cell_angle_beta 90.000000
_cell_angle_gamma 90.000000
_cell_volume 1791.076612
_symmetry_space_group_name_H-M "P -4 M 2"
_symmetry_group_IT_number 115
_symmetry_cell_setting 'tetragonal'
loop_
_space_group_symop_operation_xyz
x,y,z
y,-x,-z
-x,-y,z
-y,x,-z
y,x,-z
-y,-x,-z
-x,y,z
x,-y,z
loop_
_atom_site_type_symbol
_atom_site_label
_atom_site_fract_x
_atom_site_fract_y
_atom_site_fract_z
Si Si1 0.202311 0.500000 0.075767
Si Si2 0.691305 0.696762 0.652574
Si Si3 0.800508 0.691700 0.244970
Si Si4 0.202072 0.817640 0.142209
Si Si5 0.500000 0.500000 0.000000
Si Si6 0.196418 0.312471 0.448516
O O1 0.241522 0.663453 0.107814
O O2 0.330303 0.500000 0.031522
O O3 0.000000 0.500000 0.065363
O O4 0.500000 0.766337 0.651243
O O5 0.681891 0.500000 0.655673
O O6 0.766720 0.758147 0.702840
O O7 0.769830 0.739666 0.600888
O O8 0.738469 0.500000 0.243880
O O9 0.739631 0.783054 0.196979
O O10 0.000000 0.685687 0.241849
O O11 0.000000 0.821330 0.143727
O O12 0.259392 0.000000 0.125783
O O13 0.233366 0.233366 0.500000
O O14 0.268486 0.500000 0.450357
O O15 0.000000 0.321797 0.443289
#
# Coordination Sequence:
#
# PCOD9556914 Si02
#       6
#     4   8   8   8   1   8
#     4  10  22  44  66  92 132 168 210 263 307 358
#     4   9  17  29  47  74 104 138 179 227 284 343
#     4   9  15  27  49  77 111 150 189 234 287 347
#     4   9  17  33  60  90 121 163 207 246 300 361
#     4  12  28  44  68 104 124 172 220 256 314 360
#     4  10  20  34  52  73  97 132 180 230 282 343
#
# _framework density 20.657964
#
# number of rings (size 3 to 8) (size 9 to 14) (size 15 to 20)
#    0.000    2.595    1.081    1.297    0.000    4.757 
#    1.946    1.081    0.000    3.892    0.000    0.000 
#    0.000    0.000    0.000    0.000    0.000    0.000 
#
# Total GULP energy -206218.808271 kJ/mol
# GULP energy per Si atom -5573.481305 kJ/mol
# Density = 2.061095 g / cm^3
# Si number density = 20.657964 Si / 1000 Ang^3
#
#
#
# Elastic Constant Matrix: (Units=GPa)
#
#
# Indices 1 2 3 4 5 6 
#
# 1 69.9070 17.3193 55.3687 0.0000 0.0000 0.0000
# 2 17.3193 69.9070 55.3687 0.0000 0.0000 0.0000
# 3 55.3687 55.3687 170.9970 0.0000 0.0000 0.0000
# 4 0.0000 0.0000 0.0000 13.8360 0.0000 0.0000
# 5 0.0000 0.0000 0.0000 0.0000 13.8360 0.0000
# 6 0.0000 0.0000 0.0000 0.0000 0.0000 5.4602
#
#
#
# Elastic Compliance Matrix: (Units=1/GPa)
#
#
# Indices 1 2 3 4 5 6 
#
# 1 0.019241 0.000225 -0.006303 0.000000 0.000000 0.000000
# 2 0.000225 0.019241 -0.006303 0.000000 0.000000 0.000000
# 3 -0.006303 -0.006303 0.009930 0.000000 0.000000 0.000000
# 4 0.000000 0.000000 0.000000 0.072275 0.000000 0.000000
# 5 0.000000 0.000000 0.000000 0.000000 0.072275 0.000000
# 6 0.000000 0.000000 0.000000 0.000000 0.000000 0.183144
#
#
# Mechanical properties :
#
#
# Convention : Reuss Voigt Hill
#
# Bulk Modulus (GPa) = 42.28277 62.99163 52.63720
# Shear Modulus (GPa) = 12.23233 18.81005 15.52119
#
# Velocity S-wave (km/s) = 2.43602 3.02080 2.74403
# Velocity P-wave (km/s) = 5.33149 6.53650 5.96450
#
# Compressibility (1/GPa) = 0.02365030
#
# Stress axis : x y z
#
# Youngs Moduli (GPa) = 51.97150 51.97150 100.70407
#
# Poissons Ratio (x) = -0.01172 0.63477
# Poissons Ratio (y) = -0.01172 0.63477
# Poissons Ratio (z) = 0.32759 0.32759
#
# Static dielectric constant tensor:
#      x y z
#    x 1.741340 0.000000 0.000000 
#    y 0.000000 1.741340 0.000000 
#    z 0.000000 0.000000 1.763340 
# 
# From -- ./inp_files/5188.got.cif
#   From: 2010.05.17/outbox.cif.g08.bks.cpg/sg115_3_cif.got.tgz:5188.got - 2010.05.20 11:07:42.
