data_PCOD9556406
_publ_section_title
;
Structure prediction by ZEFSAII (Michael W. Deem and Ramdas Pophale) SiO2 
 PCOD9556406
Probable space group: P -4 21 C
;
_chemical_formula_sum "Si O2"
_cell_formula_units_Z 48
_cell_length_a 8.586619
_cell_length_b 8.586619
_cell_length_c 29.040113
_cell_angle_alpha 90.000000
_cell_angle_beta 90.000000
_cell_angle_gamma 90.000000
_cell_volume 2141.128282
_symmetry_space_group_name_H-M "P -4 21 C"
_symmetry_group_IT_number 114
_symmetry_cell_setting 'tetragonal'
loop_
_space_group_symop_operation_xyz
x,y,z
y,-x,-z
-x,-y,z
-y,x,-z
1/2+x,1/2-y,1/2-z
1/2-x,1/2+y,1/2-z
1/2-y,1/2-x,1/2+z
1/2+y,1/2+x,1/2+z
loop_
_atom_site_type_symbol
_atom_site_label
_atom_site_fract_x
_atom_site_fract_y
_atom_site_fract_z
Si Si1 0.257183 0.099709 0.706957
Si Si2 0.605580 0.766265 0.378533
Si Si3 0.915570 0.218274 0.017956
Si Si4 0.610038 0.247549 0.880690
Si Si5 0.699024 0.412812 0.976656
Si Si6 0.244707 0.400085 0.293202
O O1 0.166302 0.143226 0.660613
O O2 0.418573 0.198550 0.707918
O O3 0.152918 0.152069 0.749994
O O4 0.306612 0.919399 0.708845
O O5 0.628902 0.699800 0.429359
O O6 0.421271 0.805926 0.375626
O O7 0.664851 0.651704 0.339112
O O8 0.702192 0.928222 0.376627
O O9 0.870729 0.379095 0.994476
O O10 0.094142 0.177358 0.012441
O O11 0.652895 0.334829 0.928462
O O12 0.592959 0.339938 0.017946
#
# Coordination Sequence:
#
# PCOD9556406 Si02
#       6
#     8   8   8   8   8   8
#     4  11  26  46  70 103 136 173 220 275 334 400
#     4  11  24  43  68  98 135 179 224 278 336 394
#     4  11  24  41  64  96 134 179 228 273 334 393
#     4  11  24  43  68  98 135 179 224 278 336 394
#     4  11  24  41  64  96 134 179 228 273 334 393
#     4  11  26  46  70 103 136 173 220 275 334 400
#
# _framework density 22.418088999999998
#
# number of rings (size 3 to 8) (size 9 to 14) (size 15 to 20)
#    0.000    1.000    3.333    2.000    4.667    8.000 
#    0.000    0.000    0.000    0.000    0.000    0.000 
#    0.000    0.000    0.000    0.000    0.000    0.000 
#
# Total GULP energy -268562.950435 kJ/mol
# GULP energy per Si atom -5595.061467 kJ/mol
# Density = 2.236706 g / cm^3
# Si number density = 22.418089 Si / 1000 Ang^3
#
#
#
# Elastic Constant Matrix: (Units=GPa)
#
#
# Indices 1 2 3 4 5 6 
#
# 1 31.1230 52.0726 29.0946 0.0000 0.0000 0.0000
# 2 52.0726 31.1230 29.0946 0.0000 0.0000 0.0000
# 3 29.0946 29.0946 145.8795 0.0000 0.0000 0.0000
# 4 0.0000 0.0000 0.0000 28.5839 0.0000 0.0000
# 5 0.0000 0.0000 0.0000 0.0000 28.5839 0.0000
# 6 0.0000 0.0000 0.0000 0.0000 0.0000 41.8835
#
#
#
# Elastic Compliance Matrix: (Units=1/GPa)
#
#
# Indices 1 2 3 4 5 6 
#
# 1 -0.016883 0.030851 -0.002786 0.000000 0.000000 0.000000
# 2 0.030851 -0.016883 -0.002786 0.000000 0.000000 0.000000
# 3 -0.002786 -0.002786 0.007966 0.000000 0.000000 0.000000
# 4 0.000000 0.000000 0.000000 0.034985 0.000000 0.000000
# 5 0.000000 0.000000 0.000000 0.000000 0.034985 0.000000
# 6 0.000000 0.000000 0.000000 0.000000 0.000000 0.023876
#
#
# Mechanical properties :
#
#
# Convention : Reuss Voigt Hill
#
# Bulk Modulus (GPa) = 40.38866 47.62768 44.00817
# Shear Modulus (GPa) = 194.24357 26.33449 110.28903
#
# Velocity S-wave (km/s) = 9.31848 3.43111 7.02163
# Velocity P-wave (km/s) = 11.56866 6.08177 9.24180
#
# Compressibility (1/GPa) = 0.02475943
#
# Stress axis : x y z
#
# Youngs Moduli (GPa) = -59.23240 -59.23240 125.52997
#
# Poissons Ratio (x) = 1.82738 0.34971
# Poissons Ratio (y) = 1.82738 0.34971
# Poissons Ratio (z) = -0.16502 -0.16502
#
# Static dielectric constant tensor:
#      x y z
#    x 1.838480 0.000000 0.000000 
#    y 0.000000 1.838480 0.000000 
#    z 0.000000 0.000000 1.761530 
# 
# From -- ./inp_files/3908.got.cif
#   From: 2010.05.17/outbox.cif.g08.bks.cpg/sg114_2_cif.got.tgz:3908.got - 2010.05.20 11:04:54.
