data_PCOD9556538
_publ_section_title
;
Structure prediction by ZEFSAII (Michael W. Deem and Ramdas Pophale) SiO2 
 PCOD9556538
Probable space group: P -4 M 2
;
_chemical_formula_sum "Si O2"
_cell_formula_units_Z 44
_cell_length_a 16.458052
_cell_length_b 16.458052
_cell_length_c 10.995102
_cell_angle_alpha 90.000000
_cell_angle_beta 90.000000
_cell_angle_gamma 90.000000
_cell_volume 2978.215523
_symmetry_space_group_name_H-M "P -4 M 2"
_symmetry_group_IT_number 115
_symmetry_cell_setting 'tetragonal'
loop_
_space_group_symop_operation_xyz
x,y,z
y,-x,-z
-x,-y,z
-y,x,-z
y,x,-z
-y,-x,-z
-x,y,z
x,-y,z
loop_
_atom_site_type_symbol
_atom_site_label
_atom_site_fract_x
_atom_site_fract_y
_atom_site_fract_z
Si Si1 0.162722 0.162722 0.000000
Si Si2 0.165771 0.092945 0.740938
Si Si3 0.098050 0.675184 0.887252
Si Si4 0.902992 0.748895 0.625659
Si Si5 0.500000 0.900362 0.730931
Si Si6 0.096697 0.668455 0.378319
Si Si7 0.500000 0.098446 0.012764
O O1 0.140885 0.112106 0.879145
O O2 0.142990 0.255708 0.965434
O O3 0.127334 0.160462 0.653730
O O4 0.262799 0.104382 0.724953
O O5 0.146643 0.000000 0.707853
O O6 0.114551 0.696038 0.746187
O O7 0.122764 0.584153 0.923209
O O8 0.000000 0.683782 0.906607
O O9 0.870406 0.706367 0.503777
O O10 0.000000 0.754004 0.613453
O O11 0.581701 0.871493 0.664396
O O12 0.500000 0.000000 0.730315
O O13 0.500000 0.876131 0.872010
O O14 0.000000 0.656952 0.397222
O O15 0.500000 0.000000 0.014810
#
# Coordination Sequence:
#
# PCOD9556538 Si02
#       7
#     4   8   8   8   4   8   4
#     4  10  18  28  42  61  84 109 142 180 222 264
#     4  10  19  30  44  59  80 112 146 183 222 258
#     4   9  17  28  42  60  84 112 140 175 218 263
#     4   9  18  30  42  59  82 110 145 179 214 256
#     4   9  16  25  41  61  77  98 130 169 212 258
#     4   9  17  29  43  59  79 103 135 174 214 257
#     4   9  16  27  43  63  85 109 140 175 216 269
#
# _framework density 14.773947
#
# number of rings (size 3 to 8) (size 9 to 14) (size 15 to 20)
#    0.000    2.727    0.000    2.182    0.000    4.727 
#    0.000    3.636    0.000    6.818    0.000    0.000 
#    0.000    0.364    0.000    0.091    0.000   39.000 
#
# Total GULP energy -245028.559424 kJ/mol
# GULP energy per Si atom -5568.830896 kJ/mol
# Density = 1.474032 g / cm^3
# Si number density = 14.773947 Si / 1000 Ang^3
#
#
#
# Elastic Constant Matrix: (Units=GPa)
#
#
# Indices 1 2 3 4 5 6 
#
# 1 66.0862 19.5445 39.9531 0.0000 0.0000 0.0000
# 2 19.5445 66.0862 39.9531 0.0000 0.0000 0.0000
# 3 39.9531 39.9531 90.4093 0.0000 0.0000 0.0000
# 4 0.0000 0.0000 0.0000 14.8194 0.0000 0.0000
# 5 0.0000 0.0000 0.0000 0.0000 14.8194 0.0000
# 6 0.0000 0.0000 0.0000 0.0000 0.0000 1.4842
#
#
#
# Elastic Compliance Matrix: (Units=1/GPa)
#
#
# Indices 1 2 3 4 5 6 
#
# 1 0.020680 -0.000806 -0.008782 0.000000 0.000000 0.000000
# 2 -0.000806 0.020680 -0.008782 0.000000 0.000000 0.000000
# 3 -0.008782 -0.008782 0.018823 0.000000 0.000000 0.000000
# 4 0.000000 0.000000 0.000000 0.067479 0.000000 0.000000
# 5 0.000000 0.000000 0.000000 0.000000 0.067479 0.000000
# 6 0.000000 0.000000 0.000000 0.000000 0.000000 0.673764
#
#
# Mechanical properties :
#
#
# Convention : Reuss Voigt Hill
#
# Bulk Modulus (GPa) = 42.66169 46.83146 44.74657
# Shear Modulus (GPa) = 5.47369 14.43332 9.95350
#
# Velocity S-wave (km/s) = 1.92692 3.12900 2.59843
# Velocity P-wave (km/s) = 5.82148 6.69490 6.27341
#
# Compressibility (1/GPa) = 0.02344024
#
# Stress axis : x y z
#
# Youngs Moduli (GPa) = 48.35671 48.35671 53.12700
#
# Poissons Ratio (x) = 0.03900 0.46657
# Poissons Ratio (y) = 0.03900 0.46657
# Poissons Ratio (z) = 0.42468 0.42468
#
# Static dielectric constant tensor:
#      x y z
#    x 1.480720 0.000000 0.000000 
#    y 0.000000 1.480720 0.000000 
#    z 0.000000 0.000000 1.525530 
# 
# From -- ./inp_files/2882.got.cif
#   From: 2010.05.17/outbox.cif.g08.bks.cpg/sg115_2_cif.got.tgz:2882.got - 2010.05.20 11:07:42.
