data_PCOD9556421
_publ_section_title
;
Structure prediction by ZEFSAII (Michael W. Deem and Ramdas Pophale) SiO2 
 PCOD9556421
Probable space group: P -4 21 C
;
_chemical_formula_sum "Si O2"
_cell_formula_units_Z 34
_cell_length_a 8.410391
_cell_length_b 8.410391
_cell_length_c 20.586198
_cell_angle_alpha 90.000000
_cell_angle_beta 90.000000
_cell_angle_gamma 90.000000
_cell_volume 1456.158062
_symmetry_space_group_name_H-M "P -4 21 C"
_symmetry_group_IT_number 114
_symmetry_cell_setting 'tetragonal'
loop_
_space_group_symop_operation_xyz
x,y,z
y,-x,-z
-x,-y,z
-y,x,-z
1/2+x,1/2-y,1/2-z
1/2-x,1/2+y,1/2-z
1/2-y,1/2-x,1/2+z
1/2+y,1/2+x,1/2+z
loop_
_atom_site_type_symbol
_atom_site_label
_atom_site_fract_x
_atom_site_fract_y
_atom_site_fract_z
Si Si1 0.500000 0.500000 0.500000
Si Si2 0.345056 0.113146 0.029707
Si Si3 0.508683 0.312541 0.286073
Si Si4 0.896934 0.334550 0.616052
Si Si5 0.341753 0.310316 0.158480
O O1 0.668648 0.466265 0.463842
O O2 0.365084 0.232322 0.088872
O O3 0.500000 0.000000 0.031215
O O4 0.345801 0.192368 0.958088
O O5 0.500000 0.500000 0.289127
O O6 0.376830 0.242561 0.334806
O O7 0.470638 0.265638 0.212192
O O8 0.677596 0.252713 0.310378
O O9 0.000000 0.500000 0.614248
O O10 0.004898 0.194613 0.644478
#
# Coordination Sequence:
#
# PCOD9556421 Si02
#       5
#     2   8   8   8   8
#     4  12  24  48  84 120 156 220 276 322 432 488
#     4  11  25  45  76 122 156 207 269 336 399 493
#     4  11  24  45  72 103 147 201 258 320 399 485
#     4   9  21  44  66 100 152 191 252 325 391 472
#     4  11  25  47  70 111 152 204 255 335 406 484
#
# _framework density 23.349114
#
# number of rings (size 3 to 8) (size 9 to 14) (size 15 to 20)
#    0.000    1.412    0.000    5.647    6.588    4.706 
#   12.706    0.000    0.000    0.000    0.000    0.000 
#    0.000    0.000    0.000    0.000    0.000    0.000 
#
# Total GULP energy -190265.789518 kJ/mol
# GULP energy per Si atom -5596.052633 kJ/mol
# Density = 2.329597 g / cm^3
# Si number density = 23.349114 Si / 1000 Ang^3
#
#
#
# Elastic Constant Matrix: (Units=GPa)
#
#
# Indices 1 2 3 4 5 6 
#
# 1 69.9885 6.1794 27.1254 0.0000 0.0000 0.0000
# 2 6.1794 69.9885 27.1254 0.0000 0.0000 0.0000
# 3 27.1254 27.1254 163.6422 0.0000 0.0000 0.0000
# 4 0.0000 0.0000 0.0000 82.2361 0.0000 0.0000
# 5 0.0000 0.0000 0.0000 0.0000 82.2361 0.0000
# 6 0.0000 0.0000 0.0000 0.0000 0.0000 22.2878
#
#
#
# Elastic Compliance Matrix: (Units=1/GPa)
#
#
# Indices 1 2 3 4 5 6 
#
# 1 0.015279 -0.000393 -0.002468 0.000000 0.000000 0.000000
# 2 -0.000393 0.015279 -0.002468 0.000000 0.000000 0.000000
# 3 -0.002468 -0.002468 0.006929 0.000000 0.000000 0.000000
# 4 0.000000 0.000000 0.000000 0.012160 0.000000 0.000000
# 5 0.000000 0.000000 0.000000 0.000000 0.012160 0.000000
# 6 0.000000 0.000000 0.000000 0.000000 0.000000 0.044868
#
#
# Mechanical properties :
#
#
# Convention : Reuss Voigt Hill
#
# Bulk Modulus (GPa) = 37.26964 47.16441 42.21702
# Shear Modulus (GPa) = 39.59630 53.56459 46.58044
#
# Velocity S-wave (km/s) = 4.12252 4.79485 4.47134
# Velocity P-wave (km/s) = 6.21746 7.13425 6.69158
#
# Compressibility (1/GPa) = 0.02683149
#
# Stress axis : x y z
#
# Youngs Moduli (GPa) = 65.44893 65.44893 144.32201
#
# Poissons Ratio (x) = 0.02570 0.35613
# Poissons Ratio (y) = 0.02570 0.35613
# Poissons Ratio (z) = 0.16150 0.16150
#
# Static dielectric constant tensor:
#      x y z
#    x 1.900990 0.000000 0.000000 
#    y 0.000000 1.900990 0.000000 
#    z 0.000000 0.000000 1.846200 
# 
# From -- ./inp_files/2928.got.cif
#   From: 2010.05.17/outbox.cif.g08.bks.cpg/sg114_2_cif.got.tgz:2928.got - 2010.05.20 11:04:54.
