data_PCOD9556506
_publ_section_title
;
Structure prediction by ZEFSAII (Michael W. Deem and Ramdas Pophale) SiO2 
 PCOD9556506
Probable space group: P -4 21 C
;
_chemical_formula_sum "Si O2"
_cell_formula_units_Z 48
_cell_length_a 12.000000
_cell_length_b 12.000000
_cell_length_c 18.000000
_cell_angle_alpha 90.000000
_cell_angle_beta 90.000000
_cell_angle_gamma 90.000000
_cell_volume 2592.000000
_symmetry_space_group_name_H-M "P -4 21 C"
_symmetry_group_IT_number 114
_symmetry_cell_setting 'tetragonal'
loop_
_space_group_symop_operation_xyz
x,y,z
y,-x,-z
-x,-y,z
-y,x,-z
1/2+x,1/2-y,1/2-z
1/2-x,1/2+y,1/2-z
1/2-y,1/2-x,1/2+z
1/2+y,1/2+x,1/2+z
loop_
_atom_site_type_symbol
_atom_site_label
_atom_site_fract_x
_atom_site_fract_y
_atom_site_fract_z
Si Si1 0.126843 0.024947 0.750111
Si Si2 0.395261 0.184608 0.648045
Si Si3 0.772437 0.610654 0.633743
Si Si4 0.410432 0.782738 0.752196
Si Si5 0.382107 0.940300 0.017905
Si Si6 0.057307 0.283521 0.360427
O O1 0.133036 0.157434 0.741706
O O2 0.209346 0.978211 0.813641
O O3 0.161123 0.964989 0.672480
O O4 0.000000 0.000000 0.770924
O O5 0.306229 0.280293 0.632305
O O6 0.464178 0.213901 0.722160
O O7 0.483291 0.175599 0.580716
O O8 0.344588 0.061025 0.654609
O O9 0.886768 0.650350 0.672860
O O10 0.803478 0.569080 0.552695
O O11 0.336743 0.848517 0.691719
O O12 0.500000 0.000000 0.000222
O O13 0.409055 0.820317 0.056551
#
# Coordination Sequence:
#
# PCOD9556506 Si02
#       6
#     8   8   8   8   8   8
#     4  11  21  36  59  91 121 147 195 251 299 350
#     4  10  19  39  60  83 120 156 189 242 296 348
#     4  11  22  36  61  90 118 153 198 243 297 353
#     4  10  20  36  60  86 116 150 193 241 292 347
#     4   9  21  39  57  84 117 154 199 236 283 357
#     4   9  20  39  61  79 116 164 192 234 295 353
#
# _framework density 18.518519000000001
#
# number of rings (size 3 to 8) (size 9 to 14) (size 15 to 20)
#    0.000    2.000    3.333    1.500    0.000    5.333 
#    0.000    3.333    0.000    0.000    0.000    0.000 
#    0.000    0.000    0.000    0.000    0.000    0.000 
#
# Total GULP energy -267520.749486 kJ/mol
# GULP energy per Si atom -5573.348948 kJ/mol
# Density = 1.847637 g / cm^3
# Si number density = 18.518519 Si / 1000 Ang^3
#
#
#
# Elastic Constant Matrix: (Units=GPa)
#
#
# Indices 1 2 3 4 5 6 
#
# 1 34.7809 -25.1061 16.0509 0.0000 0.0000 0.0000
# 2 -25.1061 34.7809 16.0509 0.0000 0.0000 0.0000
# 3 16.0509 16.0509 66.8233 0.0000 0.0000 0.0000
# 4 0.0000 0.0000 0.0000 26.4273 0.0000 0.0000
# 5 0.0000 0.0000 0.0000 0.0000 26.4273 0.0000
# 6 0.0000 0.0000 0.0000 0.0000 0.0000 15.0215
#
#
#
# Elastic Compliance Matrix: (Units=1/GPa)
#
#
# Indices 1 2 3 4 5 6 
#
# 1 0.262935 0.246237 -0.122303 0.000000 0.000000 0.000000
# 2 0.246237 0.262935 -0.122303 0.000000 0.000000 0.000000
# 3 -0.122303 -0.122303 0.073719 0.000000 0.000000 0.000000
# 4 0.000000 0.000000 0.000000 0.037840 0.000000 0.000000
# 5 0.000000 0.000000 0.000000 0.000000 0.037840 0.000000
# 6 0.000000 0.000000 0.000000 0.000000 0.000000 0.066571
#
#
# Mechanical properties :
#
#
# Convention : Reuss Voigt Hill
#
# Bulk Modulus (GPa) = 1.65878 16.70852 9.18365
# Shear Modulus (GPa) = 5.32182 22.20117 13.76150
#
# Velocity S-wave (km/s) = 1.69706 3.46622 2.72898
# Velocity P-wave (km/s) = 2.17663 5.00617 3.86002
#
# Compressibility (1/GPa) = 0.60285095
#
# Stress axis : x y z
#
# Youngs Moduli (GPa) = 3.80322 3.80322 13.56500
#
# Poissons Ratio (x) = -0.93649 1.65904
# Poissons Ratio (y) = -0.93649 1.65904
# Poissons Ratio (z) = 0.46515 0.46515
#
# Static dielectric constant tensor:
#      x y z
#    x 1.652560 0.000000 0.000000 
#    y 0.000000 1.652560 0.000000 
#    z 0.000000 0.000000 1.632160 
# 
# From -- ./inp_files/2605.got.cif
#   From: 2010.05.17/outbox.ucp.g08.bks.cvg/sg114_2_cif.got.tgz:2605.got - 2010.06.11 11:33:27.
