data_PCOD9556917
_publ_section_title
;
Structure prediction by ZEFSAII (Michael W. Deem and Ramdas Pophale) SiO2 
 PCOD9556917
Probable space group: P -4 M 2
;
_chemical_formula_sum "Si O2"
_cell_formula_units_Z 40
_cell_length_a 7.955950
_cell_length_b 7.955950
_cell_length_c 30.703670
_cell_angle_alpha 90.000000
_cell_angle_beta 90.000000
_cell_angle_gamma 90.000000
_cell_volume 1943.454511
_symmetry_space_group_name_H-M "P -4 M 2"
_symmetry_group_IT_number 115
_symmetry_cell_setting 'tetragonal'
loop_
_space_group_symop_operation_xyz
x,y,z
y,-x,-z
-x,-y,z
-y,x,-z
y,x,-z
-y,-x,-z
-x,y,z
x,-y,z
loop_
_atom_site_type_symbol
_atom_site_label
_atom_site_fract_x
_atom_site_fract_y
_atom_site_fract_z
Si Si1 0.305770 0.698444 0.861974
Si Si2 0.701965 0.308111 0.451221
Si Si3 0.198049 0.310418 0.046707
Si Si4 0.307244 0.800983 0.767929
Si Si5 0.199847 0.000000 0.390419
Si Si6 0.207143 0.000000 0.290917
O O1 0.500000 0.761428 0.865245
O O2 0.308055 0.500000 0.855714
O O3 0.226687 0.733464 0.909160
O O4 0.240513 0.775438 0.817242
O O5 0.750580 0.249421 0.500000
O O6 0.500000 0.318160 0.452379
O O7 0.764849 0.500000 0.443169
O O8 0.749299 0.168107 0.416294
O O9 0.270320 0.500000 0.044027
O O10 0.000000 0.319707 0.052932
O O11 0.230185 0.230185 0.000000
O O12 0.500000 0.732052 0.764937
O O13 0.168395 0.735593 0.734291
O O14 0.320446 0.000000 0.760536
O O15 0.263900 0.000000 0.340874
O O16 0.000000 0.000000 0.388033
O O17 0.000000 0.000000 0.289914
#
# Coordination Sequence:
#
# PCOD9556917 Si02
#       6
#     8   8   8   8   4   4
#     4   9  17  31  53  79 103 130 171 221 272 327
#     4   9  20  39  60  83 116 160 206 250 300 361
#     4  10  20  34  52  75 104 137 174 215 265 327
#     4   9  17  33  57  78 103 144 188 230 279 339
#     4  11  23  35  57  91 125 157 199 251 303 358
#     4   9  20  37  53  81 117 149 187 233 285 346
#
# _framework density 20.581906
#
# number of rings (size 3 to 8) (size 9 to 14) (size 15 to 20)
#    0.000    2.600    0.000    2.100    1.400    4.800 
#    1.800    4.500    0.000    2.400    0.000    0.000 
#    0.000    0.000    0.000    0.000    0.000    0.000 
#
# Total GULP energy -222977.465961 kJ/mol
# GULP energy per Si atom -5574.436649 kJ/mol
# Density = 2.053506 g / cm^3
# Si number density = 20.581906 Si / 1000 Ang^3
#
#
#
# Elastic Constant Matrix: (Units=GPa)
#
#
# Indices 1 2 3 4 5 6 
#
# 1 54.5260 17.1872 50.1502 0.0000 0.0000 0.0000
# 2 17.1872 54.5260 50.1503 0.0000 0.0000 0.0000
# 3 50.1502 50.1503 188.8522 0.0000 0.0000 0.0000
# 4 0.0000 0.0000 0.0000 26.7849 0.0000 0.0000
# 5 0.0000 0.0000 0.0000 0.0000 26.7848 0.0000
# 6 0.0000 0.0000 0.0000 0.0000 0.0000 14.9171
#
#
#
# Elastic Compliance Matrix: (Units=1/GPa)
#
#
# Indices 1 2 3 4 5 6 
#
# 1 0.024483 -0.002299 -0.005891 0.000000 0.000000 0.000000
# 2 -0.002299 0.024483 -0.005891 0.000000 0.000000 0.000000
# 3 -0.005891 -0.005891 0.008424 0.000000 0.000000 0.000000
# 4 0.000000 0.000000 0.000000 0.037334 0.000000 0.000000
# 5 0.000000 0.000000 0.000000 0.000000 0.037335 0.000000
# 6 0.000000 0.000000 0.000000 0.000000 0.000000 0.067037
#
#
# Mechanical properties :
#
#
# Convention : Reuss Voigt Hill
#
# Bulk Modulus (GPa) = 34.21439 59.20885 46.71162
# Shear Modulus (GPa) = 21.09704 25.72512 23.41108
#
# Velocity S-wave (km/s) = 3.20508 3.53921 3.37628
# Velocity P-wave (km/s) = 5.50966 6.74769 6.15985
#
# Compressibility (1/GPa) = 0.02922747
#
# Stress axis : x y z
#
# Youngs Moduli (GPa) = 40.84511 40.84509 118.71042
#
# Poissons Ratio (x) = 0.09390 0.69932
# Poissons Ratio (y) = 0.09390 0.69932
# Poissons Ratio (z) = 0.24062 0.24062
#
# Static dielectric constant tensor:
#      x y z
#    x 1.779190 0.000000 0.000000 
#    y 0.000000 1.779180 0.000000 
#    z 0.000000 0.000000 1.757320 
# 
# From -- ./inp_files/5535.got.cif
#   From: 2010.05.17/outbox.cif.g08.bks.cpg/sg115_3_cif.got.tgz:5535.got - 2010.05.20 11:07:42.
