data_PCOD9556046
_publ_section_title
;
Structure prediction by ZEFSAII (Michael W. Deem and Ramdas Pophale) SiO2 
 PCOD9556046
Probable space group: P -4 21 C
;
_chemical_formula_sum "Si O2"
_cell_formula_units_Z 54
_cell_length_a 10.422539
_cell_length_b 10.422539
_cell_length_c 22.727523
_cell_angle_alpha 90.000000
_cell_angle_beta 90.000000
_cell_angle_gamma 90.000000
_cell_volume 2468.875351
_symmetry_space_group_name_H-M "P -4 21 C"
_symmetry_group_IT_number 114
_symmetry_cell_setting 'tetragonal'
loop_
_space_group_symop_operation_xyz
x,y,z
y,-x,-z
-x,-y,z
-y,x,-z
1/2+x,1/2-y,1/2-z
1/2-x,1/2+y,1/2-z
1/2-y,1/2-x,1/2+z
1/2+y,1/2+x,1/2+z
loop_
_atom_site_type_symbol
_atom_site_label
_atom_site_fract_x
_atom_site_fract_y
_atom_site_fract_z
Si Si1 0.800213 0.880504 0.368268
Si Si2 0.500000 0.500000 0.500000
Si Si3 0.508668 0.783826 0.531291
Si Si4 0.238335 0.508848 0.798833
Si Si5 0.843815 0.483264 0.664478
Si Si6 0.500000 0.000000 0.125958
Si Si7 0.277675 0.714066 0.007878
Si Si8 0.759934 0.178093 0.374497
O O1 0.911492 0.845193 0.322645
O O2 0.661823 0.813118 0.356859
O O3 0.841380 0.850945 0.435766
O O4 0.772019 0.028725 0.362163
O O5 0.514140 0.629408 0.538488
O O6 0.532325 0.877780 0.585614
O O7 0.624443 0.810753 0.486473
O O8 0.364554 0.811442 0.511552
O O9 0.212765 0.506931 0.730074
O O10 0.113948 0.457186 0.832565
O O11 0.256752 0.651819 0.824980
O O12 0.789925 0.607862 0.629258
O O13 0.000000 0.500000 0.665475
O O14 0.304725 0.682323 0.940082
#
# Coordination Sequence:
#
# PCOD9556046 Si02
#       8
#     8   2   8   8   8   4   8   8
#     4  11  25  41  65 100 133 176 215 274 340 404
#     4   8  20  40  60  80 132 168 208 292 332 394
#     4  10  21  38  61  90 124 169 223 267 330 393
#     4  12  23  45  66  93 131 173 226 273 323 402
#     4  10  23  46  71  94 127 173 225 281 326 387
#     4  12  22  38  62  94 118 166 228 262 318 388
#     4  11  22  39  65  93 134 168 212 275 328 404
#     4  11  25  41  65 100 133 176 215 274 340 404
#
# _framework density 21.872305999999998
#
# number of rings (size 3 to 8) (size 9 to 14) (size 15 to 20)
#    0.000    1.185    3.704    2.222    4.148    0.000 
#    0.000    0.000    3.259    0.000    0.000    0.000 
#    0.000    0.000    0.000    0.000    0.000    0.000 
#
# Total GULP energy -301316.970932 kJ/mol
# GULP energy per Si atom -5579.943906 kJ/mol
# Density = 2.182252 g / cm^3
# Si number density = 21.872306 Si / 1000 Ang^3
#
#
#
# Elastic Constant Matrix: (Units=GPa)
#
#
# Indices 1 2 3 4 5 6 
#
# 1 44.4331 5.2254 2.9393 0.0000 0.0000 0.0000
# 2 5.2254 44.4331 2.9393 0.0000 0.0000 0.0000
# 3 2.9393 2.9393 100.1576 0.0000 0.0000 0.0000
# 4 0.0000 0.0000 0.0000 20.8283 0.0000 0.0000
# 5 0.0000 0.0000 0.0000 0.0000 20.8283 0.0000
# 6 0.0000 0.0000 0.0000 0.0000 0.0000 23.5703
#
#
#
# Elastic Compliance Matrix: (Units=1/GPa)
#
#
# Indices 1 2 3 4 5 6 
#
# 1 0.022856 -0.002649 -0.000593 0.000000 0.000000 0.000000
# 2 -0.002649 0.022856 -0.000593 0.000000 0.000000 0.000000
# 3 -0.000593 -0.000593 0.010019 0.000000 0.000000 0.000000
# 4 0.000000 0.000000 0.000000 0.048012 0.000000 0.000000
# 5 0.000000 0.000000 0.000000 0.000000 0.048012 0.000000
# 6 0.000000 0.000000 0.000000 0.000000 0.000000 0.042426
#
#
# Mechanical properties :
#
#
# Convention : Reuss Voigt Hill
#
# Bulk Modulus (GPa) = 20.80626 23.47019 22.13823
# Shear Modulus (GPa) = 22.94926 24.90670 23.92798
#
# Velocity S-wave (km/s) = 3.24271 3.37817 3.31113
# Velocity P-wave (km/s) = 4.85319 5.09607 4.97611
#
# Compressibility (1/GPa) = 0.04806245
#
# Stress axis : x y z
#
# Youngs Moduli (GPa) = 43.75126 43.75126 99.80967
#
# Poissons Ratio (x) = 0.11589 0.05919
# Poissons Ratio (y) = 0.11589 0.05919
# Poissons Ratio (z) = 0.02595 0.02595
#
# Static dielectric constant tensor:
#      x y z
#    x 1.833210 0.000000 0.000000 
#    y 0.000000 1.833210 0.000000 
#    z 0.000000 0.000000 1.776560 
# 
# From -- ./inp_files/3208.got.cif
#   From: 2010.05.17/outbox.cif.g08.bks.cpg/sg114_2_cif.got.tgz:3208.got - 2010.05.20 11:04:54.
