data_PCOD9556039
_publ_section_title
;
Structure prediction by ZEFSAII (Michael W. Deem and Ramdas Pophale) SiO2 
 PCOD9556039
Probable space group: P -4 21 C
;
_chemical_formula_sum "Si O2"
_cell_formula_units_Z 32
_cell_length_a 8.804203
_cell_length_b 8.804203
_cell_length_c 22.775159
_cell_angle_alpha 90.000000
_cell_angle_beta 90.000000
_cell_angle_gamma 90.000000
_cell_volume 1765.393458
_symmetry_space_group_name_H-M "P -4 21 C"
_symmetry_group_IT_number 114
_symmetry_cell_setting 'tetragonal'
loop_
_space_group_symop_operation_xyz
x,y,z
y,-x,-z
-x,-y,z
-y,x,-z
1/2+x,1/2-y,1/2-z
1/2-x,1/2+y,1/2-z
1/2-y,1/2-x,1/2+z
1/2+y,1/2+x,1/2+z
loop_
_atom_site_type_symbol
_atom_site_label
_atom_site_fract_x
_atom_site_fract_y
_atom_site_fract_z
Si Si1 0.057814 0.244559 0.014246
Si Si2 0.734993 0.487497 0.647410
Si Si3 0.500000 0.000000 0.262560
Si Si4 0.514880 0.758670 0.663048
Si Si5 0.000000 0.500000 0.431241
O O1 0.038029 0.285517 0.082477
O O2 0.094973 0.391026 0.974659
O O3 0.894595 0.175042 0.993629
O O4 0.863965 0.457559 0.694257
O O5 0.638792 0.628953 0.672826
O O6 0.628324 0.339530 0.640419
O O7 0.643327 0.027934 0.219851
O O8 0.572009 0.878792 0.614117
#
# Coordination Sequence:
#
# PCOD9556039 Si02
#       5
#     8   8   4   8   4
#     4  11  19  35  60  85 106 139 193 230 272 334
#     4  11  20  39  57  85 114 149 193 223 280 334
#     4  11  23  34  58  90 111 149 182 244 276 321
#     4  10  21  37  59  80 114 152 191 228 272 333
#     4  11  19  34  58  84 107 143 188 232 276 325
#
# _framework density 18.126269000000001
#
# number of rings (size 3 to 8) (size 9 to 14) (size 15 to 20)
#    0.000    1.250    5.000    3.750    0.000    0.000 
#    0.000    0.000    0.000    3.750    0.000    0.000 
#    0.000    0.000    0.000    0.000    0.000    0.000 
#
# Total GULP energy -178254.963427 kJ/mol
# GULP energy per Si atom -5570.467607 kJ/mol
# Density = 1.808501 g / cm^3
# Si number density = 18.126269 Si / 1000 Ang^3
#
#
#
# Elastic Constant Matrix: (Units=GPa)
#
#
# Indices 1 2 3 4 5 6 
#
# 1 62.4792 15.7790 14.6335 0.0000 0.0000 0.0000
# 2 15.7790 62.4792 14.6335 0.0000 0.0000 0.0000
# 3 14.6335 14.6335 99.5389 0.0000 0.0000 0.0000
# 4 0.0000 0.0000 0.0000 31.6242 0.0000 0.0000
# 5 0.0000 0.0000 0.0000 0.0000 31.6242 0.0000
# 6 0.0000 0.0000 0.0000 0.0000 0.0000 8.0705
#
#
#
# Elastic Compliance Matrix: (Units=1/GPa)
#
#
# Indices 1 2 3 4 5 6 
#
# 1 0.017467 -0.003946 -0.001988 0.000000 0.000000 0.000000
# 2 -0.003946 0.017467 -0.001988 0.000000 0.000000 0.000000
# 3 -0.001988 -0.001988 0.010631 0.000000 0.000000 0.000000
# 4 0.000000 0.000000 0.000000 0.031621 0.000000 0.000000
# 5 0.000000 0.000000 0.000000 0.000000 0.031621 0.000000
# 6 0.000000 0.000000 0.000000 0.000000 0.000000 0.123907
#
#
# Mechanical properties :
#
#
# Convention : Reuss Voigt Hill
#
# Bulk Modulus (GPa) = 33.64436 34.95436 34.29936
# Shear Modulus (GPa) = 19.34489 26.22721 22.78605
#
# Velocity S-wave (km/s) = 3.27039 3.80796 3.54937
# Velocity P-wave (km/s) = 5.73254 6.21770 5.98004
#
# Compressibility (1/GPa) = 0.02972266
#
# Stress axis : x y z
#
# Youngs Moduli (GPa) = 57.24946 57.24946 94.06628
#
# Poissons Ratio (x) = 0.22589 0.18699
# Poissons Ratio (y) = 0.22589 0.18699
# Poissons Ratio (z) = 0.11380 0.11380
#
# Static dielectric constant tensor:
#      x y z
#    x 1.612690 0.000000 0.000000 
#    y 0.000000 1.612690 0.000000 
#    z 0.000000 0.000000 1.648490 
# 
# From -- ./inp_files/2881.got.cif
#   From: 2010.05.17/outbox.cif.g08.bks.cpg/sg114_2_cif.got.tgz:2881.got - 2010.05.20 11:04:54.
