data_PCOD9556293
_publ_section_title
;
Structure prediction by ZEFSAII (Michael W. Deem and Ramdas Pophale) SiO2 
 PCOD9556293
Probable space group: P -4 21 C
;
_chemical_formula_sum "Si O2"
_cell_formula_units_Z 42
_cell_length_a 7.884028
_cell_length_b 7.884028
_cell_length_c 27.100508
_cell_angle_alpha 90.000000
_cell_angle_beta 90.000000
_cell_angle_gamma 90.000000
_cell_volume 1684.510599
_symmetry_space_group_name_H-M "P -4 21 C"
_symmetry_group_IT_number 114
_symmetry_cell_setting 'tetragonal'
loop_
_space_group_symop_operation_xyz
x,y,z
y,-x,-z
-x,-y,z
-y,x,-z
1/2+x,1/2-y,1/2-z
1/2-x,1/2+y,1/2-z
1/2-y,1/2-x,1/2+z
1/2+y,1/2+x,1/2+z
loop_
_atom_site_type_symbol
_atom_site_label
_atom_site_fract_x
_atom_site_fract_y
_atom_site_fract_z
Si Si1 0.838927 0.383655 0.178014
Si Si2 0.500000 0.500000 0.000000
Si Si3 0.500000 0.000000 0.471405
Si Si4 0.645900 0.864543 0.708384
Si Si5 0.176562 0.968474 0.130078
Si Si6 0.811255 0.733452 0.454597
Si Si7 0.500000 0.500000 0.178740
O O1 0.802423 0.395833 0.236750
O O2 0.860746 0.187292 0.166910
O O3 0.671062 0.449555 0.150842
O O4 0.000000 0.500000 0.166861
O O5 0.478452 0.654505 0.037227
O O6 0.606289 0.150156 0.499403
O O7 0.346471 0.128611 0.450532
O O8 0.624614 0.734250 0.663627
O O9 0.829959 0.947481 0.707731
O O10 0.500000 0.000000 0.697129
O O11 0.306890 0.892371 0.091479
O O12 0.000000 0.000000 0.102670
#
# Coordination Sequence:
#
# PCOD9556293 Si02
#       7
#     8   2   4   8   8   8   4
#     4  11  26  44  70 103 146 201 254 316 379 444
#     4   8  20  54  76 108 152 192 236 300 404 494
#     4  10  24  46  78 106 152 190 240 300 406 476
#     4  11  25  46  66 100 142 198 254 312 379 437
#     4  12  27  44  71 109 152 188 262 321 371 455
#     4  10  24  45  77 110 145 192 241 311 383 473
#     4  12  24  43  74  90 138 199 252 311 384 443
#
# _framework density 24.933057000000002
#
# number of rings (size 3 to 8) (size 9 to 14) (size 15 to 20)
#    0.000    1.143    1.905    2.286   13.333    0.762 
#    0.000    0.000    0.000    0.000    0.000    0.000 
#    0.000    0.000    0.000    0.000    0.000    0.000 
#
# Total GULP energy -234047.650809 kJ/mol
# GULP energy per Si atom -5572.563115 kJ/mol
# Density = 2.487631 g / cm^3
# Si number density = 24.933057 Si / 1000 Ang^3
#
#
#
# Elastic Constant Matrix: (Units=GPa)
#
#
# Indices 1 2 3 4 5 6 
#
# 1 109.2756 45.2496 15.8310 0.0000 0.0000 0.0000
# 2 45.2496 109.2756 15.8310 0.0000 0.0000 0.0000
# 3 15.8310 15.8310 48.4555 0.0000 0.0000 0.0000
# 4 0.0000 0.0000 0.0000 21.1703 0.0000 0.0000
# 5 0.0000 0.0000 0.0000 0.0000 21.1703 0.0000
# 6 0.0000 0.0000 0.0000 0.0000 0.0000 39.6450
#
#
#
# Elastic Compliance Matrix: (Units=1/GPa)
#
#
# Indices 1 2 3 4 5 6 
#
# 1 0.011277 -0.004341 -0.002266 0.000000 0.000000 0.000000
# 2 -0.004341 0.011277 -0.002266 0.000000 0.000000 0.000000
# 3 -0.002266 -0.002266 0.022118 0.000000 0.000000 0.000000
# 4 0.000000 0.000000 0.000000 0.047236 0.000000 0.000000
# 5 0.000000 0.000000 0.000000 0.000000 0.047236 0.000000
# 6 0.000000 0.000000 0.000000 0.000000 0.000000 0.025224
#
#
# Mechanical properties :
#
#
# Convention : Reuss Voigt Hill
#
# Bulk Modulus (GPa) = 37.13929 46.75886 41.94908
# Shear Modulus (GPa) = 26.16565 29.07015 27.61790
#
# Velocity S-wave (km/s) = 3.24301 3.41827 3.33180
# Velocity P-wave (km/s) = 5.38059 5.86293 5.62693
#
# Compressibility (1/GPa) = 0.02692566
#
# Stress axis : x y z
#
# Youngs Moduli (GPa) = 88.67455 88.67455 45.21181
#
# Poissons Ratio (x) = 0.38498 0.10245
# Poissons Ratio (y) = 0.38498 0.10245
# Poissons Ratio (z) = 0.20093 0.20093
#
# Static dielectric constant tensor:
#      x y z
#    x 2.053990 0.000000 0.000000 
#    y 0.000000 2.053990 0.000000 
#    z 0.000000 0.000000 1.985600 
# 
# From -- ./inp_files/3696.got.cif
#   From: 2010.05.17/outbox.cif.g08.bks.cpg/sg114_2_cif.got.tgz:3696.got - 2010.05.20 11:04:54.
