data_PCOD9556732
_publ_section_title
;
Structure prediction by ZEFSAII (Michael W. Deem and Ramdas Pophale) SiO2 
 PCOD9556732
Probable space group: P -4 M 2
;
_chemical_formula_sum "Si O2"
_cell_formula_units_Z 44
_cell_length_a 9.220667
_cell_length_b 9.220667
_cell_length_c 29.517242
_cell_angle_alpha 90.000000
_cell_angle_beta 90.000000
_cell_angle_gamma 90.000000
_cell_volume 2509.576575
_symmetry_space_group_name_H-M "P -4 M 2"
_symmetry_group_IT_number 115
_symmetry_cell_setting 'tetragonal'
loop_
_space_group_symop_operation_xyz
x,y,z
y,-x,-z
-x,-y,z
-y,x,-z
y,x,-z
-y,-x,-z
-x,y,z
x,-y,z
loop_
_atom_site_type_symbol
_atom_site_label
_atom_site_fract_x
_atom_site_fract_y
_atom_site_fract_z
Si Si1 0.673932 0.669712 0.866341
Si Si2 0.829684 0.825666 0.051394
Si Si3 0.828150 0.673307 0.690053
Si Si4 0.326037 0.326037 0.500000
Si Si5 0.828786 0.326393 0.226544
Si Si6 0.323281 0.669103 0.401547
O O1 0.500000 0.684572 0.871051
O O2 0.708267 0.500000 0.861717
O O3 0.749767 0.737055 0.910091
O O4 0.717409 0.754176 0.820722
O O5 0.000000 0.788892 0.057084
O O6 0.817511 0.000000 0.054795
O O7 0.785727 0.785727 0.000000
O O8 0.801612 0.500000 0.694633
O O9 0.753484 0.755088 0.731478
O O10 0.759829 0.721379 0.642110
O O11 0.000000 0.696769 0.690091
O O12 0.303713 0.500000 0.498509
O O13 0.273127 0.273070 0.549109
O O14 0.808275 0.500000 0.231738
O O15 0.000000 0.297008 0.224825
O O16 0.500000 0.671455 0.402931
O O17 0.281112 0.500000 0.396402
#
# Coordination Sequence:
#
# PCOD9556732 Si02
#       6
#     8   8   8   4   8   8
#     4  10  21  36  55  80 107 133 164 206 255 303
#     4   9  19  36  56  78 106 141 178 211 244 287
#     4  10  20  32  48  73 103 133 165 202 247 299
#     4   7  10  18  36  64  92 119 158 204 246 287
#     4  10  21  37  56  75  96 128 170 211 252 300
#     4   8  13  23  42  67  94 125 162 205 249 290
#
# _framework density 17.532838999999999
#
# number of rings (size 3 to 8) (size 9 to 14) (size 15 to 20)
#    0.000    2.818    0.000    3.273    0.000    5.091 
#    0.000    2.727    0.000    1.091    0.000    5.091 
#    0.000    0.000    0.000    0.000    0.000    0.000 
#
# Total GULP energy -245263.565758 kJ/mol
# GULP energy per Si atom -5574.171949 kJ/mol
# Density = 1.749293 g / cm^3
# Si number density = 17.532839 Si / 1000 Ang^3
#
#
#
# Elastic Constant Matrix: (Units=GPa)
#
#
# Indices 1 2 3 4 5 6 
#
# 1 50.5153 48.6210 80.6576 0.0000 0.0000 0.0000
# 2 48.6210 50.5153 80.6576 0.0000 0.0000 0.0000
# 3 80.6576 80.6576 221.5038 0.0000 0.0000 0.0000
# 4 0.0000 0.0000 0.0000 -42.0133 0.0000 0.0000
# 5 0.0000 0.0000 0.0000 0.0000 -42.0133 0.0000
# 6 0.0000 0.0000 0.0000 0.0000 0.0000 22.6404
#
#
#
# Elastic Compliance Matrix: (Units=1/GPa)
#
#
# Indices 1 2 3 4 5 6 
#
# 1 0.276334 -0.251579 -0.009014 0.000000 0.000000 0.000000
# 2 -0.251579 0.276334 -0.009014 0.000000 0.000000 0.000000
# 3 -0.009014 -0.009014 0.011079 0.000000 0.000000 0.000000
# 4 0.000000 0.000000 0.000000 -0.023802 0.000000 0.000000
# 5 0.000000 0.000000 0.000000 0.000000 -0.023802 0.000000
# 6 0.000000 0.000000 0.000000 0.000000 0.000000 0.044169
#
#
# Mechanical properties :
#
#
# Convention : Reuss Voigt Hill
#
# Bulk Modulus (GPa) = 40.76178 82.48966 61.62572
# Shear Modulus (GPa) = 4.51384 -4.77073 -0.12845
#
# Velocity S-wave (km/s) = 1.60627 -1.65134 -0.27096
# Velocity P-wave (km/s) = 5.17102 6.59658 5.92682
#
# Compressibility (1/GPa) = 0.02453278
#
# Stress axis : x y z
#
# Youngs Moduli (GPa) = 3.61881 3.61881 90.25707
#
# Poissons Ratio (x) = 0.91042 0.81360
# Poissons Ratio (y) = 0.91042 0.81360
# Poissons Ratio (z) = 0.03262 0.03262
#
# Static dielectric constant tensor:
#      x y z
#    x 1.581080 0.000000 0.000000 
#    y 0.000000 1.581080 0.000000 
#    z 0.000000 0.000000 1.599880 
# 
# From -- ./inp_files/5801.got.cif
#   From: 2010.05.17/outbox.cif.g08.bks.cpg/sg115_3_cif.got.tgz:5801.got - 2010.05.20 11:07:42.
