data_PCOD9556120
_publ_section_title
;
Structure prediction by ZEFSAII (Michael W. Deem and Ramdas Pophale) SiO2 
 PCOD9556120
Probable space group: P -4 21 C
;
_chemical_formula_sum "Si O2"
_cell_formula_units_Z 56
_cell_length_a 14.497098
_cell_length_b 14.497098
_cell_length_c 13.607817
_cell_angle_alpha 90.000000
_cell_angle_beta 90.000000
_cell_angle_gamma 90.000000
_cell_volume 2859.898432
_symmetry_space_group_name_H-M "P -4 21 C"
_symmetry_group_IT_number 114
_symmetry_cell_setting 'tetragonal'
loop_
_space_group_symop_operation_xyz
x,y,z
y,-x,-z
-x,-y,z
-y,x,-z
1/2+x,1/2-y,1/2-z
1/2-x,1/2+y,1/2-z
1/2-y,1/2-x,1/2+z
1/2+y,1/2+x,1/2+z
loop_
_atom_site_type_symbol
_atom_site_label
_atom_site_fract_x
_atom_site_fract_y
_atom_site_fract_z
Si Si1 0.735121 0.046994 0.505426
Si Si2 0.278147 0.504509 0.476023
Si Si3 0.592953 0.561625 0.646662
Si Si4 0.296878 0.321291 0.165925
Si Si5 0.279982 0.812336 0.120004
Si Si6 0.607305 0.500114 0.851970
Si Si7 0.326030 0.159828 0.505854
O O1 0.747037 0.108068 0.408386
O O2 0.689220 0.113592 0.586456
O O3 0.834790 0.025548 0.552652
O O4 0.688275 0.948608 0.488375
O O5 0.331733 0.487100 0.577956
O O6 0.344017 0.563993 0.404931
O O7 0.260900 0.405763 0.427072
O O8 0.189117 0.567637 0.492690
O O9 0.500000 0.500000 0.646096
O O10 0.623787 0.568028 0.759521
O O11 0.239911 0.311537 0.264897
O O12 0.398872 0.362184 0.185013
O O13 0.314259 0.226033 0.107732
O O14 0.228196 0.723964 0.072493
O O15 0.500000 0.500000 0.873606
#
# Coordination Sequence:
#
# PCOD9556120 Si02
#       7
#     8   8   8   8   8   8   8
#     4  10  25  42  60  90 132 174 217 262 323 400
#     4  12  20  36  64  92 127 163 212 274 329 381
#     4  11  19  34  59  95 123 155 213 279 337 377
#     4  10  23  40  60  92 126 168 217 267 328 386
#     4  11  23  40  64  92 125 170 216 267 326 400
#     4  10  22  34  60  91 125 167 217 269 330 384
#     4  10  23  42  61  91 131 170 213 270 325 388
#
# _framework density 19.581115
#
# number of rings (size 3 to 8) (size 9 to 14) (size 15 to 20)
#    0.000    1.429    2.857    2.571    8.000    1.714 
#    0.000    0.000    0.000    3.429    0.000    0.000 
#    0.000    0.000    0.000    0.000    0.000    0.000 
#
# Total GULP energy -313029.045693 kJ/mol
# GULP energy per Si atom -5589.804387 kJ/mol
# Density = 1.953655 g / cm^3
# Si number density = 19.581115 Si / 1000 Ang^3
#
#
#
# Elastic Constant Matrix: (Units=GPa)
#
#
# Indices 1 2 3 4 5 6 
#
# 1 81.6654 10.2475 27.6557 0.0000 0.0000 0.0000
# 2 10.2475 81.6654 27.6557 0.0000 0.0000 0.0000
# 3 27.6557 27.6557 104.3094 0.0000 0.0000 0.0000
# 4 0.0000 0.0000 0.0000 16.3146 0.0000 0.0000
# 5 0.0000 0.0000 0.0000 0.0000 16.3146 0.0000
# 6 0.0000 0.0000 0.0000 0.0000 0.0000 31.5655
#
#
#
# Elastic Compliance Matrix: (Units=1/GPa)
#
#
# Indices 1 2 3 4 5 6 
#
# 1 0.013474 -0.000528 -0.003432 0.000000 0.000000 0.000000
# 2 -0.000528 0.013474 -0.003432 0.000000 0.000000 0.000000
# 3 -0.003432 -0.003432 0.011407 0.000000 0.000000 0.000000
# 4 0.000000 0.000000 0.000000 0.061295 0.000000 0.000000
# 5 0.000000 0.000000 0.000000 0.000000 0.061295 0.000000
# 6 0.000000 0.000000 0.000000 0.000000 0.000000 0.031680
#
#
# Mechanical properties :
#
#
# Convention : Reuss Voigt Hill
#
# Bulk Modulus (GPa) = 42.42930 44.30644 43.36787
# Shear Modulus (GPa) = 23.22714 26.31105 24.76909
#
# Velocity S-wave (km/s) = 3.44786 3.66962 3.56047
# Velocity P-wave (km/s) = 6.12910 6.37425 6.25288
#
# Compressibility (1/GPa) = 0.02356862
#
# Stress axis : x y z
#
# Youngs Moduli (GPa) = 74.21864 74.21864 87.66678
#
# Poissons Ratio (x) = 0.03922 0.30089
# Poissons Ratio (y) = 0.03922 0.30089
# Poissons Ratio (z) = 0.25473 0.25473
#
# Static dielectric constant tensor:
#      x y z
#    x 1.706640 0.000000 0.000000 
#    y 0.000000 1.706640 0.000000 
#    z 0.000000 0.000000 1.693550 
# 
# From -- ./inp_files/2237.got.cif
#   From: 2010.05.17/outbox.cif.g08.bks.cpg/sg114_2_cif.got.tgz:2237.got - 2010.05.20 11:04:54.
