data_PCOD9556856
_publ_section_title
;
Structure prediction by ZEFSAII (Michael W. Deem and Ramdas Pophale) SiO2 
 PCOD9556856
Probable space group: P -4 M 2
;
_chemical_formula_sum "Si O2"
_cell_formula_units_Z 28
_cell_length_a 9.253995
_cell_length_b 9.253995
_cell_length_c 18.651691
_cell_angle_alpha 90.000000
_cell_angle_beta 90.000000
_cell_angle_gamma 90.000000
_cell_volume 1597.264109
_symmetry_space_group_name_H-M "P -4 M 2"
_symmetry_group_IT_number 115
_symmetry_cell_setting 'tetragonal'
loop_
_space_group_symop_operation_xyz
x,y,z
y,-x,-z
-x,-y,z
-y,x,-z
y,x,-z
-y,-x,-z
-x,y,z
x,-y,z
loop_
_atom_site_type_symbol
_atom_site_label
_atom_site_fract_x
_atom_site_fract_y
_atom_site_fract_z
Si Si1 0.675930 0.333227 0.420978
Si Si2 0.329870 0.826781 0.853213
Si Si3 0.169190 0.325880 0.722512
Si Si4 0.171490 0.828511 0.000000
O O1 0.720565 0.279436 0.500000
O O2 0.500000 0.334121 0.423164
O O3 0.722171 0.500000 0.411081
O O4 0.720206 0.238049 0.353446
O O5 0.500000 0.794860 0.853427
O O6 0.252292 0.747346 0.787918
O O7 0.311336 0.000000 0.845477
O O8 0.258226 0.785460 0.929058
O O9 0.184147 0.500000 0.727485
O O10 0.000000 0.290570 0.725203
O O11 0.000000 0.806059 0.987719
#
# Coordination Sequence:
#
# PCOD9556856 Si02
#       4
#     8   8   8   4
#     4   8  14  27  48  71  96 130 171 213 256 300
#     4  10  21  36  54  77 104 134 169 208 251 300
#     4  10  20  33  51  76 105 137 172 209 251 300
#     4   9  18  34  54  73  98 134 170 205 250 303
#
# _framework density 17.529972999999998
#
# number of rings (size 3 to 8) (size 9 to 14) (size 15 to 20)
#    0.000    2.714    0.000    2.571    0.000    4.571 
#    0.000    4.286    0.000    5.143    0.000    0.000 
#    0.000    0.000    0.000    0.000    0.000    0.000 
#
# Total GULP energy -156157.908699 kJ/mol
# GULP energy per Si atom -5577.068168 kJ/mol
# Density = 1.749007 g / cm^3
# Si number density = 17.529973 Si / 1000 Ang^3
#
#
#
# Elastic Constant Matrix: (Units=GPa)
#
#
# Indices 1 2 3 4 5 6 
#
# 1 63.0736 48.9167 86.7072 0.0000 0.0000 0.0000
# 2 48.9167 63.0746 86.7073 0.0000 0.0000 0.0000
# 3 86.7072 86.7073 221.5508 0.0000 0.0000 0.0000
# 4 0.0000 0.0000 0.0000 106.8263 0.0000 0.0000
# 5 0.0000 0.0000 0.0000 0.0000 106.8524 0.0000
# 6 0.0000 0.0000 0.0000 0.0000 0.0000 21.6874
#
#
#
# Elastic Compliance Matrix: (Units=1/GPa)
#
#
# Indices 1 2 3 4 5 6 
#
# 1 0.046650 -0.023985 -0.008870 0.000000 0.000000 0.000000
# 2 -0.023985 0.046649 -0.008870 0.000000 0.000000 0.000000
# 3 -0.008870 -0.008870 0.011456 0.000000 0.000000 0.000000
# 4 0.000000 0.000000 0.000000 0.009361 0.000000 0.000000
# 5 0.000000 0.000000 0.000000 0.000000 0.009359 0.000000
# 6 0.000000 0.000000 0.000000 0.000000 0.000000 0.046110
#
#
# Mechanical properties :
#
#
# Convention : Reuss Voigt Hill
#
# Bulk Modulus (GPa) = 46.93752 88.04015 67.48883
# Shear Modulus (GPa) = 19.22065 55.43106 37.32585
#
# Velocity S-wave (km/s) = 3.31485 5.62933 4.61940
# Velocity P-wave (km/s) = 6.44086 9.62207 8.18746
#
# Compressibility (1/GPa) = 0.02130492
#
# Stress axis : x y z
#
# Youngs Moduli (GPa) = 21.43612 21.43683 87.28731
#
# Poissons Ratio (x) = 0.51417 0.77426
# Poissons Ratio (y) = 0.51415 0.77421
# Poissons Ratio (z) = 0.19014 0.19014
#
# Static dielectric constant tensor:
#      x y z
#    x 1.585300 0.000000 0.000000 
#    y 0.000000 1.585300 0.000000 
#    z 0.000000 0.000000 1.582980 
# 
# From -- ./inp_files/4508.got.cif
#   From: 2010.05.17/outbox.cif.g08.bks.cpg/sg115_3_cif.got.tgz:4508.got - 2010.05.20 11:07:42.
