data_PCOD9556105
_publ_section_title
;
Structure prediction by ZEFSAII (Michael W. Deem and Ramdas Pophale) SiO2 
 PCOD9556105
Probable space group: P -4 21 C
;
_chemical_formula_sum "Si O2"
_cell_formula_units_Z 34
_cell_length_a 11.440091
_cell_length_b 11.440091
_cell_length_c 9.368060
_cell_angle_alpha 90.000000
_cell_angle_beta 90.000000
_cell_angle_gamma 90.000000
_cell_volume 1226.051242
_symmetry_space_group_name_H-M "P -4 21 C"
_symmetry_group_IT_number 114
_symmetry_cell_setting 'tetragonal'
loop_
_space_group_symop_operation_xyz
x,y,z
y,-x,-z
-x,-y,z
-y,x,-z
1/2+x,1/2-y,1/2-z
1/2-x,1/2+y,1/2-z
1/2-y,1/2-x,1/2+z
1/2+y,1/2+x,1/2+z
loop_
_atom_site_type_symbol
_atom_site_label
_atom_site_fract_x
_atom_site_fract_y
_atom_site_fract_z
Si Si1 0.815817 0.815837 0.954626
Si Si2 0.109870 0.753006 0.753214
Si Si3 0.150966 0.977698 0.590545
Si Si4 0.500000 0.500000 0.500000
Si Si5 0.443140 0.874456 0.955852
O O1 0.741622 0.875703 0.080126
O O2 0.866505 0.696508 0.024818
O O3 0.726647 0.791025 0.827625
O O4 0.917906 0.906471 0.918190
O O5 0.112655 0.892567 0.716338
O O6 0.999261 0.686421 0.685495
O O7 0.288823 0.985345 0.583272
O O8 0.101930 0.903275 0.451284
O O9 0.500000 0.000000 0.965818
#
# Coordination Sequence:
#
# PCOD9556105 Si02
#       5
#     8   8   8   2   8
#     4  11  26  48  75 110 154 197 261 321 401 468
#     4  10  23  46  73 105 144 196 254 317 384 461
#     4   8  16  35  65  96 130 179 244 295 358 444
#     4  12  28  48  76 118 164 204 248 342 404 464
#     4  10  21  43  65 101 141 193 236 302 378 464
#
# _framework density 27.731301999999999
#
# number of rings (size 3 to 8) (size 9 to 14) (size 15 to 20)
#    0.000    2.118    0.000    1.412    3.294    3.765 
#   29.647    0.000    0.000    1.412    0.000    0.000 
#    0.000    0.000    0.000    0.000    0.000    0.000 
#
# Total GULP energy -190489.303433 kJ/mol
# GULP energy per Si atom -5602.626572 kJ/mol
# Density = 2.766818 g / cm^3
# Si number density = 27.731302 Si / 1000 Ang^3
#
#
#
# Elastic Constant Matrix: (Units=GPa)
#
#
# Indices 1 2 3 4 5 6 
#
# 1 201.5635 64.3049 40.2190 0.0000 0.0000 0.0000
# 2 64.3049 201.5635 40.2190 0.0000 0.0000 0.0000
# 3 40.2190 40.2190 99.2355 0.0000 0.0000 0.0000
# 4 0.0000 0.0000 0.0000 40.8513 0.0000 0.0000
# 5 0.0000 0.0000 0.0000 0.0000 40.8513 0.0000
# 6 0.0000 0.0000 0.0000 0.0000 0.0000 55.1889
#
#
#
# Elastic Compliance Matrix: (Units=1/GPa)
#
#
# Indices 1 2 3 4 5 6 
#
# 1 0.005786 -0.001499 -0.001737 0.000000 0.000000 0.000000
# 2 -0.001499 0.005786 -0.001737 0.000000 0.000000 0.000000
# 3 -0.001737 -0.001737 0.011485 0.000000 0.000000 0.000000
# 4 0.000000 0.000000 0.000000 0.024479 0.000000 0.000000
# 5 0.000000 0.000000 0.000000 0.000000 0.024479 0.000000
# 6 0.000000 0.000000 0.000000 0.000000 0.000000 0.018120
#
#
# Mechanical properties :
#
#
# Convention : Reuss Voigt Hill
#
# Bulk Modulus (GPa) = 76.28086 87.98314 82.13200
# Shear Modulus (GPa) = 47.86815 51.21961 49.54388
#
# Velocity S-wave (km/s) = 4.15919 4.30233 4.23137
# Velocity P-wave (km/s) = 7.11562 7.51505 7.31806
#
# Compressibility (1/GPa) = 0.01310945
#
# Stress axis : x y z
#
# Youngs Moduli (GPa) = 172.82447 172.82447 87.06727
#
# Poissons Ratio (x) = 0.25912 0.15127
# Poissons Ratio (y) = 0.25912 0.15127
# Poissons Ratio (z) = 0.30027 0.30027
#
# Static dielectric constant tensor:
#      x y z
#    x 2.202880 0.000000 0.000000 
#    y 0.000000 2.202880 0.000000 
#    z 0.000000 0.000000 2.192260 
# 
# From -- ./inp_files/1491.got.cif
#   From: 2010.05.17/outbox.cif.g08.bks.cpg/sg114_1_cif.got.tgz:1491.got - 2010.05.20 11:04:54.
