data_PCOD9556078
_publ_section_title
;
Structure prediction by ZEFSAII (Michael W. Deem and Ramdas Pophale) SiO2 
 PCOD9556078
Probable space group: P -4 21 C
;
_chemical_formula_sum "Si O2"
_cell_formula_units_Z 40
_cell_length_a 13.856177
_cell_length_b 13.856177
_cell_length_c 8.940467
_cell_angle_alpha 90.000000
_cell_angle_beta 90.000000
_cell_angle_gamma 90.000000
_cell_volume 1716.512812
_symmetry_space_group_name_H-M "P -4 21 C"
_symmetry_group_IT_number 114
_symmetry_cell_setting 'tetragonal'
loop_
_space_group_symop_operation_xyz
x,y,z
y,-x,-z
-x,-y,z
-y,x,-z
1/2+x,1/2-y,1/2-z
1/2-x,1/2+y,1/2-z
1/2-y,1/2-x,1/2+z
1/2+y,1/2+x,1/2+z
loop_
_atom_site_type_symbol
_atom_site_label
_atom_site_fract_x
_atom_site_fract_y
_atom_site_fract_z
Si Si1 0.803291 0.387380 0.232020
Si Si2 0.644262 0.552819 0.970531
Si Si3 0.815589 0.517586 0.749963
Si Si4 0.922369 0.694925 0.902071
Si Si5 0.734861 0.747734 0.025582
O O1 0.775312 0.490873 0.294686
O O2 0.788879 0.358122 0.061020
O O3 0.745392 0.307885 0.327093
O O4 0.914748 0.366281 0.265377
O O5 0.709269 0.521054 0.827920
O O6 0.710863 0.634835 0.049072
O O7 0.608955 0.457298 0.058638
O O8 0.880643 0.595664 0.835626
O O9 0.813277 0.540841 0.573189
O O10 0.827883 0.760802 0.920580
#
# Coordination Sequence:
#
# PCOD9556078 Si02
#       5
#     8   8   8   8   8
#     4  12  24  44  71 102 147 186 248 302 368 436
#     4  10  21  40  68 101 141 190 243 293 357 442
#     4  11  24  44  72 108 145 193 247 299 376 436
#     4  11  26  45  70 105 146 187 244 309 365 441
#     4  11  24  43  69 103 139 193 240 296 369 435
#
# _framework density 23.303061
#
# number of rings (size 3 to 8) (size 9 to 14) (size 15 to 20)
#    0.000    1.000    4.000    3.000    2.800    3.200 
#    0.000    0.000    0.000    0.600    0.000    0.000 
#    0.000    0.000    0.000    0.000    0.000    0.000 
#
# Total GULP energy -223499.322388 kJ/mol
# GULP energy per Si atom -5587.483060 kJ/mol
# Density = 2.325002 g / cm^3
# Si number density = 23.303061 Si / 1000 Ang^3
#
#
#
# Elastic Constant Matrix: (Units=GPa)
#
#
# Indices 1 2 3 4 5 6 
#
# 1 82.5134 7.9319 31.7127 0.0000 0.0000 0.0000
# 2 7.9319 82.5134 31.7127 0.0000 0.0000 0.0000
# 3 31.7127 31.7127 120.5821 0.0000 0.0000 0.0000
# 4 0.0000 0.0000 0.0000 40.6755 0.0000 0.0000
# 5 0.0000 0.0000 0.0000 0.0000 40.6755 0.0000
# 6 0.0000 0.0000 0.0000 0.0000 0.0000 29.3130
#
#
#
# Elastic Compliance Matrix: (Units=1/GPa)
#
#
# Indices 1 2 3 4 5 6 
#
# 1 0.013482 0.000074 -0.003565 0.000000 0.000000 0.000000
# 2 0.000074 0.013482 -0.003565 0.000000 0.000000 0.000000
# 3 -0.003565 -0.003565 0.010168 0.000000 0.000000 0.000000
# 4 0.000000 0.000000 0.000000 0.024585 0.000000 0.000000
# 5 0.000000 0.000000 0.000000 0.000000 0.024585 0.000000
# 6 0.000000 0.000000 0.000000 0.000000 0.000000 0.034115
#
#
# Mechanical properties :
#
#
# Convention : Reuss Voigt Hill
#
# Bulk Modulus (GPa) = 43.43988 47.59149 45.51569
# Shear Modulus (GPa) = 35.16080 36.41624 35.78852
#
# Velocity S-wave (km/s) = 3.88860 3.95742 3.92316
# Velocity P-wave (km/s) = 6.23245 6.43030 6.33215
#
# Compressibility (1/GPa) = 0.02302032
#
# Stress axis : x y z
#
# Youngs Moduli (GPa) = 74.17084 74.17084 98.34338
#
# Poissons Ratio (x) = -0.00551 0.35063
# Poissons Ratio (y) = -0.00551 0.35063
# Poissons Ratio (z) = 0.26444 0.26444
#
# Static dielectric constant tensor:
#      x y z
#    x 1.906970 0.000000 0.000000 
#    y 0.000000 1.906970 0.000000 
#    z 0.000000 0.000000 1.876450 
# 
# From -- ./inp_files/785.got.cif
#   From: 2010.05.17/outbox.cif.g08.bks.cpg/sg114_1_cif.got.tgz:785.got - 2010.05.20 11:04:54.
