data_PCOD9556524
_publ_section_title
;
Structure prediction by ZEFSAII (Michael W. Deem and Ramdas Pophale) SiO2 
 PCOD9556524
Probable space group: P -4 M 2
;
_chemical_formula_sum "Si O2"
_cell_formula_units_Z 64
_cell_length_a 26.921713
_cell_length_b 26.921713
_cell_length_c 5.429063
_cell_angle_alpha 90.000000
_cell_angle_beta 90.000000
_cell_angle_gamma 90.000000
_cell_volume 3934.868848
_symmetry_space_group_name_H-M "P -4 M 2"
_symmetry_group_IT_number 115
_symmetry_cell_setting 'tetragonal'
loop_
_space_group_symop_operation_xyz
x,y,z
y,-x,-z
-x,-y,z
-y,x,-z
y,x,-z
-y,-x,-z
-x,y,z
x,-y,z
loop_
_atom_site_type_symbol
_atom_site_label
_atom_site_fract_x
_atom_site_fract_y
_atom_site_fract_z
Si Si1 0.390525 0.906962 0.999997
Si Si2 0.366136 0.790340 0.000004
Si Si3 0.275699 0.058257 0.999997
Si Si4 0.440816 0.701362 0.000008
Si Si5 0.058624 0.388098 0.500003
Si Si6 0.780929 0.697391 0.499995
Si Si7 0.893356 0.277825 0.500003
Si Si8 0.559307 0.359055 0.500008
O O1 0.381962 0.848062 0.999999
O O2 0.335633 0.932927 0.999996
O O3 0.415063 0.925530 0.250571
O O4 0.415063 0.925530 0.749423
O O5 0.334947 0.780358 0.249431
O O6 0.412189 0.753089 0.000004
O O7 0.334946 0.780357 0.750582
O O8 0.256805 0.083680 0.249338
O O9 0.266332 0.000000 0.000005
O O10 0.256805 0.083677 0.750649
O O11 0.500000 0.708893 0.000006
O O12 0.428303 0.671302 0.749657
O O13 0.428304 0.671304 0.250364
O O14 0.090204 0.336388 0.500004
O O15 0.000000 0.376748 0.500002
O O16 0.735870 0.735870 0.500000
O O17 0.834322 0.724489 0.499994
O O18 0.590630 0.409371 0.500000
O O19 0.500000 0.367880 0.500008
#
# Coordination Sequence:
#
# PCOD9556524 Si02
#       8
#     8   8   8   8   8   8   8   8
#     4  10  16  27  41  62  90 116 145 192 246 273
#     4  12  21  37  51  67  96 128 163 209 232 282
#     4  10  16  25  44  63  87 119 152 190 252 292
#     4  10  23  39  58  79 104 134 164 200 240 279
#     4  10  16  25  43  63  90 118 149 189 249 295
#     4  12  23  34  47  68  95 135 167 195 237 280
#     4  10  16  29  38  58  92 117 150 197 236 276
#     4  10  21  39  61  85 110 131 155 193 239 289
#
# _framework density 16.264838000000001
#
# number of rings (size 3 to 8) (size 9 to 14) (size 15 to 20)
#    0.000    1.500    5.000    5.250    0.000    3.125 
#    0.000    0.000    0.000    2.250    0.000    0.000 
#    0.000    5.500    0.000    0.000    0.000    0.000 
#
# Total GULP energy -356872.844072 kJ/mol
# GULP energy per Si atom -5576.138189 kJ/mol
# Density = 1.622782 g / cm^3
# Si number density = 16.264838 Si / 1000 Ang^3
#
#
#
# Elastic Constant Matrix: (Units=GPa)
#
#
# Indices 1 2 3 4 5 6 
#
# 1 30.8702 37.0877 25.9796 0.0000 0.0000 0.0000
# 2 37.0877 30.8598 25.9769 0.0000 0.0000 0.0000
# 3 25.9796 25.9769 177.9890 0.0000 0.0000 0.0000
# 4 0.0000 0.0000 0.0000 10.5909 0.0000 0.0000
# 5 0.0000 0.0000 0.0000 0.0000 10.5946 0.0000
# 6 0.0000 0.0000 0.0000 0.0000 0.0000 -2.2067
#
#
#
# Elastic Compliance Matrix: (Units=1/GPa)
#
#
# Indices 1 2 3 4 5 6 
#
# 1 -0.072056 0.088634 -0.002418 0.000000 0.000000 0.000000
# 2 0.088634 -0.072082 -0.002417 0.000000 0.000000 0.000000
# 3 -0.002418 -0.002417 0.006324 0.000000 0.000000 0.000000
# 4 0.000000 0.000000 0.000000 0.094421 0.000000 0.000000
# 5 0.000000 0.000000 0.000000 0.000000 0.094388 0.000000
# 6 0.000000 0.000000 0.000000 0.000000 0.000000 -0.453171
#
#
# Mechanical properties :
#
#
# Convention : Reuss Voigt Hill
#
# Bulk Modulus (GPa) = 33.57656 46.42304 39.99980
# Shear Modulus (GPa) = -8.93105 13.84074 2.45485
#
# Velocity S-wave (km/s) = -2.34583 2.92029 1.22987
# Velocity P-wave (km/s) = 3.65393 6.32256 5.16362
#
# Compressibility (1/GPa) = 0.02978268
#
# Stress axis : x y z
#
# Youngs Moduli (GPa) = -13.87810 -13.87313 158.12606
#
# Poissons Ratio (x) = 1.22962 0.38241
# Poissons Ratio (y) = 1.23007 0.38219
# Poissons Ratio (z) = -0.03356 -0.03353
#
# Static dielectric constant tensor:
#      x y z
#    x 1.513510 0.000000 0.000000 
#    y 0.000000 1.513510 0.000000 
#    z 0.000000 0.000000 1.660660 
# 
# From -- ./inp_files/818.got.cif
#   From: 2010.05.17/outbox.cif.g08.bks.cpg/sg115_1_cif.got.tgz:818.got - 2010.05.20 11:07:42.
