data_PCOD9556984
_publ_section_title
;
Structure prediction by ZEFSAII (Michael W. Deem and Ramdas Pophale) SiO2 
 PCOD9556984
Probable space group: P -4 M 2
;
_chemical_formula_sum "Si O2"
_cell_formula_units_Z 48
_cell_length_a 9.181890
_cell_length_b 9.181890
_cell_length_c 31.806357
_cell_angle_alpha 90.000000
_cell_angle_beta 90.000000
_cell_angle_gamma 90.000000
_cell_volume 2681.501847
_symmetry_space_group_name_H-M "P -4 M 2"
_symmetry_group_IT_number 115
_symmetry_cell_setting 'tetragonal'
loop_
_space_group_symop_operation_xyz
x,y,z
y,-x,-z
-x,-y,z
-y,x,-z
y,x,-z
-y,-x,-z
-x,y,z
x,-y,z
loop_
_atom_site_type_symbol
_atom_site_label
_atom_site_fract_x
_atom_site_fract_y
_atom_site_fract_z
Si Si1 0.171658 0.325758 0.835623
Si Si2 0.824341 0.170721 0.329357
Si Si3 0.332428 0.822662 0.585353
Si Si4 0.327139 0.327139 0.000000
Si Si5 0.173099 0.327076 0.086635
Si Si6 0.671129 0.674930 0.748732
Si Si7 0.826353 0.173648 0.500000
O O1 0.190632 0.500000 0.841022
O O2 0.240110 0.245062 0.875338
O O3 0.253006 0.283178 0.792626
O O4 0.000000 0.295807 0.831960
O O5 0.777427 0.244363 0.373236
O O6 0.752262 0.251661 0.290212
O O7 0.000000 0.183533 0.326498
O O8 0.787563 0.000000 0.329145
O O9 0.500000 0.775505 0.587503
O O10 0.256359 0.777322 0.541967
O O11 0.330670 0.000000 0.585128
O O12 0.283272 0.241413 0.958160
O O13 0.304126 0.500000 0.993177
O O14 0.203425 0.500000 0.092104
O O15 0.000000 0.306657 0.086165
O O16 0.500000 0.710355 0.749832
O O17 0.685862 0.500000 0.744340
O O18 0.000000 0.196002 0.505583
#
# Coordination Sequence:
#
# PCOD9556984 Si02
#       7
#     8   8   8   4   8   8   4
#     4  10  21  37  57  79 104 138 179 220 263 313
#     4  10  20  34  54  80 108 139 176 217 262 313
#     4   9  17  30  49  73 101 133 170 212 258 309
#     4   9  18  34  56  79 106 144 186 223 260 309
#     4  10  21  36  55  81 111 141 175 217 264 313
#     4  10  21  37  57  80 106 138 176 218 265 316
#     4   9  16  28  48  71  94 124 166 213 256 302
#
# _framework density 17.900414999999999
#
# number of rings (size 3 to 8) (size 9 to 14) (size 15 to 20)
#    0.000    2.333    0.000    2.500    0.000    7.333 
#    0.000    2.500    0.000    3.250    0.000    0.000 
#    0.000    0.000    0.000    0.000    0.000    0.000 
#
# Total GULP energy -267967.966559 kJ/mol
# GULP energy per Si atom -5582.665970 kJ/mol
# Density = 1.785967 g / cm^3
# Si number density = 17.900415 Si / 1000 Ang^3
#
#
#
# Elastic Constant Matrix: (Units=GPa)
#
#
# Indices 1 2 3 4 5 6 
#
# 1 77.2977 62.1325 95.0991 0.0000 0.0000 0.0000
# 2 62.1325 77.2973 95.0991 0.0000 0.0000 0.0000
# 3 95.0991 95.0991 222.8063 0.0000 0.0000 0.0000
# 4 0.0000 0.0000 0.0000 36.8265 0.0000 0.0000
# 5 0.0000 0.0000 0.0000 0.0000 36.8265 0.0000
# 6 0.0000 0.0000 0.0000 0.0000 0.0000 23.1892
#
#
#
# Elastic Compliance Matrix: (Units=1/GPa)
#
#
# Indices 1 2 3 4 5 6 
#
# 1 0.041554 -0.024387 -0.007327 0.000000 0.000000 0.000000
# 2 -0.024387 0.041555 -0.007328 0.000000 0.000000 0.000000
# 3 -0.007327 -0.007328 0.010743 0.000000 0.000000 0.000000
# 4 0.000000 0.000000 0.000000 0.027154 0.000000 0.000000
# 5 0.000000 0.000000 0.000000 0.000000 0.027154 0.000000
# 6 0.000000 0.000000 0.000000 0.000000 0.000000 0.043124
#
#
# Mechanical properties :
#
#
# Convention : Reuss Voigt Hill
#
# Bulk Modulus (GPa) = 63.41783 98.00696 80.71240
# Shear Modulus (GPa) = 18.20664 27.70647 22.95656
#
# Velocity S-wave (km/s) = 3.19267 3.93849 3.58503
# Velocity P-wave (km/s) = 7.00685 8.69209 7.89456
#
# Compressibility (1/GPa) = 0.01576844
#
# Stress axis : x y z
#
# Youngs Moduli (GPa) = 24.06487 24.06461 93.08058
#
# Poissons Ratio (x) = 0.58686 0.68205
# Poissons Ratio (y) = 0.58687 0.68206
# Poissons Ratio (z) = 0.17634 0.17634
#
# Static dielectric constant tensor:
#      x y z
#    x 1.600210 0.000000 0.000000 
#    y 0.000000 1.600210 0.000000 
#    z 0.000000 0.000000 1.576920 
# 
# From -- ./inp_files/6191.got.cif
#   From: 2010.05.17/outbox.cif.g08.bks.cpg/sg115_4_cif.got.tgz:6191.got - 2010.05.20 11:07:42.
