data_PCOD9556778
_publ_section_title
;
Structure prediction by ZEFSAII (Michael W. Deem and Ramdas Pophale) SiO2 
 PCOD9556778
Probable space group: P -4 M 2
;
_chemical_formula_sum "Si O2"
_cell_formula_units_Z 48
_cell_length_a 9.302184
_cell_length_b 9.302184
_cell_length_c 32.156353
_cell_angle_alpha 90.000000
_cell_angle_beta 90.000000
_cell_angle_gamma 90.000000
_cell_volume 2782.509393
_symmetry_space_group_name_H-M "P -4 M 2"
_symmetry_group_IT_number 115
_symmetry_cell_setting 'tetragonal'
loop_
_space_group_symop_operation_xyz
x,y,z
y,-x,-z
-x,-y,z
-y,x,-z
y,x,-z
-y,-x,-z
-x,y,z
x,-y,z
loop_
_atom_site_type_symbol
_atom_site_label
_atom_site_fract_x
_atom_site_fract_y
_atom_site_fract_z
Si Si1 0.171434 0.169883 0.622401
Si Si2 0.165890 0.174981 0.120725
Si Si3 0.827692 0.330198 0.962407
Si Si4 0.828536 0.329626 0.537487
Si Si5 0.824652 0.166161 0.212428
Si Si6 0.665100 0.824697 0.705842
O O1 0.212586 0.257755 0.581413
O O2 0.251884 0.218441 0.664071
O O3 0.000000 0.184525 0.628643
O O4 0.201420 0.000000 0.615739
O O5 0.261631 0.217954 0.081679
O O6 0.217990 0.220894 0.166574
O O7 0.000000 0.220542 0.114629
O O8 0.165206 0.000000 0.122283
O O9 0.800390 0.500000 0.962925
O O10 0.000000 0.307713 0.966543
O O11 0.748101 0.251900 0.000000
O O12 0.744007 0.255994 0.500000
O O13 0.803480 0.500000 0.538437
O O14 0.000000 0.305167 0.531869
O O15 0.776368 0.257818 0.251830
O O16 0.000000 0.166615 0.211876
O O17 0.780175 0.000000 0.217388
O O18 0.500000 0.779542 0.704633
O O19 0.668762 0.000000 0.706447
#
# Coordination Sequence:
#
# PCOD9556778 Si02
#       6
#     8   8   8   8   8   8
#     4   9  17  30  49  71  95 125 159 194 235 284
#     4   8  14  26  46  70  93 119 153 194 238 283
#     4  10  20  33  50  72  97 126 161 200 243 292
#     4  10  21  36  54  76 101 129 163 203 246 293
#     4   8  13  23  41  64  89 118 153 192 236 284
#     4   9  16  25  40  66  97 124 153 194 239 278
#
# _framework density 17.250616999999998
#
# number of rings (size 3 to 8) (size 9 to 14) (size 15 to 20)
#    0.000    3.000    0.000    2.500    0.000    4.667 
#    0.000    2.500    0.000    4.000    0.000    4.667 
#    0.000    0.000    0.000    0.000    0.000    0.000 
#
# Total GULP energy -267485.576584 kJ/mol
# GULP energy per Si atom -5572.616179 kJ/mol
# Density = 1.721135 g / cm^3
# Si number density = 17.250617 Si / 1000 Ang^3
#
#
#
# Elastic Constant Matrix: (Units=GPa)
#
#
# Indices 1 2 3 4 5 6 
#
# 1 49.0265 41.6914 78.9396 0.0000 0.0000 0.0000
# 2 41.6914 49.0286 78.9394 0.0000 0.0000 0.0000
# 3 78.9396 78.9394 223.8541 0.0000 0.0000 0.0000
# 4 0.0000 0.0000 0.0000 -5.2081 0.0000 0.0000
# 5 0.0000 0.0000 0.0000 0.0000 -5.2071 0.0000
# 6 0.0000 0.0000 0.0000 0.0000 0.0000 12.2049
#
#
#
# Elastic Compliance Matrix: (Units=1/GPa)
#
#
# Indices 1 2 3 4 5 6 
#
# 1 0.082428 -0.053888 -0.010064 0.000000 0.000000 0.000000
# 2 -0.053888 0.082419 -0.010061 0.000000 0.000000 0.000000
# 3 -0.010064 -0.010061 0.011564 0.000000 0.000000 0.000000
# 4 0.000000 0.000000 0.000000 -0.192010 0.000000 0.000000
# 5 0.000000 0.000000 0.000000 0.000000 -0.192045 0.000000
# 6 0.000000 0.000000 0.000000 0.000000 0.000000 0.081934
#
#
# Mechanical properties :
#
#
# Convention : Reuss Voigt Hill
#
# Bulk Modulus (GPa) = 35.23133 80.11667 57.67400
# Shear Modulus (GPa) = 157.33857 8.51386 82.92622
#
# Velocity S-wave (km/s) = 9.56062 2.22399 6.94088
# Velocity P-wave (km/s) = 11.93070 7.28961 9.88635
#
# Compressibility (1/GPa) = 0.02838383
#
# Stress axis : x y z
#
# Youngs Moduli (GPa) = 12.13186 12.13311 86.47514
#
# Poissons Ratio (x) = 0.65383 0.87029
# Poissons Ratio (y) = 0.65377 0.87002
# Poissons Ratio (z) = 0.12210 0.12207
#
# Static dielectric constant tensor:
#      x y z
#    x 1.567740 0.000000 0.000000 
#    y 0.000000 1.567740 0.000000 
#    z 0.000000 0.000000 1.582570 
# 
# From -- ./inp_files/6100.got.cif
#   From: 2010.05.17/outbox.cif.g08.bks.cpg/sg115_4_cif.got.tgz:6100.got - 2010.05.20 11:07:42.
