data_PCOD9556474
_publ_section_title
;
Structure prediction by ZEFSAII (Michael W. Deem and Ramdas Pophale) SiO2 
 PCOD9556474
Probable space group: P -4 21 C
;
_chemical_formula_sum "Si O2"
_cell_formula_units_Z 48
_cell_length_a 8.635409
_cell_length_b 8.635409
_cell_length_c 30.305385
_cell_angle_alpha 90.000000
_cell_angle_beta 90.000000
_cell_angle_gamma 90.000000
_cell_volume 2259.881306
_symmetry_space_group_name_H-M "P -4 21 C"
_symmetry_group_IT_number 114
_symmetry_cell_setting 'tetragonal'
loop_
_space_group_symop_operation_xyz
x,y,z
y,-x,-z
-x,-y,z
-y,x,-z
1/2+x,1/2-y,1/2-z
1/2-x,1/2+y,1/2-z
1/2-y,1/2-x,1/2+z
1/2+y,1/2+x,1/2+z
loop_
_atom_site_type_symbol
_atom_site_label
_atom_site_fract_x
_atom_site_fract_y
_atom_site_fract_z
Si Si1 0.876691 0.626959 0.715314
Si Si2 0.889253 0.134937 0.719232
Si Si3 0.316844 0.821038 0.641703
Si Si4 0.320901 0.815313 0.544073
Si Si5 0.197640 0.679876 0.358683
Si Si6 0.813396 0.324937 0.456730
O O1 0.741993 0.570899 0.748180
O O2 0.787032 0.716553 0.676493
O O3 0.000000 0.500000 0.700277
O O4 0.989331 0.747176 0.741185
O O5 0.798898 0.223870 0.680441
O O6 0.000000 0.000000 0.701418
O O7 0.263013 0.769396 0.592885
O O8 0.495600 0.768809 0.646692
O O9 0.312890 0.009975 0.644539
O O10 0.233970 0.762488 0.500654
O O11 0.497570 0.759929 0.539874
O O12 0.324086 0.000977 0.545183
O O13 0.241047 0.731103 0.408575
#
# Coordination Sequence:
#
# PCOD9556474 Si02
#       6
#     8   8   8   8   8   8
#     4  12  26  41  61  97 129 160 209 270 327 383
#     4  12  24  42  66  91 123 170 215 263 325 391
#     4   9  19  39  68  86 116 171 221 251 305 387
#     4   9  19  37  60  90 118 158 203 250 304 366
#     4   9  19  40  64  88 123 166 211 260 315 375
#     4   9  19  37  60  88 122 158 200 251 306 366
#
# _framework density 21.240053
#
# number of rings (size 3 to 8) (size 9 to 14) (size 15 to 20)
#    0.000    2.000    1.667    4.000    2.333    2.000 
#    6.000    0.000    0.000    0.000    0.000    0.000 
#    0.000    0.000    0.000    0.000    0.000    0.000 
#
# Total GULP energy -267725.807138 kJ/mol
# GULP energy per Si atom -5577.620982 kJ/mol
# Density = 2.119171 g / cm^3
# Si number density = 21.240053 Si / 1000 Ang^3
#
#
#
# Elastic Constant Matrix: (Units=GPa)
#
#
# Indices 1 2 3 4 5 6 
#
# 1 59.6027 36.9059 46.1842 0.0000 0.0000 0.0000
# 2 36.9059 59.6027 46.1842 0.0000 0.0000 0.0000
# 3 46.1842 46.1842 151.3152 0.0000 0.0000 0.0000
# 4 0.0000 0.0000 0.0000 30.0764 0.0000 0.0000
# 5 0.0000 0.0000 0.0000 0.0000 30.0764 0.0000
# 6 0.0000 0.0000 0.0000 0.0000 0.0000 32.6433
#
#
#
# Elastic Compliance Matrix: (Units=1/GPa)
#
#
# Indices 1 2 3 4 5 6 
#
# 1 0.029348 -0.014711 -0.004468 0.000000 0.000000 0.000000
# 2 -0.014711 0.029348 -0.004468 0.000000 0.000000 0.000000
# 3 -0.004468 -0.004468 0.009336 0.000000 0.000000 0.000000
# 4 0.000000 0.000000 0.000000 0.033249 0.000000 0.000000
# 5 0.000000 0.000000 0.000000 0.000000 0.033249 0.000000
# 6 0.000000 0.000000 0.000000 0.000000 0.000000 0.030634
#
#
# Mechanical properties :
#
#
# Convention : Reuss Voigt Hill
#
# Bulk Modulus (GPa) = 48.21436 58.78548 53.49992
# Shear Modulus (GPa) = 22.79253 27.97563 25.38408
#
# Velocity S-wave (km/s) = 3.27936 3.63315 3.46078
# Velocity P-wave (km/s) = 6.08999 6.73324 6.41967
#
# Compressibility (1/GPa) = 0.02074071
#
# Stress axis : x y z
#
# Youngs Moduli (GPa) = 34.07337 34.07337 107.11229
#
# Poissons Ratio (x) = 0.50124 0.47855
# Poissons Ratio (y) = 0.50124 0.47855
# Poissons Ratio (z) = 0.15223 0.15223
#
# Static dielectric constant tensor:
#      x y z
#    x 1.806970 0.000000 0.000000 
#    y 0.000000 1.806970 0.000000 
#    z 0.000000 0.000000 1.787330 
# 
# From -- ./inp_files/3922.got.cif
#   From: 2010.05.17/outbox.cif.g08.bks.cpg/sg114_2_cif.got.tgz:3922.got - 2010.05.20 11:04:54.
