data_PCOD9556879
_publ_section_title
;
Structure prediction by ZEFSAII (Michael W. Deem and Ramdas Pophale) SiO2 
 PCOD9556879
Probable space group: P -4 M 2
;
_chemical_formula_sum "Si O2"
_cell_formula_units_Z 48
_cell_length_a 9.193023
_cell_length_b 9.193023
_cell_length_c 31.777956
_cell_angle_alpha 90.000000
_cell_angle_beta 90.000000
_cell_angle_gamma 90.000000
_cell_volume 2685.608190
_symmetry_space_group_name_H-M "P -4 M 2"
_symmetry_group_IT_number 115
_symmetry_cell_setting 'tetragonal'
loop_
_space_group_symop_operation_xyz
x,y,z
y,-x,-z
-x,-y,z
-y,x,-z
y,x,-z
-y,-x,-z
-x,y,z
x,-y,z
loop_
_atom_site_type_symbol
_atom_site_label
_atom_site_fract_x
_atom_site_fract_y
_atom_site_fract_z
Si Si1 0.827442 0.673257 0.131250
Si Si2 0.322897 0.667980 0.953782
Si Si3 0.826578 0.172187 0.626230
Si Si4 0.325884 0.171290 0.208991
Si Si5 0.672314 0.326545 0.703913
Si Si6 0.327776 0.173364 0.461190
O O1 0.797780 0.500000 0.135781
O O2 0.761286 0.720983 0.086404
O O3 0.753541 0.757382 0.169488
O O4 0.000000 0.694110 0.131583
O O5 0.500000 0.667928 0.955345
O O6 0.276883 0.500000 0.948259
O O7 0.276929 0.723072 0.000000
O O8 0.741282 0.241536 0.665017
O O9 0.785937 0.249858 0.582498
O O10 0.000000 0.194808 0.632473
O O11 0.800069 0.000000 0.623268
O O12 0.500000 0.189300 0.203802
O O13 0.284219 0.250708 0.252382
O O14 0.294374 0.000000 0.211900
O O15 0.500000 0.301028 0.706737
O O16 0.695970 0.500000 0.697951
O O17 0.259019 0.259019 0.500000
O O18 0.500000 0.199450 0.458095
O O19 0.304837 0.000000 0.467505
#
# Coordination Sequence:
#
# PCOD9556879 Si02
#       6
#     8   8   8   8   8   8
#     4  10  20  33  51  77 108 140 173 212 261 314
#     4   8  14  27  49  74  99 132 175 219 260 304
#     4  10  21  37  58  83 111 145 182 219 263 316
#     4  10  21  37  57  79 103 136 178 220 263 313
#     4  10  21  37  58  83 109 138 174 218 267 316
#     4  10  21  37  58  83 111 145 184 225 269 316
#
# _framework density 17.873047
#
# number of rings (size 3 to 8) (size 9 to 14) (size 15 to 20)
#    0.000    2.333    0.000    3.000    0.000    6.333 
#    0.000    0.833    0.000    3.000    0.000    0.000 
#    0.000    0.000    0.000    0.000    0.000    0.000 
#
# Total GULP energy -267962.717902 kJ/mol
# GULP energy per Si atom -5582.556623 kJ/mol
# Density = 1.783237 g / cm^3
# Si number density = 17.873047 Si / 1000 Ang^3
#
#
#
# Elastic Constant Matrix: (Units=GPa)
#
#
# Indices 1 2 3 4 5 6 
#
# 1 70.2647 68.3351 96.7601 0.0000 0.0000 0.0000
# 2 68.3351 70.2645 96.7601 0.0000 0.0000 0.0000
# 3 96.7601 96.7601 220.2937 0.0000 0.0000 0.0000
# 4 0.0000 0.0000 0.0000 165.0483 0.0000 0.0000
# 5 0.0000 0.0000 0.0000 0.0000 165.0403 0.0000
# 6 0.0000 0.0000 0.0000 0.0000 0.0000 25.6303
#
#
#
# Elastic Compliance Matrix: (Units=1/GPa)
#
#
# Indices 1 2 3 4 5 6 
#
# 1 0.268464 -0.249808 -0.008194 0.000000 0.000000 0.000000
# 2 -0.249808 0.268465 -0.008195 0.000000 0.000000 0.000000
# 3 -0.008194 -0.008195 0.011738 0.000000 0.000000 0.000000
# 4 0.000000 0.000000 0.000000 0.006059 0.000000 0.000000
# 5 0.000000 0.000000 0.000000 0.000000 0.006059 0.000000
# 6 0.000000 0.000000 0.000000 0.000000 0.000000 0.039016
#
#
# Mechanical properties :
#
#
# Convention : Reuss Voigt Hill
#
# Bulk Modulus (GPa) = 61.45106 98.28150 79.86628
# Shear Modulus (GPa) = 4.39514 77.74163 41.06838
#
# Velocity S-wave (km/s) = 1.56985 6.60235 4.79872
# Velocity P-wave (km/s) = 6.14349 10.64093 8.68826
#
# Compressibility (1/GPa) = 0.01627311
#
# Stress axis : x y z
#
# Youngs Moduli (GPa) = 3.72489 3.72488 85.19229
#
# Poissons Ratio (x) = 0.93050 0.69811
# Poissons Ratio (y) = 0.93051 0.69814
# Poissons Ratio (z) = 0.03052 0.03053
#
# Static dielectric constant tensor:
#      x y z
#    x 1.596170 0.000000 0.000000 
#    y 0.000000 1.596170 0.000000 
#    z 0.000000 0.000000 1.583920 
# 
# From -- ./inp_files/5957.got.cif
#   From: 2010.05.17/outbox.cif.g08.bks.cpg/sg115_3_cif.got.tgz:5957.got - 2010.05.20 11:07:42.
