data_PCOD9556746
_publ_section_title
;
Structure prediction by ZEFSAII (Michael W. Deem and Ramdas Pophale) SiO2 
 PCOD9556746
Probable space group: P -4 M 2
;
_chemical_formula_sum "Si O2"
_cell_formula_units_Z 40
_cell_length_a 9.306350
_cell_length_b 9.306350
_cell_length_c 26.372329
_cell_angle_alpha 90.000000
_cell_angle_beta 90.000000
_cell_angle_gamma 90.000000
_cell_volume 2284.058634
_symmetry_space_group_name_H-M "P -4 M 2"
_symmetry_group_IT_number 115
_symmetry_cell_setting 'tetragonal'
loop_
_space_group_symop_operation_xyz
x,y,z
y,-x,-z
-x,-y,z
-y,x,-z
y,x,-z
-y,-x,-z
-x,y,z
x,-y,z
loop_
_atom_site_type_symbol
_atom_site_label
_atom_site_fract_x
_atom_site_fract_y
_atom_site_fract_z
Si Si1 0.828939 0.328761 0.136607
Si Si2 0.665941 0.324896 0.555776
Si Si3 0.671163 0.828823 0.046330
Si Si4 0.828898 0.330673 0.253693
Si Si5 0.831833 0.327455 0.656462
O O1 0.805078 0.500000 0.129025
O O2 0.736929 0.237205 0.097560
O O3 0.793943 0.294417 0.195221
O O4 0.000000 0.303860 0.129017
O O5 0.720082 0.279919 0.500000
O O6 0.500000 0.280056 0.562146
O O7 0.666700 0.500000 0.554297
O O8 0.757306 0.279065 0.604085
O O9 0.500000 0.804060 0.043754
O O10 0.695939 0.000000 0.043870
O O11 0.750097 0.750097 0.000000
O O12 0.798500 0.500000 0.260623
O O13 0.744607 0.241088 0.295163
O O14 0.000000 0.310434 0.259763
O O15 0.814081 0.500000 0.659758
O O16 0.000000 0.294977 0.655092
#
# Coordination Sequence:
#
# PCOD9556746 Si02
#       5
#     8   8   8   8   8
#     4   9  19  37  59  81 105 134 172 217 260 304
#     4   8  14  27  48  70  92 125 171 217 257 300
#     4  11  24  39  56  81 111 141 175 214 255 303
#     4   9  19  36  56  77 102 135 175 215 255 302
#     4  10  20  32  48  74 107 138 168 207 256 308
#
# _framework density 17.512685999999999
#
# number of rings (size 3 to 8) (size 9 to 14) (size 15 to 20)
#    0.000    2.600    0.000    3.600    0.000    7.600 
#    0.000    7.000    0.000    3.600    0.000    0.000 
#    0.000    0.000    0.000    0.000    0.000    0.000 
#
# Total GULP energy -223148.543533 kJ/mol
# GULP energy per Si atom -5578.713588 kJ/mol
# Density = 1.747283 g / cm^3
# Si number density = 17.512686 Si / 1000 Ang^3
#
#
#
# Elastic Constant Matrix: (Units=GPa)
#
#
# Indices 1 2 3 4 5 6 
#
# 1 78.2489 71.7219 100.8999 0.0000 0.0000 0.0000
# 2 71.7219 78.2491 100.9000 0.0000 0.0000 0.0000
# 3 100.8999 100.9000 187.9011 0.0000 0.0000 0.0000
# 4 0.0000 0.0000 0.0000-1308.0740 0.0000 0.0000
# 5 0.0000 0.0000 0.0000 0.0000-1307.3668 0.0000
# 6 0.0000 0.0000 0.0000 0.0000 0.0000 27.0370
#
#
#
# Elastic Compliance Matrix: (Units=1/GPa)
#
#
# Indices 1 2 3 4 5 6 
#
# 1 0.088620 -0.064586 -0.012906 0.000000 0.000000 0.000000
# 2 -0.064586 0.088620 -0.012906 0.000000 0.000000 0.000000
# 3 -0.012906 -0.012906 0.019183 0.000000 0.000000 0.000000
# 4 0.000000 0.000000 0.000000 -0.000764 0.000000 0.000000
# 5 0.000000 0.000000 0.000000 0.000000 -0.000765 0.000000
# 6 0.000000 0.000000 0.000000 0.000000 0.000000 0.036986
#
#
# Mechanical properties :
#
#
# Convention : Reuss Voigt Hill
#
# Bulk Modulus (GPa) = 63.99186 99.04918 81.52052
# Shear Modulus (GPa) = 11.96503 -512.95559 -250.49528
#
# Velocity S-wave (km/s) = 2.61668 -17.13304 -11.97276
# Velocity P-wave (km/s) = 6.76380 18.29499 12.01994
#
# Compressibility (1/GPa) = 0.01562699
#
# Stress axis : x y z
#
# Youngs Moduli (GPa) = 11.28409 11.28416 52.13075
#
# Poissons Ratio (x) = 0.72880 0.67280
# Poissons Ratio (y) = 0.72879 0.67279
# Poissons Ratio (z) = 0.14563 0.14563
#
# Static dielectric constant tensor:
#      x y z
#    x 1.580650 0.000000 0.000000 
#    y 0.000000 1.580650 0.000000 
#    z 0.000000 0.000000 1.591240 
# 
# From -- ./inp_files/5096.got.cif
#   From: 2010.05.17/outbox.cif.g08.bks.cpg/sg115_3_cif.got.tgz:5096.got - 2010.05.20 11:07:42.
