data_PCOD9556379
_publ_section_title
;
Structure prediction by ZEFSAII (Michael W. Deem and Ramdas Pophale) SiO2 
 PCOD9556379
Probable space group: P -4 21 C
;
_chemical_formula_sum "Si O2"
_cell_formula_units_Z 40
_cell_length_a 13.273994
_cell_length_b 13.273994
_cell_length_c 10.176432
_cell_angle_alpha 90.000000
_cell_angle_beta 90.000000
_cell_angle_gamma 90.000000
_cell_volume 1793.076294
_symmetry_space_group_name_H-M "P -4 21 C"
_symmetry_group_IT_number 114
_symmetry_cell_setting 'tetragonal'
loop_
_space_group_symop_operation_xyz
x,y,z
y,-x,-z
-x,-y,z
-y,x,-z
1/2+x,1/2-y,1/2-z
1/2-x,1/2+y,1/2-z
1/2-y,1/2-x,1/2+z
1/2+y,1/2+x,1/2+z
loop_
_atom_site_type_symbol
_atom_site_label
_atom_site_fract_x
_atom_site_fract_y
_atom_site_fract_z
Si Si1 0.286941 0.082960 0.747752
Si Si2 0.543319 0.658842 0.997843
Si Si3 0.238466 0.880013 0.163857
Si Si4 0.601018 0.721116 0.712838
Si Si5 0.621222 0.195117 0.382943
O O1 0.233341 0.036602 0.619761
O O2 0.203466 0.151726 0.822140
O O3 0.369380 0.162147 0.696139
O O4 0.323694 0.993473 0.840624
O O5 0.612435 0.564382 0.039226
O O6 0.592774 0.704882 0.868858
O O7 0.305642 0.873047 0.295296
O O8 0.196992 0.992954 0.151410
O O9 0.308573 0.860253 0.037833
O O10 0.690375 0.652501 0.656873
#
# Coordination Sequence:
#
# PCOD9556379 Si02
#       5
#     8   8   8   8   8
#     4  11  25  41  68  95 134 172 216 272 329 388
#     4  11  22  42  68 101 129 174 228 281 329 392
#     4  11  26  45  66  97 130 171 217 272 328 396
#     4  11  25  41  68  95 134 172 216 272 329 388
#     4  11  26  45  66  97 130 171 217 272 328 396
#
# _framework density 22.308029999999999
#
# number of rings (size 3 to 8) (size 9 to 14) (size 15 to 20)
#    0.000    1.000    4.000    1.200   16.800    1.600 
#    0.000    4.000    0.000    0.000    0.000    0.000 
#    0.000    0.000    0.000    0.000    0.000    0.000 
#
# Total GULP energy -223907.120001 kJ/mol
# GULP energy per Si atom -5597.678000 kJ/mol
# Density = 2.225726 g / cm^3
# Si number density = 22.308030 Si / 1000 Ang^3
#
#
#
# Elastic Constant Matrix: (Units=GPa)
#
#
# Indices 1 2 3 4 5 6 
#
# 1 62.5149 -5.7895 -16.3342 0.0000 0.0000 0.0000
# 2 -5.7895 62.5149 -16.3342 0.0000 0.0000 0.0000
# 3 -16.3342 -16.3342 82.0197 0.0000 0.0000 0.0000
# 4 0.0000 0.0000 0.0000 31.4047 0.0000 0.0000
# 5 0.0000 0.0000 0.0000 0.0000 31.4047 0.0000
# 6 0.0000 0.0000 0.0000 0.0000 0.0000 13.8036
#
#
#
# Elastic Compliance Matrix: (Units=1/GPa)
#
#
# Indices 1 2 3 4 5 6 
#
# 1 0.017276 0.002636 0.003966 0.000000 0.000000 0.000000
# 2 0.002636 0.017276 0.003966 0.000000 0.000000 0.000000
# 3 0.003966 0.003966 0.013772 0.000000 0.000000 0.000000
# 4 0.000000 0.000000 0.000000 0.031842 0.000000 0.000000
# 5 0.000000 0.000000 0.000000 0.000000 0.031842 0.000000
# 6 0.000000 0.000000 0.000000 0.000000 0.000000 0.072445
#
#
# Mechanical properties :
#
#
# Convention : Reuss Voigt Hill
#
# Bulk Modulus (GPa) = 14.39692 14.45928 14.42810
# Shear Modulus (GPa) = 26.81361 31.68976 29.25168
#
# Velocity S-wave (km/s) = 3.47071 3.77311 3.62506
# Velocity P-wave (km/s) = 4.74645 5.04753 4.89930
#
# Compressibility (1/GPa) = 0.06945928
#
# Stress axis : x y z
#
# Youngs Moduli (GPa) = 57.88218 57.88218 72.61270
#
# Poissons Ratio (x) = -0.15258 -0.28795
# Poissons Ratio (y) = -0.15258 -0.28795
# Poissons Ratio (z) = -0.22954 -0.22954
#
# Static dielectric constant tensor:
#      x y z
#    x 1.805860 0.000000 0.000000 
#    y 0.000000 1.805860 0.000000 
#    z 0.000000 0.000000 1.816110 
# 
# From -- ./inp_files/782.got.cif
#   From: 2010.05.17/outbox.cif.g08.bks.cpg/sg114_1_cif.got.tgz:782.got - 2010.05.20 11:04:54.
