data_PCOD9556044
_publ_section_title
;
Structure prediction by ZEFSAII (Michael W. Deem and Ramdas Pophale) SiO2 
 PCOD9556044
Probable space group: P -4 21 C
;
_chemical_formula_sum "Si O2"
_cell_formula_units_Z 48
_cell_length_a 9.354191
_cell_length_b 9.354191
_cell_length_c 28.979123
_cell_angle_alpha 90.000000
_cell_angle_beta 90.000000
_cell_angle_gamma 90.000000
_cell_volume 2535.699033
_symmetry_space_group_name_H-M "P -4 21 C"
_symmetry_group_IT_number 114
_symmetry_cell_setting 'tetragonal'
loop_
_space_group_symop_operation_xyz
x,y,z
y,-x,-z
-x,-y,z
-y,x,-z
1/2+x,1/2-y,1/2-z
1/2-x,1/2+y,1/2-z
1/2-y,1/2-x,1/2+z
1/2+y,1/2+x,1/2+z
loop_
_atom_site_type_symbol
_atom_site_label
_atom_site_fract_x
_atom_site_fract_y
_atom_site_fract_z
Si Si1 0.264984 0.151410 0.559224
Si Si2 0.845873 0.573377 0.272976
Si Si3 0.506363 0.161512 0.966993
Si Si4 0.513810 0.172958 0.625391
Si Si5 0.829688 0.139008 0.600567
Si Si6 0.642444 0.410057 0.206728
O O1 0.163577 0.270124 0.536674
O O2 0.381113 0.218090 0.593988
O O3 0.336909 0.060499 0.518141
O O4 0.177226 0.028961 0.587100
O O5 0.775081 0.523415 0.321804
O O6 0.763369 0.505615 0.230286
O O7 0.857211 0.746254 0.274137
O O8 0.000000 0.500000 0.272499
O O9 0.413786 0.269348 0.936371
O O10 0.500000 0.000000 0.949314
O O11 0.666910 0.196186 0.602309
O O12 0.500000 0.000000 0.628042
O O13 0.892692 0.156445 0.651689
O O14 0.500000 0.500000 0.216515
#
# Coordination Sequence:
#
# PCOD9556044 Si02
#       6
#     8   8   8   8   8   8
#     4  11  21  39  63  86 118 156 200 248 299 362
#     4  10  21  38  61  88 119 161 208 252 313 368
#     4  12  24  36  58  90 118 152 199 250 294 348
#     4   8  18  38  63  84 114 158 195 243 301 368
#     4  10  21  39  62  88 117 152 203 247 299 355
#     4  11  22  38  61  90 122 161 205 258 309 377
#
# _framework density 18.929693
#
# number of rings (size 3 to 8) (size 9 to 14) (size 15 to 20)
#    0.000    1.667    1.667    5.000    0.000    2.000 
#    0.000    4.167    0.000    0.000    0.000    0.000 
#    0.000    0.000    0.000    0.000    0.000    0.000 
#
# Total GULP energy -267831.052660 kJ/mol
# GULP energy per Si atom -5579.813597 kJ/mol
# Density = 1.888661 g / cm^3
# Si number density = 18.929693 Si / 1000 Ang^3
#
#
#
# Elastic Constant Matrix: (Units=GPa)
#
#
# Indices 1 2 3 4 5 6 
#
# 1 79.1372 36.5986 40.2422 0.0000 0.0000 0.0000
# 2 36.5986 79.1372 40.2422 0.0000 0.0000 0.0000
# 3 40.2422 40.2422 66.6839 0.0000 0.0000 0.0000
# 4 0.0000 0.0000 0.0000 31.3411 0.0000 0.0000
# 5 0.0000 0.0000 0.0000 0.0000 31.3411 0.0000
# 6 0.0000 0.0000 0.0000 0.0000 0.0000 15.1738
#
#
#
# Elastic Compliance Matrix: (Units=1/GPa)
#
#
# Indices 1 2 3 4 5 6 
#
# 1 0.019198 -0.004310 -0.008985 0.000000 0.000000 0.000000
# 2 -0.004310 0.019198 -0.008985 0.000000 0.000000 0.000000
# 3 -0.008985 -0.008985 0.025841 0.000000 0.000000 0.000000
# 4 0.000000 0.000000 0.000000 0.031907 0.000000 0.000000
# 5 0.000000 0.000000 0.000000 0.000000 0.031907 0.000000
# 6 0.000000 0.000000 0.000000 0.000000 0.000000 0.065903
#
#
# Mechanical properties :
#
#
# Convention : Reuss Voigt Hill
#
# Bulk Modulus (GPa) = 50.81813 51.01381 50.91597
# Shear Modulus (GPa) = 20.40209 22.76288 21.58248
#
# Velocity S-wave (km/s) = 3.28652 3.47146 3.38026
# Velocity P-wave (km/s) = 6.42695 6.56321 6.49543
#
# Compressibility (1/GPa) = 0.01967802
#
# Stress axis : x y z
#
# Youngs Moduli (GPa) = 52.08775 52.08775 38.69880
#
# Poissons Ratio (x) = 0.22448 0.34771
# Poissons Ratio (y) = 0.22448 0.34771
# Poissons Ratio (z) = 0.46801 0.46801
#
# Static dielectric constant tensor:
#      x y z
#    x 1.664700 0.000000 0.000000 
#    y 0.000000 1.664700 0.000000 
#    z 0.000000 0.000000 1.672030 
# 
# From -- ./inp_files/3923.got.cif
#   From: 2010.05.17/outbox.cif.g08.bks.cpg/sg114_2_cif.got.tgz:3923.got - 2010.05.20 11:04:54.
