data_PCOD9556940
_publ_section_title
;
Structure prediction by ZEFSAII (Michael W. Deem and Ramdas Pophale) SiO2 
 PCOD9556940
Probable space group: P -4 M 2
;
_chemical_formula_sum "Si O2"
_cell_formula_units_Z 48
_cell_length_a 9.200901
_cell_length_b 9.200901
_cell_length_c 31.763888
_cell_angle_alpha 90.000000
_cell_angle_beta 90.000000
_cell_angle_gamma 90.000000
_cell_volume 2689.022101
_symmetry_space_group_name_H-M "P -4 M 2"
_symmetry_group_IT_number 115
_symmetry_cell_setting 'tetragonal'
loop_
_space_group_symop_operation_xyz
x,y,z
y,-x,-z
-x,-y,z
-y,x,-z
y,x,-z
-y,-x,-z
-x,y,z
x,-y,z
loop_
_atom_site_type_symbol
_atom_site_label
_atom_site_fract_x
_atom_site_fract_y
_atom_site_fract_z
Si Si1 0.171584 0.173594 0.626022
Si Si2 0.176936 0.167135 0.124519
Si Si3 0.672007 0.174163 0.960977
Si Si4 0.672117 0.173295 0.538797
Si Si5 0.172847 0.327124 0.209572
Si Si6 0.327210 0.327416 0.703554
O O1 0.250955 0.214761 0.582584
O O2 0.240758 0.256141 0.665311
O O3 0.000000 0.202265 0.622747
O O4 0.191954 0.000000 0.631837
O O5 0.221352 0.254751 0.082960
O O6 0.222733 0.242455 0.167994
O O7 0.000000 0.169369 0.124903
O O8 0.223850 0.000000 0.122271
O O9 0.500000 0.200705 0.959714
O O10 0.694613 0.000000 0.965407
O O11 0.745590 0.254410 0.000000
O O12 0.741588 0.258413 0.500000
O O13 0.500000 0.199297 0.541569
O O14 0.695305 0.000000 0.532716
O O15 0.192772 0.500000 0.202918
O O16 0.256504 0.284383 0.251873
O O17 0.000000 0.301814 0.215443
O O18 0.500000 0.299110 0.697871
O O19 0.305253 0.500000 0.704631
#
# Coordination Sequence:
#
# PCOD9556940 Si02
#       6
#     8   8   8   8   8   8
#     4  10  21  37  58  82 107 139 180 224 268 314
#     4   9  17  30  51  78 104 132 171 219 266 311
#     4  10  20  34  53  77 105 137 174 215 260 312
#     4  10  21  37  58  83 110 141 177 217 263 315
#     4   9  17  31  52  76 103 137 176 217 262 314
#     4  10  21  36  54  78 109 144 180 218 263 315
#
# _framework density 17.850355
#
# number of rings (size 3 to 8) (size 9 to 14) (size 15 to 20)
#    0.000    2.333    0.000    2.500    0.000    7.333 
#    0.000    2.500    0.000    3.000    0.000    0.000 
#    0.000    0.000    0.000    0.000    0.000    0.000 
#
# Total GULP energy -267971.694589 kJ/mol
# GULP energy per Si atom -5582.743637 kJ/mol
# Density = 1.780973 g / cm^3
# Si number density = 17.850355 Si / 1000 Ang^3
#
#
#
# Elastic Constant Matrix: (Units=GPa)
#
#
# Indices 1 2 3 4 5 6 
#
# 1 71.9223 67.4706 98.3581 0.0000 0.0000 0.0000
# 2 67.4706 71.9222 98.3570 0.0000 0.0000 0.0000
# 3 98.3581 98.3570 223.8693 0.0000 0.0000 0.0000
# 4 0.0000 0.0000 0.0000 370.0102 0.0000 0.0000
# 5 0.0000 0.0000 0.0000 0.0000 370.1182 0.0000
# 6 0.0000 0.0000 0.0000 0.0000 0.0000 22.4379
#
#
#
# Elastic Compliance Matrix: (Units=1/GPa)
#
#
# Indices 1 2 3 4 5 6 
#
# 1 0.121760 -0.102878 -0.008296 0.000000 0.000000 0.000000
# 2 -0.102878 0.121756 -0.008294 0.000000 0.000000 0.000000
# 3 -0.008296 -0.008294 0.011756 0.000000 0.000000 0.000000
# 4 0.000000 0.000000 0.000000 0.002703 0.000000 0.000000
# 5 0.000000 0.000000 0.000000 0.000000 0.002702 0.000000
# 6 0.000000 0.000000 0.000000 0.000000 0.000000 0.044567
#
#
# Mechanical properties :
#
#
# Convention : Reuss Voigt Hill
#
# Bulk Modulus (GPa) = 61.21473 99.56502 80.38987
# Shear Modulus (GPa) = 9.09710 159.41513 84.25611
#
# Velocity S-wave (km/s) = 2.25995 9.46046 6.87778
# Velocity P-wave (km/s) = 6.41697 13.23754 10.40216
#
# Compressibility (1/GPa) = 0.01633594
#
# Stress axis : x y z
#
# Youngs Moduli (GPa) = 8.21286 8.21313 85.06443
#
# Poissons Ratio (x) = 0.84495 0.70573
# Poissons Ratio (y) = 0.84492 0.70549
# Poissons Ratio (z) = 0.06814 0.06812
#
# Static dielectric constant tensor:
#      x y z
#    x 1.595480 0.000000 0.000000 
#    y 0.000000 1.595480 0.000000 
#    z 0.000000 0.000000 1.575330 
# 
# From -- ./inp_files/5907.got.cif
#   From: 2010.05.17/outbox.cif.g08.bks.cpg/sg115_3_cif.got.tgz:5907.got - 2010.05.20 11:07:42.
