data_PCOD9556225
_publ_section_title
;
Structure prediction by ZEFSAII (Michael W. Deem and Ramdas Pophale) SiO2 
 PCOD9556225
Probable space group: P -4 21 C
;
_chemical_formula_sum "Si O2"
_cell_formula_units_Z 38
_cell_length_a 8.787078
_cell_length_b 8.787078
_cell_length_c 23.410435
_cell_angle_alpha 90.000000
_cell_angle_beta 90.000000
_cell_angle_gamma 90.000000
_cell_volume 1807.583826
_symmetry_space_group_name_H-M "P -4 21 C"
_symmetry_group_IT_number 114
_symmetry_cell_setting 'tetragonal'
loop_
_space_group_symop_operation_xyz
x,y,z
y,-x,-z
-x,-y,z
-y,x,-z
1/2+x,1/2-y,1/2-z
1/2-x,1/2+y,1/2-z
1/2-y,1/2-x,1/2+z
1/2+y,1/2+x,1/2+z
loop_
_atom_site_type_symbol
_atom_site_label
_atom_site_fract_x
_atom_site_fract_y
_atom_site_fract_z
Si Si1 0.995768 0.683547 0.228154
Si Si2 0.499882 0.779945 0.070792
Si Si3 0.500000 0.000000 0.972155
Si Si4 0.716946 0.121124 0.375357
Si Si5 0.000000 0.000000 0.500000
Si Si6 0.286110 0.309719 0.831120
O O1 0.874368 0.691815 0.177064
O O2 0.939341 0.774394 0.283074
O O3 0.000000 0.500000 0.241513
O O4 0.153214 0.746858 0.202421
O O5 0.642461 0.722344 0.106486
O O6 0.434683 0.633258 0.038118
O O7 0.368143 0.821237 0.116570
O O8 0.563446 0.884213 0.019869
O O9 0.400205 0.898911 0.928786
O O10 0.778324 0.955036 0.355864
#
# Coordination Sequence:
#
# PCOD9556225 Si02
#       6
#     8   8   4   8   2   8
#     4  10  23  40  66  94 137 172 221 280 344 398
#     4  12  23  38  68  97 130 170 226 276 336 402
#     4  12  24  40  66 100 134 174 230 286 326 404
#     4  11  22  43  66  96 131 178 223 279 335 406
#     4  12  20  36  68 100 112 168 232 256 330 400
#     4  11  21  40  65  99 129 172 223 281 333 413
#
# _framework density 21.022537
#
# number of rings (size 3 to 8) (size 9 to 14) (size 15 to 20)
#    0.000    0.842    7.368    1.263    1.474    1.684 
#    0.000    0.000    0.000    3.158    0.000    0.000 
#    0.000    0.000    0.000    0.000    0.000    0.000 
#
# Total GULP energy -211810.304181 kJ/mol
# GULP energy per Si atom -5573.955373 kJ/mol
# Density = 2.097469 g / cm^3
# Si number density = 21.022537 Si / 1000 Ang^3
#
#
#
# Elastic Constant Matrix: (Units=GPa)
#
#
# Indices 1 2 3 4 5 6 
#
# 1 55.8847 17.9443 43.6166 0.0000 0.0000 0.0000
# 2 17.9443 55.8847 43.6166 0.0000 0.0000 0.0000
# 3 43.6166 43.6166 158.5741 0.0000 0.0000 0.0000
# 4 0.0000 0.0000 0.0000 13.4981 0.0000 0.0000
# 5 0.0000 0.0000 0.0000 0.0000 13.4981 0.0000
# 6 0.0000 0.0000 0.0000 0.0000 0.0000 14.9054
#
#
#
# Elastic Compliance Matrix: (Units=1/GPa)
#
#
# Indices 1 2 3 4 5 6 
#
# 1 0.023212 -0.003145 -0.005519 0.000000 0.000000 0.000000
# 2 -0.003145 0.023212 -0.005519 0.000000 0.000000 0.000000
# 3 -0.005519 -0.005519 0.009342 0.000000 0.000000 0.000000
# 4 0.000000 0.000000 0.000000 0.074085 0.000000 0.000000
# 5 0.000000 0.000000 0.000000 0.000000 0.074085 0.000000
# 6 0.000000 0.000000 0.000000 0.000000 0.000000 0.067090
#
#
# Mechanical properties :
#
#
# Convention : Reuss Voigt Hill
#
# Bulk Modulus (GPa) = 36.49953 53.41095 44.95524
# Shear Modulus (GPa) = 16.20610 19.39136 17.79873
#
# Velocity S-wave (km/s) = 2.77951 3.04041 2.91288
# Velocity P-wave (km/s) = 5.26314 6.14713 5.72223
#
# Compressibility (1/GPa) = 0.02739761
#
# Stress axis : x y z
#
# Youngs Moduli (GPa) = 43.08177 43.08177 107.03841
#
# Poissons Ratio (x) = 0.13551 0.59078
# Poissons Ratio (y) = 0.13551 0.59078
# Poissons Ratio (z) = 0.23778 0.23778
#
# Static dielectric constant tensor:
#      x y z
#    x 1.744550 0.000000 0.000000 
#    y 0.000000 1.744550 0.000000 
#    z 0.000000 0.000000 1.787380 
# 
# From -- ./inp_files/3409.got.cif
#   From: 2010.05.17/outbox.cif.g08.bks.cpg/sg114_2_cif.got.tgz:3409.got - 2010.05.20 11:04:54.
