data_PCOD9556135
_publ_section_title
;
Structure prediction by ZEFSAII (Michael W. Deem and Ramdas Pophale) SiO2 
 PCOD9556135
Probable space group: P -4 21 C
;
_chemical_formula_sum "Si O2"
_cell_formula_units_Z 36
_cell_length_a 9.625792
_cell_length_b 9.625792
_cell_length_c 17.858112
_cell_angle_alpha 90.000000
_cell_angle_beta 90.000000
_cell_angle_gamma 90.000000
_cell_volume 1654.658933
_symmetry_space_group_name_H-M "P -4 21 C"
_symmetry_group_IT_number 114
_symmetry_cell_setting 'tetragonal'
loop_
_space_group_symop_operation_xyz
x,y,z
y,-x,-z
-x,-y,z
-y,x,-z
1/2+x,1/2-y,1/2-z
1/2-x,1/2+y,1/2-z
1/2-y,1/2-x,1/2+z
1/2+y,1/2+x,1/2+z
loop_
_atom_site_type_symbol
_atom_site_label
_atom_site_fract_x
_atom_site_fract_y
_atom_site_fract_z
Si Si1 0.134635 0.652118 0.191744
Si Si2 0.500000 0.500000 0.500000
Si Si3 0.791710 0.777861 0.566107
Si Si4 0.031762 0.697257 0.032614
Si Si5 0.500000 0.500000 0.000000
Si Si6 0.343851 0.825095 0.768887
O O1 0.097842 0.626387 0.105186
O O2 0.187310 0.509645 0.227851
O O3 0.245876 0.771758 0.201738
O O4 0.988140 0.690165 0.229535
O O5 0.528685 0.636487 0.451829
O O6 0.638783 0.818901 0.535480
O O7 0.836007 0.631635 0.525200
O O8 0.788571 0.741058 0.653561
O O9 0.902097 0.897317 0.547954
#
# Coordination Sequence:
#
# PCOD9556135 Si02
#       6
#     8   2   8   8   2   8
#     4  10  22  39  60  86 120 156 193 241 296 354
#     4   8  16  32  62  96 108 144 208 250 292 348
#     4  10  22  39  61  90 121 156 200 246 300 358
#     4   9  19  39  63  86 118 155 197 249 297 351
#     4  12  24  36  58  92 124 160 200 250 304 352
#     4  10  23  41  59  86 119 155 198 244 296 355
#
# _framework density 21.756751000000001
#
# number of rings (size 3 to 8) (size 9 to 14) (size 15 to 20)
#    0.000    2.222    0.000    1.333    0.000   14.222 
#    0.000    2.222    0.000    2.667    0.000    0.000 
#    0.000    0.000    0.000    0.000    0.000    0.000 
#
# Total GULP energy -201097.959415 kJ/mol
# GULP energy per Si atom -5586.054428 kJ/mol
# Density = 2.170723 g / cm^3
# Si number density = 21.756751 Si / 1000 Ang^3
#
#
#
# Elastic Constant Matrix: (Units=GPa)
#
#
# Indices 1 2 3 4 5 6 
#
# 1 70.8600 24.4367 13.4296 0.0000 0.0000 0.0000
# 2 24.4367 70.8600 13.4296 0.0000 0.0000 0.0000
# 3 13.4296 13.4296 20.9656 0.0000 0.0000 0.0000
# 4 0.0000 0.0000 0.0000 30.6927 0.0000 0.0000
# 5 0.0000 0.0000 0.0000 0.0000 30.6927 0.0000
# 6 0.0000 0.0000 0.0000 0.0000 0.0000 41.3211
#
#
#
# Elastic Compliance Matrix: (Units=1/GPa)
#
#
# Indices 1 2 3 4 5 6 
#
# 1 0.017173 -0.004368 -0.008203 0.000000 0.000000 0.000000
# 2 -0.004368 0.017173 -0.008203 0.000000 0.000000 0.000000
# 3 -0.008203 -0.008203 0.058205 0.000000 0.000000 0.000000
# 4 0.000000 0.000000 0.000000 0.032581 0.000000 0.000000
# 5 0.000000 0.000000 0.000000 0.000000 0.032581 0.000000
# 6 0.000000 0.000000 0.000000 0.000000 0.000000 0.024201
#
#
# Mechanical properties :
#
#
# Convention : Reuss Voigt Hill
#
# Bulk Modulus (GPa) = 19.60551 29.47527 24.54039
# Shear Modulus (GPa) = 20.79327 27.96727 24.38027
#
# Velocity S-wave (km/s) = 3.09482 3.58921 3.35114
# Velocity P-wave (km/s) = 4.66919 5.54560 5.12616
#
# Compressibility (1/GPa) = 0.05100607
#
# Stress axis : x y z
#
# Youngs Moduli (GPa) = 58.23036 58.23036 17.18052
#
# Poissons Ratio (x) = 0.25434 0.14092
# Poissons Ratio (y) = 0.25434 0.14092
# Poissons Ratio (z) = 0.47764 0.47764
#
# Static dielectric constant tensor:
#      x y z
#    x 1.808620 0.000000 0.000000 
#    y 0.000000 1.808620 0.000000 
#    z 0.000000 0.000000 1.766730 
# 
# From -- ./inp_files/3008.got.cif
#   From: 2010.05.17/outbox.cif.g08.bks.cpg/sg114_2_cif.got.tgz:3008.got - 2010.05.20 11:04:54.
