data_PCOD9556478
_publ_section_title
;
Structure prediction by ZEFSAII (Michael W. Deem and Ramdas Pophale) SiO2 
 PCOD9556478
Probable space group: P -4 21 C
;
_chemical_formula_sum "Si O2"
_cell_formula_units_Z 36
_cell_length_a 8.662937
_cell_length_b 8.662937
_cell_length_c 18.668976
_cell_angle_alpha 90.000000
_cell_angle_beta 90.000000
_cell_angle_gamma 90.000000
_cell_volume 1401.040887
_symmetry_space_group_name_H-M "P -4 21 C"
_symmetry_group_IT_number 114
_symmetry_cell_setting 'tetragonal'
loop_
_space_group_symop_operation_xyz
x,y,z
y,-x,-z
-x,-y,z
-y,x,-z
1/2+x,1/2-y,1/2-z
1/2-x,1/2+y,1/2-z
1/2-y,1/2-x,1/2+z
1/2+y,1/2+x,1/2+z
loop_
_atom_site_type_symbol
_atom_site_label
_atom_site_fract_x
_atom_site_fract_y
_atom_site_fract_z
Si Si1 0.444961 0.669772 0.913050
Si Si2 0.235784 0.274338 0.453422
Si Si3 0.740514 0.779796 0.707952
Si Si4 0.550655 0.668583 0.340061
Si Si5 0.500000 0.000000 0.129528
O O1 0.500000 0.500000 0.933860
O O2 0.600914 0.762413 0.923465
O O3 0.383670 0.647896 0.833941
O O4 0.312550 0.741654 0.964550
O O5 0.392031 0.347021 0.421952
O O6 0.095982 0.375808 0.418712
O O7 0.757324 0.603846 0.681873
O O8 0.765001 0.811083 0.791212
O O9 0.592350 0.873081 0.677063
O O10 0.500000 0.500000 0.315999
#
# Coordination Sequence:
#
# PCOD9556478 Si02
#       5
#     8   8   8   8   4
#     4  12  24  49  80 113 152 211 263 325 395 487
#     4  12  25  47  79 114 156 206 271 326 403 479
#     4  12  28  47  79 113 161 212 266 327 402 476
#     4  12  29  51  76 121 163 211 264 337 402 480
#     4  12  24  44  76 116 156 206 266 334 390 484
#
# _framework density 25.695181999999999
#
# number of rings (size 3 to 8) (size 9 to 14) (size 15 to 20)
#    0.000    0.000    6.667    2.000    3.111    4.444 
#    0.000    0.000    0.000    0.000    0.000    0.000 
#    0.000    0.000    0.000    0.000    0.000    0.000 
#
# Total GULP energy -201083.366190 kJ/mol
# GULP energy per Si atom -5585.649061 kJ/mol
# Density = 2.563670 g / cm^3
# Si number density = 25.695182 Si / 1000 Ang^3
#
#
#
# Elastic Constant Matrix: (Units=GPa)
#
#
# Indices 1 2 3 4 5 6 
#
# 1 95.4672 0.9002 28.0688 0.0000 0.0000 0.0000
# 2 0.9002 95.4672 28.0688 0.0000 0.0000 0.0000
# 3 28.0688 28.0688 114.1079 0.0000 0.0000 0.0000
# 4 0.0000 0.0000 0.0000 -75.8290 0.0000 0.0000
# 5 0.0000 0.0000 0.0000 0.0000 -75.8290 0.0000
# 6 0.0000 0.0000 0.0000 0.0000 0.0000 30.6743
#
#
#
# Elastic Compliance Matrix: (Units=1/GPa)
#
#
# Indices 1 2 3 4 5 6 
#
# 1 0.011344 0.000769 -0.002980 0.000000 0.000000 0.000000
# 2 0.000769 0.011344 -0.002980 0.000000 0.000000 0.000000
# 3 -0.002980 -0.002980 0.010229 0.000000 0.000000 0.000000
# 4 0.000000 0.000000 0.000000 -0.013188 0.000000 0.000000
# 5 0.000000 0.000000 0.000000 0.000000 -0.013188 0.000000
# 6 0.000000 0.000000 0.000000 0.000000 0.000000 0.032601
#
#
# Mechanical properties :
#
#
# Convention : Reuss Voigt Hill
#
# Bulk Modulus (GPa) = 44.37218 46.56866 45.47042
# Shear Modulus (GPa) = 87.66662 -7.66310 40.00176
#
# Velocity S-wave (km/s) = 5.84739 -1.72881 3.94989
# Velocity P-wave (km/s) = 7.93067 3.76534 6.20779
#
# Compressibility (1/GPa) = 0.02253664
#
# Stress axis : x y z
#
# Youngs Moduli (GPa) = 88.15567 88.15567 97.75677
#
# Poissons Ratio (x) = -0.06780 0.29127
# Poissons Ratio (y) = -0.06780 0.29127
# Poissons Ratio (z) = 0.26266 0.26266
#
# Static dielectric constant tensor:
#      x y z
#    x 2.701300 0.000000 0.000000 
#    y 0.000000 2.701300 0.000000 
#    z 0.000000 0.000000 1.977080 
# 
# From -- ./inp_files/2964.got.cif
#   From: 2010.05.17/outbox.cif.g08.bks.cpg/sg114_2_cif.got.tgz:2964.got - 2010.05.20 11:04:54.
