data_PCOD9556766
_publ_section_title
;
Structure prediction by ZEFSAII (Michael W. Deem and Ramdas Pophale) SiO2 
 PCOD9556766
Probable space group: P -4 M 2
;
_chemical_formula_sum "Si O2"
_cell_formula_units_Z 45
_cell_length_a 12.595987
_cell_length_b 12.595987
_cell_length_c 16.796332
_cell_angle_alpha 90.000000
_cell_angle_beta 90.000000
_cell_angle_gamma 90.000000
_cell_volume 2664.887366
_symmetry_space_group_name_H-M "P -4 M 2"
_symmetry_group_IT_number 115
_symmetry_cell_setting 'tetragonal'
loop_
_space_group_symop_operation_xyz
x,y,z
y,-x,-z
-x,-y,z
-y,x,-z
y,x,-z
-y,-x,-z
-x,y,z
x,-y,z
loop_
_atom_site_type_symbol
_atom_site_label
_atom_site_fract_x
_atom_site_fract_y
_atom_site_fract_z
Si Si1 0.000000 0.000000 0.500000
Si Si2 0.376834 0.376834 0.500000
Si Si3 0.374078 0.125404 0.869321
Si Si4 0.000000 0.778885 0.593624
Si Si5 0.127007 0.000000 0.228937
Si Si6 0.373297 0.807995 0.373149
Si Si7 0.372693 0.877344 0.048938
Si Si8 0.795223 0.263593 0.799073
O O1 0.000000 0.882327 0.538999
O O2 0.362840 0.500000 0.475531
O O3 0.297580 0.357911 0.573776
O O4 0.500000 0.142114 0.864193
O O5 0.311141 0.195714 0.806985
O O6 0.354183 0.000000 0.858110
O O7 0.337574 0.152782 0.959696
O O8 0.000000 0.834024 0.680053
O O9 0.899076 0.700608 0.588313
O O10 0.180862 0.893332 0.195883
O O11 0.000000 0.000000 0.221288
O O12 0.500000 0.833306 0.372859
O O13 0.331264 0.798736 0.282165
O O14 0.500000 0.876805 0.046612
O O15 0.335344 0.808069 0.122675
O O16 0.339715 0.000000 0.062539
#
# Coordination Sequence:
#
# PCOD9556766 Si02
#       8
#     1   4   8   4   4   8   8   8
#     4  12  20  36  60  80 108 148 190 208 272 336
#     4   9  19  38  59  77 104 138 174 223 277 326
#     4   9  19  34  51  71 103 147 186 222 266 323
#     4  10  21  34  55  80 110 144 173 217 260 327
#     4  10  20  33  45  72 109 139 166 213 269 311
#     4  10  21  36  56  83 110 141 180 225 276 324
#     4   9  17  31  50  74 104 138 179 222 269 323
#     4  11  19  31  53  79 104 138 179 227 269 319
#
# _framework density 16.886267
#
# number of rings (size 3 to 8) (size 9 to 14) (size 15 to 20)
#    0.000    2.222    1.333    3.467    0.000    0.711 
#    0.000    0.000    0.000    1.600    0.000    4.978 
#    0.000    0.000    0.000    0.000    0.000    0.000 
#
# Total GULP energy -250623.884243 kJ/mol
# GULP energy per Si atom -5569.419650 kJ/mol
# Density = 1.684783 g / cm^3
# Si number density = 16.886267 Si / 1000 Ang^3
#
#
#
# Elastic Constant Matrix: (Units=GPa)
#
#
# Indices 1 2 3 4 5 6 
#
# 1 89.6069 53.4854 42.6773 0.0000 0.0000 0.0000
# 2 53.4854 89.6069 42.6773 0.0000 0.0000 0.0000
# 3 42.6773 42.6773 47.8292 0.0000 0.0000 0.0000
# 4 0.0000 0.0000 0.0000 27.7017 0.0000 0.0000
# 5 0.0000 0.0000 0.0000 0.0000 27.7017 0.0000
# 6 0.0000 0.0000 0.0000 0.0000 0.0000 28.5848
#
#
#
# Elastic Compliance Matrix: (Units=1/GPa)
#
#
# Indices 1 2 3 4 5 6 
#
# 1 0.021312 -0.006372 -0.013331 0.000000 0.000000 0.000000
# 2 -0.006372 0.021312 -0.013331 0.000000 0.000000 0.000000
# 3 -0.013331 -0.013331 0.044698 0.000000 0.000000 0.000000
# 4 0.000000 0.000000 0.000000 0.036099 0.000000 0.000000
# 5 0.000000 0.000000 0.000000 0.000000 0.036099 0.000000
# 6 0.000000 0.000000 0.000000 0.000000 0.000000 0.034984
#
#
# Mechanical properties :
#
#
# Convention : Reuss Voigt Hill
#
# Bulk Modulus (GPa) = 47.04906 56.08035 51.56470
# Shear Modulus (GPa) = 18.68053 22.67785 20.67919
#
# Velocity S-wave (km/s) = 3.32965 3.66864 3.50325
# Velocity P-wave (km/s) = 6.53490 7.15737 6.85321
#
# Compressibility (1/GPa) = 0.02125441
#
# Stress axis : x y z
#
# Youngs Moduli (GPa) = 46.92089 46.92089 22.37216
#
# Poissons Ratio (x) = 0.29897 0.29825
# Poissons Ratio (y) = 0.29897 0.29825
# Poissons Ratio (z) = 0.62552 0.62552
#
# Static dielectric constant tensor:
#      x y z
#    x 1.588480 0.000000 0.000000 
#    y 0.000000 1.588480 0.000000 
#    z 0.000000 0.000000 1.563900 
# 
# From -- ./inp_files/4338.got.cif
#   From: 2010.05.17/outbox.cif.g08.bks.cpg/sg115_3_cif.got.tgz:4338.got - 2010.05.20 11:07:42.
