data_PCOD9556212
_publ_section_title
;
Structure prediction by ZEFSAII (Michael W. Deem and Ramdas Pophale) SiO2 
 PCOD9556212
Probable space group: P -4 21 C
;
_chemical_formula_sum "Si O2"
_cell_formula_units_Z 56
_cell_length_a 14.413118
_cell_length_b 14.413118
_cell_length_c 10.870423
_cell_angle_alpha 90.000000
_cell_angle_beta 90.000000
_cell_angle_gamma 90.000000
_cell_volume 2258.199612
_symmetry_space_group_name_H-M "P -4 21 C"
_symmetry_group_IT_number 114
_symmetry_cell_setting 'tetragonal'
loop_
_space_group_symop_operation_xyz
x,y,z
y,-x,-z
-x,-y,z
-y,x,-z
1/2+x,1/2-y,1/2-z
1/2-x,1/2+y,1/2-z
1/2-y,1/2-x,1/2+z
1/2+y,1/2+x,1/2+z
loop_
_atom_site_type_symbol
_atom_site_label
_atom_site_fract_x
_atom_site_fract_y
_atom_site_fract_z
Si Si1 0.094866 0.894016 0.054003
Si Si2 0.882770 0.512925 0.379548
Si Si3 0.698704 0.907615 0.681652
Si Si4 0.698985 0.696849 0.640929
Si Si5 0.310942 0.497633 0.261144
Si Si6 0.001550 0.844552 0.495096
Si Si7 0.553592 0.135532 0.348337
O O1 0.109163 0.928009 0.193088
O O2 0.161357 0.815162 0.999491
O O3 0.987599 0.878707 0.023467
O O4 0.904195 0.403556 0.380133
O O5 0.774118 0.523328 0.350907
O O6 0.903285 0.553431 0.513711
O O7 0.925731 0.563714 0.261077
O O8 0.727399 0.800458 0.677886
O O9 0.772340 0.970483 0.609509
O O10 0.680671 0.953857 0.814181
O O11 0.606239 0.669107 0.716509
O O12 0.784029 0.629374 0.660875
O O13 0.288222 0.482695 0.120182
O O14 0.913892 0.912089 0.476518
#
# Coordination Sequence:
#
# PCOD9556212 Si02
#       7
#     8   8   8   8   8   8   8
#     4   9  18  37  70 108 152 196 253 321 387 467
#     4  11  28  49  80 112 158 207 267 327 396 475
#     4  11  28  49  77 112 158 204 260 331 396 486
#     4  10  23  45  72 116 146 204 260 322 397 468
#     4  10  22  45  71 108 156 201 258 318 392 479
#     4  11  27  49  76 115 159 206 260 330 408 478
#     4  12  27  51  78 116 153 208 265 332 396 473
#
# _framework density 24.798515999999999
#
# number of rings (size 3 to 8) (size 9 to 14) (size 15 to 20)
#    0.000    1.429    1.429    1.286    8.000    8.000 
#    2.571    0.000    0.000    0.000    0.000    0.000 
#    0.000    0.000    0.000    0.000    0.000    0.000 
#
# Total GULP energy -313424.802567 kJ/mol
# GULP energy per Si atom -5596.871474 kJ/mol
# Density = 2.474207 g / cm^3
# Si number density = 24.798516 Si / 1000 Ang^3
#
#
#
# Elastic Constant Matrix: (Units=GPa)
#
#
# Indices 1 2 3 4 5 6 
#
# 1 95.5879 30.4431 39.4161 0.0000 0.0000 0.0000
# 2 30.4431 95.5879 39.4161 0.0000 0.0000 0.0000
# 3 39.4161 39.4161 138.7895 0.0000 0.0000 0.0000
# 4 0.0000 0.0000 0.0000 27.2966 0.0000 0.0000
# 5 0.0000 0.0000 0.0000 0.0000 27.2966 0.0000
# 6 0.0000 0.0000 0.0000 0.0000 0.0000 36.5080
#
#
#
# Elastic Compliance Matrix: (Units=1/GPa)
#
#
# Indices 1 2 3 4 5 6 
#
# 1 0.012499 -0.002851 -0.002740 0.000000 0.000000 0.000000
# 2 -0.002851 0.012499 -0.002740 0.000000 0.000000 0.000000
# 3 -0.002740 -0.002740 0.008762 0.000000 0.000000 0.000000
# 4 0.000000 0.000000 0.000000 0.036635 0.000000 0.000000
# 5 0.000000 0.000000 0.000000 0.000000 0.036635 0.000000
# 6 0.000000 0.000000 0.000000 0.000000 0.000000 0.027391
#
#
# Mechanical properties :
#
#
# Convention : Reuss Voigt Hill
#
# Bulk Modulus (GPa) = 58.48659 60.94620 59.71640
# Shear Modulus (GPa) = 31.89126 32.93292 32.41209
#
# Velocity S-wave (km/s) = 3.59000 3.64815 3.61919
# Velocity P-wave (km/s) = 6.38905 6.50963 6.44962
#
# Compressibility (1/GPa) = 0.01709794
#
# Stress axis : x y z
#
# Youngs Moduli (GPa) = 80.00335 80.00335 114.13484
#
# Poissons Ratio (x) = 0.22809 0.31275
# Poissons Ratio (y) = 0.22809 0.31275
# Poissons Ratio (z) = 0.21922 0.21922
#
# Static dielectric constant tensor:
#      x y z
#    x 1.996970 0.000000 0.000000 
#    y 0.000000 1.996970 0.000000 
#    z 0.000000 0.000000 1.961570 
# 
# From -- ./inp_files/1766.got.cif
#   From: 2010.05.17/outbox.cif.g08.bks.cpg/sg114_1_cif.got.tgz:1766.got - 2010.05.20 11:04:54.
