data_PCOD9556993
_publ_section_title
;
Structure prediction by ZEFSAII (Michael W. Deem and Ramdas Pophale) SiO2 
 PCOD9556993
Probable space group: P -4 M 2
;
_chemical_formula_sum "Si O2"
_cell_formula_units_Z 24
_cell_length_a 7.811636
_cell_length_b 7.811636
_cell_length_c 19.639129
_cell_angle_alpha 90.000000
_cell_angle_beta 90.000000
_cell_angle_gamma 90.000000
_cell_volume 1198.412194
_symmetry_space_group_name_H-M "P -4 M 2"
_symmetry_group_IT_number 115
_symmetry_cell_setting 'tetragonal'
loop_
_space_group_symop_operation_xyz
x,y,z
y,-x,-z
-x,-y,z
-y,x,-z
y,x,-z
-y,-x,-z
-x,y,z
x,-y,z
loop_
_atom_site_type_symbol
_atom_site_label
_atom_site_fract_x
_atom_site_fract_y
_atom_site_fract_z
Si Si1 0.793648 0.000000 0.670084
Si Si2 0.304722 0.291097 0.076828
Si Si3 0.207409 0.690732 0.575939
Si Si4 0.294312 0.000000 0.828104
O O1 0.732242 0.833659 0.628812
O O2 0.746165 0.000000 0.748732
O O3 0.000000 0.000000 0.666521
O O4 0.500000 0.231993 0.088029
O O5 0.309310 0.500000 0.077958
O O6 0.169307 0.231209 0.132626
O O7 0.247458 0.247458 0.000000
O O8 0.271884 0.728117 0.500000
O O9 0.258001 0.500000 0.596795
O O10 0.000000 0.698565 0.573017
O O11 0.500000 0.000000 0.834980
#
# Coordination Sequence:
#
# PCOD9556993 Si02
#       4
#     4   8   8   4
#     4  10  22  38  54  78 122 153 178 230 293 338
#     4   8  15  31  54  77 105 143 185 232 283 330
#     4  10  20  36  61  85 109 150 196 235 283 339
#     4  10  20  34  54  80 108 145 190 228 277 344
#
# _framework density 20.026498
#
# number of rings (size 3 to 8) (size 9 to 14) (size 15 to 20)
#    0.000    2.667    1.667    1.000    0.000    3.000 
#    3.000    0.000    0.000    0.000    0.000    0.000 
#    0.000    0.000    0.000    0.000    0.000    0.000 
#
# Total GULP energy -133988.586235 kJ/mol
# GULP energy per Si atom -5582.857760 kJ/mol
# Density = 1.998092 g / cm^3
# Si number density = 20.026498 Si / 1000 Ang^3
#
#
#
# Elastic Constant Matrix: (Units=GPa)
#
#
# Indices 1 2 3 4 5 6 
#
# 1 82.9533 43.7855 70.4967 0.0000 0.0000 0.0000
# 2 43.7855 82.9524 70.4980 0.0000 0.0000 0.0000
# 3 70.4967 70.4980 190.0993 0.0000 0.0000 0.0000
# 4 0.0000 0.0000 0.0000 43.1501 0.0000 0.0000
# 5 0.0000 0.0000 0.0000 0.0000 43.1498 0.0000
# 6 0.0000 0.0000 0.0000 0.0000 0.0000 6.1251
#
#
#
# Elastic Compliance Matrix: (Units=1/GPa)
#
#
# Indices 1 2 3 4 5 6 
#
# 1 0.019481 -0.006050 -0.004981 0.000000 0.000000 0.000000
# 2 -0.006050 0.019482 -0.004981 0.000000 0.000000 0.000000
# 3 -0.004981 -0.004981 0.008955 0.000000 0.000000 0.000000
# 4 0.000000 0.000000 0.000000 0.023175 0.000000 0.000000
# 5 0.000000 0.000000 0.000000 0.000000 0.023175 0.000000
# 6 0.000000 0.000000 0.000000 0.000000 0.000000 0.163262
#
#
# Mechanical properties :
#
#
# Convention : Reuss Voigt Hill
#
# Bulk Modulus (GPa) = 62.91745 80.61839 71.76792
# Shear Modulus (GPa) = 16.95765 29.89999 23.42882
#
# Velocity S-wave (km/s) = 2.91307 3.86816 3.42408
# Velocity P-wave (km/s) = 6.54217 7.76488 7.17960
#
# Compressibility (1/GPa) = 0.01589384
#
# Stress axis : x y z
#
# Youngs Moduli (GPa) = 51.33149 51.32978 111.67203
#
# Poissons Ratio (x) = 0.31054 0.55622
# Poissons Ratio (y) = 0.31055 0.55627
# Poissons Ratio (z) = 0.25567 0.25569
#
# Static dielectric constant tensor:
#      x y z
#    x 1.723160 0.000000 0.000000 
#    y 0.000000 1.723160 0.000000 
#    z 0.000000 0.000000 1.647890 
# 
# From -- ./inp_files/3965.got.cif
#   From: 2010.05.17/outbox.cif.g08.bks.cpg/sg115_2_cif.got.tgz:3965.got - 2010.05.20 11:07:42.
