data_PCOD9556803
_publ_section_title
;
Structure prediction by ZEFSAII (Michael W. Deem and Ramdas Pophale) SiO2 
 PCOD9556803
Probable space group: P -4 M 2
;
_chemical_formula_sum "Si O2"
_cell_formula_units_Z 48
_cell_length_a 9.215249
_cell_length_b 9.215249
_cell_length_c 32.397545
_cell_angle_alpha 90.000000
_cell_angle_beta 90.000000
_cell_angle_gamma 90.000000
_cell_volume 2751.225897
_symmetry_space_group_name_H-M "P -4 M 2"
_symmetry_group_IT_number 115
_symmetry_cell_setting 'tetragonal'
loop_
_space_group_symop_operation_xyz
x,y,z
y,-x,-z
-x,-y,z
-y,x,-z
y,x,-z
-y,-x,-z
-x,y,z
x,-y,z
loop_
_atom_site_type_symbol
_atom_site_label
_atom_site_fract_x
_atom_site_fract_y
_atom_site_fract_z
Si Si1 0.672024 0.173888 0.961816
Si Si2 0.174940 0.669864 0.205714
Si Si3 0.832950 0.823428 0.877678
Si Si4 0.826029 0.673217 0.718318
Si Si5 0.331467 0.677154 0.545038
Si Si6 0.168149 0.323391 0.626675
O O1 0.500000 0.199856 0.959711
O O2 0.748357 0.219567 0.919057
O O3 0.694288 0.000000 0.966753
O O4 0.743843 0.256157 0.000000
O O5 0.211953 0.500000 0.203464
O O6 0.222859 0.751703 0.163976
O O7 0.244949 0.744042 0.245502
O O8 0.000000 0.681638 0.208242
O O9 0.000000 0.774946 0.878322
O O10 0.833166 0.000000 0.877312
O O11 0.802279 0.500000 0.721880
O O12 0.777974 0.720563 0.672164
O O13 0.000000 0.696968 0.721121
O O14 0.274695 0.725306 0.500000
O O15 0.500000 0.716923 0.548237
O O16 0.324748 0.500000 0.544190
O O17 0.250638 0.727920 0.586019
O O18 0.174161 0.500000 0.626592
O O19 0.000000 0.282376 0.623592
#
# Coordination Sequence:
#
# PCOD9556803 Si02
#       6
#     8   8   8   8   8   8
#     4  10  20  34  53  77 104 132 163 201 243 286
#     4  10  20  33  50  74 103 132 162 199 245 295
#     4   9  17  31  53  77  99 128 167 206 242 284
#     4   9  18  32  49  70  95 124 162 205 243 284
#     4   8  13  21  35  57  82 107 140 182 224 269
#     4   8  14  25  41  61  86 116 150 188 230 276
#
# _framework density 17.446767000000001
#
# number of rings (size 3 to 8) (size 9 to 14) (size 15 to 20)
#    0.000    3.000    0.000    3.000    0.000    5.000 
#    0.000    2.500    0.000    6.000    0.000    2.333 
#    0.000    0.000    0.000    0.000    0.000    0.000 
#
# Total GULP energy -267425.246192 kJ/mol
# GULP energy per Si atom -5571.359296 kJ/mol
# Density = 1.740706 g / cm^3
# Si number density = 17.446767 Si / 1000 Ang^3
#
#
#
# Elastic Constant Matrix: (Units=GPa)
#
#
# Indices 1 2 3 4 5 6 
#
# 1 49.3337 38.1971 73.9215 0.0000 0.0000 0.0000
# 2 38.1971 49.3341 73.9208 0.0000 0.0000 0.0000
# 3 73.9215 73.9208 233.9562 0.0000 0.0000 0.0000
# 4 0.0000 0.0000 0.0000 30.4306 0.0000 0.0000
# 5 0.0000 0.0000 0.0000 0.0000 30.4307 0.0000
# 6 0.0000 0.0000 0.0000 0.0000 0.0000 17.9443
#
#
#
# Elastic Compliance Matrix: (Units=1/GPa)
#
#
# Indices 1 2 3 4 5 6 
#
# 1 0.057147 -0.032647 -0.007741 0.000000 0.000000 0.000000
# 2 -0.032647 0.057145 -0.007740 0.000000 0.000000 0.000000
# 3 -0.007741 -0.007740 0.009166 0.000000 0.000000 0.000000
# 4 0.000000 0.000000 0.000000 0.032862 0.000000 0.000000
# 5 0.000000 0.000000 0.000000 0.000000 0.032862 0.000000
# 6 0.000000 0.000000 0.000000 0.000000 0.000000 0.055728
#
#
# Mechanical properties :
#
#
# Convention : Reuss Voigt Hill
#
# Bulk Modulus (GPa) = 36.76390 78.30032 57.53211
# Shear Modulus (GPa) = 14.27626 25.53341 19.90483
#
# Velocity S-wave (km/s) = 2.86365 3.82973 3.38137
# Velocity P-wave (km/s) = 5.66143 8.03323 6.94926
#
# Compressibility (1/GPa) = 0.02720060
#
# Stress axis : x y z
#
# Youngs Moduli (GPa) = 17.49887 17.49941 109.10122
#
# Poissons Ratio (x) = 0.57130 0.84456
# Poissons Ratio (y) = 0.57129 0.84447
# Poissons Ratio (z) = 0.13546 0.13545
#
# Static dielectric constant tensor:
#      x y z
#    x 1.584490 0.000000 0.000000 
#    y 0.000000 1.584490 0.000000 
#    z 0.000000 0.000000 1.597450 
# 
# From -- ./inp_files/6085.got.cif
#   From: 2010.05.17/outbox.cif.g08.bks.cpg/sg115_4_cif.got.tgz:6085.got - 2010.05.20 11:07:42.
