data_PCOD9556063
_publ_section_title
;
Structure prediction by ZEFSAII (Michael W. Deem and Ramdas Pophale) SiO2 
 PCOD9556063
Probable space group: P -4 21 C
;
_chemical_formula_sum "Si O2"
_cell_formula_units_Z 40
_cell_length_a 10.319363
_cell_length_b 10.319363
_cell_length_c 15.305700
_cell_angle_alpha 90.000000
_cell_angle_beta 90.000000
_cell_angle_gamma 90.000000
_cell_volume 1629.892555
_symmetry_space_group_name_H-M "P -4 21 C"
_symmetry_group_IT_number 114
_symmetry_cell_setting 'tetragonal'
loop_
_space_group_symop_operation_xyz
x,y,z
y,-x,-z
-x,-y,z
-y,x,-z
1/2+x,1/2-y,1/2-z
1/2-x,1/2+y,1/2-z
1/2-y,1/2-x,1/2+z
1/2+y,1/2+x,1/2+z
loop_
_atom_site_type_symbol
_atom_site_label
_atom_site_fract_x
_atom_site_fract_y
_atom_site_fract_z
Si Si1 0.715890 0.151260 0.752098
Si Si2 0.000000 0.500000 0.850842
Si Si3 0.000000 0.000000 0.500000
Si Si4 0.000000 0.000000 0.000000
Si Si5 0.632585 0.877847 0.998631
Si Si6 0.124408 0.246497 0.564974
Si Si7 0.305322 0.579098 0.646514
O O1 0.617236 0.055057 0.704483
O O2 0.652672 0.210565 0.838313
O O3 0.730771 0.282412 0.692448
O O4 0.822838 0.045681 0.788345
O O5 0.047671 0.618575 0.911110
O O6 0.931583 0.898303 0.562315
O O7 0.080976 0.915832 0.070953
O O8 0.728933 0.757287 0.012397
O O9 0.487580 0.827978 0.980913
O O10 0.681105 0.953665 0.914528
#
# Coordination Sequence:
#
# PCOD9556063 Si02
#       7
#     8   4   2   2   8   8   8
#     4  12  26  44  70 105 142 183 245 314 380 441
#     4  12  24  42  66  98 138 188 240 304 374 456
#     4   8  20  38  64  96 136 186 236 288 356 442
#     4  12  28  50  76 108 156 210 260 312 396 498
#     4  11  22  43  67  95 137 189 240 290 370 459
#     4  10  21  39  66  99 136 183 238 299 364 445
#     4  12  27  47  73 107 147 196 251 317 387 468
#
# _framework density 24.541492999999999
#
# number of rings (size 3 to 8) (size 9 to 14) (size 15 to 20)
#    0.000    0.800    0.000    7.200    0.000    7.200 
#    0.000    0.000    0.000    0.000    0.000    0.000 
#    0.000    0.000    0.000    0.000    0.000    0.000 
#
# Total GULP energy -223358.611342 kJ/mol
# GULP energy per Si atom -5583.965284 kJ/mol
# Density = 2.448564 g / cm^3
# Si number density = 24.541493 Si / 1000 Ang^3
#
#
#
# Elastic Constant Matrix: (Units=GPa)
#
#
# Indices 1 2 3 4 5 6 
#
# 1 59.3277 23.7410 39.8296 0.0000 0.0000 0.0000
# 2 23.7410 59.3277 39.8296 0.0000 0.0000 0.0000
# 3 39.8296 39.8296 135.5251 0.0000 0.0000 0.0000
# 4 0.0000 0.0000 0.0000 10.6444 0.0000 0.0000
# 5 0.0000 0.0000 0.0000 0.0000 10.6444 0.0000
# 6 0.0000 0.0000 0.0000 0.0000 0.0000 30.6900
#
#
#
# Elastic Compliance Matrix: (Units=1/GPa)
#
#
# Indices 1 2 3 4 5 6 
#
# 1 0.022431 -0.005669 -0.004926 0.000000 0.000000 0.000000
# 2 -0.005669 0.022431 -0.004926 0.000000 0.000000 0.000000
# 3 -0.004926 -0.004926 0.010274 0.000000 0.000000 0.000000
# 4 0.000000 0.000000 0.000000 0.093947 0.000000 0.000000
# 5 0.000000 0.000000 0.000000 0.000000 0.093947 0.000000
# 6 0.000000 0.000000 0.000000 0.000000 0.000000 0.032584
#
#
# Mechanical properties :
#
#
# Convention : Reuss Voigt Hill
#
# Bulk Modulus (GPa) = 41.50452 51.22009 46.36231
# Shear Modulus (GPa) = 15.88874 20.44777 18.16825
#
# Velocity S-wave (km/s) = 2.54721 2.88964 2.72381
# Velocity P-wave (km/s) = 5.05962 5.66122 5.36885
#
# Compressibility (1/GPa) = 0.02409376
#
# Stress axis : x y z
#
# Youngs Moduli (GPa) = 44.58051 44.58051 97.33030
#
# Poissons Ratio (x) = 0.25273 0.47948
# Poissons Ratio (y) = 0.25273 0.47948
# Poissons Ratio (z) = 0.21962 0.21962
#
# Static dielectric constant tensor:
#      x y z
#    x 2.070080 0.000000 0.000000 
#    y 0.000000 2.070080 0.000000 
#    z 0.000000 0.000000 1.920460 
# 
# From -- ./inp_files/2193.got.cif
#   From: 2010.05.17/outbox.cif.g08.bks.cpg/sg114_2_cif.got.tgz:2193.got - 2010.05.20 11:04:54.
