data_PCOD9556943
_publ_section_title
;
Structure prediction by ZEFSAII (Michael W. Deem and Ramdas Pophale) SiO2 
 PCOD9556943
Probable space group: P -4 M 2
;
_chemical_formula_sum "Si O2"
_cell_formula_units_Z 48
_cell_length_a 9.233418
_cell_length_b 9.233418
_cell_length_c 31.611372
_cell_angle_alpha 90.000000
_cell_angle_beta 90.000000
_cell_angle_gamma 90.000000
_cell_volume 2695.059383
_symmetry_space_group_name_H-M "P -4 M 2"
_symmetry_group_IT_number 115
_symmetry_cell_setting 'tetragonal'
loop_
_space_group_symop_operation_xyz
x,y,z
y,-x,-z
-x,-y,z
-y,x,-z
y,x,-z
-y,-x,-z
-x,y,z
x,-y,z
loop_
_atom_site_type_symbol
_atom_site_label
_atom_site_fract_x
_atom_site_fract_y
_atom_site_fract_z
Si Si1 0.170861 0.172461 0.374851
Si Si2 0.671090 0.326758 0.297222
Si Si3 0.166486 0.823752 0.875283
Si Si4 0.327718 0.671731 0.548915
Si Si5 0.171960 0.327706 0.209982
Si Si6 0.826400 0.328474 0.038965
O O1 0.251563 0.244286 0.335232
O O2 0.236835 0.238851 0.417571
O O3 0.000000 0.203664 0.372351
O O4 0.191332 0.000000 0.374293
O O5 0.500000 0.297369 0.297131
O O6 0.691287 0.500000 0.302914
O O7 0.742045 0.287390 0.252229
O O8 0.242065 0.778695 0.831618
O O9 0.254857 0.779999 0.916905
O O10 0.000000 0.776352 0.877610
O O11 0.167916 0.000000 0.874913
O O12 0.293439 0.706562 0.500000
O O13 0.500000 0.694913 0.554947
O O14 0.301077 0.500000 0.555181
O O15 0.189792 0.500000 0.202765
O O16 0.000000 0.301225 0.216433
O O17 0.799978 0.500000 0.040295
O O18 0.000000 0.306149 0.034284
O O19 0.745344 0.254656 0.000000
#
# Coordination Sequence:
#
# PCOD9556943 Si02
#       6
#     8   8   8   8   8   8
#     4  11  24  38  53  78 111 144 179 221 267 314
#     4  10  21  37  57  80 106 139 180 222 264 314
#     4   9  17  30  51  78 105 135 173 217 263 311
#     4   9  19  37  60  84 109 139 177 219 263 315
#     4   9  17  31  52  77 105 137 173 214 262 316
#     4  10  20  34  53  77 105 138 177 219 263 313
#
# _framework density 17.810365999999998
#
# number of rings (size 3 to 8) (size 9 to 14) (size 15 to 20)
#    0.000    2.333    0.000    3.000    0.000    9.000 
#    0.000    5.000    0.000    3.000    0.000    0.000 
#    0.000    0.000    0.000    0.000    0.000    0.000 
#
# Total GULP energy -267975.206842 kJ/mol
# GULP energy per Si atom -5582.816809 kJ/mol
# Density = 1.776983 g / cm^3
# Si number density = 17.810366 Si / 1000 Ang^3
#
#
#
# Elastic Constant Matrix: (Units=GPa)
#
#
# Indices 1 2 3 4 5 6 
#
# 1 83.1313 74.7064 102.7060 0.0000 0.0000 0.0000
# 2 74.7064 83.1312 102.7057 0.0000 0.0000 0.0000
# 3 102.7060 102.7057 198.3559 0.0000 0.0000 0.0000
# 4 0.0000 0.0000 0.0000 35.2089 0.0000 0.0000
# 5 0.0000 0.0000 0.0000 0.0000 35.2090 0.0000
# 6 0.0000 0.0000 0.0000 0.0000 0.0000 24.0517
#
#
#
# Elastic Compliance Matrix: (Units=1/GPa)
#
#
# Indices 1 2 3 4 5 6 
#
# 1 0.069061 -0.049636 -0.010058 0.000000 0.000000 0.000000
# 2 -0.049636 0.069061 -0.010058 0.000000 0.000000 0.000000
# 3 -0.010058 -0.010058 0.015458 0.000000 0.000000 0.000000
# 4 0.000000 0.000000 0.000000 0.028402 0.000000 0.000000
# 5 0.000000 0.000000 0.000000 0.000000 0.028402 0.000000
# 6 0.000000 0.000000 0.000000 0.000000 0.000000 0.041577
#
#
# Mechanical properties :
#
#
# Convention : Reuss Voigt Hill
#
# Bulk Modulus (GPa) = 71.04522 102.76162 86.90342
# Shear Modulus (GPa) = 12.62127 24.52727 18.57427
#
# Velocity S-wave (km/s) = 2.66493 3.71500 3.23289
# Velocity P-wave (km/s) = 7.03175 8.73067 7.92686
#
# Compressibility (1/GPa) = 0.01407554
#
# Stress axis : x y z
#
# Youngs Moduli (GPa) = 14.47990 14.47995 64.69340
#
# Poissons Ratio (x) = 0.71872 0.65071
# Poissons Ratio (y) = 0.71872 0.65070
# Poissons Ratio (z) = 0.14565 0.14564
#
# Static dielectric constant tensor:
#      x y z
#    x 1.592920 0.000000 0.000000 
#    y 0.000000 1.592920 0.000000 
#    z 0.000000 0.000000 1.580510 
# 
# From -- ./inp_files/5986.got.cif
#   From: 2010.05.17/outbox.cif.g08.bks.cpg/sg115_3_cif.got.tgz:5986.got - 2010.05.20 11:07:42.
