data_PCOD9556747
_publ_section_title
;
Structure prediction by ZEFSAII (Michael W. Deem and Ramdas Pophale) SiO2 
 PCOD9556747
Probable space group: P -4 M 2
;
_chemical_formula_sum "Si O2"
_cell_formula_units_Z 48
_cell_length_a 9.152087
_cell_length_b 9.152087
_cell_length_c 31.850470
_cell_angle_alpha 90.000000
_cell_angle_beta 90.000000
_cell_angle_gamma 90.000000
_cell_volume 2667.817550
_symmetry_space_group_name_H-M "P -4 M 2"
_symmetry_group_IT_number 115
_symmetry_cell_setting 'tetragonal'
loop_
_space_group_symop_operation_xyz
x,y,z
y,-x,-z
-x,-y,z
-y,x,-z
y,x,-z
-y,-x,-z
-x,y,z
x,-y,z
loop_
_atom_site_type_symbol
_atom_site_label
_atom_site_fract_x
_atom_site_fract_y
_atom_site_fract_z
Si Si1 0.325573 0.172445 0.292417
Si Si2 0.674430 0.174782 0.196857
Si Si3 0.174431 0.674435 0.960162
Si Si4 0.169393 0.675946 0.369662
Si Si5 0.330916 0.321798 0.453955
Si Si6 0.326122 0.173865 0.880924
O O1 0.500000 0.191657 0.295950
O O2 0.284754 0.214977 0.244738
O O3 0.247656 0.259360 0.329078
O O4 0.294610 0.000000 0.296817
O O5 0.500000 0.199811 0.191701
O O6 0.763858 0.263175 0.162549
O O7 0.697583 0.000000 0.191851
O O8 0.199122 0.500000 0.961067
O O9 0.243951 0.743647 0.918502
O O10 0.000000 0.699221 0.960962
O O11 0.249896 0.750104 0.000000
O O12 0.181655 0.500000 0.368525
O O13 0.242045 0.726178 0.413332
O O14 0.000000 0.715688 0.369227
O O15 0.275163 0.275163 0.500000
O O16 0.500000 0.277648 0.449218
O O17 0.328626 0.500000 0.455155
O O18 0.500000 0.199465 0.883773
O O19 0.300794 0.000000 0.883981
#
# Coordination Sequence:
#
# PCOD9556747 Si02
#       6
#     8   8   8   8   8   8
#     4   9  19  36  56  77 102 135 177 221 263 311
#     4   9  19  37  59  81 105 136 178 225 269 315
#     4  11  24  41  62  88 116 147 186 229 271 318
#     4  10  20  32  48  74 107 138 168 207 258 314
#     4   8  14  27  48  70  92 125 171 217 257 301
#     4  11  24  39  56  83 117 149 183 222 265 318
#
# _framework density 17.992234
#
# number of rings (size 3 to 8) (size 9 to 14) (size 15 to 20)
#    0.000    2.333    0.000    4.000    0.000    9.667 
#    0.000    5.833    0.000    3.000    0.000    0.000 
#    0.000    0.000    0.000    0.000    0.000    0.000 
#
# Total GULP energy -267915.534893 kJ/mol
# GULP energy per Si atom -5581.573644 kJ/mol
# Density = 1.795128 g / cm^3
# Si number density = 17.992234 Si / 1000 Ang^3
#
#
#
# Elastic Constant Matrix: (Units=GPa)
#
#
# Indices 1 2 3 4 5 6 
#
# 1 60.4640 56.4400 69.8477 0.0000 0.0000 0.0000
# 2 56.4400 60.4639 69.8477 0.0000 0.0000 0.0000
# 3 69.8477 69.8477 171.8302 0.0000 0.0000 0.0000
# 4 0.0000 0.0000 0.0000 111.8256 0.0000 0.0000
# 5 0.0000 0.0000 0.0000 0.0000 111.8330 0.0000
# 6 0.0000 0.0000 0.0000 0.0000 0.0000 26.1887
#
#
#
# Elastic Compliance Matrix: (Units=1/GPa)
#
#
# Indices 1 2 3 4 5 6 
#
# 1 0.132574 -0.115941 -0.006762 0.000000 0.000000 0.000000
# 2 -0.115941 0.132574 -0.006761 0.000000 0.000000 0.000000
# 3 -0.006762 -0.006761 0.011317 0.000000 0.000000 0.000000
# 4 0.000000 0.000000 0.000000 0.008942 0.000000 0.000000
# 5 0.000000 0.000000 0.000000 0.000000 0.008942 0.000000
# 6 0.000000 0.000000 0.000000 0.000000 0.000000 0.038184
#
#
# Mechanical properties :
#
#
# Convention : Reuss Voigt Hill
#
# Bulk Modulus (GPa) = 57.01841 76.11432 66.56637
# Shear Modulus (GPa) = 8.37090 56.41096 32.39093
#
# Velocity S-wave (km/s) = 2.15931 5.60544 4.24757
# Velocity P-wave (km/s) = 6.16248 9.18099 7.81878
#
# Compressibility (1/GPa) = 0.01753819
#
# Stress axis : x y z
#
# Youngs Moduli (GPa) = 7.54295 7.54294 88.36509
#
# Poissons Ratio (x) = 0.87453 0.59748
# Poissons Ratio (y) = 0.87453 0.59748
# Poissons Ratio (z) = 0.05100 0.05100
#
# Static dielectric constant tensor:
#      x y z
#    x 1.597840 0.000000 0.000000 
#    y 0.000000 1.597840 0.000000 
#    z 0.000000 0.000000 1.608200 
# 
# From -- ./inp_files/5978.got.cif
#   From: 2010.05.17/outbox.cif.g08.bks.cpg/sg115_3_cif.got.tgz:5978.got - 2010.05.20 11:07:42.
