data_PCOD9556310
_publ_section_title
;
Structure prediction by ZEFSAII (Michael W. Deem and Ramdas Pophale) SiO2 
 PCOD9556310
Probable space group: P -4 21 C
;
_chemical_formula_sum "Si O2"
_cell_formula_units_Z 34
_cell_length_a 11.574185
_cell_length_b 11.574185
_cell_length_c 10.028968
_cell_angle_alpha 90.000000
_cell_angle_beta 90.000000
_cell_angle_gamma 90.000000
_cell_volume 1343.498188
_symmetry_space_group_name_H-M "P -4 21 C"
_symmetry_group_IT_number 114
_symmetry_cell_setting 'tetragonal'
loop_
_space_group_symop_operation_xyz
x,y,z
y,-x,-z
-x,-y,z
-y,x,-z
1/2+x,1/2-y,1/2-z
1/2-x,1/2+y,1/2-z
1/2-y,1/2-x,1/2+z
1/2+y,1/2+x,1/2+z
loop_
_atom_site_type_symbol
_atom_site_label
_atom_site_fract_x
_atom_site_fract_y
_atom_site_fract_z
Si Si1 0.000000 0.000000 0.500000
Si Si2 0.894058 0.587297 0.075460
Si Si3 0.501633 0.342588 0.428006
Si Si4 0.839376 0.810815 0.424930
Si Si5 0.183632 0.196127 0.721569
O O1 0.923965 0.084850 0.588689
O O2 0.916557 0.695250 0.450335
O O3 0.800154 0.590425 0.196976
O O4 0.000000 0.500000 0.081850
O O5 0.951725 0.713706 0.068785
O O6 0.417201 0.354310 0.301277
O O7 0.613710 0.423610 0.447323
O O8 0.327376 0.280266 0.069718
O O9 0.750975 0.784193 0.310105
#
# Coordination Sequence:
#
# PCOD9556310 Si02
#       5
#     2   8   8   8   8
#     4  12  28  48  80 122 172 204 256 354 428 476
#     4  10  25  48  76 114 158 209 266 338 406 478
#     4  11  23  47  78 113 154 212 271 322 391 490
#     4  10  26  49  71 114 156 204 265 325 411 478
#     4  10  24  50  70 118 152 209 270 328 397 481
#
# _framework density 25.307068999999998
#
# number of rings (size 3 to 8) (size 9 to 14) (size 15 to 20)
#    1.412    0.235    2.353    0.000    6.588    2.824 
#   16.941    0.000    0.000    0.000    0.000    0.000 
#    0.000    0.000    0.000    0.000    0.000    0.000 
#
# Total GULP energy -189840.551102 kJ/mol
# GULP energy per Si atom -5583.545621 kJ/mol
# Density = 2.524947 g / cm^3
# Si number density = 25.307069 Si / 1000 Ang^3
#
#
#
# Elastic Constant Matrix: (Units=GPa)
#
#
# Indices 1 2 3 4 5 6 
#
# 1 142.9175 66.6368 46.7089 0.0000 0.0000 0.0000
# 2 66.6368 142.9175 46.7089 0.0000 0.0000 0.0000
# 3 46.7089 46.7089 124.5979 0.0000 0.0000 0.0000
# 4 0.0000 0.0000 0.0000 25.2830 0.0000 0.0000
# 5 0.0000 0.0000 0.0000 0.0000 25.2830 0.0000
# 6 0.0000 0.0000 0.0000 0.0000 0.0000 51.6953
#
#
#
# Elastic Compliance Matrix: (Units=1/GPa)
#
#
# Indices 1 2 3 4 5 6 
#
# 1 0.009420 -0.003690 -0.002148 0.000000 0.000000 0.000000
# 2 -0.003690 0.009420 -0.002148 0.000000 0.000000 0.000000
# 3 -0.002148 -0.002148 0.009636 0.000000 0.000000 0.000000
# 4 0.000000 0.000000 0.000000 0.039552 0.000000 0.000000
# 5 0.000000 0.000000 0.000000 0.000000 0.039552 0.000000
# 6 0.000000 0.000000 0.000000 0.000000 0.000000 0.019344
#
#
# Mechanical properties :
#
#
# Convention : Reuss Voigt Hill
#
# Bulk Modulus (GPa) = 79.97581 81.17135 80.57358
# Shear Modulus (GPa) = 33.99900 37.14417 35.57159
#
# Velocity S-wave (km/s) = 3.66930 3.83526 3.75320
# Velocity P-wave (km/s) = 7.04432 7.19420 7.11966
#
# Compressibility (1/GPa) = 0.01250378
#
# Stress axis : x y z
#
# Youngs Moduli (GPa) = 106.16272 106.16272 103.77547
#
# Poissons Ratio (x) = 0.39174 0.22290
# Poissons Ratio (y) = 0.39174 0.22290
# Poissons Ratio (z) = 0.22802 0.22802
#
# Static dielectric constant tensor:
#      x y z
#    x 2.019320 0.000000 0.000000 
#    y 0.000000 2.019320 0.000000 
#    z 0.000000 0.000000 2.016160 
# 
# From -- ./inp_files/1446.got.cif
#   From: 2010.05.17/outbox.cif.g08.bks.cpg/sg114_1_cif.got.tgz:1446.got - 2010.05.20 11:04:54.
