data_PCOD9556246
_publ_section_title
;
Structure prediction by ZEFSAII (Michael W. Deem and Ramdas Pophale) SiO2 
 PCOD9556246
Probable space group: P -4 21 C
;
_chemical_formula_sum "Si O2"
_cell_formula_units_Z 40
_cell_length_a 8.431779
_cell_length_b 8.431779
_cell_length_c 23.452510
_cell_angle_alpha 90.000000
_cell_angle_beta 90.000000
_cell_angle_gamma 90.000000
_cell_volume 1667.353785
_symmetry_space_group_name_H-M "P -4 21 C"
_symmetry_group_IT_number 114
_symmetry_cell_setting 'tetragonal'
loop_
_space_group_symop_operation_xyz
x,y,z
y,-x,-z
-x,-y,z
-y,x,-z
1/2+x,1/2-y,1/2-z
1/2-x,1/2+y,1/2-z
1/2-y,1/2-x,1/2+z
1/2+y,1/2+x,1/2+z
loop_
_atom_site_type_symbol
_atom_site_label
_atom_site_fract_x
_atom_site_fract_y
_atom_site_fract_z
Si Si1 0.069965 0.168291 0.569043
Si Si2 0.155667 0.585037 0.628318
Si Si3 0.378717 0.775102 0.710647
Si Si4 0.201533 0.888075 0.974980
Si Si5 0.369198 0.230955 0.182999
O O1 0.161687 0.258929 0.518688
O O2 0.199046 0.143398 0.619810
O O3 0.928597 0.278347 0.591748
O O4 0.000000 0.000000 0.557142
O O5 0.276218 0.653762 0.673336
O O6 0.249749 0.473709 0.583937
O O7 0.000000 0.500000 0.654642
O O8 0.356339 0.713696 0.774831
O O9 0.561266 0.783991 0.691562
O O10 0.301994 0.948792 0.700839
O O11 0.191640 0.028387 0.021742
#
# Coordination Sequence:
#
# PCOD9556246 Si02
#       5
#     8   8   8   8   8
#     4  11  23  49  75 109 151 201 253 329 393 460
#     4  10  23  46  73 103 152 204 253 321 384 450
#     4  11  25  43  70 112 156 213 264 316 381 462
#     4  10  25  48  78 108 148 193 256 313 385 467
#     4  11  26  42  71 110 158 209 261 318 384 468
#
# _framework density 23.990109
#
# number of rings (size 3 to 8) (size 9 to 14) (size 15 to 20)
#    0.000    1.400    2.000    1.200   14.000    0.000 
#   10.800    0.000    0.000    0.000    0.000    0.000 
#    0.000    0.000    0.000    0.000    0.000    0.000 
#
# Total GULP energy -224108.918720 kJ/mol
# GULP energy per Si atom -5602.722968 kJ/mol
# Density = 2.393551 g / cm^3
# Si number density = 23.990109 Si / 1000 Ang^3
#
#
#
# Elastic Constant Matrix: (Units=GPa)
#
#
# Indices 1 2 3 4 5 6 
#
# 1 131.3810 67.5838 51.0980 0.0000 0.0000 0.0000
# 2 67.5838 131.3810 51.0980 0.0000 0.0000 0.0000
# 3 51.0980 51.0980 75.4776 0.0000 0.0000 0.0000
# 4 0.0000 0.0000 0.0000 46.7431 0.0000 0.0000
# 5 0.0000 0.0000 0.0000 0.0000 46.7431 0.0000
# 6 0.0000 0.0000 0.0000 0.0000 0.0000 56.7661
#
#
#
# Elastic Compliance Matrix: (Units=1/GPa)
#
#
# Indices 1 2 3 4 5 6 
#
# 1 0.011690 -0.003985 -0.005217 0.000000 0.000000 0.000000
# 2 -0.003985 0.011690 -0.005217 0.000000 0.000000 0.000000
# 3 -0.005217 -0.005217 0.020312 0.000000 0.000000 0.000000
# 4 0.000000 0.000000 0.000000 0.021394 0.000000 0.000000
# 5 0.000000 0.000000 0.000000 0.000000 0.021394 0.000000
# 6 0.000000 0.000000 0.000000 0.000000 0.000000 0.017616
#
#
# Mechanical properties :
#
#
# Convention : Reuss Voigt Hill
#
# Bulk Modulus (GPa) = 67.30923 75.31104 71.31014
# Shear Modulus (GPa) = 36.26261 41.28113 38.77187
#
# Velocity S-wave (km/s) = 3.89210 4.15270 4.02451
# Velocity P-wave (km/s) = 6.95097 7.37929 7.16833
#
# Compressibility (1/GPa) = 0.01485680
#
# Stress axis : x y z
#
# Youngs Moduli (GPa) = 85.54278 85.54278 49.23173
#
# Poissons Ratio (x) = 0.34086 0.25682
# Poissons Ratio (y) = 0.34086 0.25682
# Poissons Ratio (z) = 0.44624 0.44624
#
# Static dielectric constant tensor:
#      x y z
#    x 1.926050 0.000000 0.000000 
#    y 0.000000 1.926050 0.000000 
#    z 0.000000 0.000000 1.887640 
# 
# From -- ./inp_files/3663.got.cif
#   From: 2010.05.17/outbox.cif.g08.bks.cpg/sg114_2_cif.got.tgz:3663.got - 2010.05.20 11:04:54.
