data_PCOD9556169
_publ_section_title
;
Structure prediction by ZEFSAII (Michael W. Deem and Ramdas Pophale) SiO2 
 PCOD9556169
Probable space group: P -4 21 C
;
_chemical_formula_sum "Si O2"
_cell_formula_units_Z 40
_cell_length_a 18.725143
_cell_length_b 18.725143
_cell_length_c 4.991166
_cell_angle_alpha 90.000000
_cell_angle_beta 90.000000
_cell_angle_gamma 90.000000
_cell_volume 1750.057428
_symmetry_space_group_name_H-M "P -4 21 C"
_symmetry_group_IT_number 114
_symmetry_cell_setting 'tetragonal'
loop_
_space_group_symop_operation_xyz
x,y,z
y,-x,-z
-x,-y,z
-y,x,-z
1/2+x,1/2-y,1/2-z
1/2-x,1/2+y,1/2-z
1/2-y,1/2-x,1/2+z
1/2+y,1/2+x,1/2+z
loop_
_atom_site_type_symbol
_atom_site_label
_atom_site_fract_x
_atom_site_fract_y
_atom_site_fract_z
Si Si1 0.966862 0.107715 0.057838
Si Si2 0.504538 0.255682 0.794858
Si Si3 0.205835 0.364146 0.463241
Si Si4 0.135001 0.165625 0.602604
Si Si5 0.785664 0.353619 0.128812
O O1 0.915394 0.120801 0.309446
O O2 0.045253 0.074886 0.105966
O O3 0.975367 0.180261 0.892366
O O4 0.552480 0.202897 0.614319
O O5 0.562071 0.295306 0.988803
O O6 0.438162 0.216747 0.924682
O O7 0.180169 0.342644 0.754127
O O8 0.287417 0.347964 0.371015
O O9 0.204604 0.171003 0.424788
O O10 0.812005 0.336062 0.424005
#
# Coordination Sequence:
#
# PCOD9556169 Si02
#       5
#     8   8   8   8   8
#     4   9  17  36  66 101 147 189 226 274 346 441
#     4   9  23  41  64 102 135 189 228 294 345 428
#     4  10  22  41  66  94 124 172 234 284 329 395
#     4   9  21  39  64 102 132 186 227 282 340 431
#     4  12  25  43  67 101 140 176 226 293 360 411
#
# _framework density 22.856390999999999
#
# number of rings (size 3 to 8) (size 9 to 14) (size 15 to 20)
#    1.200    1.000    0.000    2.400    0.000    6.400 
#    0.000    0.000    0.000    3.600    0.000    0.000 
#    0.000    0.000    0.000    0.000    0.000    0.000 
#
# Total GULP energy -223618.064249 kJ/mol
# GULP energy per Si atom -5590.451606 kJ/mol
# Density = 2.280437 g / cm^3
# Si number density = 22.856391 Si / 1000 Ang^3
#
#
#
# Elastic Constant Matrix: (Units=GPa)
#
#
# Indices 1 2 3 4 5 6 
#
# 1 98.4981 47.1644 9.2402 0.0000 0.0000 0.0000
# 2 47.1644 98.4981 9.2402 0.0000 0.0000 0.0000
# 3 9.2402 9.2402 39.4720 0.0000 0.0000 0.0000
# 4 0.0000 0.0000 0.0000 24.0687 0.0000 0.0000
# 5 0.0000 0.0000 0.0000 0.0000 24.0687 0.0000
# 6 0.0000 0.0000 0.0000 0.0000 0.0000 36.5456
#
#
#
# Elastic Compliance Matrix: (Units=1/GPa)
#
#
# Indices 1 2 3 4 5 6 
#
# 1 0.013278 -0.006203 -0.001656 0.000000 0.000000 0.000000
# 2 -0.006203 0.013278 -0.001656 0.000000 0.000000 0.000000
# 3 -0.001656 -0.001656 0.026110 0.000000 0.000000 0.000000
# 4 0.000000 0.000000 0.000000 0.041548 0.000000 0.000000
# 5 0.000000 0.000000 0.000000 0.000000 0.041548 0.000000
# 6 0.000000 0.000000 0.000000 0.000000 0.000000 0.027363
#
#
# Mechanical properties :
#
#
# Convention : Reuss Voigt Hill
#
# Bulk Modulus (GPa) = 29.73065 40.86198 35.29631
# Shear Modulus (GPa) = 25.85771 28.32486 27.09129
#
# Velocity S-wave (km/s) = 3.36715 3.52412 3.44653
# Velocity P-wave (km/s) = 5.30591 5.87161 5.59591
#
# Compressibility (1/GPa) = 0.03363533
#
# Stress axis : x y z
#
# Youngs Moduli (GPa) = 75.31343 75.31343 38.29973
#
# Poissons Ratio (x) = 0.46713 0.06344
# Poissons Ratio (y) = 0.46713 0.06344
# Poissons Ratio (z) = 0.12474 0.12474
#
# Static dielectric constant tensor:
#      x y z
#    x 1.880450 0.000000 0.000000 
#    y 0.000000 1.880450 0.000000 
#    z 0.000000 0.000000 1.897580 
# 
# From -- ./inp_files/162.got.cif
#   From: 2010.05.17/outbox.cif.g08.bks.cpg/sg114_1_cif.got.tgz:162.got - 2010.05.20 11:04:54.
