data_PCOD9556355
_publ_section_title
;
Structure prediction by ZEFSAII (Michael W. Deem and Ramdas Pophale) SiO2 
 PCOD9556355
Probable space group: P -4 21 C
;
_chemical_formula_sum "Si O2"
_cell_formula_units_Z 24
_cell_length_a 8.285650
_cell_length_b 8.285650
_cell_length_c 14.433993
_cell_angle_alpha 90.000000
_cell_angle_beta 90.000000
_cell_angle_gamma 90.000000
_cell_volume 990.922429
_symmetry_space_group_name_H-M "P -4 21 C"
_symmetry_group_IT_number 114
_symmetry_cell_setting 'tetragonal'
loop_
_space_group_symop_operation_xyz
x,y,z
y,-x,-z
-x,-y,z
-y,x,-z
1/2+x,1/2-y,1/2-z
1/2-x,1/2+y,1/2-z
1/2-y,1/2-x,1/2+z
1/2+y,1/2+x,1/2+z
loop_
_atom_site_type_symbol
_atom_site_label
_atom_site_fract_x
_atom_site_fract_y
_atom_site_fract_z
Si Si1 0.759009 0.093242 0.534473
Si Si2 0.073249 0.325725 0.128278
Si Si3 0.175958 0.070491 0.710332
O O1 0.614465 0.179600 0.480158
O O2 0.922928 0.198039 0.519037
O O3 0.721138 0.040083 0.638846
O O4 0.246834 0.306803 0.177730
O O5 0.000000 0.500000 0.148292
O O6 0.953402 0.208820 0.181718
O O7 0.000000 0.000000 0.691286
#
# Coordination Sequence:
#
# PCOD9556355 Si02
#       3
#     8   8   8
#     4   9  17  38  65  88 124 178 224 275 343 418
#     4  11  23  38  67 100 130 178 232 283 351 421
#     4  11  21  40  67  96 137 176 231 288 348 422
#
# _framework density 24.219859
#
# number of rings (size 3 to 8) (size 9 to 14) (size 15 to 20)
#    0.000    1.667    6.667    2.000    0.000    1.333 
#    0.000    0.000    0.000    0.000    0.000    0.000 
#    0.000    0.000    0.000    0.000    0.000    0.000 
#
# Total GULP energy -134056.297767 kJ/mol
# GULP energy per Si atom -5585.679074 kJ/mol
# Density = 2.416473 g / cm^3
# Si number density = 24.219859 Si / 1000 Ang^3
#
#
#
# Elastic Constant Matrix: (Units=GPa)
#
#
# Indices 1 2 3 4 5 6 
#
# 1 38.2170 -5.4146 18.1634 0.0000 0.0000 0.0000
# 2 -5.4146 38.2170 18.1634 0.0000 0.0000 0.0000
# 3 18.1634 18.1634 112.7933 0.0000 0.0000 0.0000
# 4 0.0000 0.0000 0.0000 15.0769 0.0000 0.0000
# 5 0.0000 0.0000 0.0000 0.0000 15.0769 0.0000
# 6 0.0000 0.0000 0.0000 0.0000 0.0000 25.4726
#
#
#
# Elastic Compliance Matrix: (Units=1/GPa)
#
#
# Indices 1 2 3 4 5 6 
#
# 1 0.030011 0.007091 -0.005975 0.000000 0.000000 0.000000
# 2 0.007091 0.030011 -0.005975 0.000000 0.000000 0.000000
# 3 -0.005975 -0.005975 0.010790 0.000000 0.000000 0.000000
# 4 0.000000 0.000000 0.000000 0.066327 0.000000 0.000000
# 5 0.000000 0.000000 0.000000 0.000000 0.066327 0.000000
# 6 0.000000 0.000000 0.000000 0.000000 0.000000 0.039258
#
#
# Mechanical properties :
#
#
# Convention : Reuss Voigt Hill
#
# Bulk Modulus (GPa) = 16.36779 27.89463 22.13121
# Shear Modulus (GPa) = 18.32821 21.67961 20.00391
#
# Velocity S-wave (km/s) = 2.75388 2.99510 2.87702
# Velocity P-wave (km/s) = 4.10907 4.84800 4.49375
#
# Compressibility (1/GPa) = 0.06109561
#
# Stress axis : x y z
#
# Youngs Moduli (GPa) = 33.32154 33.32154 92.67840
#
# Poissons Ratio (x) = -0.23630 0.55372
# Poissons Ratio (y) = -0.23630 0.55372
# Poissons Ratio (z) = 0.19908 0.19908
#
# Static dielectric constant tensor:
#      x y z
#    x 1.954920 0.000000 0.000000 
#    y 0.000000 1.954920 0.000000 
#    z 0.000000 0.000000 1.970420 
# 
# From -- ./inp_files/1888.got.cif
#   From: 2010.05.17/outbox.cif.g08.bks.cpg/sg114_1_cif.got.tgz:1888.got - 2010.05.20 11:04:54.
