data_PCOD9556969
_publ_section_title
;
Structure prediction by ZEFSAII (Michael W. Deem and Ramdas Pophale) SiO2 
 PCOD9556969
Probable space group: P -4 M 2
;
_chemical_formula_sum "Si O2"
_cell_formula_units_Z 48
_cell_length_a 9.133126
_cell_length_b 9.133126
_cell_length_c 31.886895
_cell_angle_alpha 90.000000
_cell_angle_beta 90.000000
_cell_angle_gamma 90.000000
_cell_volume 2659.813158
_symmetry_space_group_name_H-M "P -4 M 2"
_symmetry_group_IT_number 115
_symmetry_cell_setting 'tetragonal'
loop_
_space_group_symop_operation_xyz
x,y,z
y,-x,-z
-x,-y,z
-y,x,-z
y,x,-z
-y,-x,-z
-x,y,z
x,-y,z
loop_
_atom_site_type_symbol
_atom_site_label
_atom_site_fract_x
_atom_site_fract_y
_atom_site_fract_z
Si Si1 0.832337 0.321623 0.370031
Si Si2 0.675276 0.326935 0.126671
Si Si3 0.321331 0.330342 0.546216
Si Si4 0.174318 0.826551 0.205536
Si Si5 0.173147 0.325522 0.960873
Si Si6 0.326856 0.324377 0.284426
O O1 0.830815 0.500000 0.371040
O O2 0.762451 0.272185 0.413918
O O3 0.739228 0.279117 0.329341
O O4 0.000000 0.274276 0.365828
O O5 0.500000 0.307800 0.132426
O O6 0.705771 0.500000 0.125813
O O7 0.758020 0.250521 0.164785
O O8 0.715268 0.253791 0.082333
O O9 0.276017 0.276017 0.500000
O O10 0.500000 0.328787 0.545439
O O11 0.277596 0.500000 0.551410
O O12 0.246817 0.757038 0.246716
O O13 0.000000 0.803957 0.206722
O O14 0.203519 0.000000 0.203915
O O15 0.195638 0.500000 0.967269
O O16 0.000000 0.299081 0.957010
O O17 0.239883 0.239883 0.000000
O O18 0.500000 0.296710 0.283217
O O19 0.304774 0.500000 0.279877
#
# Coordination Sequence:
#
# PCOD9556969 Si02
#       6
#     8   8   8   8   8   8
#     4   9  16  26  43  69 100 131 164 207 258 308
#     4  10  21  38  61  86 110 140 181 226 269 314
#     4   8  13  22  38  61  89 122 162 207 252 299
#     4  11  24  39  55  78 109 143 177 215 263 318
#     4  10  21  37  58  84 114 149 187 226 270 318
#     4  10  20  34  54  79 105 135 174 218 263 313
#
# _framework density 18.046382000000001
#
# number of rings (size 3 to 8) (size 9 to 14) (size 15 to 20)
#    0.000    2.333    0.000    3.500    0.000    9.000 
#    0.000    0.000    0.000    1.000    0.000    2.333 
#    0.000    0.000    0.000    0.000    0.000    0.000 
#
# Total GULP energy -267934.453967 kJ/mol
# GULP energy per Si atom -5581.967791 kJ/mol
# Density = 1.800531 g / cm^3
# Si number density = 18.046382 Si / 1000 Ang^3
#
#
#
# Elastic Constant Matrix: (Units=GPa)
#
#
# Indices 1 2 3 4 5 6 
#
# 1 76.6341 68.0296 91.7716 0.0000 0.0000 0.0000
# 2 68.0296 76.6341 91.7716 0.0000 0.0000 0.0000
# 3 91.7716 91.7716 212.4163 0.0000 0.0000 0.0000
# 4 0.0000 0.0000 0.0000 -22.7897 0.0000 0.0000
# 5 0.0000 0.0000 0.0000 0.0000 -22.7897 0.0000
# 6 0.0000 0.0000 0.0000 0.0000 0.0000 21.8562
#
#
#
# Elastic Compliance Matrix: (Units=1/GPa)
#
#
# Indices 1 2 3 4 5 6 
#
# 1 0.065758 -0.050460 -0.006609 0.000000 0.000000 0.000000
# 2 -0.050460 0.065758 -0.006609 0.000000 0.000000 0.000000
# 3 -0.006609 -0.006609 0.010419 0.000000 0.000000 0.000000
# 4 0.000000 0.000000 0.000000 -0.043879 0.000000 0.000000
# 5 0.000000 0.000000 0.000000 0.000000 -0.043879 0.000000
# 6 0.000000 0.000000 0.000000 0.000000 0.000000 0.045754
#
#
# Mechanical properties :
#
#
# Convention : Reuss Voigt Hill
#
# Bulk Modulus (GPa) = 68.59777 96.53664 82.56720
# Shear Modulus (GPa) = 21.53802 2.86281 12.20042
#
# Velocity S-wave (km/s) = 3.45843 1.26087 2.60293
# Velocity P-wave (km/s) = 7.35133 7.46522 7.40849
#
# Compressibility (1/GPa) = 0.01457773
#
# Stress axis : x y z
#
# Youngs Moduli (GPa) = 15.20717 15.20717 95.98037
#
# Poissons Ratio (x) = 0.76735 0.63438
# Poissons Ratio (y) = 0.76735 0.63438
# Poissons Ratio (z) = 0.10051 0.10051
#
# Static dielectric constant tensor:
#      x y z
#    x 1.600590 0.000000 0.000000 
#    y 0.000000 1.600590 0.000000 
#    z 0.000000 0.000000 1.595890 
# 
# From -- ./inp_files/6123.got.cif
#   From: 2010.05.17/outbox.cif.g08.bks.cpg/sg115_4_cif.got.tgz:6123.got - 2010.05.20 11:07:42.
