data_PCOD9556283
_publ_section_title
;
Structure prediction by ZEFSAII (Michael W. Deem and Ramdas Pophale) SiO2 
 PCOD9556283
Probable space group: P -4 21 C
;
_chemical_formula_sum "Si O2"
_cell_formula_units_Z 36
_cell_length_a 8.138530
_cell_length_b 8.138530
_cell_length_c 20.914949
_cell_angle_alpha 90.000000
_cell_angle_beta 90.000000
_cell_angle_gamma 90.000000
_cell_volume 1385.315672
_symmetry_space_group_name_H-M "P -4 21 C"
_symmetry_group_IT_number 114
_symmetry_cell_setting 'tetragonal'
loop_
_space_group_symop_operation_xyz
x,y,z
y,-x,-z
-x,-y,z
-y,x,-z
1/2+x,1/2-y,1/2-z
1/2-x,1/2+y,1/2-z
1/2-y,1/2-x,1/2+z
1/2+y,1/2+x,1/2+z
loop_
_atom_site_type_symbol
_atom_site_label
_atom_site_fract_x
_atom_site_fract_y
_atom_site_fract_z
Si Si1 0.500000 0.500000 0.770844
Si Si2 0.079669 0.338945 0.968813
Si Si3 0.487019 0.182932 0.305037
Si Si4 0.200079 0.098516 0.390398
Si Si5 0.275052 0.734153 0.408058
O O1 0.347093 0.573459 0.730840
O O2 0.407425 0.381430 0.820381
O O3 0.256610 0.359335 0.935918
O O4 0.000000 0.500000 0.999508
O O5 0.944470 0.304813 0.914157
O O6 0.107501 0.222987 0.029579
O O7 0.382601 0.146478 0.368916
O O8 0.656802 0.242919 0.336895
O O9 0.500000 0.000000 0.273197
O O10 0.187539 0.913083 0.417649
#
# Coordination Sequence:
#
# PCOD9556283 Si02
#       5
#     4   8   8   8   8
#     4  12  26  42  69  99 140 196 244 306 378 450
#     4  12  24  43  75 107 149 194 244 306 388 454
#     4  10  24  44  68  97 138 191 248 306 367 447
#     4  11  26  44  66 106 145 185 248 312 370 445
#     4  11  24  46  73 105 145 191 250 310 373 454
#
# _framework density 25.98686
#
# number of rings (size 3 to 8) (size 9 to 14) (size 15 to 20)
#    0.000    0.889    0.000    7.333    6.222    4.889 
#    0.000    2.222    0.000    0.000    0.000    0.000 
#    0.000    0.000    0.000    0.000    0.000    0.000 
#
# Total GULP energy -200761.358392 kJ/mol
# GULP energy per Si atom -5576.704400 kJ/mol
# Density = 2.592771 g / cm^3
# Si number density = 25.986860 Si / 1000 Ang^3
#
#
#
# Elastic Constant Matrix: (Units=GPa)
#
#
# Indices 1 2 3 4 5 6 
#
# 1 106.1444 21.0709 42.4327 0.0000 0.0000 0.0000
# 2 21.0709 106.1444 42.4327 0.0000 0.0000 0.0000
# 3 42.4327 42.4327 97.4621 0.0000 0.0000 0.0000
# 4 0.0000 0.0000 0.0000 30.3410 0.0000 0.0000
# 5 0.0000 0.0000 0.0000 0.0000 30.3410 0.0000
# 6 0.0000 0.0000 0.0000 0.0000 0.0000 36.4753
#
#
#
# Elastic Compliance Matrix: (Units=1/GPa)
#
#
# Indices 1 2 3 4 5 6 
#
# 1 0.011416 -0.000338 -0.004823 0.000000 0.000000 0.000000
# 2 -0.000338 0.011416 -0.004823 0.000000 0.000000 0.000000
# 3 -0.004823 -0.004823 0.014460 0.000000 0.000000 0.000000
# 4 0.000000 0.000000 0.000000 0.032959 0.000000 0.000000
# 5 0.000000 0.000000 0.000000 0.000000 0.032959 0.000000
# 6 0.000000 0.000000 0.000000 0.000000 0.000000 0.027416
#
#
# Mechanical properties :
#
#
# Convention : Reuss Voigt Hill
#
# Bulk Modulus (GPa) = 57.72376 57.95818 57.84097
# Shear Modulus (GPa) = 31.97544 33.01909 32.49726
#
# Velocity S-wave (km/s) = 3.51158 3.56842 3.54012
# Velocity P-wave (km/s) = 6.22113 6.27132 6.24628
#
# Compressibility (1/GPa) = 0.01732389
#
# Stress axis : x y z
#
# Youngs Moduli (GPa) = 87.59325 87.59325 69.15524
#
# Poissons Ratio (x) = 0.02962 0.33355
# Poissons Ratio (y) = 0.02962 0.33355
# Poissons Ratio (z) = 0.42248 0.42248
#
# Static dielectric constant tensor:
#      x y z
#    x 2.234290 0.000000 0.000000 
#    y 0.000000 2.234290 0.000000 
#    z 0.000000 0.000000 1.966660 
# 
# From -- ./inp_files/2974.got.cif
#   From: 2010.05.17/outbox.cif.g08.bks.cpg/sg114_2_cif.got.tgz:2974.got - 2010.05.20 11:04:54.
