data_PCOD9556314
_publ_section_title
;
Structure prediction by ZEFSAII (Michael W. Deem and Ramdas Pophale) SiO2 
 PCOD9556314
Probable space group: P -4 21 C
;
_chemical_formula_sum "Si O2"
_cell_formula_units_Z 40
_cell_length_a 8.532991
_cell_length_b 8.532991
_cell_length_c 25.187878
_cell_angle_alpha 90.000000
_cell_angle_beta 90.000000
_cell_angle_gamma 90.000000
_cell_volume 1833.978146
_symmetry_space_group_name_H-M "P -4 21 C"
_symmetry_group_IT_number 114
_symmetry_cell_setting 'tetragonal'
loop_
_space_group_symop_operation_xyz
x,y,z
y,-x,-z
-x,-y,z
-y,x,-z
1/2+x,1/2-y,1/2-z
1/2-x,1/2+y,1/2-z
1/2-y,1/2-x,1/2+z
1/2+y,1/2+x,1/2+z
loop_
_atom_site_type_symbol
_atom_site_label
_atom_site_fract_x
_atom_site_fract_y
_atom_site_fract_z
Si Si1 0.745673 0.089587 0.554418
Si Si2 0.279184 0.821244 0.830050
Si Si3 0.588493 0.257609 0.937080
Si Si4 0.164452 0.092041 0.763192
Si Si5 0.673997 0.046662 0.154820
O O1 0.681333 0.113408 0.494835
O O2 0.629086 0.148633 0.598851
O O3 0.911397 0.178490 0.560302
O O4 0.794915 0.908543 0.563988
O O5 0.382206 0.833964 0.882794
O O6 0.312578 0.667218 0.794498
O O7 0.102146 0.788372 0.849579
O O8 0.282369 0.970008 0.790933
O O9 0.156511 0.239423 0.803047
O O10 0.000000 0.000000 0.761067
O O11 0.500000 0.000000 0.173731
#
# Coordination Sequence:
#
# PCOD9556314 Si02
#       5
#     8   8   8   8   8
#     4   9  19  37  62  94 118 165 217 266 324 387
#     4  11  22  40  63  91 127 172 213 271 325 387
#     4   9  19  37  64  88 125 165 217 267 319 388
#     4  10  25  41  62  97 132 168 224 263 327 400
#     4  11  21  39  65  89 127 163 209 267 332 385
#
# _framework density 21.810511000000002
#
# number of rings (size 3 to 8) (size 9 to 14) (size 15 to 20)
#    0.000    2.000    2.000    2.400    2.800    1.600 
#    3.600    5.000    0.000    0.000    0.000    0.000 
#    0.000    0.000    0.000    0.000    0.000    0.000 
#
# Total GULP energy -223411.782673 kJ/mol
# GULP energy per Si atom -5585.294567 kJ/mol
# Density = 2.176087 g / cm^3
# Si number density = 21.810511 Si / 1000 Ang^3
#
#
#
# Elastic Constant Matrix: (Units=GPa)
#
#
# Indices 1 2 3 4 5 6 
#
# 1 51.1197 14.1802 53.2384 0.0000 0.0000 0.0000
# 2 14.1802 51.1197 53.2384 0.0000 0.0000 0.0000
# 3 53.2384 53.2384 174.0545 0.0000 0.0000 0.0000
# 4 0.0000 0.0000 0.0000 30.4302 0.0000 0.0000
# 5 0.0000 0.0000 0.0000 0.0000 30.4302 0.0000
# 6 0.0000 0.0000 0.0000 0.0000 0.0000 22.8601
#
#
#
# Elastic Compliance Matrix: (Units=1/GPa)
#
#
# Indices 1 2 3 4 5 6 
#
# 1 0.028811 0.001740 -0.009345 0.000000 0.000000 0.000000
# 2 0.001740 0.028811 -0.009345 0.000000 0.000000 0.000000
# 3 -0.009345 -0.009345 0.011462 0.000000 0.000000 0.000000
# 4 0.000000 0.000000 0.000000 0.032862 0.000000 0.000000
# 5 0.000000 0.000000 0.000000 0.000000 0.032862 0.000000
# 6 0.000000 0.000000 0.000000 0.000000 0.000000 0.043744
#
#
# Mechanical properties :
#
#
# Convention : Reuss Voigt Hill
#
# Bulk Modulus (GPa) = 28.42075 57.51201 42.96638
# Shear Modulus (GPa) = 22.30341 27.11990 24.71165
#
# Velocity S-wave (km/s) = 3.20128 3.53006 3.36968
# Velocity P-wave (km/s) = 5.16946 6.56059 5.90612
#
# Compressibility (1/GPa) = 0.03518556
#
# Stress axis : x y z
#
# Youngs Moduli (GPa) = 34.70848 34.70848 87.24496
#
# Poissons Ratio (x) = -0.06040 0.81529
# Poissons Ratio (y) = -0.06040 0.81529
# Poissons Ratio (z) = 0.32435 0.32435
#
# Static dielectric constant tensor:
#      x y z
#    x 1.814830 0.000000 0.000000 
#    y 0.000000 1.814830 0.000000 
#    z 0.000000 0.000000 1.793940 
# 
# From -- ./inp_files/3649.got.cif
#   From: 2010.05.17/outbox.cif.g08.bks.cpg/sg114_2_cif.got.tgz:3649.got - 2010.05.20 11:04:54.
