data_PCOD9556514
_publ_section_title
;
Structure prediction by ZEFSAII (Michael W. Deem and Ramdas Pophale) SiO2 
 PCOD9556514
Probable space group: P -4 21 C
;
_chemical_formula_sum "Si O2"
_cell_formula_units_Z 48
_cell_length_a 9.000000
_cell_length_b 9.000000
_cell_length_c 30.000000
_cell_angle_alpha 90.000000
_cell_angle_beta 90.000000
_cell_angle_gamma 90.000000
_cell_volume 2430.000000
_symmetry_space_group_name_H-M "P -4 21 C"
_symmetry_group_IT_number 114
_symmetry_cell_setting 'tetragonal'
loop_
_space_group_symop_operation_xyz
x,y,z
y,-x,-z
-x,-y,z
-y,x,-z
1/2+x,1/2-y,1/2-z
1/2-x,1/2+y,1/2-z
1/2-y,1/2-x,1/2+z
1/2+y,1/2+x,1/2+z
loop_
_atom_site_type_symbol
_atom_site_label
_atom_site_fract_x
_atom_site_fract_y
_atom_site_fract_z
Si Si1 0.194014 0.842365 0.488168
Si Si2 0.658743 0.593962 0.442736
Si Si3 0.448947 0.169470 0.371551
Si Si4 0.382524 0.268354 0.786250
Si Si5 0.304895 0.238885 0.608717
Si Si6 0.721719 0.390659 0.796953
O O1 0.325886 0.750116 0.515671
O O2 0.210488 0.800211 0.435234
O O3 0.022838 0.796769 0.503009
O O4 0.500000 0.500000 0.451601
O O5 0.628794 0.736734 0.411074
O O6 0.750712 0.469557 0.414118
O O7 0.341730 0.159950 0.327913
O O8 0.603026 0.261689 0.368393
O O9 0.500000 0.000000 0.382368
O O10 0.559523 0.308818 0.790496
O O11 0.303513 0.431696 0.788896
O O12 0.331047 0.184021 0.740471
O O13 0.278871 0.131278 0.651566
#
# Coordination Sequence:
#
# PCOD9556514 Si02
#       6
#     8   8   8   8   8   8
#     4  11  27  48  75 106 149 194 250 303 369 434
#     4  10  26  45  72 109 147 188 246 300 368 433
#     4  11  22  44  74 100 138 195 232 297 360 424
#     4  11  26  45  75 101 150 184 242 294 362 433
#     4  11  25  45  72 104 147 187 241 295 363 435
#     4  11  26  47  70 109 142 192 239 296 362 430
#
# _framework density 19.753086
#
# number of rings (size 3 to 8) (size 9 to 14) (size 15 to 20)
#    0.000    1.167    1.667    2.000    9.333    2.000 
#    0.000    0.000    0.000    0.000    0.000    0.000 
#    0.000    0.000    0.000    0.000    0.000    0.000 
#
# Total GULP energy -267855.653524 kJ/mol
# GULP energy per Si atom -5580.326115 kJ/mol
# Density = 1.970813 g / cm^3
# Si number density = 19.753086 Si / 1000 Ang^3
#
#
#
# Elastic Constant Matrix: (Units=GPa)
#
#
# Indices 1 2 3 4 5 6 
#
# 1 125.8621 32.5758 58.5576 0.0000 0.0000 0.0000
# 2 32.5758 125.8621 58.5576 0.0000 0.0000 0.0000
# 3 58.5576 58.5576 174.7121 0.0000 0.0000 0.0000
# 4 0.0000 0.0000 0.0000 44.5771 0.0000 0.0000
# 5 0.0000 0.0000 0.0000 0.0000 44.5771 0.0000
# 6 0.0000 0.0000 0.0000 0.0000 0.0000 44.6302
#
#
#
# Elastic Compliance Matrix: (Units=1/GPa)
#
#
# Indices 1 2 3 4 5 6 
#
# 1 0.009555 -0.001165 -0.002812 0.000000 0.000000 0.000000
# 2 -0.001165 0.009555 -0.002812 0.000000 0.000000 0.000000
# 3 -0.002812 -0.002812 0.007609 0.000000 0.000000 0.000000
# 4 0.000000 0.000000 0.000000 0.022433 0.000000 0.000000
# 5 0.000000 0.000000 0.000000 0.000000 0.022433 0.000000
# 6 0.000000 0.000000 0.000000 0.000000 0.000000 0.022406
#
#
# Mechanical properties :
#
#
# Convention : Reuss Voigt Hill
#
# Bulk Modulus (GPa) = 76.09876 80.64646 78.37261
# Shear Modulus (GPa) = 44.66303 45.20659 44.93481
#
# Velocity S-wave (km/s) = 4.76023 4.78910 4.77469
# Velocity P-wave (km/s) = 8.29588 8.45557 8.37610
#
# Compressibility (1/GPa) = 0.01314082
#
# Stress axis : x y z
#
# Youngs Moduli (GPa) = 104.65719 104.65719 131.42718
#
# Poissons Ratio (x) = 0.12189 0.36959
# Poissons Ratio (y) = 0.12189 0.36959
# Poissons Ratio (z) = 0.29431 0.29431
#
# Static dielectric constant tensor:
#      x y z
#    x 1.727360 0.000000 0.000000 
#    y 0.000000 1.727360 0.000000 
#    z 0.000000 0.000000 1.704170 
# 
# From -- ./inp_files/3913.got.cif
#   From: 2010.05.17/outbox.ucp.g08.bks.cvg/sg114_2_cif.got.tgz:3913.got - 2010.06.11 11:33:27.
