data_PCOD9556490
_publ_section_title
;
Structure prediction by ZEFSAII (Michael W. Deem and Ramdas Pophale) SiO2 
 PCOD9556490
Probable space group: P -4 21 C
;
_chemical_formula_sum "Si O2"
_cell_formula_units_Z 24
_cell_length_a 7.928354
_cell_length_b 7.928354
_cell_length_c 14.574209
_cell_angle_alpha 90.000000
_cell_angle_beta 90.000000
_cell_angle_gamma 90.000000
_cell_volume 916.117247
_symmetry_space_group_name_H-M "P -4 21 C"
_symmetry_group_IT_number 114
_symmetry_cell_setting 'tetragonal'
loop_
_space_group_symop_operation_xyz
x,y,z
y,-x,-z
-x,-y,z
-y,x,-z
1/2+x,1/2-y,1/2-z
1/2-x,1/2+y,1/2-z
1/2-y,1/2-x,1/2+z
1/2+y,1/2+x,1/2+z
loop_
_atom_site_type_symbol
_atom_site_label
_atom_site_fract_x
_atom_site_fract_y
_atom_site_fract_z
Si Si1 0.167938 0.181480 0.376706
Si Si2 0.344865 0.137782 0.550172
Si Si3 0.870216 0.659491 0.687408
O O1 0.321068 0.214447 0.448769
O O2 0.156847 0.308903 0.291548
O O3 0.003471 0.203263 0.436784
O O4 0.193700 0.003198 0.329792
O O5 0.290517 0.284849 0.622880
O O6 0.500000 0.000000 0.554991
O O7 0.000000 0.500000 0.674075
#
# Coordination Sequence:
#
# PCOD9556490 Si02
#       3
#     8   8   8
#     4  12  25  49  82 119 169 234 292 364 452 532
#     4  12  27  50  84 119 173 231 292 365 450 537
#     4  12  27  49  83 124 168 228 301 367 443 533
#
# _framework density 26.197519
#
# number of rings (size 3 to 8) (size 9 to 14) (size 15 to 20)
#    0.000    0.000    3.333    7.000    0.000    2.667 
#    0.000    5.000    0.000    0.000    0.000    0.000 
#    0.000    0.000    0.000    0.000    0.000    0.000 
#
# Total GULP energy -133608.574284 kJ/mol
# GULP energy per Si atom -5567.023928 kJ/mol
# Density = 2.613789 g / cm^3
# Si number density = 26.197519 Si / 1000 Ang^3
#
#
#
# Elastic Constant Matrix: (Units=GPa)
#
#
# Indices 1 2 3 4 5 6 
#
# 1 118.7876 50.7048 44.1800 0.0000 0.0000 0.0000
# 2 50.7048 118.7876 44.1800 0.0000 0.0000 0.0000
# 3 44.1800 44.1800 192.8179 0.0000 0.0000 0.0000
# 4 0.0000 0.0000 0.0000 37.3022 0.0000 0.0000
# 5 0.0000 0.0000 0.0000 0.0000 37.3022 0.0000
# 6 0.0000 0.0000 0.0000 0.0000 0.0000 62.5377
#
#
#
# Elastic Compliance Matrix: (Units=1/GPa)
#
#
# Indices 1 2 3 4 5 6 
#
# 1 0.010694 -0.003994 -0.001535 0.000000 0.000000 0.000000
# 2 -0.003994 0.010694 -0.001535 0.000000 0.000000 0.000000
# 3 -0.001535 -0.001535 0.005890 0.000000 0.000000 0.000000
# 4 0.000000 0.000000 0.000000 0.026808 0.000000 0.000000
# 5 0.000000 0.000000 0.000000 0.000000 0.026808 0.000000
# 6 0.000000 0.000000 0.000000 0.000000 0.000000 0.015990
#
#
# Mechanical properties :
#
#
# Convention : Reuss Voigt Hill
#
# Bulk Modulus (GPa) = 76.04861 78.72473 77.38667
# Shear Modulus (GPa) = 43.32892 46.85030 45.08961
#
# Velocity S-wave (km/s) = 4.07127 4.23348 4.15316
# Velocity P-wave (km/s) = 7.15488 7.34929 7.25274
#
# Compressibility (1/GPa) = 0.01314948
#
# Stress axis : x y z
#
# Youngs Moduli (GPa) = 93.50904 93.50904 169.78590
#
# Poissons Ratio (x) = 0.37346 0.26066
# Poissons Ratio (y) = 0.37346 0.26066
# Poissons Ratio (z) = 0.14356 0.14356
#
# Static dielectric constant tensor:
#      x y z
#    x 2.326300 0.000000 0.000000 
#    y 0.000000 2.326300 0.000000 
#    z 0.000000 0.000000 2.091890 
# 
# From -- ./inp_files/1930.got.cif
#   From: 2010.05.17/outbox.cif.g08.bks.cpg/sg114_1_cif.got.tgz:1930.got - 2010.05.20 11:04:54.
