data_PCOD9556936
_publ_section_title
;
Structure prediction by ZEFSAII (Michael W. Deem and Ramdas Pophale) SiO2 
 PCOD9556936
Probable space group: P -4 M 2
;
_chemical_formula_sum "Si O2"
_cell_formula_units_Z 48
_cell_length_a 9.172932
_cell_length_b 9.172932
_cell_length_c 32.531034
_cell_angle_alpha 90.000000
_cell_angle_beta 90.000000
_cell_angle_gamma 90.000000
_cell_volume 2737.248432
_symmetry_space_group_name_H-M "P -4 M 2"
_symmetry_group_IT_number 115
_symmetry_cell_setting 'tetragonal'
loop_
_space_group_symop_operation_xyz
x,y,z
y,-x,-z
-x,-y,z
-y,x,-z
y,x,-z
-y,-x,-z
-x,y,z
x,-y,z
loop_
_atom_site_type_symbol
_atom_site_label
_atom_site_fract_x
_atom_site_fract_y
_atom_site_fract_z
Si Si1 0.327549 0.825368 0.461694
Si Si2 0.673245 0.173916 0.294857
Si Si3 0.832284 0.822462 0.378059
Si Si4 0.824475 0.173215 0.134158
Si Si5 0.826529 0.176610 0.044176
Si Si6 0.674405 0.671748 0.210486
O O1 0.254322 0.745679 0.500000
O O2 0.500000 0.798833 0.460463
O O3 0.254521 0.777566 0.418787
O O4 0.304624 0.000000 0.465861
O O5 0.500000 0.197848 0.300560
O O6 0.756886 0.224154 0.335648
O O7 0.720659 0.253607 0.253266
O O8 0.695531 0.000000 0.289969
O O9 0.000000 0.775970 0.380133
O O10 0.829424 0.000000 0.377653
O O11 0.770982 0.224982 0.088832
O O12 0.751839 0.256514 0.171572
O O13 0.000000 0.190289 0.135462
O O14 0.794506 0.000000 0.137590
O O15 0.000000 0.206809 0.044242
O O16 0.812712 0.000000 0.043935
O O17 0.768530 0.231471 0.000000
O O18 0.500000 0.693790 0.206817
O O19 0.703457 0.500000 0.211951
#
# Coordination Sequence:
#
# PCOD9556936 Si02
#       6
#     8   8   8   8   8   8
#     4  10  20  34  53  77 105 137 172 207 243 286
#     4   9  17  31  51  72  94 123 161 204 248 293
#     4   9  17  30  51  78 103 127 159 202 250 295
#     4   9  17  29  48  74  98 121 155 199 244 290
#     4   7  10  19  38  65  94 119 145 185 238 289
#     4  10  21  35  49  67  95 132 169 201 238 287
#
# _framework density 17.535858000000001
#
# number of rings (size 3 to 8) (size 9 to 14) (size 15 to 20)
#    0.000    3.000    0.000    3.000    0.000    5.000 
#    0.000    2.500    0.000    4.000    0.000    5.833 
#    0.000    0.000    0.000    0.000    0.000    0.000 
#
# Total GULP energy -267391.885204 kJ/mol
# GULP energy per Si atom -5570.664275 kJ/mol
# Density = 1.749595 g / cm^3
# Si number density = 17.535858 Si / 1000 Ang^3
#
#
#
# Elastic Constant Matrix: (Units=GPa)
#
#
# Indices 1 2 3 4 5 6 
#
# 1 39.3425 41.3435 72.6280 0.0000 0.0000 0.0000
# 2 41.3435 39.3416 72.6282 0.0000 0.0000 0.0000
# 3 72.6280 72.6282 240.0990 0.0000 0.0000 0.0000
# 4 0.0000 0.0000 0.0000 -20.2660 0.0000 0.0000
# 5 0.0000 0.0000 0.0000 0.0000 -20.2676 0.0000
# 6 0.0000 0.0000 0.0000 0.0000 0.0000 17.3358
#
#
#
# Elastic Compliance Matrix: (Units=1/GPa)
#
#
# Indices 1 2 3 4 5 6 
#
# 1 -0.236209 0.263429 -0.008234 0.000000 0.000000 0.000000
# 2 0.263429 -0.236222 -0.008230 0.000000 0.000000 0.000000
# 3 -0.008234 -0.008230 0.009145 0.000000 0.000000 0.000000
# 4 0.000000 0.000000 0.000000 -0.049344 0.000000 0.000000
# 5 0.000000 0.000000 0.000000 0.000000 -0.049340 0.000000
# 6 0.000000 0.000000 0.000000 0.000000 0.000000 0.057684
#
#
# Mechanical properties :
#
#
# Convention : Reuss Voigt Hill
#
# Bulk Modulus (GPa) = 32.63225 76.88695 54.75960
# Shear Modulus (GPa) = -5.06072 4.17267 -0.44402
#
# Velocity S-wave (km/s) = -1.70064 1.54424 -0.50374
# Velocity P-wave (km/s) = 3.84617 6.86442 5.56387
#
# Compressibility (1/GPa) = 0.03064453
#
# Stress axis : x y z
#
# Youngs Moduli (GPa) = -4.23354 -4.23330 109.34820
#
# Poissons Ratio (x) = 1.11517 0.90038
# Poissons Ratio (y) = 1.11524 0.89989
# Poissons Ratio (z) = -0.03486 -0.03484
#
# Static dielectric constant tensor:
#      x y z
#    x 1.581770 0.000000 0.000000 
#    y 0.000000 1.581770 0.000000 
#    z 0.000000 0.000000 1.609160 
# 
# From -- ./inp_files/5955.got.cif
#   From: 2010.05.17/outbox.cif.g08.bks.cpg/sg115_3_cif.got.tgz:5955.got - 2010.05.20 11:07:42.
