data_PCOD9556494
_publ_section_title
;
Structure prediction by ZEFSAII (Michael W. Deem and Ramdas Pophale) SiO2 
 PCOD9556494
Probable space group: P -4 21 C
;
_chemical_formula_sum "Si O2"
_cell_formula_units_Z 34
_cell_length_a 8.980251
_cell_length_b 8.980251
_cell_length_c 17.943535
_cell_angle_alpha 90.000000
_cell_angle_beta 90.000000
_cell_angle_gamma 90.000000
_cell_volume 1447.054730
_symmetry_space_group_name_H-M "P -4 21 C"
_symmetry_group_IT_number 114
_symmetry_cell_setting 'tetragonal'
loop_
_space_group_symop_operation_xyz
x,y,z
y,-x,-z
-x,-y,z
-y,x,-z
1/2+x,1/2-y,1/2-z
1/2-x,1/2+y,1/2-z
1/2-y,1/2-x,1/2+z
1/2+y,1/2+x,1/2+z
loop_
_atom_site_type_symbol
_atom_site_label
_atom_site_fract_x
_atom_site_fract_y
_atom_site_fract_z
Si Si1 0.500000 0.500000 0.000000
Si Si2 0.923446 0.655014 0.169509
Si Si3 0.787007 0.736316 0.525887
Si Si4 0.484272 0.826695 0.602840
Si Si5 0.369365 0.402240 0.259108
O O1 0.628312 0.598377 0.039062
O O2 0.896137 0.672564 0.082100
O O3 0.759599 0.658129 0.206166
O O4 0.000000 0.500000 0.185684
O O5 0.035206 0.774622 0.202161
O O6 0.622411 0.786949 0.549251
O O7 0.801296 0.669011 0.443061
O O8 0.486244 0.718800 0.674275
O O9 0.500000 0.000000 0.624262
O O10 0.500000 0.500000 0.221411
#
# Coordination Sequence:
#
# PCOD9556494 Si02
#       5
#     2   8   8   8   8
#     4  12  28  44  72 112 144 188 236 314 368 424
#     4  12  28  46  75 107 148 193 248 303 366 438
#     4  12  27  47  74 107 146 191 245 302 371 443
#     4  12  26  47  75 105 150 191 246 304 373 447
#     4  12  27  49  73 109 145 201 245 304 372 440
#
# _framework density 23.496001
#
# number of rings (size 3 to 8) (size 9 to 14) (size 15 to 20)
#    0.000    0.000    4.706    4.235    8.235    0.000 
#    0.000    0.000    0.000    0.000    0.000    0.000 
#    0.000    0.000    0.000    0.000    0.000    0.000 
#
# Total GULP energy -190418.221011 kJ/mol
# GULP energy per Si atom -5600.535912 kJ/mol
# Density = 2.344252 g / cm^3
# Si number density = 23.496001 Si / 1000 Ang^3
#
#
#
# Elastic Constant Matrix: (Units=GPa)
#
#
# Indices 1 2 3 4 5 6 
#
# 1 129.2828 46.7339 17.5568 0.0000 0.0000 0.0000
# 2 46.7339 129.2828 17.5568 0.0000 0.0000 0.0000
# 3 17.5568 17.5568 66.0898 0.0000 0.0000 0.0000
# 4 0.0000 0.0000 0.0000 12.5366 0.0000 0.0000
# 5 0.0000 0.0000 0.0000 0.0000 12.5366 0.0000
# 6 0.0000 0.0000 0.0000 0.0000 0.0000 51.9937
#
#
#
# Elastic Compliance Matrix: (Units=1/GPa)
#
#
# Indices 1 2 3 4 5 6 
#
# 1 0.009057 -0.003057 -0.001594 0.000000 0.000000 0.000000
# 2 -0.003057 0.009057 -0.001594 0.000000 0.000000 0.000000
# 3 -0.001594 -0.001594 0.015978 0.000000 0.000000 0.000000
# 4 0.000000 0.000000 0.000000 0.079767 0.000000 0.000000
# 5 0.000000 0.000000 0.000000 0.000000 0.079767 0.000000
# 6 0.000000 0.000000 0.000000 0.000000 0.000000 0.019233
#
#
# Mechanical properties :
#
#
# Convention : Reuss Voigt Hill
#
# Bulk Modulus (GPa) = 46.29352 54.26117 50.27735
# Shear Modulus (GPa) = 21.50101 31.60056 26.55079
#
# Velocity S-wave (km/s) = 3.02833 3.67131 3.36521
# Velocity P-wave (km/s) = 5.65449 6.41212 6.04518
#
# Compressibility (1/GPa) = 0.02160129
#
# Stress axis : x y z
#
# Youngs Moduli (GPa) = 110.41650 110.41650 62.58736
#
# Poissons Ratio (x) = 0.33759 0.09975
# Poissons Ratio (y) = 0.33759 0.09975
# Poissons Ratio (z) = 0.17597 0.17597
#
# Static dielectric constant tensor:
#      x y z
#    x 1.857280 0.000000 0.000000 
#    y 0.000000 1.857280 0.000000 
#    z 0.000000 0.000000 1.879490 
# 
# From -- ./inp_files/2945.got.cif
#   From: 2010.05.17/outbox.cif.g08.bks.cpg/sg114_2_cif.got.tgz:2945.got - 2010.05.20 11:04:54.
