data_PCOD9556919
_publ_section_title
;
Structure prediction by ZEFSAII (Michael W. Deem and Ramdas Pophale) SiO2 
 PCOD9556919
Probable space group: P -4 M 2
;
_chemical_formula_sum "Si O2"
_cell_formula_units_Z 40
_cell_length_a 8.075948
_cell_length_b 8.075948
_cell_length_c 30.265815
_cell_angle_alpha 90.000000
_cell_angle_beta 90.000000
_cell_angle_gamma 90.000000
_cell_volume 1973.964786
_symmetry_space_group_name_H-M "P -4 M 2"
_symmetry_group_IT_number 115
_symmetry_cell_setting 'tetragonal'
loop_
_space_group_symop_operation_xyz
x,y,z
y,-x,-z
-x,-y,z
-y,x,-z
y,x,-z
-y,-x,-z
-x,y,z
x,-y,z
loop_
_atom_site_type_symbol
_atom_site_label
_atom_site_fract_x
_atom_site_fract_y
_atom_site_fract_z
Si Si1 0.301785 0.814810 0.453224
Si Si2 0.000000 0.700809 0.108595
Si Si3 0.312396 0.806018 0.264916
Si Si4 0.200555 0.000000 0.789624
Si Si5 0.701010 0.688828 0.949152
Si Si6 0.298860 0.314412 0.359392
O O1 0.268974 0.731027 0.500000
O O2 0.500000 0.820583 0.448572
O O3 0.236556 0.735885 0.407850
O O4 0.235806 0.000000 0.455922
O O5 0.833062 0.758726 0.083564
O O6 0.000000 0.500000 0.106728
O O7 0.000000 0.755043 0.159149
O O8 0.500000 0.734460 0.260310
O O9 0.166945 0.735618 0.234389
O O10 0.259309 0.791642 0.316315
O O11 0.325834 0.000000 0.254448
O O12 0.000000 0.000000 0.785043
O O13 0.500000 0.682370 0.946368
O O14 0.760793 0.500000 0.940603
O O15 0.736362 0.736362 0.000000
O O16 0.500000 0.311754 0.362165
O O17 0.244705 0.500000 0.349833
#
# Coordination Sequence:
#
# PCOD9556919 Si02
#       6
#     8   4   8   4   8   8
#     4  10  20  34  52  75 105 139 174 214 264 323
#     4  10  20  34  54  80 110 144 186 230 276 331
#     4   9  18  35  57  76 101 142 183 221 273 334
#     4  10  22  38  52  76 114 144 178 226 276 325
#     4   8  15  31  54  78 108 145 184 229 279 331
#     4   9  17  31  54  81 103 127 169 221 268 319
#
# _framework density 20.263787000000001
#
# number of rings (size 3 to 8) (size 9 to 14) (size 15 to 20)
#    0.000    2.800    0.000    1.800    0.000    5.200 
#    3.600    0.000    0.000    0.000    0.000    0.000 
#    0.000    0.000    0.000    0.000    0.000    0.000 
#
# Total GULP energy -222882.110385 kJ/mol
# GULP energy per Si atom -5572.052760 kJ/mol
# Density = 2.021767 g / cm^3
# Si number density = 20.263787 Si / 1000 Ang^3
#
#
#
# Elastic Constant Matrix: (Units=GPa)
#
#
# Indices 1 2 3 4 5 6 
#
# 1 52.5700 24.4071 47.2456 0.0000 0.0000 0.0000
# 2 24.4071 52.5706 47.2457 0.0000 0.0000 0.0000
# 3 47.2456 47.2457 157.2791 0.0000 0.0000 0.0000
# 4 0.0000 0.0000 0.0000 25.4124 0.0000 0.0000
# 5 0.0000 0.0000 0.0000 0.0000 25.4121 0.0000
# 6 0.0000 0.0000 0.0000 0.0000 0.0000 3.4910
#
#
#
# Elastic Compliance Matrix: (Units=1/GPa)
#
#
# Indices 1 2 3 4 5 6 
#
# 1 0.028043 -0.007464 -0.006182 0.000000 0.000000 0.000000
# 2 -0.007464 0.028043 -0.006182 0.000000 0.000000 0.000000
# 3 -0.006182 -0.006182 0.010072 0.000000 0.000000 0.000000
# 4 0.000000 0.000000 0.000000 0.039351 0.000000 0.000000
# 5 0.000000 0.000000 0.000000 0.000000 0.039351 0.000000
# 6 0.000000 0.000000 0.000000 0.000000 0.000000 0.286454
#
#
# Mechanical properties :
#
#
# Convention : Reuss Voigt Hill
#
# Bulk Modulus (GPa) = 37.73154 55.57962 46.65558
# Shear Modulus (GPa) = 10.42091 20.43117 15.42604
#
# Velocity S-wave (km/s) = 2.27020 3.17876 2.76209
# Velocity P-wave (km/s) = 5.05295 6.40002 5.76596
#
# Compressibility (1/GPa) = 0.02650302
#
# Stress axis : x y z
#
# Youngs Moduli (GPa) = 35.65898 35.65947 99.28410
#
# Poissons Ratio (x) = 0.26616 0.61376
# Poissons Ratio (y) = 0.26616 0.61376
# Poissons Ratio (z) = 0.22044 0.22044
#
# Static dielectric constant tensor:
#      x y z
#    x 1.742930 0.000000 0.000000 
#    y 0.000000 1.742930 0.000000 
#    z 0.000000 0.000000 1.723500 
# 
# From -- ./inp_files/5556.got.cif
#   From: 2010.05.17/outbox.cif.g08.bks.cpg/sg115_3_cif.got.tgz:5556.got - 2010.05.20 11:07:42.
