data_PCOD9556893
_publ_section_title
;
Structure prediction by ZEFSAII (Michael W. Deem and Ramdas Pophale) SiO2 
 PCOD9556893
Probable space group: P -4 M 2
;
_chemical_formula_sum "Si O2"
_cell_formula_units_Z 44
_cell_length_a 9.330774
_cell_length_b 9.330774
_cell_length_c 29.272379
_cell_angle_alpha 90.000000
_cell_angle_beta 90.000000
_cell_angle_gamma 90.000000
_cell_volume 2548.551186
_symmetry_space_group_name_H-M "P -4 M 2"
_symmetry_group_IT_number 115
_symmetry_cell_setting 'tetragonal'
loop_
_space_group_symop_operation_xyz
x,y,z
y,-x,-z
-x,-y,z
-y,x,-z
y,x,-z
-y,-x,-z
-x,y,z
x,-y,z
loop_
_atom_site_type_symbol
_atom_site_label
_atom_site_fract_x
_atom_site_fract_y
_atom_site_fract_z
Si Si1 0.328644 0.831432 0.407686
Si Si2 0.327433 0.168004 0.040349
Si Si3 0.328557 0.330441 0.315033
Si Si4 0.830323 0.171520 0.233013
Si Si5 0.825735 0.665063 0.857914
Si Si6 0.829779 0.829779 0.500000
O O1 0.500000 0.819431 0.413433
O O2 0.286853 0.740804 0.363320
O O3 0.251608 0.784331 0.454156
O O4 0.294878 0.000000 0.400077
O O5 0.500000 0.177579 0.038159
O O6 0.286062 0.219446 0.091448
O O7 0.288895 0.000000 0.036054
O O8 0.255907 0.255907 0.000000
O O9 0.500000 0.308461 0.309420
O O10 0.300969 0.500000 0.315452
O O11 0.246639 0.253676 0.273968
O O12 0.762740 0.217191 0.184476
O O13 0.000000 0.196286 0.233518
O O14 0.805689 0.000000 0.237995
O O15 0.780120 0.500000 0.850669
O O16 0.000000 0.664031 0.859267
O O17 0.000000 0.806154 0.494120
#
# Coordination Sequence:
#
# PCOD9556893 Si02
#       6
#     8   8   8   8   8   4
#     4   9  18  33  52  73  98 130 167 204 244 293
#     4   9  18  32  50  74 102 131 166 206 247 294
#     4  10  21  36  53  74 101 134 171 208 248 296
#     4  10  20  33  52  78 103 128 163 207 253 301
#     4   8  15  30  51  72  96 129 168 207 245 290
#     4   9  18  32  50  73 100 128 160 201 246 291
#
# _framework density 17.264711999999999
#
# number of rings (size 3 to 8) (size 9 to 14) (size 15 to 20)
#    0.000    2.818    0.000    2.182    0.000    4.727 
#    0.000    4.545    0.000    1.091    0.000    0.000 
#    0.000    0.000    0.000    0.000    0.000    0.000 
#
# Total GULP energy -245326.794010 kJ/mol
# GULP energy per Si atom -5575.608955 kJ/mol
# Density = 1.722542 g / cm^3
# Si number density = 17.264712 Si / 1000 Ang^3
#
#
#
# Elastic Constant Matrix: (Units=GPa)
#
#
# Indices 1 2 3 4 5 6 
#
# 1 48.2227 46.6739 81.4850 0.0000 0.0000 0.0000
# 2 46.6739 48.2227 81.4850 0.0000 0.0000 0.0000
# 3 81.4850 81.4850 216.6843 0.0000 0.0000 0.0000
# 4 0.0000 0.0000 0.0000 44.2535 0.0000 0.0000
# 5 0.0000 0.0000 0.0000 0.0000 44.2535 0.0000
# 6 0.0000 0.0000 0.0000 0.0000 0.0000 21.9364
#
#
#
# Elastic Compliance Matrix: (Units=1/GPa)
#
#
# Indices 1 2 3 4 5 6 
#
# 1 0.337711 -0.307959 -0.011188 0.000000 0.000000 0.000000
# 2 -0.307959 0.337711 -0.011188 0.000000 0.000000 0.000000
# 3 -0.011188 -0.011188 0.013030 0.000000 0.000000 0.000000
# 4 0.000000 0.000000 0.000000 0.022597 0.000000 0.000000
# 5 0.000000 0.000000 0.000000 0.000000 0.022597 0.000000
# 6 0.000000 0.000000 0.000000 0.000000 0.000000 0.045586
#
#
# Mechanical properties :
#
#
# Convention : Reuss Voigt Hill
#
# Bulk Modulus (GPa) = 35.99648 81.37973 58.68811
# Shear Modulus (GPa) = 3.45026 28.98772 16.21899
#
# Velocity S-wave (km/s) = 1.41520 4.10202 3.06834
# Velocity P-wave (km/s) = 4.85442 8.34711 6.82787
#
# Compressibility (1/GPa) = 0.02778049
#
# Stress axis : x y z
#
# Youngs Moduli (GPa) = 2.96111 2.96111 76.74666
#
# Poissons Ratio (x) = 0.91190 0.85867
# Poissons Ratio (y) = 0.91190 0.85867
# Poissons Ratio (z) = 0.03313 0.03313
#
# Static dielectric constant tensor:
#      x y z
#    x 1.573890 0.000000 0.000000 
#    y 0.000000 1.573890 0.000000 
#    z 0.000000 0.000000 1.572740 
# 
# From -- ./inp_files/5825.got.cif
#   From: 2010.05.17/outbox.cif.g08.bks.cpg/sg115_3_cif.got.tgz:5825.got - 2010.05.20 11:07:42.
