data_PCOD9556740
_publ_section_title
;
Structure prediction by ZEFSAII (Michael W. Deem and Ramdas Pophale) SiO2 
 PCOD9556740
Probable space group: P -4 M 2
;
_chemical_formula_sum "Si O2"
_cell_formula_units_Z 44
_cell_length_a 9.293536
_cell_length_b 9.293536
_cell_length_c 29.304329
_cell_angle_alpha 90.000000
_cell_angle_beta 90.000000
_cell_angle_gamma 90.000000
_cell_volume 2531.009368
_symmetry_space_group_name_H-M "P -4 M 2"
_symmetry_group_IT_number 115
_symmetry_cell_setting 'tetragonal'
loop_
_space_group_symop_operation_xyz
x,y,z
y,-x,-z
-x,-y,z
-y,x,-z
y,x,-z
-y,-x,-z
-x,y,z
x,-y,z
loop_
_atom_site_type_symbol
_atom_site_label
_atom_site_fract_x
_atom_site_fract_y
_atom_site_fract_z
Si Si1 0.673081 0.830039 0.856614
Si Si2 0.172714 0.331629 0.040465
Si Si3 0.175429 0.665770 0.592047
Si Si4 0.834247 0.175394 0.317460
Si Si5 0.828606 0.828606 0.500000
Si Si6 0.669174 0.172924 0.225420
O O1 0.500000 0.815323 0.853394
O O2 0.715464 0.785953 0.908196
O O3 0.750823 0.739042 0.818026
O O4 0.706207 0.000000 0.850978
O O5 0.210481 0.500000 0.035902
O O6 0.000000 0.320591 0.037959
O O7 0.243897 0.243897 0.000000
O O8 0.221602 0.500000 0.593420
O O9 0.223262 0.752358 0.636852
O O10 0.217708 0.744052 0.545236
O O11 0.000000 0.666872 0.592683
O O12 0.751059 0.218338 0.271620
O O13 0.000000 0.222372 0.316927
O O14 0.834178 0.000000 0.318182
O O15 0.000000 0.806867 0.493149
O O16 0.500000 0.204743 0.229065
O O17 0.685180 0.000000 0.221027
#
# Coordination Sequence:
#
# PCOD9556740 Si02
#       6
#     8   8   8   8   4   8
#     4   9  19  36  54  71  96 132 170 205 244 293
#     4   9  19  35  53  74 100 129 163 204 248 295
#     4   9  16  26  42  65  93 123 154 192 238 284
#     4   9  16  27  45  69  97 128 161 199 244 291
#     4   9  16  26  42  65  90 116 150 189 228 276
#     4  10  20  32  48  74 105 133 164 205 251 297
#
# _framework density 17.384370000000001
#
# number of rings (size 3 to 8) (size 9 to 14) (size 15 to 20)
#    0.000    2.818    0.000    2.727    0.000    7.636 
#    0.000    5.455    0.000    1.364    0.000    2.545 
#    0.000    0.000    0.000    0.000    0.000    0.000 
#
# Total GULP energy -245326.672039 kJ/mol
# GULP energy per Si atom -5575.606183 kJ/mol
# Density = 1.734480 g / cm^3
# Si number density = 17.384370 Si / 1000 Ang^3
#
#
#
# Elastic Constant Matrix: (Units=GPa)
#
#
# Indices 1 2 3 4 5 6 
#
# 1 59.1969 38.7448 77.0033 0.0000 0.0000 0.0000
# 2 38.7448 59.1969 77.0033 0.0000 0.0000 0.0000
# 3 77.0033 77.0033 208.2288 0.0000 0.0000 0.0000
# 4 0.0000 0.0000 0.0000 -27.9276 0.0000 0.0000
# 5 0.0000 0.0000 0.0000 0.0000 -27.9276 0.0000
# 6 0.0000 0.0000 0.0000 0.0000 0.0000 18.8649
#
#
#
# Elastic Compliance Matrix: (Units=1/GPa)
#
#
# Indices 1 2 3 4 5 6 
#
# 1 0.036646 -0.012249 -0.009022 0.000000 0.000000 0.000000
# 2 -0.012249 0.036646 -0.009022 0.000000 0.000000 0.000000
# 3 -0.009022 -0.009022 0.011475 0.000000 0.000000 0.000000
# 4 0.000000 0.000000 0.000000 -0.035807 0.000000 0.000000
# 5 0.000000 0.000000 0.000000 0.000000 -0.035807 0.000000
# 6 0.000000 0.000000 0.000000 0.000000 0.000000 0.053008
#
#
# Mechanical properties :
#
#
# Convention : Reuss Voigt Hill
#
# Bulk Modulus (GPa) = 41.35586 79.12505 60.24046
# Shear Modulus (GPa) = 37.09024 1.52671 19.30848
#
# Velocity S-wave (km/s) = 4.62404 0.93814 3.33630
# Velocity P-wave (km/s) = 7.23531 6.84013 7.04049
#
# Compressibility (1/GPa) = 0.02418037
#
# Stress axis : x y z
#
# Youngs Moduli (GPa) = 27.28844 27.28844 87.14648
#
# Poissons Ratio (x) = 0.33426 0.78622
# Poissons Ratio (y) = 0.33426 0.78622
# Poissons Ratio (z) = 0.24619 0.24619
#
# Static dielectric constant tensor:
#      x y z
#    x 1.575270 0.000000 0.000000 
#    y 0.000000 1.575270 0.000000 
#    z 0.000000 0.000000 1.574480 
# 
# From -- ./inp_files/5817.got.cif
#   From: 2010.05.17/outbox.cif.g08.bks.cpg/sg115_3_cif.got.tgz:5817.got - 2010.05.20 11:07:42.
