data_PCOD9556184
_publ_section_title
;
Structure prediction by ZEFSAII (Michael W. Deem and Ramdas Pophale) SiO2 
 PCOD9556184
Probable space group: P -4 21 C
;
_chemical_formula_sum "Si O2"
_cell_formula_units_Z 28
_cell_length_a 7.705652
_cell_length_b 7.705652
_cell_length_c 22.900902
_cell_angle_alpha 90.000000
_cell_angle_beta 90.000000
_cell_angle_gamma 90.000000
_cell_volume 1359.788524
_symmetry_space_group_name_H-M "P -4 21 C"
_symmetry_group_IT_number 114
_symmetry_cell_setting 'tetragonal'
loop_
_space_group_symop_operation_xyz
x,y,z
y,-x,-z
-x,-y,z
-y,x,-z
1/2+x,1/2-y,1/2-z
1/2-x,1/2+y,1/2-z
1/2-y,1/2-x,1/2+z
1/2+y,1/2+x,1/2+z
loop_
_atom_site_type_symbol
_atom_site_label
_atom_site_fract_x
_atom_site_fract_y
_atom_site_fract_z
Si Si1 0.500000 0.500000 0.242168
Si Si2 0.500000 0.767412 1.000000
Si Si3 0.500000 0.000000 0.601566
Si Si4 0.500000 0.000000 0.398434
Si Si5 0.739520 0.260480 0.324950
O O1 0.624784 0.375216 0.280381
O O2 0.373953 0.373953 0.205083
O O3 0.417274 0.870840 0.053560
O O4 0.645957 0.645957 0.027285
O O5 0.582726 0.870840 0.946440
O O6 0.603452 0.858547 0.638884
O O7 0.603452 0.141453 0.361116
#
# Coordination Sequence:
#
# PCOD9556184 Si02
#       5
#     4   8   4   4   8
#     4  12  28  48  68 102 128 180 236 288 324 406
#     4  10  22  42  68 106 138 180 222 268 328 430
#     4  11  24  41  70 102 136 181 214 279 338 408
#     4  11  24  41  70 102 136 181 214 279 338 408
#     4  12  26  46  72  96 138 176 230 280 344 382
#
# _framework density 20.591438
#
# number of rings (size 3 to 8) (size 9 to 14) (size 15 to 20)
#    0.000    0.857    2.857    3.429    8.000    0.000 
#    0.000    0.000    0.000    0.000    0.000    0.000 
#    0.000    0.000    0.000    0.000    0.000    0.000 
#
# Total GULP energy -155998.418712 kJ/mol
# GULP energy per Si atom -5571.372097 kJ/mol
# Density = 2.054457 g / cm^3
# Si number density = 20.591438 Si / 1000 Ang^3
#
#
#
# Elastic Constant Matrix: (Units=GPa)
#
#
# Indices 1 2 3 4 5 6 
#
# 1 133.7556 92.7374 89.7953 0.0000 0.0000 0.0000
# 2 92.7374 133.7556 89.7953 0.0000 0.0000 0.0000
# 3 89.7953 89.7953 133.4649 0.0000 0.0000 0.0000
# 4 0.0000 0.0000 0.0000 45.5168 0.0000 0.0000
# 5 0.0000 0.0000 0.0000 0.0000 45.5168 0.0000
# 6 0.0000 0.0000 0.0000 0.0000 0.0000 55.1688
#
#
#
# Elastic Compliance Matrix: (Units=1/GPa)
#
#
# Indices 1 2 3 4 5 6 
#
# 1 0.016922 -0.007458 -0.006367 0.000000 0.000000 0.000000
# 2 -0.007458 0.016922 -0.006367 0.000000 0.000000 0.000000
# 3 -0.006367 -0.006367 0.016061 0.000000 0.000000 0.000000
# 4 0.000000 0.000000 0.000000 0.021970 0.000000 0.000000
# 5 0.000000 0.000000 0.000000 0.000000 0.021970 0.000000
# 6 0.000000 0.000000 0.000000 0.000000 0.000000 0.018126
#
#
# Mechanical properties :
#
#
# Convention : Reuss Voigt Hill
#
# Bulk Modulus (GPa) = 105.05291 105.07021 105.06156
# Shear Modulus (GPa) = 32.14861 37.81702 34.98281
#
# Velocity S-wave (km/s) = 3.95557 4.29014 4.12624
# Velocity P-wave (km/s) = 8.48472 8.69927 8.59267
#
# Compressibility (1/GPa) = 0.00951901
#
# Stress axis : x y z
#
# Youngs Moduli (GPa) = 59.09581 59.09581 62.26453
#
# Poissons Ratio (x) = 0.44072 0.39646
# Poissons Ratio (y) = 0.44072 0.39646
# Poissons Ratio (z) = 0.37628 0.37628
#
# Static dielectric constant tensor:
#      x y z
#    x 1.800760 0.000000 0.000000 
#    y 0.000000 1.800760 0.000000 
#    z 0.000000 0.000000 1.749260 
# 
# From -- ./inp_files/2458.got.cif
#   From: 2010.05.17/outbox.cif.g08.bks.cpg/sg114_2_cif.got.tgz:2458.got - 2010.05.20 11:04:54.
