data_PCOD9556157
_publ_section_title
;
Structure prediction by ZEFSAII (Michael W. Deem and Ramdas Pophale) SiO2 
 PCOD9556157
Probable space group: P -4 21 C
;
_chemical_formula_sum "Si O2"
_cell_formula_units_Z 34
_cell_length_a 7.930632
_cell_length_b 7.930632
_cell_length_c 25.123786
_cell_angle_alpha 90.000000
_cell_angle_beta 90.000000
_cell_angle_gamma 90.000000
_cell_volume 1580.158609
_symmetry_space_group_name_H-M "P -4 21 C"
_symmetry_group_IT_number 114
_symmetry_cell_setting 'tetragonal'
loop_
_space_group_symop_operation_xyz
x,y,z
y,-x,-z
-x,-y,z
-y,x,-z
1/2+x,1/2-y,1/2-z
1/2-x,1/2+y,1/2-z
1/2-y,1/2-x,1/2+z
1/2+y,1/2+x,1/2+z
loop_
_atom_site_type_symbol
_atom_site_label
_atom_site_fract_x
_atom_site_fract_y
_atom_site_fract_z
Si Si1 0.500000 0.500000 0.500000
Si Si2 0.334799 0.108179 0.124654
Si Si3 0.619808 0.684978 0.326817
Si Si4 0.683922 0.057385 0.927035
Si Si5 0.313016 0.476819 0.788496
O O1 0.330816 0.510616 0.534701
O O2 0.249762 0.251196 0.086766
O O3 0.398556 0.192082 0.179352
O O4 0.500000 0.000000 0.104561
O O5 0.183879 0.981869 0.141649
O O6 0.536620 0.802555 0.370495
O O7 0.504703 0.679519 0.274494
O O8 0.791731 0.755442 0.302766
O O9 0.500000 0.000000 0.948148
O O10 0.500000 0.500000 0.810049
#
# Coordination Sequence:
#
# PCOD9556157 Si02
#       5
#     2   8   8   8   8
#     4  12  28  52  76 104 140 192 252 324 384 434
#     4  10  22  40  66 100 147 191 233 298 359 440
#     4  11  21  38  62  96 142 187 231 285 359 428
#     4  12  25  47  77 100 134 189 240 305 375 438
#     4  11  21  33  59 101 144 186 231 280 350 444
#
# _framework density 21.516825999999998
#
# number of rings (size 3 to 8) (size 9 to 14) (size 15 to 20)
#    0.000    0.941    2.353    5.647    0.000    3.765 
#    0.000    0.000    0.000    0.000    0.000    0.000 
#    0.000    0.000    0.000    0.000    0.000    0.000 
#
# Total GULP energy -189740.605638 kJ/mol
# GULP energy per Si atom -5580.606048 kJ/mol
# Density = 2.146785 g / cm^3
# Si number density = 21.516826 Si / 1000 Ang^3
#
#
#
# Elastic Constant Matrix: (Units=GPa)
#
#
# Indices 1 2 3 4 5 6 
#
# 1 133.5947 35.5211 35.1309 0.0000 0.0000 0.0000
# 2 35.5211 133.5947 35.1309 0.0000 0.0000 0.0000
# 3 35.1309 35.1309 64.2908 0.0000 0.0000 0.0000
# 4 0.0000 0.0000 0.0000 20.3377 0.0000 0.0000
# 5 0.0000 0.0000 0.0000 0.0000 20.3377 0.0000
# 6 0.0000 0.0000 0.0000 0.0000 0.0000 31.8637
#
#
#
# Elastic Compliance Matrix: (Units=1/GPa)
#
#
# Indices 1 2 3 4 5 6 
#
# 1 0.008923 -0.001273 -0.004180 0.000000 0.000000 0.000000
# 2 -0.001273 0.008923 -0.004180 0.000000 0.000000 0.000000
# 3 -0.004180 -0.004180 0.020123 0.000000 0.000000 0.000000
# 4 0.000000 0.000000 0.000000 0.049170 0.000000 0.000000
# 5 0.000000 0.000000 0.000000 0.000000 0.049170 0.000000
# 6 0.000000 0.000000 0.000000 0.000000 0.000000 0.031384
#
#
# Mechanical properties :
#
#
# Convention : Reuss Voigt Hill
#
# Bulk Modulus (GPa) = 53.47092 60.33844 56.90468
# Shear Modulus (GPa) = 25.88085 29.55433 27.71759
#
# Velocity S-wave (km/s) = 3.47193 3.71016 3.59302
# Velocity P-wave (km/s) = 6.40134 6.81594 6.61189
#
# Compressibility (1/GPa) = 0.01870175
#
# Stress axis : x y z
#
# Youngs Moduli (GPa) = 112.06845 112.06845 49.69509
#
# Poissons Ratio (x) = 0.14270 0.20773
# Poissons Ratio (y) = 0.14270 0.20773
# Poissons Ratio (z) = 0.46846 0.46846
#
# Static dielectric constant tensor:
#      x y z
#    x 1.832570 0.000000 0.000000 
#    y 0.000000 1.832570 0.000000 
#    z 0.000000 0.000000 1.736920 
# 
# From -- ./inp_files/2976.got.cif
#   From: 2010.05.17/outbox.cif.g08.bks.cpg/sg114_2_cif.got.tgz:2976.got - 2010.05.20 11:04:54.
