data_PCOD9556789
_publ_section_title
;
Structure prediction by ZEFSAII (Michael W. Deem and Ramdas Pophale) SiO2 
 PCOD9556789
Probable space group: P -4 M 2
;
_chemical_formula_sum "Si O2"
_cell_formula_units_Z 44
_cell_length_a 9.254963
_cell_length_b 9.254963
_cell_length_c 29.400743
_cell_angle_alpha 90.000000
_cell_angle_beta 90.000000
_cell_angle_gamma 90.000000
_cell_volume 2518.301241
_symmetry_space_group_name_H-M "P -4 M 2"
_symmetry_group_IT_number 115
_symmetry_cell_setting 'tetragonal'
loop_
_space_group_symop_operation_xyz
x,y,z
y,-x,-z
-x,-y,z
-y,x,-z
y,x,-z
-y,-x,-z
-x,y,z
x,-y,z
loop_
_atom_site_type_symbol
_atom_site_label
_atom_site_fract_x
_atom_site_fract_y
_atom_site_fract_z
Si Si1 0.675894 0.666741 0.867260
Si Si2 0.830817 0.674098 0.676017
Si Si3 0.826795 0.670108 0.406883
Si Si4 0.324074 0.666790 0.232941
Si Si5 0.828532 0.171469 0.500000
Si Si6 0.326758 0.829589 0.958470
O O1 0.500000 0.666084 0.865795
O O2 0.722064 0.500000 0.873429
O O3 0.720661 0.720783 0.817167
O O4 0.719950 0.761124 0.910286
O O5 0.815851 0.500000 0.672849
O O6 0.747742 0.747365 0.634528
O O7 0.761920 0.720136 0.724202
O O8 0.000000 0.709388 0.674325
O O9 0.794832 0.500000 0.407011
O O10 0.785524 0.741751 0.455002
O O11 0.000000 0.688592 0.401969
O O12 0.500000 0.665953 0.231514
O O13 0.277942 0.500000 0.239227
O O14 0.000000 0.193906 0.507807
O O15 0.500000 0.807513 0.962570
O O16 0.298594 0.000000 0.959123
O O17 0.248738 0.751263 0.000000
#
# Coordination Sequence:
#
# PCOD9556789 Si02
#       6
#     8   8   8   8   4   8
#     4   8  14  27  49  73  95 124 164 208 250 292
#     4  10  20  33  51  76 105 137 171 206 246 293
#     4  10  21  36  54  77 104 134 169 208 250 297
#     4   8  14  27  48  72  98 129 165 206 251 294
#     4   9  18  34  54  73  98 134 170 205 248 297
#     4  10  20  33  50  73 100 131 167 205 248 298
#
# _framework density 17.472097000000002
#
# number of rings (size 3 to 8) (size 9 to 14) (size 15 to 20)
#    0.000    2.818    0.000    2.727    0.000    4.000 
#    0.000    3.636    0.000    6.545    0.000    0.000 
#    0.000    0.000    0.000    0.000    0.000    0.000 
#
# Total GULP energy -245316.783905 kJ/mol
# GULP energy per Si atom -5575.381452 kJ/mol
# Density = 1.743233 g / cm^3
# Si number density = 17.472097 Si / 1000 Ang^3
#
#
#
# Elastic Constant Matrix: (Units=GPa)
#
#
# Indices 1 2 3 4 5 6 
#
# 1 57.2480 47.8277 82.3765 0.0000 0.0000 0.0000
# 2 47.8277 57.2497 82.3775 0.0000 0.0000 0.0000
# 3 82.3765 82.3775 222.0872 0.0000 0.0000 0.0000
# 4 0.0000 0.0000 0.0000 -32.7192 0.0000 0.0000
# 5 0.0000 0.0000 0.0000 0.0000 -32.7223 0.0000
# 6 0.0000 0.0000 0.0000 0.0000 0.0000 19.2782
#
#
#
# Elastic Compliance Matrix: (Units=1/GPa)
#
#
# Indices 1 2 3 4 5 6 
#
# 1 0.064446 -0.041700 -0.008437 0.000000 0.000000 0.000000
# 2 -0.041700 0.064443 -0.008436 0.000000 0.000000 0.000000
# 3 -0.008437 -0.008436 0.010761 0.000000 0.000000 0.000000
# 4 0.000000 0.000000 0.000000 -0.030563 0.000000 0.000000
# 5 0.000000 0.000000 0.000000 0.000000 -0.030560 0.000000
# 6 0.000000 0.000000 0.000000 0.000000 0.000000 0.051872
#
#
# Mechanical properties :
#
#
# Convention : Reuss Voigt Hill
#
# Bulk Modulus (GPa) = 44.43468 84.63868 64.53668
# Shear Modulus (GPa) = 19.60425 -0.96578 9.31924
#
# Velocity S-wave (km/s) = 3.35331 -0.74428 2.31200
# Velocity P-wave (km/s) = 6.36238 6.91439 6.64412
#
# Compressibility (1/GPa) = 0.02250494
#
# Stress axis : x y z
#
# Youngs Moduli (GPa) = 15.51691 15.51749 92.92478
#
# Poissons Ratio (x) = 0.64707 0.78399
# Poissons Ratio (y) = 0.64705 0.78395
# Poissons Ratio (z) = 0.13091 0.13091
#
# Static dielectric constant tensor:
#      x y z
#    x 1.581180 0.000000 0.000000 
#    y 0.000000 1.581190 0.000000 
#    z 0.000000 0.000000 1.588150 
# 
# From -- ./inp_files/5725.got.cif
#   From: 2010.05.17/outbox.cif.g08.bks.cpg/sg115_3_cif.got.tgz:5725.got - 2010.05.20 11:07:42.
