data_PCOD9556703
_publ_section_title
;
Structure prediction by ZEFSAII (Michael W. Deem and Ramdas Pophale) SiO2 
 PCOD9556703
Probable space group: P -4 M 2
;
_chemical_formula_sum "Si O2"
_cell_formula_units_Z 37
_cell_length_a 7.989916
_cell_length_b 7.989916
_cell_length_c 27.960647
_cell_angle_alpha 90.000000
_cell_angle_beta 90.000000
_cell_angle_gamma 90.000000
_cell_volume 1784.972969
_symmetry_space_group_name_H-M "P -4 M 2"
_symmetry_group_IT_number 115
_symmetry_cell_setting 'tetragonal'
loop_
_space_group_symop_operation_xyz
x,y,z
y,-x,-z
-x,-y,z
-y,x,-z
y,x,-z
-y,-x,-z
-x,y,z
x,-y,z
loop_
_atom_site_type_symbol
_atom_site_label
_atom_site_fract_x
_atom_site_fract_y
_atom_site_fract_z
Si Si1 0.500000 0.500000 0.000000
Si Si2 0.800602 0.812484 0.450033
Si Si3 0.295424 0.803087 0.858866
Si Si4 0.500000 0.192216 0.073063
Si Si5 0.311832 0.700046 0.348584
Si Si6 0.200462 0.308131 0.246822
O O1 0.500000 0.333285 0.032257
O O2 0.734056 0.734056 0.500000
O O3 0.778793 0.733037 0.398347
O O4 0.000000 0.820274 0.458052
O O5 0.731327 0.000000 0.445217
O O6 0.500000 0.794105 0.859625
O O7 0.224342 0.667106 0.895310
O O8 0.235856 0.755225 0.804992
O O9 0.252980 0.000000 0.867870
O O10 0.500000 0.000000 0.055913
O O11 0.500000 0.758702 0.355390
O O12 0.307922 0.500000 0.343144
O O13 0.249455 0.770157 0.297668
O O14 0.265961 0.500000 0.246036
O O15 0.000000 0.316795 0.246834
#
# Coordination Sequence:
#
# PCOD9556703 Si02
#       6
#     1   8   8   4   8   8
#     4  12  28  52  68 104 140 188 228 272 334 372
#     4   9  19  36  54  68  87 127 183 235 287 348
#     4   9  18  37  67  99 132 173 221 271 325 385
#     4  12  26  44  72 104 136 178 228 275 325 386
#     4  10  20  31  47  78 112 141 177 226 284 350
#     4   8  15  29  53  84 115 153 196 236 287 353
#
# _framework density 20.728605000000002
#
# number of rings (size 3 to 8) (size 9 to 14) (size 15 to 20)
#    0.000    2.595    1.081    2.595    1.514    3.892 
#    0.000    4.324    0.000    1.297    0.000    0.000 
#    0.000    0.000    0.000    0.000    0.000    0.000 
#
# Total GULP energy -206018.132791 kJ/mol
# GULP energy per Si atom -5568.057643 kJ/mol
# Density = 2.068143 g / cm^3
# Si number density = 20.728605 Si / 1000 Ang^3
#
#
#
# Elastic Constant Matrix: (Units=GPa)
#
#
# Indices 1 2 3 4 5 6 
#
# 1 57.6035 24.0727 55.6860 0.0000 0.0000 0.0000
# 2 24.0727 57.6035 55.6860 0.0000 0.0000 0.0000
# 3 55.6860 55.6860 175.5598 0.0000 0.0000 0.0000
# 4 0.0000 0.0000 0.0000 25.0818 0.0000 0.0000
# 5 0.0000 0.0000 0.0000 0.0000 25.0818 0.0000
# 6 0.0000 0.0000 0.0000 0.0000 0.0000 14.4800
#
#
#
# Elastic Compliance Matrix: (Units=1/GPa)
#
#
# Indices 1 2 3 4 5 6 
#
# 1 0.025699 -0.004124 -0.006843 0.000000 0.000000 0.000000
# 2 -0.004124 0.025699 -0.006843 0.000000 0.000000 0.000000
# 3 -0.006843 -0.006843 0.010037 0.000000 0.000000 0.000000
# 4 0.000000 0.000000 0.000000 0.039870 0.000000 0.000000
# 5 0.000000 0.000000 0.000000 0.000000 0.039870 0.000000
# 6 0.000000 0.000000 0.000000 0.000000 0.000000 0.069061
#
#
# Mechanical properties :
#
#
# Convention : Reuss Voigt Hill
#
# Bulk Modulus (GPa) = 38.73903 62.40625 50.57264
# Shear Modulus (GPa) = 19.64929 23.28352 21.46641
#
# Velocity S-wave (km/s) = 3.08219 3.35514 3.22155
# Velocity P-wave (km/s) = 5.60319 6.72168 6.18776
#
# Compressibility (1/GPa) = 0.02581376
#
# Stress axis : x y z
#
# Youngs Moduli (GPa) = 38.91180 38.91180 99.62756
#
# Poissons Ratio (x) = 0.16048 0.68179
# Poissons Ratio (y) = 0.16048 0.68179
# Poissons Ratio (z) = 0.26629 0.26629
#
# Static dielectric constant tensor:
#      x y z
#    x 1.759470 0.000000 0.000000 
#    y 0.000000 1.759470 0.000000 
#    z 0.000000 0.000000 1.824240 
# 
# From -- ./inp_files/5183.got.cif
#   From: 2010.05.17/outbox.cif.g08.bks.cpg/sg115_3_cif.got.tgz:5183.got - 2010.05.20 11:07:42.
