data_PCOD9556101
_publ_section_title
;
Structure prediction by ZEFSAII (Michael W. Deem and Ramdas Pophale) SiO2 
 PCOD9556101
Probable space group: P -4 21 C
;
_chemical_formula_sum "Si O2"
_cell_formula_units_Z 56
_cell_length_a 13.732685
_cell_length_b 13.732685
_cell_length_c 13.578125
_cell_angle_alpha 90.000000
_cell_angle_beta 90.000000
_cell_angle_gamma 90.000000
_cell_volume 2560.652935
_symmetry_space_group_name_H-M "P -4 21 C"
_symmetry_group_IT_number 114
_symmetry_cell_setting 'tetragonal'
loop_
_space_group_symop_operation_xyz
x,y,z
y,-x,-z
-x,-y,z
-y,x,-z
1/2+x,1/2-y,1/2-z
1/2-x,1/2+y,1/2-z
1/2-y,1/2-x,1/2+z
1/2+y,1/2+x,1/2+z
loop_
_atom_site_type_symbol
_atom_site_label
_atom_site_fract_x
_atom_site_fract_y
_atom_site_fract_z
Si Si1 0.740730 0.964405 0.478855
Si Si2 0.321570 0.325325 0.663336
Si Si3 0.694694 0.630510 0.884038
Si Si4 0.951296 0.341717 0.060291
Si Si5 0.602607 0.137993 0.827652
Si Si6 0.180343 0.832704 0.070250
Si Si7 0.007603 0.288561 0.854199
O O1 0.831327 0.898480 0.445598
O O2 0.643818 0.897737 0.479194
O O3 0.763353 0.030291 0.573077
O O4 0.708023 0.037208 0.393241
O O5 0.334192 0.380098 0.768638
O O6 0.206786 0.310070 0.669315
O O7 0.333376 0.356427 0.547303
O O8 0.396938 0.236451 0.671695
O O9 0.772171 0.719595 0.905183
O O10 0.908412 0.238931 0.096684
O O11 0.026958 0.387632 0.135881
O O12 0.015287 0.328850 0.963404
O O13 0.555686 0.139408 0.721280
O O14 0.189394 0.929210 0.136124
#
# Coordination Sequence:
#
# PCOD9556101 Si02
#       7
#     8   8   8   8   8   8   8
#     4  11  24  45  69  98 141 186 234 295 362 437
#     4  11  22  40  72 104 135 195 235 286 376 425
#     4  11  22  43  70  98 139 193 230 292 364 428
#     4  10  24  44  68 108 138 186 236 298 372 414
#     4  12  22  43  69 102 142 179 242 297 357 433
#     4  10  21  42  72  97 146 186 231 299 362 426
#     4  11  22  43  75 101 141 187 244 294 359 449
#
# _framework density 21.869422
#
# number of rings (size 3 to 8) (size 9 to 14) (size 15 to 20)
#    0.000    1.143    5.714    0.429    0.000    0.286 
#    5.143    3.571    3.143    0.000    0.000    0.000 
#    0.000    0.000    0.000    0.000    0.000    0.000 
#
# Total GULP energy -312135.841053 kJ/mol
# GULP energy per Si atom -5573.854305 kJ/mol
# Density = 2.181965 g / cm^3
# Si number density = 21.869422 Si / 1000 Ang^3
#
#
#
# Elastic Constant Matrix: (Units=GPa)
#
#
# Indices 1 2 3 4 5 6 
#
# 1 -1414.9220 1530.4272 24.6876 0.0000 0.0000 0.0000
# 2 1530.4272-1414.9220 24.6876 0.0000 0.0000 0.0000
# 3 24.6876 24.6876 71.4040 0.0000 0.0000 0.0000
# 4 0.0000 0.0000 0.0000 72.8866 0.0000 0.0000
# 5 0.0000 0.0000 0.0000 0.0000 72.8866 0.0000
# 6 0.0000 0.0000 0.0000 0.0000 0.0000 -27.2078
#
#
#
# Elastic Compliance Matrix: (Units=1/GPa)
#
#
# Indices 1 2 3 4 5 6 
#
# 1 0.004910 0.005249 -0.003512 0.000000 0.000000 0.000000
# 2 0.005249 0.004910 -0.003512 0.000000 0.000000 0.000000
# 3 -0.003512 -0.003512 0.016434 0.000000 0.000000 0.000000
# 4 0.000000 0.000000 0.000000 0.013720 0.000000 0.000000
# 5 0.000000 0.000000 0.000000 0.000000 0.013720 0.000000
# 6 0.000000 0.000000 0.000000 0.000000 0.000000 -0.036754
#
#
# Mechanical properties :
#
#
# Convention : Reuss Voigt Hill
#
# Bulk Modulus (GPa) = 44.04900 44.57389 44.31144
# Shear Modulus (GPa) = 178.20488 -265.50311 -43.64911
#
# Velocity S-wave (km/s) = 9.03675 -11.03029 -4.47239
# Velocity P-wave (km/s) = 11.36086 11.90786 2.52268
#
# Compressibility (1/GPa) = 0.02270199
#
# Stress axis : x y z
#
# Youngs Moduli (GPa) = 203.67468 203.67468 60.85076
#
# Poissons Ratio (x) = -1.06915 0.21374
# Poissons Ratio (y) = -1.06915 0.21374
# Poissons Ratio (z) = 0.71540 0.71540
#
# Static dielectric constant tensor:
#      x y z
#    x 1.876890 0.000000 0.000000 
#    y 0.000000 1.876890 0.000000 
#    z 0.000000 0.000000 1.829430 
# 
# From -- ./inp_files/1751.got.cif
#   From: 2010.05.17/outbox.cif.g08.bks.cpg/sg114_1_cif.got.tgz:1751.got - 2010.05.20 11:04:54.
