data_PCOD9556568
_publ_section_title
;
Structure prediction by ZEFSAII (Michael W. Deem and Ramdas Pophale) SiO2 
 PCOD9556568
Probable space group: P -4 M 2
;
_chemical_formula_sum "Si O2"
_cell_formula_units_Z 24
_cell_length_a 7.468756
_cell_length_b 7.468756
_cell_length_c 20.105608
_cell_angle_alpha 90.000000
_cell_angle_beta 90.000000
_cell_angle_gamma 90.000000
_cell_volume 1121.537383
_symmetry_space_group_name_H-M "P -4 M 2"
_symmetry_group_IT_number 115
_symmetry_cell_setting 'tetragonal'
loop_
_space_group_symop_operation_xyz
x,y,z
y,-x,-z
-x,-y,z
-y,x,-z
y,x,-z
-y,-x,-z
-x,y,z
x,-y,z
loop_
_atom_site_type_symbol
_atom_site_label
_atom_site_fract_x
_atom_site_fract_y
_atom_site_fract_z
Si Si1 0.208807 0.282063 0.717937
Si Si2 0.208906 0.500000 0.022863
Si Si3 0.500000 0.718572 0.822916
Si Si4 0.199672 0.712118 0.574621
O O1 0.215358 0.500000 0.719812
O O2 0.329404 0.223598 0.779119
O O3 0.280362 0.223153 0.644687
O O4 0.000000 0.231391 0.723052
O O5 0.210343 0.500000 0.102851
O O6 0.000000 0.500000 0.999735
O O7 0.326256 0.673745 0.000000
O O8 0.500000 0.500000 0.827678
O O9 0.268863 0.731138 0.500000
O O10 0.190765 0.500000 0.583836
O O11 0.000000 0.787335 0.572792
#
# Coordination Sequence:
#
# PCOD9556568 Si02
#       4
#     8   4   4   8
#     4   8  16  30  50  80 117 154 199 257 313 365
#     4  11  25  48  73 107 144 180 223 272 332 407
#     4  10  18  35  63  92 119 160 212 257 314 388
#     4   9  18  31  46  70 104 145 196 248 301 360
#
# _framework density 21.399197000000001
#
# number of rings (size 3 to 8) (size 9 to 14) (size 15 to 20)
#    0.000    2.833    1.667    2.000    2.333    2.333 
#    0.000    1.667    0.000    2.000    0.000    0.000 
#    0.000    0.000    0.000    0.000    0.000    0.000 
#
# Total GULP energy -133627.809357 kJ/mol
# GULP energy per Si atom -5567.825390 kJ/mol
# Density = 2.135049 g / cm^3
# Si number density = 21.399197 Si / 1000 Ang^3
#
#
#
# Elastic Constant Matrix: (Units=GPa)
#
#
# Indices 1 2 3 4 5 6 
#
# 1 103.3512 25.0281 42.8318 0.0000 0.0000 0.0000
# 2 25.0281 103.3509 42.8321 0.0000 0.0000 0.0000
# 3 42.8318 42.8321 194.1534 0.0000 0.0000 0.0000
# 4 0.0000 0.0000 0.0000 26.9171 0.0000 0.0000
# 5 0.0000 0.0000 0.0000 0.0000 26.9177 0.0000
# 6 0.0000 0.0000 0.0000 0.0000 0.0000 19.1674
#
#
#
# Elastic Compliance Matrix: (Units=1/GPa)
#
#
# Indices 1 2 3 4 5 6 
#
# 1 0.010951 -0.001817 -0.002015 0.000000 0.000000 0.000000
# 2 -0.001817 0.010951 -0.002015 0.000000 0.000000 0.000000
# 3 -0.002015 -0.002015 0.006040 0.000000 0.000000 0.000000
# 4 0.000000 0.000000 0.000000 0.037151 0.000000 0.000000
# 5 0.000000 0.000000 0.000000 0.000000 0.037150 0.000000
# 6 0.000000 0.000000 0.000000 0.000000 0.000000 0.052172
#
#
# Mechanical properties :
#
#
# Convention : Reuss Voigt Hill
#
# Bulk Modulus (GPa) = 61.54800 69.13774 65.34287
# Shear Modulus (GPa) = 29.15039 33.94467 31.54753
#
# Velocity S-wave (km/s) = 3.69483 3.98711 3.84375
# Velocity P-wave (km/s) = 6.85760 7.31948 7.09230
#
# Compressibility (1/GPa) = 0.01624748
#
# Stress axis : x y z
#
# Youngs Moduli (GPa) = 91.31747 91.31707 165.57282
#
# Poissons Ratio (x) = 0.16591 0.33363
# Poissons Ratio (y) = 0.16591 0.33364
# Poissons Ratio (z) = 0.18401 0.18401
#
# Static dielectric constant tensor:
#      x y z
#    x 1.812780 0.000000 0.000000 
#    y 0.000000 1.812780 0.000000 
#    z 0.000000 0.000000 1.793880 
# 
# From -- ./inp_files/3980.got.cif
#   From: 2010.05.17/outbox.cif.g08.bks.cpg/sg115_2_cif.got.tgz:3980.got - 2010.05.20 11:07:42.
