data_PCOD9556352
_publ_section_title
;
Structure prediction by ZEFSAII (Michael W. Deem and Ramdas Pophale) SiO2 
 PCOD9556352
Probable space group: P -4 21 C
;
_chemical_formula_sum "Si O2"
_cell_formula_units_Z 56
_cell_length_a 14.121399
_cell_length_b 14.121399
_cell_length_c 13.759389
_cell_angle_alpha 90.000000
_cell_angle_beta 90.000000
_cell_angle_gamma 90.000000
_cell_volume 2743.813556
_symmetry_space_group_name_H-M "P -4 21 C"
_symmetry_group_IT_number 114
_symmetry_cell_setting 'tetragonal'
loop_
_space_group_symop_operation_xyz
x,y,z
y,-x,-z
-x,-y,z
-y,x,-z
1/2+x,1/2-y,1/2-z
1/2-x,1/2+y,1/2-z
1/2-y,1/2-x,1/2+z
1/2+y,1/2+x,1/2+z
loop_
_atom_site_type_symbol
_atom_site_label
_atom_site_fract_x
_atom_site_fract_y
_atom_site_fract_z
Si Si1 0.239360 0.918498 0.894846
Si Si2 0.564575 0.150422 0.199844
Si Si3 0.815253 0.580060 0.026479
Si Si4 0.383853 0.221119 0.881631
Si Si5 0.891771 0.238886 0.993755
Si Si6 0.358576 0.053798 0.190025
Si Si7 0.592847 0.386121 0.009073
O O1 0.268059 0.923742 0.780766
O O2 0.163917 0.841381 0.933204
O O3 0.341755 0.888409 0.939250
O O4 0.208685 0.018684 0.940953
O O5 0.577359 0.185735 0.090091
O O6 0.460351 0.103473 0.202674
O O7 0.632656 0.058448 0.212862
O O8 0.707517 0.608101 0.054394
O O9 0.830464 0.475437 0.069355
O O10 0.393815 0.205624 0.768531
O O11 0.388734 0.330738 0.906947
O O12 0.291301 0.179342 0.932402
O O13 0.929254 0.315711 0.915801
O O14 0.485014 0.388783 0.045418
#
# Coordination Sequence:
#
# PCOD9556352 Si02
#       7
#     8   8   8   8   8   8   8
#     4  12  26  44  67  94 137 186 224 274 338 409
#     4  11  23  39  67 104 131 167 222 286 349 398
#     4  11  21  39  67  97 132 170 217 282 343 396
#     4  11  21  39  67  97 132 170 217 282 343 396
#     4  12  26  44  67  94 137 186 224 274 338 409
#     4  11  23  39  67 104 131 167 222 286 349 398
#     4   9  20  38  64  92 127 166 214 270 333 400
#
# _framework density 20.409549999999999
#
# number of rings (size 3 to 8) (size 9 to 14) (size 15 to 20)
#    0.000    1.000    7.143    0.000    2.000    0.857 
#    0.000    0.000   15.714    0.000    0.000    0.000 
#    0.000    0.000    0.000    0.000    0.000    0.000 
#
# Total GULP energy -312561.656825 kJ/mol
# GULP energy per Si atom -5581.458158 kJ/mol
# Density = 2.036310 g / cm^3
# Si number density = 20.409550 Si / 1000 Ang^3
#
#
#
# Elastic Constant Matrix: (Units=GPa)
#
#
# Indices 1 2 3 4 5 6 
#
# 1 64.5506 10.2513 -3.6306 0.0000 0.0000 0.0000
# 2 10.2513 64.5506 -3.6306 0.0000 0.0000 0.0000
# 3 -3.6306 -3.6306 69.5935 0.0000 0.0000 0.0000
# 4 0.0000 0.0000 0.0000 16.6111 0.0000 0.0000
# 5 0.0000 0.0000 0.0000 0.0000 16.6111 0.0000
# 6 0.0000 0.0000 0.0000 0.0000 0.0000 21.8849
#
#
#
# Elastic Compliance Matrix: (Units=1/GPa)
#
#
# Indices 1 2 3 4 5 6 
#
# 1 0.015927 -0.002490 0.000701 0.000000 0.000000 0.000000
# 2 -0.002490 0.015927 0.000701 0.000000 0.000000 0.000000
# 3 0.000701 0.000701 0.014442 0.000000 0.000000 0.000000
# 4 0.000000 0.000000 0.000000 0.060201 0.000000 0.000000
# 5 0.000000 0.000000 0.000000 0.000000 0.060201 0.000000
# 6 0.000000 0.000000 0.000000 0.000000 0.000000 0.045694
#
#
# Mechanical properties :
#
#
# Convention : Reuss Voigt Hill
#
# Bulk Modulus (GPa) = 22.66569 22.74167 22.70368
# Shear Modulus (GPa) = 21.80806 24.06839 22.93822
#
# Velocity S-wave (km/s) = 3.27237 3.43778 3.35609
# Velocity P-wave (km/s) = 5.04058 5.18889 5.11527
#
# Compressibility (1/GPa) = 0.04411954
#
# Stress axis : x y z
#
# Youngs Moduli (GPa) = 62.78821 62.78821 69.24106
#
# Poissons Ratio (x) = 0.15633 -0.04854
# Poissons Ratio (y) = 0.15633 -0.04854
# Poissons Ratio (z) = -0.04401 -0.04401
#
# Static dielectric constant tensor:
#      x y z
#    x 1.762620 0.000000 0.000000 
#    y 0.000000 1.762620 0.000000 
#    z 0.000000 0.000000 1.704220 
# 
# From -- ./inp_files/2236.got.cif
#   From: 2010.05.17/outbox.cif.g08.bks.cpg/sg114_2_cif.got.tgz:2236.got - 2010.05.20 11:04:54.
