data_PCOD9556836
_publ_section_title
;
Structure prediction by ZEFSAII (Michael W. Deem and Ramdas Pophale) SiO2 
 PCOD9556836
Probable space group: P -4 M 2
;
_chemical_formula_sum "Si O2"
_cell_formula_units_Z 44
_cell_length_a 9.238676
_cell_length_b 9.238676
_cell_length_c 29.433872
_cell_angle_alpha 90.000000
_cell_angle_beta 90.000000
_cell_angle_gamma 90.000000
_cell_volume 2512.273228
_symmetry_space_group_name_H-M "P -4 M 2"
_symmetry_group_IT_number 115
_symmetry_cell_setting 'tetragonal'
loop_
_space_group_symop_operation_xyz
x,y,z
y,-x,-z
-x,-y,z
-y,x,-z
y,x,-z
-y,-x,-z
-x,y,z
x,-y,z
loop_
_atom_site_type_symbol
_atom_site_label
_atom_site_fract_x
_atom_site_fract_y
_atom_site_fract_z
Si Si1 0.828655 0.826925 0.232911
Si Si2 0.169164 0.325581 0.959078
Si Si3 0.673887 0.670760 0.316295
Si Si4 0.833472 0.323800 0.591793
Si Si5 0.333002 0.823904 0.141658
Si Si6 0.327431 0.672570 0.500000
O O1 0.750785 0.744713 0.273740
O O2 0.763032 0.780164 0.184363
O O3 0.000000 0.802667 0.233953
O O4 0.802574 0.000000 0.237592
O O5 0.176976 0.500000 0.960402
O O6 0.222256 0.282117 0.908523
O O7 0.000000 0.284900 0.963389
O O8 0.257335 0.257335 0.000000
O O9 0.500000 0.689454 0.311979
O O10 0.703907 0.500000 0.318116
O O11 0.720766 0.746970 0.363223
O O12 0.832033 0.500000 0.591567
O O13 0.755727 0.279040 0.545222
O O14 0.000000 0.276548 0.593582
O O15 0.500000 0.778494 0.148384
O O16 0.333277 0.000000 0.140205
O O17 0.500000 0.694675 0.506225
#
# Coordination Sequence:
#
# PCOD9556836 Si02
#       6
#     8   8   8   8   8   4
#     4  10  20  33  51  76 103 130 163 205 253 302
#     4   9  18  32  50  74 102 131 166 206 247 294
#     4  10  20  34  53  76 101 132 171 210 248 294
#     4   9  17  30  50  75 100 128 165 206 246 291
#     4   8  15  30  51  72  96 129 168 207 245 290
#     4   9  16  28  48  73 100 128 160 201 246 290
#
# _framework density 17.514016999999999
#
# number of rings (size 3 to 8) (size 9 to 14) (size 15 to 20)
#    0.000    2.818    0.000    2.727    0.000    5.455 
#    0.000    3.636    0.000    4.636    0.000    0.000 
#    0.000    0.000    0.000    0.000    0.000    0.000 
#
# Total GULP energy -245309.031407 kJ/mol
# GULP energy per Si atom -5575.205259 kJ/mol
# Density = 1.747415 g / cm^3
# Si number density = 17.514017 Si / 1000 Ang^3
#
#
#
# Elastic Constant Matrix: (Units=GPa)
#
#
# Indices 1 2 3 4 5 6 
#
# 1 52.1318 46.3149 77.0563 0.0000 0.0000 0.0000
# 2 46.3149 52.1314 77.0563 0.0000 0.0000 0.0000
# 3 77.0563 77.0563 219.9953 0.0000 0.0000 0.0000
# 4 0.0000 0.0000 0.0000 40.5157 0.0000 0.0000
# 5 0.0000 0.0000 0.0000 0.0000 40.5146 0.0000
# 6 0.0000 0.0000 0.0000 0.0000 0.0000 19.5124
#
#
#
# Elastic Compliance Matrix: (Units=1/GPa)
#
#
# Indices 1 2 3 4 5 6 
#
# 1 0.097203 -0.074715 -0.007877 0.000000 0.000000 0.000000
# 2 -0.074715 0.097205 -0.007877 0.000000 0.000000 0.000000
# 3 -0.007877 -0.007877 0.010064 0.000000 0.000000 0.000000
# 4 0.000000 0.000000 0.000000 0.024682 0.000000 0.000000
# 5 0.000000 0.000000 0.000000 0.000000 0.024682 0.000000
# 6 0.000000 0.000000 0.000000 0.000000 0.000000 0.051250
#
#
# Mechanical properties :
#
#
# Convention : Reuss Voigt Hill
#
# Bulk Modulus (GPa) = 42.49316 80.56817 61.53066
# Shear Modulus (GPa) = 10.12415 28.36394 19.24404
#
# Velocity S-wave (km/s) = 2.40690 4.02867 3.31838
# Velocity P-wave (km/s) = 5.66032 8.23056 7.06334
#
# Compressibility (1/GPa) = 0.02353320
#
# Stress axis : x y z
#
# Youngs Moduli (GPa) = 10.28771 10.28754 99.36795
#
# Poissons Ratio (x) = 0.76864 0.78269
# Poissons Ratio (y) = 0.76865 0.78275
# Poissons Ratio (z) = 0.08103 0.08104
#
# Static dielectric constant tensor:
#      x y z
#    x 1.584520 0.000000 0.000000 
#    y 0.000000 1.584520 0.000000 
#    z 0.000000 0.000000 1.586690 
# 
# From -- ./inp_files/5719.got.cif
#   From: 2010.05.17/outbox.cif.g08.bks.cpg/sg115_3_cif.got.tgz:5719.got - 2010.05.20 11:07:42.
