data_PCOD9556357
_publ_section_title
;
Structure prediction by ZEFSAII (Michael W. Deem and Ramdas Pophale) SiO2 
 PCOD9556357
Probable space group: P -4 21 C
;
_chemical_formula_sum "Si O2"
_cell_formula_units_Z 48
_cell_length_a 9.331136
_cell_length_b 9.331136
_cell_length_c 28.469506
_cell_angle_alpha 90.000000
_cell_angle_beta 90.000000
_cell_angle_gamma 90.000000
_cell_volume 2478.842707
_symmetry_space_group_name_H-M "P -4 21 C"
_symmetry_group_IT_number 114
_symmetry_cell_setting 'tetragonal'
loop_
_space_group_symop_operation_xyz
x,y,z
y,-x,-z
-x,-y,z
-y,x,-z
1/2+x,1/2-y,1/2-z
1/2-x,1/2+y,1/2-z
1/2-y,1/2-x,1/2+z
1/2+y,1/2+x,1/2+z
loop_
_atom_site_type_symbol
_atom_site_label
_atom_site_fract_x
_atom_site_fract_y
_atom_site_fract_z
Si Si1 0.594293 0.370650 0.787478
Si Si2 0.495413 0.829028 0.372469
Si Si3 0.881112 0.391795 0.729259
Si Si4 0.161833 0.501088 0.962099
Si Si5 0.768983 0.347595 0.057842
Si Si6 0.824393 0.137809 0.392498
O O1 0.500000 0.500000 0.767137
O O2 0.745320 0.350381 0.760926
O O3 0.483936 0.238327 0.786003
O O4 0.631174 0.398461 0.841846
O O5 0.537506 0.814837 0.318022
O O6 0.614661 0.772730 0.408312
O O7 0.332378 0.792293 0.383572
O O8 0.500000 0.000000 0.380792
O O9 0.000000 0.500000 0.751153
O O10 0.234217 0.344935 0.961693
O O11 0.265913 0.592996 0.929308
O O12 0.000000 0.500000 0.944012
O O13 0.161207 0.571532 0.013654
O O14 0.693563 0.476148 0.087453
#
# Coordination Sequence:
#
# PCOD9556357 Si02
#       6
#     8   8   8   8   8   8
#     4  12  24  39  67  97 129 166 218 273 327 382
#     4   9  19  41  67  84 120 171 210 245 317 393
#     4  11  22  44  64  92 126 172 218 262 325 400
#     4  12  25  39  63 101 128 160 215 271 313 371
#     4  11  21  41  68  90 125 168 211 255 313 384
#     4  11  22  42  67  92 124 171 214 258 315 385
#
# _framework density 19.363873999999999
#
# number of rings (size 3 to 8) (size 9 to 14) (size 15 to 20)
#    0.000    1.000    6.667    4.000    0.000    0.667 
#    3.000    0.833    0.000    0.000    0.000    0.000 
#    0.000    0.000    0.000    0.000    0.000    0.000 
#
# Total GULP energy -267862.351942 kJ/mol
# GULP energy per Si atom -5580.465665 kJ/mol
# Density = 1.931980 g / cm^3
# Si number density = 19.363874 Si / 1000 Ang^3
#
#
#
# Elastic Constant Matrix: (Units=GPa)
#
#
# Indices 1 2 3 4 5 6 
#
# 1 62.0077 11.4401 10.7919 0.0000 0.0000 0.0000
# 2 11.4401 62.0077 10.7919 0.0000 0.0000 0.0000
# 3 10.7919 10.7919 73.0562 0.0000 0.0000 0.0000
# 4 0.0000 0.0000 0.0000 19.0906 0.0000 0.0000
# 5 0.0000 0.0000 0.0000 0.0000 19.0906 0.0000
# 6 0.0000 0.0000 0.0000 0.0000 0.0000 11.8487
#
#
#
# Elastic Compliance Matrix: (Units=1/GPa)
#
#
# Indices 1 2 3 4 5 6 
#
# 1 0.017004 -0.002771 -0.002102 0.000000 0.000000 0.000000
# 2 -0.002771 0.017004 -0.002102 0.000000 0.000000 0.000000
# 3 -0.002102 -0.002102 0.014309 0.000000 0.000000 0.000000
# 4 0.000000 0.000000 0.000000 0.052382 0.000000 0.000000
# 5 0.000000 0.000000 0.000000 0.000000 0.052382 0.000000
# 6 0.000000 0.000000 0.000000 0.000000 0.000000 0.084397
#
#
# Mechanical properties :
#
#
# Convention : Reuss Voigt Hill
#
# Bulk Modulus (GPa) = 29.09922 29.23549 29.16735
# Shear Modulus (GPa) = 19.01964 20.94250 19.98107
#
# Velocity S-wave (km/s) = 3.13744 3.29222 3.21576
# Velocity P-wave (km/s) = 5.30895 5.43897 5.37435
#
# Compressibility (1/GPa) = 0.03436519
#
# Stress axis : x y z
#
# Youngs Moduli (GPa) = 58.80891 58.80891 69.88489
#
# Poissons Ratio (x) = 0.16298 0.14693
# Poissons Ratio (y) = 0.16298 0.14693
# Poissons Ratio (z) = 0.12365 0.12365
#
# Static dielectric constant tensor:
#      x y z
#    x 1.713300 0.000000 0.000000 
#    y 0.000000 1.713300 0.000000 
#    z 0.000000 0.000000 1.676230 
# 
# From -- ./inp_files/3918.got.cif
#   From: 2010.05.17/outbox.cif.g08.bks.cpg/sg114_2_cif.got.tgz:3918.got - 2010.05.20 11:04:54.
