data_PCOD9556779
_publ_section_title
;
Structure prediction by ZEFSAII (Michael W. Deem and Ramdas Pophale) SiO2 
 PCOD9556779
Probable space group: P -4 M 2
;
_chemical_formula_sum "Si O2"
_cell_formula_units_Z 48
_cell_length_a 9.256028
_cell_length_b 9.256028
_cell_length_c 32.204348
_cell_angle_alpha 90.000000
_cell_angle_beta 90.000000
_cell_angle_gamma 90.000000
_cell_volume 2759.077060
_symmetry_space_group_name_H-M "P -4 M 2"
_symmetry_group_IT_number 115
_symmetry_cell_setting 'tetragonal'
loop_
_space_group_symop_operation_xyz
x,y,z
y,-x,-z
-x,-y,z
-y,x,-z
y,x,-z
-y,-x,-z
-x,y,z
x,-y,z
loop_
_atom_site_type_symbol
_atom_site_label
_atom_site_fract_x
_atom_site_fract_y
_atom_site_fract_z
Si Si1 0.665633 0.323932 0.788598
Si Si2 0.323840 0.832785 0.129552
Si Si3 0.669537 0.173960 0.628966
Si Si4 0.673781 0.830061 0.295204
Si Si5 0.825974 0.668990 0.962739
Si Si6 0.833304 0.824156 0.545771
O O1 0.500000 0.276958 0.785061
O O2 0.666698 0.500000 0.789450
O O3 0.737567 0.275263 0.831689
O O4 0.756867 0.281232 0.748240
O O5 0.500000 0.831696 0.129077
O O6 0.279394 0.782212 0.083550
O O7 0.280675 0.000000 0.135340
O O8 0.500000 0.207782 0.630600
O O9 0.752610 0.249474 0.666495
O O10 0.737592 0.219595 0.584823
O O11 0.686016 0.000000 0.632183
O O12 0.500000 0.813731 0.298983
O O13 0.706648 0.000000 0.294754
O O14 0.786271 0.500000 0.966773
O O15 0.000000 0.677695 0.964018
O O16 0.757139 0.757139 0.000000
O O17 0.779557 0.779557 0.500000
O O18 0.000000 0.777672 0.551593
O O19 0.834513 0.000000 0.544455
#
# Coordination Sequence:
#
# PCOD9556779 Si02
#       6
#     8   8   8   8   8   8
#     4   9  16  26  43  68  96 124 155 195 244 293
#     4   8  14  26  43  63  89 120 154 193 235 282
#     4  10  20  33  50  73 101 132 163 197 242 292
#     4  10  20  33  50  72  97 128 166 204 242 286
#     4   9  18  31  47  69  96 125 158 196 238 284
#     4   8  14  27  48  70  91 120 160 201 236 275
#
# _framework density 17.397120999999999
#
# number of rings (size 3 to 8) (size 9 to 14) (size 15 to 20)
#    0.000    3.000    0.000    3.000    0.000    5.000 
#    0.000    2.500    0.000    4.000    0.000    4.667 
#    0.000    0.000    0.000    0.000    0.000    0.000 
#
# Total GULP energy -267477.142450 kJ/mol
# GULP energy per Si atom -5572.440468 kJ/mol
# Density = 1.735752 g / cm^3
# Si number density = 17.397121 Si / 1000 Ang^3
#
#
#
# Elastic Constant Matrix: (Units=GPa)
#
#
# Indices 1 2 3 4 5 6 
#
# 1 55.6153 35.1511 72.0991 0.0000 0.0000 0.0000
# 2 35.1511 55.6153 72.0991 0.0000 0.0000 0.0000
# 3 72.0991 72.0991 212.8484 0.0000 0.0000 0.0000
# 4 0.0000 0.0000 0.0000 29.7857 0.0000 0.0000
# 5 0.0000 0.0000 0.0000 0.0000 29.7857 0.0000
# 6 0.0000 0.0000 0.0000 0.0000 0.0000 18.6882
#
#
#
# Elastic Compliance Matrix: (Units=1/GPa)
#
#
# Indices 1 2 3 4 5 6 
#
# 1 0.036360 -0.012506 -0.008080 0.000000 0.000000 0.000000
# 2 -0.012506 0.036360 -0.008080 0.000000 0.000000 0.000000
# 3 -0.008080 -0.008080 0.010172 0.000000 0.000000 0.000000
# 4 0.000000 0.000000 0.000000 0.033573 0.000000 0.000000
# 5 0.000000 0.000000 0.000000 0.000000 0.033573 0.000000
# 6 0.000000 0.000000 0.000000 0.000000 0.000000 0.053510
#
#
# Mechanical properties :
#
#
# Convention : Reuss Voigt Hill
#
# Bulk Modulus (GPa) = 39.12420 75.86418 57.49419
# Shear Modulus (GPa) = 18.55972 25.30055 21.93013
#
# Velocity S-wave (km/s) = 3.26978 3.81766 3.55429
# Velocity P-wave (km/s) = 6.06572 7.94573 7.06851
#
# Compressibility (1/GPa) = 0.02555963
#
# Stress axis : x y z
#
# Youngs Moduli (GPa) = 27.50281 27.50281 98.30654
#
# Poissons Ratio (x) = 0.34395 0.79434
# Poissons Ratio (y) = 0.34395 0.79434
# Poissons Ratio (z) = 0.22223 0.22223
#
# Static dielectric constant tensor:
#      x y z
#    x 1.582490 0.000000 0.000000 
#    y 0.000000 1.582490 0.000000 
#    z 0.000000 0.000000 1.591540 
# 
# From -- ./inp_files/6048.got.cif
#   From: 2010.05.17/outbox.cif.g08.bks.cpg/sg115_4_cif.got.tgz:6048.got - 2010.05.20 11:07:42.
