data_PCOD9556001
_publ_section_title
;
Structure prediction by ZEFSAII (Michael W. Deem and Ramdas Pophale) SiO2 
 PCOD9556001
Probable space group: P -4 21 C
;
_chemical_formula_sum "Si O2"
_cell_formula_units_Z 44
_cell_length_a 8.429183
_cell_length_b 8.429183
_cell_length_c 25.048195
_cell_angle_alpha 90.000000
_cell_angle_beta 90.000000
_cell_angle_gamma 90.000000
_cell_volume 1779.702460
_symmetry_space_group_name_H-M "P -4 21 C"
_symmetry_group_IT_number 114
_symmetry_cell_setting 'tetragonal'
loop_
_space_group_symop_operation_xyz
x,y,z
y,-x,-z
-x,-y,z
-y,x,-z
1/2+x,1/2-y,1/2-z
1/2-x,1/2+y,1/2-z
1/2-y,1/2-x,1/2+z
1/2+y,1/2+x,1/2+z
loop_
_atom_site_type_symbol
_atom_site_label
_atom_site_fract_x
_atom_site_fract_y
_atom_site_fract_z
Si Si1 0.463330 0.324762 0.709739
Si Si2 0.363868 0.175028 0.912323
Si Si3 0.087531 0.339078 0.354721
Si Si4 0.683943 0.206663 0.375819
Si Si5 0.769968 0.883379 0.016055
Si Si6 0.000000 0.000000 0.314623
O O1 0.500000 0.500000 0.686841
O O2 0.593016 0.194239 0.694064
O O3 0.297701 0.291678 0.680039
O O4 0.470203 0.353688 0.772770
O O5 0.222834 0.291788 0.898308
O O6 0.525613 0.238401 0.886158
O O7 0.373163 0.160588 0.976181
O O8 0.317830 0.005255 0.887316
O O9 0.000000 0.500000 0.371349
O O10 0.994754 0.175187 0.341587
O O11 0.744948 0.318782 0.424106
O O12 0.931158 0.802913 0.993073
#
# Coordination Sequence:
#
# PCOD9556001 Si02
#       6
#     8   8   8   8   8   4
#     4  10  23  46  74 101 136 191 254 300 376 453
#     4  10  21  41  65 106 140 190 243 307 374 458
#     4  12  27  46  71 103 146 188 240 310 389 454
#     4  10  20  40  71 101 141 189 249 310 368 456
#     4   9  18  34  64  95 135 179 242 299 365 443
#     4  10  28  46  70 108 144 188 256 310 392 450
#
# _framework density 24.723233
#
# number of rings (size 3 to 8) (size 9 to 14) (size 15 to 20)
#    0.545    1.273    1.818    1.091    7.636    0.000 
#   13.091    0.000    0.000    0.000    0.000    0.000 
#    0.000    0.000    0.000    0.000    0.000    0.000 
#
# Total GULP energy -245544.459636 kJ/mol
# GULP energy per Si atom -5580.555901 kJ/mol
# Density = 2.466696 g / cm^3
# Si number density = 24.723233 Si / 1000 Ang^3
#
#
#
# Elastic Constant Matrix: (Units=GPa)
#
#
# Indices 1 2 3 4 5 6 
#
# 1 118.9513 67.1904 22.7479 0.0000 0.0000 0.0000
# 2 67.1904 118.9513 22.7479 0.0000 0.0000 0.0000
# 3 22.7479 22.7479 71.2633 0.0000 0.0000 0.0000
# 4 0.0000 0.0000 0.0000 11.5163 0.0000 0.0000
# 5 0.0000 0.0000 0.0000 0.0000 11.5163 0.0000
# 6 0.0000 0.0000 0.0000 0.0000 0.0000 68.2091
#
#
#
# Elastic Compliance Matrix: (Units=1/GPa)
#
#
# Indices 1 2 3 4 5 6 
#
# 1 0.012573 -0.006746 -0.001860 0.000000 0.000000 0.000000
# 2 -0.006746 0.012573 -0.001860 0.000000 0.000000 0.000000
# 3 -0.001860 -0.001860 0.015220 0.000000 0.000000 0.000000
# 4 0.000000 0.000000 0.000000 0.086833 0.000000 0.000000
# 5 0.000000 0.000000 0.000000 0.000000 0.086833 0.000000
# 6 0.000000 0.000000 0.000000 0.000000 0.000000 0.014661
#
#
# Mechanical properties :
#
#
# Convention : Reuss Voigt Hill
#
# Bulk Modulus (GPa) = 51.45705 59.39315 55.42510
# Shear Modulus (GPa) = 19.52331 31.34701 25.43516
#
# Velocity S-wave (km/s) = 2.81316 3.56465 3.21096
# Velocity P-wave (km/s) = 5.60449 6.40450 6.01780
#
# Compressibility (1/GPa) = 0.01943368
#
# Stress axis : x y z
#
# Youngs Moduli (GPa) = 79.53404 79.53404 65.70339
#
# Poissons Ratio (x) = 0.53657 0.12221
# Poissons Ratio (y) = 0.53657 0.12221
# Poissons Ratio (z) = 0.14793 0.14793
#
# Static dielectric constant tensor:
#      x y z
#    x 2.037370 0.000000 0.000000 
#    y 0.000000 2.037370 0.000000 
#    z 0.000000 0.000000 1.932200 
# 
# From -- ./inp_files/3850.got.cif
#   From: 2010.05.17/outbox.cif.g08.bks.cpg/sg114_2_cif.got.tgz:3850.got - 2010.05.20 11:04:54.
