data_PCOD9556335
_publ_section_title
;
Structure prediction by ZEFSAII (Michael W. Deem and Ramdas Pophale) SiO2 
 PCOD9556335
Probable space group: P -4 21 C
;
_chemical_formula_sum "Si O2"
_cell_formula_units_Z 40
_cell_length_a 9.429518
_cell_length_b 9.429518
_cell_length_c 20.798149
_cell_angle_alpha 90.000000
_cell_angle_beta 90.000000
_cell_angle_gamma 90.000000
_cell_volume 1849.284259
_symmetry_space_group_name_H-M "P -4 21 C"
_symmetry_group_IT_number 114
_symmetry_cell_setting 'tetragonal'
loop_
_space_group_symop_operation_xyz
x,y,z
y,-x,-z
-x,-y,z
-y,x,-z
1/2+x,1/2-y,1/2-z
1/2-x,1/2+y,1/2-z
1/2-y,1/2-x,1/2+z
1/2+y,1/2+x,1/2+z
loop_
_atom_site_type_symbol
_atom_site_label
_atom_site_fract_x
_atom_site_fract_y
_atom_site_fract_z
Si Si1 0.335182 0.473777 0.416115
Si Si2 0.776752 0.272623 0.993953
Si Si3 0.621607 0.898030 0.791790
Si Si4 0.514515 0.162405 0.929428
Si Si5 0.887837 0.108270 0.781389
O O1 0.500000 0.500000 0.432945
O O2 0.291561 0.319438 0.440477
O O3 0.238220 0.573511 0.459135
O O4 0.332749 0.523257 0.342612
O O5 0.673465 0.210691 0.940117
O O6 0.744228 0.426604 0.020217
O O7 0.548970 0.843367 0.858038
O O8 0.658338 0.751678 0.755145
O O9 0.500000 0.000000 0.760621
O O10 0.755663 0.005131 0.800479
O O11 0.500000 0.000000 0.950708
O O12 0.000000 0.000000 0.747089
#
# Coordination Sequence:
#
# PCOD9556335 Si02
#       5
#     8   8   8   8   8
#     4  11  19  37  69  93 121 167 231 275 309 392
#     4  12  21  39  63  94 128 166 221 265 332 390
#     4  11  24  46  69  96 140 180 225 281 354 403
#     4  11  23  42  65  94 134 179 211 275 339 399
#     4  11  24  43  70  99 130 181 233 283 332 414
#
# _framework density 21.629988000000001
#
# number of rings (size 3 to 8) (size 9 to 14) (size 15 to 20)
#    0.000    0.800    4.000    6.000    0.000    0.400 
#   10.800    0.000    0.000    0.000    0.000    0.000 
#    0.000    0.000    0.000    0.000    0.000    0.000 
#
# Total GULP energy -222907.313833 kJ/mol
# GULP energy per Si atom -5572.682846 kJ/mol
# Density = 2.158076 g / cm^3
# Si number density = 21.629988 Si / 1000 Ang^3
#
#
#
# Elastic Constant Matrix: (Units=GPa)
#
#
# Indices 1 2 3 4 5 6 
#
# 1 46.3328 9.8253 19.9665 0.0000 0.0000 0.0000
# 2 9.8253 46.3328 19.9665 0.0000 0.0000 0.0000
# 3 19.9665 19.9665 72.2432 0.0000 0.0000 0.0000
# 4 0.0000 0.0000 0.0000 20.5052 0.0000 0.0000
# 5 0.0000 0.0000 0.0000 0.0000 20.5052 0.0000
# 6 0.0000 0.0000 0.0000 0.0000 0.0000 32.0589
#
#
#
# Elastic Compliance Matrix: (Units=1/GPa)
#
#
# Indices 1 2 3 4 5 6 
#
# 1 0.024777 -0.002615 -0.006125 0.000000 0.000000 0.000000
# 2 -0.002615 0.024777 -0.006125 0.000000 0.000000 0.000000
# 3 -0.006125 -0.006125 0.017228 0.000000 0.000000 0.000000
# 4 0.000000 0.000000 0.000000 0.048768 0.000000 0.000000
# 5 0.000000 0.000000 0.000000 0.000000 0.048768 0.000000
# 6 0.000000 0.000000 0.000000 0.000000 0.000000 0.031193
#
#
# Mechanical properties :
#
#
# Convention : Reuss Voigt Hill
#
# Bulk Modulus (GPa) = 26.98925 29.38062 28.18493
# Shear Modulus (GPa) = 21.04453 22.29057 21.66755
#
# Velocity S-wave (km/s) = 3.12257 3.21368 3.16846
# Velocity P-wave (km/s) = 5.05029 5.23289 5.14240
#
# Compressibility (1/GPa) = 0.03705179
#
# Stress axis : x y z
#
# Youngs Moduli (GPa) = 40.36000 40.36000 58.04537
#
# Poissons Ratio (x) = 0.10553 0.35554
# Poissons Ratio (y) = 0.10553 0.35554
# Poissons Ratio (z) = 0.24721 0.24721
#
# Static dielectric constant tensor:
#      x y z
#    x 1.778540 0.000000 0.000000 
#    y 0.000000 1.778540 0.000000 
#    z 0.000000 0.000000 1.809730 
# 
# From -- ./inp_files/3346.got.cif
#   From: 2010.05.17/outbox.cif.g08.bks.cpg/sg114_2_cif.got.tgz:3346.got - 2010.05.20 11:04:54.
