data_PCOD9556931
_publ_section_title
;
Structure prediction by ZEFSAII (Michael W. Deem and Ramdas Pophale) SiO2 
 PCOD9556931
Probable space group: P -4 M 2
;
_chemical_formula_sum "Si O2"
_cell_formula_units_Z 48
_cell_length_a 9.271473
_cell_length_b 9.271473
_cell_length_c 32.211151
_cell_angle_alpha 90.000000
_cell_angle_beta 90.000000
_cell_angle_gamma 90.000000
_cell_volume 2768.877356
_symmetry_space_group_name_H-M "P -4 M 2"
_symmetry_group_IT_number 115
_symmetry_cell_setting 'tetragonal'
loop_
_space_group_symop_operation_xyz
x,y,z
y,-x,-z
-x,-y,z
-y,x,-z
y,x,-z
-y,-x,-z
-x,y,z
x,-y,z
loop_
_atom_site_type_symbol
_atom_site_label
_atom_site_fract_x
_atom_site_fract_y
_atom_site_fract_z
Si Si1 0.168938 0.326231 0.537169
Si Si2 0.675528 0.334181 0.122024
Si Si3 0.327127 0.828999 0.037937
Si Si4 0.666868 0.175846 0.370640
Si Si5 0.824114 0.834396 0.711108
Si Si6 0.829089 0.672618 0.794778
O O1 0.257013 0.257013 0.500000
O O2 0.178432 0.500000 0.535959
O O3 0.220012 0.281670 0.583438
O O4 0.000000 0.287560 0.533038
O O5 0.500000 0.333535 0.122599
O O6 0.723103 0.500000 0.119639
O O7 0.717930 0.245207 0.081228
O O8 0.721404 0.257893 0.164665
O O9 0.500000 0.806858 0.032967
O O10 0.301033 0.000000 0.039417
O O11 0.244766 0.755234 0.000000
O O12 0.500000 0.218944 0.365287
O O13 0.759546 0.224817 0.331487
O O14 0.668397 0.000000 0.371095
O O15 0.780850 0.749215 0.752489
O O16 0.000000 0.830691 0.710450
O O17 0.778914 0.000000 0.712969
O O18 0.812307 0.500000 0.790146
O O19 0.000000 0.700452 0.800953
#
# Coordination Sequence:
#
# PCOD9556931 Si02
#       6
#     8   8   8   8   8   8
#     4   9  18  31  47  69  96 125 159 199 242 289
#     4   9  17  30  50  74  97 124 161 202 239 278
#     4  10  20  34  53  77 104 133 166 204 246 292
#     4   8  14  26  43  63  89 120 153 190 231 276
#     4   9  16  25  40  65  94 121 151 189 233 279
#     4   9  16  27  45  68  93 122 156 193 233 277
#
# _framework density 17.335545
#
# number of rings (size 3 to 8) (size 9 to 14) (size 15 to 20)
#    0.000    3.000    0.000    2.500    0.000    6.000 
#    0.000    2.500    0.000    4.500    0.000    2.333 
#    0.000    0.000    0.000    0.000    0.000    0.000 
#
# Total GULP energy -267476.077871 kJ/mol
# GULP energy per Si atom -5572.418289 kJ/mol
# Density = 1.729609 g / cm^3
# Si number density = 17.335545 Si / 1000 Ang^3
#
#
#
# Elastic Constant Matrix: (Units=GPa)
#
#
# Indices 1 2 3 4 5 6 
#
# 1 47.3148 36.4358 70.9261 0.0000 0.0000 0.0000
# 2 36.4358 47.3148 70.9261 0.0000 0.0000 0.0000
# 3 70.9261 70.9261 216.1231 0.0000 0.0000 0.0000
# 4 0.0000 0.0000 0.0000 27.4036 0.0000 0.0000
# 5 0.0000 0.0000 0.0000 0.0000 27.4036 0.0000
# 6 0.0000 0.0000 0.0000 0.0000 0.0000 14.5483
#
#
#
# Elastic Compliance Matrix: (Units=1/GPa)
#
#
# Indices 1 2 3 4 5 6 
#
# 1 0.059402 -0.032519 -0.008822 0.000000 0.000000 0.000000
# 2 -0.032519 0.059402 -0.008822 0.000000 0.000000 0.000000
# 3 -0.008822 -0.008822 0.010417 0.000000 0.000000 0.000000
# 4 0.000000 0.000000 0.000000 0.036492 0.000000 0.000000
# 5 0.000000 0.000000 0.000000 0.000000 0.036492 0.000000
# 6 0.000000 0.000000 0.000000 0.000000 0.000000 0.068736
#
#
# Mechanical properties :
#
#
# Convention : Reuss Voigt Hill
#
# Bulk Modulus (GPa) = 34.60901 74.14760 54.37831
# Shear Modulus (GPa) = 13.12687 22.70209 17.91448
#
# Velocity S-wave (km/s) = 2.75475 3.62272 3.21813
# Velocity P-wave (km/s) = 5.48869 7.76941 6.72642
#
# Compressibility (1/GPa) = 0.02889421
#
# Stress axis : x y z
#
# Youngs Moduli (GPa) = 16.83455 16.83455 95.99237
#
# Poissons Ratio (x) = 0.54744 0.84687
# Poissons Ratio (y) = 0.54744 0.84687
# Poissons Ratio (z) = 0.14852 0.14852
#
# Static dielectric constant tensor:
#      x y z
#    x 1.579920 0.000000 0.000000 
#    y 0.000000 1.579920 0.000000 
#    z 0.000000 0.000000 1.582530 
# 
# From -- ./inp_files/6119.got.cif
#   From: 2010.05.17/outbox.cif.g08.bks.cpg/sg115_4_cif.got.tgz:6119.got - 2010.05.20 11:07:42.
