data_PCOD9556979
_publ_section_title
;
Structure prediction by ZEFSAII (Michael W. Deem and Ramdas Pophale) SiO2 
 PCOD9556979
Probable space group: P -4 M 2
;
_chemical_formula_sum "Si O2"
_cell_formula_units_Z 40
_cell_length_a 9.147642
_cell_length_b 9.147642
_cell_length_c 26.737018
_cell_angle_alpha 90.000000
_cell_angle_beta 90.000000
_cell_angle_gamma 90.000000
_cell_volume 2237.336398
_symmetry_space_group_name_H-M "P -4 M 2"
_symmetry_group_IT_number 115
_symmetry_cell_setting 'tetragonal'
loop_
_space_group_symop_operation_xyz
x,y,z
y,-x,-z
-x,-y,z
-y,x,-z
y,x,-z
-y,-x,-z
-x,y,z
x,-y,z
loop_
_atom_site_type_symbol
_atom_site_label
_atom_site_fract_x
_atom_site_fract_y
_atom_site_fract_z
Si Si1 0.824332 0.672176 0.343652
Si Si2 0.324332 0.172176 0.843652
Si Si3 0.326457 0.826457 0.250000
Si Si4 0.322046 0.331229 0.945002
Si Si5 0.168771 0.177954 0.554998
O O1 0.794450 0.500000 0.340688
O O2 0.745782 0.755863 0.298924
O O3 0.778367 0.736080 0.397499
O O4 0.000000 0.692740 0.339107
O O5 0.500000 0.192740 0.839107
O O6 0.245782 0.255863 0.798924
O O7 0.278367 0.236080 0.897499
O O8 0.294450 0.000000 0.840688
O O9 0.500000 0.800433 0.250165
O O10 0.300433 0.000000 0.249835
O O11 0.500000 0.332006 0.946769
O O12 0.275368 0.500000 0.938221
O O13 0.276245 0.276245 0.000000
O O14 0.223755 0.223755 0.500000
O O15 0.000000 0.224632 0.561779
O O16 0.167994 0.000000 0.553231
#
# Coordination Sequence:
#
# PCOD9556979 Si02
#       5
#     8   8   8   8   8
#     4  10  20  34  54  80 107 136 171 210 255 307
#     4  10  20  34  54  80 107 136 171 210 255 307
#     4  11  24  39  54  74 100 133 174 217 262 310
#     4   8  14  27  49  75 103 138 177 212 247 291
#     4   8  14  27  49  75 103 138 177 212 247 291
#
# _framework density 17.878402000000001
#
# number of rings (size 3 to 8) (size 9 to 14) (size 15 to 20)
#    0.000    2.600    0.000    3.600    0.000    6.400 
#    0.000    2.000    0.000    7.200    0.000    0.000 
#    0.000    0.000    0.000    0.000    0.000    0.000 
#
# Total GULP energy -223121.021728 kJ/mol
# GULP energy per Si atom -5578.025543 kJ/mol
# Density = 1.783771 g / cm^3
# Si number density = 17.878402 Si / 1000 Ang^3
#
#
#
# Elastic Constant Matrix: (Units=GPa)
#
#
# Indices 1 2 3 4 5 6 
#
# 1 63.1622 61.2591 79.3044 0.0000 0.0000 0.0000
# 2 61.2591 63.1622 79.3044 0.0000 0.0000 0.0000
# 3 79.3044 79.3044 212.1182 0.0000 0.0000 0.0000
# 4 0.0000 0.0000 0.0000 31.4864 0.0000 0.0000
# 5 0.0000 0.0000 0.0000 0.0000 31.4864 0.0000
# 6 0.0000 0.0000 0.0000 0.0000 0.0000 20.5971
#
#
#
# Elastic Compliance Matrix: (Units=1/GPa)
#
#
# Indices 1 2 3 4 5 6 
#
# 1 0.270400 -0.255044 -0.005741 0.000000 0.000000 0.000000
# 2 -0.255044 0.270400 -0.005741 0.000000 0.000000 0.000000
# 3 -0.005741 -0.005741 0.009007 0.000000 0.000000 0.000000
# 4 0.000000 0.000000 0.000000 0.031760 0.000000 0.000000
# 5 0.000000 0.000000 0.000000 0.000000 0.031760 0.000000
# 6 0.000000 0.000000 0.000000 0.000000 0.000000 0.048550
#
#
# Mechanical properties :
#
#
# Convention : Reuss Voigt Hill
#
# Bulk Modulus (GPa) = 59.68562 86.46429 73.07496
# Shear Modulus (GPa) = 4.16488 24.61895 14.39192
#
# Velocity S-wave (km/s) = 1.52795 3.71485 2.84031
# Velocity P-wave (km/s) = 6.04727 8.17726 7.19156
#
# Compressibility (1/GPa) = 0.01675445
#
# Stress axis : x y z
#
# Youngs Moduli (GPa) = 3.69823 3.69823 111.02307
#
# Poissons Ratio (x) = 0.94321 0.63739
# Poissons Ratio (y) = 0.94321 0.63739
# Poissons Ratio (z) = 0.02123 0.02123
#
# Static dielectric constant tensor:
#      x y z
#    x 1.596690 0.000000 0.000000 
#    y 0.000000 1.596690 0.000000 
#    z 0.000000 0.000000 1.609570 
# 
# From -- ./inp_files/5441.got.cif
#   From: 2010.05.17/outbox.cif.g08.bks.cpg/sg115_3_cif.got.tgz:5441.got - 2010.05.20 11:07:42.
