data_PCOD9556748
_publ_section_title
;
Structure prediction by ZEFSAII (Michael W. Deem and Ramdas Pophale) SiO2 
 PCOD9556748
Probable space group: P -4 M 2
;
_chemical_formula_sum "Si O2"
_cell_formula_units_Z 37
_cell_length_a 8.052752
_cell_length_b 8.052752
_cell_length_c 27.733814
_cell_angle_alpha 90.000000
_cell_angle_beta 90.000000
_cell_angle_gamma 90.000000
_cell_volume 1798.449499
_symmetry_space_group_name_H-M "P -4 M 2"
_symmetry_group_IT_number 115
_symmetry_cell_setting 'tetragonal'
loop_
_space_group_symop_operation_xyz
x,y,z
y,-x,-z
-x,-y,z
-y,x,-z
y,x,-z
-y,-x,-z
-x,y,z
x,-y,z
loop_
_atom_site_type_symbol
_atom_site_label
_atom_site_fract_x
_atom_site_fract_y
_atom_site_fract_z
Si Si1 0.191835 0.500000 0.927044
Si Si2 0.817596 0.801790 0.650101
Si Si3 0.797854 0.690266 0.247393
Si Si4 0.195793 0.703060 0.140251
Si Si5 0.500000 0.500000 0.000000
Si Si6 0.313679 0.302949 0.449686
O O1 0.224678 0.332907 0.895658
O O2 0.000000 0.500000 0.943825
O O3 0.333134 0.500000 0.967960
O O4 0.764583 0.735484 0.702416
O O5 0.715888 0.770149 0.601920
O O6 0.000000 0.737576 0.639292
O O7 0.822148 0.000000 0.656075
O O8 0.743116 0.500000 0.247217
O O9 0.758157 0.761119 0.194732
O O10 0.000000 0.691685 0.248607
O O11 0.205246 0.500000 0.139201
O O12 0.000000 0.744509 0.130932
O O13 0.236039 0.236039 0.500000
O O14 0.500000 0.235153 0.443765
O O15 0.322172 0.500000 0.458508
#
# Coordination Sequence:
#
# PCOD9556748 Si02
#       6
#     4   8   8   8   1   8
#     4  12  26  44  72 104 134 180 228 271 331 384
#     4  10  20  32  48  75 111 144 177 225 285 349
#     4   8  15  30  55  84 114 154 196 234 287 354
#     4   9  18  38  68  98 133 174 218 272 326 381
#     4  12  28  52  68  96 148 180 220 288 318 372
#     4   9  19  36  54  69  89 125 179 237 289 345
#
# _framework density 20.573277999999998
#
# number of rings (size 3 to 8) (size 9 to 14) (size 15 to 20)
#    0.000    2.595    1.081    2.595    0.000    4.757 
#    1.946    5.405    0.000    0.000    0.000    0.000 
#    0.000    0.000    0.000    0.000    0.000    0.000 
#
# Total GULP energy -205997.266823 kJ/mol
# GULP energy per Si atom -5567.493698 kJ/mol
# Density = 2.052645 g / cm^3
# Si number density = 20.573278 Si / 1000 Ang^3
#
#
#
# Elastic Constant Matrix: (Units=GPa)
#
#
# Indices 1 2 3 4 5 6 
#
# 1 62.5424 22.6372 53.1505 0.0000 0.0000 0.0000
# 2 22.6372 62.5424 53.1505 0.0000 0.0000 0.0000
# 3 53.1505 53.1505 160.3327 0.0000 0.0000 0.0000
# 4 0.0000 0.0000 0.0000 25.7916 0.0000 0.0000
# 5 0.0000 0.0000 0.0000 0.0000 25.7916 0.0000
# 6 0.0000 0.0000 0.0000 0.0000 0.0000 16.0432
#
#
#
# Elastic Compliance Matrix: (Units=1/GPa)
#
#
# Indices 1 2 3 4 5 6 
#
# 1 0.022542 -0.002518 -0.006638 0.000000 0.000000 0.000000
# 2 -0.002518 0.022542 -0.006638 0.000000 0.000000 0.000000
# 3 -0.006638 -0.006638 0.010638 0.000000 0.000000 0.000000
# 4 0.000000 0.000000 0.000000 0.038772 0.000000 0.000000
# 5 0.000000 0.000000 0.000000 0.000000 0.038772 0.000000
# 6 0.000000 0.000000 0.000000 0.000000 0.000000 0.062332
#
#
# Mechanical properties :
#
#
# Convention : Reuss Voigt Hill
#
# Bulk Modulus (GPa) = 41.43552 60.36597 50.90074
# Shear Modulus (GPa) = 21.25588 23.95726 22.60657
#
# Velocity S-wave (km/s) = 3.21780 3.41616 3.31846
# Velocity P-wave (km/s) = 5.83008 6.70565 6.28314
#
# Compressibility (1/GPa) = 0.02413389
#
# Stress axis : x y z
#
# Youngs Moduli (GPa) = 44.36252 44.36252 94.00295
#
# Poissons Ratio (x) = 0.11170 0.62398
# Poissons Ratio (y) = 0.11170 0.62398
# Poissons Ratio (z) = 0.29447 0.29447
#
# Static dielectric constant tensor:
#      x y z
#    x 1.738140 0.000000 0.000000 
#    y 0.000000 1.738140 0.000000 
#    z 0.000000 0.000000 1.793110 
# 
# From -- ./inp_files/5186.got.cif
#   From: 2010.05.17/outbox.cif.g08.bks.cpg/sg115_3_cif.got.tgz:5186.got - 2010.05.20 11:07:42.
