data_PCOD9556176
_publ_section_title
;
Structure prediction by ZEFSAII (Michael W. Deem and Ramdas Pophale) SiO2 
 PCOD9556176
Probable space group: P -4 21 C
;
_chemical_formula_sum "Si O2"
_cell_formula_units_Z 40
_cell_length_a 11.666684
_cell_length_b 11.666684
_cell_length_c 15.248013
_cell_angle_alpha 90.000000
_cell_angle_beta 90.000000
_cell_angle_gamma 90.000000
_cell_volume 2075.430159
_symmetry_space_group_name_H-M "P -4 21 C"
_symmetry_group_IT_number 114
_symmetry_cell_setting 'tetragonal'
loop_
_space_group_symop_operation_xyz
x,y,z
y,-x,-z
-x,-y,z
-y,x,-z
1/2+x,1/2-y,1/2-z
1/2-x,1/2+y,1/2-z
1/2-y,1/2-x,1/2+z
1/2+y,1/2+x,1/2+z
loop_
_atom_site_type_symbol
_atom_site_label
_atom_site_fract_x
_atom_site_fract_y
_atom_site_fract_z
Si Si1 0.917037 0.256636 0.321433
Si Si2 0.804086 0.482122 0.256073
Si Si3 0.675101 0.177246 0.388489
Si Si4 0.592102 0.099992 0.075957
Si Si5 0.058420 0.107046 0.196539
O O1 0.882825 0.368327 0.263217
O O2 0.805267 0.220831 0.375577
O O3 0.020136 0.296875 0.382496
O O4 0.963212 0.153554 0.263348
O O5 0.834785 0.567370 0.176637
O O6 0.825880 0.550536 0.347504
O O7 0.674097 0.436610 0.255730
O O8 0.641530 0.148916 0.487171
O O9 0.596224 0.282580 0.357962
O O10 0.500000 0.000000 0.056334
O O11 0.000000 0.000000 0.147659
#
# Coordination Sequence:
#
# PCOD9556176 Si02
#       5
#     8   8   8   8   8
#     4  10  22  42  64  96 131 162 226 272 308 395
#     4  10  22  42  64  95 128 164 220 269 315 392
#     4  11  23  41  69  93 126 179 207 265 341 374
#     4  10  23  42  64  96 128 165 220 268 317 395
#     4  11  22  41  65  93 129 167 212 267 322 379
#
# _framework density 19.273114
#
# number of rings (size 3 to 8) (size 9 to 14) (size 15 to 20)
#    0.000    1.600    4.000    0.000    2.800    1.600 
#   10.800    0.000    0.000    0.000    0.000    0.000 
#    0.000    0.000    0.000    0.000    0.000    0.000 
#
# Total GULP energy -223289.414268 kJ/mol
# GULP energy per Si atom -5582.235357 kJ/mol
# Density = 1.922925 g / cm^3
# Si number density = 19.273114 Si / 1000 Ang^3
#
#
#
# Elastic Constant Matrix: (Units=GPa)
#
#
# Indices 1 2 3 4 5 6 
#
# 1 35.9464 49.9700 24.2643 0.0000 0.0000 0.0000
# 2 49.9700 35.9464 24.2643 0.0000 0.0000 0.0000
# 3 24.2643 24.2643 36.9850 0.0000 0.0000 0.0000
# 4 0.0000 0.0000 0.0000 19.7920 0.0000 0.0000
# 5 0.0000 0.0000 0.0000 0.0000 19.7920 0.0000
# 6 0.0000 0.0000 0.0000 0.0000 0.0000 25.8319
#
#
#
# Elastic Compliance Matrix: (Units=1/GPa)
#
#
# Indices 1 2 3 4 5 6 
#
# 1 -0.026408 0.044900 -0.012132 0.000000 0.000000 0.000000
# 2 0.044900 -0.026408 -0.012132 0.000000 0.000000 0.000000
# 3 -0.012132 -0.012132 0.042956 0.000000 0.000000 0.000000
# 4 0.000000 0.000000 0.000000 0.050526 0.000000 0.000000
# 5 0.000000 0.000000 0.000000 0.000000 0.050526 0.000000
# 6 0.000000 0.000000 0.000000 0.000000 0.000000 0.038712
#
#
# Mechanical properties :
#
#
# Convention : Reuss Voigt Hill
#
# Bulk Modulus (GPa) = 31.83402 33.98612 32.91007
# Shear Modulus (GPa) = 50.45411 13.77510 32.11460
#
# Velocity S-wave (km/s) = 5.12204 2.67635 4.08645
# Velocity P-wave (km/s) = 7.17869 5.21754 6.27520
#
# Compressibility (1/GPa) = 0.03141294
#
# Stress axis : x y z
#
# Youngs Moduli (GPa) = -37.86691 -37.86691 23.27961
#
# Poissons Ratio (x) = 1.70022 0.28242
# Poissons Ratio (y) = 1.70022 0.28242
# Poissons Ratio (z) = -0.45938 -0.45938
#
# Static dielectric constant tensor:
#      x y z
#    x 1.698040 0.000000 0.000000 
#    y 0.000000 1.698040 0.000000 
#    z 0.000000 0.000000 1.637220 
# 
# From -- ./inp_files/2101.got.cif
#   From: 2010.05.17/outbox.cif.g08.bks.cpg/sg114_2_cif.got.tgz:2101.got - 2010.05.20 11:04:54.
