data_PCOD9556004
_publ_section_title
;
Structure prediction by ZEFSAII (Michael W. Deem and Ramdas Pophale) SiO2 
 PCOD9556004
Probable space group: P -4 21 C
;
_chemical_formula_sum "Si O2"
_cell_formula_units_Z 48
_cell_length_a 9.095696
_cell_length_b 9.095696
_cell_length_c 27.950063
_cell_angle_alpha 90.000000
_cell_angle_beta 90.000000
_cell_angle_gamma 90.000000
_cell_volume 2312.355828
_symmetry_space_group_name_H-M "P -4 21 C"
_symmetry_group_IT_number 114
_symmetry_cell_setting 'tetragonal'
loop_
_space_group_symop_operation_xyz
x,y,z
y,-x,-z
-x,-y,z
-y,x,-z
1/2+x,1/2-y,1/2-z
1/2-x,1/2+y,1/2-z
1/2-y,1/2-x,1/2+z
1/2+y,1/2+x,1/2+z
loop_
_atom_site_type_symbol
_atom_site_label
_atom_site_fract_x
_atom_site_fract_y
_atom_site_fract_z
Si Si1 0.562224 0.844601 0.594266
Si Si2 0.170777 0.011429 0.625457
Si Si3 0.055766 0.764242 0.007246
Si Si4 0.899803 0.357440 0.703542
Si Si5 0.274372 0.695757 0.606596
Si Si6 0.400875 0.377351 0.229578
O O1 0.732070 0.848085 0.610344
O O2 0.559955 0.847070 0.536706
O O3 0.453674 0.711092 0.609763
O O4 0.500000 0.000000 0.614404
O O5 0.179310 0.008689 0.683222
O O6 0.234652 0.867050 0.600468
O O7 0.000000 0.000000 0.613520
O O8 0.105622 0.724635 0.060324
O O9 0.894577 0.834090 0.008601
O O10 0.814700 0.354536 0.652953
O O11 0.765051 0.351609 0.741277
O O12 0.000000 0.500000 0.709809
O O13 0.021170 0.230062 0.709620
O O14 0.500000 0.500000 0.256907
#
# Coordination Sequence:
#
# PCOD9556004 Si02
#       6
#     8   8   8   8   8   8
#     4   9  20  37  65  91 118 172 219 253 336 405
#     4  10  20  41  63  87 127 169 212 271 326 395
#     4   9  19  39  61  88 128 165 207 271 331 398
#     4  12  26  41  67 101 128 178 229 281 339 401
#     4  10  21  42  62  92 127 168 219 266 331 396
#     4  11  24  46  65  91 138 170 221 279 340 399
#
# _framework density 20.758050999999998
#
# number of rings (size 3 to 8) (size 9 to 14) (size 15 to 20)
#    0.000    1.833    3.333    1.000    2.333    2.667 
#   15.000    0.000    0.000    0.000    0.000    0.000 
#    0.000    0.000    0.000    0.000    0.000    0.000 
#
# Total GULP energy -267321.967088 kJ/mol
# GULP energy per Si atom -5569.207648 kJ/mol
# Density = 2.071080 g / cm^3
# Si number density = 20.758051 Si / 1000 Ang^3
#
#
#
# Elastic Constant Matrix: (Units=GPa)
#
#
# Indices 1 2 3 4 5 6 
#
# 1 60.3549 14.6789 39.0381 0.0000 0.0000 0.0000
# 2 14.6789 60.3549 39.0381 0.0000 0.0000 0.0000
# 3 39.0381 39.0381 87.5389 0.0000 0.0000 0.0000
# 4 0.0000 0.0000 0.0000 24.7697 0.0000 0.0000
# 5 0.0000 0.0000 0.0000 0.0000 24.7697 0.0000
# 6 0.0000 0.0000 0.0000 0.0000 0.0000 16.2789
#
#
#
# Elastic Compliance Matrix: (Units=1/GPa)
#
#
# Indices 1 2 3 4 5 6 
#
# 1 0.023380 0.001486 -0.011089 0.000000 0.000000 0.000000
# 2 0.001486 0.023380 -0.011089 0.000000 0.000000 0.000000
# 3 -0.011089 -0.011089 0.021314 0.000000 0.000000 0.000000
# 4 0.000000 0.000000 0.000000 0.040372 0.000000 0.000000
# 5 0.000000 0.000000 0.000000 0.000000 0.040372 0.000000
# 6 0.000000 0.000000 0.000000 0.000000 0.000000 0.061429
#
#
# Mechanical properties :
#
#
# Convention : Reuss Voigt Hill
#
# Bulk Modulus (GPa) = 37.46762 43.75097 40.60929
# Shear Modulus (GPa) = 19.19194 20.86324 20.02759
#
# Velocity S-wave (km/s) = 3.04395 3.17372 3.10951
# Velocity P-wave (km/s) = 5.51752 5.87813 5.70067
#
# Compressibility (1/GPa) = 0.02668971
#
# Stress axis : x y z
#
# Youngs Moduli (GPa) = 42.77223 42.77223 46.91790
#
# Poissons Ratio (x) = -0.06357 0.52027
# Poissons Ratio (y) = -0.06357 0.52027
# Poissons Ratio (z) = 0.47430 0.47430
#
# Static dielectric constant tensor:
#      x y z
#    x 1.842890 0.000000 0.000000 
#    y 0.000000 1.842890 0.000000 
#    z 0.000000 0.000000 1.734990 
# 
# From -- ./inp_files/3974.got.cif
#   From: 2010.05.17/outbox.cif.g08.bks.cpg/sg114_2_cif.got.tgz:3974.got - 2010.05.20 11:04:54.
