data_PCOD9556458
_publ_section_title
;
Structure prediction by ZEFSAII (Michael W. Deem and Ramdas Pophale) SiO2 
 PCOD9556458
Probable space group: P -4 21 C
;
_chemical_formula_sum "Si O2"
_cell_formula_units_Z 24
_cell_length_a 9.459798
_cell_length_b 9.459798
_cell_length_c 9.216217
_cell_angle_alpha 90.000000
_cell_angle_beta 90.000000
_cell_angle_gamma 90.000000
_cell_volume 824.738783
_symmetry_space_group_name_H-M "P -4 21 C"
_symmetry_group_IT_number 114
_symmetry_cell_setting 'tetragonal'
loop_
_space_group_symop_operation_xyz
x,y,z
y,-x,-z
-x,-y,z
-y,x,-z
1/2+x,1/2-y,1/2-z
1/2-x,1/2+y,1/2-z
1/2-y,1/2-x,1/2+z
1/2+y,1/2+x,1/2+z
loop_
_atom_site_type_symbol
_atom_site_label
_atom_site_fract_x
_atom_site_fract_y
_atom_site_fract_z
Si Si1 0.904962 0.762742 0.681242
Si Si2 0.443167 0.289165 0.560150
Si Si3 0.811329 0.495594 0.872888
O O1 0.044671 0.810447 0.766381
O O2 0.868215 0.612278 0.758724
O O3 0.792147 0.886544 0.708110
O O4 0.926911 0.756169 0.510376
O O5 0.334324 0.403859 0.500464
O O6 0.409871 0.123911 0.545439
#
# Coordination Sequence:
#
# PCOD9556458 Si02
#       3
#     8   8   8
#     4  12  32  58  95 138 198 252 326 398 487 589
#     4  11  29  52  92 137 188 247 317 401 475 576
#     4  12  32  61  94 141 190 259 317 401 488 581
#
# _framework density 29.10012
#
# number of rings (size 3 to 8) (size 9 to 14) (size 15 to 20)
#    0.000    0.333    0.000    3.000   23.333    6.000 
#    0.000    0.000    0.000    0.000    0.000    0.000 
#    0.000    0.000    0.000    0.000    0.000    0.000 
#
# Total GULP energy -134551.033614 kJ/mol
# GULP energy per Si atom -5606.293067 kJ/mol
# Density = 2.903389 g / cm^3
# Si number density = 29.100120 Si / 1000 Ang^3
#
#
#
# Elastic Constant Matrix: (Units=GPa)
#
#
# Indices 1 2 3 4 5 6 
#
# 1 173.4311 71.1380 26.8856 0.0000 0.0000 0.0000
# 2 71.1380 173.4311 26.8856 0.0000 0.0000 0.0000
# 3 26.8856 26.8856 137.0386 0.0000 0.0000 0.0000
# 4 0.0000 0.0000 0.0000 63.3246 0.0000 0.0000
# 5 0.0000 0.0000 0.0000 0.0000 63.3246 0.0000
# 6 0.0000 0.0000 0.0000 0.0000 0.0000 61.9666
#
#
#
# Elastic Compliance Matrix: (Units=1/GPa)
#
#
# Indices 1 2 3 4 5 6 
#
# 1 0.007024 -0.002751 -0.000838 0.000000 0.000000 0.000000
# 2 -0.002751 0.007024 -0.000838 0.000000 0.000000 0.000000
# 3 -0.000838 -0.000838 0.007626 0.000000 0.000000 0.000000
# 4 0.000000 0.000000 0.000000 0.015792 0.000000 0.000000
# 5 0.000000 0.000000 0.000000 0.000000 0.015792 0.000000
# 6 0.000000 0.000000 0.000000 0.000000 0.000000 0.016138
#
#
# Mechanical properties :
#
#
# Convention : Reuss Voigt Hill
#
# Bulk Modulus (GPa) = 78.00882 81.52435 79.76658
# Shear Modulus (GPa) = 60.58751 61.65594 61.12172
#
# Velocity S-wave (km/s) = 4.56788 4.60798 4.58798
# Velocity P-wave (km/s) = 7.39500 7.50915 7.45229
#
# Compressibility (1/GPa) = 0.01281906
#
# Stress axis : x y z
#
# Youngs Moduli (GPa) = 142.35916 142.35916 131.12748
#
# Poissons Ratio (x) = 0.39168 0.10993
# Poissons Ratio (y) = 0.39168 0.10993
# Poissons Ratio (z) = 0.11935 0.11935
#
# Static dielectric constant tensor:
#      x y z
#    x 2.328160 0.000000 0.000000 
#    y 0.000000 2.328160 0.000000 
#    z 0.000000 0.000000 2.208010 
# 
# From -- ./inp_files/477.got.cif
#   From: 2010.05.17/outbox.cif.g08.bks.cpg/sg114_1_cif.got.tgz:477.got - 2010.05.20 11:04:54.
