data_PCOD9556844
_publ_section_title
;
Structure prediction by ZEFSAII (Michael W. Deem and Ramdas Pophale) SiO2 
 PCOD9556844
Probable space group: P -4 M 2
;
_chemical_formula_sum "Si O2"
_cell_formula_units_Z 48
_cell_length_a 9.299659
_cell_length_b 9.299659
_cell_length_c 32.166191
_cell_angle_alpha 90.000000
_cell_angle_beta 90.000000
_cell_angle_gamma 90.000000
_cell_volume 2781.849846
_symmetry_space_group_name_H-M "P -4 M 2"
_symmetry_group_IT_number 115
_symmetry_cell_setting 'tetragonal'
loop_
_space_group_symop_operation_xyz
x,y,z
y,-x,-z
-x,-y,z
-y,x,-z
y,x,-z
-y,-x,-z
-x,y,z
x,-y,z
loop_
_atom_site_type_symbol
_atom_site_label
_atom_site_fract_x
_atom_site_fract_y
_atom_site_fract_z
Si Si1 0.675440 0.666370 0.045850
Si Si2 0.328015 0.170257 0.371008
Si Si3 0.324659 0.834864 0.127594
Si Si4 0.665832 0.674973 0.545784
Si Si5 0.170096 0.328131 0.295869
Si Si6 0.669900 0.671556 0.211046
O O1 0.500000 0.667644 0.045102
O O2 0.718866 0.500000 0.051024
O O3 0.723687 0.758161 0.085219
O O4 0.719698 0.719698 0.000000
O O5 0.500000 0.195243 0.366477
O O6 0.282214 0.239034 0.415034
O O7 0.245981 0.245888 0.333406
O O8 0.303472 0.000000 0.370927
O O9 0.500000 0.831144 0.126979
O O10 0.281549 0.751558 0.169310
O O11 0.279520 0.000000 0.128911
O O12 0.719623 0.719623 0.500000
O O13 0.500000 0.721402 0.551599
O O14 0.664600 0.500000 0.544332
O O15 0.192414 0.500000 0.301091
O O16 0.241931 0.286923 0.251945
O O17 0.000000 0.300665 0.295250
O O18 0.500000 0.701796 0.217731
O O19 0.684291 0.500000 0.204930
#
# Coordination Sequence:
#
# PCOD9556844 Si02
#       6
#     8   8   8   8   8   8
#     4   8  13  22  38  60  85 114 148 184 223 269
#     4  10  20  33  51  76 104 133 165 201 242 289
#     4   9  16  25  40  65  94 119 147 188 233 274
#     4   8  14  27  49  74  98 127 164 204 243 282
#     4  10  21  36  53  73  97 127 164 204 246 292
#     4   9  17  30  49  71  94 121 153 191 237 287
#
# _framework density 17.254707
#
# number of rings (size 3 to 8) (size 9 to 14) (size 15 to 20)
#    0.000    3.000    0.000    2.500    0.000    4.667 
#    0.000    2.500    0.000    4.000    0.000    4.667 
#    0.000    0.000    0.000    0.000    0.000    0.000 
#
# Total GULP energy -267484.876620 kJ/mol
# GULP energy per Si atom -5572.601596 kJ/mol
# Density = 1.721543 g / cm^3
# Si number density = 17.254707 Si / 1000 Ang^3
#
#
#
# Elastic Constant Matrix: (Units=GPa)
#
#
# Indices 1 2 3 4 5 6 
#
# 1 48.8389 41.8253 79.3015 0.0000 0.0000 0.0000
# 2 41.8253 48.8389 79.3015 0.0000 0.0000 0.0000
# 3 79.3015 79.3015 226.2291 0.0000 0.0000 0.0000
# 4 0.0000 0.0000 0.0000 -5.2569 0.0000 0.0000
# 5 0.0000 0.0000 0.0000 0.0000 -5.2569 0.0000
# 6 0.0000 0.0000 0.0000 0.0000 0.0000 12.2901
#
#
#
# Elastic Compliance Matrix: (Units=1/GPa)
#
#
# Indices 1 2 3 4 5 6 
#
# 1 0.085548 -0.057032 -0.009996 0.000000 0.000000 0.000000
# 2 -0.057032 0.085548 -0.009996 0.000000 0.000000 0.000000
# 3 -0.009996 -0.009996 0.011428 0.000000 0.000000 0.000000
# 4 0.000000 0.000000 0.000000 -0.190227 0.000000 0.000000
# 5 0.000000 0.000000 0.000000 0.000000 -0.190227 0.000000
# 6 0.000000 0.000000 0.000000 0.000000 0.000000 0.081367
#
#
# Mechanical properties :
#
#
# Convention : Reuss Voigt Hill
#
# Bulk Modulus (GPa) = 35.11665 80.52928 57.82296
# Shear Modulus (GPa) = 106.43623 8.58717 57.51170
#
# Velocity S-wave (km/s) = 7.86252 2.23327 5.77957
# Velocity P-wave (km/s) = 10.14011 7.30905 8.83867
#
# Compressibility (1/GPa) = 0.02847652
#
# Stress axis : x y z
#
# Youngs Moduli (GPa) = 11.68934 11.68934 87.50339
#
# Poissons Ratio (x) = 0.66667 0.87467
# Poissons Ratio (y) = 0.66667 0.87467
# Poissons Ratio (z) = 0.11685 0.11685
#
# Static dielectric constant tensor:
#      x y z
#    x 1.568050 0.000000 0.000000 
#    y 0.000000 1.568050 0.000000 
#    z 0.000000 0.000000 1.582940 
# 
# From -- ./inp_files/6089.got.cif
#   From: 2010.05.17/outbox.cif.g08.bks.cpg/sg115_4_cif.got.tgz:6089.got - 2010.05.20 11:07:42.
