data_PCOD9556392
_publ_section_title
;
Structure prediction by ZEFSAII (Michael W. Deem and Ramdas Pophale) SiO2 
 PCOD9556392
Probable space group: P -4 21 C
;
_chemical_formula_sum "Si O2"
_cell_formula_units_Z 40
_cell_length_a 9.619890
_cell_length_b 9.619890
_cell_length_c 22.073240
_cell_angle_alpha 90.000000
_cell_angle_beta 90.000000
_cell_angle_gamma 90.000000
_cell_volume 2042.708036
_symmetry_space_group_name_H-M "P -4 21 C"
_symmetry_group_IT_number 114
_symmetry_cell_setting 'tetragonal'
loop_
_space_group_symop_operation_xyz
x,y,z
y,-x,-z
-x,-y,z
-y,x,-z
1/2+x,1/2-y,1/2-z
1/2-x,1/2+y,1/2-z
1/2-y,1/2-x,1/2+z
1/2+y,1/2+x,1/2+z
loop_
_atom_site_type_symbol
_atom_site_label
_atom_site_fract_x
_atom_site_fract_y
_atom_site_fract_z
Si Si1 0.733873 0.832877 0.887331
Si Si2 0.168347 0.268721 0.110642
Si Si3 0.997870 0.333438 0.707992
Si Si4 0.831210 0.500131 0.348270
Si Si5 0.343654 0.653643 0.001494
O O1 0.640248 0.796181 0.828874
O O2 0.661828 0.774700 0.947740
O O3 0.871714 0.742608 0.880807
O O4 0.752784 0.000597 0.889815
O O5 0.205576 0.374334 0.164982
O O6 0.258913 0.133250 0.123025
O O7 0.224290 0.326420 0.047060
O O8 0.004538 0.287448 0.777179
O O9 0.000000 0.500000 0.710569
O O10 0.000000 0.500000 0.353024
O O11 0.499958 0.664493 0.028247
#
# Coordination Sequence:
#
# PCOD9556392 Si02
#       5
#     8   8   8   8   8
#     4  11  23  42  65  95 130 170 216 269 324 379
#     4  11  23  42  65  95 130 170 216 269 324 379
#     4   9  20  41  67  95 129 169 210 269 326 385
#     4  11  23  41  65  97 133 169 216 261 324 389
#     4  11  24  42  63  90 128 170 221 266 325 394
#
# _framework density 19.581848000000001
#
# number of rings (size 3 to 8) (size 9 to 14) (size 15 to 20)
#    0.000    1.400    2.000    3.000    2.800    0.000 
#    0.000    6.000    0.000    0.000    0.000    0.000 
#    0.000    0.000    0.000    0.000    0.000    0.000 
#
# Total GULP energy -223191.751110 kJ/mol
# GULP energy per Si atom -5579.793778 kJ/mol
# Density = 1.953728 g / cm^3
# Si number density = 19.581848 Si / 1000 Ang^3
#
#
#
# Elastic Constant Matrix: (Units=GPa)
#
#
# Indices 1 2 3 4 5 6 
#
# 1 105.5461 26.7829 14.2088 0.0000 0.0000 0.0000
# 2 26.7829 105.5461 14.2088 0.0000 0.0000 0.0000
# 3 14.2088 14.2088 52.9687 0.0000 0.0000 0.0000
# 4 0.0000 0.0000 0.0000 33.5541 0.0000 0.0000
# 5 0.0000 0.0000 0.0000 0.0000 33.5541 0.0000
# 6 0.0000 0.0000 0.0000 0.0000 0.0000 6.5999
#
#
#
# Elastic Compliance Matrix: (Units=1/GPa)
#
#
# Indices 1 2 3 4 5 6 
#
# 1 0.010358 -0.002339 -0.002151 0.000000 0.000000 0.000000
# 2 -0.002339 0.010358 -0.002151 0.000000 0.000000 0.000000
# 3 -0.002151 -0.002151 0.020033 0.000000 0.000000 0.000000
# 4 0.000000 0.000000 0.000000 0.029803 0.000000 0.000000
# 5 0.000000 0.000000 0.000000 0.000000 0.029803 0.000000
# 6 0.000000 0.000000 0.000000 0.000000 0.000000 0.151517
#
#
# Mechanical properties :
#
#
# Convention : Reuss Voigt Hill
#
# Bulk Modulus (GPa) = 36.40781 41.60688 39.00734
# Shear Modulus (GPa) = 18.22774 28.66568 23.44671
#
# Velocity S-wave (km/s) = 3.05429 3.83023 3.46406
# Velocity P-wave (km/s) = 5.57416 6.39177 5.99691
#
# Compressibility (1/GPa) = 0.02746663
#
# Stress axis : x y z
#
# Youngs Moduli (GPa) = 96.54776 96.54776 49.91736
#
# Poissons Ratio (x) = 0.22580 0.10737
# Poissons Ratio (y) = 0.22580 0.10737
# Poissons Ratio (z) = 0.20768 0.20768
#
# Static dielectric constant tensor:
#      x y z
#    x 1.722480 0.000000 0.000000 
#    y 0.000000 1.722480 0.000000 
#    z 0.000000 0.000000 1.693810 
# 
# From -- ./inp_files/3328.got.cif
#   From: 2010.05.17/outbox.cif.g08.bks.cpg/sg114_2_cif.got.tgz:3328.got - 2010.05.20 11:04:54.
