data_PCOD9556094
_publ_section_title
;
Structure prediction by ZEFSAII (Michael W. Deem and Ramdas Pophale) SiO2 
 PCOD9556094
Probable space group: P -4 21 C
;
_chemical_formula_sum "Si O2"
_cell_formula_units_Z 34
_cell_length_a 8.959120
_cell_length_b 8.959120
_cell_length_c 19.883925
_cell_angle_alpha 90.000000
_cell_angle_beta 90.000000
_cell_angle_gamma 90.000000
_cell_volume 1595.999767
_symmetry_space_group_name_H-M "P -4 21 C"
_symmetry_group_IT_number 114
_symmetry_cell_setting 'tetragonal'
loop_
_space_group_symop_operation_xyz
x,y,z
y,-x,-z
-x,-y,z
-y,x,-z
1/2+x,1/2-y,1/2-z
1/2-x,1/2+y,1/2-z
1/2-y,1/2-x,1/2+z
1/2+y,1/2+x,1/2+z
loop_
_atom_site_type_symbol
_atom_site_label
_atom_site_fract_x
_atom_site_fract_y
_atom_site_fract_z
Si Si1 0.000000 0.000000 0.500000
Si Si2 0.703862 0.252778 0.069511
Si Si3 0.698050 0.855057 0.292745
Si Si4 0.148995 0.304531 0.176411
Si Si5 0.335750 0.966284 0.959605
O O1 0.106009 0.891247 0.543406
O O2 0.714267 0.262597 0.149586
O O3 0.874713 0.257755 0.042691
O O4 0.643749 0.107968 0.031657
O O5 0.761450 0.813126 0.220486
O O6 0.524095 0.811173 0.300105
O O7 0.713665 0.030263 0.309409
O O8 0.144831 0.269855 0.096755
O O9 0.500000 0.000000 0.931150
#
# Coordination Sequence:
#
# PCOD9556094 Si02
#       5
#     2   8   8   8   8
#     4  12  20  36  68  96 120 172 216 262 312 376
#     4  11  23  39  66  94 124 165 216 258 320 377
#     4  10  22  41  60  92 122 167 207 256 309 370
#     4  10  21  42  64  85 133 162 204 259 312 363
#     4  11  21  44  63  89 131 162 201 274 317 365
#
# _framework density 21.303263000000001
#
# number of rings (size 3 to 8) (size 9 to 14) (size 15 to 20)
#    0.000    1.412    7.059    0.000    0.000    7.059 
#    4.235    4.706    0.000    0.000    0.000    0.000 
#    0.000    0.000    0.000    0.000    0.000    0.000 
#
# Total GULP energy -189853.159706 kJ/mol
# GULP energy per Si atom -5583.916462 kJ/mol
# Density = 2.125478 g / cm^3
# Si number density = 21.303263 Si / 1000 Ang^3
#
#
#
# Elastic Constant Matrix: (Units=GPa)
#
#
# Indices 1 2 3 4 5 6 
#
# 1 35.2337 11.6006 21.2067 0.0000 0.0000 0.0000
# 2 11.6006 35.2337 21.2067 0.0000 0.0000 0.0000
# 3 21.2067 21.2067 82.9810 0.0000 0.0000 0.0000
# 4 0.0000 0.0000 0.0000 85.8178 0.0000 0.0000
# 5 0.0000 0.0000 0.0000 0.0000 85.8178 0.0000
# 6 0.0000 0.0000 0.0000 0.0000 0.0000 25.9584
#
#
#
# Elastic Compliance Matrix: (Units=1/GPa)
#
#
# Indices 1 2 3 4 5 6 
#
# 1 0.035048 -0.007266 -0.007100 0.000000 0.000000 0.000000
# 2 -0.007266 0.035048 -0.007100 0.000000 0.000000 0.000000
# 3 -0.007100 -0.007100 0.015680 0.000000 0.000000 0.000000
# 4 0.000000 0.000000 0.000000 0.011653 0.000000 0.000000
# 5 0.000000 0.000000 0.000000 0.000000 0.011653 0.000000
# 6 0.000000 0.000000 0.000000 0.000000 0.000000 0.038523
#
#
# Mechanical properties :
#
#
# Convention : Reuss Voigt Hill
#
# Bulk Modulus (GPa) = 23.34077 29.05292 26.19685
# Shear Modulus (GPa) = 24.41213 46.14775 35.27994
#
# Velocity S-wave (km/s) = 3.38884 4.65933 4.07391
# Velocity P-wave (km/s) = 5.12762 6.52787 5.86965
#
# Compressibility (1/GPa) = 0.04284349
#
# Stress axis : x y z
#
# Youngs Moduli (GPa) = 28.53263 28.53263 63.77608
#
# Poissons Ratio (x) = 0.20732 0.45280
# Poissons Ratio (y) = 0.20732 0.45280
# Poissons Ratio (z) = 0.20258 0.20258
#
# Static dielectric constant tensor:
#      x y z
#    x 0.824490 0.000000 0.000000 
#    y 0.000000 0.824490 0.000000 
#    z 0.000000 0.000000 1.760610 
# 
# From -- ./inp_files/2943.got.cif
#   From: 2010.05.17/outbox.cif.g08.bks.cpg/sg114_2_cif.got.tgz:2943.got - 2010.05.20 11:04:54.
