data_PCOD9556385
_publ_section_title
;
Structure prediction by ZEFSAII (Michael W. Deem and Ramdas Pophale) SiO2 
 PCOD9556385
Probable space group: P -4 21 C
;
_chemical_formula_sum "Si O2"
_cell_formula_units_Z 42
_cell_length_a 14.176151
_cell_length_b 14.176151
_cell_length_c 8.305353
_cell_angle_alpha 90.000000
_cell_angle_beta 90.000000
_cell_angle_gamma 90.000000
_cell_volume 1669.070791
_symmetry_space_group_name_H-M "P -4 21 C"
_symmetry_group_IT_number 114
_symmetry_cell_setting 'tetragonal'
loop_
_space_group_symop_operation_xyz
x,y,z
y,-x,-z
-x,-y,z
-y,x,-z
1/2+x,1/2-y,1/2-z
1/2-x,1/2+y,1/2-z
1/2-y,1/2-x,1/2+z
1/2+y,1/2+x,1/2+z
loop_
_atom_site_type_symbol
_atom_site_label
_atom_site_fract_x
_atom_site_fract_y
_atom_site_fract_z
Si Si1 0.072689 0.835115 0.804451
Si Si2 0.000000 0.000000 0.000000
Si Si3 0.772236 0.412899 0.004836
Si Si4 0.303539 0.935038 0.063253
Si Si5 0.064305 0.576351 0.252695
Si Si6 0.223890 0.288692 0.167500
O O1 0.035895 0.802247 0.626002
O O2 0.181964 0.808202 0.799354
O O3 0.015638 0.775457 0.938480
O O4 0.060171 0.938417 0.873571
O O5 0.856099 0.387000 0.129743
O O6 0.831463 0.463496 0.859803
O O7 0.722245 0.320670 0.931390
O O8 0.261065 0.854579 0.180055
O O9 0.387087 0.997639 0.132916
O O10 0.332247 0.869800 0.915491
O O11 0.000000 0.500000 0.161728
#
# Coordination Sequence:
#
# PCOD9556385 Si02
#       6
#     8   2   8   8   8   8
#     4  11  24  43  71 100 138 195 246 299 362 445
#     4  12  24  48  68  98 148 196 264 294 364 460
#     4  11  22  45  67 103 143 188 239 306 384 422
#     4  11  25  40  69 105 136 191 241 289 375 437
#     4  11  25  41  68 105 147 182 240 311 377 451
#     4  12  22  44  69 100 141 187 244 299 362 448
#
# _framework density 25.163703999999999
#
# number of rings (size 3 to 8) (size 9 to 14) (size 15 to 20)
#    0.000    0.762    7.619    0.571    8.000    0.000 
#    0.000    3.810    0.000    0.000    0.000    0.000 
#    0.000    0.000    0.000    0.000    0.000    0.000 
#
# Total GULP energy -234152.452148 kJ/mol
# GULP energy per Si atom -5575.058384 kJ/mol
# Density = 2.510643 g / cm^3
# Si number density = 25.163704 Si / 1000 Ang^3
#
#
#
# Elastic Constant Matrix: (Units=GPa)
#
#
# Indices 1 2 3 4 5 6 
#
# 1 65.1152 49.9882 26.2830 0.0000 0.0000 0.0000
# 2 49.9882 65.1152 26.2830 0.0000 0.0000 0.0000
# 3 26.2830 26.2830 85.7687 0.0000 0.0000 0.0000
# 4 0.0000 0.0000 0.0000 41.5013 0.0000 0.0000
# 5 0.0000 0.0000 0.0000 0.0000 41.5013 0.0000
# 6 0.0000 0.0000 0.0000 0.0000 0.0000 35.0245
#
#
#
# Elastic Compliance Matrix: (Units=1/GPa)
#
#
# Indices 1 2 3 4 5 6 
#
# 1 0.038104 -0.028003 -0.003096 0.000000 0.000000 0.000000
# 2 -0.028003 0.038104 -0.003096 0.000000 0.000000 0.000000
# 3 -0.003096 -0.003096 0.013556 0.000000 0.000000 0.000000
# 4 0.000000 0.000000 0.000000 0.024096 0.000000 0.000000
# 5 0.000000 0.000000 0.000000 0.000000 0.024096 0.000000
# 6 0.000000 0.000000 0.000000 0.000000 0.000000 0.028551
#
#
# Mechanical properties :
#
#
# Convention : Reuss Voigt Hill
#
# Bulk Modulus (GPa) = 46.77830 46.78970 46.78400
# Shear Modulus (GPa) = 20.65938 31.16842 25.91390
#
# Velocity S-wave (km/s) = 2.86842 3.52323 3.21255
# Velocity P-wave (km/s) = 5.44062 5.93172 5.69147
#
# Compressibility (1/GPa) = 0.02137743
#
# Stress axis : x y z
#
# Youngs Moduli (GPa) = 26.24382 26.24382 73.76571
#
# Poissons Ratio (x) = 0.73490 0.22834
# Poissons Ratio (y) = 0.73490 0.22834
# Poissons Ratio (z) = 0.08124 0.08124
#
# Static dielectric constant tensor:
#      x y z
#    x 2.087710 0.000000 0.000000 
#    y 0.000000 2.087710 0.000000 
#    z 0.000000 0.000000 2.106590 
# 
# From -- ./inp_files/811.got.cif
#   From: 2010.05.17/outbox.cif.g08.bks.cpg/sg114_1_cif.got.tgz:811.got - 2010.05.20 11:04:54.
