data_PCOD9556869
_publ_section_title
;
Structure prediction by ZEFSAII (Michael W. Deem and Ramdas Pophale) SiO2 
 PCOD9556869
Probable space group: P -4 M 2
;
_chemical_formula_sum "Si O2"
_cell_formula_units_Z 44
_cell_length_a 9.176705
_cell_length_b 9.176705
_cell_length_c 29.607632
_cell_angle_alpha 90.000000
_cell_angle_beta 90.000000
_cell_angle_gamma 90.000000
_cell_volume 2493.315379
_symmetry_space_group_name_H-M "P -4 M 2"
_symmetry_group_IT_number 115
_symmetry_cell_setting 'tetragonal'
loop_
_space_group_symop_operation_xyz
x,y,z
y,-x,-z
-x,-y,z
-y,x,-z
y,x,-z
-y,-x,-z
-x,y,z
x,-y,z
loop_
_atom_site_type_symbol
_atom_site_label
_atom_site_fract_x
_atom_site_fract_y
_atom_site_fract_z
Si Si1 0.324573 0.673560 0.401179
Si Si2 0.322533 0.331699 0.049720
Si Si3 0.174905 0.170910 0.317287
Si Si4 0.825101 0.328750 0.224375
Si Si5 0.829744 0.675655 0.859309
Si Si6 0.674615 0.674615 0.500000
O O1 0.500000 0.690390 0.399226
O O2 0.294578 0.500000 0.397693
O O3 0.250480 0.757268 0.360379
O O4 0.272952 0.727165 0.451001
O O5 0.500000 0.332129 0.048311
O O6 0.276350 0.500000 0.055783
O O7 0.277603 0.237070 0.092523
O O8 0.277171 0.277171 0.000000
O O9 0.219184 0.251072 0.271033
O O10 0.000000 0.186462 0.321611
O O11 0.209452 0.000000 0.314330
O O12 0.791583 0.500000 0.226571
O O13 0.747871 0.255954 0.181779
O O14 0.000000 0.312230 0.219849
O O15 0.815322 0.500000 0.856537
O O16 0.000000 0.712281 0.856750
O O17 0.696903 0.500000 0.499626
#
# Coordination Sequence:
#
# PCOD9556869 Si02
#       6
#     8   8   8   8   8   4
#     4   9  17  31  53  78 101 128 165 207 248 291
#     4   8  14  27  48  71  96 130 170 208 244 283
#     4  10  21  36  52  71  99 134 167 202 249 301
#     4  10  21  37  56  75  95 126 170 213 252 298
#     4  10  20  33  51  77 107 136 165 201 249 300
#     4   7  12  26  48  73 100 128 160 201 246 289
#
# _framework density 17.647185
#
# number of rings (size 3 to 8) (size 9 to 14) (size 15 to 20)
#    0.000    2.818    0.000    3.273    0.000    4.364 
#    0.000    1.818    0.000    7.636    0.000    0.000 
#    0.000    0.000    0.000    0.000    0.000    0.000 
#
# Total GULP energy -245260.584366 kJ/mol
# GULP energy per Si atom -5574.104190 kJ/mol
# Density = 1.760702 g / cm^3
# Si number density = 17.647185 Si / 1000 Ang^3
#
#
#
# Elastic Constant Matrix: (Units=GPa)
#
#
# Indices 1 2 3 4 5 6 
#
# 1 58.9437 42.1575 76.9155 0.0000 0.0000 0.0000
# 2 42.1575 58.9437 76.9155 0.0000 0.0000 0.0000
# 3 76.9155 76.9155 227.5482 0.0000 0.0000 0.0000
# 4 0.0000 0.0000 0.0000 -45.7867 0.0000 0.0000
# 5 0.0000 0.0000 0.0000 0.0000 -45.7867 0.0000
# 6 0.0000 0.0000 0.0000 0.0000 0.0000 22.9627
#
#
#
# Elastic Compliance Matrix: (Units=1/GPa)
#
#
# Indices 1 2 3 4 5 6 
#
# 1 0.039969 -0.019604 -0.006884 0.000000 0.000000 0.000000
# 2 -0.019604 0.039969 -0.006884 0.000000 0.000000 0.000000
# 3 -0.006884 -0.006884 0.009048 0.000000 0.000000 0.000000
# 4 0.000000 0.000000 0.000000 -0.021840 0.000000 0.000000
# 5 0.000000 0.000000 0.000000 0.000000 -0.021840 0.000000
# 6 0.000000 0.000000 0.000000 0.000000 0.000000 0.043549
#
#
# Mechanical properties :
#
#
# Convention : Reuss Voigt Hill
#
# Bulk Modulus (GPa) = 44.95697 81.93471 63.44584
# Shear Modulus (GPa) = 30.67258 -3.75902 13.45678
#
# Velocity S-wave (km/s) = 4.17358 -1.46107 2.76442
# Velocity P-wave (km/s) = 6.98253 6.60938 6.79851
#
# Compressibility (1/GPa) = 0.02224349
#
# Stress axis : x y z
#
# Youngs Moduli (GPa) = 25.01938 25.01938 110.51719
#
# Poissons Ratio (x) = 0.49048 0.76078
# Poissons Ratio (y) = 0.49048 0.76078
# Poissons Ratio (z) = 0.17223 0.17223
#
# Static dielectric constant tensor:
#      x y z
#    x 1.587080 0.000000 0.000000 
#    y 0.000000 1.587080 0.000000 
#    z 0.000000 0.000000 1.604070 
# 
# From -- ./inp_files/5827.got.cif
#   From: 2010.05.17/outbox.cif.g08.bks.cpg/sg115_3_cif.got.tgz:5827.got - 2010.05.20 11:07:42.
