data_PCOD9556086
_publ_section_title
;
Structure prediction by ZEFSAII (Michael W. Deem and Ramdas Pophale) SiO2 
 PCOD9556086
Probable space group: P -4 21 C
;
_chemical_formula_sum "Si O2"
_cell_formula_units_Z 32
_cell_length_a 10.454819
_cell_length_b 10.454819
_cell_length_c 13.707605
_cell_angle_alpha 90.000000
_cell_angle_beta 90.000000
_cell_angle_gamma 90.000000
_cell_volume 1498.285644
_symmetry_space_group_name_H-M "P -4 21 C"
_symmetry_group_IT_number 114
_symmetry_cell_setting 'tetragonal'
loop_
_space_group_symop_operation_xyz
x,y,z
y,-x,-z
-x,-y,z
-y,x,-z
1/2+x,1/2-y,1/2-z
1/2-x,1/2+y,1/2-z
1/2-y,1/2-x,1/2+z
1/2+y,1/2+x,1/2+z
loop_
_atom_site_type_symbol
_atom_site_label
_atom_site_fract_x
_atom_site_fract_y
_atom_site_fract_z
Si Si1 0.704698 0.907444 0.592836
Si Si2 0.654569 0.925348 0.812424
Si Si3 0.571472 0.690823 0.476293
Si Si4 0.800011 0.571783 0.097021
O O1 0.661004 0.951765 0.698941
O O2 0.603363 0.813364 0.541323
O O3 0.829577 0.816523 0.610066
O O4 0.715140 0.021606 0.514361
O O5 0.556988 0.809827 0.837253
O O6 0.623923 0.058617 0.870692
O O7 0.785370 0.886485 0.865066
O O8 0.651088 0.574257 0.518078
#
# Coordination Sequence:
#
# PCOD9556086 Si02
#       4
#     8   8   8   8
#     4  11  24  44  70  95 145 173 228 288 323 430
#     4  10  23  41  70  99 134 185 221 270 349 402
#     4  10  21  41  65 100 133 174 229 283 325 392
#     4  10  24  45  63 104 131 183 223 277 352 384
#
# _framework density 21.357741999999998
#
# number of rings (size 3 to 8) (size 9 to 14) (size 15 to 20)
#    0.000    1.750    2.500    0.000    3.500   12.500 
#    0.000    0.000    0.000    0.000    0.000    0.000 
#    0.000    0.000    0.000    0.000    0.000    0.000 
#
# Total GULP energy -178236.004293 kJ/mol
# GULP energy per Si atom -5569.875134 kJ/mol
# Density = 2.130913 g / cm^3
# Si number density = 21.357742 Si / 1000 Ang^3
#
#
#
# Elastic Constant Matrix: (Units=GPa)
#
#
# Indices 1 2 3 4 5 6 
#
# 1 50.8613 27.0627 34.5676 0.0000 0.0000 0.0000
# 2 27.0627 50.8613 34.5676 0.0000 0.0000 0.0000
# 3 34.5676 34.5676 163.6992 0.0000 0.0000 0.0000
# 4 0.0000 0.0000 0.0000 9.6810 0.0000 0.0000
# 5 0.0000 0.0000 0.0000 0.0000 9.6810 0.0000
# 6 0.0000 0.0000 0.0000 0.0000 0.0000 24.0459
#
#
#
# Elastic Compliance Matrix: (Units=1/GPa)
#
#
# Indices 1 2 3 4 5 6 
#
# 1 0.028905 -0.013114 -0.003335 0.000000 0.000000 0.000000
# 2 -0.013114 0.028905 -0.003335 0.000000 0.000000 0.000000
# 3 -0.003335 -0.003335 0.007517 0.000000 0.000000 0.000000
# 4 0.000000 0.000000 0.000000 0.103295 0.000000 0.000000
# 5 0.000000 0.000000 0.000000 0.000000 0.103295 0.000000
# 6 0.000000 0.000000 0.000000 0.000000 0.000000 0.041587
#
#
# Mechanical properties :
#
#
# Convention : Reuss Voigt Hill
#
# Bulk Modulus (GPa) = 38.81741 50.86864 44.84302
# Shear Modulus (GPa) = 13.82521 19.96319 16.89420
#
# Velocity S-wave (km/s) = 2.54700 3.06061 2.81554
# Velocity P-wave (km/s) = 5.18304 6.02984 5.62240
#
# Compressibility (1/GPa) = 0.02576164
#
# Stress axis : x y z
#
# Youngs Moduli (GPa) = 34.59562 34.59562 133.03041
#
# Poissons Ratio (x) = 0.45368 0.44361
# Poissons Ratio (y) = 0.45368 0.44361
# Poissons Ratio (z) = 0.11536 0.11536
#
# Static dielectric constant tensor:
#      x y z
#    x 1.894290 0.000000 0.000000 
#    y 0.000000 1.894290 0.000000 
#    z 0.000000 0.000000 1.791740 
# 
# From -- ./inp_files/1357.got.cif
#   From: 2010.05.17/outbox.cif.g08.bks.cpg/sg114_1_cif.got.tgz:1357.got - 2010.05.20 11:04:54.
