data_PCOD9556987
_publ_section_title
;
Structure prediction by ZEFSAII (Michael W. Deem and Ramdas Pophale) SiO2 
 PCOD9556987
Probable space group: P -4 M 2
;
_chemical_formula_sum "Si O2"
_cell_formula_units_Z 48
_cell_length_a 9.182593
_cell_length_b 9.182593
_cell_length_c 31.793433
_cell_angle_alpha 90.000000
_cell_angle_beta 90.000000
_cell_angle_gamma 90.000000
_cell_volume 2680.822722
_symmetry_space_group_name_H-M "P -4 M 2"
_symmetry_group_IT_number 115
_symmetry_cell_setting 'tetragonal'
loop_
_space_group_symop_operation_xyz
x,y,z
y,-x,-z
-x,-y,z
-y,x,-z
y,x,-z
-y,-x,-z
-x,y,z
x,-y,z
loop_
_atom_site_type_symbol
_atom_site_label
_atom_site_fract_x
_atom_site_fract_y
_atom_site_fract_z
Si Si1 0.672229 0.825691 0.212153
Si Si2 0.173290 0.327408 0.038872
Si Si3 0.827226 0.673290 0.290357
Si Si4 0.674825 0.171943 0.368640
Si Si5 0.677206 0.331978 0.453726
Si Si6 0.172067 0.173473 0.125388
O O1 0.500000 0.797177 0.213529
O O2 0.753359 0.742339 0.249288
O O3 0.738458 0.785338 0.166820
O O4 0.694039 0.000000 0.217531
O O5 0.196424 0.500000 0.039893
O O6 0.217979 0.256608 0.083275
O O7 0.000000 0.299749 0.033998
O O8 0.256266 0.256266 0.000000
O O9 0.803594 0.500000 0.291122
O O10 0.755645 0.745441 0.331316
O O11 0.000000 0.701131 0.289674
O O12 0.500000 0.193921 0.364342
O O13 0.719994 0.236084 0.413930
O O14 0.702899 0.000000 0.366412
O O15 0.722684 0.277317 0.500000
O O16 0.500000 0.333304 0.455260
O O17 0.724176 0.500000 0.447870
O O18 0.000000 0.201957 0.132610
O O19 0.189231 0.000000 0.118712
#
# Coordination Sequence:
#
# PCOD9556987 Si02
#       6
#     8   8   8   8   8   8
#     4  10  21  37  58  84 111 139 173 214 262 317
#     4  10  21  36  55  80 110 144 182 224 268 314
#     4  11  24  39  55  77 105 139 179 221 265 313
#     4  10  20  34  54  80 108 139 176 217 263 315
#     4   8  14  27  49  75 103 138 178 217 258 306
#     4   9  18  34  56  80 108 144 182 218 259 311
#
# _framework density 17.904949999999999
#
# number of rings (size 3 to 8) (size 9 to 14) (size 15 to 20)
#    0.000    2.333    0.000    3.000    0.000    7.667 
#    0.000    4.167    0.000    3.000    0.000    0.000 
#    0.000    0.000    0.000    0.000    0.000    0.000 
#
# Total GULP energy -267956.792567 kJ/mol
# GULP energy per Si atom -5582.433178 kJ/mol
# Density = 1.786420 g / cm^3
# Si number density = 17.904950 Si / 1000 Ang^3
#
#
#
# Elastic Constant Matrix: (Units=GPa)
#
#
# Indices 1 2 3 4 5 6 
#
# 1 73.0814 70.6990 97.1183 0.0000 0.0000 0.0000
# 2 70.6990 73.0816 97.1183 0.0000 0.0000 0.0000
# 3 97.1183 97.1183 219.7798 0.0000 0.0000 0.0000
# 4 0.0000 0.0000 0.0000 34.4676 0.0000 0.0000
# 5 0.0000 0.0000 0.0000 0.0000 34.4675 0.0000
# 6 0.0000 0.0000 0.0000 0.0000 0.0000 23.4330
#
#
#
# Elastic Compliance Matrix: (Units=1/GPa)
#
#
# Indices 1 2 3 4 5 6 
#
# 1 0.218488 -0.201231 -0.007626 0.000000 0.000000 0.000000
# 2 -0.201231 0.218487 -0.007625 0.000000 0.000000 0.000000
# 3 -0.007626 -0.007625 0.011289 0.000000 0.000000 0.000000
# 4 0.000000 0.000000 0.000000 0.029013 0.000000 0.000000
# 5 0.000000 0.000000 0.000000 0.000000 0.029013 0.000000
# 6 0.000000 0.000000 0.000000 0.000000 0.000000 0.042675
#
#
# Mechanical properties :
#
#
# Convention : Reuss Voigt Hill
#
# Bulk Modulus (GPa) = 65.35803 99.53487 82.44645
# Shear Modulus (GPa) = 5.06572 25.20742 15.13657
#
# Velocity S-wave (km/s) = 1.68386 3.75620 2.91070
# Velocity P-wave (km/s) = 6.35315 8.63269 7.57911
#
# Compressibility (1/GPa) = 0.01530034
#
# Stress axis : x y z
#
# Youngs Moduli (GPa) = 4.57692 4.57694 88.58025
#
# Poissons Ratio (x) = 0.92102 0.67548
# Poissons Ratio (y) = 0.92102 0.67545
# Poissons Ratio (z) = 0.03490 0.03490
#
# Static dielectric constant tensor:
#      x y z
#    x 1.597230 0.000000 0.000000 
#    y 0.000000 1.597230 0.000000 
#    z 0.000000 0.000000 1.590610 
# 
# From -- ./inp_files/6072.got.cif
#   From: 2010.05.17/outbox.cif.g08.bks.cpg/sg115_4_cif.got.tgz:6072.got - 2010.05.20 11:07:42.
