data_PCOD9556533
_publ_section_title
;
Structure prediction by ZEFSAII (Michael W. Deem and Ramdas Pophale) SiO2 
 PCOD9556533
Probable space group: P -4 M 2
;
_chemical_formula_sum "Si O2"
_cell_formula_units_Z 37
_cell_length_a 12.440651
_cell_length_b 12.440651
_cell_length_c 16.533384
_cell_angle_alpha 90.000000
_cell_angle_beta 90.000000
_cell_angle_gamma 90.000000
_cell_volume 2558.868490
_symmetry_space_group_name_H-M "P -4 M 2"
_symmetry_group_IT_number 115
_symmetry_cell_setting 'tetragonal'
loop_
_space_group_symop_operation_xyz
x,y,z
y,-x,-z
-x,-y,z
-y,x,-z
y,x,-z
-y,-x,-z
-x,y,z
x,-y,z
loop_
_atom_site_type_symbol
_atom_site_label
_atom_site_fract_x
_atom_site_fract_y
_atom_site_fract_z
Si Si1 0.804725 0.130098 0.175174
Si Si2 0.235607 0.000000 0.528168
Si Si3 0.129823 0.000000 0.705698
Si Si4 0.128563 0.128563 0.000000
Si Si5 0.000000 0.000000 0.500000
Si Si6 0.874366 0.625502 0.705946
Si Si7 0.205269 0.371492 0.528056
O O1 0.694971 0.161824 0.218261
O O2 0.898167 0.158366 0.238628
O O3 0.808556 0.000000 0.168833
O O4 0.821771 0.169453 0.083994
O O5 0.127306 0.000000 0.472101
O O6 0.307739 0.105077 0.512066
O O7 0.187780 0.000000 0.619220
O O8 0.000000 0.000000 0.692308
O O9 0.000000 0.144849 0.006879
O O10 0.869798 0.500000 0.724208
O O11 0.809797 0.645744 0.624121
O O12 0.000000 0.652955 0.688622
O O13 0.314354 0.314354 0.500000
O O14 0.200200 0.500000 0.512652
#
# Coordination Sequence:
#
# PCOD9556533 Si02
#       7
#     8   4   4   4   1   8   8
#     4   9  16  24  40  61  92 125 151 183 226 277
#     4  12  21  32  47  73 101 132 161 199 254 297
#     4  10  18  27  39  66  98 127 154 185 232 287
#     4   9  14  24  36  60  92 124 148 179 222 282
#     4  12  24  28  48  76 104 122 156 200 240 296
#     4   9  17  30  46  65  90 121 157 197 238 280
#     4  11  22  35  51  69  96 131 170 212 251 289
#
# _framework density 14.459517
#
# number of rings (size 3 to 8) (size 9 to 14) (size 15 to 20)
#    0.000    2.054    3.784    1.622    0.000    0.216 
#    0.000    0.000    0.000    0.000    0.000    7.568 
#    0.000    0.000    0.000    0.000    0.000    0.000 
#
# Total GULP energy -206011.677877 kJ/mol
# GULP energy per Si atom -5567.883186 kJ/mol
# Density = 1.442661 g / cm^3
# Si number density = 14.459517 Si / 1000 Ang^3
#
#
#
# Elastic Constant Matrix: (Units=GPa)
#
#
# Indices 1 2 3 4 5 6 
#
# 1 58.8875 34.2055 44.3382 0.0000 0.0000 0.0000
# 2 34.2055 58.8875 44.3382 0.0000 0.0000 0.0000
# 3 44.3382 44.3382 135.3260 0.0000 0.0000 0.0000
# 4 0.0000 0.0000 0.0000 16.7066 0.0000 0.0000
# 5 0.0000 0.0000 0.0000 0.0000 16.7066 0.0000
# 6 0.0000 0.0000 0.0000 0.0000 0.0000 16.9600
#
#
#
# Elastic Compliance Matrix: (Units=1/GPa)
#
#
# Indices 1 2 3 4 5 6 
#
# 1 0.028065 -0.012450 -0.005116 0.000000 0.000000 0.000000
# 2 -0.012450 0.028065 -0.005116 0.000000 0.000000 0.000000
# 3 -0.005116 -0.005116 0.010742 0.000000 0.000000 0.000000
# 4 0.000000 0.000000 0.000000 0.059857 0.000000 0.000000
# 5 0.000000 0.000000 0.000000 0.000000 0.059857 0.000000
# 6 0.000000 0.000000 0.000000 0.000000 0.000000 0.058962
#
#
# Mechanical properties :
#
#
# Convention : Reuss Voigt Hill
#
# Bulk Modulus (GPa) = 46.49419 55.42945 50.96182
# Shear Modulus (GPa) = 16.77385 18.75589 17.76487
#
# Velocity S-wave (km/s) = 3.40965 3.60548 3.50893
# Velocity P-wave (km/s) = 6.90837 7.46660 7.19290
#
# Compressibility (1/GPa) = 0.02150806
#
# Stress axis : x y z
#
# Youngs Moduli (GPa) = 35.63099 35.63099 93.09130
#
# Poissons Ratio (x) = 0.44361 0.47628
# Poissons Ratio (y) = 0.44361 0.47628
# Poissons Ratio (z) = 0.18230 0.18230
#
# Static dielectric constant tensor:
#      x y z
#    x 1.480960 0.000000 0.000000 
#    y 0.000000 1.480960 0.000000 
#    z 0.000000 0.000000 1.503070 
# 
# From -- ./inp_files/3667.got.cif
#   From: 2010.05.17/outbox.cif.g08.bks.cpg/sg115_2_cif.got.tgz:3667.got - 2010.05.20 11:07:42.
