data_PCOD9556548
_publ_section_title
;
Structure prediction by ZEFSAII (Michael W. Deem and Ramdas Pophale) SiO2 
 PCOD9556548
Probable space group: P -4 M 2
;
_chemical_formula_sum "Si O2"
_cell_formula_units_Z 48
_cell_length_a 15.250644
_cell_length_b 15.250644
_cell_length_c 11.017730
_cell_angle_alpha 90.000000
_cell_angle_beta 90.000000
_cell_angle_gamma 90.000000
_cell_volume 2562.527248
_symmetry_space_group_name_H-M "P -4 M 2"
_symmetry_group_IT_number 115
_symmetry_cell_setting 'tetragonal'
loop_
_space_group_symop_operation_xyz
x,y,z
y,-x,-z
-x,-y,z
-y,x,-z
y,x,-z
-y,-x,-z
-x,y,z
x,-y,z
loop_
_atom_site_type_symbol
_atom_site_label
_atom_site_fract_x
_atom_site_fract_y
_atom_site_fract_z
Si Si1 0.401080 0.123836 0.454864
Si Si2 0.601295 0.097312 0.913313
Si Si3 0.694274 0.593056 0.418033
Si Si4 0.399832 0.158613 0.179248
Si Si5 0.235094 0.276617 0.218769
Si Si6 0.100096 0.783503 0.409912
O O1 0.500000 0.092409 0.488926
O O2 0.404316 0.226794 0.485151
O O3 0.389118 0.112335 0.310595
O O4 0.315058 0.095756 0.530232
O O5 0.500000 0.109494 0.873012
O O6 0.660653 0.176651 0.865844
O O7 0.630108 0.000000 0.870856
O O8 0.601300 0.099620 0.059395
O O9 0.610790 0.610790 0.500000
O O10 0.691873 0.500000 0.355544
O O11 0.717224 0.665143 0.320472
O O12 0.500000 0.197858 0.183210
O O13 0.315565 0.221802 0.164275
O O14 0.162104 0.220880 0.291748
O O15 0.150722 0.849279 0.500000
O O16 0.000000 0.810156 0.386078
#
# Coordination Sequence:
#
# PCOD9556548 Si02
#       6
#     8   8   8   8   8   8
#     4   9  17  33  55  81 108 139 180 228 283 338
#     4  10  22  37  54  81 112 144 185 235 292 345
#     4  10  18  29  48  73 107 142 178 220 269 326
#     4  10  19  34  58  81 110 146 182 230 285 342
#     4  11  19  37  56  81 107 148 189 233 280 340
#     4  11  22  37  56  81 114 152 190 232 283 338
#
# _framework density 18.731508000000002
#
# number of rings (size 3 to 8) (size 9 to 14) (size 15 to 20)
#    0.000    1.833    3.333    2.500    0.000    2.000 
#    0.000    1.667    0.000    1.500    0.000    4.667 
#    0.000    1.333    0.000    0.000    0.000    0.000 
#
# Total GULP energy -267235.401659 kJ/mol
# GULP energy per Si atom -5567.404201 kJ/mol
# Density = 1.868887 g / cm^3
# Si number density = 18.731508 Si / 1000 Ang^3
#
#
#
# Elastic Constant Matrix: (Units=GPa)
#
#
# Indices 1 2 3 4 5 6 
#
# 1 90.7058 66.6117 13.1013 0.0000 0.0000 0.0000
# 2 66.6117 90.7065 13.1009 0.0000 0.0000 0.0000
# 3 13.1013 13.1009 45.9405 0.0000 0.0000 0.0000
# 4 0.0000 0.0000 0.0000 36.9039 0.0000 0.0000
# 5 0.0000 0.0000 0.0000 0.0000 36.9038 0.0000
# 6 0.0000 0.0000 0.0000 0.0000 0.0000 -7.2429
#
#
#
# Elastic Compliance Matrix: (Units=1/GPa)
#
#
# Indices 1 2 3 4 5 6 
#
# 1 0.024089 -0.017415 -0.001903 0.000000 0.000000 0.000000
# 2 -0.017415 0.024088 -0.001903 0.000000 0.000000 0.000000
# 3 -0.001903 -0.001903 0.022853 0.000000 0.000000 0.000000
# 4 0.000000 0.000000 0.000000 0.027097 0.000000 0.000000
# 5 0.000000 0.000000 0.000000 0.000000 0.027097 0.000000
# 6 0.000000 0.000000 0.000000 0.000000 0.000000 -0.138066
#
#
# Mechanical properties :
#
#
# Convention : Reuss Voigt Hill
#
# Bulk Modulus (GPa) = 34.98057 45.88671 40.43364
# Shear Modulus (GPa) = 127.77876 22.28222 75.03049
#
# Velocity S-wave (km/s) = 8.26825 3.45274 6.33583
# Velocity P-wave (km/s) = 10.48176 6.35967 8.66928
#
# Compressibility (1/GPa) = 0.02858730
#
# Stress axis : x y z
#
# Youngs Moduli (GPa) = 41.51342 41.51388 43.75847
#
# Poissons Ratio (x) = 0.72296 0.08329
# Poissons Ratio (y) = 0.72295 0.08327
# Poissons Ratio (z) = 0.07901 0.07900
#
# Static dielectric constant tensor:
#      x y z
#    x 1.666640 0.000000 0.000000 
#    y 0.000000 1.666640 0.000000 
#    z 0.000000 0.000000 1.654860 
# 
# From -- ./inp_files/2924.got.cif
#   From: 2010.05.17/outbox.cif.g08.bks.cpg/sg115_2_cif.got.tgz:2924.got - 2010.05.20 11:07:42.
