data_PCOD9556891
_publ_section_title
;
Structure prediction by ZEFSAII (Michael W. Deem and Ramdas Pophale) SiO2 
 PCOD9556891
Probable space group: P -4 M 2
;
_chemical_formula_sum "Si O2"
_cell_formula_units_Z 48
_cell_length_a 9.321028
_cell_length_b 9.321028
_cell_length_c 32.141302
_cell_angle_alpha 90.000000
_cell_angle_beta 90.000000
_cell_angle_gamma 90.000000
_cell_volume 2792.486554
_symmetry_space_group_name_H-M "P -4 M 2"
_symmetry_group_IT_number 115
_symmetry_cell_setting 'tetragonal'
loop_
_space_group_symop_operation_xyz
x,y,z
y,-x,-z
-x,-y,z
-y,x,-z
y,x,-z
-y,-x,-z
-x,y,z
x,-y,z
loop_
_atom_site_type_symbol
_atom_site_label
_atom_site_fract_x
_atom_site_fract_y
_atom_site_fract_z
Si Si1 0.665269 0.825541 0.129442
Si Si2 0.328252 0.669700 0.287232
Si Si3 0.828277 0.169820 0.787671
Si Si4 0.834151 0.174817 0.454420
Si Si5 0.328332 0.168509 0.371486
Si Si6 0.327237 0.168124 0.036826
O O1 0.500000 0.779952 0.135997
O O2 0.762800 0.782516 0.168095
O O3 0.714348 0.780262 0.083340
O O4 0.664311 0.000000 0.128202
O O5 0.500000 0.691628 0.282390
O O6 0.300617 0.500000 0.287603
O O7 0.247104 0.746342 0.249640
O O8 0.285390 0.741210 0.331103
O O9 0.000000 0.194357 0.783190
O O10 0.803313 0.000000 0.787122
O O11 0.778977 0.221024 0.500000
O O12 0.744780 0.218537 0.414195
O O13 0.000000 0.218668 0.449673
O O14 0.832060 0.000000 0.455856
O O15 0.500000 0.178212 0.375889
O O16 0.292034 0.000000 0.365033
O O17 0.500000 0.177509 0.034914
O O18 0.288467 0.000000 0.032913
O O19 0.256056 0.256056 0.000000
#
# Coordination Sequence:
#
# PCOD9556891 Si02
#       6
#     8   8   8   8   8   8
#     4   8  15  30  51  72  96 128 165 203 240 282
#     4  10  21  36  52  70  96 131 167 201 241 291
#     4  10  20  33  52  78 102 124 157 202 248 294
#     4   8  14  26  45  68  93 121 153 190 233 281
#     4   9  17  30  49  71  93 120 158 201 239 279
#     4   9  18  32  50  74 102 131 165 203 242 286
#
# _framework density 17.188981999999999
#
# number of rings (size 3 to 8) (size 9 to 14) (size 15 to 20)
#    0.000    3.000    0.000    2.500    0.000    3.667 
#    0.000    5.000    0.000    2.000    0.000    0.000 
#    0.000    0.000    0.000    0.000    0.000    0.000 
#
# Total GULP energy -267475.363029 kJ/mol
# GULP energy per Si atom -5572.403396 kJ/mol
# Density = 1.714986 g / cm^3
# Si number density = 17.188982 Si / 1000 Ang^3
#
#
#
# Elastic Constant Matrix: (Units=GPa)
#
#
# Indices 1 2 3 4 5 6 
#
# 1 41.9684 40.3029 73.7678 0.0000 0.0000 0.0000
# 2 40.3029 41.9683 73.7677 0.0000 0.0000 0.0000
# 3 73.7678 73.7677 216.9672 0.0000 0.0000 0.0000
# 4 0.0000 0.0000 0.0000 99.1704 0.0000 0.0000
# 5 0.0000 0.0000 0.0000 0.0000 99.1661 0.0000
# 6 0.0000 0.0000 0.0000 0.0000 0.0000 19.1539
#
#
#
# Elastic Compliance Matrix: (Units=1/GPa)
#
#
# Indices 1 2 3 4 5 6 
#
# 1 0.315799 -0.284657 -0.010588 0.000000 0.000000 0.000000
# 2 -0.284657 0.315801 -0.010589 0.000000 0.000000 0.000000
# 3 -0.010588 -0.010589 0.011809 0.000000 0.000000 0.000000
# 4 0.000000 0.000000 0.000000 0.010084 0.000000 0.000000
# 5 0.000000 0.000000 0.000000 0.000000 0.010084 0.000000
# 6 0.000000 0.000000 0.000000 0.000000 0.000000 0.052209
#
#
# Mechanical properties :
#
#
# Convention : Reuss Voigt Hill
#
# Bulk Modulus (GPa) = 31.50480 75.17564 53.34022
# Shear Modulus (GPa) = 3.73683 51.03579 27.38631
#
# Velocity S-wave (km/s) = 1.47604 5.45486 3.99588
# Velocity P-wave (km/s) = 4.61229 9.13803 7.23798
#
# Compressibility (1/GPa) = 0.03174119
#
# Stress axis : x y z
#
# Youngs Moduli (GPa) = 3.16658 3.16655 84.68087
#
# Poissons Ratio (x) = 0.90138 0.89661
# Poissons Ratio (y) = 0.90139 0.89667
# Poissons Ratio (z) = 0.03353 0.03353
#
# Static dielectric constant tensor:
#      x y z
#    x 1.571460 0.000000 0.000000 
#    y 0.000000 1.571460 0.000000 
#    z 0.000000 0.000000 1.582260 
# 
# From -- ./inp_files/6081.got.cif
#   From: 2010.05.17/outbox.cif.g08.bks.cpg/sg115_4_cif.got.tgz:6081.got - 2010.05.20 11:07:42.
