data_PCOD9556358
_publ_section_title
;
Structure prediction by ZEFSAII (Michael W. Deem and Ramdas Pophale) SiO2 
 PCOD9556358
Probable space group: P -4 21 C
;
_chemical_formula_sum "Si O2"
_cell_formula_units_Z 60
_cell_length_a 11.638506
_cell_length_b 11.638506
_cell_length_c 23.001145
_cell_angle_alpha 90.000000
_cell_angle_beta 90.000000
_cell_angle_gamma 90.000000
_cell_volume 3115.616000
_symmetry_space_group_name_H-M "P -4 21 C"
_symmetry_group_IT_number 114
_symmetry_cell_setting 'tetragonal'
loop_
_space_group_symop_operation_xyz
x,y,z
y,-x,-z
-x,-y,z
-y,x,-z
1/2+x,1/2-y,1/2-z
1/2-x,1/2+y,1/2-z
1/2-y,1/2-x,1/2+z
1/2+y,1/2+x,1/2+z
loop_
_atom_site_type_symbol
_atom_site_label
_atom_site_fract_x
_atom_site_fract_y
_atom_site_fract_z
Si Si1 0.804251 0.732898 0.160858
Si Si2 0.217957 0.027042 0.645985
Si Si3 0.000000 0.000000 0.719101
Si Si4 0.083511 0.402663 0.267478
Si Si5 0.686308 0.501141 0.313822
Si Si6 0.640002 0.507606 0.438860
Si Si7 0.743586 0.669988 0.536714
Si Si8 0.158724 0.926442 0.519756
O O1 0.666873 0.714742 0.149705
O O2 0.857023 0.663608 0.214358
O O3 0.826582 0.865035 0.177989
O O4 0.865934 0.704833 0.099181
O O5 0.323389 0.981783 0.685278
O O6 0.209000 0.980499 0.579555
O O7 0.106897 0.974986 0.678120
O O8 0.964552 0.896520 0.761492
O O9 0.184893 0.467012 0.300605
O O10 0.000000 0.500000 0.243473
O O11 0.653819 0.558746 0.374803
O O12 0.500000 0.500000 0.444234
O O13 0.703766 0.579861 0.488042
O O14 0.705453 0.384878 0.442325
O O15 0.830904 0.757813 0.507233
O O16 0.033252 0.865904 0.524196
#
# Coordination Sequence:
#
# PCOD9556358 Si02
#       8
#     8   8   4   8   8   8   8   8
#     4  11  24  43  66  94 135 176 214 277 335 400
#     4  12  24  43  68  98 132 180 229 270 335 403
#     4  12  22  38  71  99 124 180 228 264 330 414
#     4  12  25  43  68 104 138 173 219 286 339 398
#     4  11  23  40  67  97 132 171 225 268 338 402
#     4  11  21  41  70  98 129 173 219 282 335 405
#     4  11  22  43  67  96 129 170 221 277 335 388
#     4  11  24  44  67  93 130 180 225 273 325 400
#
# _framework density 19.257829000000001
#
# number of rings (size 3 to 8) (size 9 to 14) (size 15 to 20)
#    0.000    0.667    7.333    1.600    0.000    0.000 
#    0.000    3.333    0.000    0.000    0.000    0.000 
#    0.000    0.000    0.000    0.000    0.000    0.000 
#
# Total GULP energy -334324.338871 kJ/mol
# GULP energy per Si atom -5572.072315 kJ/mol
# Density = 1.921400 g / cm^3
# Si number density = 19.257829 Si / 1000 Ang^3
#
#
#
# Elastic Constant Matrix: (Units=GPa)
#
#
# Indices 1 2 3 4 5 6 
#
# 1 69.4747 33.8786 36.6737 0.0000 0.0000 0.0000
# 2 33.8786 69.4747 36.6737 0.0000 0.0000 0.0000
# 3 36.6737 36.6737 119.7536 0.0000 0.0000 0.0000
# 4 0.0000 0.0000 0.0000 18.7085 0.0000 0.0000
# 5 0.0000 0.0000 0.0000 0.0000 18.7085 0.0000
# 6 0.0000 0.0000 0.0000 0.0000 0.0000 32.3725
#
#
#
# Elastic Compliance Matrix: (Units=1/GPa)
#
#
# Indices 1 2 3 4 5 6 
#
# 1 0.020228 -0.007865 -0.003786 0.000000 0.000000 0.000000
# 2 -0.007865 0.020228 -0.003786 0.000000 0.000000 0.000000
# 3 -0.003786 -0.003786 0.010669 0.000000 0.000000 0.000000
# 4 0.000000 0.000000 0.000000 0.053452 0.000000 0.000000
# 5 0.000000 0.000000 0.000000 0.000000 0.053452 0.000000
# 6 0.000000 0.000000 0.000000 0.000000 0.000000 0.030890
#
#
# Mechanical properties :
#
#
# Convention : Reuss Voigt Hill
#
# Bulk Modulus (GPa) = 49.38178 52.57278 50.97728
# Shear Modulus (GPa) = 22.07094 24.05638 23.06366
#
# Velocity S-wave (km/s) = 3.38905 3.53820 3.46443
# Velocity P-wave (km/s) = 6.40408 6.63706 6.52161
#
# Compressibility (1/GPa) = 0.02025038
#
# Stress axis : x y z
#
# Youngs Moduli (GPa) = 49.43733 49.43733 93.72726
#
# Poissons Ratio (x) = 0.38884 0.35484
# Poissons Ratio (y) = 0.38884 0.35484
# Poissons Ratio (z) = 0.18716 0.18716
#
# Static dielectric constant tensor:
#      x y z
#    x 1.691000 0.000000 0.000000 
#    y 0.000000 1.691000 0.000000 
#    z 0.000000 0.000000 1.745490 
# 
# From -- ./inp_files/3227.got.cif
#   From: 2010.05.17/outbox.cif.g08.bks.cpg/sg114_2_cif.got.tgz:3227.got - 2010.05.20 11:04:54.
