data_PCOD9556351
_publ_section_title
;
Structure prediction by ZEFSAII (Michael W. Deem and Ramdas Pophale) SiO2 
 PCOD9556351
Probable space group: P -4 21 C
;
_chemical_formula_sum "Si O2"
_cell_formula_units_Z 42
_cell_length_a 15.227400
_cell_length_b 15.227400
_cell_length_c 9.309839
_cell_angle_alpha 90.000000
_cell_angle_beta 90.000000
_cell_angle_gamma 90.000000
_cell_volume 2158.706916
_symmetry_space_group_name_H-M "P -4 21 C"
_symmetry_group_IT_number 114
_symmetry_cell_setting 'tetragonal'
loop_
_space_group_symop_operation_xyz
x,y,z
y,-x,-z
-x,-y,z
-y,x,-z
1/2+x,1/2-y,1/2-z
1/2-x,1/2+y,1/2-z
1/2-y,1/2-x,1/2+z
1/2+y,1/2+x,1/2+z
loop_
_atom_site_type_symbol
_atom_site_label
_atom_site_fract_x
_atom_site_fract_y
_atom_site_fract_z
Si Si1 0.236748 0.542728 0.578947
Si Si2 0.034778 0.403423 0.287623
Si Si3 0.000000 0.000000 0.500000
Si Si4 0.090238 0.684838 0.522783
Si Si5 0.461648 0.771181 0.719208
Si Si6 0.644917 0.391744 0.828403
O O1 0.168477 0.480559 0.664577
O O2 0.177399 0.628743 0.549412
O O3 0.264737 0.501061 0.428961
O O4 0.316187 0.566134 0.683532
O O5 0.137304 0.414008 0.317506
O O6 0.000000 0.500000 0.243993
O O7 0.976806 0.371254 0.422896
O O8 0.952030 0.071544 0.401362
O O9 0.113041 0.773140 0.437186
O O10 0.040307 0.706949 0.670134
O O11 0.397256 0.702009 0.792905
#
# Coordination Sequence:
#
# PCOD9556351 Si02
#       6
#     8   8   2   8   8   8
#     4  11  24  42  67 107 140 171 224 290 341 401
#     4  11  21  38  69 104 139 179 215 264 350 419
#     4  12  24  56  74  80 128 196 254 272 348 412
#     4  11  22  43  68 100 141 178 218 282 351 415
#     4  12  23  40  69 102 135 178 228 281 345 411
#     4  11  27  46  69  95 133 188 233 283 338 411
#
# _framework density 19.456092000000002
#
# number of rings (size 3 to 8) (size 9 to 14) (size 15 to 20)
#    0.000    0.762    5.714    2.286    0.000    4.571 
#    0.000    0.000    0.000    0.000    0.000    0.000 
#    0.000    0.000    0.000    0.000    0.000    0.000 
#
# Total GULP energy -234953.255771 kJ/mol
# GULP energy per Si atom -5594.125137 kJ/mol
# Density = 1.941181 g / cm^3
# Si number density = 19.456092 Si / 1000 Ang^3
#
#
#
# Elastic Constant Matrix: (Units=GPa)
#
#
# Indices 1 2 3 4 5 6 
#
# 1 86.9489 71.1398 30.2129 0.0000 0.0000 0.0000
# 2 71.1398 86.9489 30.2129 0.0000 0.0000 0.0000
# 3 30.2129 30.2129 99.8012 0.0000 0.0000 0.0000
# 4 0.0000 0.0000 0.0000 16.2020 0.0000 0.0000
# 5 0.0000 0.0000 0.0000 0.0000 16.2020 0.0000
# 6 0.0000 0.0000 0.0000 0.0000 0.0000 36.4038
#
#
#
# Elastic Compliance Matrix: (Units=1/GPa)
#
#
# Indices 1 2 3 4 5 6 
#
# 1 0.035204 -0.028051 -0.002166 0.000000 0.000000 0.000000
# 2 -0.028051 0.035204 -0.002166 0.000000 0.000000 0.000000
# 3 -0.002166 -0.002166 0.011331 0.000000 0.000000 0.000000
# 4 0.000000 0.000000 0.000000 0.061721 0.000000 0.000000
# 5 0.000000 0.000000 0.000000 0.000000 0.061721 0.000000
# 6 0.000000 0.000000 0.000000 0.000000 0.000000 0.027470
#
#
# Mechanical properties :
#
#
# Convention : Reuss Voigt Hill
#
# Bulk Modulus (GPa) = 58.90828 59.64782 59.27805
# Shear Modulus (GPa) = 16.49775 23.23714 19.86745
#
# Velocity S-wave (km/s) = 2.91511 3.45967 3.19900
# Velocity P-wave (km/s) = 6.45552 6.83252 6.64669
#
# Compressibility (1/GPa) = 0.01697554
#
# Stress axis : x y z
#
# Youngs Moduli (GPa) = 28.40594 28.40594 88.25296
#
# Poissons Ratio (x) = 0.79680 0.19111
# Poissons Ratio (y) = 0.79680 0.19111
# Poissons Ratio (z) = 0.06151 0.06151
#
# Static dielectric constant tensor:
#      x y z
#    x 1.657360 0.000000 0.000000 
#    y 0.000000 1.657360 0.000000 
#    z 0.000000 0.000000 1.685820 
# 
# From -- ./inp_files/800.got.cif
#   From: 2010.05.17/outbox.cif.g08.bks.cpg/sg114_1_cif.got.tgz:800.got - 2010.05.20 11:04:54.
