data_PCOD9556183
_publ_section_title
;
Structure prediction by ZEFSAII (Michael W. Deem and Ramdas Pophale) SiO2 
 PCOD9556183
Probable space group: P -4 21 C
;
_chemical_formula_sum "Si O2"
_cell_formula_units_Z 42
_cell_length_a 7.857983
_cell_length_b 7.857983
_cell_length_c 30.437061
_cell_angle_alpha 90.000000
_cell_angle_beta 90.000000
_cell_angle_gamma 90.000000
_cell_volume 1879.424502
_symmetry_space_group_name_H-M "P -4 21 C"
_symmetry_group_IT_number 114
_symmetry_cell_setting 'tetragonal'
loop_
_space_group_symop_operation_xyz
x,y,z
y,-x,-z
-x,-y,z
-y,x,-z
1/2+x,1/2-y,1/2-z
1/2-x,1/2+y,1/2-z
1/2-y,1/2-x,1/2+z
1/2+y,1/2+x,1/2+z
loop_
_atom_site_type_symbol
_atom_site_label
_atom_site_fract_x
_atom_site_fract_y
_atom_site_fract_z
Si Si1 0.841342 0.256410 0.432020
Si Si2 0.395906 0.797486 0.598764
Si Si3 0.000000 0.000000 0.500000
Si Si4 0.470482 0.198122 0.867700
Si Si5 0.818859 0.028519 0.188167
Si Si6 0.321354 0.098306 0.273786
O O1 0.739124 0.438482 0.430253
O O2 0.878961 0.132922 0.473423
O O3 0.026709 0.326126 0.419849
O O4 0.774749 0.123318 0.395849
O O5 0.213463 0.705746 0.607884
O O6 0.468801 0.810687 0.648303
O O7 0.472883 0.270773 0.817857
O O8 0.500000 0.000000 0.860961
O O9 0.840250 0.207628 0.212291
O O10 0.775750 0.904690 0.227766
O O11 0.000000 0.000000 0.165706
O O12 0.500000 0.000000 0.266605
#
# Coordination Sequence:
#
# PCOD9556183 Si02
#       6
#     8   8   2   8   8   8
#     4  11  24  45  75  99 140 180 234 295 366 452
#     4  10  24  43  69 103 137 193 227 285 367 431
#     4  12  24  52  76 108 128 184 240 304 380 472
#     4  10  22  42  68 105 146 192 238 292 354 423
#     4  11  24  39  62  94 141 185 244 295 338 412
#     4  10  23  37  59  94 135 191 243 285 345 397
#
# _framework density 22.347268
#
# number of rings (size 3 to 8) (size 9 to 14) (size 15 to 20)
#    0.000    1.524    1.905    1.143   13.333    3.048 
#    3.429    0.000    0.000    0.000    0.000    0.000 
#    0.000    0.000    0.000    0.000    0.000    0.000 
#
# Total GULP energy -233837.489195 kJ/mol
# GULP energy per Si atom -5567.559267 kJ/mol
# Density = 2.229640 g / cm^3
# Si number density = 22.347268 Si / 1000 Ang^3
#
#
#
# Elastic Constant Matrix: (Units=GPa)
#
#
# Indices 1 2 3 4 5 6 
#
# 1 65.3802 -2.6943 6.7361 0.0000 0.0000 0.0000
# 2 -2.6943 65.3802 6.7361 0.0000 0.0000 0.0000
# 3 6.7361 6.7361 39.1549 0.0000 0.0000 0.0000
# 4 0.0000 0.0000 0.0000 24.2103 0.0000 0.0000
# 5 0.0000 0.0000 0.0000 0.0000 24.2103 0.0000
# 6 0.0000 0.0000 0.0000 0.0000 0.0000 29.6191
#
#
#
# Elastic Compliance Matrix: (Units=1/GPa)
#
#
# Indices 1 2 3 4 5 6 
#
# 1 0.015627 0.000938 -0.002850 0.000000 0.000000 0.000000
# 2 0.000938 0.015627 -0.002850 0.000000 0.000000 0.000000
# 3 -0.002850 -0.002850 0.026520 0.000000 0.000000 0.000000
# 4 0.000000 0.000000 0.000000 0.041305 0.000000 0.000000
# 5 0.000000 0.000000 0.000000 0.000000 0.041305 0.000000
# 6 0.000000 0.000000 0.000000 0.000000 0.000000 0.033762
#
#
# Mechanical properties :
#
#
# Convention : Reuss Voigt Hill
#
# Bulk Modulus (GPa) = 20.72495 21.27455 20.99975
# Shear Modulus (GPa) = 25.03079 26.21711 25.62395
#
# Velocity S-wave (km/s) = 3.35039 3.42887 3.38986
# Velocity P-wave (km/s) = 4.92555 5.02164 4.97383
#
# Compressibility (1/GPa) = 0.04825103
#
# Stress axis : x y z
#
# Youngs Moduli (GPa) = 63.99021 63.99021 37.70718
#
# Poissons Ratio (x) = -0.06000 0.10746
# Poissons Ratio (y) = -0.06000 0.10746
# Poissons Ratio (z) = 0.18236 0.18236
#
# Static dielectric constant tensor:
#      x y z
#    x 1.996360 0.000000 0.000000 
#    y 0.000000 1.996360 0.000000 
#    z 0.000000 0.000000 1.847250 
# 
# From -- ./inp_files/3672.got.cif
#   From: 2010.05.17/outbox.cif.g08.bks.cpg/sg114_2_cif.got.tgz:3672.got - 2010.05.20 11:04:54.
