data_PCOD9556665
_publ_section_title
;
Structure prediction by ZEFSAII (Michael W. Deem and Ramdas Pophale) SiO2 
 PCOD9556665
Probable space group: P -4 M 2
;
_chemical_formula_sum "Si O2"
_cell_formula_units_Z 49
_cell_length_a 8.338223
_cell_length_b 8.338223
_cell_length_c 35.029978
_cell_angle_alpha 90.000000
_cell_angle_beta 90.000000
_cell_angle_gamma 90.000000
_cell_volume 2435.492947
_symmetry_space_group_name_H-M "P -4 M 2"
_symmetry_group_IT_number 115
_symmetry_cell_setting 'tetragonal'
loop_
_space_group_symop_operation_xyz
x,y,z
y,-x,-z
-x,-y,z
-y,x,-z
y,x,-z
-y,-x,-z
-x,y,z
x,-y,z
loop_
_atom_site_type_symbol
_atom_site_label
_atom_site_fract_x
_atom_site_fract_y
_atom_site_fract_z
Si Si1 0.690677 0.690677 0.000000
Si Si2 0.000000 0.000000 0.500000
Si Si3 0.192889 0.686088 0.080699
Si Si4 0.193062 0.322058 0.241381
Si Si5 0.185226 0.194678 0.838319
Si Si6 0.000000 0.303879 0.556256
Si Si7 0.305582 0.323748 0.395562
Si Si8 0.818529 0.308364 0.681829
O O1 0.757606 0.754843 0.959922
O O2 0.719689 0.500000 0.000093
O O3 0.000000 0.831536 0.523467
O O4 0.243690 0.500000 0.081418
O O5 0.253672 0.762900 0.119952
O O6 0.000000 0.691066 0.081302
O O7 0.248969 0.500000 0.251351
O O8 0.253138 0.277708 0.199107
O O9 0.241750 0.210338 0.276134
O O10 0.000000 0.320648 0.239173
O O11 0.000000 0.229738 0.832257
O O12 0.204639 0.000000 0.839463
O O13 0.835685 0.270813 0.580018
O O14 0.000000 0.500000 0.547205
O O15 0.500000 0.328410 0.394280
O O16 0.251077 0.500000 0.409596
O O17 0.248263 0.295664 0.352006
O O18 0.800013 0.500000 0.684283
O O19 0.000000 0.273899 0.669630
#
# Coordination Sequence:
#
# PCOD9556665 Si02
#       8
#     4   1   8   8   8   4   8   8
#     4   9  18  32  48  67  92 118 144 183 242 306
#     4  12  28  44  68 104 132 172 220 260 332 376
#     4   9  17  30  48  67  86 114 152 193 240 301
#     4  10  20  33  49  73 105 142 186 231 274 331
#     4   9  17  30  48  68  93 127 167 210 262 315
#     4  10  22  44  66  92 132 168 210 264 314 376
#     4   9  17  34  62  89 117 160 206 248 304 367
#     4  10  19  33  54  81 114 151 192 241 293 343
#
# _framework density 20.119128
#
# number of rings (size 3 to 8) (size 9 to 14) (size 15 to 20)
#    0.000    2.531    0.816    1.469    0.000    5.224 
#    1.469    0.816    0.000    2.939    0.000    0.000 
#    0.000    0.000    0.000    0.000    0.000    0.000 
#
# Total GULP energy -272993.085953 kJ/mol
# GULP energy per Si atom -5571.287468 kJ/mol
# Density = 2.007334 g / cm^3
# Si number density = 20.119128 Si / 1000 Ang^3
#
#
#
# Elastic Constant Matrix: (Units=GPa)
#
#
# Indices 1 2 3 4 5 6 
#
# 1 21.5096 42.6222 37.5597 0.0000 0.0000 0.0000
# 2 42.6222 21.5096 37.5597 0.0000 0.0000 0.0000
# 3 37.5597 37.5597 114.7019 0.0000 0.0000 0.0000
# 4 0.0000 0.0000 0.0000 33.6614 0.0000 0.0000
# 5 0.0000 0.0000 0.0000 0.0000 33.6614 0.0000
# 6 0.0000 0.0000 0.0000 0.0000 0.0000 12.0269
#
#
#
# Elastic Compliance Matrix: (Units=1/GPa)
#
#
# Indices 1 2 3 4 5 6 
#
# 1 -0.011035 0.036330 -0.008283 0.000000 0.000000 0.000000
# 2 0.036330 -0.011035 -0.008283 0.000000 0.000000 0.000000
# 3 -0.008283 -0.008283 0.014143 0.000000 0.000000 0.000000
# 4 0.000000 0.000000 0.000000 0.029708 0.000000 0.000000
# 5 0.000000 0.000000 0.000000 0.000000 0.029708 0.000000
# 6 0.000000 0.000000 0.000000 0.000000 0.000000 0.083147
#
#
# Mechanical properties :
#
#
# Convention : Reuss Voigt Hill
#
# Bulk Modulus (GPa) = 31.64466 43.68938 37.66702
# Shear Modulus (GPa) = 47.33017 18.53524 32.93270
#
# Velocity S-wave (km/s) = 4.85552 3.03854 4.05023
# Velocity P-wave (km/s) = 6.87004 5.83719 6.37457
#
# Compressibility (1/GPa) = 0.03160091
#
# Stress axis : x y z
#
# Youngs Moduli (GPa) = -90.62096 -90.62096 70.70719
#
# Poissons Ratio (x) = 3.29225 0.58566
# Poissons Ratio (y) = 3.29225 0.58566
# Poissons Ratio (z) = -0.75061 -0.75061
#
# Static dielectric constant tensor:
#      x y z
#    x 1.716820 0.000000 0.000000 
#    y 0.000000 1.716820 0.000000 
#    z 0.000000 0.000000 1.736500 
# 
# From -- ./inp_files/6301.got.cif
#   From: 2010.05.17/outbox.cif.g08.bks.cpg/sg115_4_cif.got.tgz:6301.got - 2010.05.20 11:07:42.
