data_PCOD9556566
_publ_section_title
;
Structure prediction by ZEFSAII (Michael W. Deem and Ramdas Pophale) SiO2 
 PCOD9556566
Probable space group: P -4 M 2
;
_chemical_formula_sum "Si O2"
_cell_formula_units_Z 37
_cell_length_a 11.827494
_cell_length_b 11.827494
_cell_length_c 15.194740
_cell_angle_alpha 90.000000
_cell_angle_beta 90.000000
_cell_angle_gamma 90.000000
_cell_volume 2125.586318
_symmetry_space_group_name_H-M "P -4 M 2"
_symmetry_group_IT_number 115
_symmetry_cell_setting 'tetragonal'
loop_
_space_group_symop_operation_xyz
x,y,z
y,-x,-z
-x,-y,z
-y,x,-z
y,x,-z
-y,-x,-z
-x,y,z
x,-y,z
loop_
_atom_site_type_symbol
_atom_site_label
_atom_site_fract_x
_atom_site_fract_y
_atom_site_fract_z
Si Si1 0.000000 0.000000 0.000000
Si Si2 0.688738 0.000000 0.295343
Si Si3 0.759408 0.633791 0.422709
Si Si4 0.229493 0.366854 0.927986
Si Si5 0.364373 0.000000 0.490128
Si Si6 0.375491 0.745224 0.272013
Si Si7 0.769265 0.000000 0.108001
O O1 0.110786 0.000000 0.060793
O O2 0.708581 0.000000 0.400330
O O3 0.625403 0.881596 0.279447
O O4 0.778879 0.000000 0.215054
O O5 0.679068 0.679068 0.500000
O O6 0.747506 0.500000 0.411681
O O7 0.720543 0.696307 0.334494
O O8 0.887243 0.657304 0.454178
O O9 0.212053 0.500000 0.945901
O O10 0.282752 0.358389 0.830160
O O11 0.110413 0.301243 0.921137
O O12 0.308011 0.308011 0.000000
O O13 0.500000 0.000000 0.466179
O O14 0.500000 0.704849 0.300969
#
# Coordination Sequence:
#
# PCOD9556566 Si02
#       7
#     1   4   8   8   4   8   4
#     4  12  20  40  68  92 120 150 188 252 320 344
#     4  10  18  34  58  82 107 149 193 229 274 337
#     4  11  22  35  54  81 112 147 187 237 292 344
#     4  10  21  38  60  88 118 156 201 246 297 354
#     4  10  20  36  58  78 107 151 196 235 277 337
#     4  10  20  35  58  84 113 149 192 238 283 342
#     4  10  21  37  62  88 116 148 193 250 298 357
#
# _framework density 17.406963000000001
#
# number of rings (size 3 to 8) (size 9 to 14) (size 15 to 20)
#    0.000    1.730    3.243    1.946    0.000    6.054 
#    0.000    7.568    0.000    2.919    0.000    0.000 
#    0.000    0.000    0.000    0.000    0.000    0.000 
#
# Total GULP energy -206288.561952 kJ/mol
# GULP energy per Si atom -5575.366539 kJ/mol
# Density = 1.736734 g / cm^3
# Si number density = 17.406963 Si / 1000 Ang^3
#
#
#
# Elastic Constant Matrix: (Units=GPa)
#
#
# Indices 1 2 3 4 5 6 
#
# 1 102.0446 52.1340 72.2365 0.0000 0.0000 0.0000
# 2 52.1340 102.0446 72.2365 0.0000 0.0000 0.0000
# 3 72.2365 72.2365 128.4742 0.0000 0.0000 0.0000
# 4 0.0000 0.0000 0.0000 25.7904 0.0000 0.0000
# 5 0.0000 0.0000 0.0000 0.0000 25.7904 0.0000
# 6 0.0000 0.0000 0.0000 0.0000 0.0000 39.8645
#
#
#
# Elastic Compliance Matrix: (Units=1/GPa)
#
#
# Indices 1 2 3 4 5 6 
#
# 1 0.016872 -0.003164 -0.007708 0.000000 0.000000 0.000000
# 2 -0.003164 0.016872 -0.007708 0.000000 0.000000 0.000000
# 3 -0.007708 -0.007708 0.016451 0.000000 0.000000 0.000000
# 4 0.000000 0.000000 0.000000 0.038774 0.000000 0.000000
# 5 0.000000 0.000000 0.000000 0.000000 0.038774 0.000000
# 6 0.000000 0.000000 0.000000 0.000000 0.000000 0.025085
#
#
# Mechanical properties :
#
#
# Convention : Reuss Voigt Hill
#
# Bulk Modulus (GPa) = 76.70380 80.64193 78.67287
# Shear Modulus (GPa) = 25.72893 27.35281 26.54087
#
# Velocity S-wave (km/s) = 3.84876 3.96835 3.90901
# Velocity P-wave (km/s) = 7.99445 8.21128 8.10359
#
# Compressibility (1/GPa) = 0.01303716
#
# Stress axis : x y z
#
# Youngs Moduli (GPa) = 59.26893 59.26893 60.78495
#
# Poissons Ratio (x) = 0.18750 0.46853
# Poissons Ratio (y) = 0.18750 0.46853
# Poissons Ratio (z) = 0.45684 0.45684
#
# Static dielectric constant tensor:
#      x y z
#    x 1.576990 0.000000 0.000000 
#    y 0.000000 1.576990 0.000000 
#    z 0.000000 0.000000 1.598730 
# 
# From -- ./inp_files/3669.got.cif
#   From: 2010.05.17/outbox.cif.g08.bks.cpg/sg115_2_cif.got.tgz:3669.got - 2010.05.20 11:07:42.
