data_PCOD9556584
_publ_section_title
;
Structure prediction by ZEFSAII (Michael W. Deem and Ramdas Pophale) SiO2 
 PCOD9556584
Probable space group: P -4 M 2
;
_chemical_formula_sum "Si O2"
_cell_formula_units_Z 64
_cell_length_a 20.570426
_cell_length_b 20.570426
_cell_length_c 9.009891
_cell_angle_alpha 90.000000
_cell_angle_beta 90.000000
_cell_angle_gamma 90.000000
_cell_volume 3812.467134
_symmetry_space_group_name_H-M "P -4 M 2"
_symmetry_group_IT_number 115
_symmetry_cell_setting 'tetragonal'
loop_
_space_group_symop_operation_xyz
x,y,z
y,-x,-z
-x,-y,z
-y,x,-z
y,x,-z
-y,-x,-z
-x,y,z
x,-y,z
loop_
_atom_site_type_symbol
_atom_site_label
_atom_site_fract_x
_atom_site_fract_y
_atom_site_fract_z
Si Si1 0.191904 0.636366 0.637401
Si Si2 0.200075 0.300677 0.931420
Si Si3 0.931066 0.574906 0.792168
Si Si4 0.353485 0.927042 0.913678
Si Si5 0.403425 0.569648 0.164541
Si Si6 0.146363 0.577082 0.336728
Si Si7 0.428204 0.254041 0.919661
Si Si8 0.667972 0.426935 0.592761
O O1 0.198559 0.698605 0.749925
O O2 0.134540 0.600561 0.724527
O O3 0.165803 0.626207 0.469323
O O4 0.261620 0.602252 0.624429
O O5 0.129907 0.307601 0.015702
O O6 0.242104 0.242104 0.000000
O O7 0.236639 0.368238 0.975063
O O8 0.933854 0.500000 0.758958
O O9 0.927796 0.587980 0.966981
O O10 0.000000 0.605517 0.739929
O O11 0.324854 0.000000 0.911535
O O12 0.386815 0.909403 0.757911
O O13 0.417770 0.500000 0.237099
O O14 0.326265 0.577514 0.144045
O O15 0.430747 0.629190 0.254237
O O16 0.430173 0.569828 0.000000
O O17 0.133628 0.500000 0.379139
O O18 0.205632 0.574474 0.219768
O O19 0.500000 0.246998 0.990995
O O20 0.623557 0.376444 0.500000
O O21 0.673400 0.500000 0.527876
#
# Coordination Sequence:
#
# PCOD9556584 Si02
#       8
#     8   8   8   8   8   8   8   8
#     4  11  22  34  51  73  96 121 158 211 261 302
#     4  10  20  35  55  77 101 132 174 217 259 310
#     4   9  17  31  51  74  99 125 154 191 239 298
#     4   9  19  34  51  72 102 140 173 202 244 304
#     4  11  22  35  51  67  83 108 153 215 273 319
#     4  10  19  30  46  70 100 131 165 206 253 308
#     4   9  18  32  47  65  92 127 164 206 262 325
#     4  12  25  38  50  63  87 125 166 211 268 325
#
# _framework density 16.787030000000001
#
# number of rings (size 3 to 8) (size 9 to 14) (size 15 to 20)
#    0.000    1.875    0.000    4.875    0.000    9.750 
#    0.000    0.000    0.000    0.000    0.000    0.000 
#    0.000    0.250    0.000    0.000    0.000    0.375 
#
# Total GULP energy -356416.051092 kJ/mol
# GULP energy per Si atom -5569.000798 kJ/mol
# Density = 1.674882 g / cm^3
# Si number density = 16.787030 Si / 1000 Ang^3
#
#
#
# Elastic Constant Matrix: (Units=GPa)
#
#
# Indices 1 2 3 4 5 6 
#
# 1 90.0139 27.8397 17.9246 0.0000 0.0000 0.0000
# 2 27.8397 90.0123 17.9247 0.0000 0.0000 0.0000
# 3 17.9246 17.9247 67.4255 0.0000 0.0000 0.0000
# 4 0.0000 0.0000 0.0000 24.4444 0.0000 0.0000
# 5 0.0000 0.0000 0.0000 0.0000 24.4450 0.0000
# 6 0.0000 0.0000 0.0000 0.0000 0.0000 24.8510
#
#
#
# Elastic Compliance Matrix: (Units=1/GPa)
#
#
# Indices 1 2 3 4 5 6 
#
# 1 0.012658 -0.003426 -0.002454 0.000000 0.000000 0.000000
# 2 -0.003426 0.012658 -0.002454 0.000000 0.000000 0.000000
# 3 -0.002454 -0.002454 0.016136 0.000000 0.000000 0.000000
# 4 0.000000 0.000000 0.000000 0.040909 0.000000 0.000000
# 5 0.000000 0.000000 0.000000 0.000000 0.040908 0.000000
# 6 0.000000 0.000000 0.000000 0.000000 0.000000 0.040240
#
#
# Mechanical properties :
#
#
# Convention : Reuss Voigt Hill
#
# Bulk Modulus (GPa) = 40.35074 41.64772 40.99923
# Shear Modulus (GPa) = 26.53379 26.99893 26.76636
#
# Velocity S-wave (km/s) = 3.98001 4.01474 3.99741
# Velocity P-wave (km/s) = 6.72381 6.80839 6.76623
#
# Compressibility (1/GPa) = 0.02478269
#
# Stress axis : x y z
#
# Youngs Moduli (GPa) = 79.00301 79.00145 61.97302
#
# Poissons Ratio (x) = 0.27067 0.15209
# Poissons Ratio (y) = 0.27068 0.15210
# Poissons Ratio (z) = 0.19388 0.19389
#
# Static dielectric constant tensor:
#      x y z
#    x 1.596050 0.000000 0.000000 
#    y 0.000000 1.596050 0.000000 
#    z 0.000000 0.000000 1.658550 
# 
# From -- ./inp_files/2154.got.cif
#   From: 2010.05.17/outbox.cif.g08.bks.cpg/sg115_2_cif.got.tgz:2154.got - 2010.05.20 11:07:42.
