data_PCOD9556726
_publ_section_title
;
Structure prediction by ZEFSAII (Michael W. Deem and Ramdas Pophale) SiO2 
 PCOD9556726
Probable space group: P -4 M 2
;
_chemical_formula_sum "Si O2"
_cell_formula_units_Z 32
_cell_length_a 7.681940
_cell_length_b 7.681940
_cell_length_c 25.656574
_cell_angle_alpha 90.000000
_cell_angle_beta 90.000000
_cell_angle_gamma 90.000000
_cell_volume 1514.050932
_symmetry_space_group_name_H-M "P -4 M 2"
_symmetry_group_IT_number 115
_symmetry_cell_setting 'tetragonal'
loop_
_space_group_symop_operation_xyz
x,y,z
y,-x,-z
-x,-y,z
-y,x,-z
y,x,-z
-y,-x,-z
-x,y,z
x,-y,z
loop_
_atom_site_type_symbol
_atom_site_label
_atom_site_fract_x
_atom_site_fract_y
_atom_site_fract_z
Si Si1 0.286316 0.299344 0.830059
Si Si2 0.210713 0.307363 0.558862
Si Si3 0.708775 0.000000 0.753688
Si Si4 0.704251 0.287430 0.944157
Si Si5 0.000000 0.790640 0.367716
O O1 0.500000 0.298977 0.831575
O O2 0.233820 0.500000 0.822129
O O3 0.225459 0.237298 0.887529
O O4 0.228372 0.170446 0.784718
O O5 0.266644 0.266644 0.500000
O O6 0.268478 0.500000 0.573228
O O7 0.274260 0.166849 0.600307
O O8 0.000000 0.302718 0.558698
O O9 0.500000 0.000000 0.758421
O O10 0.749274 0.000000 0.692929
O O11 0.500000 0.239030 0.944021
O O12 0.711416 0.500000 0.944756
O O13 0.775327 0.224674 0.000000
O O14 0.000000 0.000000 0.371751
#
# Coordination Sequence:
#
# PCOD9556726 Si02
#       5
#     8   8   4   8   4
#     4   8  14  25  41  64  96 131 169 218 271 319
#     4  10  20  36  61  87 112 144 182 227 279 331
#     4  10  20  32  48  72 100 136 180 221 262 310
#     4   7   9  15  31  57  86 115 152 200 257 320
#     4  10  22  38  56  78 112 148 184 221 266 320
#
# _framework density 21.135355000000001
#
# number of rings (size 3 to 8) (size 9 to 14) (size 15 to 20)
#    0.000    3.250    1.250    2.250    0.000    2.250 
#    0.000    0.000    0.000    0.000    3.250    0.000 
#    0.000    0.000    0.000    0.000    0.000    0.000 
#
# Total GULP energy -178456.016749 kJ/mol
# GULP energy per Si atom -5576.750523 kJ/mol
# Density = 2.108725 g / cm^3
# Si number density = 21.135355 Si / 1000 Ang^3
#
#
#
# Elastic Constant Matrix: (Units=GPa)
#
#
# Indices 1 2 3 4 5 6 
#
# 1 68.6682 30.0019 63.8829 0.0000 0.0000 0.0000
# 2 30.0019 68.6681 63.8829 0.0000 0.0000 0.0000
# 3 63.8829 63.8829 239.8493 0.0000 0.0000 0.0000
# 4 0.0000 0.0000 0.0000 16.0078 0.0000 0.0000
# 5 0.0000 0.0000 0.0000 0.0000 16.0077 0.0000
# 6 0.0000 0.0000 0.0000 0.0000 0.0000 0.9146
#
#
#
# Elastic Compliance Matrix: (Units=1/GPa)
#
#
# Indices 1 2 3 4 5 6 
#
# 1 0.020666 -0.005196 -0.004120 0.000000 0.000000 0.000000
# 2 -0.005196 0.020666 -0.004120 0.000000 0.000000 0.000000
# 3 -0.004120 -0.004120 0.006364 0.000000 0.000000 0.000000
# 4 0.000000 0.000000 0.000000 0.062469 0.000000 0.000000
# 5 0.000000 0.000000 0.000000 0.000000 0.062470 0.000000
# 6 0.000000 0.000000 0.000000 0.000000 0.000000 1.093375
#
#
# Mechanical properties :
#
#
# Convention : Reuss Voigt Hill
#
# Bulk Modulus (GPa) = 48.02389 76.96900 62.49644
# Shear Modulus (GPa) = 3.84667 21.21388 12.53027
#
# Velocity S-wave (km/s) = 1.35054 3.17158 2.43751
# Velocity P-wave (km/s) = 5.02029 7.06457 6.12827
#
# Compressibility (1/GPa) = 0.02082297
#
# Stress axis : x y z
#
# Youngs Moduli (GPa) = 48.38798 48.38793 157.12859
#
# Poissons Ratio (x) = 0.25143 0.64744
# Poissons Ratio (y) = 0.25143 0.64744
# Poissons Ratio (z) = 0.19938 0.19938
#
# Static dielectric constant tensor:
#      x y z
#    x 1.788720 0.000000 0.000000 
#    y 0.000000 1.788720 0.000000 
#    z 0.000000 0.000000 1.739080 
# 
# From -- ./inp_files/5045.got.cif
#   From: 2010.05.17/outbox.cif.g08.bks.cpg/sg115_3_cif.got.tgz:5045.got - 2010.05.20 11:07:42.
