data_PCOD9556466
_publ_section_title
;
Structure prediction by ZEFSAII (Michael W. Deem and Ramdas Pophale) SiO2 
 PCOD9556466
Probable space group: P -4 21 C
;
_chemical_formula_sum "Si O2"
_cell_formula_units_Z 40
_cell_length_a 12.613029
_cell_length_b 12.613029
_cell_length_c 12.056579
_cell_angle_alpha 90.000000
_cell_angle_beta 90.000000
_cell_angle_gamma 90.000000
_cell_volume 1918.063075
_symmetry_space_group_name_H-M "P -4 21 C"
_symmetry_group_IT_number 114
_symmetry_cell_setting 'tetragonal'
loop_
_space_group_symop_operation_xyz
x,y,z
y,-x,-z
-x,-y,z
-y,x,-z
1/2+x,1/2-y,1/2-z
1/2-x,1/2+y,1/2-z
1/2-y,1/2-x,1/2+z
1/2+y,1/2+x,1/2+z
loop_
_atom_site_type_symbol
_atom_site_label
_atom_site_fract_x
_atom_site_fract_y
_atom_site_fract_z
Si Si1 0.718069 0.482766 0.363952
Si Si2 0.000000 0.000000 0.000000
Si Si3 0.394895 0.149532 0.020803
Si Si4 0.000000 0.000000 0.500000
Si Si5 0.391801 0.854608 0.170253
Si Si6 0.000000 0.500000 0.651124
Si Si7 0.622151 0.656913 0.858048
O O1 0.606763 0.488912 0.427307
O O2 0.795712 0.389350 0.406955
O O3 0.789679 0.587561 0.382132
O O4 0.692478 0.461437 0.234883
O O5 0.503474 0.151337 0.092655
O O6 0.371404 0.256923 0.955660
O O7 0.419575 0.064012 0.925597
O O8 0.913264 0.050502 0.580407
O O9 0.360314 0.735375 0.199097
O O10 0.424356 0.930107 0.271463
#
# Coordination Sequence:
#
# PCOD9556466 Si02
#       7
#     8   2   8   2   8   4   8
#     4  12  26  48  70 109 141 193 241 303 374 441
#     4  12  30  48  64 102 160 188 242 308 376 458
#     4  12  23  46  76 106 143 190 246 310 373 442
#     4  12  26  48  68  98 156 200 242 300 368 446
#     4  12  24  45  75 108 140 190 252 308 367 448
#     4  12  22  44  76 106 142 184 248 310 364 454
#     4  12  27  45  73 107 146 194 243 301 375 451
#
# _framework density 20.854371
#
# number of rings (size 3 to 8) (size 9 to 14) (size 15 to 20)
#    0.000    0.000    8.000    1.800    2.800    3.200 
#    7.200    0.000    0.000    0.000    0.000    0.000 
#    0.000    0.000    0.000    0.000    0.000    0.000 
#
# Total GULP energy -223677.037959 kJ/mol
# GULP energy per Si atom -5591.925949 kJ/mol
# Density = 2.080691 g / cm^3
# Si number density = 20.854371 Si / 1000 Ang^3
#
#
#
# Elastic Constant Matrix: (Units=GPa)
#
#
# Indices 1 2 3 4 5 6 
#
# 1 102.5426 18.8554 14.5205 0.0000 0.0000 0.0000
# 2 18.8554 102.5426 14.5205 0.0000 0.0000 0.0000
# 3 14.5205 14.5205 62.0074 0.0000 0.0000 0.0000
# 4 0.0000 0.0000 0.0000 18.4591 0.0000 0.0000
# 5 0.0000 0.0000 0.0000 0.0000 18.4591 0.0000
# 6 0.0000 0.0000 0.0000 0.0000 0.0000 17.6433
#
#
#
# Elastic Compliance Matrix: (Units=1/GPa)
#
#
# Indices 1 2 3 4 5 6 
#
# 1 0.010338 -0.001612 -0.002043 0.000000 0.000000 0.000000
# 2 -0.001612 0.010338 -0.002043 0.000000 0.000000 0.000000
# 3 -0.002043 -0.002043 0.017084 0.000000 0.000000 0.000000
# 4 0.000000 0.000000 0.000000 0.054174 0.000000 0.000000
# 5 0.000000 0.000000 0.000000 0.000000 0.054174 0.000000
# 6 0.000000 0.000000 0.000000 0.000000 0.000000 0.056679
#
#
# Mechanical properties :
#
#
# Convention : Reuss Voigt Hill
#
# Bulk Modulus (GPa) = 37.93230 40.32061 39.12646
# Shear Modulus (GPa) = 22.42451 25.52539 23.97495
#
# Velocity S-wave (km/s) = 3.28272 3.50234 3.39431
# Velocity P-wave (km/s) = 5.70937 5.97759 5.84502
#
# Compressibility (1/GPa) = 0.02636276
#
# Stress axis : x y z
#
# Youngs Moduli (GPa) = 96.73304 96.73304 58.53382
#
# Poissons Ratio (x) = 0.15589 0.11961
# Poissons Ratio (y) = 0.15589 0.11961
# Poissons Ratio (z) = 0.19767 0.19767
#
# Static dielectric constant tensor:
#      x y z
#    x 1.751850 0.000000 0.000000 
#    y 0.000000 1.751850 0.000000 
#    z 0.000000 0.000000 1.714800 
# 
# From -- ./inp_files/1568.got.cif
#   From: 2010.05.17/outbox.cif.g08.bks.cpg/sg114_1_cif.got.tgz:1568.got - 2010.05.20 11:04:54.
