data_PCOD9556483
_publ_section_title
;
Structure prediction by ZEFSAII (Michael W. Deem and Ramdas Pophale) SiO2 
 PCOD9556483
Probable space group: P -4 21 C
;
_chemical_formula_sum "Si O2"
_cell_formula_units_Z 34
_cell_length_a 9.296393
_cell_length_b 9.296393
_cell_length_c 16.183222
_cell_angle_alpha 90.000000
_cell_angle_beta 90.000000
_cell_angle_gamma 90.000000
_cell_volume 1398.601346
_symmetry_space_group_name_H-M "P -4 21 C"
_symmetry_group_IT_number 114
_symmetry_cell_setting 'tetragonal'
loop_
_space_group_symop_operation_xyz
x,y,z
y,-x,-z
-x,-y,z
-y,x,-z
1/2+x,1/2-y,1/2-z
1/2-x,1/2+y,1/2-z
1/2-y,1/2-x,1/2+z
1/2+y,1/2+x,1/2+z
loop_
_atom_site_type_symbol
_atom_site_label
_atom_site_fract_x
_atom_site_fract_y
_atom_site_fract_z
Si Si1 0.348067 0.949143 0.592921
Si Si2 0.865850 0.268104 0.678150
Si Si3 0.473020 0.804042 0.427427
Si Si4 0.813335 0.812144 0.666800
Si Si5 0.000000 0.000000 0.000000
O O1 0.399042 0.873811 0.508145
O O2 0.240672 0.086448 0.591529
O O3 0.500000 0.000000 0.630365
O O4 0.257657 0.838288 0.646599
O O5 0.887443 0.390473 0.609024
O O6 0.794272 0.342416 0.757714
O O7 0.017227 0.184738 0.689011
O O8 0.351043 0.786483 0.359366
O O9 0.526657 0.644247 0.449002
#
# Coordination Sequence:
#
# PCOD9556483 Si02
#       5
#     8   8   8   8   2
#     4  12  26  48  75 116 156 208 263 330 393 469
#     4  12  27  51  77 118 157 214 263 327 403 479
#     4  12  27  48  79 113 155 204 270 323 397 475
#     4  12  28  48  81 113 163 202 261 329 401 476
#     4  12  24  48  84 112 148 212 258 320 384 488
#
# _framework density 24.309999999999999
#
# number of rings (size 3 to 8) (size 9 to 14) (size 15 to 20)
#    0.000    0.000    2.353    7.059    6.588    0.000 
#    0.000    0.000    0.000    0.000    0.000    0.000 
#    0.000    0.000    0.000    0.000    0.000    0.000 
#
# Total GULP energy -190322.181668 kJ/mol
# GULP energy per Si atom -5597.711226 kJ/mol
# Density = 2.425467 g / cm^3
# Si number density = 24.310000 Si / 1000 Ang^3
#
#
#
# Elastic Constant Matrix: (Units=GPa)
#
#
# Indices 1 2 3 4 5 6 
#
# 1 126.2296 46.5666 49.1877 0.0000 0.0000 0.0000
# 2 46.5666 126.2296 49.1877 0.0000 0.0000 0.0000
# 3 49.1877 49.1877 79.0192 0.0000 0.0000 0.0000
# 4 0.0000 0.0000 0.0000 34.4600 0.0000 0.0000
# 5 0.0000 0.0000 0.0000 0.0000 34.4600 0.0000
# 6 0.0000 0.0000 0.0000 0.0000 0.0000 57.3392
#
#
#
# Elastic Compliance Matrix: (Units=1/GPa)
#
#
# Indices 1 2 3 4 5 6 
#
# 1 0.010758 -0.001795 -0.005580 0.000000 0.000000 0.000000
# 2 -0.001795 0.010758 -0.005580 0.000000 0.000000 0.000000
# 3 -0.005580 -0.005580 0.019602 0.000000 0.000000 0.000000
# 4 0.000000 0.000000 0.000000 0.029019 0.000000 0.000000
# 5 0.000000 0.000000 0.000000 0.000000 0.029019 0.000000
# 6 0.000000 0.000000 0.000000 0.000000 0.000000 0.017440
#
#
# Mechanical properties :
#
#
# Convention : Reuss Voigt Hill
#
# Bulk Modulus (GPa) = 65.74516 69.04028 67.39272
# Shear Modulus (GPa) = 33.88108 37.68761 35.78434
#
# Velocity S-wave (km/s) = 3.73729 3.94165 3.84083
# Velocity P-wave (km/s) = 6.76213 7.01263 6.88852
#
# Compressibility (1/GPa) = 0.01521025
#
# Stress axis : x y z
#
# Youngs Moduli (GPa) = 92.95108 92.95108 51.01590
#
# Poissons Ratio (x) = 0.16680 0.28466
# Poissons Ratio (y) = 0.16680 0.28466
# Poissons Ratio (z) = 0.51865 0.51865
#
# Static dielectric constant tensor:
#      x y z
#    x 1.931570 0.000000 0.000000 
#    y 0.000000 1.931570 0.000000 
#    z 0.000000 0.000000 1.984270 
# 
# From -- ./inp_files/2918.got.cif
#   From: 2010.05.17/outbox.cif.g08.bks.cpg/sg114_2_cif.got.tgz:2918.got - 2010.05.20 11:04:54.
