data_PCOD9556972
_publ_section_title
;
Structure prediction by ZEFSAII (Michael W. Deem and Ramdas Pophale) SiO2 
 PCOD9556972
Probable space group: P -4 M 2
;
_chemical_formula_sum "Si O2"
_cell_formula_units_Z 48
_cell_length_a 9.194761
_cell_length_b 9.194761
_cell_length_c 31.764198
_cell_angle_alpha 90.000000
_cell_angle_beta 90.000000
_cell_angle_gamma 90.000000
_cell_volume 2685.460598
_symmetry_space_group_name_H-M "P -4 M 2"
_symmetry_group_IT_number 115
_symmetry_cell_setting 'tetragonal'
loop_
_space_group_symop_operation_xyz
x,y,z
y,-x,-z
-x,-y,z
-y,x,-z
y,x,-z
-y,-x,-z
-x,y,z
x,-y,z
loop_
_atom_site_type_symbol
_atom_site_label
_atom_site_fract_x
_atom_site_fract_y
_atom_site_fract_z
Si Si1 0.172684 0.327763 0.834971
Si Si2 0.824705 0.170495 0.329401
Si Si3 0.332657 0.822885 0.585340
Si Si4 0.327196 0.327196 0.000000
Si Si5 0.172177 0.173816 0.078018
Si Si6 0.670928 0.674543 0.748455
Si Si7 0.826622 0.173378 0.500000
O O1 0.197544 0.500000 0.842504
O O2 0.212916 0.238775 0.876580
O O3 0.259826 0.283768 0.793354
O O4 0.000000 0.307922 0.827391
O O5 0.777358 0.246209 0.372970
O O6 0.752489 0.247939 0.289691
O O7 0.000000 0.184028 0.326475
O O8 0.788848 0.000000 0.330101
O O9 0.500000 0.775983 0.587102
O O10 0.255724 0.777536 0.542049
O O11 0.330538 0.000000 0.585149
O O12 0.258833 0.252231 0.958992
O O13 0.301610 0.500000 0.998511
O O14 0.000000 0.201406 0.076942
O O15 0.194781 0.000000 0.072174
O O16 0.500000 0.708240 0.747557
O O17 0.688463 0.500000 0.744347
O O18 0.000000 0.195765 0.505534
#
# Coordination Sequence:
#
# PCOD9556972 Si02
#       7
#     8   8   8   4   8   8   4
#     4   9  18  34  55  77 105 143 182 218 259 310
#     4  10  20  34  54  79 105 136 177 222 265 311
#     4   9  17  30  49  73 101 132 167 210 260 311
#     4  11  24  39  56  80 110 145 184 223 264 314
#     4  10  21  37  58  84 112 141 176 220 268 316
#     4  10  21  36  54  78 109 143 177 216 264 316
#     4   9  16  28  48  71  94 124 166 211 252 302
#
# _framework density 17.874030000000001
#
# number of rings (size 3 to 8) (size 9 to 14) (size 15 to 20)
#    0.000    2.333    0.000    2.500    0.000    8.000 
#    0.000    4.167    0.000    3.250    0.000    0.000 
#    0.000    0.000    0.000    0.000    0.000    0.000 
#
# Total GULP energy -267966.071327 kJ/mol
# GULP energy per Si atom -5582.626486 kJ/mol
# Density = 1.783335 g / cm^3
# Si number density = 17.874030 Si / 1000 Ang^3
#
#
#
# Elastic Constant Matrix: (Units=GPa)
#
#
# Indices 1 2 3 4 5 6 
#
# 1 81.2960 68.0758 102.5882 0.0000 0.0000 0.0000
# 2 68.0758 81.2956 102.5882 0.0000 0.0000 0.0000
# 3 102.5882 102.5882 224.3897 0.0000 0.0000 0.0000
# 4 0.0000 0.0000 0.0000 314.7212 0.0000 0.0000
# 5 0.0000 0.0000 0.0000 0.0000 314.5845 0.0000
# 6 0.0000 0.0000 0.0000 0.0000 0.0000 23.1523
#
#
#
# Elastic Compliance Matrix: (Units=1/GPa)
#
#
# Indices 1 2 3 4 5 6 
#
# 1 0.046819 -0.028824 -0.008227 0.000000 0.000000 0.000000
# 2 -0.028824 0.046820 -0.008228 0.000000 0.000000 0.000000
# 3 -0.008227 -0.008228 0.011980 0.000000 0.000000 0.000000
# 4 0.000000 0.000000 0.000000 0.003177 0.000000 0.000000
# 5 0.000000 0.000000 0.000000 0.000000 0.003179 0.000000
# 6 0.000000 0.000000 0.000000 0.000000 0.000000 0.043192
#
#
# Mechanical properties :
#
#
# Convention : Reuss Voigt Hill
#
# Bulk Modulus (GPa) = 66.39449 103.72062 85.05756
# Shear Modulus (GPa) = 19.94055 138.07353 79.00704
#
# Velocity S-wave (km/s) = 3.34371 8.79863 6.65568
# Velocity P-wave (km/s) = 7.22036 12.70338 10.33222
#
# Compressibility (1/GPa) = 0.01506149
#
# Stress axis : x y z
#
# Youngs Moduli (GPa) = 21.35867 21.35843 83.47485
#
# Poissons Ratio (x) = 0.61562 0.68679
# Poissons Ratio (y) = 0.61563 0.68681
# Poissons Ratio (z) = 0.17573 0.17573
#
# Static dielectric constant tensor:
#      x y z
#    x 1.597570 0.000000 0.000000 
#    y 0.000000 1.597570 0.000000 
#    z 0.000000 0.000000 1.577680 
# 
# From -- ./inp_files/6232.got.cif
#   From: 2010.05.17/outbox.cif.g08.bks.cpg/sg115_4_cif.got.tgz:6232.got - 2010.05.20 11:07:42.
