data_PCOD9556033
_publ_section_title
;
Structure prediction by ZEFSAII (Michael W. Deem and Ramdas Pophale) SiO2 
 PCOD9556033
Probable space group: P -4 21 C
;
_chemical_formula_sum "Si O2"
_cell_formula_units_Z 48
_cell_length_a 15.953682
_cell_length_b 15.953682
_cell_length_c 8.292722
_cell_angle_alpha 90.000000
_cell_angle_beta 90.000000
_cell_angle_gamma 90.000000
_cell_volume 2110.663349
_symmetry_space_group_name_H-M "P -4 21 C"
_symmetry_group_IT_number 114
_symmetry_cell_setting 'tetragonal'
loop_
_space_group_symop_operation_xyz
x,y,z
y,-x,-z
-x,-y,z
-y,x,-z
1/2+x,1/2-y,1/2-z
1/2-x,1/2+y,1/2-z
1/2-y,1/2-x,1/2+z
1/2+y,1/2+x,1/2+z
loop_
_atom_site_type_symbol
_atom_site_label
_atom_site_fract_x
_atom_site_fract_y
_atom_site_fract_z
Si Si1 0.265197 0.063324 0.601178
Si Si2 0.485472 0.815410 0.560660
Si Si3 0.095060 0.002770 0.729427
Si Si4 0.160105 0.707273 0.059131
Si Si5 0.608479 0.351664 0.499174
Si Si6 0.454399 0.910043 0.228621
O O1 0.172737 0.023077 0.611632
O O2 0.276812 0.130218 0.458222
O O3 0.339553 0.994333 0.610691
O O4 0.278983 0.116813 0.767271
O O5 0.585209 0.816818 0.564780
O O6 0.457196 0.721391 0.534666
O O7 0.465340 0.871872 0.404621
O O8 0.432878 0.858158 0.700029
O O9 0.113721 0.916720 0.824689
O O10 0.099258 0.075204 0.868451
O O11 0.000000 0.000000 0.670003
O O12 0.188851 0.799375 0.007079
O O13 0.500000 0.000000 0.210943
#
# Coordination Sequence:
#
# PCOD9556033 Si02
#       6
#     8   8   8   8   8   8
#     4  10  22  37  58  91 121 158 199 251 311 368
#     4  11  22  34  56  89 117 157 196 241 302 367
#     4  11  18  35  62  87 112 153 206 260 296 347
#     4  10  21  37  56  87 123 149 198 249 306 361
#     4  11  18  35  59  88 114 145 204 256 290 349
#     4  11  21  35  57  83 124 157 193 236 302 373
#
# _framework density 22.741665000000001
#
# number of rings (size 3 to 8) (size 9 to 14) (size 15 to 20)
#    0.000    1.333    8.333    0.500    2.333    2.667 
#    0.000    0.000    0.000    0.000    0.000    4.667 
#    0.000    0.000    0.000    0.000    0.000    0.000 
#
# Total GULP energy -268164.973790 kJ/mol
# GULP energy per Si atom -5586.770287 kJ/mol
# Density = 2.268990 g / cm^3
# Si number density = 22.741665 Si / 1000 Ang^3
#
#
#
# Elastic Constant Matrix: (Units=GPa)
#
#
# Indices 1 2 3 4 5 6 
#
# 1 62.0131 46.6937 10.9793 0.0000 0.0000 0.0000
# 2 46.6937 62.0131 10.9793 0.0000 0.0000 0.0000
# 3 10.9793 10.9793 34.4728 0.0000 0.0000 0.0000
# 4 0.0000 0.0000 0.0000 17.7346 0.0000 0.0000
# 5 0.0000 0.0000 0.0000 0.0000 17.7346 0.0000
# 6 0.0000 0.0000 0.0000 0.0000 0.0000 28.4634
#
#
#
# Elastic Compliance Matrix: (Units=1/GPa)
#
#
# Indices 1 2 3 4 5 6 
#
# 1 0.037554 -0.027723 -0.003131 0.000000 0.000000 0.000000
# 2 -0.027723 0.037554 -0.003131 0.000000 0.000000 0.000000
# 3 -0.003131 -0.003131 0.031003 0.000000 0.000000 0.000000
# 4 0.000000 0.000000 0.000000 0.056387 0.000000 0.000000
# 5 0.000000 0.000000 0.000000 0.000000 0.056387 0.000000
# 6 0.000000 0.000000 0.000000 0.000000 0.000000 0.035133
#
#
# Mechanical properties :
#
#
# Convention : Reuss Voigt Hill
#
# Bulk Modulus (GPa) = 26.21851 32.86706 29.54278
# Shear Modulus (GPa) = 14.93868 18.77632 16.85750
#
# Velocity S-wave (km/s) = 2.56576 2.87650 2.72556
# Velocity P-wave (km/s) = 4.50903 5.05135 4.78787
#
# Compressibility (1/GPa) = 0.03814099
#
# Stress axis : x y z
#
# Youngs Moduli (GPa) = 26.62821 26.62821 32.25502
#
# Poissons Ratio (x) = 0.73820 0.10100
# Poissons Ratio (y) = 0.73820 0.10100
# Poissons Ratio (z) = 0.08338 0.08338
#
# Static dielectric constant tensor:
#      x y z
#    x 1.894650 0.000000 0.000000 
#    y 0.000000 1.894650 0.000000 
#    z 0.000000 0.000000 1.880570 
# 
# From -- ./inp_files/1652.got.cif
#   From: 2010.05.17/outbox.cif.g08.bks.cpg/sg114_1_cif.got.tgz:1652.got - 2010.05.20 11:04:54.
