data_PCOD9556233
_publ_section_title
;
Structure prediction by ZEFSAII (Michael W. Deem and Ramdas Pophale) SiO2 
 PCOD9556233
Probable space group: P -4 21 C
;
_chemical_formula_sum "Si O2"
_cell_formula_units_Z 56
_cell_length_a 13.960621
_cell_length_b 13.960621
_cell_length_c 12.423529
_cell_angle_alpha 90.000000
_cell_angle_beta 90.000000
_cell_angle_gamma 90.000000
_cell_volume 2421.332617
_symmetry_space_group_name_H-M "P -4 21 C"
_symmetry_group_IT_number 114
_symmetry_cell_setting 'tetragonal'
loop_
_space_group_symop_operation_xyz
x,y,z
y,-x,-z
-x,-y,z
-y,x,-z
1/2+x,1/2-y,1/2-z
1/2-x,1/2+y,1/2-z
1/2-y,1/2-x,1/2+z
1/2+y,1/2+x,1/2+z
loop_
_atom_site_type_symbol
_atom_site_label
_atom_site_fract_x
_atom_site_fract_y
_atom_site_fract_z
Si Si1 0.487298 0.835514 0.475188
Si Si2 0.966440 0.227823 0.824813
Si Si3 0.866991 0.776252 0.195694
Si Si4 0.678124 0.664173 0.231733
Si Si5 0.544065 0.173340 0.098114
Si Si6 0.898848 0.368108 0.220705
Si Si7 0.861627 0.032389 0.467148
O O1 0.550086 0.777151 0.560244
O O2 0.433027 0.760531 0.399236
O O3 0.409448 0.896171 0.540772
O O4 0.548545 0.895305 0.389091
O O5 0.890248 0.143646 0.808848
O O6 0.933274 0.306065 0.736774
O O7 0.078801 0.206005 0.812924
O O8 0.766078 0.722171 0.179352
O O9 0.899671 0.733362 0.310008
O O10 0.622249 0.753226 0.284055
O O11 0.632758 0.602418 0.135368
O O12 0.461471 0.124411 0.170367
O O13 0.517431 0.254713 0.011243
O O14 0.930401 0.087988 0.551613
#
# Coordination Sequence:
#
# PCOD9556233 Si02
#       7
#     8   8   8   8   8   8   8
#     4  11  24  44  71  96 139 185 230 290 364 425
#     4  11  25  43  70 102 133 186 237 293 364 428
#     4  10  23  42  66  97 134 184 231 288 351 435
#     4  11  21  44  68  96 139 180 232 294 353 427
#     4  11  21  44  64  96 140 176 226 290 356 424
#     4  10  26  46  67 104 142 178 241 301 350 438
#     4  11  22  37  66 100 130 182 235 287 353 421
#
# _framework density 23.127758
#
# number of rings (size 3 to 8) (size 9 to 14) (size 15 to 20)
#    0.000    1.286    4.286    0.857    2.000    1.714 
#    2.571    0.000    0.000    0.000    0.000    0.000 
#    0.000    0.000    0.000    0.000    0.000    0.000 
#
# Total GULP energy -312972.765959 kJ/mol
# GULP energy per Si atom -5588.799392 kJ/mol
# Density = 2.307512 g / cm^3
# Si number density = 23.127758 Si / 1000 Ang^3
#
#
#
# Elastic Constant Matrix: (Units=GPa)
#
#
# Indices 1 2 3 4 5 6 
#
# 1 68.3346 6.1405 27.4539 0.0000 0.0000 0.0000
# 2 6.1405 68.3346 27.4539 0.0000 0.0000 0.0000
# 3 27.4539 27.4539 102.1550 0.0000 0.0000 0.0000
# 4 0.0000 0.0000 0.0000 6.6029 0.0000 0.0000
# 5 0.0000 0.0000 0.0000 0.0000 6.6029 0.0000
# 6 0.0000 0.0000 0.0000 0.0000 0.0000 27.4577
#
#
#
# Elastic Compliance Matrix: (Units=1/GPa)
#
#
# Indices 1 2 3 4 5 6 
#
# 1 0.016412 0.000333 -0.004500 0.000000 0.000000 0.000000
# 2 0.000333 0.016412 -0.004500 0.000000 0.000000 0.000000
# 3 -0.004500 -0.004500 0.012208 0.000000 0.000000 0.000000
# 4 0.000000 0.000000 0.000000 0.151449 0.000000 0.000000
# 5 0.000000 0.000000 0.000000 0.000000 0.151449 0.000000
# 6 0.000000 0.000000 0.000000 0.000000 0.000000 0.036420
#
#
# Mechanical properties :
#
#
# Convention : Reuss Voigt Hill
#
# Bulk Modulus (GPa) = 36.10455 40.10230 38.10343
# Shear Modulus (GPa) = 12.16795 19.98443 16.07619
#
# Velocity S-wave (km/s) = 2.29622 2.94273 2.63934
# Velocity P-wave (km/s) = 4.76182 5.37804 5.07928
#
# Compressibility (1/GPa) = 0.02769734
#
# Stress axis : x y z
#
# Youngs Moduli (GPa) = 60.93133 60.93133 81.91428
#
# Poissons Ratio (x) = -0.02030 0.36863
# Poissons Ratio (y) = -0.02030 0.36863
# Poissons Ratio (z) = 0.27420 0.27420
#
# Static dielectric constant tensor:
#      x y z
#    x 1.899080 0.000000 0.000000 
#    y 0.000000 1.899080 0.000000 
#    z 0.000000 0.000000 1.879640 
# 
# From -- ./inp_files/1750.got.cif
#   From: 2010.05.17/outbox.cif.g08.bks.cpg/sg114_1_cif.got.tgz:1750.got - 2010.05.20 11:04:54.
