data_PCOD9556635
_publ_section_title
;
Structure prediction by ZEFSAII (Michael W. Deem and Ramdas Pophale) SiO2 
 PCOD9556635
Probable space group: P -4 M 2
;
_chemical_formula_sum "Si O2"
_cell_formula_units_Z 48
_cell_length_a 16.460799
_cell_length_b 16.460799
_cell_length_c 9.068151
_cell_angle_alpha 90.000000
_cell_angle_beta 90.000000
_cell_angle_gamma 90.000000
_cell_volume 2457.087186
_symmetry_space_group_name_H-M "P -4 M 2"
_symmetry_group_IT_number 115
_symmetry_cell_setting 'tetragonal'
loop_
_space_group_symop_operation_xyz
x,y,z
y,-x,-z
-x,-y,z
-y,x,-z
y,x,-z
-y,-x,-z
-x,y,z
x,-y,z
loop_
_atom_site_type_symbol
_atom_site_label
_atom_site_fract_x
_atom_site_fract_y
_atom_site_fract_z
Si Si1 0.647576 0.906312 0.317097
Si Si2 0.191170 0.909714 0.157307
Si Si3 0.408583 0.303712 0.806715
Si Si4 0.674691 0.798613 0.585056
Si Si5 0.758825 0.905634 0.835595
Si Si6 0.752870 0.408077 0.870377
O O1 0.744366 0.908855 0.287853
O O2 0.638421 0.865986 0.476213
O O3 0.614698 0.838336 0.204026
O O4 0.618200 0.000000 0.301374
O O5 0.116034 0.852918 0.190433
O O6 0.162922 0.000000 0.126001
O O7 0.243811 0.885839 0.010963
O O8 0.500000 0.341236 0.812562
O O9 0.395355 0.256703 0.654748
O O10 0.326786 0.357629 0.821286
O O11 0.404075 0.246276 0.951717
O O12 0.741102 0.741102 0.500000
O O13 0.713588 0.845350 0.725047
O O14 0.738044 0.000000 0.812912
O O15 0.735741 0.500000 0.827110
#
# Coordination Sequence:
#
# PCOD9556635 Si02
#       6
#     8   8   8   8   8   8
#     4  11  22  37  58  86 120 162 207 248 297 359
#     4   9  18  32  51  76 106 148 203 256 303 358
#     4  10  22  41  66  92 122 159 201 252 314 376
#     4  12  21  36  57  86 118 161 200 246 301 367
#     4  10  19  32  52  76 109 151 198 252 310 366
#     4  10  21  40  66  95 123 155 199 256 313 369
#
# _framework density 19.535326000000001
#
# number of rings (size 3 to 8) (size 9 to 14) (size 15 to 20)
#    0.000    1.667    3.333    1.500    0.000    4.333 
#    0.000    4.167    0.000    3.500    0.000    0.000 
#    0.000    0.000    0.000    0.000    0.000    0.000 
#
# Total GULP energy -267208.957061 kJ/mol
# GULP energy per Si atom -5566.853272 kJ/mol
# Density = 1.949086 g / cm^3
# Si number density = 19.535326 Si / 1000 Ang^3
#
#
#
# Elastic Constant Matrix: (Units=GPa)
#
#
# Indices 1 2 3 4 5 6 
#
# 1 -3.3980 122.9275 29.7840 0.0000 0.0000 0.0000
# 2 122.9275 -3.3980 29.7840 0.0000 0.0000 0.0000
# 3 29.7840 29.7840 43.4083 0.0000 0.0000 0.0000
# 4 0.0000 0.0000 0.0000 20.3800 0.0000 0.0000
# 5 0.0000 0.0000 0.0000 0.0000 20.3800 0.0000
# 6 0.0000 0.0000 0.0000 0.0000 0.0000 0.0746
#
#
#
# Elastic Compliance Matrix: (Units=1/GPa)
#
#
# Indices 1 2 3 4 5 6 
#
# 1 0.002399 0.010315 -0.008723 0.000000 0.000000 0.000000
# 2 0.010315 0.002399 -0.008723 0.000000 0.000000 0.000000
# 3 -0.008723 -0.008723 0.035007 0.000000 0.000000 0.000000
# 4 0.000000 0.000000 0.000000 0.049068 0.000000 0.000000
# 5 0.000000 0.000000 0.000000 0.000000 0.049068 0.000000
# 6 0.000000 0.000000 0.000000 0.000000 0.000000 13.399663
#
#
# Mechanical properties :
#
#
# Convention : Reuss Voigt Hill
#
# Bulk Modulus (GPa) = 39.15143 44.62261 41.88702
# Shear Modulus (GPa) = 0.36872 -1.55860 -0.59494
#
# Velocity S-wave (km/s) = 0.43492 -0.89419 -0.55246
# Velocity P-wave (km/s) = 4.50966 4.67178 4.59144
#
# Compressibility (1/GPa) = 0.02554185
#
# Stress axis : x y z
#
# Youngs Moduli (GPa) = 416.90605 416.90605 28.56532
#
# Poissons Ratio (x) = -4.30025 0.24918
# Poissons Ratio (y) = -4.30025 0.24918
# Poissons Ratio (z) = 3.63670 3.63670
#
# Static dielectric constant tensor:
#      x y z
#    x 1.713840 0.000000 0.000000 
#    y 0.000000 1.713840 0.000000 
#    z 0.000000 0.000000 1.731080 
# 
# From -- ./inp_files/1817.got.cif
#   From: 2010.05.17/outbox.cif.g08.bks.cpg/sg115_1_cif.got.tgz:1817.got - 2010.05.20 11:07:42.
