data_PCOD9556591
_publ_section_title
;
Structure prediction by ZEFSAII (Michael W. Deem and Ramdas Pophale) SiO2 
 PCOD9556591
Probable space group: P -4 M 2
;
_chemical_formula_sum "Si O2"
_cell_formula_units_Z 56
_cell_length_a 15.047321
_cell_length_b 15.047321
_cell_length_c 12.835207
_cell_angle_alpha 90.000000
_cell_angle_beta 90.000000
_cell_angle_gamma 90.000000
_cell_volume 2906.171561
_symmetry_space_group_name_H-M "P -4 M 2"
_symmetry_group_IT_number 115
_symmetry_cell_setting 'tetragonal'
loop_
_space_group_symop_operation_xyz
x,y,z
y,-x,-z
-x,-y,z
-y,x,-z
y,x,-z
-y,-x,-z
-x,y,z
x,-y,z
loop_
_atom_site_type_symbol
_atom_site_label
_atom_site_fract_x
_atom_site_fract_y
_atom_site_fract_z
Si Si1 0.849456 0.904312 0.389798
Si Si2 0.782477 0.688373 0.083278
Si Si3 0.723652 0.101884 0.715084
Si Si4 0.100873 0.604878 0.910427
Si Si5 0.402745 0.288133 0.425818
Si Si6 0.899453 0.651789 0.516290
Si Si7 0.282074 0.605382 0.814684
O O1 0.899661 0.899661 0.500000
O O2 0.882536 0.824723 0.319798
O O3 0.747022 0.893920 0.425394
O O4 0.861547 0.000000 0.339808
O O5 0.831373 0.704592 0.191725
O O6 0.679582 0.668179 0.115533
O O7 0.769260 0.769260 0.000000
O O8 0.846094 0.622910 0.018222
O O9 0.668730 0.114698 0.607540
O O10 0.709944 0.000000 0.748444
O O11 0.091088 0.500000 0.898359
O O12 0.176830 0.630977 0.826410
O O13 0.000000 0.643221 0.905426
O O14 0.328711 0.328711 0.500000
O O15 0.500000 0.323387 0.454973
O O16 0.402861 0.182145 0.440082
O O17 0.385608 0.308771 0.305180
O O18 0.000000 0.617703 0.531097
O O19 0.291842 0.500000 0.843726
#
# Coordination Sequence:
#
# PCOD9556591 Si02
#       7
#     8   8   8   8   8   8   8
#     4   9  16  27  46  69  94 128 171 220 269 322
#     4  10  19  33  53  74 101 138 178 223 274 330
#     4  10  19  31  47  68 101 141 176 215 267 331
#     4   9  18  34  57  85 112 136 171 224 284 342
#     4  11  22  37  58  81 112 151 189 233 281 335
#     4   9  18  32  52  78 105 134 171 220 280 341
#     4   9  19  35  56  80 106 143 188 233 282 333
#
# _framework density 19.269338999999999
#
# number of rings (size 3 to 8) (size 9 to 14) (size 15 to 20)
#    0.000    2.429    0.000    4.714    0.000    2.000 
#    0.000    9.286    0.000    3.000    0.000    5.000 
#    0.000    1.143    0.000    0.000    0.000    0.000 
#
# Total GULP energy -311787.420156 kJ/mol
# GULP energy per Si atom -5567.632503 kJ/mol
# Density = 1.922548 g / cm^3
# Si number density = 19.269339 Si / 1000 Ang^3
#
#
#
# Elastic Constant Matrix: (Units=GPa)
#
#
# Indices 1 2 3 4 5 6 
#
# 1 40.2110 4.8863 5.7879 0.0000 0.0000 0.0000
# 2 4.8863 40.2110 5.7879 0.0000 0.0000 0.0000
# 3 5.7879 5.7879 45.4637 0.0000 0.0000 0.0000
# 4 0.0000 0.0000 0.0000 40.7437 0.0000 0.0000
# 5 0.0000 0.0000 0.0000 0.0000 40.7437 0.0000
# 6 0.0000 0.0000 0.0000 0.0000 0.0000 15.8854
#
#
#
# Elastic Compliance Matrix: (Units=1/GPa)
#
#
# Indices 1 2 3 4 5 6 
#
# 1 0.025616 -0.002693 -0.002918 0.000000 0.000000 0.000000
# 2 -0.002693 0.025616 -0.002918 0.000000 0.000000 0.000000
# 3 -0.002918 -0.002918 0.022739 0.000000 0.000000 0.000000
# 4 0.000000 0.000000 0.000000 0.024544 0.000000 0.000000
# 5 0.000000 0.000000 0.000000 0.000000 0.024544 0.000000
# 6 0.000000 0.000000 0.000000 0.000000 0.000000 0.062951
#
#
# Mechanical properties :
#
#
# Convention : Reuss Voigt Hill
#
# Bulk Modulus (GPa) = 17.57095 17.64552 17.60823
# Shear Modulus (GPa) = 22.51860 26.76946 24.64403
#
# Velocity S-wave (km/s) = 3.42222 3.73128 3.58009
# Velocity P-wave (km/s) = 4.97533 5.26692 5.12320
#
# Compressibility (1/GPa) = 0.05691212
#
# Stress axis : x y z
#
# Youngs Moduli (GPa) = 39.03793 39.03793 43.97800
#
# Poissons Ratio (x) = 0.10512 0.12834
# Poissons Ratio (y) = 0.10512 0.12834
# Poissons Ratio (z) = 0.11393 0.11393
#
# Static dielectric constant tensor:
#      x y z
#    x 1.705390 0.000000 0.000000 
#    y 0.000000 1.705390 0.000000 
#    z 0.000000 0.000000 1.671320 
# 
# From -- ./inp_files/3093.got.cif
#   From: 2010.05.17/outbox.cif.g08.bks.cpg/sg115_2_cif.got.tgz:3093.got - 2010.05.20 11:07:42.
