data_PCOD9556223
_publ_section_title
;
Structure prediction by ZEFSAII (Michael W. Deem and Ramdas Pophale) SiO2 
 PCOD9556223
Probable space group: P -4 21 C
;
_chemical_formula_sum "Si O2"
_cell_formula_units_Z 56
_cell_length_a 13.772521
_cell_length_b 13.772521
_cell_length_c 13.379372
_cell_angle_alpha 90.000000
_cell_angle_beta 90.000000
_cell_angle_gamma 90.000000
_cell_volume 2537.830518
_symmetry_space_group_name_H-M "P -4 21 C"
_symmetry_group_IT_number 114
_symmetry_cell_setting 'tetragonal'
loop_
_space_group_symop_operation_xyz
x,y,z
y,-x,-z
-x,-y,z
-y,x,-z
1/2+x,1/2-y,1/2-z
1/2-x,1/2+y,1/2-z
1/2-y,1/2-x,1/2+z
1/2+y,1/2+x,1/2+z
loop_
_atom_site_type_symbol
_atom_site_label
_atom_site_fract_x
_atom_site_fract_y
_atom_site_fract_z
Si Si1 0.726487 0.516146 0.274687
Si Si2 0.187378 0.570991 0.620062
Si Si3 0.131883 0.364155 0.149828
Si Si4 0.093760 0.808754 0.300802
Si Si5 0.131739 0.181960 0.295773
Si Si6 0.788659 0.233397 0.494975
Si Si7 0.339439 0.487870 0.493246
O O1 0.816639 0.541898 0.201412
O O2 0.650655 0.599251 0.242261
O O3 0.686075 0.409116 0.253512
O O4 0.727689 0.526563 0.395592
O O5 0.112775 0.481155 0.625401
O O6 0.215870 0.611745 0.728428
O O7 0.195135 0.656154 0.537462
O O8 0.279326 0.503946 0.592000
O O9 0.143443 0.282567 0.236286
O O10 0.191566 0.313012 0.057957
O O11 0.132195 0.783135 0.409690
O O12 0.982109 0.836399 0.303795
O O13 0.171788 0.194734 0.406465
O O14 0.402455 0.585562 0.485594
#
# Coordination Sequence:
#
# PCOD9556223 Si02
#       7
#     8   8   8   8   8   8   8
#     4  11  22  42  63  97 141 171 215 284 341 397
#     4  11  21  42  66  96 131 176 220 276 332 404
#     4  10  25  42  65 101 133 172 228 280 340 408
#     4  10  23  40  64 101 136 167 222 283 335 406
#     4  11  24  41  66  94 134 175 222 277 342 399
#     4  11  23  40  68  94 133 177 221 273 341 407
#     4  11  21  32  66 103 133 165 221 277 340 393
#
# _framework density 22.066092000000001
#
# number of rings (size 3 to 8) (size 9 to 14) (size 15 to 20)
#    0.000    1.286    1.429    5.571    8.000    0.000 
#    0.000    0.714    0.000    0.000    0.000    0.000 
#    0.000    0.000    0.000    0.000    0.000    0.000 
#
# Total GULP energy -312465.250050 kJ/mol
# GULP energy per Si atom -5579.736608 kJ/mol
# Density = 2.201587 g / cm^3
# Si number density = 22.066092 Si / 1000 Ang^3
#
#
#
# Elastic Constant Matrix: (Units=GPa)
#
#
# Indices 1 2 3 4 5 6 
#
# 1 74.7306 -10.8089 23.3502 0.0000 0.0000 0.0000
# 2 -10.8089 74.7306 23.3502 0.0000 0.0000 0.0000
# 3 23.3502 23.3502 149.1391 0.0000 0.0000 0.0000
# 4 0.0000 0.0000 0.0000 17.8267 0.0000 0.0000
# 5 0.0000 0.0000 0.0000 0.0000 17.8267 0.0000
# 6 0.0000 0.0000 0.0000 0.0000 0.0000 15.0058
#
#
#
# Elastic Compliance Matrix: (Units=1/GPa)
#
#
# Indices 1 2 3 4 5 6 
#
# 1 0.014678 0.002987 -0.002766 0.000000 0.000000 0.000000
# 2 0.002987 0.014678 -0.002766 0.000000 0.000000 0.000000
# 3 -0.002766 -0.002766 0.007571 0.000000 0.000000 0.000000
# 4 0.000000 0.000000 0.000000 0.056096 0.000000 0.000000
# 5 0.000000 0.000000 0.000000 0.000000 0.056096 0.000000
# 6 0.000000 0.000000 0.000000 0.000000 0.000000 0.066641
#
#
# Mechanical properties :
#
#
# Convention : Reuss Voigt Hill
#
# Bulk Modulus (GPa) = 31.40918 41.15371 36.28144
# Shear Modulus (GPa) = 21.60203 27.64576 24.62390
#
# Velocity S-wave (km/s) = 3.13224 3.54342 3.34416
# Velocity P-wave (km/s) = 5.22937 5.95246 5.60259
#
# Compressibility (1/GPa) = 0.03183783
#
# Stress axis : x y z
#
# Youngs Moduli (GPa) = 68.13092 68.13092 132.07962
#
# Poissons Ratio (x) = -0.20352 0.36529
# Poissons Ratio (y) = -0.20352 0.36529
# Poissons Ratio (z) = 0.18843 0.18843
#
# Static dielectric constant tensor:
#      x y z
#    x 1.897230 0.000000 0.000000 
#    y 0.000000 1.897230 0.000000 
#    z 0.000000 0.000000 1.773290 
# 
# From -- ./inp_files/1749.got.cif
#   From: 2010.05.17/outbox.cif.g08.bks.cpg/sg114_1_cif.got.tgz:1749.got - 2010.05.20 11:04:54.
