data_PCOD9556156
_publ_section_title
;
Structure prediction by ZEFSAII (Michael W. Deem and Ramdas Pophale) SiO2 
 PCOD9556156
Probable space group: P -4 21 C
;
_chemical_formula_sum "Si O2"
_cell_formula_units_Z 36
_cell_length_a 11.965818
_cell_length_b 11.965818
_cell_length_c 9.530483
_cell_angle_alpha 90.000000
_cell_angle_beta 90.000000
_cell_angle_gamma 90.000000
_cell_volume 1364.582184
_symmetry_space_group_name_H-M "P -4 21 C"
_symmetry_group_IT_number 114
_symmetry_cell_setting 'tetragonal'
loop_
_space_group_symop_operation_xyz
x,y,z
y,-x,-z
-x,-y,z
-y,x,-z
1/2+x,1/2-y,1/2-z
1/2-x,1/2+y,1/2-z
1/2-y,1/2-x,1/2+z
1/2+y,1/2+x,1/2+z
loop_
_atom_site_type_symbol
_atom_site_label
_atom_site_fract_x
_atom_site_fract_y
_atom_site_fract_z
Si Si1 0.502679 0.665422 0.969412
Si Si2 0.052689 0.698559 0.279869
Si Si3 0.154048 0.347898 0.116167
Si Si4 0.137532 0.115910 0.971388
Si Si5 0.500000 0.000000 0.587547
O O1 0.567813 0.748412 0.069036
O O2 0.593960 0.576201 0.922419
O O3 0.424155 0.736238 0.869033
O O4 0.098835 0.777846 0.159282
O O5 0.082596 0.570346 0.309548
O O6 0.919938 0.682443 0.250292
O O7 0.178083 0.226671 0.050509
O O8 0.071514 0.420199 0.015477
O O9 0.003997 0.137559 0.947127
#
# Coordination Sequence:
#
# PCOD9556156 Si02
#       5
#     8   8   8   8   4
#     4  10  24  42  61  92 129 164 213 265 319 385
#     4  10  22  43  67  91 130 171 204 270 328 368
#     4  10  22  42  65  93 126 169 217 259 318 397
#     4   9  20  39  65  93 122 165 222 260 305 386
#     4  10  22  40  64  98 130 162 214 268 324 386
#
# _framework density 26.381702000000001
#
# number of rings (size 3 to 8) (size 9 to 14) (size 15 to 20)
#    0.000    2.222    0.000    0.667    0.000   19.556 
#    0.000   26.667    0.000    0.000    0.000    0.000 
#    0.000    0.000    0.000    0.000    0.000    0.000 
#
# Total GULP energy -200850.552295 kJ/mol
# GULP energy per Si atom -5579.182008 kJ/mol
# Density = 2.632166 g / cm^3
# Si number density = 26.381702 Si / 1000 Ang^3
#
#
#
# Elastic Constant Matrix: (Units=GPa)
#
#
# Indices 1 2 3 4 5 6 
#
# 1 122.7359 25.8588 10.9092 0.0000 0.0000 0.0000
# 2 25.8588 122.7359 10.9092 0.0000 0.0000 0.0000
# 3 10.9092 10.9092 42.0223 0.0000 0.0000 0.0000
# 4 0.0000 0.0000 0.0000 30.0628 0.0000 0.0000
# 5 0.0000 0.0000 0.0000 0.0000 30.0628 0.0000
# 6 0.0000 0.0000 0.0000 0.0000 0.0000 45.9762
#
#
#
# Elastic Compliance Matrix: (Units=1/GPa)
#
#
# Indices 1 2 3 4 5 6 
#
# 1 0.008659 -0.001663 -0.001816 0.000000 0.000000 0.000000
# 2 -0.001663 0.008659 -0.001816 0.000000 0.000000 0.000000
# 3 -0.001816 -0.001816 0.024740 0.000000 0.000000 0.000000
# 4 0.000000 0.000000 0.000000 0.033264 0.000000 0.000000
# 5 0.000000 0.000000 0.000000 0.000000 0.033264 0.000000
# 6 0.000000 0.000000 0.000000 0.000000 0.000000 0.021750
#
#
# Mechanical properties :
#
#
# Convention : Reuss Voigt Hill
#
# Bulk Modulus (GPa) = 31.77877 42.53870 37.15874
# Shear Modulus (GPa) = 33.02141 37.20814 35.11478
#
# Velocity S-wave (km/s) = 3.54175 3.75957 3.65228
# Velocity P-wave (km/s) = 5.36630 5.91652 5.64811
#
# Compressibility (1/GPa) = 0.03146755
#
# Stress axis : x y z
#
# Youngs Moduli (GPa) = 115.48167 115.48167 40.42047
#
# Poissons Ratio (x) = 0.19204 0.07342
# Poissons Ratio (y) = 0.19204 0.07342
# Poissons Ratio (z) = 0.20975 0.20975
#
# Static dielectric constant tensor:
#      x y z
#    x 2.167980 0.000000 0.000000 
#    y 0.000000 2.167980 0.000000 
#    z 0.000000 0.000000 2.033800 
# 
# From -- ./inp_files/1490.got.cif
#   From: 2010.05.17/outbox.cif.g08.bks.cpg/sg114_1_cif.got.tgz:1490.got - 2010.05.20 11:04:54.
