data_PCOD9556567
_publ_section_title
;
Structure prediction by ZEFSAII (Michael W. Deem and Ramdas Pophale) SiO2 
 PCOD9556567
Probable space group: P -4 M 2
;
_chemical_formula_sum "Si O2"
_cell_formula_units_Z 64
_cell_length_a 17.125036
_cell_length_b 17.125036
_cell_length_c 11.941994
_cell_angle_alpha 90.000000
_cell_angle_beta 90.000000
_cell_angle_gamma 90.000000
_cell_volume 3502.191059
_symmetry_space_group_name_H-M "P -4 M 2"
_symmetry_group_IT_number 115
_symmetry_cell_setting 'tetragonal'
loop_
_space_group_symop_operation_xyz
x,y,z
y,-x,-z
-x,-y,z
-y,x,-z
y,x,-z
-y,-x,-z
-x,y,z
x,-y,z
loop_
_atom_site_type_symbol
_atom_site_label
_atom_site_fract_x
_atom_site_fract_y
_atom_site_fract_z
Si Si1 0.228909 0.589935 0.477818
Si Si2 0.591979 0.907011 0.144278
Si Si3 0.687008 0.664613 0.680562
Si Si4 0.710244 0.908664 0.542998
Si Si5 0.648048 0.411294 0.116863
Si Si6 0.741011 0.090547 0.288671
Si Si7 0.174078 0.231355 0.245494
Si Si8 0.201007 0.671365 0.044114
O O1 0.214075 0.500000 0.466239
O O2 0.296238 0.618350 0.392718
O O3 0.261458 0.611787 0.600139
O O4 0.150562 0.637818 0.453161
O O5 0.500000 0.888229 0.163781
O O6 0.651350 0.895881 0.248741
O O7 0.595199 0.000000 0.115817
O O8 0.630228 0.852589 0.048355
O O9 0.650316 0.623456 0.788185
O O10 0.736378 0.740267 0.717543
O O11 0.748718 0.893101 0.421514
O O12 0.760798 0.884194 0.650598
O O13 0.689740 0.000000 0.546171
O O14 0.636080 0.500000 0.151911
O O15 0.739864 0.392659 0.096034
O O16 0.605565 0.394436 0.000000
O O17 0.802749 0.142606 0.221156
O O18 0.756447 0.000000 0.270040
O O19 0.151912 0.285214 0.140745
O O20 0.261212 0.738789 0.000000
#
# Coordination Sequence:
#
# PCOD9556567 Si02
#       8
#     8   8   8   8   8   8   8   8
#     4  10  19  33  56  77 101 138 178 228 275 321
#     4  10  21  36  55  83 119 151 184 237 296 340
#     4   9  19  35  52  74 101 134 186 226 264 330
#     4  10  21  34  53  83 115 146 178 222 278 337
#     4  10  21  34  50  72 100 135 177 230 285 333
#     4  10  19  33  54  82 114 148 184 226 281 334
#     4  10  18  35  57  77 111 147 189 228 268 331
#     4  10  19  34  56  79 107 146 197 235 271 337
#
# _framework density 18.274274999999999
#
# number of rings (size 3 to 8) (size 9 to 14) (size 15 to 20)
#    0.000    2.125    2.500    1.125    0.000    1.875 
#    0.000    1.875    0.000    6.375    0.000    1.750 
#    0.000    0.250    0.000    0.000    0.000    0.000 
#
# Total GULP energy -356796.050233 kJ/mol
# GULP energy per Si atom -5574.938285 kJ/mol
# Density = 1.823268 g / cm^3
# Si number density = 18.274275 Si / 1000 Ang^3
#
#
#
# Elastic Constant Matrix: (Units=GPa)
#
#
# Indices 1 2 3 4 5 6 
#
# 1 57.5846 24.5541 14.0791 0.0000 0.0000 0.0000
# 2 24.5541 57.5845 14.0792 0.0000 0.0000 0.0000
# 3 14.0791 14.0792 59.0156 0.0000 0.0000 0.0000
# 4 0.0000 0.0000 0.0000 18.3417 0.0000 0.0000
# 5 0.0000 0.0000 0.0000 0.0000 18.3417 0.0000
# 6 0.0000 0.0000 0.0000 0.0000 0.0000 17.5182
#
#
#
# Elastic Compliance Matrix: (Units=1/GPa)
#
#
# Indices 1 2 3 4 5 6 
#
# 1 0.021767 -0.008508 -0.003163 0.000000 0.000000 0.000000
# 2 -0.008508 0.021767 -0.003163 0.000000 0.000000 0.000000
# 3 -0.003163 -0.003163 0.018454 0.000000 0.000000 0.000000
# 4 0.000000 0.000000 0.000000 0.054520 0.000000 0.000000
# 5 0.000000 0.000000 0.000000 0.000000 0.054520 0.000000
# 6 0.000000 0.000000 0.000000 0.000000 0.000000 0.057084
#
#
# Mechanical properties :
#
#
# Convention : Reuss Voigt Hill
#
# Bulk Modulus (GPa) = 30.94136 31.06772 31.00454
# Shear Modulus (GPa) = 18.61821 18.93848 18.77834
#
# Velocity S-wave (km/s) = 3.19536 3.22273 3.20907
# Velocity P-wave (km/s) = 5.53012 5.55749 5.54382
#
# Compressibility (1/GPa) = 0.03231920
#
# Stress axis : x y z
#
# Youngs Moduli (GPa) = 45.94116 45.94105 54.18905
#
# Poissons Ratio (x) = 0.39087 0.17140
# Poissons Ratio (y) = 0.39087 0.17141
# Poissons Ratio (z) = 0.14532 0.14532
#
# Static dielectric constant tensor:
#      x y z
#    x 1.625750 0.000000 0.000000 
#    y 0.000000 1.625750 0.000000 
#    z 0.000000 0.000000 1.682990 
# 
# From -- ./inp_files/3233.got.cif
#   From: 2010.05.17/outbox.cif.g08.bks.cpg/sg115_2_cif.got.tgz:3233.got - 2010.05.20 11:07:42.
