data_PCOD9556738
_publ_section_title
;
Structure prediction by ZEFSAII (Michael W. Deem and Ramdas Pophale) SiO2 
 PCOD9556738
Probable space group: P -4 M 2
;
_chemical_formula_sum "Si O2"
_cell_formula_units_Z 48
_cell_length_a 9.554652
_cell_length_b 9.554652
_cell_length_c 31.555948
_cell_angle_alpha 90.000000
_cell_angle_beta 90.000000
_cell_angle_gamma 90.000000
_cell_volume 2880.785877
_symmetry_space_group_name_H-M "P -4 M 2"
_symmetry_group_IT_number 115
_symmetry_cell_setting 'tetragonal'
loop_
_space_group_symop_operation_xyz
x,y,z
y,-x,-z
-x,-y,z
-y,x,-z
y,x,-z
-y,-x,-z
-x,y,z
x,-y,z
loop_
_atom_site_type_symbol
_atom_site_label
_atom_site_fract_x
_atom_site_fract_y
_atom_site_fract_z
Si Si1 0.166124 0.334340 0.798178
Si Si2 0.161044 0.829910 0.546999
Si Si3 0.334871 0.831705 0.629562
Si Si4 0.666330 0.166523 0.868375
Si Si5 0.667351 0.834299 0.299479
Si Si6 0.833427 0.333344 0.035364
O O1 0.192517 0.500000 0.803222
O O2 0.250932 0.248371 0.832595
O O3 0.200695 0.297363 0.749408
O O4 0.000000 0.311703 0.803525
O O5 0.211613 0.788388 0.500000
O O6 0.259841 0.788670 0.585634
O O7 0.000000 0.783117 0.553671
O O8 0.157852 0.000000 0.545899
O O9 0.500000 0.801650 0.628620
O O10 0.258327 0.753152 0.667784
O O11 0.317638 0.000000 0.634046
O O12 0.500000 0.190869 0.864199
O O13 0.707094 0.207185 0.916483
O O14 0.689514 0.000000 0.864326
O O15 0.500000 0.814830 0.304682
O O16 0.696064 0.000000 0.305917
O O17 0.810036 0.500000 0.031113
O O18 0.000000 0.309434 0.031089
O O19 0.749899 0.250102 0.000000
#
# Coordination Sequence:
#
# PCOD9556738 Si02
#       6
#     8   8   8   8   8   8
#     4   9  19  35  53  74  99 126 161 205 247 289
#     4   8  14  27  48  70  92 124 166 206 241 280
#     4  10  20  32  48  74 105 132 160 198 244 292
#     4   9  19  35  52  72 101 133 163 198 242 292
#     4   9  19  36  54  71  95 129 167 204 243 289
#     4   9  19  35  52  72 100 132 165 202 243 287
#
# _framework density 16.662120999999999
#
# number of rings (size 3 to 8) (size 9 to 14) (size 15 to 20)
#    0.000    3.000    0.000    3.000    0.000    5.000 
#    0.000   10.833    0.000    3.000    0.000    0.000 
#    0.000    0.000    0.000    0.000    0.000    0.000 
#
# Total GULP energy -267534.718680 kJ/mol
# GULP energy per Si atom -5573.639973 kJ/mol
# Density = 1.662420 g / cm^3
# Si number density = 16.662121 Si / 1000 Ang^3
#
#
#
# Elastic Constant Matrix: (Units=GPa)
#
#
# Indices 1 2 3 4 5 6 
#
# 1 60.7829 54.9014 95.9121 0.0000 0.0000 0.0000
# 2 54.9014 60.7828 95.9120 0.0000 0.0000 0.0000
# 3 95.9121 95.9120 204.3120 0.0000 0.0000 0.0000
# 4 0.0000 0.0000 0.0000 148.8169 0.0000 0.0000
# 5 0.0000 0.0000 0.0000 0.0000 148.8386 0.0000
# 6 0.0000 0.0000 0.0000 0.0000 0.0000 35.9579
#
#
#
# Elastic Compliance Matrix: (Units=1/GPa)
#
#
# Indices 1 2 3 4 5 6 
#
# 1 0.104518 -0.065508 -0.018313 0.000000 0.000000 0.000000
# 2 -0.065508 0.104518 -0.018313 0.000000 0.000000 0.000000
# 3 -0.018313 -0.018313 0.022088 0.000000 0.000000 0.000000
# 4 0.000000 0.000000 0.000000 0.006720 0.000000 0.000000
# 5 0.000000 0.000000 0.000000 0.000000 0.006719 0.000000
# 6 0.000000 0.000000 0.000000 0.000000 0.000000 0.027810
#
#
# Mechanical properties :
#
#
# Convention : Reuss Voigt Hill
#
# Bulk Modulus (GPa) = 37.23467 91.03649 64.13558
# Shear Modulus (GPa) = 10.29672 71.99951 41.14811
#
# Velocity S-wave (km/s) = 2.48860 6.58068 4.97486
# Velocity P-wave (km/s) = 5.53651 10.60640 8.46016
#
# Compressibility (1/GPa) = 0.02685669
#
# Stress axis : x y z
#
# Youngs Moduli (GPa) = 9.56773 9.56776 45.27353
#
# Poissons Ratio (x) = 0.62676 0.82909
# Poissons Ratio (y) = 0.62676 0.82908
# Poissons Ratio (z) = 0.17521 0.17521
#
# Static dielectric constant tensor:
#      x y z
#    x 1.544200 0.000000 0.000000 
#    y 0.000000 1.544200 0.000000 
#    z 0.000000 0.000000 1.555850 
# 
# From -- ./inp_files/6092.got.cif
#   From: 2010.05.17/outbox.cif.g08.bks.cpg/sg115_4_cif.got.tgz:6092.got - 2010.05.20 11:07:42.
