data_PCOD9556606
_publ_section_title
;
Structure prediction by ZEFSAII (Michael W. Deem and Ramdas Pophale) SiO2 
 PCOD9556606
Probable space group: P -4 M 2
;
_chemical_formula_sum "Si O2"
_cell_formula_units_Z 48
_cell_length_a 8.112465
_cell_length_b 8.112465
_cell_length_c 35.059094
_cell_angle_alpha 90.000000
_cell_angle_beta 90.000000
_cell_angle_gamma 90.000000
_cell_volume 2307.312193
_symmetry_space_group_name_H-M "P -4 M 2"
_symmetry_group_IT_number 115
_symmetry_cell_setting 'tetragonal'
loop_
_space_group_symop_operation_xyz
x,y,z
y,-x,-z
-x,-y,z
-y,x,-z
y,x,-z
-y,-x,-z
-x,y,z
x,-y,z
loop_
_atom_site_type_symbol
_atom_site_label
_atom_site_fract_x
_atom_site_fract_y
_atom_site_fract_z
Si Si1 0.300797 0.814126 0.623293
Si Si2 0.701565 0.318467 0.879820
Si Si3 0.808018 0.692048 0.039974
Si Si4 0.701031 0.692935 0.541309
Si Si5 0.300423 0.000000 0.832437
Si Si6 0.000000 0.199281 0.255220
Si Si7 0.322686 0.197293 0.298802
O O1 0.500000 0.801995 0.623154
O O2 0.243832 0.776757 0.580308
O O3 0.234276 0.698906 0.656435
O O4 0.252890 0.000000 0.633469
O O5 0.500000 0.313023 0.880540
O O6 0.751069 0.500000 0.866138
O O7 0.755632 0.292016 0.923634
O O8 0.756797 0.165286 0.854176
O O9 0.763555 0.500000 0.033874
O O10 0.000000 0.698825 0.050810
O O11 0.780369 0.780369 0.000000
O O12 0.758098 0.758098 0.500000
O O13 0.500000 0.703127 0.540139
O O14 0.743473 0.500000 0.544054
O O15 0.500000 0.000000 0.833684
O O16 0.245238 0.000000 0.788897
O O17 0.835477 0.263093 0.276198
O O18 0.000000 0.000000 0.258518
O O19 0.500000 0.262436 0.285583
O O20 0.323245 0.000000 0.294052
#
# Coordination Sequence:
#
# PCOD9556606 Si02
#       7
#     8   8   8   8   4   4   8
#     4  10  19  31  51  79 109 140 176 224 281 331
#     4   9  17  32  55  81 111 147 186 232 286 340
#     4  10  19  32  51  77 109 145 188 235 279 330
#     4   8  14  26  44  66  96 136 178 217 260 315
#     4  10  20  36  58  84 112 144 186 234 282 344
#     4  10  22  40  58  80 112 144 176 226 288 342
#     4  10  21  38  59  80 105 142 184 224 277 344
#
# _framework density 20.803425000000001
#
# number of rings (size 3 to 8) (size 9 to 14) (size 15 to 20)
#    0.000    2.500    1.667    1.500    0.000    3.333 
#    0.000    1.667    0.000    4.000    0.000    0.000 
#    0.000    0.000    0.000    0.000    0.000    0.000 
#
# Total GULP energy -267857.053663 kJ/mol
# GULP energy per Si atom -5580.355285 kJ/mol
# Density = 2.075608 g / cm^3
# Si number density = 20.803425 Si / 1000 Ang^3
#
#
#
# Elastic Constant Matrix: (Units=GPa)
#
#
# Indices 1 2 3 4 5 6 
#
# 1 64.8416 23.3368 36.0163 0.0000 0.0000 0.0000
# 2 23.3368 64.8416 36.0163 0.0000 0.0000 0.0000
# 3 36.0163 36.0163 128.1346 0.0000 0.0000 0.0000
# 4 0.0000 0.0000 0.0000 25.5490 0.0000 0.0000
# 5 0.0000 0.0000 0.0000 0.0000 25.5490 0.0000
# 6 0.0000 0.0000 0.0000 0.0000 0.0000 6.6940
#
#
#
# Elastic Compliance Matrix: (Units=1/GPa)
#
#
# Indices 1 2 3 4 5 6 
#
# 1 0.019407 -0.004686 -0.004138 0.000000 0.000000 0.000000
# 2 -0.004686 0.019407 -0.004138 0.000000 0.000000 0.000000
# 3 -0.004138 -0.004138 0.010130 0.000000 0.000000 0.000000
# 4 0.000000 0.000000 0.000000 0.039141 0.000000 0.000000
# 5 0.000000 0.000000 0.000000 0.000000 0.039141 0.000000
# 6 0.000000 0.000000 0.000000 0.000000 0.000000 0.149388
#
#
# Mechanical properties :
#
#
# Convention : Reuss Voigt Hill
#
# Bulk Modulus (GPa) = 43.43871 49.83962 46.63916
# Shear Modulus (GPa) = 16.11807 22.38827 19.25317
#
# Velocity S-wave (km/s) = 2.78651 3.28408 3.04547
# Velocity P-wave (km/s) = 5.59274 6.19594 5.90205
#
# Compressibility (1/GPa) = 0.02302094
#
# Stress axis : x y z
#
# Youngs Moduli (GPa) = 51.52731 51.52731 98.71302
#
# Poissons Ratio (x) = 0.24148 0.40845
# Poissons Ratio (y) = 0.24148 0.40845
# Poissons Ratio (z) = 0.21321 0.21321
#
# Static dielectric constant tensor:
#      x y z
#    x 1.757320 0.000000 0.000000 
#    y 0.000000 1.757320 0.000000 
#    z 0.000000 0.000000 1.714800 
# 
# From -- ./inp_files/6239.got.cif
#   From: 2010.05.17/outbox.cif.g08.bks.cpg/sg115_4_cif.got.tgz:6239.got - 2010.05.20 11:07:42.
