data_PCOD9556107
_publ_section_title
;
Structure prediction by ZEFSAII (Michael W. Deem and Ramdas Pophale) SiO2 
 PCOD9556107
Probable space group: P -4 21 C
;
_chemical_formula_sum "Si O2"
_cell_formula_units_Z 48
_cell_length_a 7.918260
_cell_length_b 7.918260
_cell_length_c 34.100363
_cell_angle_alpha 90.000000
_cell_angle_beta 90.000000
_cell_angle_gamma 90.000000
_cell_volume 2138.053252
_symmetry_space_group_name_H-M "P -4 21 C"
_symmetry_group_IT_number 114
_symmetry_cell_setting 'tetragonal'
loop_
_space_group_symop_operation_xyz
x,y,z
y,-x,-z
-x,-y,z
-y,x,-z
1/2+x,1/2-y,1/2-z
1/2-x,1/2+y,1/2-z
1/2-y,1/2-x,1/2+z
1/2+y,1/2+x,1/2+z
loop_
_atom_site_type_symbol
_atom_site_label
_atom_site_fract_x
_atom_site_fract_y
_atom_site_fract_z
Si Si1 0.775070 0.285903 0.269071
Si Si2 0.215382 0.829650 0.633822
Si Si3 0.216463 0.827651 0.992079
Si Si4 0.000000 0.000000 0.308873
Si Si5 0.312456 0.065609 0.811680
Si Si6 0.000000 0.500000 0.317174
Si Si7 0.196392 0.500643 0.943500
O O1 0.790658 0.304906 0.222470
O O2 0.595460 0.266046 0.289527
O O3 0.849839 0.454835 0.288115
O O4 0.905377 0.139039 0.282533
O O5 0.265583 0.640577 0.647961
O O6 0.203326 0.899232 0.590151
O O7 0.047967 0.856860 0.658974
O O8 0.346867 0.953698 0.654995
O O9 0.232209 0.695229 0.955851
O O10 0.379352 0.791679 0.018739
O O11 0.033043 0.787618 0.012698
O O12 0.500000 0.000000 0.819666
O O13 0.000000 0.500000 0.930964
#
# Coordination Sequence:
#
# PCOD9556107 Si02
#       7
#     8   8   8   4   8   4   8
#     4  11  23  41  65  86 125 177 238 292 337 405
#     4  11  23  41  63  96 138 168 221 283 358 416
#     4   9  20  41  69 101 132 178 232 279 337 424
#     4  10  22  40  64  89 128 172 222 294 337 406
#     4  12  25  42  64  94 129 178 238 295 352 415
#     4  10  22  42  62  96 122 178 230 278 344 412
#     4  10  21  43  70 101 142 177 225 280 346 431
#
# _framework density 22.450327999999999
#
# number of rings (size 3 to 8) (size 9 to 14) (size 15 to 20)
#    0.000    1.500    3.333    2.000    0.000    2.333 
#    6.000    4.167    0.000    0.000    0.000    0.000 
#    0.000    0.000    0.000    0.000    0.000    0.000 
#
# Total GULP energy -267484.692005 kJ/mol
# GULP energy per Si atom -5572.597750 kJ/mol
# Density = 2.239923 g / cm^3
# Si number density = 22.450328 Si / 1000 Ang^3
#
#
#
# Elastic Constant Matrix: (Units=GPa)
#
#
# Indices 1 2 3 4 5 6 
#
# 1 79.8286 3.2918 25.0519 0.0000 0.0000 0.0000
# 2 3.2918 79.8286 25.0519 0.0000 0.0000 0.0000
# 3 25.0519 25.0519 73.4084 0.0000 0.0000 0.0000
# 4 0.0000 0.0000 0.0000 18.2696 0.0000 0.0000
# 5 0.0000 0.0000 0.0000 0.0000 18.2696 0.0000
# 6 0.0000 0.0000 0.0000 0.0000 0.0000 31.4917
#
#
#
# Elastic Compliance Matrix: (Units=1/GPa)
#
#
# Indices 1 2 3 4 5 6 
#
# 1 0.014106 0.001040 -0.005169 0.000000 0.000000 0.000000
# 2 0.001040 0.014106 -0.005169 0.000000 0.000000 0.000000
# 3 -0.005169 -0.005169 0.017150 0.000000 0.000000 0.000000
# 4 0.000000 0.000000 0.000000 0.054736 0.000000 0.000000
# 5 0.000000 0.000000 0.000000 0.000000 0.054736 0.000000
# 6 0.000000 0.000000 0.000000 0.000000 0.000000 0.031754
#
#
# Mechanical properties :
#
#
# Convention : Reuss Voigt Hill
#
# Bulk Modulus (GPa) = 37.35879 37.76187 37.56033
# Shear Modulus (GPa) = 23.35288 25.58416 24.46852
#
# Velocity S-wave (km/s) = 3.22872 3.37944 3.30494
# Velocity P-wave (km/s) = 5.52958 5.66429 5.59734
#
# Compressibility (1/GPa) = 0.02676746
#
# Stress axis : x y z
#
# Youngs Moduli (GPa) = 70.89140 70.89140 58.30752
#
# Poissons Ratio (x) = -0.07376 0.30139
# Poissons Ratio (y) = -0.07376 0.30139
# Poissons Ratio (z) = 0.36644 0.36644
#
# Static dielectric constant tensor:
#      x y z
#    x 1.962660 0.000000 0.000000 
#    y 0.000000 1.962660 0.000000 
#    z 0.000000 0.000000 1.825430 
# 
# From -- ./inp_files/4004.got.cif
#   From: 2010.05.17/outbox.cif.g08.bks.cpg/sg114_3_cif.got.tgz:4004.got - 2010.05.20 11:04:54.
