data_PCOD9556542
_publ_section_title
;
Structure prediction by ZEFSAII (Michael W. Deem and Ramdas Pophale) SiO2 
 PCOD9556542
Probable space group: P -4 M 2
;
_chemical_formula_sum "Si O2"
_cell_formula_units_Z 56
_cell_length_a 14.070670
_cell_length_b 14.070670
_cell_length_c 16.581537
_cell_angle_alpha 90.000000
_cell_angle_beta 90.000000
_cell_angle_gamma 90.000000
_cell_volume 3282.874946
_symmetry_space_group_name_H-M "P -4 M 2"
_symmetry_group_IT_number 115
_symmetry_cell_setting 'tetragonal'
loop_
_space_group_symop_operation_xyz
x,y,z
y,-x,-z
-x,-y,z
-y,x,-z
y,x,-z
-y,-x,-z
-x,y,z
x,-y,z
loop_
_atom_site_type_symbol
_atom_site_label
_atom_site_fract_x
_atom_site_fract_y
_atom_site_fract_z
Si Si1 0.796140 0.887593 0.749373
Si Si2 0.610250 0.115450 0.482895
Si Si3 0.613204 0.231005 0.002855
Si Si4 0.606711 0.115396 0.665466
Si Si5 0.889738 0.613183 0.835230
Si Si6 0.113111 0.718957 0.672960
Si Si7 0.886791 0.226720 0.067737
O O1 0.688314 0.858261 0.727599
O O2 0.861156 0.827228 0.690188
O O3 0.814632 0.868213 0.843287
O O4 0.805983 0.000000 0.736153
O O5 0.500000 0.139136 0.466271
O O6 0.632651 0.146256 0.574237
O O7 0.676314 0.151087 0.410633
O O8 0.615803 0.000000 0.483913
O O9 0.500000 0.237004 0.989657
O O10 0.630633 0.179065 0.089190
O O11 0.668451 0.331550 0.000000
O O12 0.670430 0.162825 0.941353
O O13 0.500000 0.148571 0.684258
O O14 0.603512 0.000000 0.664587
O O15 0.891966 0.500000 0.822034
O O16 0.855338 0.662484 0.753186
O O17 0.000000 0.642942 0.852591
O O18 0.000000 0.707033 0.670578
O O19 0.000000 0.234662 0.057287
O O20 0.839714 0.160287 0.000000
#
# Coordination Sequence:
#
# PCOD9556542 Si02
#       7
#     8   8   8   8   8   8   8
#     4  10  21  33  45  65  94 129 165 196 233 287
#     4   8  14  26  46  70  91 114 149 191 234 277
#     4  10  20  33  49  69  94 123 155 196 247 303
#     4   8  15  30  49  66  88 118 152 194 238 274
#     4   9  17  30  49  71  92 115 148 195 251 299
#     4  10  18  28  45  68  96 127 155 190 233 279
#     4  10  21  36  52  71  95 125 167 215 257 300
#
# _framework density 17.058218
#
# number of rings (size 3 to 8) (size 9 to 14) (size 15 to 20)
#    0.000    2.714    0.000    3.429    0.000    6.000 
#    0.000    2.857    0.000    0.000    0.000    4.000 
#    0.000    1.714    0.000    6.286    0.000    0.571 
#
# Total GULP energy -311921.586533 kJ/mol
# GULP energy per Si atom -5570.028331 kJ/mol
# Density = 1.701939 g / cm^3
# Si number density = 17.058218 Si / 1000 Ang^3
#
#
#
# Elastic Constant Matrix: (Units=GPa)
#
#
# Indices 1 2 3 4 5 6 
#
# 1 37.1331 6.5446 13.8099 0.0000 0.0000 0.0000
# 2 6.5446 37.1328 13.8102 0.0000 0.0000 0.0000
# 3 13.8099 13.8102 62.0517 0.0000 0.0000 0.0000
# 4 0.0000 0.0000 0.0000 22.7013 0.0000 0.0000
# 5 0.0000 0.0000 0.0000 0.0000 22.7013 0.0000
# 6 0.0000 0.0000 0.0000 0.0000 0.0000 19.7701
#
#
#
# Elastic Compliance Matrix: (Units=1/GPa)
#
#
# Indices 1 2 3 4 5 6 
#
# 1 0.029668 -0.003024 -0.005930 0.000000 0.000000 0.000000
# 2 -0.003024 0.029669 -0.005930 0.000000 0.000000 0.000000
# 3 -0.005930 -0.005930 0.018755 0.000000 0.000000 0.000000
# 4 0.000000 0.000000 0.000000 0.044050 0.000000 0.000000
# 5 0.000000 0.000000 0.000000 0.000000 0.044050 0.000000
# 6 0.000000 0.000000 0.000000 0.000000 0.000000 0.050582
#
#
# Mechanical properties :
#
#
# Convention : Reuss Voigt Hill
#
# Bulk Modulus (GPa) = 20.69322 22.73855 21.71589
# Shear Modulus (GPa) = 19.03672 19.84472 19.44072
#
# Velocity S-wave (km/s) = 3.34426 3.41450 3.37956
# Velocity P-wave (km/s) = 5.20282 5.37624 5.29024
#
# Compressibility (1/GPa) = 0.04832501
#
# Stress axis : x y z
#
# Youngs Moduli (GPa) = 33.70591 33.70545 53.31876
#
# Poissons Ratio (x) = 0.10191 0.31617
# Poissons Ratio (y) = 0.10191 0.31619
# Poissons Ratio (z) = 0.19987 0.19988
#
# Static dielectric constant tensor:
#      x y z
#    x 1.585540 0.000000 0.000000 
#    y 0.000000 1.585540 0.000000 
#    z 0.000000 0.000000 1.596280 
# 
# From -- ./inp_files/3832.got.cif
#   From: 2010.05.17/outbox.cif.g08.bks.cpg/sg115_2_cif.got.tgz:3832.got - 2010.05.20 11:07:42.
