data_PCOD9556224
_publ_section_title
;
Structure prediction by ZEFSAII (Michael W. Deem and Ramdas Pophale) SiO2 
 PCOD9556224
Probable space group: P -4 21 C
;
_chemical_formula_sum "Si O2"
_cell_formula_units_Z 40
_cell_length_a 13.231380
_cell_length_b 13.231380
_cell_length_c 8.056783
_cell_angle_alpha 90.000000
_cell_angle_beta 90.000000
_cell_angle_gamma 90.000000
_cell_volume 1410.496300
_symmetry_space_group_name_H-M "P -4 21 C"
_symmetry_group_IT_number 114
_symmetry_cell_setting 'tetragonal'
loop_
_space_group_symop_operation_xyz
x,y,z
y,-x,-z
-x,-y,z
-y,x,-z
1/2+x,1/2-y,1/2-z
1/2-x,1/2+y,1/2-z
1/2-y,1/2-x,1/2+z
1/2+y,1/2+x,1/2+z
loop_
_atom_site_type_symbol
_atom_site_label
_atom_site_fract_x
_atom_site_fract_y
_atom_site_fract_z
Si Si1 0.500000 0.500000 0.500000
Si Si2 0.773169 0.549119 0.818379
Si Si3 0.191653 0.121146 0.447681
Si Si4 0.878207 0.818326 0.967192
Si Si5 0.000000 0.000000 0.500000
Si Si6 0.500000 0.000000 0.639574
Si Si7 0.438740 0.207213 0.620128
O O1 0.429786 0.577326 0.592579
O O2 0.733887 0.639897 0.945135
O O3 0.719612 0.583307 0.648378
O O4 0.893359 0.540722 0.785738
O O5 0.734403 0.440647 0.892920
O O6 0.271465 0.107816 0.300114
O O7 0.091216 0.054524 0.404215
O O8 0.766874 0.860109 0.002222
O O9 0.944875 0.744589 0.856791
O O10 0.545637 0.903470 0.550506
#
# Coordination Sequence:
#
# PCOD9556224 Si02
#       7
#     2   8   8   8   2   4   8
#     4   8  16  34  68  98 124 154 212 278 320 370
#     4  10  23  40  65  94 129 168 214 263 321 381
#     4   9  20  41  66  96 126 166 213 266 322 379
#     4   9  20  41  66  96 126 166 213 266 322 379
#     4   8  16  34  68  98 124 154 212 278 320 370
#     4  12  28  46  64  94 136 178 216 262 316 382
#     4  10  23  40  65  94 129 168 214 263 321 381
#
# _framework density 28.358812
#
# number of rings (size 3 to 8) (size 9 to 14) (size 15 to 20)
#    0.000    2.400    0.000    0.000    0.000   30.400 
#    0.000   20.000    0.000    0.000    0.000    0.000 
#    0.000    0.000    0.000    0.000    0.000    0.000 
#
# Total GULP energy -222714.012035 kJ/mol
# GULP energy per Si atom -5567.850301 kJ/mol
# Density = 2.829427 g / cm^3
# Si number density = 28.358812 Si / 1000 Ang^3
#
#
#
# Elastic Constant Matrix: (Units=GPa)
#
#
# Indices 1 2 3 4 5 6 
#
# 1 211.1675 55.3801 50.7842 0.0000 0.0000 0.0000
# 2 55.3801 211.1675 50.7842 0.0000 0.0000 0.0000
# 3 50.7842 50.7842 104.0075 0.0000 0.0000 0.0000
# 4 0.0000 0.0000 0.0000 16.5616 0.0000 0.0000
# 5 0.0000 0.0000 0.0000 0.0000 16.5616 0.0000
# 6 0.0000 0.0000 0.0000 0.0000 0.0000 29.8215
#
#
#
# Elastic Compliance Matrix: (Units=1/GPa)
#
#
# Indices 1 2 3 4 5 6 
#
# 1 0.005514 -0.000905 -0.002251 0.000000 0.000000 0.000000
# 2 -0.000905 0.005514 -0.002251 0.000000 0.000000 0.000000
# 3 -0.002251 -0.002251 0.011813 0.000000 0.000000 0.000000
# 4 0.000000 0.000000 0.000000 0.060381 0.000000 0.000000
# 5 0.000000 0.000000 0.000000 0.000000 0.060381 0.000000
# 6 0.000000 0.000000 0.000000 0.000000 0.000000 0.033533
#
#
# Mechanical properties :
#
#
# Convention : Reuss Voigt Hill
#
# Bulk Modulus (GPa) = 83.13461 93.35996 88.24729
# Shear Modulus (GPa) = 26.04751 37.21519 31.63135
#
# Velocity S-wave (km/s) = 3.03396 3.62649 3.34338
# Velocity P-wave (km/s) = 6.45385 7.10829 6.78896
#
# Compressibility (1/GPa) = 0.01202868
#
# Stress axis : x y z
#
# Youngs Moduli (GPa) = 181.35215 181.35215 84.65605
#
# Poissons Ratio (x) = 0.16410 0.19053
# Poissons Ratio (y) = 0.16410 0.19053
# Poissons Ratio (z) = 0.40815 0.40815
#
# Static dielectric constant tensor:
#      x y z
#    x 2.322020 0.000000 0.000000 
#    y 0.000000 2.322020 0.000000 
#    z 0.000000 0.000000 2.176290 
# 
# From -- ./inp_files/847.got.cif
#   From: 2010.05.17/outbox.cif.g08.bks.cpg/sg114_1_cif.got.tgz:847.got - 2010.05.20 11:04:54.
