data_PCOD9556951
_publ_section_title
;
Structure prediction by ZEFSAII (Michael W. Deem and Ramdas Pophale) SiO2 
 PCOD9556951
Probable space group: P -4 M 2
;
_chemical_formula_sum "Si O2"
_cell_formula_units_Z 48
_cell_length_a 9.184873
_cell_length_b 9.184873
_cell_length_c 31.783224
_cell_angle_alpha 90.000000
_cell_angle_beta 90.000000
_cell_angle_gamma 90.000000
_cell_volume 2681.292911
_symmetry_space_group_name_H-M "P -4 M 2"
_symmetry_group_IT_number 115
_symmetry_cell_setting 'tetragonal'
loop_
_space_group_symop_operation_xyz
x,y,z
y,-x,-z
-x,-y,z
-y,x,-z
y,x,-z
-y,-x,-z
-x,y,z
x,-y,z
loop_
_atom_site_type_symbol
_atom_site_label
_atom_site_fract_x
_atom_site_fract_y
_atom_site_fract_z
Si Si1 0.674580 0.827822 0.210679
Si Si2 0.325465 0.329764 0.624572
Si Si3 0.674493 0.172498 0.039176
Si Si4 0.170798 0.175155 0.452416
Si Si5 0.332432 0.677113 0.874993
Si Si6 0.172641 0.673693 0.288796
O O1 0.500000 0.806547 0.215179
O O2 0.722078 0.749307 0.167540
O O3 0.754293 0.758053 0.250397
O O4 0.701703 0.000000 0.207934
O O5 0.500000 0.314974 0.620089
O O6 0.290908 0.500000 0.629213
O O7 0.249468 0.263382 0.583762
O O8 0.282353 0.244250 0.666851
O O9 0.500000 0.194898 0.034406
O O10 0.721268 0.248750 0.082722
O O11 0.700628 0.000000 0.041289
O O12 0.755888 0.244113 0.000000
O O13 0.216072 0.216072 0.500000
O O14 0.000000 0.212975 0.447242
O O15 0.181914 0.000000 0.449631
O O16 0.500000 0.725669 0.875334
O O17 0.332244 0.500000 0.874891
O O18 0.197887 0.500000 0.283409
O O19 0.000000 0.698627 0.289959
#
# Coordination Sequence:
#
# PCOD9556951 Si02
#       6
#     8   8   8   8   8   8
#     4  10  20  34  54  81 111 141 174 215 264 316
#     4  10  21  36  55  80 108 138 175 220 267 314
#     4  10  20  34  53  78 108 141 178 220 265 314
#     4   9  19  36  56  78 106 141 179 217 260 313
#     4   9  17  31  54  81 107 138 176 218 263 311
#     4  10  21  37  56  77 103 139 181 221 263 313
#
# _framework density 17.901810999999999
#
# number of rings (size 3 to 8) (size 9 to 14) (size 15 to 20)
#    0.000    2.333    0.000    3.000    0.000    7.667 
#    0.000    3.333    0.000    5.000    0.000    0.000 
#    0.000    0.000    0.000    0.000    0.000    0.000 
#
# Total GULP energy -267966.535297 kJ/mol
# GULP energy per Si atom -5582.636152 kJ/mol
# Density = 1.786107 g / cm^3
# Si number density = 17.901811 Si / 1000 Ang^3
#
#
#
# Elastic Constant Matrix: (Units=GPa)
#
#
# Indices 1 2 3 4 5 6 
#
# 1 74.0890 65.2299 91.1707 0.0000 0.0000 0.0000
# 2 65.2299 74.0886 91.1712 0.0000 0.0000 0.0000
# 3 91.1707 91.1712 213.5939 0.0000 0.0000 0.0000
# 4 0.0000 0.0000 0.0000 233.1787 0.0000 0.0000
# 5 0.0000 0.0000 0.0000 0.0000 233.1399 0.0000
# 6 0.0000 0.0000 0.0000 0.0000 0.0000 25.9446
#
#
#
# Elastic Compliance Matrix: (Units=1/GPa)
#
#
# Indices 1 2 3 4 5 6 
#
# 1 0.064571 -0.048309 -0.006941 0.000000 0.000000 0.000000
# 2 -0.048309 0.064573 -0.006942 0.000000 0.000000 0.000000
# 3 -0.006941 -0.006942 0.010608 0.000000 0.000000 0.000000
# 4 0.000000 0.000000 0.000000 0.004289 0.000000 0.000000
# 5 0.000000 0.000000 0.000000 0.000000 0.004289 0.000000
# 6 0.000000 0.000000 0.000000 0.000000 0.000000 0.038544
#
#
# Mechanical properties :
#
#
# Convention : Reuss Voigt Hill
#
# Bulk Modulus (GPa) = 65.07362 95.21276 80.14319
# Shear Modulus (GPa) = 15.80370 106.06596 60.93483
#
# Velocity S-wave (km/s) = 2.97442 7.70567 5.84057
# Velocity P-wave (km/s) = 6.94445 11.50962 9.50518
#
# Compressibility (1/GPa) = 0.01536721
#
# Stress axis : x y z
#
# Youngs Moduli (GPa) = 15.48672 15.48635 94.26832
#
# Poissons Ratio (x) = 0.74813 0.65436
# Poissons Ratio (y) = 0.74814 0.65445
# Poissons Ratio (z) = 0.10750 0.10751
#
# Static dielectric constant tensor:
#      x y z
#    x 1.596920 0.000000 0.000000 
#    y 0.000000 1.596910 0.000000 
#    z 0.000000 0.000000 1.580070 
# 
# From -- ./inp_files/5920.got.cif
#   From: 2010.05.17/outbox.cif.g08.bks.cpg/sg115_3_cif.got.tgz:5920.got - 2010.05.20 11:07:42.
