data_PCOD9556189
_publ_section_title
;
Structure prediction by ZEFSAII (Michael W. Deem and Ramdas Pophale) SiO2 
 PCOD9556189
Probable space group: P -4 21 C
;
_chemical_formula_sum "Si O2"
_cell_formula_units_Z 30
_cell_length_a 8.247937
_cell_length_b 8.247937
_cell_length_c 20.438696
_cell_angle_alpha 90.000000
_cell_angle_beta 90.000000
_cell_angle_gamma 90.000000
_cell_volume 1390.413110
_symmetry_space_group_name_H-M "P -4 21 C"
_symmetry_group_IT_number 114
_symmetry_cell_setting 'tetragonal'
loop_
_space_group_symop_operation_xyz
x,y,z
y,-x,-z
-x,-y,z
-y,x,-z
1/2+x,1/2-y,1/2-z
1/2-x,1/2+y,1/2-z
1/2-y,1/2-x,1/2+z
1/2+y,1/2+x,1/2+z
loop_
_atom_site_type_symbol
_atom_site_label
_atom_site_fract_x
_atom_site_fract_y
_atom_site_fract_z
Si Si1 0.000000 0.500000 0.818834
Si Si2 0.091122 0.235403 0.215028
Si Si3 0.000000 0.000000 0.000000
Si Si4 0.309302 0.344335 0.384481
Si Si5 0.520499 0.685902 0.832651
O O1 0.846904 0.503932 0.769836
O O2 0.960528 0.660273 0.861933
O O3 0.209547 0.357401 0.175515
O O4 0.176043 0.100778 0.260033
O O5 0.957636 0.162744 0.167143
O O6 0.121944 0.903829 0.047100
O O7 0.255567 0.156502 0.380876
O O8 0.500000 0.500000 0.852002
#
# Coordination Sequence:
#
# PCOD9556189 Si02
#       5
#     4   8   2   8   8
#     4  10  22  42  72 114 134 170 220 316 368 422
#     4  11  23  40  74 117 148 175 222 300 377 436
#     4  12  32  52  68  88 136 216 244 286 336 444
#     4  11  26  44  72  98 146 188 244 283 357 443
#     4  11  23  39  73 113 149 177 222 300 376 429
#
# _framework density 21.576319000000002
#
# number of rings (size 3 to 8) (size 9 to 14) (size 15 to 20)
#    0.000    1.067    2.667    3.200   13.067    0.000 
#    4.800    0.000    0.000    0.000    0.000    0.000 
#    0.000    0.000    0.000    0.000    0.000    0.000 
#
# Total GULP energy -167716.845491 kJ/mol
# GULP energy per Si atom -5590.561516 kJ/mol
# Density = 2.152721 g / cm^3
# Si number density = 21.576319 Si / 1000 Ang^3
#
#
#
# Elastic Constant Matrix: (Units=GPa)
#
#
# Indices 1 2 3 4 5 6 
#
# 1 140.0832 63.6742 56.2302 0.0000 0.0000 0.0000
# 2 63.6742 140.0832 56.2302 0.0000 0.0000 0.0000
# 3 56.2302 56.2302 130.0526 0.0000 0.0000 0.0000
# 4 0.0000 0.0000 0.0000 29.3659 0.0000 0.0000
# 5 0.0000 0.0000 0.0000 0.0000 29.3659 0.0000
# 6 0.0000 0.0000 0.0000 0.0000 0.0000 64.6367
#
#
#
# Elastic Compliance Matrix: (Units=1/GPa)
#
#
# Indices 1 2 3 4 5 6 
#
# 1 0.009767 -0.003321 -0.002787 0.000000 0.000000 0.000000
# 2 -0.003321 0.009767 -0.002787 0.000000 0.000000 0.000000
# 3 -0.002787 -0.002787 0.010099 0.000000 0.000000 0.000000
# 4 0.000000 0.000000 0.000000 0.034053 0.000000 0.000000
# 5 0.000000 0.000000 0.000000 0.000000 0.034053 0.000000
# 6 0.000000 0.000000 0.000000 0.000000 0.000000 0.015471
#
#
# Mechanical properties :
#
#
# Convention : Reuss Voigt Hill
#
# Bulk Modulus (GPa) = 84.43695 84.72095 84.57895
# Shear Modulus (GPa) = 37.05150 40.27934 38.66542
#
# Velocity S-wave (km/s) = 4.14844 4.32537 4.23783
# Velocity P-wave (km/s) = 7.88449 8.01848 7.95177
#
# Compressibility (1/GPa) = 0.01184316
#
# Stress axis : x y z
#
# Youngs Moduli (GPa) = 102.38805 102.38805 99.01725
#
# Poissons Ratio (x) = 0.34000 0.27597
# Poissons Ratio (y) = 0.34000 0.27597
# Poissons Ratio (z) = 0.28536 0.28536
#
# Static dielectric constant tensor:
#      x y z
#    x 1.915280 0.000000 0.000000 
#    y 0.000000 1.915280 0.000000 
#    z 0.000000 0.000000 1.725130 
# 
# From -- ./inp_files/3272.got.cif
#   From: 2010.05.17/outbox.cif.g08.bks.cpg/sg114_2_cif.got.tgz:3272.got - 2010.05.20 11:04:54.
