data_PCOD9556892
_publ_section_title
;
Structure prediction by ZEFSAII (Michael W. Deem and Ramdas Pophale) SiO2 
 PCOD9556892
Probable space group: P -4 M 2
;
_chemical_formula_sum "Si O2"
_cell_formula_units_Z 44
_cell_length_a 9.316142
_cell_length_b 9.316142
_cell_length_c 29.288585
_cell_angle_alpha 90.000000
_cell_angle_beta 90.000000
_cell_angle_gamma 90.000000
_cell_volume 2541.970988
_symmetry_space_group_name_H-M "P -4 M 2"
_symmetry_group_IT_number 115
_symmetry_cell_setting 'tetragonal'
loop_
_space_group_symop_operation_xyz
x,y,z
y,-x,-z
-x,-y,z
-y,x,-z
y,x,-z
-y,-x,-z
-x,y,z
x,-y,z
loop_
_atom_site_type_symbol
_atom_site_label
_atom_site_fract_x
_atom_site_fract_y
_atom_site_fract_z
Si Si1 0.168126 0.672826 0.540435
Si Si2 0.172946 0.168409 0.732861
Si Si3 0.170509 0.829492 0.000000
Si Si4 0.825399 0.665417 0.642142
Si Si5 0.672263 0.669157 0.815047
Si Si6 0.671691 0.831185 0.907630
O O1 0.256100 0.743900 0.500000
O O2 0.177306 0.500000 0.538297
O O3 0.219720 0.714143 0.591497
O O4 0.000000 0.711903 0.536164
O O5 0.218270 0.236196 0.684321
O O6 0.248073 0.252226 0.773858
O O7 0.000000 0.184101 0.736453
O O8 0.207021 0.000000 0.734791
O O9 0.251744 0.783767 0.954151
O O10 0.000000 0.805795 0.994205
O O11 0.779885 0.500000 0.649457
O O12 0.000000 0.664370 0.640918
O O13 0.500000 0.687330 0.810098
O O14 0.703895 0.500000 0.814943
O O15 0.714021 0.740612 0.863290
O O16 0.500000 0.819314 0.913209
O O17 0.705771 0.000000 0.900125
#
# Coordination Sequence:
#
# PCOD9556892 Si02
#       6
#     8   8   4   8   8   8
#     4   9  18  32  50  73 100 130 165 204 246 294
#     4  10  20  33  52  78 103 128 163 207 253 301
#     4   9  18  32  50  73 100 128 160 201 246 291
#     4   8  15  30  50  70  96 130 165 203 247 293
#     4  10  21  36  53  74 101 134 171 208 248 296
#     4   9  18  33  51  70  96 130 163 198 245 296
#
# _framework density 17.309404000000001
#
# number of rings (size 3 to 8) (size 9 to 14) (size 15 to 20)
#    0.000    2.818    0.000    2.182    0.000    4.727 
#    0.000    4.545    0.000    1.091    0.000    0.000 
#    0.000    0.000    0.000    0.000    0.000    0.000 
#
# Total GULP energy -245326.081197 kJ/mol
# GULP energy per Si atom -5575.592754 kJ/mol
# Density = 1.727001 g / cm^3
# Si number density = 17.309404 Si / 1000 Ang^3
#
#
#
# Elastic Constant Matrix: (Units=GPa)
#
#
# Indices 1 2 3 4 5 6 
#
# 1 52.3714 42.0763 79.4379 0.0000 0.0000 0.0000
# 2 42.0763 52.3734 79.4387 0.0000 0.0000 0.0000
# 3 79.4379 79.4387 213.0492 0.0000 0.0000 0.0000
# 4 0.0000 0.0000 0.0000 50.9352 0.0000 0.0000
# 5 0.0000 0.0000 0.0000 0.0000 50.9369 0.0000
# 6 0.0000 0.0000 0.0000 0.0000 0.0000 23.4267
#
#
#
# Elastic Compliance Matrix: (Units=1/GPa)
#
#
# Indices 1 2 3 4 5 6 
#
# 1 0.062765 -0.034361 -0.010590 0.000000 0.000000 0.000000
# 2 -0.034361 0.062761 -0.010589 0.000000 0.000000 0.000000
# 3 -0.010590 -0.010589 0.012591 0.000000 0.000000 0.000000
# 4 0.000000 0.000000 0.000000 0.019633 0.000000 0.000000
# 5 0.000000 0.000000 0.000000 0.000000 0.019632 0.000000
# 6 0.000000 0.000000 0.000000 0.000000 0.000000 0.042686
#
#
# Mechanical properties :
#
#
# Convention : Reuss Voigt Hill
#
# Bulk Modulus (GPa) = 36.99002 79.96664 58.47833
# Shear Modulus (GPa) = 14.69890 32.84918 23.77404
#
# Velocity S-wave (km/s) = 2.91724 4.36106 3.71006
# Velocity P-wave (km/s) = 5.72393 8.46505 7.22567
#
# Compressibility (1/GPa) = 0.02703432
#
# Stress axis : x y z
#
# Youngs Moduli (GPa) = 15.93250 15.93347 79.42252
#
# Poissons Ratio (x) = 0.54750 0.84111
# Poissons Ratio (y) = 0.54746 0.84103
# Poissons Ratio (z) = 0.16873 0.16872
#
# Static dielectric constant tensor:
#      x y z
#    x 1.576240 0.000000 0.000000 
#    y 0.000000 1.576240 0.000000 
#    z 0.000000 0.000000 1.573720 
# 
# From -- ./inp_files/5705.got.cif
#   From: 2010.05.17/outbox.cif.g08.bks.cpg/sg115_3_cif.got.tgz:5705.got - 2010.05.20 11:07:42.
