data_PCOD9556561
_publ_section_title
;
Structure prediction by ZEFSAII (Michael W. Deem and Ramdas Pophale) SiO2 
 PCOD9556561
Probable space group: P -4 M 2
;
_chemical_formula_sum "Si O2"
_cell_formula_units_Z 48
_cell_length_a 9.650894
_cell_length_b 9.650894
_cell_length_c 28.618964
_cell_angle_alpha 90.000000
_cell_angle_beta 90.000000
_cell_angle_gamma 90.000000
_cell_volume 2665.563295
_symmetry_space_group_name_H-M "P -4 M 2"
_symmetry_group_IT_number 115
_symmetry_cell_setting 'tetragonal'
loop_
_space_group_symop_operation_xyz
x,y,z
y,-x,-z
-x,-y,z
-y,x,-z
y,x,-z
-y,-x,-z
-x,y,z
x,-y,z
loop_
_atom_site_type_symbol
_atom_site_label
_atom_site_fract_x
_atom_site_fract_y
_atom_site_fract_z
Si Si1 0.500000 0.336711 0.218213
Si Si2 0.778726 0.668147 0.273234
Si Si3 0.838020 0.166450 0.633824
Si Si4 0.000000 0.168915 0.211167
Si Si5 0.662313 0.745904 0.951937
Si Si6 0.000000 0.343591 0.118078
Si Si7 0.669925 0.500000 0.886395
Si Si8 0.666437 0.834261 0.538966
O O1 0.500000 0.500000 0.208834
O O2 0.368441 0.310937 0.249575
O O3 0.500000 0.274238 0.166276
O O4 0.810069 0.500000 0.275353
O O5 0.783339 0.742450 0.323412
O O6 0.875517 0.757859 0.239099
O O7 0.753493 0.194573 0.586254
O O8 0.000000 0.215588 0.633717
O O9 0.844875 0.000000 0.638651
O O10 0.000000 0.229230 0.158510
O O11 0.000000 0.000000 0.213362
O O12 0.500000 0.720056 0.965110
O O13 0.666285 0.874600 0.917745
O O14 0.714058 0.627889 0.917397
O O15 0.746251 0.746251 0.000000
O O16 0.000000 0.500000 0.139842
O O17 0.500000 0.500000 0.885656
O O18 0.737473 0.737473 0.500000
O O19 0.500000 0.810011 0.543858
O O20 0.683449 0.000000 0.528358
#
# Coordination Sequence:
#
# PCOD9556561 Si02
#       8
#     4   8   8   4   8   4   4   8
#     4   9  20  36  55  89 121 151 189 247 306 361
#     4  11  21  37  63  89 122 160 203 253 305 362
#     4  10  20  36  60  91 122 161 208 256 305 361
#     4  12  24  40  60  86 120 158 210 252 299 362
#     4  10  18  32  56  83 106 137 184 236 289 351
#     4  10  22  38  56  80 108 148 190 240 295 360
#     4   9  16  28  54  80 108 134 180 232 285 340
#     4  10  21  38  61  89 122 159 205 255 308 364
#
# _framework density 18.007449999999999
#
# number of rings (size 3 to 8) (size 9 to 14) (size 15 to 20)
#    0.000    1.833    1.667    3.250    0.000    4.333 
#    3.000    1.667    0.000    0.000    0.000    0.000 
#    0.000    0.000    0.000    0.000    0.000    0.000 
#
# Total GULP energy -267268.134323 kJ/mol
# GULP energy per Si atom -5568.086132 kJ/mol
# Density = 1.796646 g / cm^3
# Si number density = 18.007450 Si / 1000 Ang^3
#
#
#
# Elastic Constant Matrix: (Units=GPa)
#
#
# Indices 1 2 3 4 5 6 
#
# 1 118.2962 50.5454 66.8281 0.0000 0.0000 0.0000
# 2 50.5454 118.2962 66.8281 0.0000 0.0000 0.0000
# 3 66.8281 66.8281 162.1966 0.0000 0.0000 0.0000
# 4 0.0000 0.0000 0.0000 4.1731 0.0000 0.0000
# 5 0.0000 0.0000 0.0000 0.0000 4.1731 0.0000
# 6 0.0000 0.0000 0.0000 0.0000 0.0000 17.2367
#
#
#
# Elastic Compliance Matrix: (Units=1/GPa)
#
#
# Indices 1 2 3 4 5 6 
#
# 1 0.011775 -0.002985 -0.003621 0.000000 0.000000 0.000000
# 2 -0.002985 0.011775 -0.003621 0.000000 0.000000 0.000000
# 3 -0.003621 -0.003621 0.009150 0.000000 0.000000 0.000000
# 4 0.000000 0.000000 0.000000 0.239632 0.000000 0.000000
# 5 0.000000 0.000000 0.000000 0.000000 0.239632 0.000000
# 6 0.000000 0.000000 0.000000 0.000000 0.000000 0.058016
#
#
# Mechanical properties :
#
#
# Convention : Reuss Voigt Hill
#
# Bulk Modulus (GPa) = 81.68091 85.24359 83.46225
# Shear Modulus (GPa) = 8.41021 19.42239 13.91630
#
# Velocity S-wave (km/s) = 2.16346 3.28773 2.78296
# Velocity P-wave (km/s) = 7.19018 7.86466 7.53497
#
# Compressibility (1/GPa) = 0.01224276
#
# Stress axis : x y z
#
# Youngs Moduli (GPa) = 84.92771 84.92771 109.29497
#
# Poissons Ratio (x) = 0.25353 0.39580
# Poissons Ratio (y) = 0.25353 0.39580
# Poissons Ratio (z) = 0.30756 0.30756
#
# Static dielectric constant tensor:
#      x y z
#    x 1.552320 0.000000 0.000000 
#    y 0.000000 1.552320 0.000000 
#    z 0.000000 0.000000 1.624690 
# 
# From -- ./inp_files/6291.got.cif
#   From: 2010.05.17/outbox.cif.g08.bks.cpg/sg115_4_cif.got.tgz:6291.got - 2010.05.20 11:07:42.
