data_PCOD9556604
_publ_section_title
;
Structure prediction by ZEFSAII (Michael W. Deem and Ramdas Pophale) SiO2 
 PCOD9556604
Probable space group: P -4 M 2
;
_chemical_formula_sum "Si O2"
_cell_formula_units_Z 48
_cell_length_a 8.524678
_cell_length_b 8.524678
_cell_length_c 29.772167
_cell_angle_alpha 90.000000
_cell_angle_beta 90.000000
_cell_angle_gamma 90.000000
_cell_volume 2163.547395
_symmetry_space_group_name_H-M "P -4 M 2"
_symmetry_group_IT_number 115
_symmetry_cell_setting 'tetragonal'
loop_
_space_group_symop_operation_xyz
x,y,z
y,-x,-z
-x,-y,z
-y,x,-z
y,x,-z
-y,-x,-z
-x,y,z
x,-y,z
loop_
_atom_site_type_symbol
_atom_site_label
_atom_site_fract_x
_atom_site_fract_y
_atom_site_fract_z
Si Si1 0.814344 0.000000 0.090139
Si Si2 0.689728 0.820388 0.217980
Si Si3 0.330718 0.330718 0.000000
Si Si4 0.188817 0.674140 0.131022
Si Si5 0.690116 0.817014 0.405234
Si Si6 0.686975 0.313026 0.500000
Si Si7 0.671552 0.000000 0.996284
Si Si8 0.691048 0.678340 0.311500
O O1 0.746969 0.163753 0.108931
O O2 0.793006 0.000000 0.036479
O O3 0.000000 0.000000 0.100076
O O4 0.500000 0.804289 0.214570
O O5 0.770362 0.702961 0.183256
O O6 0.736251 0.784470 0.269265
O O7 0.731335 0.000000 0.206582
O O8 0.167666 0.325054 0.027642
O O9 0.328038 0.500000 0.976348
O O10 0.248356 0.500000 0.117539
O O11 0.000000 0.672457 0.124630
O O12 0.500000 0.795008 0.406394
O O13 0.748608 0.758442 0.453506
O O14 0.748068 0.730426 0.360556
O O15 0.721222 0.000000 0.400177
O O16 0.500000 0.286801 0.502392
O O17 0.500000 0.000000 0.018680
O O18 0.500000 0.684514 0.313220
O O19 0.736930 0.500000 0.302390
#
# Coordination Sequence:
#
# PCOD9556604 Si02
#       8
#     4   8   4   8   8   4   4   8
#     4  10  22  38  56  84 116 150 194 246 288 341
#     4  10  19  31  51  78 107 141 182 227 276 331
#     4   9  20  39  60  90 130 163 202 257 308 364
#     4  10  21  38  57  78 110 151 193 237 289 346
#     4   9  16  26  41  62  89 119 151 191 243 300
#     4   9  16  26  42  63  84 110 144 183 234 294
#     4  10  22  38  62  92 122 162 204 243 303 364
#     4   9  16  26  42  68 100 129 162 208 259 312
#
# _framework density 22.185784999999999
#
# number of rings (size 3 to 8) (size 9 to 14) (size 15 to 20)
#    0.000    2.500    0.833    1.500    1.167    6.333 
#    0.000    0.000    0.000    1.250    0.000    2.333 
#    0.000    0.000    0.000    0.000    0.000    0.000 
#
# Total GULP energy -267560.531051 kJ/mol
# GULP energy per Si atom -5574.177730 kJ/mol
# Density = 2.213529 g / cm^3
# Si number density = 22.185785 Si / 1000 Ang^3
#
#
#
# Elastic Constant Matrix: (Units=GPa)
#
#
# Indices 1 2 3 4 5 6 
#
# 1 62.7906 46.4568 26.9934 0.0000 0.0000 0.0000
# 2 46.4568 62.7908 26.9935 0.0000 0.0000 0.0000
# 3 26.9934 26.9935 102.8479 0.0000 0.0000 0.0000
# 4 0.0000 0.0000 0.0000 22.6458 0.0000 0.0000
# 5 0.0000 0.0000 0.0000 0.0000 22.6458 0.0000
# 6 0.0000 0.0000 0.0000 0.0000 0.0000 12.8905
#
#
#
# Elastic Compliance Matrix: (Units=1/GPa)
#
#
# Indices 1 2 3 4 5 6 
#
# 1 0.035870 -0.025352 -0.002760 0.000000 0.000000 0.000000
# 2 -0.025352 0.035870 -0.002760 0.000000 0.000000 0.000000
# 3 -0.002760 -0.002760 0.011172 0.000000 0.000000 0.000000
# 4 0.000000 0.000000 0.000000 0.044158 0.000000 0.000000
# 5 0.000000 0.000000 0.000000 0.000000 0.044158 0.000000
# 6 0.000000 0.000000 0.000000 0.000000 0.000000 0.077577
#
#
# Mechanical properties :
#
#
# Convention : Reuss Voigt Hill
#
# Bulk Modulus (GPa) = 47.24651 47.70187 47.47419
# Shear Modulus (GPa) = 15.74271 20.16879 17.95575
#
# Velocity S-wave (km/s) = 2.66669 3.01838 2.84797
# Velocity P-wave (km/s) = 5.55191 5.80476 5.67974
#
# Compressibility (1/GPa) = 0.02116558
#
# Stress axis : x y z
#
# Youngs Moduli (GPa) = 27.87836 27.87842 89.50845
#
# Poissons Ratio (x) = 0.70679 0.24708
# Poissons Ratio (y) = 0.70678 0.24709
# Poissons Ratio (z) = 0.07696 0.07696
#
# Static dielectric constant tensor:
#      x y z
#    x 1.838250 0.000000 0.000000 
#    y 0.000000 1.838250 0.000000 
#    z 0.000000 0.000000 1.828260 
# 
# From -- ./inp_files/6326.got.cif
#   From: 2010.05.17/outbox.cif.g08.bks.cpg/sg115_4_cif.got.tgz:6326.got - 2010.05.20 11:07:42.
