data_PCOD9556338
_publ_section_title
;
Structure prediction by ZEFSAII (Michael W. Deem and Ramdas Pophale) SiO2 
 PCOD9556338
Probable space group: P -4 21 C
;
_chemical_formula_sum "Si O2"
_cell_formula_units_Z 48
_cell_length_a 8.763589
_cell_length_b 8.763589
_cell_length_c 29.895304
_cell_angle_alpha 90.000000
_cell_angle_beta 90.000000
_cell_angle_gamma 90.000000
_cell_volume 2295.974061
_symmetry_space_group_name_H-M "P -4 21 C"
_symmetry_group_IT_number 114
_symmetry_cell_setting 'tetragonal'
loop_
_space_group_symop_operation_xyz
x,y,z
y,-x,-z
-x,-y,z
-y,x,-z
1/2+x,1/2-y,1/2-z
1/2-x,1/2+y,1/2-z
1/2-y,1/2-x,1/2+z
1/2+y,1/2+x,1/2+z
loop_
_atom_site_type_symbol
_atom_site_label
_atom_site_fract_x
_atom_site_fract_y
_atom_site_fract_z
Si Si1 0.568635 0.671409 0.112449
Si Si2 0.962357 0.768498 0.483700
Si Si3 0.934467 0.828837 0.295737
Si Si4 0.827687 0.564234 0.615719
Si Si5 0.275734 0.451052 0.519660
Si Si6 0.932110 0.329687 0.208177
O O1 0.500000 0.500000 0.108435
O O2 0.522790 0.751951 0.066273
O O3 0.493822 0.740177 0.157260
O O4 0.751585 0.666072 0.116798
O O5 0.881638 0.623296 0.504371
O O6 0.096454 0.835416 0.514766
O O7 0.751229 0.829835 0.293613
O O8 0.005787 0.750195 0.252442
O O9 0.000000 0.000000 0.295751
O O10 0.735600 0.513182 0.571938
O O11 0.761638 0.498585 0.661987
O O12 0.000000 0.500000 0.611546
O O13 0.326112 0.593815 0.490165
O O14 0.000000 0.500000 0.209361
#
# Coordination Sequence:
#
# PCOD9556338 Si02
#       6
#     8   8   8   8   8   8
#     4  11  20  36  62 102 127 160 223 270 321 391
#     4  11  21  38  66  95 123 170 220 278 311 385
#     4  11  23  41  67  99 133 170 215 276 328 405
#     4  11  23  39  68  92 125 175 218 270 329 394
#     4  11  27  43  59  90 133 173 212 269 330 402
#     4  11  23  43  68  97 130 176 217 272 339 398
#
# _framework density 20.906161999999998
#
# number of rings (size 3 to 8) (size 9 to 14) (size 15 to 20)
#    0.000    1.000    3.333    6.000    7.000    0.000 
#    3.000    3.333    0.000    0.000    0.000    0.000 
#    0.000    0.000    0.000    0.000    0.000    0.000 
#
# Total GULP energy -268448.983589 kJ/mol
# GULP energy per Si atom -5592.687158 kJ/mol
# Density = 2.085858 g / cm^3
# Si number density = 20.906162 Si / 1000 Ang^3
#
#
#
# Elastic Constant Matrix: (Units=GPa)
#
#
# Indices 1 2 3 4 5 6 
#
# 1 87.6909 25.9287 50.2079 0.0000 0.0000 0.0000
# 2 25.9287 87.6909 50.2079 0.0000 0.0000 0.0000
# 3 50.2079 50.2079 218.0452 0.0000 0.0000 0.0000
# 4 0.0000 0.0000 0.0000 45.7448 0.0000 0.0000
# 5 0.0000 0.0000 0.0000 0.0000 45.7448 0.0000
# 6 0.0000 0.0000 0.0000 0.0000 0.0000 42.0531
#
#
#
# Elastic Compliance Matrix: (Units=1/GPa)
#
#
# Indices 1 2 3 4 5 6 
#
# 1 0.013621 -0.002571 -0.002544 0.000000 0.000000 0.000000
# 2 -0.002571 0.013621 -0.002544 0.000000 0.000000 0.000000
# 3 -0.002544 -0.002544 0.005758 0.000000 0.000000 0.000000
# 4 0.000000 0.000000 0.000000 0.021860 0.000000 0.000000
# 5 0.000000 0.000000 0.000000 0.000000 0.021860 0.000000
# 6 0.000000 0.000000 0.000000 0.000000 0.000000 0.023779
#
#
# Mechanical properties :
#
#
# Convention : Reuss Voigt Hill
#
# Bulk Modulus (GPa) = 56.55992 71.79065 64.17529
# Shear Modulus (GPa) = 41.08070 44.51404 42.79737
#
# Velocity S-wave (km/s) = 4.43765 4.61936 4.52942
# Velocity P-wave (km/s) = 7.30547 7.92877 7.62349
#
# Compressibility (1/GPa) = 0.01768036
#
# Stress axis : x y z
#
# Youngs Moduli (GPa) = 73.41830 73.41830 173.67206
#
# Poissons Ratio (x) = 0.18873 0.44189
# Poissons Ratio (y) = 0.18873 0.44189
# Poissons Ratio (z) = 0.18681 0.18681
#
# Static dielectric constant tensor:
#      x y z
#    x 1.646730 0.000000 0.000000 
#    y 0.000000 1.646730 0.000000 
#    z 0.000000 0.000000 1.771070 
# 
# From -- ./inp_files/3959.got.cif
#   From: 2010.05.17/outbox.cif.g08.bks.cpg/sg114_2_cif.got.tgz:3959.got - 2010.05.20 11:04:54.
