data_PCOD9556669
_publ_section_title
;
Structure prediction by ZEFSAII (Michael W. Deem and Ramdas Pophale) SiO2 
 PCOD9556669
Probable space group: P -4 M 2
;
_chemical_formula_sum "Si O2"
_cell_formula_units_Z 33
_cell_length_a 8.190310
_cell_length_b 8.190310
_cell_length_c 24.391420
_cell_angle_alpha 90.000000
_cell_angle_beta 90.000000
_cell_angle_gamma 90.000000
_cell_volume 1636.205184
_symmetry_space_group_name_H-M "P -4 M 2"
_symmetry_group_IT_number 115
_symmetry_cell_setting 'tetragonal'
loop_
_space_group_symop_operation_xyz
x,y,z
y,-x,-z
-x,-y,z
-y,x,-z
y,x,-z
-y,-x,-z
-x,y,z
x,-y,z
loop_
_atom_site_type_symbol
_atom_site_label
_atom_site_fract_x
_atom_site_fract_y
_atom_site_fract_z
Si Si1 0.696479 0.183924 0.767483
Si Si2 0.693905 0.693905 0.000000
Si Si3 0.322428 0.698132 0.345239
Si Si4 0.699284 0.000000 0.583498
Si Si5 0.806018 0.685808 0.883602
Si Si6 0.000000 0.000000 0.500000
O O1 0.500000 0.189275 0.766940
O O2 0.754929 0.296277 0.717535
O O3 0.749707 0.228353 0.828428
O O4 0.748650 0.000000 0.754646
O O5 0.756854 0.761341 0.942128
O O6 0.724296 0.500000 0.999328
O O7 0.500000 0.754676 0.365872
O O8 0.326548 0.500000 0.343891
O O9 0.163448 0.735742 0.381138
O O10 0.500000 0.000000 0.571166
O O11 0.830823 0.000000 0.534708
O O12 0.738642 0.500000 0.881854
O O13 0.000000 0.678168 0.882802
#
# Coordination Sequence:
#
# PCOD9556669 Si02
#       6
#     8   4   8   4   8   1
#     4  10  19  33  55  83 114 149 193 244 297 355
#     4   9  18  34  54  71  94 138 194 247 296 353
#     4   9  17  34  63  92 121 162 205 252 310 362
#     4  10  22  44  66  94 136 168 213 265 298 363
#     4  10  21  35  50  74 107 141 184 239 297 363
#     4  12  28  44  68 104 132 180 216 250 316 356
#
# _framework density 20.168620000000001
#
# number of rings (size 3 to 8) (size 9 to 14) (size 15 to 20)
#    0.000    2.303    1.212    1.455    0.000    4.848 
#    2.182    2.424    0.000    0.000    0.000    0.000 
#    0.000    0.000    0.000    0.000    0.000    0.000 
#
# Total GULP energy -183964.787914 kJ/mol
# GULP energy per Si atom -5574.690543 kJ/mol
# Density = 2.012272 g / cm^3
# Si number density = 20.168620 Si / 1000 Ang^3
#
#
#
# Elastic Constant Matrix: (Units=GPa)
#
#
# Indices 1 2 3 4 5 6 
#
# 1 68.4560 33.2257 52.9110 0.0000 0.0000 0.0000
# 2 33.2257 68.4560 52.9110 0.0000 0.0000 0.0000
# 3 52.9110 52.9110 133.7453 0.0000 0.0000 0.0000
# 4 0.0000 0.0000 0.0000 39.9607 0.0000 0.0000
# 5 0.0000 0.0000 0.0000 0.0000 39.9607 0.0000
# 6 0.0000 0.0000 0.0000 0.0000 0.0000 11.7848
#
#
#
# Elastic Compliance Matrix: (Units=1/GPa)
#
#
# Indices 1 2 3 4 5 6 
#
# 1 0.022551 -0.005834 -0.006614 0.000000 0.000000 0.000000
# 2 -0.005834 0.022551 -0.006614 0.000000 0.000000 0.000000
# 3 -0.006614 -0.006614 0.012710 0.000000 0.000000 0.000000
# 4 0.000000 0.000000 0.000000 0.025025 0.000000 0.000000
# 5 0.000000 0.000000 0.000000 0.000000 0.025025 0.000000
# 6 0.000000 0.000000 0.000000 0.000000 0.000000 0.084855
#
#
# Mechanical properties :
#
#
# Convention : Reuss Voigt Hill
#
# Bulk Modulus (GPa) = 50.78643 60.97250 55.87946
# Shear Modulus (GPa) = 21.06141 27.11523 24.08832
#
# Velocity S-wave (km/s) = 3.23502 3.67062 3.45968
# Velocity P-wave (km/s) = 6.26014 6.94706 6.61252
#
# Compressibility (1/GPa) = 0.01969030
#
# Stress axis : x y z
#
# Youngs Moduli (GPa) = 44.34381 44.34381 78.67997
#
# Poissons Ratio (x) = 0.25868 0.52036
# Poissons Ratio (y) = 0.25868 0.52036
# Poissons Ratio (z) = 0.29327 0.29327
#
# Static dielectric constant tensor:
#      x y z
#    x 1.721730 0.000000 0.000000 
#    y 0.000000 1.721730 0.000000 
#    z 0.000000 0.000000 1.710750 
# 
# From -- ./inp_files/4719.got.cif
#   From: 2010.05.17/outbox.cif.g08.bks.cpg/sg115_3_cif.got.tgz:4719.got - 2010.05.20 11:07:42.
