data_PCOD9556287
_publ_section_title
;
Structure prediction by ZEFSAII (Michael W. Deem and Ramdas Pophale) SiO2 
 PCOD9556287
Probable space group: P -4 21 C
;
_chemical_formula_sum "Si O2"
_cell_formula_units_Z 40
_cell_length_a 7.915234
_cell_length_b 7.915234
_cell_length_c 24.073314
_cell_angle_alpha 90.000000
_cell_angle_beta 90.000000
_cell_angle_gamma 90.000000
_cell_volume 1508.215493
_symmetry_space_group_name_H-M "P -4 21 C"
_symmetry_group_IT_number 114
_symmetry_cell_setting 'tetragonal'
loop_
_space_group_symop_operation_xyz
x,y,z
y,-x,-z
-x,-y,z
-y,x,-z
1/2+x,1/2-y,1/2-z
1/2-x,1/2+y,1/2-z
1/2-y,1/2-x,1/2+z
1/2+y,1/2+x,1/2+z
loop_
_atom_site_type_symbol
_atom_site_label
_atom_site_fract_x
_atom_site_fract_y
_atom_site_fract_z
Si Si1 0.979698 0.808711 0.243755
Si Si2 0.345670 0.162343 0.663981
Si Si3 0.317149 0.463858 0.078474
Si Si4 0.571456 0.275836 0.467744
Si Si5 0.194747 0.181808 0.867659
O O1 0.002661 0.682399 0.294739
O O2 0.114873 0.780216 0.194602
O O3 0.809489 0.806095 0.208460
O O4 0.000000 0.000000 0.265666
O O5 0.522198 0.208376 0.633718
O O6 0.195081 0.163644 0.619840
O O7 0.500000 0.500000 0.055141
O O8 0.171717 0.399050 0.036903
O O9 0.265517 0.633820 0.110498
O O10 0.480254 0.316413 0.409148
O O11 0.703163 0.419222 0.488173
#
# Coordination Sequence:
#
# PCOD9556287 Si02
#       5
#     8   8   8   8   8
#     4  10  24  44  72 114 167 232 295 349 425 527
#     4  11  24  47  76 115 172 233 290 356 440 523
#     4  12  28  52  81 126 177 213 292 380 448 538
#     4  11  24  52  95 118 157 232 299 363 459 551
#     4  11  26  52  80 122 166 231 303 366 437 539
#
# _framework density 26.521411000000001
#
# number of rings (size 3 to 8) (size 9 to 14) (size 15 to 20)
#    0.000    1.000    2.000    3.600   11.200    0.800 
#   10.800    0.000    0.000    0.000    0.000    0.000 
#    0.000    0.000    0.000    0.000    0.000    0.000 
#
# Total GULP energy -224099.171826 kJ/mol
# GULP energy per Si atom -5602.479296 kJ/mol
# Density = 2.646105 g / cm^3
# Si number density = 26.521411 Si / 1000 Ang^3
#
#
#
# Elastic Constant Matrix: (Units=GPa)
#
#
# Indices 1 2 3 4 5 6 
#
# 1 180.4542 100.3792 70.1748 0.0000 0.0000 0.0000
# 2 100.3792 180.4542 70.1748 0.0000 0.0000 0.0000
# 3 70.1748 70.1748 141.4163 0.0000 0.0000 0.0000
# 4 0.0000 0.0000 0.0000 54.7374 0.0000 0.0000
# 5 0.0000 0.0000 0.0000 0.0000 54.7374 0.0000
# 6 0.0000 0.0000 0.0000 0.0000 0.0000 50.6333
#
#
#
# Elastic Compliance Matrix: (Units=1/GPa)
#
#
# Indices 1 2 3 4 5 6 
#
# 1 0.008612 -0.003877 -0.002350 0.000000 0.000000 0.000000
# 2 -0.003877 0.008612 -0.002350 0.000000 0.000000 0.000000
# 3 -0.002350 -0.002350 0.009403 0.000000 0.000000 0.000000
# 4 0.000000 0.000000 0.000000 0.018269 0.000000 0.000000
# 5 0.000000 0.000000 0.000000 0.000000 0.018269 0.000000
# 6 0.000000 0.000000 0.000000 0.000000 0.000000 0.019750
#
#
# Mechanical properties :
#
#
# Convention : Reuss Voigt Hill
#
# Bulk Modulus (GPa) = 105.54387 109.30913 107.42650
# Shear Modulus (GPa) = 48.43792 49.46133 48.94963
#
# Velocity S-wave (km/s) = 4.27824 4.32320 4.30078
# Velocity P-wave (km/s) = 8.01789 8.13787 8.07811
#
# Compressibility (1/GPa) = 0.00947473
#
# Stress axis : x y z
#
# Youngs Moduli (GPa) = 116.12095 116.12095 106.34566
#
# Poissons Ratio (x) = 0.45015 0.24988
# Poissons Ratio (y) = 0.45015 0.24988
# Poissons Ratio (z) = 0.27285 0.27285
#
# Static dielectric constant tensor:
#      x y z
#    x 2.162710 0.000000 0.000000 
#    y 0.000000 2.162710 0.000000 
#    z 0.000000 0.000000 2.000010 
# 
# From -- ./inp_files/3636.got.cif
#   From: 2010.05.17/outbox.cif.g08.bks.cpg/sg114_2_cif.got.tgz:3636.got - 2010.05.20 11:04:54.
