data_PCOD9556449
_publ_section_title
;
Structure prediction by ZEFSAII (Michael W. Deem and Ramdas Pophale) SiO2 
 PCOD9556449
Probable space group: P -4 21 C
;
_chemical_formula_sum "Si O2"
_cell_formula_units_Z 24
_cell_length_a 8.473521
_cell_length_b 8.473521
_cell_length_c 13.591258
_cell_angle_alpha 90.000000
_cell_angle_beta 90.000000
_cell_angle_gamma 90.000000
_cell_volume 975.859910
_symmetry_space_group_name_H-M "P -4 21 C"
_symmetry_group_IT_number 114
_symmetry_cell_setting 'tetragonal'
loop_
_space_group_symop_operation_xyz
x,y,z
y,-x,-z
-x,-y,z
-y,x,-z
1/2+x,1/2-y,1/2-z
1/2-x,1/2+y,1/2-z
1/2-y,1/2-x,1/2+z
1/2+y,1/2+x,1/2+z
loop_
_atom_site_type_symbol
_atom_site_label
_atom_site_fract_x
_atom_site_fract_y
_atom_site_fract_z
Si Si1 0.617710 0.632608 0.144759
Si Si2 0.882675 0.637633 0.293802
Si Si3 0.812662 0.820514 0.985540
O O1 0.500000 0.500000 0.106318
O O2 0.773399 0.582246 0.204381
O O3 0.503806 0.720147 0.223658
O O4 0.683817 0.746551 0.059462
O O5 0.771732 0.690317 0.383112
O O6 0.000000 0.500000 0.325192
O O7 0.991541 0.792856 0.024877
#
# Coordination Sequence:
#
# PCOD9556449 Si02
#       3
#     8   8   8
#     4  12  28  47  78 113 156 199 258 319 386 465
#     4  12  26  48  74 112 151 203 255 312 388 456
#     4  11  26  49  78 107 153 203 256 318 386 455
#
# _framework density 24.593692999999998
#
# number of rings (size 3 to 8) (size 9 to 14) (size 15 to 20)
#    0.000    0.333    3.333    4.000    9.333    1.333 
#    0.000    0.000    0.000    0.000    0.000    0.000 
#    0.000    0.000    0.000    0.000    0.000    0.000 
#
# Total GULP energy -134311.262281 kJ/mol
# GULP energy per Si atom -5596.302595 kJ/mol
# Density = 2.453772 g / cm^3
# Si number density = 24.593693 Si / 1000 Ang^3
#
#
#
# Elastic Constant Matrix: (Units=GPa)
#
#
# Indices 1 2 3 4 5 6 
#
# 1 129.1277 78.8718 37.7668 0.0000 0.0000 0.0000
# 2 78.8718 129.1277 37.7668 0.0000 0.0000 0.0000
# 3 37.7668 37.7668 90.4521 0.0000 0.0000 0.0000
# 4 0.0000 0.0000 0.0000 22.5801 0.0000 0.0000
# 5 0.0000 0.0000 0.0000 0.0000 22.5801 0.0000
# 6 0.0000 0.0000 0.0000 0.0000 0.0000 62.0440
#
#
#
# Elastic Compliance Matrix: (Units=1/GPa)
#
#
# Indices 1 2 3 4 5 6 
#
# 1 0.012783 -0.007116 -0.002366 0.000000 0.000000 0.000000
# 2 -0.007116 0.012783 -0.002366 0.000000 0.000000 0.000000
# 3 -0.002366 -0.002366 0.013031 0.000000 0.000000 0.000000
# 4 0.000000 0.000000 0.000000 0.044287 0.000000 0.000000
# 5 0.000000 0.000000 0.000000 0.000000 0.044287 0.000000
# 6 0.000000 0.000000 0.000000 0.000000 0.000000 0.016118
#
#
# Mechanical properties :
#
#
# Convention : Reuss Voigt Hill
#
# Bulk Modulus (GPa) = 67.11052 73.05759 70.08405
# Shear Modulus (GPa) = 29.07813 34.39429 31.73621
#
# Velocity S-wave (km/s) = 3.44225 3.74371 3.59614
# Velocity P-wave (km/s) = 6.56854 6.96114 6.76769
#
# Compressibility (1/GPa) = 0.01490079
#
# Stress axis : x y z
#
# Youngs Moduli (GPa) = 78.23159 78.23159 76.73738
#
# Poissons Ratio (x) = 0.55667 0.18157
# Poissons Ratio (y) = 0.55667 0.18157
# Poissons Ratio (z) = 0.18511 0.18511
#
# Static dielectric constant tensor:
#      x y z
#    x 1.973550 0.000000 0.000000 
#    y 0.000000 1.973550 0.000000 
#    z 0.000000 0.000000 1.889390 
# 
# From -- ./inp_files/1918.got.cif
#   From: 2010.05.17/outbox.cif.g08.bks.cpg/sg114_1_cif.got.tgz:1918.got - 2010.05.20 11:04:54.
