data_PCOD9556320
_publ_section_title
;
Structure prediction by ZEFSAII (Michael W. Deem and Ramdas Pophale) SiO2 
 PCOD9556320
Probable space group: P -4 21 C
;
_chemical_formula_sum "Si O2"
_cell_formula_units_Z 32
_cell_length_a 8.578277
_cell_length_b 8.578277
_cell_length_c 19.202213
_cell_angle_alpha 90.000000
_cell_angle_beta 90.000000
_cell_angle_gamma 90.000000
_cell_volume 1413.030104
_symmetry_space_group_name_H-M "P -4 21 C"
_symmetry_group_IT_number 114
_symmetry_cell_setting 'tetragonal'
loop_
_space_group_symop_operation_xyz
x,y,z
y,-x,-z
-x,-y,z
-y,x,-z
1/2+x,1/2-y,1/2-z
1/2-x,1/2+y,1/2-z
1/2-y,1/2-x,1/2+z
1/2+y,1/2+x,1/2+z
loop_
_atom_site_type_symbol
_atom_site_label
_atom_site_fract_x
_atom_site_fract_y
_atom_site_fract_z
Si Si1 0.097357 0.836883 0.582428
Si Si2 0.662567 0.686544 0.522685
Si Si3 0.821580 0.701249 0.662957
Si Si4 0.322549 0.973670 0.693507
O O1 0.175997 0.764371 0.513221
O O2 0.980404 0.715741 0.619085
O O3 0.234923 0.866419 0.637706
O O4 0.000000 0.000000 0.574618
O O5 0.710866 0.519830 0.490929
O O6 0.692898 0.670066 0.604507
O O7 0.777562 0.869279 0.693582
O O8 0.826894 0.589729 0.728314
O O9 0.500000 0.000000 0.670596
#
# Coordination Sequence:
#
# PCOD9556320 Si02
#       4
#     8   8   8   8
#     4  10  25  46  73 108 146 188 244 299 370 438
#     4  11  27  48  73 105 147 194 244 306 367 440
#     4  11  26  44  75 107 143 192 237 308 354 441
#     4  11  24  45  70 108 142 190 238 297 362 431
#
# _framework density 22.646369
#
# number of rings (size 3 to 8) (size 9 to 14) (size 15 to 20)
#    0.000    1.250    0.000    3.000   14.000    0.000 
#    9.000    0.000    0.000    0.000    0.000    0.000 
#    0.000    0.000    0.000    0.000    0.000    0.000 
#
# Total GULP energy -179137.236589 kJ/mol
# GULP energy per Si atom -5598.038643 kJ/mol
# Density = 2.259483 g / cm^3
# Si number density = 22.646369 Si / 1000 Ang^3
#
#
#
# Elastic Constant Matrix: (Units=GPa)
#
#
# Indices 1 2 3 4 5 6 
#
# 1 81.6136 -1.7839 16.1406 0.0000 0.0000 0.0000
# 2 -1.7839 81.6136 16.1406 0.0000 0.0000 0.0000
# 3 16.1406 16.1406 75.3288 0.0000 0.0000 0.0000
# 4 0.0000 0.0000 0.0000 21.6999 0.0000 0.0000
# 5 0.0000 0.0000 0.0000 0.0000 21.6999 0.0000
# 6 0.0000 0.0000 0.0000 0.0000 0.0000 29.4956
#
#
#
# Elastic Compliance Matrix: (Units=1/GPa)
#
#
# Indices 1 2 3 4 5 6 
#
# 1 0.012853 0.000862 -0.002939 0.000000 0.000000 0.000000
# 2 0.000862 0.012853 -0.002939 0.000000 0.000000 0.000000
# 3 -0.002939 -0.002939 0.014534 0.000000 0.000000 0.000000
# 4 0.000000 0.000000 0.000000 0.046083 0.000000 0.000000
# 5 0.000000 0.000000 0.000000 0.000000 0.046083 0.000000
# 6 0.000000 0.000000 0.000000 0.000000 0.000000 0.033903
#
#
# Mechanical properties :
#
#
# Convention : Reuss Voigt Hill
#
# Bulk Modulus (GPa) = 33.10193 33.28338 33.19265
# Shear Modulus (GPa) = 26.82259 28.44970 27.63614
#
# Velocity S-wave (km/s) = 3.44526 3.54822 3.49712
# Velocity P-wave (km/s) = 5.52042 5.61386 5.56733
#
# Compressibility (1/GPa) = 0.03020972
#
# Stress axis : x y z
#
# Youngs Moduli (GPa) = 77.80359 77.80359 68.80198
#
# Poissons Ratio (x) = -0.06708 0.20219
# Poissons Ratio (y) = -0.06708 0.20219
# Poissons Ratio (z) = 0.22864 0.22864
#
# Static dielectric constant tensor:
#      x y z
#    x 1.826090 0.000000 0.000000 
#    y 0.000000 1.826090 0.000000 
#    z 0.000000 0.000000 1.811240 
# 
# From -- ./inp_files/2844.got.cif
#   From: 2010.05.17/outbox.cif.g08.bks.cpg/sg114_2_cif.got.tgz:2844.got - 2010.05.20 11:04:54.
