data_PCOD9556840
_publ_section_title
;
Structure prediction by ZEFSAII (Michael W. Deem and Ramdas Pophale) SiO2 
 PCOD9556840
Probable space group: P -4 M 2
;
_chemical_formula_sum "Si O2"
_cell_formula_units_Z 44
_cell_length_a 9.366239
_cell_length_b 9.366239
_cell_length_c 29.182708
_cell_angle_alpha 90.000000
_cell_angle_beta 90.000000
_cell_angle_gamma 90.000000
_cell_volume 2560.094878
_symmetry_space_group_name_H-M "P -4 M 2"
_symmetry_group_IT_number 115
_symmetry_cell_setting 'tetragonal'
loop_
_space_group_symop_operation_xyz
x,y,z
y,-x,-z
-x,-y,z
-y,x,-z
y,x,-z
-y,-x,-z
-x,y,z
x,-y,z
loop_
_atom_site_type_symbol
_atom_site_label
_atom_site_fract_x
_atom_site_fract_y
_atom_site_fract_z
Si Si1 0.167492 0.671057 0.539924
Si Si2 0.328306 0.168083 0.724804
Si Si3 0.169497 0.830504 0.000000
Si Si4 0.828487 0.668920 0.643817
Si Si5 0.673817 0.664217 0.816447
Si Si6 0.671024 0.831402 0.907357
O O1 0.254837 0.745164 0.500000
O O2 0.180876 0.500000 0.536654
O O3 0.212269 0.710751 0.591757
O O4 0.000000 0.706422 0.535211
O O5 0.500000 0.184081 0.720364
O O6 0.251706 0.239821 0.681716
O O7 0.283006 0.248244 0.771408
O O8 0.296853 0.000000 0.727817
O O9 0.252894 0.786601 0.954291
O O10 0.000000 0.807372 0.993434
O O11 0.797015 0.500000 0.649732
O O12 0.000000 0.685186 0.647687
O O13 0.500000 0.664717 0.816814
O O14 0.720981 0.500000 0.814355
O O15 0.718788 0.741690 0.863249
O O16 0.500000 0.815879 0.912214
O O17 0.700387 0.000000 0.899801
#
# Coordination Sequence:
#
# PCOD9556840 Si02
#       6
#     8   8   4   8   8   8
#     4   9  19  35  53  74 101 132 166 205 248 295
#     4  10  20  33  51  76 103 131 166 207 249 296
#     4   9  18  32  48  67  94 126 156 189 234 286
#     4   9  19  36  54  72  99 134 168 204 249 297
#     4   9  17  30  49  72  97 126 161 201 244 289
#     4   9  17  30  48  68  91 121 156 194 236 282
#
# _framework density 17.186862999999999
#
# number of rings (size 3 to 8) (size 9 to 14) (size 15 to 20)
#    0.000    2.818    0.000    2.182    0.000    6.182 
#    0.000    6.364    0.000    3.273    0.000    0.000 
#    0.000    0.000    0.000    0.000    0.000    0.000 
#
# Total GULP energy -245338.902987 kJ/mol
# GULP energy per Si atom -5575.884159 kJ/mol
# Density = 1.714775 g / cm^3
# Si number density = 17.186863 Si / 1000 Ang^3
#
#
#
# Elastic Constant Matrix: (Units=GPa)
#
#
# Indices 1 2 3 4 5 6 
#
# 1 53.9284 42.2872 80.3001 0.0000 0.0000 0.0000
# 2 42.2872 53.9316 80.3023 0.0000 0.0000 0.0000
# 3 80.3001 80.3023 205.1561 0.0000 0.0000 0.0000
# 4 0.0000 0.0000 0.0000 57.7272 0.0000 0.0000
# 5 0.0000 0.0000 0.0000 0.0000 57.7299 0.0000
# 6 0.0000 0.0000 0.0000 0.0000 0.0000 23.4002
#
#
#
# Elastic Compliance Matrix: (Units=1/GPa)
#
#
# Indices 1 2 3 4 5 6 
#
# 1 0.057937 -0.027955 -0.011735 0.000000 0.000000 0.000000
# 2 -0.027955 0.057934 -0.011735 0.000000 0.000000 0.000000
# 3 -0.011735 -0.011735 0.014061 0.000000 0.000000 0.000000
# 4 0.000000 0.000000 0.000000 0.017323 0.000000 0.000000
# 5 0.000000 0.000000 0.000000 0.000000 0.017322 0.000000
# 6 0.000000 0.000000 0.000000 0.000000 0.000000 0.042735
#
#
# Mechanical properties :
#
#
# Convention : Reuss Voigt Hill
#
# Bulk Modulus (GPa) = 36.92427 79.86616 58.39521
# Shear Modulus (GPa) = 15.66477 35.11321 25.38899
#
# Velocity S-wave (km/s) = 3.02228 4.52489 3.84765
# Velocity P-wave (km/s) = 5.80599 8.59475 7.33414
#
# Compressibility (1/GPa) = 0.02708246
#
# Stress axis : x y z
#
# Youngs Moduli (GPa) = 17.26004 17.26117 71.12005
#
# Poissons Ratio (x) = 0.48253 0.83460
# Poissons Ratio (y) = 0.48250 0.83456
# Poissons Ratio (z) = 0.20255 0.20255
#
# Static dielectric constant tensor:
#      x y z
#    x 1.570200 0.000000 0.000000 
#    y 0.000000 1.570190 0.000000 
#    z 0.000000 0.000000 1.563380 
# 
# From -- ./inp_files/5704.got.cif
#   From: 2010.05.17/outbox.cif.g08.bks.cpg/sg115_3_cif.got.tgz:5704.got - 2010.05.20 11:07:42.
