data_PCOD9556426
_publ_section_title
;
Structure prediction by ZEFSAII (Michael W. Deem and Ramdas Pophale) SiO2 
 PCOD9556426
Probable space group: P -4 21 C
;
_chemical_formula_sum "Si O2"
_cell_formula_units_Z 40
_cell_length_a 14.649259
_cell_length_b 14.649259
_cell_length_c 7.488165
_cell_angle_alpha 90.000000
_cell_angle_beta 90.000000
_cell_angle_gamma 90.000000
_cell_volume 1606.966119
_symmetry_space_group_name_H-M "P -4 21 C"
_symmetry_group_IT_number 114
_symmetry_cell_setting 'tetragonal'
loop_
_space_group_symop_operation_xyz
x,y,z
y,-x,-z
-x,-y,z
-y,x,-z
1/2+x,1/2-y,1/2-z
1/2-x,1/2+y,1/2-z
1/2-y,1/2-x,1/2+z
1/2+y,1/2+x,1/2+z
loop_
_atom_site_type_symbol
_atom_site_label
_atom_site_fract_x
_atom_site_fract_y
_atom_site_fract_z
Si Si1 0.133539 0.945083 0.530346
Si Si2 0.303806 0.316877 0.648841
Si Si3 0.502362 0.823802 0.867793
Si Si4 0.364931 0.205928 0.348761
Si Si5 0.455162 0.848317 0.458757
O O1 0.151477 0.879139 0.698656
O O2 0.228243 0.957817 0.425649
O O3 0.048299 0.900122 0.423997
O O4 0.370948 0.287366 0.491034
O O5 0.220711 0.372320 0.568063
O O6 0.268725 0.219143 0.721934
O O7 0.497574 0.835000 0.653664
O O8 0.607833 0.828937 0.922695
O O9 0.446414 0.909445 0.941635
O O10 0.469335 0.178361 0.309620
#
# Coordination Sequence:
#
# PCOD9556426 Si02
#       5
#     8   8   8   8   8
#     4  11  24  47  76 108 155 210 262 321 387 464
#     4  12  27  46  75 110 152 204 258 321 386 468
#     4  12  26  48  75 115 155 200 263 323 390 471
#     4  12  26  50  73 110 155 200 257 327 389 460
#     4  12  28  45  77 111 152 203 258 321 397 463
#
# _framework density 24.891627
#
# number of rings (size 3 to 8) (size 9 to 14) (size 15 to 20)
#    0.000    0.200    4.000    4.200    5.600    3.200 
#    0.000    0.000    0.000    0.000    0.000    0.000 
#    0.000    0.000    0.000    0.000    0.000    0.000 
#
# Total GULP energy -223937.657603 kJ/mol
# GULP energy per Si atom -5598.441440 kJ/mol
# Density = 2.483497 g / cm^3
# Si number density = 24.891627 Si / 1000 Ang^3
#
#
#
# Elastic Constant Matrix: (Units=GPa)
#
#
# Indices 1 2 3 4 5 6 
#
# 1 145.8600 35.1943 31.0813 0.0000 0.0000 0.0000
# 2 35.1943 145.8600 31.0813 0.0000 0.0000 0.0000
# 3 31.0813 31.0813 67.7813 0.0000 0.0000 0.0000
# 4 0.0000 0.0000 0.0000 11.2098 0.0000 0.0000
# 5 0.0000 0.0000 0.0000 0.0000 11.2098 0.0000
# 6 0.0000 0.0000 0.0000 0.0000 0.0000 58.0132
#
#
#
# Elastic Compliance Matrix: (Units=1/GPa)
#
#
# Indices 1 2 3 4 5 6 
#
# 1 0.007796 -0.001240 -0.003006 0.000000 0.000000 0.000000
# 2 -0.001240 0.007796 -0.003006 0.000000 0.000000 0.000000
# 3 -0.003006 -0.003006 0.017510 0.000000 0.000000 0.000000
# 4 0.000000 0.000000 0.000000 0.089207 0.000000 0.000000
# 5 0.000000 0.000000 0.000000 0.000000 0.089207 0.000000
# 6 0.000000 0.000000 0.000000 0.000000 0.000000 0.017237
#
#
# Mechanical properties :
#
#
# Convention : Reuss Voigt Hill
#
# Bulk Modulus (GPa) = 53.77251 61.57949 57.67600
# Shear Modulus (GPa) = 20.04348 33.56287 26.80318
#
# Velocity S-wave (km/s) = 2.84074 3.67599 3.28502
# Velocity P-wave (km/s) = 5.69291 6.54293 6.13266
#
# Compressibility (1/GPa) = 0.01859686
#
# Stress axis : x y z
#
# Youngs Moduli (GPa) = 128.27526 128.27526 57.10995
#
# Poissons Ratio (x) = 0.15912 0.17167
# Poissons Ratio (y) = 0.15912 0.17167
# Poissons Ratio (z) = 0.38559 0.38559
#
# Static dielectric constant tensor:
#      x y z
#    x 1.957810 0.000000 0.000000 
#    y 0.000000 1.957810 0.000000 
#    z 0.000000 0.000000 2.045250 
# 
# From -- ./inp_files/713.got.cif
#   From: 2010.05.17/outbox.cif.g08.bks.cpg/sg114_1_cif.got.tgz:713.got - 2010.05.20 11:04:54.
