data_PCOD9556100
_publ_section_title
;
Structure prediction by ZEFSAII (Michael W. Deem and Ramdas Pophale) SiO2 
 PCOD9556100
Probable space group: P -4 21 C
;
_chemical_formula_sum "Si O2"
_cell_formula_units_Z 60
_cell_length_a 17.473233
_cell_length_b 17.473233
_cell_length_c 9.258567
_cell_angle_alpha 90.000000
_cell_angle_beta 90.000000
_cell_angle_gamma 90.000000
_cell_volume 2826.768935
_symmetry_space_group_name_H-M "P -4 21 C"
_symmetry_group_IT_number 114
_symmetry_cell_setting 'tetragonal'
loop_
_space_group_symop_operation_xyz
x,y,z
y,-x,-z
-x,-y,z
-y,x,-z
1/2+x,1/2-y,1/2-z
1/2-x,1/2+y,1/2-z
1/2-y,1/2-x,1/2+z
1/2+y,1/2+x,1/2+z
loop_
_atom_site_type_symbol
_atom_site_label
_atom_site_fract_x
_atom_site_fract_y
_atom_site_fract_z
Si Si1 0.828524 0.306936 0.450229
Si Si2 0.252422 0.325965 0.666365
Si Si3 0.024284 0.666651 0.039866
Si Si4 0.500000 0.000000 0.036177
Si Si5 0.886619 0.713076 0.851413
Si Si6 0.330499 0.999102 0.644801
Si Si7 0.048967 0.202412 0.587488
Si Si8 0.839976 0.877625 0.376697
O O1 0.764290 0.271468 0.348294
O O2 0.804325 0.389905 0.511911
O O3 0.845741 0.241924 0.568037
O O4 0.908963 0.323552 0.373566
O O5 0.178476 0.336915 0.770310
O O6 0.238360 0.350668 0.502558
O O7 0.328290 0.361146 0.736870
O O8 0.023872 0.574421 0.054738
O O9 0.969360 0.681910 0.903063
O O10 0.989079 0.696635 0.189656
O O11 0.480297 0.920519 0.119533
O O12 0.905257 0.774572 0.729656
O O13 0.276767 0.963988 0.518144
O O14 0.097552 0.142415 0.496666
O O15 0.967366 0.170716 0.636106
#
# Coordination Sequence:
#
# PCOD9556100 Si02
#       8
#     8   8   8   4   8   8   8   8
#     4  10  21  42  68  95 132 174 233 267 333 400
#     4  12  23  42  69  98 136 181 226 280 342 401
#     4  11  24  38  62  94 131 181 218 281 321 407
#     4  10  24  36  56  90 140 176 218 260 332 394
#     4  12  26  40  65  99 138 174 235 280 337 411
#     4  10  23  41  65  94 136 177 225 270 336 400
#     4  11  25  45  68 102 132 174 234 286 349 410
#     4  11  23  45  73  98 135 180 227 289 344 414
#
# _framework density 21.225646999999999
#
# number of rings (size 3 to 8) (size 9 to 14) (size 15 to 20)
#    0.000    1.067    2.667    2.800    5.600    5.600 
#    0.000    1.333    0.000    0.000    0.000    0.000 
#    0.000    0.000    0.000    0.000    0.000    0.000 
#
# Total GULP energy -335091.413809 kJ/mol
# GULP energy per Si atom -5584.856897 kJ/mol
# Density = 2.117734 g / cm^3
# Si number density = 21.225647 Si / 1000 Ang^3
#
#
#
# Elastic Constant Matrix: (Units=GPa)
#
#
# Indices 1 2 3 4 5 6 
#
# 1 77.2161 17.6747 21.8391 0.0000 0.0000 0.0000
# 2 17.6747 77.2161 21.8391 0.0000 0.0000 0.0000
# 3 21.8391 21.8391 117.9263 0.0000 0.0000 0.0000
# 4 0.0000 0.0000 0.0000 18.7655 0.0000 0.0000
# 5 0.0000 0.0000 0.0000 0.0000 18.7655 0.0000
# 6 0.0000 0.0000 0.0000 0.0000 0.0000 106.6894
#
#
#
# Elastic Compliance Matrix: (Units=1/GPa)
#
#
# Indices 1 2 3 4 5 6 
#
# 1 0.014158 -0.002637 -0.002134 0.000000 0.000000 0.000000
# 2 -0.002637 0.014158 -0.002134 0.000000 0.000000 0.000000
# 3 -0.002134 -0.002134 0.009270 0.000000 0.000000 0.000000
# 4 0.000000 0.000000 0.000000 0.053289 0.000000 0.000000
# 5 0.000000 0.000000 0.000000 0.000000 0.053289 0.000000
# 6 0.000000 0.000000 0.000000 0.000000 0.000000 0.009373
#
#
# Mechanical properties :
#
#
# Convention : Reuss Voigt Hill
#
# Bulk Modulus (GPa) = 42.05741 43.89604 42.97673
# Shear Modulus (GPa) = 28.52715 42.91109 35.71912
#
# Velocity S-wave (km/s) = 3.67003 4.50117 4.10668
# Velocity P-wave (km/s) = 6.14949 6.90938 6.54048
#
# Compressibility (1/GPa) = 0.02377702
#
# Stress axis : x y z
#
# Youngs Moduli (GPa) = 70.63259 70.63259 107.87368
#
# Poissons Ratio (x) = 0.18628 0.23015
# Poissons Ratio (y) = 0.18628 0.23015
# Poissons Ratio (z) = 0.15070 0.15070
#
# Static dielectric constant tensor:
#      x y z
#    x 1.808480 0.000000 0.000000 
#    y 0.000000 1.808480 0.000000 
#    z 0.000000 0.000000 1.767580 
# 
# From -- ./inp_files/1041.got.cif
#   From: 2010.05.17/outbox.cif.g08.bks.cpg/sg114_1_cif.got.tgz:1041.got - 2010.05.20 11:04:54.
