data_PCOD9556435
_publ_section_title
;
Structure prediction by ZEFSAII (Michael W. Deem and Ramdas Pophale) SiO2 
 PCOD9556435
Probable space group: P -4 21 C
;
_chemical_formula_sum "Si O2"
_cell_formula_units_Z 42
_cell_length_a 11.657239
_cell_length_b 11.657239
_cell_length_c 15.747520
_cell_angle_alpha 90.000000
_cell_angle_beta 90.000000
_cell_angle_gamma 90.000000
_cell_volume 2139.949722
_symmetry_space_group_name_H-M "P -4 21 C"
_symmetry_group_IT_number 114
_symmetry_cell_setting 'tetragonal'
loop_
_space_group_symop_operation_xyz
x,y,z
y,-x,-z
-x,-y,z
-y,x,-z
1/2+x,1/2-y,1/2-z
1/2-x,1/2+y,1/2-z
1/2-y,1/2-x,1/2+z
1/2+y,1/2+x,1/2+z
loop_
_atom_site_type_symbol
_atom_site_label
_atom_site_fract_x
_atom_site_fract_y
_atom_site_fract_z
Si Si1 0.720024 0.763543 0.662455
Si Si2 0.484727 0.862794 0.589215
Si Si3 0.349323 0.619052 0.990787
Si Si4 0.230023 0.761124 0.140228
Si Si5 0.500000 0.500000 0.500000
Si Si6 0.226949 0.971052 0.916517
O O1 0.595285 0.801894 0.629451
O O2 0.804034 0.836628 0.600507
O O3 0.720435 0.777190 0.763199
O O4 0.754492 0.631138 0.646815
O O5 0.371252 0.813095 0.634062
O O6 0.472818 0.818702 0.492289
O O7 0.500000 0.000000 0.593622
O O8 0.481481 0.655781 0.003819
O O9 0.275865 0.674379 0.067587
O O10 0.098620 0.788385 0.117506
O O11 0.600391 0.561878 0.550326
#
# Coordination Sequence:
#
# PCOD9556435 Si02
#       6
#     8   8   8   8   2   8
#     4  12  27  44  70 104 138 180 232 288 349 415
#     4  12  24  46  70  99 139 182 232 294 342 412
#     4  11  25  48  69  95 142 190 228 279 345 422
#     4  12  27  44  70 104 138 180 232 288 349 415
#     4  12  16  44  72  92 124 170 236 280 344 400
#     4  12  22  44  72  97 133 184 228 287 350 411
#
# _framework density 19.626629000000001
#
# number of rings (size 3 to 8) (size 9 to 14) (size 15 to 20)
#    0.000    0.190    7.619    1.143    8.000    0.000 
#    0.000    0.000    0.000    0.000    0.000    0.000 
#    0.000    0.000    0.000    0.000    0.000    0.000 
#
# Total GULP energy -234548.766466 kJ/mol
# GULP energy per Si atom -5584.494440 kJ/mol
# Density = 1.958196 g / cm^3
# Si number density = 19.626629 Si / 1000 Ang^3
#
#
#
# Elastic Constant Matrix: (Units=GPa)
#
#
# Indices 1 2 3 4 5 6 
#
# 1 83.5819 6.5675 22.1301 0.0000 0.0000 0.0000
# 2 6.5675 83.5819 22.1301 0.0000 0.0000 0.0000
# 3 22.1301 22.1301 96.6623 0.0000 0.0000 0.0000
# 4 0.0000 0.0000 0.0000 97.5254 0.0000 0.0000
# 5 0.0000 0.0000 0.0000 0.0000 97.5254 0.0000
# 6 0.0000 0.0000 0.0000 0.0000 0.0000 27.6197
#
#
#
# Elastic Compliance Matrix: (Units=1/GPa)
#
#
# Indices 1 2 3 4 5 6 
#
# 1 0.012741 -0.000244 -0.002861 0.000000 0.000000 0.000000
# 2 -0.000244 0.012741 -0.002861 0.000000 0.000000 0.000000
# 3 -0.002861 -0.002861 0.011655 0.000000 0.000000 0.000000
# 4 0.000000 0.000000 0.000000 0.010254 0.000000 0.000000
# 5 0.000000 0.000000 0.000000 0.000000 0.010254 0.000000
# 6 0.000000 0.000000 0.000000 0.000000 0.000000 0.036206
#
#
# Mechanical properties :
#
#
# Convention : Reuss Voigt Hill
#
# Bulk Modulus (GPa) = 39.67389 40.60906 40.14147
# Shear Modulus (GPa) = 43.78873 58.73400 51.26137
#
# Velocity S-wave (km/s) = 4.72856 5.47637 5.11615
# Velocity P-wave (km/s) = 7.07606 7.79251 7.44291
#
# Compressibility (1/GPa) = 0.02520550
#
# Stress axis : x y z
#
# Youngs Moduli (GPa) = 78.48675 78.48675 85.79725
#
# Poissons Ratio (x) = 0.01912 0.24548
# Poissons Ratio (y) = 0.01912 0.24548
# Poissons Ratio (z) = 0.22457 0.22457
#
# Static dielectric constant tensor:
#      x y z
#    x 1.508270 0.000000 0.000000 
#    y 0.000000 1.508270 0.000000 
#    z 0.000000 0.000000 1.219590 
# 
# From -- ./inp_files/2548.got.cif
#   From: 2010.05.17/outbox.cif.g08.bks.cpg/sg114_2_cif.got.tgz:2548.got - 2010.05.20 11:04:54.
