data_PCOD9556602
_publ_section_title
;
Structure prediction by ZEFSAII (Michael W. Deem and Ramdas Pophale) SiO2 
 PCOD9556602
Probable space group: P -4 M 2
;
_chemical_formula_sum "Si O2"
_cell_formula_units_Z 64
_cell_length_a 26.120905
_cell_length_b 26.120905
_cell_length_c 5.112584
_cell_angle_alpha 90.000000
_cell_angle_beta 90.000000
_cell_angle_gamma 90.000000
_cell_volume 3488.324642
_symmetry_space_group_name_H-M "P -4 M 2"
_symmetry_group_IT_number 115
_symmetry_cell_setting 'tetragonal'
loop_
_space_group_symop_operation_xyz
x,y,z
y,-x,-z
-x,-y,z
-y,x,-z
y,x,-z
-y,-x,-z
-x,y,z
x,-y,z
loop_
_atom_site_type_symbol
_atom_site_label
_atom_site_fract_x
_atom_site_fract_y
_atom_site_fract_z
Si Si1 0.858240 0.216473 0.422729
Si Si2 0.152704 0.557454 0.780550
Si Si3 0.440728 0.222222 0.716182
Si Si4 0.294384 0.060423 0.502588
Si Si5 0.343999 0.110132 0.003211
Si Si6 0.190637 0.734627 0.923723
Si Si7 0.599776 0.444019 0.252760
Si Si8 0.641671 0.687772 0.743399
O O1 0.840595 0.159406 0.500000
O O2 0.914927 0.237975 0.460392
O O3 0.824116 0.250427 0.627927
O O4 0.842189 0.230637 0.128395
O O5 0.131324 0.500000 0.762056
O O6 0.178544 0.570256 0.501879
O O7 0.112978 0.598448 0.893365
O O8 0.197504 0.556930 0.997254
O O9 0.500000 0.240963 0.658592
O O10 0.393776 0.262067 0.717927
O O11 0.312859 0.076868 0.215023
O O12 0.295274 0.000000 0.536925
O O13 0.330924 0.087821 0.718664
O O14 0.321422 0.168325 0.022172
O O15 0.247625 0.752376 0.000000
O O16 0.564107 0.435894 0.500000
O O17 0.623286 0.500000 0.247828
O O18 0.643537 0.401585 0.263646
O O19 0.566320 0.433681 0.000000
O O20 0.679377 0.679377 0.500000
O O21 0.674291 0.674291 0.000000
#
# Coordination Sequence:
#
# PCOD9556602 Si02
#       8
#     8   8   8   8   8   8   8   8
#     4   8  14  25  42  65  95 130 167 206 241 281
#     4  10  21  36  56  77  94 124 169 213 257 304
#     4  10  20  36  56  74  93 120 161 204 240 291
#     4  10  19  31  51  77 105 139 175 210 254 310
#     4  10  19  33  51  72 103 133 164 213 260 302
#     4   8  14  25  42  64  90 124 160 192 241 300
#     4  10  20  31  44  62  84 113 146 179 223 277
#     4  10  20  34  51  71  96 121 145 183 238 296
#
# _framework density 18.346916
#
# number of rings (size 3 to 8) (size 9 to 14) (size 15 to 20)
#    0.000    2.500    0.000    2.625    0.000    0.750 
#    0.000    5.625    0.000    8.250    0.000    0.000 
#    0.000    0.250    0.000    0.000    0.000   47.500 
#
# Total GULP energy -356547.734054 kJ/mol
# GULP energy per Si atom -5571.058345 kJ/mol
# Density = 1.830516 g / cm^3
# Si number density = 18.346916 Si / 1000 Ang^3
#
#
#
# Elastic Constant Matrix: (Units=GPa)
#
#
# Indices 1 2 3 4 5 6 
#
# 1 53.9090 37.1552 -2.3105 0.0000 0.0000 0.0000
# 2 37.1552 53.9098 -2.3115 0.0000 0.0000 0.0000
# 3 -2.3105 -2.3115 87.3707 0.0000 0.0000 0.0000
# 4 0.0000 0.0000 0.0000 14.7594 0.0000 0.0000
# 5 0.0000 0.0000 0.0000 0.0000 14.7588 0.0000
# 6 0.0000 0.0000 0.0000 0.0000 0.0000 13.3304
#
#
#
# Elastic Compliance Matrix: (Units=1/GPa)
#
#
# Indices 1 2 3 4 5 6 
#
# 1 0.035341 -0.024345 0.000291 0.000000 0.000000 0.000000
# 2 -0.024345 0.035341 0.000291 0.000000 0.000000 0.000000
# 3 0.000291 0.000291 0.011461 0.000000 0.000000 0.000000
# 4 0.000000 0.000000 0.000000 0.067753 0.000000 0.000000
# 5 0.000000 0.000000 0.000000 0.000000 0.067756 0.000000
# 6 0.000000 0.000000 0.000000 0.000000 0.000000 0.075017
#
#
# Mechanical properties :
#
#
# Convention : Reuss Voigt Hill
#
# Bulk Modulus (GPa) = 28.88819 28.91733 28.90276
# Shear Modulus (GPa) = 14.21524 19.41347 16.81436
#
# Velocity S-wave (km/s) = 2.78655 3.25642 3.03061
# Velocity P-wave (km/s) = 5.11203 5.47126 5.29469
#
# Compressibility (1/GPa) = 0.03461622
#
# Stress axis : x y z
#
# Youngs Moduli (GPa) = 28.29540 28.29575 87.25337
#
# Poissons Ratio (x) = 0.68887 -0.02535
# Poissons Ratio (y) = 0.68886 -0.02541
# Poissons Ratio (z) = -0.00822 -0.00824
#
# Static dielectric constant tensor:
#      x y z
#    x 1.653910 0.000000 0.000000 
#    y 0.000000 1.653910 0.000000 
#    z 0.000000 0.000000 1.595760 
# 
# From -- ./inp_files/833.got.cif
#   From: 2010.05.17/outbox.cif.g08.bks.cpg/sg115_1_cif.got.tgz:833.got - 2010.05.20 11:07:42.
