data_PCOD9556179
_publ_section_title
;
Structure prediction by ZEFSAII (Michael W. Deem and Ramdas Pophale) SiO2 
 PCOD9556179
Probable space group: P -4 21 C
;
_chemical_formula_sum "Si O2"
_cell_formula_units_Z 40
_cell_length_a 10.461785
_cell_length_b 10.461785
_cell_length_c 18.657048
_cell_angle_alpha 90.000000
_cell_angle_beta 90.000000
_cell_angle_gamma 90.000000
_cell_volume 2041.994228
_symmetry_space_group_name_H-M "P -4 21 C"
_symmetry_group_IT_number 114
_symmetry_cell_setting 'tetragonal'
loop_
_space_group_symop_operation_xyz
x,y,z
y,-x,-z
-x,-y,z
-y,x,-z
1/2+x,1/2-y,1/2-z
1/2-x,1/2+y,1/2-z
1/2-y,1/2-x,1/2+z
1/2+y,1/2+x,1/2+z
loop_
_atom_site_type_symbol
_atom_site_label
_atom_site_fract_x
_atom_site_fract_y
_atom_site_fract_z
Si Si1 0.575710 0.684145 0.621120
Si Si2 0.799602 0.280039 0.016641
Si Si3 0.942703 0.367100 0.293968
Si Si4 0.536024 0.151168 0.054386
Si Si5 0.572668 0.703984 0.345368
O O1 0.599957 0.712770 0.537465
O O2 0.602564 0.811275 0.665417
O O3 0.676899 0.575911 0.641293
O O4 0.434195 0.637609 0.641028
O O5 0.774697 0.419082 0.982848
O O6 0.670924 0.196574 0.023431
O O7 0.864681 0.292267 0.094043
O O8 0.917311 0.264493 0.232787
O O9 0.000000 0.500000 0.263962
O O10 0.034329 0.324517 0.359754
O O11 0.500000 0.000000 0.045168
#
# Coordination Sequence:
#
# PCOD9556179 Si02
#       5
#     8   8   8   8   8
#     4  10  23  40  61  95 124 164 224 267 316 389
#     4  11  22  41  68  92 130 171 224 272 332 393
#     4  10  23  40  62  89 134 170 205 269 336 383
#     4  10  22  42  65  96 134 175 217 280 331 397
#     4  11  22  38  66  92 123 169 217 269 319 391
#
# _framework density 19.588695000000001
#
# number of rings (size 3 to 8) (size 9 to 14) (size 15 to 20)
#    0.000    1.600    0.000    6.000    5.600    4.400 
#    3.600    0.000    0.000    0.000    0.000    0.000 
#    0.000    0.000    0.000    0.000    0.000    0.000 
#
# Total GULP energy -223358.173704 kJ/mol
# GULP energy per Si atom -5583.954343 kJ/mol
# Density = 1.954411 g / cm^3
# Si number density = 19.588695 Si / 1000 Ang^3
#
#
#
# Elastic Constant Matrix: (Units=GPa)
#
#
# Indices 1 2 3 4 5 6 
#
# 1 88.6168 33.8448 47.6731 0.0000 0.0000 0.0000
# 2 33.8448 88.6168 47.6731 0.0000 0.0000 0.0000
# 3 47.6731 47.6731 115.8445 0.0000 0.0000 0.0000
# 4 0.0000 0.0000 0.0000 28.7578 0.0000 0.0000
# 5 0.0000 0.0000 0.0000 0.0000 28.7578 0.0000
# 6 0.0000 0.0000 0.0000 0.0000 0.0000 18.9694
#
#
#
# Elastic Compliance Matrix: (Units=1/GPa)
#
#
# Indices 1 2 3 4 5 6 
#
# 1 0.015137 -0.003121 -0.004945 0.000000 0.000000 0.000000
# 2 -0.003121 0.015137 -0.004945 0.000000 0.000000 0.000000
# 3 -0.004945 -0.004945 0.012702 0.000000 0.000000 0.000000
# 4 0.000000 0.000000 0.000000 0.034773 0.000000 0.000000
# 5 0.000000 0.000000 0.000000 0.000000 0.034773 0.000000
# 6 0.000000 0.000000 0.000000 0.000000 0.000000 0.052717
#
#
# Mechanical properties :
#
#
# Convention : Reuss Voigt Hill
#
# Bulk Modulus (GPa) = 58.98179 61.27336 60.12758
# Shear Modulus (GPa) = 25.39223 26.22281 25.80752
#
# Velocity S-wave (km/s) = 3.60428 3.66275 3.63364
# Velocity P-wave (km/s) = 6.89178 7.01681 6.95457
#
# Compressibility (1/GPa) = 0.01695439
#
# Stress axis : x y z
#
# Youngs Moduli (GPa) = 66.06493 66.06493 78.72716
#
# Poissons Ratio (x) = 0.20618 0.38929
# Poissons Ratio (y) = 0.20618 0.38929
# Poissons Ratio (z) = 0.32668 0.32668
#
# Static dielectric constant tensor:
#      x y z
#    x 1.704820 0.000000 0.000000 
#    y 0.000000 1.704820 0.000000 
#    z 0.000000 0.000000 1.688860 
# 
# From -- ./inp_files/2116.got.cif
#   From: 2010.05.17/outbox.cif.g08.bks.cpg/sg114_2_cif.got.tgz:2116.got - 2010.05.20 11:04:54.
