data_PCOD9556260
_publ_section_title
;
Structure prediction by ZEFSAII (Michael W. Deem and Ramdas Pophale) SiO2 
 PCOD9556260
Probable space group: P -4 21 C
;
_chemical_formula_sum "Si O2"
_cell_formula_units_Z 34
_cell_length_a 8.318252
_cell_length_b 8.318252
_cell_length_c 21.990335
_cell_angle_alpha 90.000000
_cell_angle_beta 90.000000
_cell_angle_gamma 90.000000
_cell_volume 1521.584206
_symmetry_space_group_name_H-M "P -4 21 C"
_symmetry_group_IT_number 114
_symmetry_cell_setting 'tetragonal'
loop_
_space_group_symop_operation_xyz
x,y,z
y,-x,-z
-x,-y,z
-y,x,-z
1/2+x,1/2-y,1/2-z
1/2-x,1/2+y,1/2-z
1/2-y,1/2-x,1/2+z
1/2+y,1/2+x,1/2+z
loop_
_atom_site_type_symbol
_atom_site_label
_atom_site_fract_x
_atom_site_fract_y
_atom_site_fract_z
Si Si1 0.791554 0.664467 0.314594
Si Si2 0.000000 0.000000 0.500000
Si Si3 0.909224 0.823283 0.936675
Si Si4 0.799896 0.267120 0.442488
Si Si5 0.161340 0.717027 0.313088
O O1 0.690816 0.697444 0.376179
O O2 0.803197 0.472176 0.309595
O O3 0.714083 0.716521 0.251520
O O4 0.969824 0.736695 0.321261
O O5 0.846037 0.944703 0.538294
O O6 0.042713 0.682910 0.932348
O O7 0.816827 0.780149 0.998679
O O8 0.000000 0.000000 0.935113
O O9 0.751831 0.213377 0.373938
#
# Coordination Sequence:
#
# PCOD9556260 Si02
#       5
#     8   2   8   8   8
#     4  10  24  41  67  99 139 181 231 288 358 419
#     4  12  28  40  64 104 148 184 212 314 364 428
#     4  11  22  45  75 102 132 187 249 296 344 436
#     4  11  23  44  67 104 136 182 238 289 366 415
#     4  10  24  43  65  99 139 184 231 295 347 435
#
# _framework density 22.345132
#
# number of rings (size 3 to 8) (size 9 to 14) (size 15 to 20)
#    0.000    1.412    2.353    1.412    6.588    6.588 
#    0.000    2.353    0.000    0.000    0.000    0.000 
#    0.000    0.000    0.000    0.000    0.000    0.000 
#
# Total GULP energy -189320.898159 kJ/mol
# GULP energy per Si atom -5568.261711 kJ/mol
# Density = 2.229427 g / cm^3
# Si number density = 22.345132 Si / 1000 Ang^3
#
#
#
# Elastic Constant Matrix: (Units=GPa)
#
#
# Indices 1 2 3 4 5 6 
#
# 1 53.1921 47.7216 65.4669 0.0000 0.0000 0.0000
# 2 47.7216 53.1921 65.4669 0.0000 0.0000 0.0000
# 3 65.4669 65.4669 264.6239 0.0000 0.0000 0.0000
# 4 0.0000 0.0000 0.0000 33.0297 0.0000 0.0000
# 5 0.0000 0.0000 0.0000 0.0000 33.0297 0.0000
# 6 0.0000 0.0000 0.0000 0.0000 0.0000 31.6355
#
#
#
# Elastic Compliance Matrix: (Units=1/GPa)
#
#
# Indices 1 2 3 4 5 6 
#
# 1 0.098696 -0.084102 -0.003611 0.000000 0.000000 0.000000
# 2 -0.084102 0.098696 -0.003611 0.000000 0.000000 0.000000
# 3 -0.003611 -0.003611 0.005565 0.000000 0.000000 0.000000
# 4 0.000000 0.000000 0.000000 0.030276 0.000000 0.000000
# 5 0.000000 0.000000 0.000000 0.000000 0.030276 0.000000
# 6 0.000000 0.000000 0.000000 0.000000 0.000000 0.031610
#
#
# Mechanical properties :
#
#
# Convention : Reuss Voigt Hill
#
# Bulk Modulus (GPa) = 49.23335 80.92434 65.07884
# Shear Modulus (GPa) = 10.31920 32.36248 21.34084
#
# Velocity S-wave (km/s) = 2.15131 3.80978 3.09375
# Velocity P-wave (km/s) = 5.31524 7.45968 6.47683
#
# Compressibility (1/GPa) = 0.02031143
#
# Stress axis : x y z
#
# Youngs Moduli (GPa) = 10.13217 10.13217 179.68164
#
# Poissons Ratio (x) = 0.85213 0.64874
# Poissons Ratio (y) = 0.85213 0.64874
# Poissons Ratio (z) = 0.03658 0.03658
#
# Static dielectric constant tensor:
#      x y z
#    x 1.874480 0.000000 0.000000 
#    y 0.000000 1.874480 0.000000 
#    z 0.000000 0.000000 2.056270 
# 
# From -- ./inp_files/3301.got.cif
#   From: 2010.05.17/outbox.cif.g08.bks.cpg/sg114_2_cif.got.tgz:3301.got - 2010.05.20 11:04:54.
