data_PCOD9556935
_publ_section_title
;
Structure prediction by ZEFSAII (Michael W. Deem and Ramdas Pophale) SiO2 
 PCOD9556935
Probable space group: P -4 M 2
;
_chemical_formula_sum "Si O2"
_cell_formula_units_Z 48
_cell_length_a 9.106754
_cell_length_b 9.106754
_cell_length_c 31.990984
_cell_angle_alpha 90.000000
_cell_angle_beta 90.000000
_cell_angle_gamma 90.000000
_cell_volume 2653.107266
_symmetry_space_group_name_H-M "P -4 M 2"
_symmetry_group_IT_number 115
_symmetry_cell_setting 'tetragonal'
loop_
_space_group_symop_operation_xyz
x,y,z
y,-x,-z
-x,-y,z
-y,x,-z
y,x,-z
-y,-x,-z
-x,y,z
x,-y,z
loop_
_atom_site_type_symbol
_atom_site_label
_atom_site_fract_x
_atom_site_fract_y
_atom_site_fract_z
Si Si1 0.674687 0.824518 0.210165
Si Si2 0.176457 0.673716 0.619042
Si Si3 0.675775 0.173592 0.039455
Si Si4 0.174592 0.325061 0.460168
Si Si5 0.330865 0.678851 0.875155
Si Si6 0.168769 0.821259 0.295267
O O1 0.500000 0.798982 0.215466
O O2 0.725696 0.745777 0.167867
O O3 0.757861 0.773889 0.251811
O O4 0.694901 0.000000 0.205470
O O5 0.205258 0.500000 0.617637
O O6 0.257521 0.755584 0.581578
O O7 0.222172 0.740298 0.663765
O O8 0.000000 0.694558 0.614646
O O9 0.500000 0.197394 0.035573
O O10 0.725320 0.246566 0.083021
O O11 0.702059 0.000000 0.040809
O O12 0.754316 0.245685 0.000000
O O13 0.249615 0.249615 0.500000
O O14 0.198576 0.500000 0.461620
O O15 0.000000 0.297986 0.460858
O O16 0.500000 0.724676 0.876636
O O17 0.326642 0.500000 0.874878
O O18 0.000000 0.773783 0.298386
O O19 0.170614 0.000000 0.294601
#
# Coordination Sequence:
#
# PCOD9556935 Si02
#       6
#     8   8   8   8   8   8
#     4   9  16  28  48  73 100 131 170 215 259 306
#     4  10  20  35  57  84 111 141 180 223 266 314
#     4  10  20  34  53  77 104 135 172 214 261 313
#     4  11  24  40  58  82 111 143 180 221 266 317
#     4   9  17  30  50  75 101 131 169 212 258 310
#     4   9  17  30  50  76 105 138 176 217 262 312
#
# _framework density 18.091995000000001
#
# number of rings (size 3 to 8) (size 9 to 14) (size 15 to 20)
#    0.000    2.333    0.000    3.000    0.000    9.333 
#    0.000    1.667    0.000    6.500    0.000    0.000 
#    0.000    0.000    0.000    0.000    0.000    0.000 
#
# Total GULP energy -267930.303113 kJ/mol
# GULP energy per Si atom -5581.881315 kJ/mol
# Density = 1.805082 g / cm^3
# Si number density = 18.091995 Si / 1000 Ang^3
#
#
#
# Elastic Constant Matrix: (Units=GPa)
#
#
# Indices 1 2 3 4 5 6 
#
# 1 77.0407 69.9915 90.4412 0.0000 0.0000 0.0000
# 2 69.9915 77.0406 90.4417 0.0000 0.0000 0.0000
# 3 90.4412 90.4417 227.6246 0.0000 0.0000 0.0000
# 4 0.0000 0.0000 0.0000 33.0827 0.0000 0.0000
# 5 0.0000 0.0000 0.0000 0.0000 33.0827 0.0000
# 6 0.0000 0.0000 0.0000 0.0000 0.0000 19.1339
#
#
#
# Elastic Compliance Matrix: (Units=1/GPa)
#
#
# Indices 1 2 3 4 5 6 
#
# 1 0.077582 -0.064278 -0.005286 0.000000 0.000000 0.000000
# 2 -0.064278 0.077583 -0.005287 0.000000 0.000000 0.000000
# 3 -0.005286 -0.005287 0.008594 0.000000 0.000000 0.000000
# 4 0.000000 0.000000 0.000000 0.030227 0.000000 0.000000
# 5 0.000000 0.000000 0.000000 0.000000 0.030227 0.000000
# 6 0.000000 0.000000 0.000000 0.000000 0.000000 0.052263
#
#
# Mechanical properties :
#
#
# Convention : Reuss Voigt Hill
#
# Bulk Modulus (GPa) = 71.13395 98.16164 84.64780
# Shear Modulus (GPa) = 11.60464 25.78199 18.69332
#
# Velocity S-wave (km/s) = 2.53538 3.77908 3.21789
# Velocity P-wave (km/s) = 6.92634 8.56835 7.79073
#
# Compressibility (1/GPa) = 0.01405799
#
# Stress axis : x y z
#
# Youngs Moduli (GPa) = 12.88965 12.88948 116.36109
#
# Poissons Ratio (x) = 0.82851 0.61507
# Poissons Ratio (y) = 0.82852 0.61516
# Poissons Ratio (z) = 0.06813 0.06814
#
# Static dielectric constant tensor:
#      x y z
#    x 1.607680 0.000000 0.000000 
#    y 0.000000 1.607680 0.000000 
#    z 0.000000 0.000000 1.593540 
# 
# From -- ./inp_files/5995.got.cif
#   From: 2010.05.17/outbox.cif.g08.bks.cpg/sg115_3_cif.got.tgz:5995.got - 2010.05.20 11:07:42.
