data_PCOD9556198
_publ_section_title
;
Structure prediction by ZEFSAII (Michael W. Deem and Ramdas Pophale) SiO2 
 PCOD9556198
Probable space group: P -4 21 C
;
_chemical_formula_sum "Si O2"
_cell_formula_units_Z 40
_cell_length_a 8.191196
_cell_length_b 8.191196
_cell_length_c 27.067379
_cell_angle_alpha 90.000000
_cell_angle_beta 90.000000
_cell_angle_gamma 90.000000
_cell_volume 1816.104522
_symmetry_space_group_name_H-M "P -4 21 C"
_symmetry_group_IT_number 114
_symmetry_cell_setting 'tetragonal'
loop_
_space_group_symop_operation_xyz
x,y,z
y,-x,-z
-x,-y,z
-y,x,-z
1/2+x,1/2-y,1/2-z
1/2-x,1/2+y,1/2-z
1/2-y,1/2-x,1/2+z
1/2+y,1/2+x,1/2+z
loop_
_atom_site_type_symbol
_atom_site_label
_atom_site_fract_x
_atom_site_fract_y
_atom_site_fract_z
Si Si1 0.559314 0.170501 0.664632
Si Si2 0.173166 0.089455 0.759094
Si Si3 0.500000 0.000000 0.408121
Si Si4 0.823994 0.717385 0.172938
Si Si5 0.500000 0.000000 0.573370
Si Si6 0.416488 0.237973 0.994070
O O1 0.678079 0.262822 0.701085
O O2 0.403652 0.288384 0.656559
O O3 0.610977 0.107100 0.610791
O O4 0.500000 0.000000 0.688577
O O5 0.179657 0.160202 0.704003
O O6 0.292982 0.961657 0.784653
O O7 0.000000 0.000000 0.761674
O O8 0.611691 0.112621 0.372621
O O9 0.628478 0.908699 0.444556
O O10 0.613258 0.890117 0.539201
O O11 0.302828 0.396483 0.998796
#
# Coordination Sequence:
#
# PCOD9556198 Si02
#       6
#     8   8   4   8   4   8
#     4   9  20  38  63  88 118 172 214 252 317 384
#     4  10  23  38  60  88 130 173 206 263 306 373
#     4  11  26  37  68  96 126 163 214 273 308 414
#     4  11  23  40  58  96 130 166 221 253 323 371
#     4   9  20  37  68  82 120 159 202 261 320 378
#     4  10  22  44  64  93 125 159 208 272 337 378
#
# _framework density 22.025165000000001
#
# number of rings (size 3 to 8) (size 9 to 14) (size 15 to 20)
#    0.600    1.400    0.000    2.400    9.800    0.000 
#    7.200    0.000    0.000    2.400    0.000    0.000 
#    0.000    0.000    0.000    0.000    0.000    0.000 
#
# Total GULP energy -222770.148017 kJ/mol
# GULP energy per Si atom -5569.253700 kJ/mol
# Density = 2.197503 g / cm^3
# Si number density = 22.025165 Si / 1000 Ang^3
#
#
#
# Elastic Constant Matrix: (Units=GPa)
#
#
# Indices 1 2 3 4 5 6 
#
# 1 47.0665 -4.5202 18.4675 0.0000 0.0000 0.0000
# 2 -4.5202 47.0665 18.4675 0.0000 0.0000 0.0000
# 3 18.4675 18.4675 135.7235 0.0000 0.0000 0.0000
# 4 0.0000 0.0000 0.0000 15.2639 0.0000 0.0000
# 5 0.0000 0.0000 0.0000 0.0000 15.2639 0.0000
# 6 0.0000 0.0000 0.0000 0.0000 0.0000 30.1752
#
#
#
# Elastic Compliance Matrix: (Units=1/GPa)
#
#
# Indices 1 2 3 4 5 6 
#
# 1 0.023018 0.003634 -0.003626 0.000000 0.000000 0.000000
# 2 0.003634 0.023018 -0.003626 0.000000 0.000000 0.000000
# 3 -0.003626 -0.003626 0.008355 0.000000 0.000000 0.000000
# 4 0.000000 0.000000 0.000000 0.065514 0.000000 0.000000
# 5 0.000000 0.000000 0.000000 0.000000 0.065514 0.000000
# 6 0.000000 0.000000 0.000000 0.000000 0.000000 0.033140
#
#
# Mechanical properties :
#
#
# Convention : Reuss Voigt Hill
#
# Bulk Modulus (GPa) = 21.20757 32.74289 26.97523
# Shear Modulus (GPa) = 20.70259 25.30340 23.00299
#
# Velocity S-wave (km/s) = 3.06919 3.39313 3.23522
# Velocity P-wave (km/s) = 4.71271 5.49996 5.12148
#
# Compressibility (1/GPa) = 0.04715297
#
# Stress axis : x y z
#
# Youngs Moduli (GPa) = 43.44347 43.44347 119.69168
#
# Poissons Ratio (x) = -0.15785 0.43406
# Poissons Ratio (y) = -0.15785 0.43406
# Poissons Ratio (z) = 0.15755 0.15755
#
# Static dielectric constant tensor:
#      x y z
#    x 1.853210 0.000000 0.000000 
#    y 0.000000 1.853210 0.000000 
#    z 0.000000 0.000000 1.815270 
# 
# From -- ./inp_files/3668.got.cif
#   From: 2010.05.17/outbox.cif.g08.bks.cpg/sg114_2_cif.got.tgz:3668.got - 2010.05.20 11:04:54.
