data_PCOD9556968
_publ_section_title
;
Structure prediction by ZEFSAII (Michael W. Deem and Ramdas Pophale) SiO2 
 PCOD9556968
Probable space group: P -4 M 2
;
_chemical_formula_sum "Si O2"
_cell_formula_units_Z 48
_cell_length_a 9.128589
_cell_length_b 9.128589
_cell_length_c 31.891188
_cell_angle_alpha 90.000000
_cell_angle_beta 90.000000
_cell_angle_gamma 90.000000
_cell_volume 2657.528960
_symmetry_space_group_name_H-M "P -4 M 2"
_symmetry_group_IT_number 115
_symmetry_cell_setting 'tetragonal'
loop_
_space_group_symop_operation_xyz
x,y,z
y,-x,-z
-x,-y,z
-y,x,-z
y,x,-z
-y,-x,-z
-x,y,z
x,-y,z
loop_
_atom_site_type_symbol
_atom_site_label
_atom_site_fract_x
_atom_site_fract_y
_atom_site_fract_z
Si Si1 0.326760 0.825422 0.539165
Si Si2 0.178752 0.169742 0.046215
Si Si3 0.827368 0.823841 0.784488
Si Si4 0.821516 0.332241 0.130003
Si Si5 0.674769 0.326982 0.294409
Si Si6 0.175375 0.173148 0.373312
O O1 0.260053 0.739948 0.500000
O O2 0.500000 0.799050 0.543003
O O3 0.246214 0.784317 0.582364
O O4 0.304134 0.000000 0.532842
O O5 0.227832 0.262733 0.086056
O O6 0.000000 0.171233 0.045439
O O7 0.222554 0.000000 0.051433
O O8 0.224054 0.224054 0.000000
O O9 0.761489 0.778706 0.829441
O O10 0.744073 0.745485 0.746812
O O11 0.000000 0.792584 0.782687
O O12 0.808719 0.000000 0.780437
O O13 0.774204 0.500000 0.134336
O O14 0.000000 0.330772 0.129046
O O15 0.500000 0.307736 0.293722
O O16 0.707425 0.500000 0.295591
O O17 0.742133 0.249571 0.335148
O O18 0.000000 0.192362 0.367658
O O19 0.205855 0.000000 0.374127
#
# Coordination Sequence:
#
# PCOD9556968 Si02
#       6
#     8   8   8   8   8   8
#     4  10  21  37  58  84 113 146 182 220 265 315
#     4   8  13  22  38  61  89 121 158 201 248 298
#     4  10  20  34  54  79 105 135 174 218 263 313
#     4   9  16  26  43  69  99 129 163 207 257 306
#     4  11  24  39  55  78 109 143 177 215 263 318
#     4  10  21  38  61  86 110 140 181 226 269 314
#
# _framework density 18.061889999999998
#
# number of rings (size 3 to 8) (size 9 to 14) (size 15 to 20)
#    0.000    2.333    0.000    3.500    0.000    9.000 
#    0.000    0.000    0.000    1.000    0.000    2.333 
#    0.000    0.000    0.000    0.000    0.000    0.000 
#
# Total GULP energy -267934.762747 kJ/mol
# GULP energy per Si atom -5581.974224 kJ/mol
# Density = 1.802078 g / cm^3
# Si number density = 18.061890 Si / 1000 Ang^3
#
#
#
# Elastic Constant Matrix: (Units=GPa)
#
#
# Indices 1 2 3 4 5 6 
#
# 1 78.9434 62.4930 87.5589 0.0000 0.0000 0.0000
# 2 62.4930 78.9435 87.5605 0.0000 0.0000 0.0000
# 3 87.5589 87.5605 206.1185 0.0000 0.0000 0.0000
# 4 0.0000 0.0000 0.0000 -24.3289 0.0000 0.0000
# 5 0.0000 0.0000 0.0000 0.0000 -24.3305 0.0000
# 6 0.0000 0.0000 0.0000 0.0000 0.0000 21.3627
#
#
#
# Elastic Compliance Matrix: (Units=1/GPa)
#
#
# Indices 1 2 3 4 5 6 
#
# 1 0.037851 -0.022937 -0.006336 0.000000 0.000000 0.000000
# 2 -0.022937 0.037852 -0.006337 0.000000 0.000000 0.000000
# 3 -0.006336 -0.006337 0.010235 0.000000 0.000000 0.000000
# 4 0.000000 0.000000 0.000000 -0.041103 0.000000 0.000000
# 5 0.000000 0.000000 0.000000 0.000000 -0.041101 0.000000
# 6 0.000000 0.000000 0.000000 0.000000 0.000000 0.046811
#
#
# Mechanical properties :
#
#
# Convention : Reuss Voigt Hill
#
# Bulk Modulus (GPa) = 67.92974 93.24779 80.58877
# Shear Modulus (GPa) = 39.47281 2.96687 21.21984
#
# Velocity S-wave (km/s) = 4.67992 1.28304 3.43131
# Velocity P-wave (km/s) = 8.17883 7.34396 7.77261
#
# Compressibility (1/GPa) = 0.01472109
#
# Stress axis : x y z
#
# Youngs Moduli (GPa) = 26.41914 26.41835 97.70659
#
# Poissons Ratio (x) = 0.60595 0.61903
# Poissons Ratio (y) = 0.60597 0.61912
# Poissons Ratio (z) = 0.16738 0.16740
#
# Static dielectric constant tensor:
#      x y z
#    x 1.601340 0.000000 0.000000 
#    y 0.000000 1.601340 0.000000 
#    z 0.000000 0.000000 1.596440 
# 
# From -- ./inp_files/5923.got.cif
#   From: 2010.05.17/outbox.cif.g08.bks.cpg/sg115_3_cif.got.tgz:5923.got - 2010.05.20 11:07:42.
