data_PCOD9556207
_publ_section_title
;
Structure prediction by ZEFSAII (Michael W. Deem and Ramdas Pophale) SiO2 
 PCOD9556207
Probable space group: P -4 21 C
;
_chemical_formula_sum "Si O2"
_cell_formula_units_Z 40
_cell_length_a 14.120666
_cell_length_b 14.120666
_cell_length_c 8.998275
_cell_angle_alpha 90.000000
_cell_angle_beta 90.000000
_cell_angle_gamma 90.000000
_cell_volume 1794.194921
_symmetry_space_group_name_H-M "P -4 21 C"
_symmetry_group_IT_number 114
_symmetry_cell_setting 'tetragonal'
loop_
_space_group_symop_operation_xyz
x,y,z
y,-x,-z
-x,-y,z
-y,x,-z
1/2+x,1/2-y,1/2-z
1/2-x,1/2+y,1/2-z
1/2-y,1/2-x,1/2+z
1/2+y,1/2+x,1/2+z
loop_
_atom_site_type_symbol
_atom_site_label
_atom_site_fract_x
_atom_site_fract_y
_atom_site_fract_z
Si Si1 0.886958 0.308162 0.967871
Si Si2 0.697682 0.973783 0.703511
Si Si3 0.368415 0.437695 0.960571
Si Si4 0.655908 0.091054 0.126543
Si Si5 0.201590 0.276963 0.616605
O O1 0.827930 0.402539 0.930218
O O2 0.813125 0.230237 0.909245
O O3 0.982718 0.314206 0.870731
O O4 0.917922 0.301409 0.140144
O O5 0.799970 0.022016 0.669460
O O6 0.614958 0.051571 0.684533
O O7 0.392217 0.528212 0.066770
O O8 0.305550 0.357631 0.037619
O O9 0.721821 0.164318 0.216355
O O10 0.664624 0.126987 0.958738
#
# Coordination Sequence:
#
# PCOD9556207 Si02
#       5
#     8   8   8   8   8
#     4  12  25  45  72 104 151 187 251 309 374 442
#     4  11  25  43  71 110 141 199 242 306 382 440
#     4  10  22  44  72 104 147 190 248 298 362 449
#     4  11  25  44  68 103 149 185 250 300 374 447
#     4  11  24  44  71 106 137 199 243 302 375 442
#
# _framework density 22.294121000000001
#
# number of rings (size 3 to 8) (size 9 to 14) (size 15 to 20)
#    0.000    1.000    4.000    1.800    5.600    4.800 
#    0.000    0.000    0.000    0.600    0.000    0.000 
#    0.000    0.000    0.000    0.000    0.000    0.000 
#
# Total GULP energy -223161.121792 kJ/mol
# GULP energy per Si atom -5579.028045 kJ/mol
# Density = 2.224338 g / cm^3
# Si number density = 22.294121 Si / 1000 Ang^3
#
#
#
# Elastic Constant Matrix: (Units=GPa)
#
#
# Indices 1 2 3 4 5 6 
#
# 1 121.3345 23.0567 32.8230 0.0000 0.0000 0.0000
# 2 23.0567 121.3345 32.8230 0.0000 0.0000 0.0000
# 3 32.8230 32.8230 100.0218 0.0000 0.0000 0.0000
# 4 0.0000 0.0000 0.0000 13.6488 0.0000 0.0000
# 5 0.0000 0.0000 0.0000 0.0000 13.6488 0.0000
# 6 0.0000 0.0000 0.0000 0.0000 0.0000 25.3466
#
#
#
# Elastic Compliance Matrix: (Units=1/GPa)
#
#
# Indices 1 2 3 4 5 6 
#
# 1 0.009158 -0.001018 -0.002671 0.000000 0.000000 0.000000
# 2 -0.001018 0.009158 -0.002671 0.000000 0.000000 0.000000
# 3 -0.002671 -0.002671 0.011751 0.000000 0.000000 0.000000
# 4 0.000000 0.000000 0.000000 0.073267 0.000000 0.000000
# 5 0.000000 0.000000 0.000000 0.000000 0.073267 0.000000
# 6 0.000000 0.000000 0.000000 0.000000 0.000000 0.039453
#
#
# Mechanical properties :
#
#
# Convention : Reuss Voigt Hill
#
# Bulk Modulus (GPa) = 57.64947 57.78847 57.71897
# Shear Modulus (GPa) = 21.31700 27.46139 24.38919
#
# Velocity S-wave (km/s) = 3.09556 3.51348 3.31112
# Velocity P-wave (km/s) = 6.22024 6.51434 6.36898
#
# Compressibility (1/GPa) = 0.01734621
#
# Stress axis : x y z
#
# Youngs Moduli (GPa) = 109.19824 109.19824 85.09920
#
# Poissons Ratio (x) = 0.11112 0.22732
# Poissons Ratio (y) = 0.11112 0.22732
# Poissons Ratio (z) = 0.29169 0.29169
#
# Static dielectric constant tensor:
#      x y z
#    x 1.899880 0.000000 0.000000 
#    y 0.000000 1.899880 0.000000 
#    z 0.000000 0.000000 1.839690 
# 
# From -- ./inp_files/777.got.cif
#   From: 2010.05.17/outbox.cif.g08.bks.cpg/sg114_1_cif.got.tgz:777.got - 2010.05.20 11:04:54.
