data_PCOD9556898
_publ_section_title
;
Structure prediction by ZEFSAII (Michael W. Deem and Ramdas Pophale) SiO2 
 PCOD9556898
Probable space group: P -4 M 2
;
_chemical_formula_sum "Si O2"
_cell_formula_units_Z 40
_cell_length_a 9.221103
_cell_length_b 9.221103
_cell_length_c 26.595537
_cell_angle_alpha 90.000000
_cell_angle_beta 90.000000
_cell_angle_gamma 90.000000
_cell_volume 2261.385015
_symmetry_space_group_name_H-M "P -4 M 2"
_symmetry_group_IT_number 115
_symmetry_cell_setting 'tetragonal'
loop_
_space_group_symop_operation_xyz
x,y,z
y,-x,-z
-x,-y,z
-y,x,-z
y,x,-z
-y,-x,-z
-x,y,z
x,-y,z
loop_
_atom_site_type_symbol
_atom_site_label
_atom_site_fract_x
_atom_site_fract_y
_atom_site_fract_z
Si Si1 0.323480 0.167419 0.656962
Si Si2 0.829645 0.826127 0.150183
Si Si3 0.174728 0.330701 0.454581
Si Si4 0.172985 0.328254 0.953851
Si Si5 0.674937 0.669369 0.757654
O O1 0.500000 0.167033 0.655554
O O2 0.277451 0.218054 0.601364
O O3 0.278777 0.264556 0.703918
O O4 0.278166 0.000000 0.664543
O O5 0.749416 0.786308 0.098360
O O6 0.757014 0.746818 0.197111
O O7 0.000000 0.791555 0.146893
O O8 0.815028 0.000000 0.156387
O O9 0.242426 0.242426 0.500000
O O10 0.216104 0.500000 0.459324
O O11 0.000000 0.323397 0.455990
O O12 0.199410 0.500000 0.950370
O O13 0.000000 0.305884 0.961381
O O14 0.258559 0.258559 0.000000
O O15 0.500000 0.682744 0.760783
O O16 0.712182 0.500000 0.760958
#
# Coordination Sequence:
#
# PCOD9556898 Si02
#       5
#     8   8   8   8   8
#     4   8  15  30  50  70  96 132 171 210 252 301
#     4  10  21  37  57  79 104 138 178 215 253 302
#     4   9  18  32  50  73 100 130 167 210 255 305
#     4  10  21  37  57  80 106 137 172 211 256 303
#     4  10  20  33  52  79 107 134 168 212 260 308
#
# _framework density 17.688275999999998
#
# number of rings (size 3 to 8) (size 9 to 14) (size 15 to 20)
#    0.000    2.600    0.000    3.000    0.000    5.600 
#    0.000    3.000    0.000    1.200    0.000    0.000 
#    0.000    0.000    0.000    0.000    0.000    0.000 
#
# Total GULP energy -223140.453456 kJ/mol
# GULP energy per Si atom -5578.511336 kJ/mol
# Density = 1.764802 g / cm^3
# Si number density = 17.688276 Si / 1000 Ang^3
#
#
#
# Elastic Constant Matrix: (Units=GPa)
#
#
# Indices 1 2 3 4 5 6 
#
# 1 60.1266 47.6928 78.9987 0.0000 0.0000 0.0000
# 2 47.6928 60.1266 78.9987 0.0000 0.0000 0.0000
# 3 78.9987 78.9987 202.8188 0.0000 0.0000 0.0000
# 4 0.0000 0.0000 0.0000 36.0043 0.0000 0.0000
# 5 0.0000 0.0000 0.0000 0.0000 36.0043 0.0000
# 6 0.0000 0.0000 0.0000 0.0000 0.0000 26.4419
#
#
#
# Elastic Compliance Matrix: (Units=1/GPa)
#
#
# Indices 1 2 3 4 5 6 
#
# 1 0.051017 -0.029409 -0.008416 0.000000 0.000000 0.000000
# 2 -0.029409 0.051017 -0.008416 0.000000 0.000000 0.000000
# 3 -0.008416 -0.008416 0.011487 0.000000 0.000000 0.000000
# 4 0.000000 0.000000 0.000000 0.027774 0.000000 0.000000
# 5 0.000000 0.000000 0.000000 0.000000 0.027774 0.000000
# 6 0.000000 0.000000 0.000000 0.000000 0.000000 0.037819
#
#
# Mechanical properties :
#
#
# Convention : Reuss Voigt Hill
#
# Bulk Modulus (GPa) = 47.53420 81.60584 64.57002
# Shear Modulus (GPa) = 16.31938 27.51554 21.91746
#
# Velocity S-wave (km/s) = 3.04075 3.94836 3.52390
# Velocity P-wave (km/s) = 6.26576 8.18669 7.28977
#
# Compressibility (1/GPa) = 0.02103749
#
# Stress axis : x y z
#
# Youngs Moduli (GPa) = 19.60137 19.60137 87.05487
#
# Poissons Ratio (x) = 0.57645 0.73270
# Poissons Ratio (y) = 0.57645 0.73270
# Poissons Ratio (z) = 0.16497 0.16497
#
# Static dielectric constant tensor:
#      x y z
#    x 1.590110 0.000000 0.000000 
#    y 0.000000 1.590110 0.000000 
#    z 0.000000 0.000000 1.586490 
# 
# From -- ./inp_files/5085.got.cif
#   From: 2010.05.17/outbox.cif.g08.bks.cpg/sg115_3_cif.got.tgz:5085.got - 2010.05.20 11:07:42.
