data_PCOD9556818
_publ_section_title
;
Structure prediction by ZEFSAII (Michael W. Deem and Ramdas Pophale) SiO2 
 PCOD9556818
Probable space group: P -4 M 2
;
_chemical_formula_sum "Si O2"
_cell_formula_units_Z 40
_cell_length_a 8.218205
_cell_length_b 8.218205
_cell_length_c 29.129297
_cell_angle_alpha 90.000000
_cell_angle_beta 90.000000
_cell_angle_gamma 90.000000
_cell_volume 1967.360486
_symmetry_space_group_name_H-M "P -4 M 2"
_symmetry_group_IT_number 115
_symmetry_cell_setting 'tetragonal'
loop_
_space_group_symop_operation_xyz
x,y,z
y,-x,-z
-x,-y,z
-y,x,-z
y,x,-z
-y,-x,-z
-x,y,z
x,-y,z
loop_
_atom_site_type_symbol
_atom_site_label
_atom_site_fract_x
_atom_site_fract_y
_atom_site_fract_z
Si Si1 0.822947 0.695949 0.739354
Si Si2 0.191615 0.312659 0.547829
Si Si3 0.186943 0.500000 0.210508
Si Si4 0.500000 0.688420 0.890546
Si Si5 0.814558 0.193363 0.945184
Si Si6 0.302698 0.313129 0.355649
O O1 0.827073 0.500000 0.737768
O O2 0.665791 0.739750 0.768979
O O3 0.794595 0.754364 0.686947
O O4 0.000000 0.753353 0.756438
O O5 0.225956 0.225956 0.500000
O O6 0.248201 0.500000 0.542154
O O7 0.273276 0.240617 0.593486
O O8 0.000000 0.314499 0.556833
O O9 0.500000 0.500000 0.122735
O O10 0.208868 0.500000 0.155937
O O11 0.335756 0.725504 0.919093
O O12 0.500000 0.000000 0.776460
O O13 0.000000 0.251220 0.934388
O O14 0.810254 0.000000 0.935283
O O15 0.789641 0.210360 0.000000
O O16 0.500000 0.293209 0.358349
O O17 0.268995 0.500000 0.344105
#
# Coordination Sequence:
#
# PCOD9556818 Si02
#       6
#     8   8   4   4   8   8
#     4  10  20  38  66  94 121 155 202 262 319 374
#     4  10  20  33  50  76 109 146 188 234 290 354
#     4  12  26  44  62  86 126 172 212 260 314 375
#     4  12  26  40  64  96 130 168 218 270 320 375
#     4   9  20  40  65  94 131 174 216 262 319 381
#     4   9  16  30  57  88 114 141 184 243 303 365
#
# _framework density 20.331809
#
# number of rings (size 3 to 8) (size 9 to 14) (size 15 to 20)
#    0.000    2.000    1.000    3.600    1.400    5.200 
#    0.000    1.000    0.000    2.400    0.000    0.000 
#    0.000    0.000    0.000    0.000    0.000    0.000 
#
# Total GULP energy -223253.846962 kJ/mol
# GULP energy per Si atom -5581.346174 kJ/mol
# Density = 2.028553 g / cm^3
# Si number density = 20.331809 Si / 1000 Ang^3
#
#
#
# Elastic Constant Matrix: (Units=GPa)
#
#
# Indices 1 2 3 4 5 6 
#
# 1 70.9385 24.5053 27.6792 0.0000 0.0000 0.0000
# 2 24.5053 70.9383 27.6793 0.0000 0.0000 0.0000
# 3 27.6792 27.6793 63.8775 0.0000 0.0000 0.0000
# 4 0.0000 0.0000 0.0000 -49.7260 0.0000 0.0000
# 5 0.0000 0.0000 0.0000 0.0000 -49.7273 0.0000
# 6 0.0000 0.0000 0.0000 0.0000 0.0000 15.2528
#
#
#
# Elastic Compliance Matrix: (Units=1/GPa)
#
#
# Indices 1 2 3 4 5 6 
#
# 1 0.017765 -0.003771 -0.006064 0.000000 0.000000 0.000000
# 2 -0.003771 0.017766 -0.006064 0.000000 0.000000 0.000000
# 3 -0.006064 -0.006064 0.020910 0.000000 0.000000 0.000000
# 4 0.000000 0.000000 0.000000 -0.020110 0.000000 0.000000
# 5 0.000000 0.000000 0.000000 0.000000 -0.020110 0.000000
# 6 0.000000 0.000000 0.000000 0.000000 0.000000 0.065562
#
#
# Mechanical properties :
#
#
# Convention : Reuss Voigt Hill
#
# Bulk Modulus (GPa) = 40.57927 40.60912 40.59419
# Shear Modulus (GPa) = 41.05231 -8.44741 16.30245
#
# Velocity S-wave (km/s) = 4.49833 -2.04054 2.83471
# Velocity P-wave (km/s) = 6.85433 3.80327 5.54286
#
# Compressibility (1/GPa) = 0.02464313
#
# Stress axis : x y z
#
# Youngs Moduli (GPa) = 56.28901 56.28876 47.82324
#
# Poissons Ratio (x) = 0.21226 0.29000
# Poissons Ratio (y) = 0.21226 0.29001
# Poissons Ratio (z) = 0.34134 0.34134
#
# Static dielectric constant tensor:
#      x y z
#    x 1.757470 0.000000 0.000000 
#    y 0.000000 1.757470 0.000000 
#    z 0.000000 0.000000 1.710470 
# 
# From -- ./inp_files/5553.got.cif
#   From: 2010.05.17/outbox.cif.g08.bks.cpg/sg115_3_cif.got.tgz:5553.got - 2010.05.20 11:07:42.
