data_PCOD9556366
_publ_section_title
;
Structure prediction by ZEFSAII (Michael W. Deem and Ramdas Pophale) SiO2 
 PCOD9556366
Probable space group: P -4 21 C
;
_chemical_formula_sum "Si O2"
_cell_formula_units_Z 64
_cell_length_a 14.288529
_cell_length_b 14.288529
_cell_length_c 18.479262
_cell_angle_alpha 90.000000
_cell_angle_beta 90.000000
_cell_angle_gamma 90.000000
_cell_volume 3772.764215
_symmetry_space_group_name_H-M "P -4 21 C"
_symmetry_group_IT_number 114
_symmetry_cell_setting 'tetragonal'
loop_
_space_group_symop_operation_xyz
x,y,z
y,-x,-z
-x,-y,z
-y,x,-z
1/2+x,1/2-y,1/2-z
1/2-x,1/2+y,1/2-z
1/2-y,1/2-x,1/2+z
1/2+y,1/2+x,1/2+z
loop_
_atom_site_type_symbol
_atom_site_label
_atom_site_fract_x
_atom_site_fract_y
_atom_site_fract_z
Si Si1 0.110811 0.608978 0.074739
Si Si2 0.750304 0.267519 0.165177
Si Si3 0.889211 0.239202 0.952567
Si Si4 0.608872 0.611638 0.918044
Si Si5 0.391022 0.889189 0.925261
Si Si6 0.267519 0.750304 0.834823
Si Si7 0.391128 0.611638 0.918044
Si Si8 0.889211 0.760798 0.952567
O O1 0.166683 0.664955 0.136320
O O2 0.138555 0.500000 0.068929
O O3 0.000000 0.612325 0.089335
O O4 0.126568 0.666943 0.000585
O O5 0.658850 0.323337 0.138812
O O6 0.750000 0.250000 0.250000
O O7 0.756012 0.170878 0.120451
O O8 0.829122 0.243988 0.879549
O O9 1.000000 0.228048 0.941274
O O10 0.844995 0.155005 0.000000
O O11 0.500000 0.638679 0.907552
O O12 0.612708 0.500000 0.914699
O O13 0.638259 0.638259 0.000000
O O14 0.335045 0.833317 0.863680
O O15 0.333057 0.873432 0.999415
O O16 0.323337 0.658850 0.861188
#
# Coordination Sequence:
#
# PCOD9556366 Si02
#       8
#     8   8   8   8   8   8   8   8
#     4   9  18  35  57  76  96 128 172 216 253 293
#     4  11  22  32  49  77 110 140 163 199 253 312
#     4   9  19  35  53  74  98 131 178 221 252 290
#     4   9  18  34  57  81 101 127 168 213 256 303
#     4   9  18  35  57  76  96 128 172 216 253 293
#     4  11  22  32  49  77 110 140 163 199 253 312
#     4   9  18  34  57  81 101 127 168 213 256 303
#     4   9  19  35  53  74  98 131 178 221 252 290
#
# _framework density 16.963688999999999
#
# number of rings (size 3 to 8) (size 9 to 14) (size 15 to 20)
#    0.000    2.500    0.000    3.750    0.000    6.250 
#    0.000    0.000    0.000    3.000    0.000    0.000 
#    0.000    0.000    0.000    0.000    0.000    0.000 
#
# Total GULP energy -357011.756008 kJ/mol
# GULP energy per Si atom -5578.308688 kJ/mol
# Density = 1.692508 g / cm^3
# Si number density = 16.963689 Si / 1000 Ang^3
#
#
#
# Elastic Constant Matrix: (Units=GPa)
#
#
# Indices 1 2 3 4 5 6 
#
# 1 125.6786 49.9268 67.6356 0.0000 0.0000 0.0000
# 2 49.9268 125.6786 67.6356 0.0000 0.0000 0.0000
# 3 67.6356 67.6356 161.3622 0.0000 0.0000 0.0000
# 4 0.0000 0.0000 0.0000 228.7662 0.0000 0.0000
# 5 0.0000 0.0000 0.0000 0.0000 228.7662 0.0000
# 6 0.0000 0.0000 0.0000 0.0000 0.0000 30.5992
#
#
#
# Elastic Compliance Matrix: (Units=1/GPa)
#
#
# Indices 1 2 3 4 5 6 
#
# 1 0.010806 -0.002396 -0.003525 0.000000 0.000000 0.000000
# 2 -0.002396 0.010806 -0.003525 0.000000 0.000000 0.000000
# 3 -0.003525 -0.003525 0.009152 0.000000 0.000000 0.000000
# 4 0.000000 0.000000 0.000000 0.004371 0.000000 0.000000
# 5 0.000000 0.000000 0.000000 0.000000 0.004371 0.000000
# 6 0.000000 0.000000 0.000000 0.000000 0.000000 0.032681
#
#
# Mechanical properties :
#
#
# Convention : Reuss Voigt Hill
#
# Bulk Modulus (GPa) = 84.23174 87.01283 85.62228
# Shear Modulus (GPa) = 52.61211 112.79441 82.70326
#
# Velocity S-wave (km/s) = 5.57511 8.16309 6.98992
# Velocity P-wave (km/s) = 9.55010 11.84284 10.75773
#
# Compressibility (1/GPa) = 0.01187201
#
# Stress axis : x y z
#
# Youngs Moduli (GPa) = 92.54542 92.54542 109.26170
#
# Poissons Ratio (x) = 0.22169 0.38516
# Poissons Ratio (y) = 0.22169 0.38516
# Poissons Ratio (z) = 0.32623 0.32623
#
# Static dielectric constant tensor:
#      x y z
#    x 1.580860 0.000000 0.000000 
#    y 0.000000 1.580860 0.000000 
#    z 0.000000 0.000000 1.528410 
# 
# From -- ./inp_files/2741.got.cif
#   From: 2010.05.17/outbox.cif.g08.bks.cpg/sg114_2_cif.got.tgz:2741.got - 2010.05.20 11:04:54.
