data_PCOD9556823
_publ_section_title
;
Structure prediction by ZEFSAII (Michael W. Deem and Ramdas Pophale) SiO2 
 PCOD9556823
Probable space group: P -4 M 2
;
_chemical_formula_sum "Si O2"
_cell_formula_units_Z 32
_cell_length_a 9.406633
_cell_length_b 9.406633
_cell_length_c 21.281606
_cell_angle_alpha 90.000000
_cell_angle_beta 90.000000
_cell_angle_gamma 90.000000
_cell_volume 1883.097467
_symmetry_space_group_name_H-M "P -4 M 2"
_symmetry_group_IT_number 115
_symmetry_cell_setting 'tetragonal'
loop_
_space_group_symop_operation_xyz
x,y,z
y,-x,-z
-x,-y,z
-y,x,-z
y,x,-z
-y,-x,-z
-x,y,z
x,-y,z
loop_
_atom_site_type_symbol
_atom_site_label
_atom_site_fract_x
_atom_site_fract_y
_atom_site_fract_z
Si Si1 0.829492 0.668241 0.944502
Si Si2 0.833069 0.829035 0.679954
Si Si3 0.827221 0.163509 0.820355
Si Si4 0.329618 0.667794 0.570920
O O1 0.802774 0.500000 0.945537
O O2 0.785504 0.736338 0.877719
O O3 0.000000 0.690373 0.951581
O O4 0.747825 0.747825 0.000000
O O5 0.782245 0.789909 0.750480
O O6 0.746688 0.755056 0.625006
O O7 0.000000 0.791970 0.674504
O O8 0.822197 0.000000 0.675781
O O9 0.000000 0.161671 0.818463
O O10 0.781558 0.000000 0.831282
O O11 0.287735 0.712266 0.500000
O O12 0.500000 0.683783 0.575275
O O13 0.297765 0.500000 0.577520
#
# Coordination Sequence:
#
# PCOD9556823 Si02
#       4
#     8   8   8   8
#     4  10  20  33  51  75 100 128 164 203 242 287
#     4   9  18  32  51  77 104 126 155 200 249 294
#     4   8  15  30  51  73  98 128 161 198 241 289
#     4   9  19  35  51  68  95 132 171 206 240 285
#
# _framework density 16.993281
#
# number of rings (size 3 to 8) (size 9 to 14) (size 15 to 20)
#    0.000    3.000    0.000    3.000    0.000    4.500 
#    0.000    7.500    0.000    1.500    0.000    0.000 
#    0.000    0.000    0.000    0.000    0.000    0.000 
#
# Total GULP energy -178330.189760 kJ/mol
# GULP energy per Si atom -5572.818430 kJ/mol
# Density = 1.695460 g / cm^3
# Si number density = 16.993281 Si / 1000 Ang^3
#
#
#
# Elastic Constant Matrix: (Units=GPa)
#
#
# Indices 1 2 3 4 5 6 
#
# 1 42.8898 39.3379 73.0565 0.0000 0.0000 0.0000
# 2 39.3379 42.8897 73.0565 0.0000 0.0000 0.0000
# 3 73.0565 73.0565 199.8166 0.0000 0.0000 0.0000
# 4 0.0000 0.0000 0.0000 -48.1208 0.0000 0.0000
# 5 0.0000 0.0000 0.0000 0.0000 -48.1257 0.0000
# 6 0.0000 0.0000 0.0000 0.0000 0.0000 26.8093
#
#
#
# Elastic Compliance Matrix: (Units=1/GPa)
#
#
# Indices 1 2 3 4 5 6 
#
# 1 0.158129 -0.123414 -0.012692 0.000000 0.000000 0.000000
# 2 -0.123414 0.158129 -0.012692 0.000000 0.000000 0.000000
# 3 -0.012692 -0.012692 0.014286 0.000000 0.000000 0.000000
# 4 0.000000 0.000000 0.000000 -0.020781 0.000000 0.000000
# 5 0.000000 0.000000 0.000000 0.000000 -0.020779 0.000000
# 6 0.000000 0.000000 0.000000 0.000000 0.000000 0.037301
#
#
# Mechanical properties :
#
#
# Convention : Reuss Voigt Hill
#
# Bulk Modulus (GPa) = 30.35272 72.94422 51.64847
# Shear Modulus (GPa) = 7.87572 -7.21112 0.33230
#
# Velocity S-wave (km/s) = 2.15515 -2.06221 0.44269
# Velocity P-wave (km/s) = 4.90849 6.11132 5.54263
#
# Compressibility (1/GPa) = 0.03294598
#
# Stress axis : x y z
#
# Youngs Moduli (GPa) = 6.32397 6.32396 69.99993
#
# Poissons Ratio (x) = 0.78046 0.88846
# Poissons Ratio (y) = 0.78046 0.88847
# Poissons Ratio (z) = 0.08027 0.08027
#
# Static dielectric constant tensor:
#      x y z
#    x 1.559510 0.000000 0.000000 
#    y 0.000000 1.559510 0.000000 
#    z 0.000000 0.000000 1.574100 
# 
# From -- ./inp_files/4566.got.cif
#   From: 2010.05.17/outbox.cif.g08.bks.cpg/sg115_3_cif.got.tgz:4566.got - 2010.05.20 11:07:42.
