data_PCOD9556251
_publ_section_title
;
Structure prediction by ZEFSAII (Michael W. Deem and Ramdas Pophale) SiO2 
 PCOD9556251
Probable space group: P -4 21 C
;
_chemical_formula_sum "Si O2"
_cell_formula_units_Z 20
_cell_length_a 8.077347
_cell_length_b 8.077347
_cell_length_c 13.504595
_cell_angle_alpha 90.000000
_cell_angle_beta 90.000000
_cell_angle_gamma 90.000000
_cell_volume 881.087511
_symmetry_space_group_name_H-M "P -4 21 C"
_symmetry_group_IT_number 114
_symmetry_cell_setting 'tetragonal'
loop_
_space_group_symop_operation_xyz
x,y,z
y,-x,-z
-x,-y,z
-y,x,-z
1/2+x,1/2-y,1/2-z
1/2-x,1/2+y,1/2-z
1/2-y,1/2-x,1/2+z
1/2+y,1/2+x,1/2+z
loop_
_atom_site_type_symbol
_atom_site_label
_atom_site_fract_x
_atom_site_fract_y
_atom_site_fract_z
Si Si1 0.000000 0.000000 0.500000
Si Si2 0.674288 0.056026 0.129182
Si Si3 0.558741 0.673356 0.820143
Si Si4 0.500000 0.500000 0.500000
O O1 0.847202 0.035131 0.425769
O O2 0.673610 0.251362 0.149336
O O3 0.500000 0.000000 0.084222
O O4 0.690645 0.975597 0.238853
O O5 0.831671 0.005332 0.064235
O O6 0.500000 0.500000 0.770936
#
# Coordination Sequence:
#
# PCOD9556251 Si02
#       4
#     2   8   8   2
#     4   8  22  44  76 102 144 192 258 312 360 482
#     4  12  27  48  79 106 163 203 249 332 382 465
#     4  10  23  48  71 110 148 198 260 308 395 448
#     4  12  30  52  72 134 144 204 274 308 388 486
#
# _framework density 22.699221999999999
#
# number of rings (size 3 to 8) (size 9 to 14) (size 15 to 20)
#    1.200    0.000    2.000    2.400    5.600    0.000 
#    0.000    0.000    0.000    0.000    0.000    0.000 
#    0.000    0.000    0.000    0.000    0.000    0.000 
#
# Total GULP energy -111540.470090 kJ/mol
# GULP energy per Si atom -5577.023504 kJ/mol
# Density = 2.264756 g / cm^3
# Si number density = 22.699222 Si / 1000 Ang^3
#
#
#
# Elastic Constant Matrix: (Units=GPa)
#
#
# Indices 1 2 3 4 5 6 
#
# 1 129.3887 20.1331 51.3030 0.0000 0.0000 0.0000
# 2 20.1331 129.3887 51.3030 0.0000 0.0000 0.0000
# 3 51.3030 51.3030 123.3574 0.0000 0.0000 0.0000
# 4 0.0000 0.0000 0.0000 15.3041 0.0000 0.0000
# 5 0.0000 0.0000 0.0000 0.0000 15.3041 0.0000
# 6 0.0000 0.0000 0.0000 0.0000 0.0000 32.2409
#
#
#
# Elastic Compliance Matrix: (Units=1/GPa)
#
#
# Indices 1 2 3 4 5 6 
#
# 1 0.009256 0.000103 -0.003892 0.000000 0.000000 0.000000
# 2 0.000103 0.009256 -0.003892 0.000000 0.000000 0.000000
# 3 -0.003892 -0.003892 0.011344 0.000000 0.000000 0.000000
# 4 0.000000 0.000000 0.000000 0.065342 0.000000 0.000000
# 5 0.000000 0.000000 0.000000 0.000000 0.065342 0.000000
# 6 0.000000 0.000000 0.000000 0.000000 0.000000 0.031017
#
#
# Mechanical properties :
#
#
# Convention : Reuss Voigt Hill
#
# Bulk Modulus (GPa) = 68.99963 69.73479 69.36721
# Shear Modulus (GPa) = 23.61267 29.86285 26.73776
#
# Velocity S-wave (km/s) = 3.22878 3.63104 3.43580
# Velocity P-wave (km/s) = 6.66058 6.95465 6.80920
#
# Compressibility (1/GPa) = 0.01449283
#
# Stress axis : x y z
#
# Youngs Moduli (GPa) = 108.03896 108.03896 88.15186
#
# Poissons Ratio (x) = -0.01114 0.34311
# Poissons Ratio (y) = -0.01114 0.34311
# Poissons Ratio (z) = 0.42052 0.42052
#
# Static dielectric constant tensor:
#      x y z
#    x 1.855810 0.000000 0.000000 
#    y 0.000000 1.855810 0.000000 
#    z 0.000000 0.000000 1.885690 
# 
# From -- ./inp_files/1218.got.cif
#   From: 2010.05.17/outbox.cif.g08.bks.cpg/sg114_1_cif.got.tgz:1218.got - 2010.05.20 11:04:54.
