data_PCOD9556947
_publ_section_title
;
Structure prediction by ZEFSAII (Michael W. Deem and Ramdas Pophale) SiO2 
 PCOD9556947
Probable space group: P -4 M 2
;
_chemical_formula_sum "Si O2"
_cell_formula_units_Z 36
_cell_length_a 9.170079
_cell_length_b 9.170079
_cell_length_c 23.883593
_cell_angle_alpha 90.000000
_cell_angle_beta 90.000000
_cell_angle_gamma 90.000000
_cell_volume 2008.379668
_symmetry_space_group_name_H-M "P -4 M 2"
_symmetry_group_IT_number 115
_symmetry_cell_setting 'tetragonal'
loop_
_space_group_symop_operation_xyz
x,y,z
y,-x,-z
-x,-y,z
-y,x,-z
y,x,-z
-y,-x,-z
-x,y,z
x,-y,z
loop_
_atom_site_type_symbol
_atom_site_label
_atom_site_fract_x
_atom_site_fract_y
_atom_site_fract_z
Si Si1 0.172153 0.674912 0.719530
Si Si2 0.173124 0.326529 0.384535
Si Si3 0.172696 0.325273 0.947734
Si Si4 0.677457 0.332168 0.166534
Si Si5 0.326883 0.326883 0.500000
O O1 0.192731 0.500000 0.713933
O O2 0.241067 0.752959 0.666120
O O3 0.251522 0.723130 0.776690
O O4 0.000000 0.702897 0.723513
O O5 0.201878 0.500000 0.377576
O O6 0.241178 0.282804 0.444267
O O7 0.000000 0.304283 0.384750
O O8 0.195349 0.500000 0.953895
O O9 0.248375 0.278076 0.889703
O O10 0.000000 0.299097 0.945083
O O11 0.244366 0.244366 0.000000
O O12 0.500000 0.331338 0.166740
O O13 0.725620 0.500000 0.165802
O O14 0.303862 0.500000 0.509041
#
# Coordination Sequence:
#
# PCOD9556947 Si02
#       5
#     8   8   8   8   4
#     4  10  20  34  54  80 109 141 177 217 262 313
#     4  10  21  36  54  78 108 140 175 217 264 314
#     4  10  20  34  53  78 108 140 175 216 262 313
#     4   9  17  31  54  81 106 135 174 220 266 311
#     4   9  18  34  56  79 104 138 180 223 264 309
#
# _framework density 17.924897999999999
#
# number of rings (size 3 to 8) (size 9 to 14) (size 15 to 20)
#    0.000    2.333    0.000    2.667    0.000    7.556 
#    0.000    3.333    0.000    6.667    0.000    0.000 
#    0.000    0.000    0.000    0.000    0.000    0.000 
#
# Total GULP energy -200971.814700 kJ/mol
# GULP energy per Si atom -5582.550408 kJ/mol
# Density = 1.788410 g / cm^3
# Si number density = 17.924898 Si / 1000 Ang^3
#
#
#
# Elastic Constant Matrix: (Units=GPa)
#
#
# Indices 1 2 3 4 5 6 
#
# 1 74.5452 67.6843 95.9874 0.0000 0.0000 0.0000
# 2 67.6843 74.5452 95.9874 0.0000 0.0000 0.0000
# 3 95.9874 95.9874 226.5242 0.0000 0.0000 0.0000
# 4 0.0000 0.0000 0.0000 -16.1785 0.0000 0.0000
# 5 0.0000 0.0000 0.0000 0.0000 -16.1785 0.0000
# 6 0.0000 0.0000 0.0000 0.0000 0.0000 20.8303
#
#
#
# Elastic Compliance Matrix: (Units=1/GPa)
#
#
# Indices 1 2 3 4 5 6 
#
# 1 0.081089 -0.064664 -0.006960 0.000000 0.000000 0.000000
# 2 -0.064664 0.081089 -0.006960 0.000000 0.000000 0.000000
# 3 -0.006960 -0.006960 0.010313 0.000000 0.000000 0.000000
# 4 0.000000 0.000000 0.000000 -0.061810 0.000000 0.000000
# 5 0.000000 0.000000 0.000000 0.000000 -0.061810 0.000000
# 6 0.000000 0.000000 0.000000 0.000000 0.000000 0.048007
#
#
# Mechanical properties :
#
#
# Convention : Reuss Voigt Hill
#
# Bulk Modulus (GPa) = 65.25990 99.43696 82.34843
# Shear Modulus (GPa) = 19.29349 5.42501 12.35925
#
# Velocity S-wave (km/s) = 3.28434 1.74158 2.62869
# Velocity P-wave (km/s) = 7.13225 7.72261 7.43329
#
# Compressibility (1/GPa) = 0.01532334
#
# Stress axis : x y z
#
# Youngs Moduli (GPa) = 12.33206 12.33206 96.96497
#
# Poissons Ratio (x) = 0.79744 0.67488
# Poissons Ratio (y) = 0.79744 0.67488
# Poissons Ratio (z) = 0.08583 0.08583
#
# Static dielectric constant tensor:
#      x y z
#    x 1.596210 0.000000 0.000000 
#    y 0.000000 1.596210 0.000000 
#    z 0.000000 0.000000 1.579690 
# 
# From -- ./inp_files/5104.got.cif
#   From: 2010.05.17/outbox.cif.g08.bks.cpg/sg115_3_cif.got.tgz:5104.got - 2010.05.20 11:07:42.
