data_PCOD9556559
_publ_section_title
;
Structure prediction by ZEFSAII (Michael W. Deem and Ramdas Pophale) SiO2 
 PCOD9556559
Probable space group: P -4 M 2
;
_chemical_formula_sum "Si O2"
_cell_formula_units_Z 64
_cell_length_a 23.500954
_cell_length_b 23.500954
_cell_length_c 5.654812
_cell_angle_alpha 90.000000
_cell_angle_beta 90.000000
_cell_angle_gamma 90.000000
_cell_volume 3123.123483
_symmetry_space_group_name_H-M "P -4 M 2"
_symmetry_group_IT_number 115
_symmetry_cell_setting 'tetragonal'
loop_
_space_group_symop_operation_xyz
x,y,z
y,-x,-z
-x,-y,z
-y,x,-z
y,x,-z
-y,-x,-z
-x,y,z
x,-y,z
loop_
_atom_site_type_symbol
_atom_site_label
_atom_site_fract_x
_atom_site_fract_y
_atom_site_fract_z
Si Si1 0.339581 0.701733 0.750664
Si Si2 0.637596 0.174061 0.190110
Si Si3 0.930675 0.161655 0.967194
Si Si4 0.354045 0.064273 0.494085
Si Si5 0.437200 0.760831 0.512483
Si Si6 0.563752 0.873808 0.788929
Si Si7 0.236276 0.220152 0.246281
Si Si8 0.778382 0.931840 0.535848
O O1 0.330298 0.669703 0.500000
O O2 0.402045 0.727703 0.712129
O O3 0.288687 0.749576 0.751578
O O4 0.330607 0.669394 0.000000
O O5 0.630286 0.112729 0.310827
O O6 0.604363 0.229003 0.291882
O O7 0.703018 0.189863 0.223213
O O8 0.609276 0.159952 0.944617
O O9 0.915408 0.194204 0.212558
O O10 0.000000 0.155921 0.960399
O O11 0.898206 0.101795 0.000000
O O12 0.913406 0.194058 0.719031
O O13 0.401834 0.071870 0.695694
O O14 0.289129 0.079308 0.562155
O O15 0.354104 0.000000 0.402825
O O16 0.500000 0.737231 0.465259
O O17 0.444572 0.826488 0.587441
O O18 0.500000 0.884953 0.888050
O O19 0.208402 0.208402 0.500000
O O20 0.206094 0.206094 0.000000
O O21 0.784037 0.000000 0.525388
#
# Coordination Sequence:
#
# PCOD9556559 Si02
#       8
#     8   8   8   8   8   8   8   8
#     4  10  18  32  54  79 115 158 194 235 291 345
#     4  11  21  37  61  87 121 161 202 250 323 379
#     4  10  20  37  65  95 130 166 203 256 316 374
#     4  10  24  42  62  82 112 158 213 264 314 375
#     4  10  20  35  55  85 120 161 201 244 297 371
#     4  10  22  38  60  87 117 151 202 258 320 379
#     4  10  19  33  57  83 120 159 193 233 303 372
#     4   9  20  39  62  86 116 165 212 250 301 368
#
# _framework density 20.492305000000002
#
# number of rings (size 3 to 8) (size 9 to 14) (size 15 to 20)
#    0.000    2.000    2.500    2.250    3.500    1.375 
#    0.000    1.875    0.000    2.250    0.000    0.000 
#    0.000    1.500    0.000    0.000    0.000    0.000 
#
# Total GULP energy -356271.457535 kJ/mol
# GULP energy per Si atom -5566.741524 kJ/mol
# Density = 2.044566 g / cm^3
# Si number density = 20.492305 Si / 1000 Ang^3
#
#
#
# Elastic Constant Matrix: (Units=GPa)
#
#
# Indices 1 2 3 4 5 6 
#
# 1 76.9129 36.0224 33.0682 0.0000 0.0000 0.0000
# 2 36.0224 76.9134 33.0682 0.0000 0.0000 0.0000
# 3 33.0682 33.0682 120.2375 0.0000 0.0000 0.0000
# 4 0.0000 0.0000 0.0000 -10.2759 0.0000 0.0000
# 5 0.0000 0.0000 0.0000 0.0000 -10.2755 0.0000
# 6 0.0000 0.0000 0.0000 0.0000 0.0000 19.4190
#
#
#
# Elastic Compliance Matrix: (Units=1/GPa)
#
#
# Indices 1 2 3 4 5 6 
#
# 1 0.017505 -0.006950 -0.002903 0.000000 0.000000 0.000000
# 2 -0.006950 0.017505 -0.002903 0.000000 0.000000 0.000000
# 3 -0.002903 -0.002903 0.009914 0.000000 0.000000 0.000000
# 4 0.000000 0.000000 0.000000 -0.097315 0.000000 0.000000
# 5 0.000000 0.000000 0.000000 0.000000 -0.097319 0.000000
# 6 0.000000 0.000000 0.000000 0.000000 0.000000 0.051496
#
#
# Mechanical properties :
#
#
# Convention : Reuss Voigt Hill
#
# Bulk Modulus (GPa) = 51.51574 53.15347 52.33461
# Shear Modulus (GPa) = -75.49138 11.23386 -32.12876
#
# Velocity S-wave (km/s) = -6.07609 2.34391 -3.96390
# Velocity P-wave (km/s) = 4.90219 5.77233 2.15502
#
# Compressibility (1/GPa) = 0.01941154
#
# Stress axis : x y z
#
# Youngs Moduli (GPa) = 57.12649 57.12695 100.87237
#
# Poissons Ratio (x) = 0.39706 0.29281
# Poissons Ratio (y) = 0.39706 0.29280
# Poissons Ratio (z) = 0.16582 0.16582
#
# Static dielectric constant tensor:
#      x y z
#    x 1.837910 0.000000 0.000000 
#    y 0.000000 1.837910 0.000000 
#    z 0.000000 0.000000 1.862060 
# 
# From -- ./inp_files/814.got.cif
#   From: 2010.05.17/outbox.cif.g08.bks.cpg/sg115_1_cif.got.tgz:814.got - 2010.05.20 11:07:42.
