data_PCOD9556378
_publ_section_title
;
Structure prediction by ZEFSAII (Michael W. Deem and Ramdas Pophale) SiO2 
 PCOD9556378
Probable space group: P -4 21 C
;
_chemical_formula_sum "Si O2"
_cell_formula_units_Z 50
_cell_length_a 9.259346
_cell_length_b 9.259346
_cell_length_c 29.995316
_cell_angle_alpha 90.000000
_cell_angle_beta 90.000000
_cell_angle_gamma 90.000000
_cell_volume 2571.663065
_symmetry_space_group_name_H-M "P -4 21 C"
_symmetry_group_IT_number 114
_symmetry_cell_setting 'tetragonal'
loop_
_space_group_symop_operation_xyz
x,y,z
y,-x,-z
-x,-y,z
-y,x,-z
1/2+x,1/2-y,1/2-z
1/2-x,1/2+y,1/2-z
1/2-y,1/2-x,1/2+z
1/2+y,1/2+x,1/2+z
loop_
_atom_site_type_symbol
_atom_site_label
_atom_site_fract_x
_atom_site_fract_y
_atom_site_fract_z
Si Si1 0.158425 0.533984 0.544146
Si Si2 0.500000 0.500000 0.000000
Si Si3 0.839208 0.057268 0.783430
Si Si4 0.638275 0.403881 0.625732
Si Si5 0.405714 0.143905 0.211770
Si Si6 0.240673 0.212446 0.532534
Si Si7 0.069340 0.641208 0.885039
O O1 0.255343 0.593559 0.584243
O O2 0.211672 0.381304 0.524448
O O3 0.156565 0.649648 0.504879
O O4 0.000000 0.500000 0.562124
O O5 0.599889 0.389950 0.971269
O O6 0.845208 0.231778 0.780396
O O7 0.791284 0.983662 0.830943
O O8 0.758201 0.986366 0.742237
O O9 0.000000 0.000000 0.781294
O O10 0.500000 0.500000 0.613468
O O11 0.559435 0.248225 0.631643
O O12 0.412555 0.155048 0.158411
O O13 0.500000 0.000000 0.222090
O O14 0.320460 0.208544 0.580119
O O15 0.000000 0.500000 0.907079
#
# Coordination Sequence:
#
# PCOD9556378 Si02
#       7
#     8   2   8   8   8   8   8
#     4  12  25  40  67  98 129 174 226 260 335 393
#     4  12  28  44  60  92 144 168 204 284 344 376
#     4  11  22  42  65  95 137 168 217 279 328 396
#     4  11  22  44  67  95 133 170 220 281 318 386
#     4  11  23  41  68  97 128 176 219 268 339 399
#     4  12  25  45  65  96 134 174 219 278 326 392
#     4  11  24  42  71  97 127 174 225 269 330 399
#
# _framework density 19.442672999999999
#
# number of rings (size 3 to 8) (size 9 to 14) (size 15 to 20)
#    0.000    0.640    6.400    2.400    4.480    0.640 
#    1.440    1.600    0.000    0.000    0.000    0.000 
#    0.000    0.000    0.000    0.000    0.000    0.000 
#
# Total GULP energy -278749.162376 kJ/mol
# GULP energy per Si atom -5574.983248 kJ/mol
# Density = 1.939842 g / cm^3
# Si number density = 19.442673 Si / 1000 Ang^3
#
#
#
# Elastic Constant Matrix: (Units=GPa)
#
#
# Indices 1 2 3 4 5 6 
#
# 1 76.6717 22.5626 28.1417 0.0000 0.0000 0.0000
# 2 22.5626 76.6717 28.1417 0.0000 0.0000 0.0000
# 3 28.1417 28.1417 86.5193 0.0000 0.0000 0.0000
# 4 0.0000 0.0000 0.0000 36.1687 0.0000 0.0000
# 5 0.0000 0.0000 0.0000 0.0000 36.1687 0.0000
# 6 0.0000 0.0000 0.0000 0.0000 0.0000 37.7553
#
#
#
# Elastic Compliance Matrix: (Units=1/GPa)
#
#
# Indices 1 2 3 4 5 6 
#
# 1 0.015419 -0.003062 -0.004019 0.000000 0.000000 0.000000
# 2 -0.003062 0.015419 -0.004019 0.000000 0.000000 0.000000
# 3 -0.004019 -0.004019 0.014173 0.000000 0.000000 0.000000
# 4 0.000000 0.000000 0.000000 0.027648 0.000000 0.000000
# 5 0.000000 0.000000 0.000000 0.000000 0.027648 0.000000
# 6 0.000000 0.000000 0.000000 0.000000 0.000000 0.026486
#
#
# Mechanical properties :
#
#
# Convention : Reuss Voigt Hill
#
# Bulk Modulus (GPa) = 43.84158 44.17272 44.00715
# Shear Modulus (GPa) = 31.92890 32.75298 32.34094
#
# Velocity S-wave (km/s) = 4.05681 4.10883 4.08290
# Velocity P-wave (km/s) = 6.67396 6.72895 6.70151
#
# Compressibility (1/GPa) = 0.02280940
#
# Stress axis : x y z
#
# Youngs Moduli (GPa) = 64.85511 64.85511 70.55805
#
# Poissons Ratio (x) = 0.19860 0.28359
# Poissons Ratio (y) = 0.19860 0.28359
# Poissons Ratio (z) = 0.26067 0.26067
#
# Static dielectric constant tensor:
#      x y z
#    x 1.090050 0.000000 0.000000 
#    y 0.000000 1.090050 0.000000 
#    z 0.000000 0.000000 1.673170 
# 
# From -- ./inp_files/4019.got.cif
#   From: 2010.05.17/outbox.cif.g08.bks.cpg/sg114_3_cif.got.tgz:4019.got - 2010.05.20 11:04:54.
