data_PCOD9556344
_publ_section_title
;
Structure prediction by ZEFSAII (Michael W. Deem and Ramdas Pophale) SiO2 
 PCOD9556344
Probable space group: P -4 21 C
;
_chemical_formula_sum "Si O2"
_cell_formula_units_Z 40
_cell_length_a 8.478089
_cell_length_b 8.478089
_cell_length_c 25.055614
_cell_angle_alpha 90.000000
_cell_angle_beta 90.000000
_cell_angle_gamma 90.000000
_cell_volume 1800.947250
_symmetry_space_group_name_H-M "P -4 21 C"
_symmetry_group_IT_number 114
_symmetry_cell_setting 'tetragonal'
loop_
_space_group_symop_operation_xyz
x,y,z
y,-x,-z
-x,-y,z
-y,x,-z
1/2+x,1/2-y,1/2-z
1/2-x,1/2+y,1/2-z
1/2-y,1/2-x,1/2+z
1/2+y,1/2+x,1/2+z
loop_
_atom_site_type_symbol
_atom_site_label
_atom_site_fract_x
_atom_site_fract_y
_atom_site_fract_z
Si Si1 0.430249 0.675359 0.689913
Si Si2 0.386109 0.363009 0.117384
Si Si3 0.368111 0.887635 0.091474
Si Si4 0.051133 0.677497 0.702764
Si Si5 0.205290 0.837353 0.492376
O O1 0.500000 0.500000 0.694495
O O2 0.467334 0.750616 0.632657
O O3 0.239851 0.683050 0.695151
O O4 0.508207 0.777081 0.736841
O O5 0.500000 0.500000 0.093671
O O6 0.517986 0.229276 0.126549
O O7 0.295444 0.446639 0.165713
O O8 0.267815 0.307823 0.070428
O O9 0.500000 0.000000 0.067011
O O10 0.277686 0.806210 0.042383
O O11 0.000000 0.500000 0.690633
O O12 0.026125 0.784137 0.501294
#
# Coordination Sequence:
#
# PCOD9556344 Si02
#       5
#     8   8   8   8   8
#     4  12  27  46  68  99 150 186 238 294 358 428
#     4  11  20  42  73 101 136 178 239 294 346 431
#     4  11  24  39  69 102 136 182 229 288 362 418
#     4  12  27  43  69 105 138 187 237 295 362 430
#     4   9  15  35  65  95 124 167 224 280 332 408
#
# _framework density 22.210532000000001
#
# number of rings (size 3 to 8) (size 9 to 14) (size 15 to 20)
#    0.000    1.000    6.000    2.400    8.400    0.800 
#    0.000    0.000    0.000    0.000    0.000    0.000 
#    0.000    0.000    0.000    0.000    0.000    0.000 
#
# Total GULP energy -223171.929686 kJ/mol
# GULP energy per Si atom -5579.298242 kJ/mol
# Density = 2.215998 g / cm^3
# Si number density = 22.210532 Si / 1000 Ang^3
#
#
#
# Elastic Constant Matrix: (Units=GPa)
#
#
# Indices 1 2 3 4 5 6 
#
# 1 64.7927 16.8722 13.1696 0.0000 0.0000 0.0000
# 2 16.8722 64.7927 13.1696 0.0000 0.0000 0.0000
# 3 13.1696 13.1696 125.6527 0.0000 0.0000 0.0000
# 4 0.0000 0.0000 0.0000 34.3260 0.0000 0.0000
# 5 0.0000 0.0000 0.0000 0.0000 34.3260 0.0000
# 6 0.0000 0.0000 0.0000 0.0000 0.0000 26.8587
#
#
#
# Elastic Compliance Matrix: (Units=1/GPa)
#
#
# Indices 1 2 3 4 5 6 
#
# 1 0.016771 -0.004097 -0.001328 0.000000 0.000000 0.000000
# 2 -0.004097 0.016771 -0.001328 0.000000 0.000000 0.000000
# 3 -0.001328 -0.001328 0.008237 0.000000 0.000000 0.000000
# 4 0.000000 0.000000 0.000000 0.029132 0.000000 0.000000
# 5 0.000000 0.000000 0.000000 0.000000 0.029132 0.000000
# 6 0.000000 0.000000 0.000000 0.000000 0.000000 0.037232
#
#
# Mechanical properties :
#
#
# Convention : Reuss Voigt Hill
#
# Bulk Modulus (GPa) = 35.37219 37.96232 36.66725
# Shear Modulus (GPa) = 31.20976 33.23725 32.22351
#
# Velocity S-wave (km/s) = 3.75264 3.87261 3.81310
# Velocity P-wave (km/s) = 5.89380 6.09305 5.99425
#
# Compressibility (1/GPa) = 0.02827080
#
# Stress axis : x y z
#
# Youngs Moduli (GPa) = 59.62771 59.62771 121.40518
#
# Poissons Ratio (x) = 0.24430 0.16126
# Poissons Ratio (y) = 0.24430 0.16126
# Poissons Ratio (z) = 0.07920 0.07920
#
# Static dielectric constant tensor:
#      x y z
#    x 1.864090 0.000000 0.000000 
#    y 0.000000 1.864090 0.000000 
#    z 0.000000 0.000000 1.840250 
# 
# From -- ./inp_files/3371.got.cif
#   From: 2010.05.17/outbox.cif.g08.bks.cpg/sg114_2_cif.got.tgz:3371.got - 2010.05.20 11:04:54.
