data_PCOD9556983
_publ_section_title
;
Structure prediction by ZEFSAII (Michael W. Deem and Ramdas Pophale) SiO2 
 PCOD9556983
Probable space group: P -4 M 2
;
_chemical_formula_sum "Si O2"
_cell_formula_units_Z 40
_cell_length_a 9.123990
_cell_length_b 9.123990
_cell_length_c 26.752127
_cell_angle_alpha 90.000000
_cell_angle_beta 90.000000
_cell_angle_gamma 90.000000
_cell_volume 2227.039493
_symmetry_space_group_name_H-M "P -4 M 2"
_symmetry_group_IT_number 115
_symmetry_cell_setting 'tetragonal'
loop_
_space_group_symop_operation_xyz
x,y,z
y,-x,-z
-x,-y,z
-y,x,-z
y,x,-z
-y,-x,-z
-x,y,z
x,-y,z
loop_
_atom_site_type_symbol
_atom_site_label
_atom_site_fract_x
_atom_site_fract_y
_atom_site_fract_z
Si Si1 0.178813 0.669941 0.156488
Si Si2 0.829351 0.676640 0.046013
Si Si3 0.325431 0.825774 0.452558
Si Si4 0.823984 0.673189 0.358379
Si Si5 0.821490 0.167695 0.256283
O O1 0.221846 0.500000 0.162970
O O2 0.224812 0.722855 0.101345
O O3 0.228314 0.763703 0.203791
O O4 0.000000 0.671848 0.155686
O O5 0.823320 0.500000 0.045649
O O6 0.000000 0.719658 0.041157
O O7 0.740892 0.740892 0.000000
O O8 0.250058 0.749943 0.500000
O O9 0.500000 0.801669 0.454198
O O10 0.257769 0.757053 0.402518
O O11 0.298522 0.000000 0.453792
O O12 0.795039 0.500000 0.360916
O O13 0.779680 0.737161 0.304424
O O14 0.000000 0.694233 0.363831
O O15 0.000000 0.168625 0.254970
O O16 0.773776 0.000000 0.261903
#
# Coordination Sequence:
#
# PCOD9556983 Si02
#       5
#     8   8   8   8   8
#     4   8  14  26  43  64  93 127 162 204 254 306
#     4   9  18  31  47  69  97 129 166 208 255 307
#     4  11  24  40  58  81 108 138 173 213 257 304
#     4  10  20  34  54  80 108 139 175 212 252 301
#     4   9  16  26  44  72 103 133 167 209 256 303
#
# _framework density 17.961065000000001
#
# number of rings (size 3 to 8) (size 9 to 14) (size 15 to 20)
#    0.000    2.600    0.000    3.600    0.000    8.800 
#    0.000    2.000    0.000    1.200    0.000    5.600 
#    0.000    0.000    0.000    0.000    0.000    0.000 
#
# Total GULP energy -223106.316271 kJ/mol
# GULP energy per Si atom -5577.657907 kJ/mol
# Density = 1.792018 g / cm^3
# Si number density = 17.961065 Si / 1000 Ang^3
#
#
#
# Elastic Constant Matrix: (Units=GPa)
#
#
# Indices 1 2 3 4 5 6 
#
# 1 62.3585 51.5957 71.2103 0.0000 0.0000 0.0000
# 2 51.5957 62.3599 71.2106 0.0000 0.0000 0.0000
# 3 71.2103 71.2106 196.9196 0.0000 0.0000 0.0000
# 4 0.0000 0.0000 0.0000 172.5422 0.0000 0.0000
# 5 0.0000 0.0000 0.0000 0.0000 172.5107 0.0000
# 6 0.0000 0.0000 0.0000 0.0000 0.0000 20.0135
#
#
#
# Elastic Compliance Matrix: (Units=1/GPa)
#
#
# Indices 1 2 3 4 5 6 
#
# 1 0.054460 -0.038447 -0.005791 0.000000 0.000000 0.000000
# 2 -0.038447 0.054459 -0.005790 0.000000 0.000000 0.000000
# 3 -0.005791 -0.005790 0.009266 0.000000 0.000000 0.000000
# 4 0.000000 0.000000 0.000000 0.005796 0.000000 0.000000
# 5 0.000000 0.000000 0.000000 0.000000 0.005797 0.000000
# 6 0.000000 0.000000 0.000000 0.000000 0.000000 0.049966
#
#
# Mechanical properties :
#
#
# Convention : Reuss Voigt Hill
#
# Bulk Modulus (GPa) = 55.16024 78.85235 67.00629
# Shear Modulus (GPa) = 17.49214 81.52139 49.50676
#
# Velocity S-wave (km/s) = 3.12411 6.74436 5.25578
# Velocity P-wave (km/s) = 6.61748 10.22964 8.61501
#
# Compressibility (1/GPa) = 0.01812900
#
# Stress axis : x y z
#
# Youngs Moduli (GPa) = 18.36200 18.36254 107.92084
#
# Poissons Ratio (x) = 0.70599 0.62492
# Poissons Ratio (y) = 0.70597 0.62488
# Poissons Ratio (z) = 0.10633 0.10632
#
# Static dielectric constant tensor:
#      x y z
#    x 1.596150 0.000000 0.000000 
#    y 0.000000 1.596150 0.000000 
#    z 0.000000 0.000000 1.607850 
# 
# From -- ./inp_files/5120.got.cif
#   From: 2010.05.17/outbox.cif.g08.bks.cpg/sg115_3_cif.got.tgz:5120.got - 2010.05.20 11:07:42.
