data_PCOD9556882
_publ_section_title
;
Structure prediction by ZEFSAII (Michael W. Deem and Ramdas Pophale) SiO2 
 PCOD9556882
Probable space group: P -4 M 2
;
_chemical_formula_sum "Si O2"
_cell_formula_units_Z 44
_cell_length_a 9.039059
_cell_length_b 9.039059
_cell_length_c 29.863563
_cell_angle_alpha 90.000000
_cell_angle_beta 90.000000
_cell_angle_gamma 90.000000
_cell_volume 2439.990099
_symmetry_space_group_name_H-M "P -4 M 2"
_symmetry_group_IT_number 115
_symmetry_cell_setting 'tetragonal'
loop_
_space_group_symop_operation_xyz
x,y,z
y,-x,-z
-x,-y,z
-y,x,-z
y,x,-z
-y,-x,-z
-x,y,z
x,-y,z
loop_
_atom_site_type_symbol
_atom_site_label
_atom_site_fract_x
_atom_site_fract_y
_atom_site_fract_z
Si Si1 0.324152 0.675849 0.500000
Si Si2 0.674196 0.677649 0.671452
Si Si3 0.672434 0.819644 0.139542
Si Si4 0.826785 0.678487 0.957833
Si Si5 0.175452 0.824213 0.586087
Si Si6 0.172007 0.319486 0.763129
O O1 0.500000 0.701526 0.499367
O O2 0.254463 0.748399 0.544034
O O3 0.500000 0.706724 0.667564
O O4 0.696631 0.500000 0.667663
O O5 0.760849 0.757242 0.631815
O O6 0.733838 0.724833 0.720188
O O7 0.500000 0.774137 0.139485
O O8 0.734698 0.773539 0.091233
O O9 0.735444 0.775049 0.187924
O O10 0.673745 0.000000 0.139609
O O11 0.817264 0.500000 0.957122
O O12 0.000000 0.717317 0.962246
O O13 0.740349 0.740349 0.000000
O O14 0.000000 0.797437 0.583531
O O15 0.200888 0.000000 0.584751
O O16 0.175148 0.500000 0.765135
O O17 0.000000 0.277459 0.756900
#
# Coordination Sequence:
#
# PCOD9556882 Si02
#       6
#     4   8   8   8   8   8
#     4  11  24  41  62  88 114 139 170 209 254 302
#     4  10  20  33  51  78 109 137 167 205 251 302
#     4   7  11  22  41  64  89 119 157 200 245 293
#     4   9  17  29  45  66  93 124 159 201 247 296
#     4  11  24  40  58  81 108 140 179 216 249 291
#     4   8  13  24  45  70  94 123 161 205 251 296
#
# _framework density 18.032861
#
# number of rings (size 3 to 8) (size 9 to 14) (size 15 to 20)
#    0.000    2.818    0.000    4.364    0.000    6.909 
#    0.000    0.909    0.000    4.364    0.000    2.545 
#    0.000    0.000    0.000    0.000    0.000    0.000 
#
# Total GULP energy -245175.330054 kJ/mol
# GULP energy per Si atom -5572.166592 kJ/mol
# Density = 1.799182 g / cm^3
# Si number density = 18.032861 Si / 1000 Ang^3
#
#
#
# Elastic Constant Matrix: (Units=GPa)
#
#
# Indices 1 2 3 4 5 6 
#
# 1 45.6709 49.9235 61.8456 0.0000 0.0000 0.0000
# 2 49.9235 45.6707 61.8457 0.0000 0.0000 0.0000
# 3 61.8456 61.8457 204.4375 0.0000 0.0000 0.0000
# 4 0.0000 0.0000 0.0000 35.3005 0.0000 0.0000
# 5 0.0000 0.0000 0.0000 0.0000 35.2996 0.0000
# 6 0.0000 0.0000 0.0000 0.0000 0.0000 20.0497
#
#
#
# Elastic Compliance Matrix: (Units=1/GPa)
#
#
# Indices 1 2 3 4 5 6 
#
# 1 -0.108978 0.126168 -0.005200 0.000000 0.000000 0.000000
# 2 0.126168 -0.108979 -0.005200 0.000000 0.000000 0.000000
# 3 -0.005200 -0.005200 0.008038 0.000000 0.000000 0.000000
# 4 0.000000 0.000000 0.000000 0.028328 0.000000 0.000000
# 5 0.000000 0.000000 0.000000 0.000000 0.028329 0.000000
# 6 0.000000 0.000000 0.000000 0.000000 0.000000 0.049876
#
#
# Mechanical properties :
#
#
# Convention : Reuss Voigt Hill
#
# Bulk Modulus (GPa) = 46.26179 71.44543 58.85361
# Shear Modulus (GPa) = -15.25710 26.27424 5.50857
#
# Velocity S-wave (km/s) = -2.91189 3.82123 1.74968
# Velocity P-wave (km/s) = 3.79531 7.69251 6.06544
#
# Compressibility (1/GPa) = 0.02161611
#
# Stress axis : x y z
#
# Youngs Moduli (GPa) = -9.17617 -9.17607 124.41412
#
# Poissons Ratio (x) = 1.15773 0.64699
# Poissons Ratio (y) = 1.15774 0.64693
# Poissons Ratio (z) = -0.04772 -0.04771
#
# Static dielectric constant tensor:
#      x y z
#    x 1.604950 0.000000 0.000000 
#    y 0.000000 1.604960 0.000000 
#    z 0.000000 0.000000 1.642780 
# 
# From -- ./inp_files/5804.got.cif
#   From: 2010.05.17/outbox.cif.g08.bks.cpg/sg115_3_cif.got.tgz:5804.got - 2010.05.20 11:07:42.
