data_PCOD9556946
_publ_section_title
;
Structure prediction by ZEFSAII (Michael W. Deem and Ramdas Pophale) SiO2 
 PCOD9556946
Probable space group: P -4 M 2
;
_chemical_formula_sum "Si O2"
_cell_formula_units_Z 48
_cell_length_a 9.051108
_cell_length_b 9.051108
_cell_length_c 32.054566
_cell_angle_alpha 90.000000
_cell_angle_beta 90.000000
_cell_angle_gamma 90.000000
_cell_volume 2625.991979
_symmetry_space_group_name_H-M "P -4 M 2"
_symmetry_group_IT_number 115
_symmetry_cell_setting 'tetragonal'
loop_
_space_group_symop_operation_xyz
x,y,z
y,-x,-z
-x,-y,z
-y,x,-z
y,x,-z
-y,-x,-z
-x,y,z
x,-y,z
loop_
_atom_site_type_symbol
_atom_site_label
_atom_site_fract_x
_atom_site_fract_y
_atom_site_fract_z
Si Si1 0.175800 0.675532 0.620454
Si Si2 0.322545 0.825552 0.700024
Si Si3 0.319725 0.671314 0.954188
Si Si4 0.324063 0.824020 0.540215
Si Si5 0.319577 0.169777 0.869945
Si Si6 0.320023 0.669231 0.785738
O O1 0.202633 0.500000 0.618389
O O2 0.241109 0.740490 0.663120
O O3 0.254066 0.754832 0.581686
O O4 0.000000 0.700457 0.618473
O O5 0.500000 0.804151 0.695742
O O6 0.277311 0.762904 0.745204
O O7 0.293301 0.000000 0.697469
O O8 0.500000 0.673717 0.955165
O O9 0.276174 0.500000 0.949363
O O10 0.270762 0.761954 0.913947
O O11 0.272936 0.727065 0.000000
O O12 0.250247 0.749754 0.500000
O O13 0.500000 0.798430 0.539736
O O14 0.298867 0.000000 0.539488
O O15 0.500000 0.174362 0.870188
O O16 0.270515 0.260965 0.829469
O O17 0.275314 0.000000 0.866092
O O18 0.500000 0.669906 0.786653
O O19 0.271837 0.500000 0.781688
#
# Coordination Sequence:
#
# PCOD9556946 Si02
#       6
#     8   8   8   8   8   8
#     4  11  24  40  58  82 111 144 184 226 267 315
#     4  10  20  34  53  78 107 139 177 220 266 317
#     4   8  13  21  33  50  75 109 147 185 229 286
#     4  11  24  41  62  89 118 148 184 224 267 317
#     4   9  15  22  34  56  87 119 151 193 245 296
#     4   9  16  26  42  65  95 131 167 204 251 306
#
# _framework density 18.278804999999998
#
# number of rings (size 3 to 8) (size 9 to 14) (size 15 to 20)
#    0.000    2.333    0.000    4.000    0.000   11.667 
#    0.000    0.000    0.000    0.000    0.000    1.167 
#    0.000    7.000    0.000    0.000    0.000    0.000 
#
# Total GULP energy -267892.838330 kJ/mol
# GULP energy per Si atom -5581.100799 kJ/mol
# Density = 1.823720 g / cm^3
# Si number density = 18.278805 Si / 1000 Ang^3
#
#
#
# Elastic Constant Matrix: (Units=GPa)
#
#
# Indices 1 2 3 4 5 6 
#
# 1 78.0160 61.9465 70.2483 0.0000 0.0000 0.0000
# 2 61.9465 78.0165 70.2484 0.0000 0.0000 0.0000
# 3 70.2483 70.2484 186.7073 0.0000 0.0000 0.0000
# 4 0.0000 0.0000 0.0000 -33.7525 0.0000 0.0000
# 5 0.0000 0.0000 0.0000 0.0000 -33.7500 0.0000
# 6 0.0000 0.0000 0.0000 0.0000 0.0000 16.5732
#
#
#
# Elastic Compliance Matrix: (Units=1/GPa)
#
#
# Indices 1 2 3 4 5 6 
#
# 1 0.036855 -0.025374 -0.004320 0.000000 0.000000 0.000000
# 2 -0.025374 0.036855 -0.004320 0.000000 0.000000 0.000000
# 3 -0.004320 -0.004320 0.008607 0.000000 0.000000 0.000000
# 4 0.000000 0.000000 0.000000 -0.029627 0.000000 0.000000
# 5 0.000000 0.000000 0.000000 0.000000 -0.029630 0.000000
# 6 0.000000 0.000000 0.000000 0.000000 0.000000 0.060338
#
#
# Mechanical properties :
#
#
# Convention : Reuss Voigt Hill
#
# Bulk Modulus (GPa) = 69.98076 83.06958 76.52517
# Shear Modulus (GPa) = 32.01298 -0.83274 15.59012
#
# Velocity S-wave (km/s) = 4.18948 -0.67570 2.92363
# Velocity P-wave (km/s) = 7.85943 6.70341 7.30433
#
# Compressibility (1/GPa) = 0.01428964
#
# Stress axis : x y z
#
# Youngs Moduli (GPa) = 27.13345 27.13369 116.19101
#
# Poissons Ratio (x) = 0.68848 0.50191
# Poissons Ratio (y) = 0.68848 0.50190
# Poissons Ratio (z) = 0.11721 0.11721
#
# Static dielectric constant tensor:
#      x y z
#    x 1.611360 0.000000 0.000000 
#    y 0.000000 1.611360 0.000000 
#    z 0.000000 0.000000 1.612130 
# 
# From -- ./inp_files/5947.got.cif
#   From: 2010.05.17/outbox.cif.g08.bks.cpg/sg115_3_cif.got.tgz:5947.got - 2010.05.20 11:07:42.
