data_PCOD9556715
_publ_section_title
;
Structure prediction by ZEFSAII (Michael W. Deem and Ramdas Pophale) SiO2 
 PCOD9556715
Probable space group: P -4 M 2
;
_chemical_formula_sum "Si O2"
_cell_formula_units_Z 48
_cell_length_a 9.191271
_cell_length_b 9.191271
_cell_length_c 32.440530
_cell_angle_alpha 90.000000
_cell_angle_beta 90.000000
_cell_angle_gamma 90.000000
_cell_volume 2740.558541
_symmetry_space_group_name_H-M "P -4 M 2"
_symmetry_group_IT_number 115
_symmetry_cell_setting 'tetragonal'
loop_
_space_group_symop_operation_xyz
x,y,z
y,-x,-z
-x,-y,z
-y,x,-z
y,x,-z
-y,-x,-z
-x,y,z
x,-y,z
loop_
_atom_site_type_symbol
_atom_site_label
_atom_site_fract_x
_atom_site_fract_y
_atom_site_fract_z
Si Si1 0.675253 0.170313 0.717279
Si Si2 0.329113 0.674947 0.046627
Si Si3 0.671221 0.322630 0.544324
Si Si4 0.677527 0.669287 0.634115
Si Si5 0.825508 0.829730 0.877961
Si Si6 0.328983 0.174634 0.206519
O O1 0.500000 0.185977 0.719919
O O2 0.722429 0.237486 0.673407
O O3 0.748311 0.254324 0.754905
O O4 0.710451 0.000000 0.719254
O O5 0.500000 0.711787 0.051606
O O6 0.317008 0.500000 0.049455
O O7 0.237359 0.750124 0.082073
O O8 0.284043 0.715958 0.000000
O O9 0.730198 0.269803 0.500000
O O10 0.500000 0.284322 0.544289
O O11 0.677860 0.500000 0.544191
O O12 0.730916 0.277976 0.589031
O O13 0.500000 0.672358 0.632543
O O14 0.718845 0.500000 0.639693
O O15 0.780698 0.745947 0.836406
O O16 0.000000 0.814095 0.882021
O O17 0.791541 0.000000 0.873888
O O18 0.500000 0.207847 0.205314
O O19 0.311805 0.000000 0.210462
#
# Coordination Sequence:
#
# PCOD9556715 Si02
#       6
#     8   8   8   8   8   8
#     4  10  20  32  47  70  99 129 161 198 241 290
#     4   9  19  36  56  78 105 137 172 207 242 282
#     4   7   9  14  27  50  79 109 143 185 232 279
#     4   8  13  22  37  58  86 118 151 191 238 284
#     4  10  21  36  54  77 104 132 163 201 245 293
#     4  10  21  37  56  75  95 125 165 205 247 295
#
# _framework density 17.514679000000001
#
# number of rings (size 3 to 8) (size 9 to 14) (size 15 to 20)
#    0.000    3.000    0.000    3.500    0.000    4.667 
#    0.000    2.500    0.000    0.000    0.000    1.167 
#    0.000    6.667    0.000    0.000    0.000    0.000 
#
# Total GULP energy -267392.790449 kJ/mol
# GULP energy per Si atom -5570.683134 kJ/mol
# Density = 1.747481 g / cm^3
# Si number density = 17.514679 Si / 1000 Ang^3
#
#
#
# Elastic Constant Matrix: (Units=GPa)
#
#
# Indices 1 2 3 4 5 6 
#
# 1 47.7234 37.6453 73.2685 0.0000 0.0000 0.0000
# 2 37.6453 47.7234 73.2684 0.0000 0.0000 0.0000
# 3 73.2685 73.2684 222.2323 0.0000 0.0000 0.0000
# 4 0.0000 0.0000 0.0000 -26.9028 0.0000 0.0000
# 5 0.0000 0.0000 0.0000 0.0000 -26.9030 0.0000
# 6 0.0000 0.0000 0.0000 0.0000 0.0000 20.7957
#
#
#
# Elastic Compliance Matrix: (Units=1/GPa)
#
#
# Indices 1 2 3 4 5 6 
#
# 1 0.063105 -0.036119 -0.008897 0.000000 0.000000 0.000000
# 2 -0.036119 0.063105 -0.008897 0.000000 0.000000 0.000000
# 3 -0.008897 -0.008897 0.010366 0.000000 0.000000 0.000000
# 4 0.000000 0.000000 0.000000 -0.037171 0.000000 0.000000
# 5 0.000000 0.000000 0.000000 0.000000 -0.037171 0.000000
# 6 0.000000 0.000000 0.000000 0.000000 0.000000 0.048087
#
#
# Mechanical properties :
#
#
# Convention : Reuss Voigt Hill
#
# Bulk Modulus (GPa) = 34.78274 76.22706 55.50490
# Shear Modulus (GPa) = 21.95558 2.29779 12.12668
#
# Velocity S-wave (km/s) = 3.54440 1.14663 2.63415
# Velocity P-wave (km/s) = 6.05414 6.73568 6.40398
#
# Compressibility (1/GPa) = 0.02874989
#
# Stress axis : x y z
#
# Youngs Moduli (GPa) = 15.84652 15.84656 96.46556
#
# Poissons Ratio (x) = 0.57237 0.85826
# Poissons Ratio (y) = 0.57237 0.85826
# Poissons Ratio (z) = 0.14099 0.14099
#
# Static dielectric constant tensor:
#      x y z
#    x 1.580770 0.000000 0.000000 
#    y 0.000000 1.580770 0.000000 
#    z 0.000000 0.000000 1.611980 
# 
# From -- ./inp_files/6109.got.cif
#   From: 2010.05.17/outbox.cif.g08.bks.cpg/sg115_4_cif.got.tgz:6109.got - 2010.05.20 11:07:42.
