data_PCOD9556011
_publ_section_title
;
Structure prediction by ZEFSAII (Michael W. Deem and Ramdas Pophale) SiO2 
 PCOD9556011
Probable space group: P -4 21 C
;
_chemical_formula_sum "Si O2"
_cell_formula_units_Z 28
_cell_length_a 8.536632
_cell_length_b 8.536632
_cell_length_c 17.513390
_cell_angle_alpha 90.000000
_cell_angle_beta 90.000000
_cell_angle_gamma 90.000000
_cell_volume 1276.272287
_symmetry_space_group_name_H-M "P -4 21 C"
_symmetry_group_IT_number 114
_symmetry_cell_setting 'tetragonal'
loop_
_space_group_symop_operation_xyz
x,y,z
y,-x,-z
-x,-y,z
-y,x,-z
1/2+x,1/2-y,1/2-z
1/2-x,1/2+y,1/2-z
1/2-y,1/2-x,1/2+z
1/2+y,1/2+x,1/2+z
loop_
_atom_site_type_symbol
_atom_site_label
_atom_site_fract_x
_atom_site_fract_y
_atom_site_fract_z
Si Si1 0.224576 0.457067 0.807417
Si Si2 0.533846 0.793956 0.774521
Si Si3 0.436194 0.252581 0.021061
Si Si4 0.500000 0.000000 0.912446
O O1 0.387679 0.370964 0.791102
O O2 0.178294 0.591967 0.747995
O O3 0.219591 0.534204 0.890312
O O4 0.087975 0.327709 0.793304
O O5 0.455371 0.863429 0.851592
O O6 0.316336 0.393939 0.007254
O O7 0.392905 0.099551 0.971073
#
# Coordination Sequence:
#
# PCOD9556011 Si02
#       4
#     8   8   8   4
#     4  10  22  40  60  94 115 163 201 250 304 354
#     4  10  23  39  66  86 123 156 203 258 296 364
#     4  11  23  38  66  89 122 164 204 245 304 371
#     4  10  20  42  56  92 124 154 200 252 300 354
#
# _framework density 21.938890000000001
#
# number of rings (size 3 to 8) (size 9 to 14) (size 15 to 20)
#    0.000    2.000    2.857    1.714    8.000    1.143 
#    0.000    0.000    0.000    0.857    0.000    0.000 
#    0.000    0.000    0.000    0.000    0.000    0.000 
#
# Total GULP energy -155876.050787 kJ/mol
# GULP energy per Si atom -5567.001814 kJ/mol
# Density = 2.188896 g / cm^3
# Si number density = 21.938890 Si / 1000 Ang^3
#
#
#
# Elastic Constant Matrix: (Units=GPa)
#
#
# Indices 1 2 3 4 5 6 
#
# 1 66.9015 49.8715 29.1461 0.0000 0.0000 0.0000
# 2 49.8715 66.9015 29.1461 0.0000 0.0000 0.0000
# 3 29.1461 29.1461 125.3600 0.0000 0.0000 0.0000
# 4 0.0000 0.0000 0.0000 10.0251 0.0000 0.0000
# 5 0.0000 0.0000 0.0000 0.0000 10.0251 0.0000
# 6 0.0000 0.0000 0.0000 0.0000 0.0000 43.4068
#
#
#
# Elastic Compliance Matrix: (Units=1/GPa)
#
#
# Indices 1 2 3 4 5 6 
#
# 1 0.034204 -0.024516 -0.002252 0.000000 0.000000 0.000000
# 2 -0.024516 0.034204 -0.002252 0.000000 0.000000 0.000000
# 3 -0.002252 -0.002252 0.009024 0.000000 0.000000 0.000000
# 4 0.000000 0.000000 0.000000 0.099749 0.000000 0.000000
# 5 0.000000 0.000000 0.000000 0.000000 0.099749 0.000000
# 6 0.000000 0.000000 0.000000 0.000000 0.000000 0.023038
#
#
# Mechanical properties :
#
#
# Convention : Reuss Voigt Hill
#
# Bulk Modulus (GPa) = 51.57124 52.83224 52.20174
# Shear Modulus (GPa) = 13.71840 22.75805 18.23823
#
# Velocity S-wave (km/s) = 2.50331 3.22427 2.88639
# Velocity P-wave (km/s) = 5.64918 6.16401 5.91220
#
# Compressibility (1/GPa) = 0.01939065
#
# Stress axis : x y z
#
# Youngs Moduli (GPa) = 29.23634 29.23634 110.81049
#
# Poissons Ratio (x) = 0.71676 0.24960
# Poissons Ratio (y) = 0.71676 0.24960
# Poissons Ratio (z) = 0.06585 0.06585
#
# Static dielectric constant tensor:
#      x y z
#    x 1.870540 0.000000 0.000000 
#    y 0.000000 1.870540 0.000000 
#    z 0.000000 0.000000 1.809500 
# 
# From -- ./inp_files/2424.got.cif
#   From: 2010.05.17/outbox.cif.g08.bks.cpg/sg114_2_cif.got.tgz:2424.got - 2010.05.20 11:04:54.
