data_PCOD9556174
_publ_section_title
;
Structure prediction by ZEFSAII (Michael W. Deem and Ramdas Pophale) SiO2 
 PCOD9556174
Probable space group: P -4 21 C
;
_chemical_formula_sum "Si O2"
_cell_formula_units_Z 40
_cell_length_a 8.774427
_cell_length_b 8.774427
_cell_length_c 24.096756
_cell_angle_alpha 90.000000
_cell_angle_beta 90.000000
_cell_angle_gamma 90.000000
_cell_volume 1855.222960
_symmetry_space_group_name_H-M "P -4 21 C"
_symmetry_group_IT_number 114
_symmetry_cell_setting 'tetragonal'
loop_
_space_group_symop_operation_xyz
x,y,z
y,-x,-z
-x,-y,z
-y,x,-z
1/2+x,1/2-y,1/2-z
1/2-x,1/2+y,1/2-z
1/2-y,1/2-x,1/2+z
1/2+y,1/2+x,1/2+z
loop_
_atom_site_type_symbol
_atom_site_label
_atom_site_fract_x
_atom_site_fract_y
_atom_site_fract_z
Si Si1 0.793885 0.849521 0.509109
Si Si2 0.589373 0.737993 0.729578
Si Si3 0.860953 0.895369 0.924542
Si Si4 0.273765 0.571476 0.696944
Si Si5 0.094993 0.646604 0.886762
O O1 0.679269 0.753633 0.469070
O O2 0.733980 0.829408 0.571637
O O3 0.968654 0.793746 0.503230
O O4 0.419886 0.672581 0.718171
O O5 0.697901 0.590094 0.726107
O O6 0.625474 0.835466 0.784055
O O7 0.634866 0.845822 0.677703
O O8 0.778263 0.960486 0.869401
O O9 0.964865 0.768269 0.896958
O O10 0.000000 0.000000 0.945505
O O11 0.000000 0.500000 0.902763
#
# Coordination Sequence:
#
# PCOD9556174 Si02
#       5
#     8   8   8   8   8
#     4  11  26  44  67 102 141 176 226 285 350 408
#     4  10  23  40  64  93 131 168 223 271 329 402
#     4  11  23  44  68  96 137 179 231 281 332 417
#     4  10  22  42  62  97 128 172 219 275 336 396
#     4  11  23  42  65  96 131 180 223 270 344 405
#
# _framework density 21.560751
#
# number of rings (size 3 to 8) (size 9 to 14) (size 15 to 20)
#    0.000    1.400    6.000    0.000    8.400    1.600 
#    0.000    4.000    0.000    0.000    0.000    0.000 
#    0.000    0.000    0.000    0.000    0.000    0.000 
#
# Total GULP energy -222974.977190 kJ/mol
# GULP energy per Si atom -5574.374430 kJ/mol
# Density = 2.151168 g / cm^3
# Si number density = 21.560751 Si / 1000 Ang^3
#
#
#
# Elastic Constant Matrix: (Units=GPa)
#
#
# Indices 1 2 3 4 5 6 
#
# 1 31.9237 21.2194 20.1386 0.0000 0.0000 0.0000
# 2 21.2194 31.9237 20.1386 0.0000 0.0000 0.0000
# 3 20.1386 20.1386 101.2982 0.0000 0.0000 0.0000
# 4 0.0000 0.0000 0.0000 21.6378 0.0000 0.0000
# 5 0.0000 0.0000 0.0000 0.0000 21.6378 0.0000
# 6 0.0000 0.0000 0.0000 0.0000 0.0000 42.3885
#
#
#
# Elastic Compliance Matrix: (Units=1/GPa)
#
#
# Indices 1 2 3 4 5 6 
#
# 1 0.057788 -0.035633 -0.004405 0.000000 0.000000 0.000000
# 2 -0.035633 0.057788 -0.004405 0.000000 0.000000 0.000000
# 3 -0.004405 -0.004405 0.011623 0.000000 0.000000 0.000000
# 4 0.000000 0.000000 0.000000 0.046215 0.000000 0.000000
# 5 0.000000 0.000000 0.000000 0.000000 0.046215 0.000000
# 6 0.000000 0.000000 0.000000 0.000000 0.000000 0.023591
#
#
# Mechanical properties :
#
#
# Convention : Reuss Voigt Hill
#
# Bulk Modulus (GPa) = 26.09911 32.01541 29.05726
# Shear Modulus (GPa) = 14.49792 24.04274 19.27033
#
# Velocity S-wave (km/s) = 2.59592 3.34296 2.99284
# Velocity P-wave (km/s) = 4.59525 5.45726 5.04470
#
# Compressibility (1/GPa) = 0.03831549
#
# Stress axis : x y z
#
# Youngs Moduli (GPa) = 17.30463 17.30463 86.03523
#
# Poissons Ratio (x) = 0.61661 0.37895
# Poissons Ratio (y) = 0.61661 0.37895
# Poissons Ratio (z) = 0.07622 0.07622
#
# Static dielectric constant tensor:
#      x y z
#    x 1.799550 0.000000 0.000000 
#    y 0.000000 1.799550 0.000000 
#    z 0.000000 0.000000 1.796070 
# 
# From -- ./inp_files/3354.got.cif
#   From: 2010.05.17/outbox.cif.g08.bks.cpg/sg114_2_cif.got.tgz:3354.got - 2010.05.20 11:04:54.
