data_PCOD9556588
_publ_section_title
;
Structure prediction by ZEFSAII (Michael W. Deem and Ramdas Pophale) SiO2 
 PCOD9556588
Probable space group: P -4 M 2
;
_chemical_formula_sum "Si O2"
_cell_formula_units_Z 37
_cell_length_a 7.936552
_cell_length_b 7.936552
_cell_length_c 27.822346
_cell_angle_alpha 90.000000
_cell_angle_beta 90.000000
_cell_angle_gamma 90.000000
_cell_volume 1752.497792
_symmetry_space_group_name_H-M "P -4 M 2"
_symmetry_group_IT_number 115
_symmetry_cell_setting 'tetragonal'
loop_
_space_group_symop_operation_xyz
x,y,z
y,-x,-z
-x,-y,z
-y,x,-z
y,x,-z
-y,-x,-z
-x,y,z
x,-y,z
loop_
_atom_site_type_symbol
_atom_site_label
_atom_site_fract_x
_atom_site_fract_y
_atom_site_fract_z
Si Si1 0.299521 0.194270 0.153753
Si Si2 0.000000 0.292442 0.422504
Si Si3 0.300651 0.680620 0.640849
Si Si4 0.198041 0.198732 0.743320
Si Si5 0.000000 0.000000 0.500000
Si Si6 0.195546 0.796726 0.948580
O O1 0.500000 0.187186 0.155898
O O2 0.237871 0.270772 0.203912
O O3 0.250948 0.273829 0.102579
O O4 0.231038 0.000000 0.152880
O O5 0.162327 0.242955 0.390527
O O6 0.000000 0.500000 0.430386
O O7 0.000000 0.171991 0.468597
O O8 0.500000 0.674042 0.632703
O O9 0.225058 0.500000 0.627298
O O10 0.274556 0.710608 0.697469
O O11 0.000000 0.246092 0.744767
O O12 0.211779 0.000000 0.735012
O O13 0.000000 0.736891 0.946590
O O14 0.193446 0.000000 0.951237
O O15 0.265270 0.734731 0.000000
#
# Coordination Sequence:
#
# PCOD9556588 Si02
#       6
#     8   4   8   8   1   8
#     4   9  16  25  38  63  98 131 167 219 282 345
#     4  10  24  46  66  96 136 168 210 265 307 354
#     4  10  21  38  61  87 120 163 203 244 302 363
#     4  10  19  30  50  80 114 147 187 237 291 353
#     4  12  28  44  76 104 132 172 228 256 306 368
#     4   8  13  22  37  55  77 112 161 214 271 336
#
# _framework density 21.112719999999999
#
# number of rings (size 3 to 8) (size 9 to 14) (size 15 to 20)
#    0.000    2.595    1.081    1.946    1.514    4.757 
#    0.000    0.000    0.000    1.297    0.000    3.027 
#    0.000    0.000    0.000    0.000    0.000    0.000 
#
# Total GULP energy -206236.977939 kJ/mol
# GULP energy per Si atom -5573.972377 kJ/mol
# Density = 2.106467 g / cm^3
# Si number density = 21.112720 Si / 1000 Ang^3
#
#
#
# Elastic Constant Matrix: (Units=GPa)
#
#
# Indices 1 2 3 4 5 6 
#
# 1 49.3714 27.1276 46.5047 0.0000 0.0000 0.0000
# 2 27.1276 49.3714 46.5047 0.0000 0.0000 0.0000
# 3 46.5047 46.5047 153.3123 0.0000 0.0000 0.0000
# 4 0.0000 0.0000 0.0000 -61.2810 0.0000 0.0000
# 5 0.0000 0.0000 0.0000 0.0000 -61.2807 0.0000
# 6 0.0000 0.0000 0.0000 0.0000 0.0000 0.2085
#
#
#
# Elastic Compliance Matrix: (Units=1/GPa)
#
#
# Indices 1 2 3 4 5 6 
#
# 1 0.032833 -0.012123 -0.006282 0.000000 0.000000 0.000000
# 2 -0.012123 0.032833 -0.006282 0.000000 0.000000 0.000000
# 3 -0.006282 -0.006282 0.010334 0.000000 0.000000 0.000000
# 4 0.000000 0.000000 0.000000 -0.016318 0.000000 0.000000
# 5 0.000000 0.000000 0.000000 0.000000 -0.016318 0.000000
# 6 0.000000 0.000000 0.000000 0.000000 0.000000 4.796132
#
#
# Mechanical properties :
#
#
# Convention : Reuss Voigt Hill
#
# Bulk Modulus (GPa) = 37.55799 54.70322 46.13061
# Shear Modulus (GPa) = 1.02088 -15.67610 -7.32761
#
# Velocity S-wave (km/s) = 0.69612 -2.72783 -1.86501
# Velocity P-wave (km/s) = 4.29814 4.00561 4.15445
#
# Compressibility (1/GPa) = 0.02662550
#
# Stress axis : x y z
#
# Youngs Moduli (GPa) = 30.45710 30.45712 96.77075
#
# Poissons Ratio (x) = 0.36924 0.60791
# Poissons Ratio (y) = 0.36924 0.60791
# Poissons Ratio (z) = 0.19133 0.19133
#
# Static dielectric constant tensor:
#      x y z
#    x 1.801150 0.000000 0.000000 
#    y 0.000000 1.801150 0.000000 
#    z 0.000000 0.000000 1.788990 
# 
# From -- ./inp_files/5158.got.cif
#   From: 2010.05.17/outbox.cif.g08.bks.cpg/sg115_3_cif.got.tgz:5158.got - 2010.05.20 11:07:42.
