data_PCOD9556408
_publ_section_title
;
Structure prediction by ZEFSAII (Michael W. Deem and Ramdas Pophale) SiO2 
 PCOD9556408
Probable space group: P -4 21 C
;
_chemical_formula_sum "Si O2"
_cell_formula_units_Z 64
_cell_length_a 11.565482
_cell_length_b 11.565482
_cell_length_c 21.736215
_cell_angle_alpha 90.000000
_cell_angle_beta 90.000000
_cell_angle_gamma 90.000000
_cell_volume 2907.444245
_symmetry_space_group_name_H-M "P -4 21 C"
_symmetry_group_IT_number 114
_symmetry_cell_setting 'tetragonal'
loop_
_space_group_symop_operation_xyz
x,y,z
y,-x,-z
-x,-y,z
-y,x,-z
1/2+x,1/2-y,1/2-z
1/2-x,1/2+y,1/2-z
1/2-y,1/2-x,1/2+z
1/2+y,1/2+x,1/2+z
loop_
_atom_site_type_symbol
_atom_site_label
_atom_site_fract_x
_atom_site_fract_y
_atom_site_fract_z
Si Si1 0.022884 0.280787 0.362585
Si Si2 0.682515 0.548234 0.991031
Si Si3 0.815553 0.586574 0.665115
Si Si4 0.598146 0.079694 0.963303
Si Si5 0.130663 0.048703 0.754170
Si Si6 0.810211 0.569744 0.277495
Si Si7 0.331041 0.481113 0.474388
Si Si8 0.129624 0.726812 0.864586
O O1 0.078361 0.224929 0.422686
O O2 0.112867 0.366648 0.329468
O O3 0.984352 0.185389 0.312051
O O4 0.904693 0.344155 0.383811
O O5 0.789497 0.555120 0.036985
O O6 0.631740 0.419706 0.988705
O O7 0.870129 0.534727 0.604137
O O8 0.717461 0.509191 0.697026
O O9 0.912232 0.619341 0.714944
O O10 0.746736 0.702248 0.644644
O O11 0.500000 0.000000 0.991687
O O12 0.713774 0.074120 0.002514
O O13 0.126832 0.185373 0.766566
O O14 0.000000 0.000000 0.759340
O O15 0.786527 0.440577 0.300851
O O16 0.382190 0.571178 0.525260
O O17 0.299679 0.550991 0.412637
#
# Coordination Sequence:
#
# PCOD9556408 Si02
#       8
#     8   8   8   8   8   8   8   8
#     4  11  25  45  70 102 142 187 243 298 361 435
#     4  11  27  48  73 104 142 195 244 291 355 434
#     4  11  25  44  65 107 141 184 233 304 356 429
#     4  12  27  45  73 106 147 185 236 305 361 424
#     4  11  24  41  71 102 139 186 242 296 368 437
#     4  11  25  43  71 103 136 191 234 291 366 428
#     4  11  26  44  75 110 145 194 245 295 369 435
#     4  12  22  45  72  96 149 183 241 296 359 439
#
# _framework density 22.012459
#
# number of rings (size 3 to 8) (size 9 to 14) (size 15 to 20)
#    0.000    0.750    3.750    2.625    5.250    3.000 
#    0.000    0.000    0.000    0.000    0.000    0.000 
#    0.000    0.000    0.000    0.000    0.000    0.000 
#
# Total GULP energy -358105.179836 kJ/mol
# GULP energy per Si atom -5595.393435 kJ/mol
# Density = 2.196236 g / cm^3
# Si number density = 22.012459 Si / 1000 Ang^3
#
#
#
# Elastic Constant Matrix: (Units=GPa)
#
#
# Indices 1 2 3 4 5 6 
#
# 1 74.8716 20.9082 -7.6665 0.0000 0.0000 0.0000
# 2 20.9082 74.8716 -7.6665 0.0000 0.0000 0.0000
# 3 -7.6665 -7.6665 58.1473 0.0000 0.0000 0.0000
# 4 0.0000 0.0000 0.0000 24.4002 0.0000 0.0000
# 5 0.0000 0.0000 0.0000 0.0000 24.4002 0.0000
# 6 0.0000 0.0000 0.0000 0.0000 0.0000 21.9878
#
#
#
# Elastic Compliance Matrix: (Units=1/GPa)
#
#
# Indices 1 2 3 4 5 6 
#
# 1 0.014598 -0.003933 0.001406 0.000000 0.000000 0.000000
# 2 -0.003933 0.014598 0.001406 0.000000 0.000000 0.000000
# 3 0.001406 0.001406 0.017569 0.000000 0.000000 0.000000
# 4 0.000000 0.000000 0.000000 0.040983 0.000000 0.000000
# 5 0.000000 0.000000 0.000000 0.000000 0.040983 0.000000
# 6 0.000000 0.000000 0.000000 0.000000 0.000000 0.045480
#
#
# Mechanical properties :
#
#
# Convention : Reuss Voigt Hill
#
# Bulk Modulus (GPa) = 22.45930 24.33784 23.39857
# Shear Modulus (GPa) = 26.13785 27.64535 26.89160
#
# Velocity S-wave (km/s) = 3.44962 3.54771 3.49901
# Velocity P-wave (km/s) = 5.10800 5.27845 5.19392
#
# Compressibility (1/GPa) = 0.04452499
#
# Stress axis : x y z
#
# Youngs Moduli (GPa) = 68.50062 68.50062 56.92000
#
# Poissons Ratio (x) = 0.26939 -0.08004
# Poissons Ratio (y) = 0.26939 -0.08004
# Poissons Ratio (z) = -0.09633 -0.09633
#
# Static dielectric constant tensor:
#      x y z
#    x 1.780100 0.000000 0.000000 
#    y 0.000000 1.780100 0.000000 
#    z 0.000000 0.000000 1.809000 
# 
# From -- ./inp_files/3563.got.cif
#   From: 2010.05.17/outbox.cif.g08.bks.cpg/sg114_2_cif.got.tgz:3563.got - 2010.05.20 11:04:54.
