data_PCOD9556977
_publ_section_title
;
Structure prediction by ZEFSAII (Michael W. Deem and Ramdas Pophale) SiO2 
 PCOD9556977
Probable space group: P -4 M 2
;
_chemical_formula_sum "Si O2"
_cell_formula_units_Z 32
_cell_length_a 7.616988
_cell_length_b 7.616988
_cell_length_c 25.714306
_cell_angle_alpha 90.000000
_cell_angle_beta 90.000000
_cell_angle_gamma 90.000000
_cell_volume 1491.905622
_symmetry_space_group_name_H-M "P -4 M 2"
_symmetry_group_IT_number 115
_symmetry_cell_setting 'tetragonal'
loop_
_space_group_symop_operation_xyz
x,y,z
y,-x,-z
-x,-y,z
-y,x,-z
y,x,-z
-y,-x,-z
-x,y,z
x,-y,z
loop_
_atom_site_type_symbol
_atom_site_label
_atom_site_fract_x
_atom_site_fract_y
_atom_site_fract_z
Si Si1 0.285463 0.299540 0.057930
Si Si2 0.000000 0.288862 0.865229
Si Si3 0.699370 0.209433 0.669226
Si Si4 0.000000 0.789379 0.743856
Si Si5 0.711883 0.703548 0.444504
O O1 0.500000 0.301839 0.057489
O O2 0.226925 0.500000 0.065368
O O3 0.225881 0.170542 0.103205
O O4 0.236357 0.236357 0.000000
O O5 0.000000 0.500000 0.869073
O O6 0.000000 0.245381 0.804808
O O7 0.500000 0.281583 0.671530
O O8 0.828055 0.278495 0.713662
O O9 0.777899 0.240266 0.611554
O O10 0.686238 0.000000 0.675451
O O11 0.000000 0.000000 0.737286
O O12 0.776597 0.776597 0.500000
O O13 0.500000 0.704015 0.447851
O O14 0.771979 0.500000 0.441920
#
# Coordination Sequence:
#
# PCOD9556977 Si02
#       5
#     8   4   8   4   8
#     4   8  15  31  54  78 108 141 168 208 267 316
#     4  10  20  34  54  80 106 134 176 221 256 306
#     4   9  18  34  53  68  93 137 176 209 259 317
#     4  10  22  38  50  68 106 138 172 217 258 300
#     4   8  14  27  48  73  99 123 155 208 265 311
#
# _framework density 21.449076000000002
#
# number of rings (size 3 to 8) (size 9 to 14) (size 15 to 20)
#    0.000    3.250    0.000    1.500    0.000    2.000 
#    4.500    0.000    0.000    0.000    0.000    0.000 
#    0.000    0.000    0.000    0.000    0.000    0.000 
#
# Total GULP energy -178447.624374 kJ/mol
# GULP energy per Si atom -5576.488262 kJ/mol
# Density = 2.140026 g / cm^3
# Si number density = 21.449076 Si / 1000 Ang^3
#
#
#
# Elastic Constant Matrix: (Units=GPa)
#
#
# Indices 1 2 3 4 5 6 
#
# 1 68.1575 19.0273 54.8458 0.0000 0.0000 0.0000
# 2 19.0273 68.1575 54.8458 0.0000 0.0000 0.0000
# 3 54.8458 54.8458 238.3794 0.0000 0.0000 0.0000
# 4 0.0000 0.0000 0.0000 36.1513 0.0000 0.0000
# 5 0.0000 0.0000 0.0000 0.0000 36.1513 0.0000
# 6 0.0000 0.0000 0.0000 0.0000 0.0000 -0.0645
#
#
#
# Elastic Compliance Matrix: (Units=1/GPa)
#
#
# Indices 1 2 3 4 5 6 
#
# 1 0.018248 -0.002106 -0.003714 0.000000 0.000000 0.000000
# 2 -0.002106 0.018248 -0.003714 0.000000 0.000000 0.000000
# 3 -0.003714 -0.003714 0.005904 0.000000 0.000000 0.000000
# 4 0.000000 0.000000 0.000000 0.027662 0.000000 0.000000
# 5 0.000000 0.000000 0.000000 0.000000 0.027662 0.000000
# 6 0.000000 0.000000 0.000000 0.000000 0.000000-15.503956
#
#
# Mechanical properties :
#
#
# Convention : Reuss Voigt Hill
#
# Bulk Modulus (GPa) = 42.85731 70.23690 56.54711
# Shear Modulus (GPa) = -0.32511 30.84596 15.26043
#
# Velocity S-wave (km/s) = -0.38975 3.79635 2.67024
# Velocity P-wave (km/s) = 4.45217 7.21341 5.99396
#
# Compressibility (1/GPa) = 0.02333324
#
# Stress axis : x y z
#
# Youngs Moduli (GPa) = 54.79919 54.79919 169.37509
#
# Poissons Ratio (x) = 0.11539 0.62908
# Poissons Ratio (y) = 0.11539 0.62908
# Poissons Ratio (z) = 0.20353 0.20353
#
# Static dielectric constant tensor:
#      x y z
#    x 1.802040 0.000000 0.000000 
#    y 0.000000 1.802040 0.000000 
#    z 0.000000 0.000000 1.764490 
# 
# From -- ./inp_files/5030.got.cif
#   From: 2010.05.17/outbox.cif.g08.bks.cpg/sg115_3_cif.got.tgz:5030.got - 2010.05.20 11:07:42.
