data_PCOD9556313
_publ_section_title
;
Structure prediction by ZEFSAII (Michael W. Deem and Ramdas Pophale) SiO2 
 PCOD9556313
Probable space group: P -4 21 C
;
_chemical_formula_sum "Si O2"
_cell_formula_units_Z 48
_cell_length_a 12.145538
_cell_length_b 12.145538
_cell_length_c 17.827312
_cell_angle_alpha 90.000000
_cell_angle_beta 90.000000
_cell_angle_gamma 90.000000
_cell_volume 2629.779766
_symmetry_space_group_name_H-M "P -4 21 C"
_symmetry_group_IT_number 114
_symmetry_cell_setting 'tetragonal'
loop_
_space_group_symop_operation_xyz
x,y,z
y,-x,-z
-x,-y,z
-y,x,-z
1/2+x,1/2-y,1/2-z
1/2-x,1/2+y,1/2-z
1/2-y,1/2-x,1/2+z
1/2+y,1/2+x,1/2+z
loop_
_atom_site_type_symbol
_atom_site_label
_atom_site_fract_x
_atom_site_fract_y
_atom_site_fract_z
Si Si1 0.371745 0.969898 0.444427
Si Si2 0.622772 0.709555 0.848618
Si Si3 0.876346 0.959359 0.193191
Si Si4 0.674503 0.664699 0.407798
Si Si5 0.729097 0.578288 0.574163
Si Si6 0.969154 0.841654 0.465141
O O1 0.381497 0.850623 0.406741
O O2 0.287866 0.966931 0.515803
O O3 0.500000 0.000000 0.461358
O O4 0.302317 0.048608 0.389454
O O5 0.582194 0.690705 0.764743
O O6 0.744715 0.751494 0.867425
O O7 0.623152 0.590160 0.889020
O O8 0.880926 0.861336 0.132648
O O9 0.828752 0.062255 0.148071
O O10 0.000000 0.000000 0.214365
O O11 0.709803 0.622083 0.489821
O O12 0.553489 0.716287 0.421800
O O13 0.090972 0.892486 0.474753
#
# Coordination Sequence:
#
# PCOD9556313 Si02
#       6
#     8   8   8   8   8   8
#     4  11  22  37  62  92 129 166 204 258 319 379
#     4  11  23  39  61  94 134 161 203 263 329 377
#     4  10  25  39  65  91 124 171 214 268 312 377
#     4  11  21  41  67  92 125 166 219 264 312 381
#     4  11  21  41  65  93 122 166 220 260 310 376
#     4   9  20  37  61  87 120 168 212 246 300 387
#
# _framework density 18.252481
#
# number of rings (size 3 to 8) (size 9 to 14) (size 15 to 20)
#    0.000    1.500    5.000    0.000    7.000    0.000 
#    0.000    0.000    0.000    4.000    0.000    0.000 
#    0.000    0.000    0.000    0.000    0.000    0.000 
#
# Total GULP energy -267439.196979 kJ/mol
# GULP energy per Si atom -5571.649937 kJ/mol
# Density = 1.821094 g / cm^3
# Si number density = 18.252481 Si / 1000 Ang^3
#
#
#
# Elastic Constant Matrix: (Units=GPa)
#
#
# Indices 1 2 3 4 5 6 
#
# 1 99.0025 23.2690 51.2304 0.0000 0.0000 0.0000
# 2 23.2690 99.0025 51.2304 0.0000 0.0000 0.0000
# 3 51.2304 51.2304 85.9080 0.0000 0.0000 0.0000
# 4 0.0000 0.0000 0.0000 17.3855 0.0000 0.0000
# 5 0.0000 0.0000 0.0000 0.0000 17.3855 0.0000
# 6 0.0000 0.0000 0.0000 0.0000 0.0000 25.1978
#
#
#
# Elastic Compliance Matrix: (Units=1/GPa)
#
#
# Indices 1 2 3 4 5 6 
#
# 1 0.014776 0.001572 -0.009749 0.000000 0.000000 0.000000
# 2 0.001572 0.014776 -0.009749 0.000000 0.000000 0.000000
# 3 -0.009749 -0.009749 0.023268 0.000000 0.000000 0.000000
# 4 0.000000 0.000000 0.000000 0.057519 0.000000 0.000000
# 5 0.000000 0.000000 0.000000 0.000000 0.057519 0.000000
# 6 0.000000 0.000000 0.000000 0.000000 0.000000 0.039686
#
#
# Mechanical properties :
#
#
# Convention : Reuss Voigt Hill
#
# Bulk Modulus (GPa) = 58.93499 59.48583 59.21041
# Shear Modulus (GPa) = 20.07613 22.53930 21.30772
#
# Velocity S-wave (km/s) = 3.32009 3.51787 3.42041
# Velocity P-wave (km/s) = 6.85975 7.01155 6.93607
#
# Compressibility (1/GPa) = 0.01696785
#
# Stress axis : x y z
#
# Youngs Moduli (GPa) = 67.67716 67.67716 42.97810
#
# Poissons Ratio (x) = -0.10638 0.41899
# Poissons Ratio (y) = -0.10638 0.41899
# Poissons Ratio (z) = 0.65978 0.65978
#
# Static dielectric constant tensor:
#      x y z
#    x 1.692810 0.000000 0.000000 
#    y 0.000000 1.692810 0.000000 
#    z 0.000000 0.000000 1.601290 
# 
# From -- ./inp_files/2624.got.cif
#   From: 2010.05.17/outbox.cif.g08.bks.cpg/sg114_2_cif.got.tgz:2624.got - 2010.05.20 11:04:54.
