data_PCOD9556775
_publ_section_title
;
Structure prediction by ZEFSAII (Michael W. Deem and Ramdas Pophale) SiO2 
 PCOD9556775
Probable space group: P -4 M 2
;
_chemical_formula_sum "Si O2"
_cell_formula_units_Z 48
_cell_length_a 9.206488
_cell_length_b 9.206488
_cell_length_c 32.399777
_cell_angle_alpha 90.000000
_cell_angle_beta 90.000000
_cell_angle_gamma 90.000000
_cell_volume 2746.186349
_symmetry_space_group_name_H-M "P -4 M 2"
_symmetry_group_IT_number 115
_symmetry_cell_setting 'tetragonal'
loop_
_space_group_symop_operation_xyz
x,y,z
y,-x,-z
-x,-y,z
-y,x,-z
y,x,-z
-y,-x,-z
-x,y,z
x,-y,z
loop_
_atom_site_type_symbol
_atom_site_label
_atom_site_fract_x
_atom_site_fract_y
_atom_site_fract_z
Si Si1 0.826973 0.675092 0.114846
Si Si2 0.825891 0.671061 0.538037
Si Si3 0.332545 0.176778 0.793014
Si Si4 0.827002 0.672957 0.961437
Si Si5 0.822725 0.832228 0.288455
Si Si6 0.168273 0.177097 0.378846
O O1 0.807896 0.500000 0.111852
O O2 0.782161 0.721193 0.161312
O O3 0.737905 0.756801 0.079961
O O4 0.000000 0.702578 0.109805
O O5 0.749433 0.749433 0.500000
O O6 0.797168 0.500000 0.537239
O O7 0.778055 0.738756 0.581806
O O8 0.000000 0.693198 0.534745
O O9 0.500000 0.220682 0.789854
O O10 0.248803 0.227736 0.752532
O O11 0.328837 0.000000 0.792676
O O12 0.802572 0.500000 0.963897
O O13 0.000000 0.698744 0.962109
O O14 0.751765 0.751765 0.000000
O O15 0.779006 0.773159 0.333562
O O16 0.000000 0.828434 0.288940
O O17 0.779142 0.000000 0.285612
O O18 0.000000 0.220300 0.384544
O O19 0.170234 0.000000 0.377127
#
# Coordination Sequence:
#
# PCOD9556775 Si02
#       6
#     8   8   8   8   8   8
#     4   9  18  33  53  77 104 134 169 205 241 286
#     4  10  20  33  50  71  94 123 160 199 242 294
#     4   8  14  25  42  67  99 129 156 193 239 280
#     4  11  24  39  55  77 103 130 164 205 247 294
#     4   8  13  22  39  64  91 120 157 197 236 280
#     4   8  14  26  45  68  93 121 155 197 240 281
#
# _framework density 17.478785999999999
#
# number of rings (size 3 to 8) (size 9 to 14) (size 15 to 20)
#    0.000    3.000    0.000    3.500    0.000    5.333 
#    0.000    2.500    0.000    4.000    0.000    2.333 
#    0.000    0.000    0.000    0.000    0.000    0.000 
#
# Total GULP energy -267413.548355 kJ/mol
# GULP energy per Si atom -5571.115591 kJ/mol
# Density = 1.743900 g / cm^3
# Si number density = 17.478786 Si / 1000 Ang^3
#
#
#
# Elastic Constant Matrix: (Units=GPa)
#
#
# Indices 1 2 3 4 5 6 
#
# 1 47.6112 43.2897 73.5017 0.0000 0.0000 0.0000
# 2 43.2897 47.6112 73.5017 0.0000 0.0000 0.0000
# 3 73.5017 73.5017 224.7078 0.0000 0.0000 0.0000
# 4 0.0000 0.0000 0.0000 -28.8258 0.0000 0.0000
# 5 0.0000 0.0000 0.0000 0.0000 -28.8258 0.0000
# 6 0.0000 0.0000 0.0000 0.0000 0.0000 17.1373
#
#
#
# Elastic Compliance Matrix: (Units=1/GPa)
#
#
# Indices 1 2 3 4 5 6 
#
# 1 0.127379 -0.104023 -0.007640 0.000000 0.000000 0.000000
# 2 -0.104023 0.127379 -0.007640 0.000000 0.000000 0.000000
# 3 -0.007640 -0.007640 0.009448 0.000000 0.000000 0.000000
# 4 0.000000 0.000000 0.000000 -0.034691 0.000000 0.000000
# 5 0.000000 0.000000 0.000000 0.000000 -0.034691 0.000000
# 6 0.000000 0.000000 0.000000 0.000000 0.000000 0.058352
#
#
# Mechanical properties :
#
#
# Convention : Reuss Voigt Hill
#
# Bulk Modulus (GPa) = 39.06116 77.83512 58.44814
# Shear Modulus (GPa) = 9.99372 0.53962 5.26667
#
# Velocity S-wave (km/s) = 2.39375 0.55624 1.73773
# Velocity P-wave (km/s) = 5.48054 6.71121 6.12686
#
# Compressibility (1/GPa) = 0.02560088
#
# Stress axis : x y z
#
# Youngs Moduli (GPa) = 7.85059 7.85059 105.84219
#
# Poissons Ratio (x) = 0.81664 0.80859
# Poissons Ratio (y) = 0.81664 0.80859
# Poissons Ratio (z) = 0.05998 0.05998
#
# Static dielectric constant tensor:
#      x y z
#    x 1.580430 0.000000 0.000000 
#    y 0.000000 1.580430 0.000000 
#    z 0.000000 0.000000 1.611510 
# 
# From -- ./inp_files/5961.got.cif
#   From: 2010.05.17/outbox.cif.g08.bks.cpg/sg115_3_cif.got.tgz:5961.got - 2010.05.20 11:07:42.
