data_PCOD9556582
_publ_section_title
;
Structure prediction by ZEFSAII (Michael W. Deem and Ramdas Pophale) SiO2 
 PCOD9556582
Probable space group: P -4 M 2
;
_chemical_formula_sum "Si O2"
_cell_formula_units_Z 48
_cell_length_a 13.584874
_cell_length_b 13.584874
_cell_length_c 15.833932
_cell_angle_alpha 90.000000
_cell_angle_beta 90.000000
_cell_angle_gamma 90.000000
_cell_volume 2922.133175
_symmetry_space_group_name_H-M "P -4 M 2"
_symmetry_group_IT_number 115
_symmetry_cell_setting 'tetragonal'
loop_
_space_group_symop_operation_xyz
x,y,z
y,-x,-z
-x,-y,z
-y,x,-z
y,x,-z
-y,-x,-z
-x,y,z
x,-y,z
loop_
_atom_site_type_symbol
_atom_site_label
_atom_site_fract_x
_atom_site_fract_y
_atom_site_fract_z
Si Si1 0.880694 0.612144 0.328764
Si Si2 0.118298 0.276479 0.500000
Si Si3 0.880694 0.612144 0.671236
Si Si4 0.882271 0.722070 0.844385
Si Si5 0.722071 0.117729 0.844385
Si Si6 0.383445 0.219382 0.000000
O O1 0.844288 0.500000 0.323850
O O2 0.851735 0.664286 0.415888
O O3 0.855114 0.674094 0.245795
O O4 0.000000 0.607963 0.330086
O O5 0.172291 0.172291 0.500000
O O6 0.148265 0.335714 0.584112
O O7 0.000000 0.266251 0.500000
O O8 0.844288 0.500000 0.676150
O O9 0.855114 0.674094 0.754205
O O10 0.000000 0.607963 0.669914
O O11 0.825199 0.825199 0.853348
O O12 0.842196 0.651564 0.918248
O O13 0.000000 0.732406 0.849553
O O14 0.732406 0.000000 0.849553
O O15 0.651564 0.157804 0.918248
O O16 0.500000 0.234633 1.000000
O O17 0.320419 0.320419 0.000000
#
# Coordination Sequence:
#
# PCOD9556582 Si02
#       6
#     8   8   8   8   8   8
#     4   9  17  30  48  68  91 122 160 202 245 284
#     4  10  19  30  45  67  96 128 161 197 240 295
#     4   9  17  30  48  68  91 122 160 202 245 284
#     4  10  20  33  50  74 103 134 167 201 240 291
#     4  10  20  33  50  74 103 134 167 201 240 291
#     4  10  21  36  54  76 100 128 165 208 254 300
#
# _framework density 16.426355000000001
#
# number of rings (size 3 to 8) (size 9 to 14) (size 15 to 20)
#    0.000    2.333    0.000    3.000    0.000    5.333 
#    0.000    0.000    0.000    9.000    0.000    0.000 
#    0.000   25.333    0.000    0.000    0.000    0.000 
#
# Total GULP energy -267645.925278 kJ/mol
# GULP energy per Si atom -5575.956777 kJ/mol
# Density = 1.638897 g / cm^3
# Si number density = 16.426355 Si / 1000 Ang^3
#
#
#
# Elastic Constant Matrix: (Units=GPa)
#
#
# Indices 1 2 3 4 5 6 
#
# 1 95.0594 64.7141 50.5437 0.0000 0.0000 0.0000
# 2 64.7141 95.0594 50.5437 0.0000 0.0000 0.0000
# 3 50.5437 50.5437 147.5758 0.0000 0.0000 0.0000
# 4 0.0000 0.0000 0.0000 18.1556 0.0000 0.0000
# 5 0.0000 0.0000 0.0000 0.0000 18.1556 0.0000
# 6 0.0000 0.0000 0.0000 0.0000 0.0000 6.5647
#
#
#
# Elastic Compliance Matrix: (Units=1/GPa)
#
#
# Indices 1 2 3 4 5 6 
#
# 1 0.020472 -0.012482 -0.002737 0.000000 0.000000 0.000000
# 2 -0.012482 0.020472 -0.002737 0.000000 0.000000 0.000000
# 3 -0.002737 -0.002737 0.008651 0.000000 0.000000 0.000000
# 4 0.000000 0.000000 0.000000 0.055079 0.000000 0.000000
# 5 0.000000 0.000000 0.000000 0.000000 0.055079 0.000000
# 6 0.000000 0.000000 0.000000 0.000000 0.000000 0.152330
#
#
# Mechanical properties :
#
#
# Convention : Reuss Voigt Hill
#
# Bulk Modulus (GPa) = 73.07358 74.36639 73.71998
# Shear Modulus (GPa) = 14.18215 20.03471 17.10843
#
# Velocity S-wave (km/s) = 2.94152 3.49616 3.23076
# Velocity P-wave (km/s) = 7.49125 7.85293 7.67422
#
# Compressibility (1/GPa) = 0.01368484
#
# Stress axis : x y z
#
# Youngs Moduli (GPa) = 48.84674 48.84674 115.59722
#
# Poissons Ratio (x) = 0.60970 0.31635
# Poissons Ratio (y) = 0.60970 0.31635
# Poissons Ratio (z) = 0.13367 0.13367
#
# Static dielectric constant tensor:
#      x y z
#    x 1.531730 0.000000 0.000000 
#    y 0.000000 1.531730 0.000000 
#    z 0.000000 0.000000 1.558490 
# 
# From -- ./inp_files/4253.got.cif
#   From: 2010.05.17/outbox.cif.g08.bks.cpg/sg115_3_cif.got.tgz:4253.got - 2010.05.20 11:07:42.
