data_PCOD9556427
_publ_section_title
;
Structure prediction by ZEFSAII (Michael W. Deem and Ramdas Pophale) SiO2 
 PCOD9556427
Probable space group: P -4 21 C
;
_chemical_formula_sum "Si O2"
_cell_formula_units_Z 48
_cell_length_a 8.801654
_cell_length_b 8.801654
_cell_length_c 27.772934
_cell_angle_alpha 90.000000
_cell_angle_beta 90.000000
_cell_angle_gamma 90.000000
_cell_volume 2151.544566
_symmetry_space_group_name_H-M "P -4 21 C"
_symmetry_group_IT_number 114
_symmetry_cell_setting 'tetragonal'
loop_
_space_group_symop_operation_xyz
x,y,z
y,-x,-z
-x,-y,z
-y,x,-z
1/2+x,1/2-y,1/2-z
1/2-x,1/2+y,1/2-z
1/2-y,1/2-x,1/2+z
1/2+y,1/2+x,1/2+z
loop_
_atom_site_type_symbol
_atom_site_label
_atom_site_fract_x
_atom_site_fract_y
_atom_site_fract_z
Si Si1 0.247120 0.304539 0.102756
Si Si2 0.670298 0.947485 0.527227
Si Si3 0.673411 0.451071 0.625479
Si Si4 0.400972 0.144818 0.692305
Si Si5 0.394530 0.373192 0.265851
Si Si6 0.133845 0.788280 0.575099
O O1 0.294605 0.219681 0.054021
O O2 0.300472 0.193424 0.145876
O O3 0.307981 0.477186 0.105015
O O4 0.066693 0.297589 0.105349
O O5 0.791649 0.064951 0.550112
O O6 0.500000 0.000000 0.538116
O O7 0.690651 0.922967 0.470647
O O8 0.500000 0.500000 0.611776
O O9 0.678872 0.464694 0.683223
O O10 0.732566 0.289964 0.606239
O O11 0.529225 0.251769 0.716035
O O12 0.271166 0.125140 0.732556
O O13 0.500000 0.000000 0.678306
O O14 0.500000 0.500000 0.241240
#
# Coordination Sequence:
#
# PCOD9556427 Si02
#       6
#     8   8   8   8   8   8
#     4  12  25  46  73 106 149 191 248 302 374 444
#     4  12  26  48  70 108 148 189 247 313 368 462
#     4  11  24  48  72 105 146 195 242 306 364 453
#     4  12  27  45  76 114 147 200 246 304 374 445
#     4  11  25  49  73 106 155 189 245 304 358 446
#     4  12  27  46  76 105 147 196 244 306 388 441
#
# _framework density 22.309552
#
# number of rings (size 3 to 8) (size 9 to 14) (size 15 to 20)
#    0.000    0.333    5.000    4.500    4.667    1.333 
#    0.000    0.000    0.000    0.000    0.000    0.000 
#    0.000    0.000    0.000    0.000    0.000    0.000 
#
# Total GULP energy -268207.963469 kJ/mol
# GULP energy per Si atom -5587.665906 kJ/mol
# Density = 2.225877 g / cm^3
# Si number density = 22.309552 Si / 1000 Ang^3
#
#
#
# Elastic Constant Matrix: (Units=GPa)
#
#
# Indices 1 2 3 4 5 6 
#
# 1 88.3830 17.4728 22.2373 0.0000 0.0000 0.0000
# 2 17.4728 88.3830 22.2373 0.0000 0.0000 0.0000
# 3 22.2373 22.2373 70.7269 0.0000 0.0000 0.0000
# 4 0.0000 0.0000 0.0000 29.6446 0.0000 0.0000
# 5 0.0000 0.0000 0.0000 0.0000 29.6446 0.0000
# 6 0.0000 0.0000 0.0000 0.0000 0.0000 43.0561
#
#
#
# Elastic Compliance Matrix: (Units=1/GPa)
#
#
# Indices 1 2 3 4 5 6 
#
# 1 0.012493 -0.001609 -0.003422 0.000000 0.000000 0.000000
# 2 -0.001609 0.012493 -0.003422 0.000000 0.000000 0.000000
# 3 -0.003422 -0.003422 0.016291 0.000000 0.000000 0.000000
# 4 0.000000 0.000000 0.000000 0.033733 0.000000 0.000000
# 5 0.000000 0.000000 0.000000 0.000000 0.033733 0.000000
# 6 0.000000 0.000000 0.000000 0.000000 0.000000 0.023226
#
#
# Mechanical properties :
#
#
# Convention : Reuss Voigt Hill
#
# Bulk Modulus (GPa) = 41.03207 41.26528 41.14868
# Shear Modulus (GPa) = 31.84720 32.83877 32.34298
#
# Velocity S-wave (km/s) = 3.78234 3.84078 3.81167
# Velocity P-wave (km/s) = 6.12429 6.18107 6.15274
#
# Compressibility (1/GPa) = 0.02437118
#
# Stress axis : x y z
#
# Youngs Moduli (GPa) = 80.04166 80.04166 61.38408
#
# Poissons Ratio (x) = 0.12877 0.21007
# Poissons Ratio (y) = 0.12877 0.21007
# Poissons Ratio (z) = 0.27392 0.27392
#
# Static dielectric constant tensor:
#      x y z
#    x 1.859820 0.000000 0.000000 
#    y 0.000000 1.859820 0.000000 
#    z 0.000000 0.000000 1.782670 
# 
# From -- ./inp_files/3904.got.cif
#   From: 2010.05.17/outbox.cif.g08.bks.cpg/sg114_2_cif.got.tgz:3904.got - 2010.05.20 11:04:54.
