data_PCOD9556724
_publ_section_title
;
Structure prediction by ZEFSAII (Michael W. Deem and Ramdas Pophale) SiO2 
 PCOD9556724
Probable space group: P -4 M 2
;
_chemical_formula_sum "Si O2"
_cell_formula_units_Z 40
_cell_length_a 9.126653
_cell_length_b 9.126653
_cell_length_c 26.810908
_cell_angle_alpha 90.000000
_cell_angle_beta 90.000000
_cell_angle_gamma 90.000000
_cell_volume 2233.235896
_symmetry_space_group_name_H-M "P -4 M 2"
_symmetry_group_IT_number 115
_symmetry_cell_setting 'tetragonal'
loop_
_space_group_symop_operation_xyz
x,y,z
y,-x,-z
-x,-y,z
-y,x,-z
y,x,-z
-y,-x,-z
-x,y,z
x,-y,z
loop_
_atom_site_type_symbol
_atom_site_label
_atom_site_fract_x
_atom_site_fract_y
_atom_site_fract_z
Si Si1 0.174463 0.325841 0.452716
Si Si2 0.322017 0.671112 0.147236
Si Si3 0.172838 0.323764 0.641120
Si Si4 0.329533 0.678089 0.742211
Si Si5 0.171875 0.676122 0.953308
O O1 0.248729 0.248729 0.500000
O O2 0.200786 0.500000 0.454741
O O3 0.243732 0.259195 0.402721
O O4 0.000000 0.301160 0.453662
O O5 0.500000 0.678925 0.147560
O O6 0.283400 0.500000 0.141380
O O7 0.272789 0.719573 0.202534
O O8 0.271802 0.761605 0.099476
O O9 0.194614 0.500000 0.636670
O O10 0.233580 0.276087 0.695170
O O11 0.000000 0.295268 0.637103
O O12 0.500000 0.720287 0.735450
O O13 0.326228 0.500000 0.742909
O O14 0.191574 0.500000 0.955886
O O15 0.000000 0.707670 0.955091
O O16 0.252346 0.747655 0.000000
#
# Coordination Sequence:
#
# PCOD9556724 Si02
#       5
#     8   8   8   8   8
#     4  11  24  40  58  80 105 135 173 215 259 307
#     4   8  14  26  46  72 100 130 166 209 255 301
#     4  10  20  33  52  80 111 142 175 209 249 300
#     4   8  14  26  46  73 104 136 169 207 252 299
#     4  10  20  32  48  71  98 130 168 209 256 309
#
# _framework density 17.911228999999999
#
# number of rings (size 3 to 8) (size 9 to 14) (size 15 to 20)
#    0.000    2.600    0.000    3.600    0.000    7.200 
#    0.000    4.000    0.000    1.200    0.000    8.400 
#    0.000    0.000    0.000    0.000    0.000    0.000 
#
# Total GULP energy -223074.535491 kJ/mol
# GULP energy per Si atom -5576.863387 kJ/mol
# Density = 1.787046 g / cm^3
# Si number density = 17.911229 Si / 1000 Ang^3
#
#
#
# Elastic Constant Matrix: (Units=GPa)
#
#
# Indices 1 2 3 4 5 6 
#
# 1 54.7193 55.5703 70.0607 0.0000 0.0000 0.0000
# 2 55.5703 54.7254 70.0660 0.0000 0.0000 0.0000
# 3 70.0607 70.0660 187.2415 0.0000 0.0000 0.0000
# 4 0.0000 0.0000 0.0000 -13.5893 0.0000 0.0000
# 5 0.0000 0.0000 0.0000 0.0000 -13.5884 0.0000
# 6 0.0000 0.0000 0.0000 0.0000 0.0000 17.8414
#
#
#
# Elastic Compliance Matrix: (Units=1/GPa)
#
#
# Indices 1 2 3 4 5 6 
#
# 1 -0.580998 0.598259 -0.006476 0.000000 0.000000 0.000000
# 2 0.598259 -0.580954 -0.006459 0.000000 0.000000 0.000000
# 3 -0.006476 -0.006459 0.010181 0.000000 0.000000 0.000000
# 4 0.000000 0.000000 0.000000 -0.073587 0.000000 0.000000
# 5 0.000000 0.000000 0.000000 0.000000 -0.073592 0.000000
# 6 0.000000 0.000000 0.000000 0.000000 0.000000 0.056049
#
#
# Mechanical properties :
#
#
# Convention : Reuss Voigt Hill
#
# Bulk Modulus (GPa) = 52.97036 76.45337 64.71186
# Shear Modulus (GPa) = -2.07705 4.86534 1.39415
#
# Velocity S-wave (km/s) = -1.07803 1.64993 0.88321
# Velocity P-wave (km/s) = 5.29986 6.81226 6.10309
#
# Compressibility (1/GPa) = 0.01887848
#
# Stress axis : x y z
#
# Youngs Moduli (GPa) = -1.72118 -1.72131 98.22611
#
# Poissons Ratio (x) = 1.02979 0.63608
# Poissons Ratio (y) = 1.02971 0.63442
# Poissons Ratio (z) = -0.01115 -0.01112
#
# Static dielectric constant tensor:
#      x y z
#    x 1.593990 0.000000 0.000000 
#    y 0.000000 1.593990 0.000000 
#    z 0.000000 0.000000 1.612580 
# 
# From -- ./inp_files/5110.got.cif
#   From: 2010.05.17/outbox.cif.g08.bks.cpg/sg115_3_cif.got.tgz:5110.got - 2010.05.20 11:07:42.
