data_PCOD9556419
_publ_section_title
;
Structure prediction by ZEFSAII (Michael W. Deem and Ramdas Pophale) SiO2 
 PCOD9556419
Probable space group: P -4 21 C
;
_chemical_formula_sum "Si O2"
_cell_formula_units_Z 16
_cell_length_a 8.459102
_cell_length_b 8.459102
_cell_length_c 8.047938
_cell_angle_alpha 90.000000
_cell_angle_beta 90.000000
_cell_angle_gamma 90.000000
_cell_volume 575.881524
_symmetry_space_group_name_H-M "P -4 21 C"
_symmetry_group_IT_number 114
_symmetry_cell_setting 'tetragonal'
loop_
_space_group_symop_operation_xyz
x,y,z
y,-x,-z
-x,-y,z
-y,x,-z
1/2+x,1/2-y,1/2-z
1/2-x,1/2+y,1/2-z
1/2-y,1/2-x,1/2+z
1/2+y,1/2+x,1/2+z
loop_
_atom_site_type_symbol
_atom_site_label
_atom_site_fract_x
_atom_site_fract_y
_atom_site_fract_z
Si Si1 0.974935 0.792228 0.598143
Si Si2 0.811319 0.095413 0.903017
O O1 0.872306 0.635642 0.606796
O O2 0.082196 0.830555 0.436684
O O3 0.090374 0.828823 0.750717
O O4 0.908369 0.167374 0.061584
#
# Coordination Sequence:
#
# PCOD9556419 Si02
#       2
#     8   8
#     4  11  24  45  70 100 139 181 228 283 341 406
#     4  11  24  45  70 100 139 181 228 283 341 406
#
# _framework density 27.78349
#
# number of rings (size 3 to 8) (size 9 to 14) (size 15 to 20)
#    0.000    1.000    0.000    9.000    0.000    2.000 
#    0.000   15.000    0.000    0.000    0.000    0.000 
#    0.000    0.000    0.000    0.000    0.000    0.000 
#
# Total GULP energy -89296.028055 kJ/mol
# GULP energy per Si atom -5581.001753 kJ/mol
# Density = 2.772025 g / cm^3
# Si number density = 27.783490 Si / 1000 Ang^3
#
#
#
# Elastic Constant Matrix: (Units=GPa)
#
#
# Indices 1 2 3 4 5 6 
#
# 1 65.4436 104.3721 42.5785 0.0000 0.0000 0.0000
# 2 104.3721 65.4436 42.5785 0.0000 0.0000 0.0000
# 3 42.5785 42.5785 161.4827 0.0000 0.0000 0.0000
# 4 0.0000 0.0000 0.0000 34.9462 0.0000 0.0000
# 5 0.0000 0.0000 0.0000 0.0000 34.9462 0.0000
# 6 0.0000 0.0000 0.0000 0.0000 0.0000 88.3231
#
#
#
# Elastic Compliance Matrix: (Units=1/GPa)
#
#
# Indices 1 2 3 4 5 6 
#
# 1 -0.009451 0.016237 -0.001789 0.000000 0.000000 0.000000
# 2 0.016237 -0.009451 -0.001789 0.000000 0.000000 0.000000
# 3 -0.001789 -0.001789 0.007136 0.000000 0.000000 0.000000
# 4 0.000000 0.000000 0.000000 0.028615 0.000000 0.000000
# 5 0.000000 0.000000 0.000000 0.000000 0.028615 0.000000
# 6 0.000000 0.000000 0.000000 0.000000 0.000000 0.011322
#
#
# Mechanical properties :
#
#
# Convention : Reuss Voigt Hill
#
# Bulk Modulus (GPa) = 73.79496 74.60314 74.19905
# Shear Modulus (GPa) = 138.93876 38.49914 88.71895
#
# Velocity S-wave (km/s) = 7.07928 3.72652 5.65699
# Velocity P-wave (km/s) = 9.66644 6.73987 8.33264
#
# Compressibility (1/GPa) = 0.01355106
#
# Stress axis : x y z
#
# Youngs Moduli (GPa) = -105.80834 -105.80834 140.13101
#
# Poissons Ratio (x) = 1.71802 0.25073
# Poissons Ratio (y) = 1.71802 0.25073
# Poissons Ratio (z) = -0.18932 -0.18932
#
# Static dielectric constant tensor:
#      x y z
#    x 2.324870 0.000000 0.000000 
#    y 0.000000 2.324870 0.000000 
#    z 0.000000 0.000000 2.263750 
# 
# From -- ./inp_files/330.got.cif
#   From: 2010.05.17/outbox.cif.g08.bks.cpg/sg114_1_cif.got.tgz:330.got - 2010.05.20 11:04:54.
