data_PCOD9556446
_publ_section_title
;
Structure prediction by ZEFSAII (Michael W. Deem and Ramdas Pophale) SiO2 
 PCOD9556446
Probable space group: P -4 21 C
;
_chemical_formula_sum "Si O2"
_cell_formula_units_Z 26
_cell_length_a 8.318517
_cell_length_b 8.318517
_cell_length_c 14.849593
_cell_angle_alpha 90.000000
_cell_angle_beta 90.000000
_cell_angle_gamma 90.000000
_cell_volume 1027.558054
_symmetry_space_group_name_H-M "P -4 21 C"
_symmetry_group_IT_number 114
_symmetry_cell_setting 'tetragonal'
loop_
_space_group_symop_operation_xyz
x,y,z
y,-x,-z
-x,-y,z
-y,x,-z
1/2+x,1/2-y,1/2-z
1/2-x,1/2+y,1/2-z
1/2-y,1/2-x,1/2+z
1/2+y,1/2+x,1/2+z
loop_
_atom_site_type_symbol
_atom_site_label
_atom_site_fract_x
_atom_site_fract_y
_atom_site_fract_z
Si Si1 0.831172 0.313265 0.299865
Si Si2 0.398413 0.836876 0.937235
Si Si3 0.000000 0.000000 0.500000
Si Si4 0.811565 0.676399 0.363601
O O1 0.696199 0.210714 0.351318
O O2 0.802645 0.497698 0.322672
O O3 0.812154 0.279903 0.194433
O O4 0.005172 0.268791 0.340837
O O5 0.499726 0.670467 0.947835
O O6 0.500000 0.000000 0.936194
O O7 0.294648 0.841266 0.029576
#
# Coordination Sequence:
#
# PCOD9556446 Si02
#       4
#     8   8   2   8
#     4  11  27  46  77 110 157 205 259 336 394 488
#     4  12  25  47  78 116 152 213 271 325 408 485
#     4  12  24  44  84 108 156 214 256 328 416 460
#     4  11  26  49  72 119 152 206 266 318 411 483
#
# _framework density 25.302705
#
# number of rings (size 3 to 8) (size 9 to 14) (size 15 to 20)
#    0.000    0.615    6.154    0.000    8.615    3.692 
#    0.000    0.000    0.000    0.923    0.000    0.000 
#    0.000    0.000    0.000    0.000    0.000    0.000 
#
# Total GULP energy -145750.422260 kJ/mol
# GULP energy per Si atom -5605.785472 kJ/mol
# Density = 2.524512 g / cm^3
# Si number density = 25.302705 Si / 1000 Ang^3
#
#
#
# Elastic Constant Matrix: (Units=GPa)
#
#
# Indices 1 2 3 4 5 6 
#
# 1 111.1197 38.5049 32.6156 0.0000 0.0000 0.0000
# 2 38.5049 111.1197 32.6156 0.0000 0.0000 0.0000
# 3 32.6156 32.6156 153.3995 0.0000 0.0000 0.0000
# 4 0.0000 0.0000 0.0000 48.4202 0.0000 0.0000
# 5 0.0000 0.0000 0.0000 0.0000 48.4202 0.0000
# 6 0.0000 0.0000 0.0000 0.0000 0.0000 50.3398
#
#
#
# Elastic Compliance Matrix: (Units=1/GPa)
#
#
# Indices 1 2 3 4 5 6 
#
# 1 0.010569 -0.003203 -0.001566 0.000000 0.000000 0.000000
# 2 -0.003203 0.010569 -0.001566 0.000000 0.000000 0.000000
# 3 -0.001566 -0.001566 0.007185 0.000000 0.000000 0.000000
# 4 0.000000 0.000000 0.000000 0.020653 0.000000 0.000000
# 5 0.000000 0.000000 0.000000 0.000000 0.020653 0.000000
# 6 0.000000 0.000000 0.000000 0.000000 0.000000 0.019865
#
#
# Mechanical properties :
#
#
# Convention : Reuss Voigt Hill
#
# Bulk Modulus (GPa) = 63.88730 64.79011 64.33870
# Shear Modulus (GPa) = 46.56366 47.56291 47.06328
#
# Velocity S-wave (km/s) = 4.29448 4.34032 4.31746
# Velocity P-wave (km/s) = 7.06358 7.12597 7.09484
#
# Compressibility (1/GPa) = 0.01565256
#
# Stress axis : x y z
#
# Youngs Moduli (GPa) = 94.61852 94.61852 139.18018
#
# Poissons Ratio (x) = 0.30302 0.21798
# Poissons Ratio (y) = 0.30302 0.21798
# Poissons Ratio (z) = 0.14819 0.14819
#
# Static dielectric constant tensor:
#      x y z
#    x 1.999900 0.000000 0.000000 
#    y 0.000000 1.999900 0.000000 
#    z 0.000000 0.000000 1.978990 
# 
# From -- ./inp_files/2379.got.cif
#   From: 2010.05.17/outbox.cif.g08.bks.cpg/sg114_2_cif.got.tgz:2379.got - 2010.05.20 11:04:54.
