data_PCOD9556085
_publ_section_title
;
Structure prediction by ZEFSAII (Michael W. Deem and Ramdas Pophale) SiO2 
 PCOD9556085
Probable space group: P -4 21 C
;
_chemical_formula_sum "Si O2"
_cell_formula_units_Z 32
_cell_length_a 8.361798
_cell_length_b 8.361798
_cell_length_c 19.915326
_cell_angle_alpha 90.000000
_cell_angle_beta 90.000000
_cell_angle_gamma 90.000000
_cell_volume 1392.472938
_symmetry_space_group_name_H-M "P -4 21 C"
_symmetry_group_IT_number 114
_symmetry_cell_setting 'tetragonal'
loop_
_space_group_symop_operation_xyz
x,y,z
y,-x,-z
-x,-y,z
-y,x,-z
1/2+x,1/2-y,1/2-z
1/2-x,1/2+y,1/2-z
1/2-y,1/2-x,1/2+z
1/2+y,1/2+x,1/2+z
loop_
_atom_site_type_symbol
_atom_site_label
_atom_site_fract_x
_atom_site_fract_y
_atom_site_fract_z
Si Si1 0.403256 0.832555 0.622360
Si Si2 0.512111 0.690422 0.227561
Si Si3 0.278467 0.331566 0.649571
Si Si4 0.353500 0.724679 0.991380
O O1 0.275539 0.881722 0.679040
O O2 0.532802 0.699065 0.640037
O O3 0.319303 0.782933 0.553888
O O4 0.500000 0.000000 0.611207
O O5 0.500000 0.500000 0.225338
O O6 0.483424 0.752236 0.303285
O O7 0.681175 0.731019 0.195723
O O8 0.189651 0.308900 0.578819
O O9 0.543367 0.711504 0.005763
#
# Coordination Sequence:
#
# PCOD9556085 Si02
#       4
#     8   8   8   8
#     4  10  21  41  63  95 136 165 221 278 323 394
#     4  11  22  44  69  96 132 180 219 272 338 398
#     4  11  24  43  69 101 137 171 223 286 328 402
#     4  11  21  41  72  92 128 181 228 268 331 407
#
# _framework density 22.980696999999999
#
# number of rings (size 3 to 8) (size 9 to 14) (size 15 to 20)
#    0.000    1.250    5.000    3.000    0.000    0.000 
#    9.000    6.250    0.000    0.000    0.000    0.000 
#    0.000    0.000    0.000    0.000    0.000    0.000 
#
# Total GULP energy -179041.939686 kJ/mol
# GULP energy per Si atom -5595.060615 kJ/mol
# Density = 2.292839 g / cm^3
# Si number density = 22.980697 Si / 1000 Ang^3
#
#
#
# Elastic Constant Matrix: (Units=GPa)
#
#
# Indices 1 2 3 4 5 6 
#
# 1 39.5452 10.4821 33.0928 0.0000 0.0000 0.0000
# 2 10.4821 39.5452 33.0928 0.0000 0.0000 0.0000
# 3 33.0928 33.0928 172.0090 0.0000 0.0000 0.0000
# 4 0.0000 0.0000 0.0000 -14.7964 0.0000 0.0000
# 5 0.0000 0.0000 0.0000 0.0000 -14.7964 0.0000
# 6 0.0000 0.0000 0.0000 0.0000 0.0000 12.9288
#
#
#
# Elastic Compliance Matrix: (Units=1/GPa)
#
#
# Indices 1 2 3 4 5 6 
#
# 1 0.030611 -0.003797 -0.005159 0.000000 0.000000 0.000000
# 2 -0.003797 0.030611 -0.005159 0.000000 0.000000 0.000000
# 3 -0.005159 -0.005159 0.007799 0.000000 0.000000 0.000000
# 4 0.000000 0.000000 0.000000 -0.067584 0.000000 0.000000
# 5 0.000000 0.000000 0.000000 0.000000 -0.067584 0.000000
# 6 0.000000 0.000000 0.000000 0.000000 0.000000 0.077346
#
#
# Mechanical properties :
#
#
# Convention : Reuss Voigt Hill
#
# Bulk Modulus (GPa) = 24.51479 44.93719 34.72599
# Shear Modulus (GPa) = 94.29528 8.29600 51.29564
#
# Velocity S-wave (km/s) = 6.41260 1.90206 4.72966
# Velocity P-wave (km/s) = 8.09440 4.94171 6.70596
#
# Compressibility (1/GPa) = 0.04079170
#
# Stress axis : x y z
#
# Youngs Moduli (GPa) = 32.66802 32.66802 128.22775
#
# Poissons Ratio (x) = 0.12404 0.66149
# Poissons Ratio (y) = 0.12404 0.66149
# Poissons Ratio (z) = 0.16853 0.16853
#
# Static dielectric constant tensor:
#      x y z
#    x 1.811960 0.000000 0.000000 
#    y 0.000000 1.811960 0.000000 
#    z 0.000000 0.000000 1.849070 
# 
# From -- ./inp_files/2823.got.cif
#   From: 2010.05.17/outbox.cif.g08.bks.cpg/sg114_2_cif.got.tgz:2823.got - 2010.05.20 11:04:54.
