data_PCOD9556875
_publ_section_title
;
Structure prediction by ZEFSAII (Michael W. Deem and Ramdas Pophale) SiO2 
 PCOD9556875
Probable space group: P -4 M 2
;
_chemical_formula_sum "Si O2"
_cell_formula_units_Z 48
_cell_length_a 9.157899
_cell_length_b 9.157899
_cell_length_c 31.848185
_cell_angle_alpha 90.000000
_cell_angle_beta 90.000000
_cell_angle_gamma 90.000000
_cell_volume 2671.015365
_symmetry_space_group_name_H-M "P -4 M 2"
_symmetry_group_IT_number 115
_symmetry_cell_setting 'tetragonal'
loop_
_space_group_symop_operation_xyz
x,y,z
y,-x,-z
-x,-y,z
-y,x,-z
y,x,-z
-y,-x,-z
-x,y,z
x,-y,z
loop_
_atom_site_type_symbol
_atom_site_label
_atom_site_fract_x
_atom_site_fract_y
_atom_site_fract_z
Si Si1 0.829000 0.175714 0.204442
Si Si2 0.331337 0.322170 0.453772
Si Si3 0.324476 0.328869 0.873832
Si Si4 0.671347 0.824679 0.291072
Si Si5 0.827157 0.674289 0.039093
Si Si6 0.170394 0.676111 0.369089
O O1 0.749207 0.249319 0.165324
O O2 0.753367 0.218730 0.248259
O O3 0.000000 0.214065 0.204985
O O4 0.816903 0.000000 0.200776
O O5 0.276760 0.276760 0.500000
O O6 0.500000 0.275877 0.448108
O O7 0.331842 0.500000 0.455070
O O8 0.236350 0.277192 0.414002
O O9 0.500000 0.316388 0.869684
O O10 0.286685 0.500000 0.875011
O O11 0.283036 0.251727 0.917549
O O12 0.500000 0.789977 0.287898
O O13 0.741946 0.747646 0.331090
O O14 0.686088 0.000000 0.295492
O O15 0.804509 0.500000 0.033190
O O16 0.000000 0.700682 0.042327
O O17 0.758759 0.758759 0.000000
O O18 0.183905 0.500000 0.366635
O O19 0.000000 0.713772 0.366250
#
# Coordination Sequence:
#
# PCOD9556875 Si02
#       6
#     8   8   8   8   8   8
#     4  10  21  37  57  80 107 140 176 216 265 318
#     4   8  14  27  48  71  96 130 171 213 256 302
#     4  10  21  37  58  83 110 142 180 221 265 313
#     4  10  21  37  56  77 102 136 178 220 263 313
#     4  10  21  37  57  81 109 142 179 219 264 313
#     4  10  20  33  51  77 107 138 172 212 260 312
#
# _framework density 17.970693000000001
#
# number of rings (size 3 to 8) (size 9 to 14) (size 15 to 20)
#    0.000    2.333    0.000    3.000    0.000    6.333 
#    0.000    0.833    0.000    3.000    0.000    0.000 
#    0.000    0.000    0.000    0.000    0.000    0.000 
#
# Total GULP energy -267956.715551 kJ/mol
# GULP energy per Si atom -5582.431574 kJ/mol
# Density = 1.792979 g / cm^3
# Si number density = 17.970693 Si / 1000 Ang^3
#
#
#
# Elastic Constant Matrix: (Units=GPa)
#
#
# Indices 1 2 3 4 5 6 
#
# 1 78.5394 57.4819 87.3168 0.0000 0.0000 0.0000
# 2 57.4819 78.5394 87.3168 0.0000 0.0000 0.0000
# 3 87.3168 87.3168 212.8806 0.0000 0.0000 0.0000
# 4 0.0000 0.0000 0.0000 145.6140 0.0000 0.0000
# 5 0.0000 0.0000 0.0000 0.0000 145.6140 0.0000
# 6 0.0000 0.0000 0.0000 0.0000 0.0000 26.0794
#
#
#
# Elastic Compliance Matrix: (Units=1/GPa)
#
#
# Indices 1 2 3 4 5 6 
#
# 1 0.031509 -0.015980 -0.006370 0.000000 0.000000 0.000000
# 2 -0.015980 0.031509 -0.006370 0.000000 0.000000 0.000000
# 3 -0.006370 -0.006370 0.009923 0.000000 0.000000 0.000000
# 4 0.000000 0.000000 0.000000 0.006867 0.000000 0.000000
# 5 0.000000 0.000000 0.000000 0.000000 0.006867 0.000000
# 6 0.000000 0.000000 0.000000 0.000000 0.000000 0.038345
#
#
# Mechanical properties :
#
#
# Convention : Reuss Voigt Hill
#
# Bulk Modulus (GPa) = 64.50286 92.68780 78.59533
# Shear Modulus (GPa) = 26.64858 72.65108 49.64983
#
# Velocity S-wave (km/s) = 3.85501 6.36516 5.26196
# Velocity P-wave (km/s) = 7.46901 10.28152 8.98598
#
# Compressibility (1/GPa) = 0.01550319
#
# Stress axis : x y z
#
# Youngs Moduli (GPa) = 31.73658 31.73658 100.77731
#
# Poissons Ratio (x) = 0.50714 0.64193
# Poissons Ratio (y) = 0.50714 0.64193
# Poissons Ratio (z) = 0.20216 0.20216
#
# Static dielectric constant tensor:
#      x y z
#    x 1.601230 0.000000 0.000000 
#    y 0.000000 1.601230 0.000000 
#    z 0.000000 0.000000 1.585630 
# 
# From -- ./inp_files/5942.got.cif
#   From: 2010.05.17/outbox.cif.g08.bks.cpg/sg115_3_cif.got.tgz:5942.got - 2010.05.20 11:07:42.
