data_PCOD9556290
_publ_section_title
;
Structure prediction by ZEFSAII (Michael W. Deem and Ramdas Pophale) SiO2 
 PCOD9556290
Probable space group: P -4 21 C
;
_chemical_formula_sum "Si O2"
_cell_formula_units_Z 48
_cell_length_a 8.614829
_cell_length_b 8.614829
_cell_length_c 28.594970
_cell_angle_alpha 90.000000
_cell_angle_beta 90.000000
_cell_angle_gamma 90.000000
_cell_volume 2122.183668
_symmetry_space_group_name_H-M "P -4 21 C"
_symmetry_group_IT_number 114
_symmetry_cell_setting 'tetragonal'
loop_
_space_group_symop_operation_xyz
x,y,z
y,-x,-z
-x,-y,z
-y,x,-z
1/2+x,1/2-y,1/2-z
1/2-x,1/2+y,1/2-z
1/2-y,1/2-x,1/2+z
1/2+y,1/2+x,1/2+z
loop_
_atom_site_type_symbol
_atom_site_label
_atom_site_fract_x
_atom_site_fract_y
_atom_site_fract_z
Si Si1 0.825995 0.443330 0.607663
Si Si2 0.382744 0.360069 0.071756
Si Si3 0.298844 0.744458 0.680701
Si Si4 0.182231 0.551017 0.764088
Si Si5 0.937290 0.343765 0.518120
Si Si6 0.239479 0.154370 0.149535
O O1 0.811333 0.287133 0.637454
O O2 0.799613 0.397074 0.553184
O O3 0.710315 0.572760 0.629538
O O4 0.000000 0.500000 0.616952
O O5 0.500000 0.500000 0.082585
O O6 0.223176 0.441138 0.055741
O O7 0.356111 0.234348 0.112174
O O8 0.425424 0.275662 0.023408
O O9 0.270299 0.604141 0.717536
O O10 0.469406 0.747580 0.657394
O O11 0.258768 0.900897 0.708156
O O12 0.204409 0.697036 0.799423
O O13 0.000000 0.500000 0.755013
O O14 0.000000 0.500000 0.495931
#
# Coordination Sequence:
#
# PCOD9556290 Si02
#       6
#     8   8   8   8   8   8
#     4  11  23  43  68 100 144 194 237 300 376 448
#     4  12  24  46  75 108 147 194 254 307 377 457
#     4  11  24  45  73 106 147 191 246 312 372 443
#     4  10  24  45  72 107 143 197 246 302 378 455
#     4  11  23  43  72 104 140 192 246 298 374 445
#     4  11  25  46  71 110 147 188 248 313 376 446
#
# _framework density 22.618210000000001
#
# number of rings (size 3 to 8) (size 9 to 14) (size 15 to 20)
#    0.000    1.000    5.000    2.000    2.333    6.000 
#    0.000    5.000    0.000    0.000    0.000    0.000 
#    0.000    0.000    0.000    0.000    0.000    0.000 
#
# Total GULP energy -267609.861972 kJ/mol
# GULP energy per Si atom -5575.205458 kJ/mol
# Density = 2.256673 g / cm^3
# Si number density = 22.618210 Si / 1000 Ang^3
#
#
#
# Elastic Constant Matrix: (Units=GPa)
#
#
# Indices 1 2 3 4 5 6 
#
# 1 70.3707 32.9071 41.6712 0.0000 0.0000 0.0000
# 2 32.9071 70.3707 41.6712 0.0000 0.0000 0.0000
# 3 41.6712 41.6712 135.0018 0.0000 0.0000 0.0000
# 4 0.0000 0.0000 0.0000 61.9433 0.0000 0.0000
# 5 0.0000 0.0000 0.0000 0.0000 61.9433 0.0000
# 6 0.0000 0.0000 0.0000 0.0000 0.0000 37.5094
#
#
#
# Elastic Compliance Matrix: (Units=1/GPa)
#
#
# Indices 1 2 3 4 5 6 
#
# 1 0.019794 -0.006899 -0.003980 0.000000 0.000000 0.000000
# 2 -0.006899 0.019794 -0.003980 0.000000 0.000000 0.000000
# 3 -0.003980 -0.003980 0.009864 0.000000 0.000000 0.000000
# 4 0.000000 0.000000 0.000000 0.016144 0.000000 0.000000
# 5 0.000000 0.000000 0.000000 0.000000 0.016144 0.000000
# 6 0.000000 0.000000 0.000000 0.000000 0.000000 0.026660
#
#
# Mechanical properties :
#
#
# Convention : Reuss Voigt Hill
#
# Bulk Modulus (GPa) = 50.67708 56.47136 53.57422
# Shear Modulus (GPa) = 34.55536 42.91212 38.73374
#
# Velocity S-wave (km/s) = 3.91291 4.36045 4.14273
# Velocity P-wave (km/s) = 6.54741 7.09738 6.82793
#
# Compressibility (1/GPa) = 0.01973279
#
# Stress axis : x y z
#
# Youngs Moduli (GPa) = 50.52158 50.52158 101.37433
#
# Poissons Ratio (x) = 0.34855 0.40349
# Poissons Ratio (y) = 0.34855 0.40349
# Poissons Ratio (z) = 0.20108 0.20108
#
# Static dielectric constant tensor:
#      x y z
#    x 1.892990 0.000000 0.000000 
#    y 0.000000 1.892990 0.000000 
#    z 0.000000 0.000000 1.880360 
# 
# From -- ./inp_files/3936.got.cif
#   From: 2010.05.17/outbox.cif.g08.bks.cpg/sg114_2_cif.got.tgz:3936.got - 2010.05.20 11:04:54.
