data_PCOD9556756
_publ_section_title
;
Structure prediction by ZEFSAII (Michael W. Deem and Ramdas Pophale) SiO2 
 PCOD9556756
Probable space group: P -4 M 2
;
_chemical_formula_sum "Si O2"
_cell_formula_units_Z 44
_cell_length_a 9.413689
_cell_length_b 9.413689
_cell_length_c 29.042740
_cell_angle_alpha 90.000000
_cell_angle_beta 90.000000
_cell_angle_gamma 90.000000
_cell_volume 2573.696191
_symmetry_space_group_name_H-M "P -4 M 2"
_symmetry_group_IT_number 115
_symmetry_cell_setting 'tetragonal'
loop_
_space_group_symop_operation_xyz
x,y,z
y,-x,-z
-x,-y,z
-y,x,-z
y,x,-z
-y,-x,-z
-x,y,z
x,-y,z
loop_
_atom_site_type_symbol
_atom_site_label
_atom_site_fract_x
_atom_site_fract_y
_atom_site_fract_z
Si Si1 0.166832 0.829282 0.367232
Si Si2 0.328943 0.167409 0.173510
Si Si3 0.831779 0.168222 0.000000
Si Si4 0.669543 0.331867 0.552820
Si Si5 0.827320 0.663098 0.722985
Si Si6 0.667466 0.830122 0.906746
O O1 0.243034 0.754171 0.409794
O O2 0.238947 0.782570 0.319220
O O3 0.000000 0.798206 0.366860
O O4 0.184869 0.000000 0.370933
O O5 0.500000 0.179066 0.169807
O O6 0.290582 0.214673 0.225577
O O7 0.251824 0.257869 0.134820
O O8 0.293200 0.000000 0.168384
O O9 0.792106 0.257451 0.045012
O O10 0.000000 0.189635 0.990932
O O11 0.706319 0.293682 0.500000
O O12 0.500000 0.311540 0.558074
O O13 0.698143 0.500000 0.558772
O O14 0.781338 0.500000 0.715478
O O15 0.000000 0.661999 0.723653
O O16 0.500000 0.799853 0.908520
O O17 0.686100 0.000000 0.900574
#
# Coordination Sequence:
#
# PCOD9556756 Si02
#       6
#     8   8   4   8   8   8
#     4  10  20  32  49  77 108 133 161 202 251 300
#     4   9  18  33  54  78 101 129 169 212 249 291
#     4   9  18  34  54  73  96 132 176 213 246 291
#     4   9  19  36  55  73  95 128 171 212 248 293
#     4   8  15  30  51  73  98 131 171 209 244 288
#     4  10  21  35  51  75 106 135 164 203 251 300
#
# _framework density 17.096034
#
# number of rings (size 3 to 8) (size 9 to 14) (size 15 to 20)
#    0.000    2.818    0.000    2.727    0.000    5.091 
#    0.000    7.273    0.000    1.091    0.000    0.000 
#    0.000    0.000    0.000    0.000    0.000    0.000 
#
# Total GULP energy -245347.020733 kJ/mol
# GULP energy per Si atom -5576.068653 kJ/mol
# Density = 1.705712 g / cm^3
# Si number density = 17.096034 Si / 1000 Ang^3
#
#
#
# Elastic Constant Matrix: (Units=GPa)
#
#
# Indices 1 2 3 4 5 6 
#
# 1 63.4247 54.1708 95.1450 0.0000 0.0000 0.0000
# 2 54.1708 63.4243 95.1451 0.0000 0.0000 0.0000
# 3 95.1450 95.1451 210.5284 0.0000 0.0000 0.0000
# 4 0.0000 0.0000 0.0000 47.6005 0.0000 0.0000
# 5 0.0000 0.0000 0.0000 0.0000 47.5988 0.0000
# 6 0.0000 0.0000 0.0000 0.0000 0.0000 26.3974
#
#
#
# Elastic Compliance Matrix: (Units=1/GPa)
#
#
# Indices 1 2 3 4 5 6 
#
# 1 0.069856 -0.038208 -0.014303 0.000000 0.000000 0.000000
# 2 -0.038208 0.069858 -0.014304 0.000000 0.000000 0.000000
# 3 -0.014303 -0.014304 0.017678 0.000000 0.000000 0.000000
# 4 0.000000 0.000000 0.000000 0.021008 0.000000 0.000000
# 5 0.000000 0.000000 0.000000 0.000000 0.021009 0.000000
# 6 0.000000 0.000000 0.000000 0.000000 0.000000 0.037883
#
#
# Mechanical properties :
#
#
# Convention : Reuss Voigt Hill
#
# Bulk Modulus (GPa) = 42.08205 91.81101 66.94653
# Shear Modulus (GPa) = 13.19813 30.51376 21.85595
#
# Velocity S-wave (km/s) = 2.78150 4.22933 3.57938
# Velocity P-wave (km/s) = 5.91474 8.81302 7.50511
#
# Compressibility (1/GPa) = 0.02376310
#
# Stress axis : x y z
#
# Youngs Moduli (GPa) = 14.31517 14.31481 56.56680
#
# Poissons Ratio (x) = 0.54694 0.80906
# Poissons Ratio (y) = 0.54695 0.80911
# Poissons Ratio (z) = 0.20475 0.20475
#
# Static dielectric constant tensor:
#      x y z
#    x 1.564930 0.000000 0.000000 
#    y 0.000000 1.564940 0.000000 
#    z 0.000000 0.000000 1.564940 
# 
# From -- ./inp_files/5749.got.cif
#   From: 2010.05.17/outbox.cif.g08.bks.cpg/sg115_3_cif.got.tgz:5749.got - 2010.05.20 11:07:42.
