data_PCOD9556683
_publ_section_title
;
Structure prediction by ZEFSAII (Michael W. Deem and Ramdas Pophale) SiO2 
 PCOD9556683
Probable space group: P -4 M 2
;
_chemical_formula_sum "Si O2"
_cell_formula_units_Z 40
_cell_length_a 14.755203
_cell_length_b 14.755203
_cell_length_c 8.781671
_cell_angle_alpha 90.000000
_cell_angle_beta 90.000000
_cell_angle_gamma 90.000000
_cell_volume 1911.910420
_symmetry_space_group_name_H-M "P -4 M 2"
_symmetry_group_IT_number 115
_symmetry_cell_setting 'tetragonal'
loop_
_space_group_symop_operation_xyz
x,y,z
y,-x,-z
-x,-y,z
-y,x,-z
y,x,-z
-y,-x,-z
-x,y,z
x,-y,z
loop_
_atom_site_type_symbol
_atom_site_label
_atom_site_fract_x
_atom_site_fract_y
_atom_site_fract_z
Si Si1 0.093690 0.401119 0.625879
Si Si2 0.762451 0.604318 0.886467
Si Si3 0.752774 0.893171 0.949087
Si Si4 0.664977 0.392978 0.330641
Si Si5 0.726352 0.157343 0.609610
O O1 0.100188 0.500000 0.554251
O O2 0.179313 0.389749 0.731315
O O3 0.091912 0.328607 0.497104
O O4 0.000000 0.397956 0.718269
O O5 0.766216 0.500000 0.942855
O O6 0.662038 0.625107 0.817145
O O7 0.821395 0.674543 0.990151
O O8 0.754100 0.885329 0.767283
O O9 0.741238 0.000000 0.992617
O O10 0.847191 0.847191 0.000000
O O11 0.618799 0.381202 0.500000
O O12 0.669861 0.500000 0.299941
O O13 0.760800 0.343262 0.353999
O O14 0.804016 0.195985 0.500000
#
# Coordination Sequence:
#
# PCOD9556683 Si02
#       5
#     8   8   8   8   8
#     4  10  19  34  58  89 126 170 222 280 336 392
#     4  11  23  41  64  98 142 185 232 283 339 407
#     4  12  26  47  72 101 135 176 224 281 358 429
#     4  11  21  37  65  99 143 194 243 288 339 401
#     4  11  21  40  65  94 129 172 223 283 341 403
#
# _framework density 20.921484
#
# number of rings (size 3 to 8) (size 9 to 14) (size 15 to 20)
#    0.000    1.000    6.000    2.400    0.000    4.400 
#    0.000    1.000    0.000    0.000    0.000    0.000 
#    0.000    0.000    0.000    0.000    0.000    0.000 
#
# Total GULP energy -222831.835050 kJ/mol
# GULP energy per Si atom -5570.795876 kJ/mol
# Density = 2.087387 g / cm^3
# Si number density = 20.921484 Si / 1000 Ang^3
#
#
#
# Elastic Constant Matrix: (Units=GPa)
#
#
# Indices 1 2 3 4 5 6 
#
# 1 107.6608 31.4159 32.6637 0.0000 0.0000 0.0000
# 2 31.4159 107.6616 32.6667 0.0000 0.0000 0.0000
# 3 32.6637 32.6667 82.5783 0.0000 0.0000 0.0000
# 4 0.0000 0.0000 0.0000 9.1262 0.0000 0.0000
# 5 0.0000 0.0000 0.0000 0.0000 9.1264 0.0000
# 6 0.0000 0.0000 0.0000 0.0000 0.0000 15.0042
#
#
#
# Elastic Compliance Matrix: (Units=1/GPa)
#
#
# Indices 1 2 3 4 5 6 
#
# 1 0.010973 -0.002142 -0.003493 0.000000 0.000000 0.000000
# 2 -0.002142 0.010973 -0.003494 0.000000 0.000000 0.000000
# 3 -0.003493 -0.003494 0.014873 0.000000 0.000000 0.000000
# 4 0.000000 0.000000 0.000000 0.109575 0.000000 0.000000
# 5 0.000000 0.000000 0.000000 0.000000 0.109572 0.000000
# 6 0.000000 0.000000 0.000000 0.000000 0.000000 0.066648
#
#
# Mechanical properties :
#
#
# Convention : Reuss Voigt Hill
#
# Bulk Modulus (GPa) = 53.87200 54.59925 54.23563
# Shear Modulus (GPa) = 14.40673 20.06165 17.23419
#
# Velocity S-wave (km/s) = 2.62698 3.09997 2.87323
# Velocity P-wave (km/s) = 5.91666 6.24235 6.08169
#
# Compressibility (1/GPa) = 0.01856252
#
# Stress axis : x y z
#
# Youngs Moduli (GPa) = 91.13029 91.12868 67.23406
#
# Poissons Ratio (x) = 0.19521 0.23485
# Poissons Ratio (y) = 0.19522 0.23489
# Poissons Ratio (z) = 0.31832 0.31837
#
# Static dielectric constant tensor:
#      x y z
#    x 1.808590 0.000000 0.000000 
#    y 0.000000 1.808590 0.000000 
#    z 0.000000 0.000000 1.789090 
# 
# From -- ./inp_files/1619.got.cif
#   From: 2010.05.17/outbox.cif.g08.bks.cpg/sg115_1_cif.got.tgz:1619.got - 2010.05.20 11:07:42.
