data_PCOD9556616
_publ_section_title
;
Structure prediction by ZEFSAII (Michael W. Deem and Ramdas Pophale) SiO2 
 PCOD9556616
Probable space group: P -4 M 2
;
_chemical_formula_sum "Si O2"
_cell_formula_units_Z 53
_cell_length_a 18.888140
_cell_length_b 18.888140
_cell_length_c 11.274855
_cell_angle_alpha 90.000000
_cell_angle_beta 90.000000
_cell_angle_gamma 90.000000
_cell_volume 4022.437933
_symmetry_space_group_name_H-M "P -4 M 2"
_symmetry_group_IT_number 115
_symmetry_cell_setting 'tetragonal'
loop_
_space_group_symop_operation_xyz
x,y,z
y,-x,-z
-x,-y,z
-y,x,-z
y,x,-z
-y,-x,-z
-x,y,z
x,-y,z
loop_
_atom_site_type_symbol
_atom_site_label
_atom_site_fract_x
_atom_site_fract_y
_atom_site_fract_z
Si Si1 0.415316 0.295673 0.498774
Si Si2 0.422507 0.500000 0.738557
Si Si3 0.643387 0.634328 0.865081
Si Si4 0.414612 0.225394 0.745617
Si Si5 0.584638 0.776636 0.244159
Si Si6 0.500000 0.500000 0.500000
Si Si7 0.920100 0.585986 0.135594
Si Si8 0.921944 0.585810 0.859515
O O1 0.364480 0.364480 0.500000
O O2 0.500000 0.309635 0.512355
O O3 0.396340 0.246304 0.610820
O O4 0.404712 0.253827 0.375799
O O5 0.500000 0.500000 0.795481
O O6 0.385670 0.428519 0.780750
O O7 0.437602 0.500000 0.597671
O O8 0.615880 0.710296 0.823642
O O9 0.727209 0.626455 0.847530
O O10 0.621415 0.621415 0.000000
O O11 0.500000 0.227229 0.757355
O O12 0.390558 0.147614 0.787879
O O13 0.500000 0.771032 0.219059
O O14 0.606768 0.857338 0.223938
O O15 0.920753 0.500000 0.140413
O O16 0.000000 0.609010 0.170950
O O17 0.909291 0.605356 0.997180
O O18 0.923862 0.500000 0.857683
O O19 0.000000 0.611215 0.824103
#
# Coordination Sequence:
#
# PCOD9556616 Si02
#       8
#     8   4   8   8   8   1   8   8
#     4  10  20  34  45  57  79 113 159 192 222 256
#     4  10  24  37  44  57  73 107 148 185 221 261
#     4  12  23  31  44  62  83 110 138 186 229 258
#     4  10  20  32  44  61  81 109 140 184 218 265
#     4  10  19  32  44  60  81 109 139 181 220 264
#     4   8  24  44  50  52  64 108 152 198 212 260
#     4   8  14  27  47  66  82 101 128 167 220 276
#     4   8  14  26  46  66  82 101 128 166 217 276
#
# _framework density 13.176088999999999
#
# number of rings (size 3 to 8) (size 9 to 14) (size 15 to 20)
#    0.226    2.113    2.264    2.264    2.113    2.566 
#    0.000    0.755    0.000    4.528    0.000    0.000 
#    0.000    0.000    0.000    0.000    0.000    0.755 
#
# Total GULP energy -295149.745156 kJ/mol
# GULP energy per Si atom -5568.863116 kJ/mol
# Density = 1.314610 g / cm^3
# Si number density = 13.176089 Si / 1000 Ang^3
#
#
#
# Elastic Constant Matrix: (Units=GPa)
#
#
# Indices 1 2 3 4 5 6 
#
# 1 76.5493 30.8648 36.7567 0.0000 0.0000 0.0000
# 2 30.8648 76.5493 36.7567 0.0000 0.0000 0.0000
# 3 36.7567 36.7567 82.1043 0.0000 0.0000 0.0000
# 4 0.0000 0.0000 0.0000 14.1193 0.0000 0.0000
# 5 0.0000 0.0000 0.0000 0.0000 14.1193 0.0000
# 6 0.0000 0.0000 0.0000 0.0000 0.0000 4.1606
#
#
#
# Elastic Compliance Matrix: (Units=1/GPa)
#
#
# Indices 1 2 3 4 5 6 
#
# 1 0.017656 -0.004234 -0.006009 0.000000 0.000000 0.000000
# 2 -0.004234 0.017656 -0.006009 0.000000 0.000000 0.000000
# 3 -0.006009 -0.006009 0.017560 0.000000 0.000000 0.000000
# 4 0.000000 0.000000 0.000000 0.070825 0.000000 0.000000
# 5 0.000000 0.000000 0.000000 0.000000 0.070825 0.000000
# 6 0.000000 0.000000 0.000000 0.000000 0.000000 0.240351
#
#
# Mechanical properties :
#
#
# Convention : Reuss Voigt Hill
#
# Bulk Modulus (GPa) = 49.09510 49.32880 49.21195
# Shear Modulus (GPa) = 10.54485 15.20148 12.87317
#
# Velocity S-wave (km/s) = 2.83203 3.40033 3.12911
# Velocity P-wave (km/s) = 6.93076 7.27569 7.10532
#
# Compressibility (1/GPa) = 0.02036863
#
# Stress axis : x y z
#
# Youngs Moduli (GPa) = 56.63880 56.63880 56.94832
#
# Poissons Ratio (x) = 0.23978 0.34220
# Poissons Ratio (y) = 0.23978 0.34220
# Poissons Ratio (z) = 0.34034 0.34034
#
# Static dielectric constant tensor:
#      x y z
#    x 1.438310 0.000000 0.000000 
#    y 0.000000 1.438310 0.000000 
#    z 0.000000 0.000000 1.458470 
# 
# From -- ./inp_files/3183.got.cif
#   From: 2010.05.17/outbox.cif.g08.bks.cpg/sg115_2_cif.got.tgz:3183.got - 2010.05.20 11:07:42.
