data_PCOD9556960
_publ_section_title
;
Structure prediction by ZEFSAII (Michael W. Deem and Ramdas Pophale) SiO2 
 PCOD9556960
Probable space group: P -4 M 2
;
_chemical_formula_sum "Si O2"
_cell_formula_units_Z 40
_cell_length_a 9.233621
_cell_length_b 9.233621
_cell_length_c 26.494756
_cell_angle_alpha 90.000000
_cell_angle_beta 90.000000
_cell_angle_gamma 90.000000
_cell_volume 2258.936452
_symmetry_space_group_name_H-M "P -4 M 2"
_symmetry_group_IT_number 115
_symmetry_cell_setting 'tetragonal'
loop_
_space_group_symop_operation_xyz
x,y,z
y,-x,-z
-x,-y,z
-y,x,-z
y,x,-z
-y,-x,-z
-x,y,z
x,-y,z
loop_
_atom_site_type_symbol
_atom_site_label
_atom_site_fract_x
_atom_site_fract_y
_atom_site_fract_z
Si Si1 0.328245 0.672074 0.941498
Si Si2 0.676674 0.667641 0.444230
Si Si3 0.827697 0.171168 0.149288
Si Si4 0.670973 0.326061 0.757843
Si Si5 0.834019 0.676436 0.655583
O O1 0.500000 0.698144 0.933780
O O2 0.304201 0.500000 0.933947
O O3 0.236471 0.762291 0.901963
O O4 0.294558 0.705443 0.000000
O O5 0.720696 0.720696 0.500000
O O6 0.500000 0.668358 0.445009
O O7 0.720630 0.500000 0.437617
O O8 0.725064 0.761905 0.396805
O O9 0.753002 0.251474 0.196115
O O10 0.000000 0.193242 0.150651
O O11 0.797993 0.000000 0.152187
O O12 0.500000 0.296253 0.757736
O O13 0.689765 0.500000 0.763325
O O14 0.742121 0.281654 0.704635
O O15 0.833241 0.500000 0.654450
O O16 0.000000 0.723788 0.660004
#
# Coordination Sequence:
#
# PCOD9556960 Si02
#       5
#     8   8   8   8   8
#     4   9  19  37  60  84 108 135 171 214 256 299
#     4   8  13  22  38  61  89 121 158 200 244 291
#     4  11  24  38  52  75 108 142 174 210 254 305
#     4  10  20  34  54  78 102 131 171 217 261 307
#     4   9  16  26  43  69  99 128 160 203 254 304
#
# _framework density 17.707446999999998
#
# number of rings (size 3 to 8) (size 9 to 14) (size 15 to 20)
#    0.000    2.600    0.000    3.600    0.000    8.800 
#    0.000    3.000    0.000    1.200    0.000    2.800 
#    0.000    0.000    0.000    0.000    0.000    0.000 
#
# Total GULP energy -223142.979128 kJ/mol
# GULP energy per Si atom -5578.574478 kJ/mol
# Density = 1.766714 g / cm^3
# Si number density = 17.707447 Si / 1000 Ang^3
#
#
#
# Elastic Constant Matrix: (Units=GPa)
#
#
# Indices 1 2 3 4 5 6 
#
# 1 79.5561 64.4627 93.2044 0.0000 0.0000 0.0000
# 2 64.4627 79.5560 93.2041 0.0000 0.0000 0.0000
# 3 93.2044 93.2041 184.6345 0.0000 0.0000 0.0000
# 4 0.0000 0.0000 0.0000 -13.3599 0.0000 0.0000
# 5 0.0000 0.0000 0.0000 0.0000 -13.3600 0.0000
# 6 0.0000 0.0000 0.0000 0.0000 0.0000 21.0264
#
#
#
# Elastic Compliance Matrix: (Units=1/GPa)
#
#
# Indices 1 2 3 4 5 6 
#
# 1 0.043144 -0.023111 -0.010113 0.000000 0.000000 0.000000
# 2 -0.023111 0.043143 -0.010112 0.000000 0.000000 0.000000
# 3 -0.010113 -0.010112 0.015626 0.000000 0.000000 0.000000
# 4 0.000000 0.000000 0.000000 -0.074851 0.000000 0.000000
# 5 0.000000 0.000000 0.000000 0.000000 -0.074850 0.000000
# 6 0.000000 0.000000 0.000000 0.000000 0.000000 0.047559
#
#
# Mechanical properties :
#
#
# Convention : Reuss Voigt Hill
#
# Bulk Modulus (GPa) = 65.61341 93.94322 79.77832
# Shear Modulus (GPa) = 54.63124 5.05300 29.84212
#
# Velocity S-wave (km/s) = 5.56049 1.69109 4.10968
# Velocity P-wave (km/s) = 8.85212 7.54859 8.22621
#
# Compressibility (1/GPa) = 0.01524079
#
# Stress axis : x y z
#
# Youngs Moduli (GPa) = 23.17841 23.17856 63.99694
#
# Poissons Ratio (x) = 0.53568 0.64718
# Poissons Ratio (y) = 0.53568 0.64716
# Poissons Ratio (z) = 0.23439 0.23439
#
# Static dielectric constant tensor:
#      x y z
#    x 1.584630 0.000000 0.000000 
#    y 0.000000 1.584630 0.000000 
#    z 0.000000 0.000000 1.594890 
# 
# From -- ./inp_files/5071.got.cif
#   From: 2010.05.17/outbox.cif.g08.bks.cpg/sg115_3_cif.got.tgz:5071.got - 2010.05.20 11:07:42.
