data_PCOD9556035
_publ_section_title
;
Structure prediction by ZEFSAII (Michael W. Deem and Ramdas Pophale) SiO2 
 PCOD9556035
Probable space group: P -4 21 C
;
_chemical_formula_sum "Si O2"
_cell_formula_units_Z 40
_cell_length_a 8.179140
_cell_length_b 8.179140
_cell_length_c 24.303036
_cell_angle_alpha 90.000000
_cell_angle_beta 90.000000
_cell_angle_gamma 90.000000
_cell_volume 1625.832550
_symmetry_space_group_name_H-M "P -4 21 C"
_symmetry_group_IT_number 114
_symmetry_cell_setting 'tetragonal'
loop_
_space_group_symop_operation_xyz
x,y,z
y,-x,-z
-x,-y,z
-y,x,-z
1/2+x,1/2-y,1/2-z
1/2-x,1/2+y,1/2-z
1/2-y,1/2-x,1/2+z
1/2+y,1/2+x,1/2+z
loop_
_atom_site_type_symbol
_atom_site_label
_atom_site_fract_x
_atom_site_fract_y
_atom_site_fract_z
Si Si1 0.221061 0.615273 0.684954
Si Si2 0.267733 0.617089 0.885506
Si Si3 0.619478 0.244827 0.779466
Si Si4 0.112191 0.764306 0.981269
Si Si5 0.738439 0.378884 0.080435
O O1 0.370327 0.694794 0.717113
O O2 0.190727 0.433844 0.706833
O O3 0.208367 0.627043 0.619419
O O4 0.068970 0.729129 0.703902
O O5 0.279820 0.633665 0.819706
O O6 0.123384 0.707420 0.918167
O O7 0.289197 0.431485 0.905130
O O8 0.432546 0.711346 0.904589
O O9 0.205176 0.631358 0.018063
O O10 0.931324 0.793314 0.003951
#
# Coordination Sequence:
#
# PCOD9556035 Si02
#       5
#     8   8   8   8   8
#     4  10  21  37  58  84 114 149 188 230 278 331
#     4  10  21  38  60  84 110 144 186 230 278 332
#     4  10  21  37  58  84 114 149 188 230 278 331
#     4  11  24  39  56  82 114 147 184 227 276 330
#     4  10  21  38  60  84 110 144 186 230 278 332
#
# _framework density 24.602779000000002
#
# number of rings (size 3 to 8) (size 9 to 14) (size 15 to 20)
#    0.000    1.800    0.000    3.600    0.000   10.400 
#    0.000    0.000    0.000    0.000    0.000    0.000 
#    0.000    0.000    0.000    0.000    0.000    0.000 
#
# Total GULP energy -223811.644979 kJ/mol
# GULP energy per Si atom -5595.291124 kJ/mol
# Density = 2.454678 g / cm^3
# Si number density = 24.602779 Si / 1000 Ang^3
#
#
#
# Elastic Constant Matrix: (Units=GPa)
#
#
# Indices 1 2 3 4 5 6 
#
# 1 31.8668 11.5293 0.2106 0.0000 0.0000 0.0000
# 2 11.5293 31.8668 0.2106 0.0000 0.0000 0.0000
# 3 0.2106 0.2106 73.4041 0.0000 0.0000 0.0000
# 4 0.0000 0.0000 0.0000 30.9064 0.0000 0.0000
# 5 0.0000 0.0000 0.0000 0.0000 30.9064 0.0000
# 6 0.0000 0.0000 0.0000 0.0000 0.0000 21.8773
#
#
#
# Elastic Compliance Matrix: (Units=1/GPa)
#
#
# Indices 1 2 3 4 5 6 
#
# 1 0.036107 -0.013063 -0.000066 0.000000 0.000000 0.000000
# 2 -0.013063 0.036107 -0.000066 0.000000 0.000000 0.000000
# 3 -0.000066 -0.000066 0.013624 0.000000 0.000000 0.000000
# 4 0.000000 0.000000 0.000000 0.032356 0.000000 0.000000
# 5 0.000000 0.000000 0.000000 0.000000 0.032356 0.000000
# 6 0.000000 0.000000 0.000000 0.000000 0.000000 0.045709
#
#
# Mechanical properties :
#
#
# Convention : Reuss Voigt Hill
#
# Bulk Modulus (GPa) = 16.82156 17.89319 17.35737
# Shear Modulus (GPa) = 20.62151 25.08383 22.85267
#
# Velocity S-wave (km/s) = 2.89827 3.19651 3.05104
# Velocity P-wave (km/s) = 4.24877 4.57298 4.41386
#
# Compressibility (1/GPa) = 0.05944752
#
# Stress axis : x y z
#
# Youngs Moduli (GPa) = 27.69532 27.69532 73.40203
#
# Poissons Ratio (x) = 0.36178 0.00485
# Poissons Ratio (y) = 0.36178 0.00485
# Poissons Ratio (z) = 0.00183 0.00183
#
# Static dielectric constant tensor:
#      x y z
#    x 1.941350 0.000000 0.000000 
#    y 0.000000 1.941350 0.000000 
#    z 0.000000 0.000000 1.965620 
# 
# From -- ./inp_files/3339.got.cif
#   From: 2010.05.17/outbox.cif.g08.bks.cpg/sg114_2_cif.got.tgz:3339.got - 2010.05.20 11:04:54.
