data_PCOD9556222
_publ_section_title
;
Structure prediction by ZEFSAII (Michael W. Deem and Ramdas Pophale) SiO2 
 PCOD9556222
Probable space group: P -4 21 C
;
_chemical_formula_sum "Si O2"
_cell_formula_units_Z 60
_cell_length_a 11.218047
_cell_length_b 11.218047
_cell_length_c 22.230525
_cell_angle_alpha 90.000000
_cell_angle_beta 90.000000
_cell_angle_gamma 90.000000
_cell_volume 2797.591048
_symmetry_space_group_name_H-M "P -4 21 C"
_symmetry_group_IT_number 114
_symmetry_cell_setting 'tetragonal'
loop_
_space_group_symop_operation_xyz
x,y,z
y,-x,-z
-x,-y,z
-y,x,-z
1/2+x,1/2-y,1/2-z
1/2-x,1/2+y,1/2-z
1/2-y,1/2-x,1/2+z
1/2+y,1/2+x,1/2+z
loop_
_atom_site_type_symbol
_atom_site_label
_atom_site_fract_x
_atom_site_fract_y
_atom_site_fract_z
Si Si1 0.052616 0.265898 0.568917
Si Si2 0.859909 0.984934 0.321613
Si Si3 0.799397 0.737103 0.386105
Si Si4 0.547065 0.871334 0.107440
Si Si5 0.500000 0.000000 0.853889
Si Si6 0.754671 0.644689 0.268665
Si Si7 0.187229 0.727161 0.497943
Si Si8 0.967694 0.318645 0.252059
O O1 0.034230 0.390147 0.603348
O O2 0.167671 0.265501 0.528683
O O3 0.069446 0.167064 0.621066
O O4 0.939977 0.234745 0.527080
O O5 0.815135 0.858038 0.346866
O O6 0.773821 0.025262 0.267823
O O7 0.000000 0.000000 0.306926
O O8 0.935323 0.715522 0.406364
O O9 0.765179 0.633068 0.340100
O O10 0.701124 0.748323 0.438402
O O11 0.653906 0.848601 0.060712
O O12 0.561359 0.866017 0.180224
O O13 0.500000 0.000000 0.091815
O O14 0.600666 0.957384 0.807205
O O15 0.886010 0.699316 0.251748
O O16 0.634157 0.719078 0.255520
#
# Coordination Sequence:
#
# PCOD9556222 Si02
#       8
#     8   8   8   8   4   8   8   8
#     4  11  24  38  66  99 141 186 230 292 364 421
#     4  11  21  39  64  99 137 179 225 288 359 433
#     4  10  23  40  61  97 139 176 230 290 348 420
#     4  11  23  41  66  98 133 183 230 296 360 422
#     4  12  24  44  66 104 142 186 238 304 364 438
#     4  11  23  40  66  98 137 186 228 290 364 423
#     4  11  22  40  61  97 135 183 234 284 352 426
#     4  11  23  43  67  99 141 181 234 290 364 434
#
# _framework density 21.447023999999999
#
# number of rings (size 3 to 8) (size 9 to 14) (size 15 to 20)
#    0.000    1.067    3.333    4.800    2.800    0.000 
#    0.000    0.000    0.000    0.000    0.000    0.000 
#    0.000    0.000    0.000    0.000    0.000    0.000 
#
# Total GULP energy -334084.360543 kJ/mol
# GULP energy per Si atom -5568.072676 kJ/mol
# Density = 2.139821 g / cm^3
# Si number density = 21.447024 Si / 1000 Ang^3
#
#
#
# Elastic Constant Matrix: (Units=GPa)
#
#
# Indices 1 2 3 4 5 6 
#
# 1 85.2040 29.5632 41.1626 0.0000 0.0000 0.0000
# 2 29.5632 85.2040 41.1626 0.0000 0.0000 0.0000
# 3 41.1626 41.1626 145.6404 0.0000 0.0000 0.0000
# 4 0.0000 0.0000 0.0000 18.0328 0.0000 0.0000
# 5 0.0000 0.0000 0.0000 0.0000 18.0328 0.0000
# 6 0.0000 0.0000 0.0000 0.0000 0.0000 28.3658
#
#
#
# Elastic Compliance Matrix: (Units=1/GPa)
#
#
# Indices 1 2 3 4 5 6 
#
# 1 0.014451 -0.003522 -0.003089 0.000000 0.000000 0.000000
# 2 -0.003522 0.014451 -0.003089 0.000000 0.000000 0.000000
# 3 -0.003089 -0.003089 0.008612 0.000000 0.000000 0.000000
# 4 0.000000 0.000000 0.000000 0.055454 0.000000 0.000000
# 5 0.000000 0.000000 0.000000 0.000000 0.055454 0.000000
# 6 0.000000 0.000000 0.000000 0.000000 0.000000 0.035254
#
#
# Mechanical properties :
#
#
# Convention : Reuss Voigt Hill
#
# Bulk Modulus (GPa) = 55.20364 59.98058 57.59211
# Shear Modulus (GPa) = 23.91048 26.49697 25.20372
#
# Velocity S-wave (km/s) = 3.34258 3.51873 3.43178
# Velocity P-wave (km/s) = 6.37907 6.67354 6.52797
#
# Compressibility (1/GPa) = 0.01811475
#
# Stress axis : x y z
#
# Youngs Moduli (GPa) = 69.20071 69.20071 116.11357
#
# Poissons Ratio (x) = 0.24370 0.35866
# Poissons Ratio (y) = 0.24370 0.35866
# Poissons Ratio (z) = 0.21375 0.21375
#
# Static dielectric constant tensor:
#      x y z
#    x 1.859110 0.000000 0.000000 
#    y 0.000000 1.859110 0.000000 
#    z 0.000000 0.000000 1.841230 
# 
# From -- ./inp_files/3237.got.cif
#   From: 2010.05.17/outbox.cif.g08.bks.cpg/sg114_2_cif.got.tgz:3237.got - 2010.05.20 11:04:54.
