data_PCOD9556932
_publ_section_title
;
Structure prediction by ZEFSAII (Michael W. Deem and Ramdas Pophale) SiO2 
 PCOD9556932
Probable space group: P -4 M 2
;
_chemical_formula_sum "Si O2"
_cell_formula_units_Z 48
_cell_length_a 9.244191
_cell_length_b 9.244191
_cell_length_c 32.305798
_cell_angle_alpha 90.000000
_cell_angle_beta 90.000000
_cell_angle_gamma 90.000000
_cell_volume 2760.694140
_symmetry_space_group_name_H-M "P -4 M 2"
_symmetry_group_IT_number 115
_symmetry_cell_setting 'tetragonal'
loop_
_space_group_symop_operation_xyz
x,y,z
y,-x,-z
-x,-y,z
-y,x,-z
y,x,-z
-y,-x,-z
-x,y,z
x,-y,z
loop_
_atom_site_type_symbol
_atom_site_label
_atom_site_fract_x
_atom_site_fract_y
_atom_site_fract_z
Si Si1 0.827023 0.328232 0.294713
Si Si2 0.176357 0.832423 0.045346
Si Si3 0.166348 0.823930 0.622003
Si Si4 0.826632 0.328591 0.461959
Si Si5 0.666551 0.323680 0.211103
Si Si6 0.673311 0.829291 0.871696
O O1 0.800660 0.500000 0.300573
O O2 0.778089 0.242844 0.335474
O O3 0.748839 0.279158 0.252810
O O4 0.000000 0.309875 0.289874
O O5 0.222375 0.743892 0.085501
O O6 0.000000 0.828989 0.044087
O O7 0.219255 0.000000 0.049823
O O8 0.223107 0.776894 0.000000
O O9 0.254529 0.780831 0.581195
O O10 0.000000 0.776517 0.619814
O O11 0.167457 0.000000 0.622501
O O12 0.744946 0.255054 0.500000
O O13 0.800414 0.500000 0.460503
O O14 0.000000 0.306280 0.466722
O O15 0.500000 0.278879 0.211853
O O16 0.671077 0.500000 0.210780
O O17 0.744803 0.275971 0.169016
O O18 0.500000 0.815062 0.874748
O O19 0.705896 0.000000 0.866646
#
# Coordination Sequence:
#
# PCOD9556932 Si02
#       6
#     8   8   8   8   8   8
#     4   9  16  28  48  71  92 117 154 196 231 268
#     4   8  14  26  44  64  86 113 144 178 219 267
#     4   9  17  30  50  75 100 126 158 197 240 284
#     4  10  20  34  53  77 104 134 168 205 245 289
#     4   9  17  29  45  65  90 120 151 183 224 273
#     4   9  16  27  45  67  87 110 146 188 222 257
#
# _framework density 17.386932999999999
#
# number of rings (size 3 to 8) (size 9 to 14) (size 15 to 20)
#    0.000    3.000    0.000    2.000    0.000    5.000 
#    0.000    2.500    0.000   10.000    0.000    0.000 
#    0.000    0.000    0.000    0.000    0.000    0.000 
#
# Total GULP energy -267467.874109 kJ/mol
# GULP energy per Si atom -5572.247377 kJ/mol
# Density = 1.734736 g / cm^3
# Si number density = 17.386933 Si / 1000 Ang^3
#
#
#
# Elastic Constant Matrix: (Units=GPa)
#
#
# Indices 1 2 3 4 5 6 
#
# 1 46.4303 39.7538 73.2047 0.0000 0.0000 0.0000
# 2 39.7538 46.4304 73.2048 0.0000 0.0000 0.0000
# 3 73.2047 73.2048 228.4358 0.0000 0.0000 0.0000
# 4 0.0000 0.0000 0.0000 162.9077 0.0000 0.0000
# 5 0.0000 0.0000 0.0000 0.0000 162.9257 0.0000
# 6 0.0000 0.0000 0.0000 0.0000 0.0000 11.4604
#
#
#
# Elastic Compliance Matrix: (Units=1/GPa)
#
#
# Indices 1 2 3 4 5 6 
#
# 1 0.087623 -0.062155 -0.008161 0.000000 0.000000 0.000000
# 2 -0.062155 0.087622 -0.008161 0.000000 0.000000 0.000000
# 3 -0.008161 -0.008161 0.009608 0.000000 0.000000 0.000000
# 4 0.000000 0.000000 0.000000 0.006138 0.000000 0.000000
# 5 0.000000 0.000000 0.000000 0.000000 0.006138 0.000000
# 6 0.000000 0.000000 0.000000 0.000000 0.000000 0.087257
#
#
# Mechanical properties :
#
#
# Convention : Reuss Voigt Hill
#
# Bulk Modulus (GPa) = 35.84472 77.06923 56.45697
# Shear Modulus (GPa) = 11.09529 76.46762 43.78146
#
# Velocity S-wave (km/s) = 2.52888 6.63893 5.02348
# Velocity P-wave (km/s) = 5.40256 10.15822 8.13563
#
# Compressibility (1/GPa) = 0.02789811
#
# Stress axis : x y z
#
# Youngs Moduli (GPa) = 11.41256 11.41262 104.07560
#
# Poissons Ratio (x) = 0.70935 0.84941
# Poissons Ratio (y) = 0.70935 0.84939
# Poissons Ratio (z) = 0.09314 0.09314
#
# Static dielectric constant tensor:
#      x y z
#    x 1.582350 0.000000 0.000000 
#    y 0.000000 1.582350 0.000000 
#    z 0.000000 0.000000 1.584290 
# 
# From -- ./inp_files/6094.got.cif
#   From: 2010.05.17/outbox.cif.g08.bks.cpg/sg115_4_cif.got.tgz:6094.got - 2010.05.20 11:07:42.
