data_PCOD9556074
_publ_section_title
;
Structure prediction by ZEFSAII (Michael W. Deem and Ramdas Pophale) SiO2 
 PCOD9556074
Probable space group: P -4 21 C
;
_chemical_formula_sum "Si O2"
_cell_formula_units_Z 48
_cell_length_a 8.799021
_cell_length_b 8.799021
_cell_length_c 29.854280
_cell_angle_alpha 90.000000
_cell_angle_beta 90.000000
_cell_angle_gamma 90.000000
_cell_volume 2311.401071
_symmetry_space_group_name_H-M "P -4 21 C"
_symmetry_group_IT_number 114
_symmetry_cell_setting 'tetragonal'
loop_
_space_group_symop_operation_xyz
x,y,z
y,-x,-z
-x,-y,z
-y,x,-z
1/2+x,1/2-y,1/2-z
1/2-x,1/2+y,1/2-z
1/2-y,1/2-x,1/2+z
1/2+y,1/2+x,1/2+z
loop_
_atom_site_type_symbol
_atom_site_label
_atom_site_fract_x
_atom_site_fract_y
_atom_site_fract_z
Si Si1 0.611025 0.858054 0.338740
Si Si2 0.304610 0.824256 0.589055
Si Si3 0.190408 0.830422 0.995386
Si Si4 0.822629 0.803826 0.191773
Si Si5 0.674307 0.828088 0.096972
Si Si6 0.178281 0.979864 0.266191
O O1 0.705753 0.781887 0.378933
O O2 0.498313 0.738584 0.314819
O O3 0.727944 0.921731 0.302216
O O4 0.500000 0.000000 0.352348
O O5 0.271896 0.786975 0.537218
O O6 0.487799 0.811792 0.594788
O O7 0.273291 0.000707 0.598427
O O8 0.229938 0.757498 0.947725
O O9 0.013207 0.795800 0.006044
O O10 0.752555 0.784058 0.143023
O O11 0.795128 0.963567 0.215607
O O12 0.741974 0.686238 0.224973
O O13 0.000000 0.000000 0.275188
#
# Coordination Sequence:
#
# PCOD9556074 Si02
#       6
#     8   8   8   8   8   8
#     4  10  23  42  63  95 125 174 222 269 331 393
#     4  10  21  40  64  97 130 168 215 271 331 392
#     4   9  18  37  63  93 123 161 214 267 326 396
#     4  11  24  41  65  95 129 173 224 267 332 394
#     4  10  22  39  65  96 130 171 216 273 330 395
#     4  11  24  42  62  93 128 171 215 275 328 388
#
# _framework density 20.766625999999999
#
# number of rings (size 3 to 8) (size 9 to 14) (size 15 to 20)
#    0.000    1.833    0.000    3.000    4.667    1.333 
#   18.000    0.000    0.000    0.000    0.000    0.000 
#    0.000    0.000    0.000    0.000    0.000    0.000 
#
# Total GULP energy -268227.146540 kJ/mol
# GULP energy per Si atom -5588.065553 kJ/mol
# Density = 2.071936 g / cm^3
# Si number density = 20.766626 Si / 1000 Ang^3
#
#
#
# Elastic Constant Matrix: (Units=GPa)
#
#
# Indices 1 2 3 4 5 6 
#
# 1 82.5167 34.9810 58.6019 0.0000 0.0000 0.0000
# 2 34.9810 82.5167 58.6019 0.0000 0.0000 0.0000
# 3 58.6019 58.6019 112.9683 0.0000 0.0000 0.0000
# 4 0.0000 0.0000 0.0000 43.3393 0.0000 0.0000
# 5 0.0000 0.0000 0.0000 0.0000 43.3393 0.0000
# 6 0.0000 0.0000 0.0000 0.0000 0.0000 34.2187
#
#
#
# Elastic Compliance Matrix: (Units=1/GPa)
#
#
# Indices 1 2 3 4 5 6 
#
# 1 0.019337 -0.001700 -0.009149 0.000000 0.000000 0.000000
# 2 -0.001700 0.019337 -0.009149 0.000000 0.000000 0.000000
# 3 -0.009149 -0.009149 0.018344 0.000000 0.000000 0.000000
# 4 0.000000 0.000000 0.000000 0.023074 0.000000 0.000000
# 5 0.000000 0.000000 0.000000 0.000000 0.023074 0.000000
# 6 0.000000 0.000000 0.000000 0.000000 0.000000 0.029224
#
#
# Mechanical properties :
#
#
# Convention : Reuss Voigt Hill
#
# Bulk Modulus (GPa) = 58.74842 64.70788 61.72815
# Shear Modulus (GPa) = 28.08045 32.56724 30.32384
#
# Velocity S-wave (km/s) = 3.68120 3.96441 3.82543
# Velocity P-wave (km/s) = 6.81319 7.22375 7.02147
#
# Compressibility (1/GPa) = 0.01702173
#
# Stress axis : x y z
#
# Youngs Moduli (GPa) = 51.71445 51.71445 54.51301
#
# Poissons Ratio (x) = 0.08791 0.49875
# Poissons Ratio (y) = 0.08791 0.49875
# Poissons Ratio (z) = 0.47314 0.47314
#
# Static dielectric constant tensor:
#      x y z
#    x 1.742400 0.000000 0.000000 
#    y 0.000000 1.742400 0.000000 
#    z 0.000000 0.000000 1.707010 
# 
# From -- ./inp_files/3981.got.cif
#   From: 2010.05.17/outbox.cif.g08.bks.cpg/sg114_2_cif.got.tgz:3981.got - 2010.05.20 11:04:54.
