data_PCOD9556391
_publ_section_title
;
Structure prediction by ZEFSAII (Michael W. Deem and Ramdas Pophale) SiO2 
 PCOD9556391
Probable space group: P -4 21 C
;
_chemical_formula_sum "Si O2"
_cell_formula_units_Z 56
_cell_length_a 13.938708
_cell_length_b 13.938708
_cell_length_c 13.583086
_cell_angle_alpha 90.000000
_cell_angle_beta 90.000000
_cell_angle_gamma 90.000000
_cell_volume 2639.024918
_symmetry_space_group_name_H-M "P -4 21 C"
_symmetry_group_IT_number 114
_symmetry_cell_setting 'tetragonal'
loop_
_space_group_symop_operation_xyz
x,y,z
y,-x,-z
-x,-y,z
-y,x,-z
1/2+x,1/2-y,1/2-z
1/2-x,1/2+y,1/2-z
1/2-y,1/2-x,1/2+z
1/2+y,1/2+x,1/2+z
loop_
_atom_site_type_symbol
_atom_site_label
_atom_site_fract_x
_atom_site_fract_y
_atom_site_fract_z
Si Si1 0.968885 0.335739 0.128229
Si Si2 0.368585 0.690110 0.129733
Si Si3 0.654778 0.453889 0.497213
Si Si4 0.054501 0.711245 0.558051
Si Si5 0.950809 0.284371 0.338586
Si Si6 0.319798 0.268984 0.661316
Si Si7 0.143677 0.335842 0.533627
O O1 0.871039 0.394766 0.120091
O O2 0.998544 0.332886 0.242896
O O3 0.052668 0.374949 0.056991
O O4 0.949413 0.228108 0.088622
O O5 0.309660 0.613601 0.064731
O O6 0.484006 0.690055 0.140843
O O7 0.325631 0.677737 0.237348
O O8 0.348426 0.792890 0.076397
O O9 0.561532 0.386593 0.512692
O O10 0.714373 0.417104 0.401618
O O11 0.050651 0.669538 0.446973
O O12 0.943591 0.722709 0.583508
O O13 0.838458 0.284605 0.315818
O O14 0.240527 0.312376 0.589336
#
# Coordination Sequence:
#
# PCOD9556391 Si02
#       7
#     8   8   8   8   8   8   8
#     4  12  22  44  69  99 139 180 234 293 345 425
#     4  11  23  45  68  96 141 181 230 289 354 425
#     4  11  23  41  70 103 136 178 231 289 350 415
#     4  11  24  43  65  98 139 180 228 293 351 419
#     4  11  23  40  70  98 131 188 235 277 352 424
#     4  12  22  45  68 100 138 181 229 291 354 415
#     4  11  24  44  69  98 135 186 230 283 360 414
#
# _framework density 21.219957999999998
#
# number of rings (size 3 to 8) (size 9 to 14) (size 15 to 20)
#    0.000    0.714    7.143    0.429    0.000    0.000 
#    7.714    2.143    0.000    0.000    0.000    0.000 
#    0.000    0.000    0.000    0.000    0.000    0.000 
#
# Total GULP energy -312029.263715 kJ/mol
# GULP energy per Si atom -5571.951138 kJ/mol
# Density = 2.117166 g / cm^3
# Si number density = 21.219958 Si / 1000 Ang^3
#
#
#
# Elastic Constant Matrix: (Units=GPa)
#
#
# Indices 1 2 3 4 5 6 
#
# 1 94.9889 21.4158 20.0956 0.0000 0.0000 0.0000
# 2 21.4158 94.9889 20.0956 0.0000 0.0000 0.0000
# 3 20.0956 20.0956 120.6077 0.0000 0.0000 0.0000
# 4 0.0000 0.0000 0.0000 18.8255 0.0000 0.0000
# 5 0.0000 0.0000 0.0000 0.0000 18.8255 0.0000
# 6 0.0000 0.0000 0.0000 0.0000 0.0000 18.1493
#
#
#
# Elastic Compliance Matrix: (Units=1/GPa)
#
#
# Indices 1 2 3 4 5 6 
#
# 1 0.011354 -0.002238 -0.001519 0.000000 0.000000 0.000000
# 2 -0.002238 0.011354 -0.001519 0.000000 0.000000 0.000000
# 3 -0.001519 -0.001519 0.008797 0.000000 0.000000 0.000000
# 4 0.000000 0.000000 0.000000 0.053119 0.000000 0.000000
# 5 0.000000 0.000000 0.000000 0.000000 0.053119 0.000000
# 6 0.000000 0.000000 0.000000 0.000000 0.000000 0.055098
#
#
# Mechanical properties :
#
#
# Convention : Reuss Voigt Hill
#
# Bulk Modulus (GPa) = 47.72668 48.19994 47.96331
# Shear Modulus (GPa) = 23.76677 27.75863 25.76270
#
# Velocity S-wave (km/s) = 3.35030 3.62074 3.48814
# Velocity P-wave (km/s) = 6.12423 6.34377 6.23497
#
# Compressibility (1/GPa) = 0.02095264
#
# Stress axis : x y z
#
# Youngs Moduli (GPa) = 88.07842 88.07842 113.66919
#
# Poissons Ratio (x) = 0.19716 0.17264
# Poissons Ratio (y) = 0.19716 0.17264
# Poissons Ratio (z) = 0.13377 0.13377
#
# Static dielectric constant tensor:
#      x y z
#    x 1.811240 0.000000 0.000000 
#    y 0.000000 1.811240 0.000000 
#    z 0.000000 0.000000 1.772280 
# 
# From -- ./inp_files/1744.got.cif
#   From: 2010.05.17/outbox.cif.g08.bks.cpg/sg114_1_cif.got.tgz:1744.got - 2010.05.20 11:04:54.
