data_PCOD9556263
_publ_section_title
;
Structure prediction by ZEFSAII (Michael W. Deem and Ramdas Pophale) SiO2 
 PCOD9556263
Probable space group: P -4 21 C
;
_chemical_formula_sum "Si O2"
_cell_formula_units_Z 52
_cell_length_a 17.416847
_cell_length_b 17.416847
_cell_length_c 8.322631
_cell_angle_alpha 90.000000
_cell_angle_beta 90.000000
_cell_angle_gamma 90.000000
_cell_volume 2524.641479
_symmetry_space_group_name_H-M "P -4 21 C"
_symmetry_group_IT_number 114
_symmetry_cell_setting 'tetragonal'
loop_
_space_group_symop_operation_xyz
x,y,z
y,-x,-z
-x,-y,z
-y,x,-z
1/2+x,1/2-y,1/2-z
1/2-x,1/2+y,1/2-z
1/2-y,1/2-x,1/2+z
1/2+y,1/2+x,1/2+z
loop_
_atom_site_type_symbol
_atom_site_label
_atom_site_fract_x
_atom_site_fract_y
_atom_site_fract_z
Si Si1 0.756613 0.754939 0.144768
Si Si2 0.500000 0.000000 0.981646
Si Si3 0.744313 0.877876 0.882941
Si Si4 0.128401 0.501642 0.766677
Si Si5 0.048566 0.903096 0.079306
Si Si6 0.253276 0.878288 0.592030
Si Si7 0.549961 0.394643 0.931459
O O1 0.683747 0.728483 0.249378
O O2 0.825505 0.778636 0.262579
O O3 0.726630 0.824551 0.035299
O O4 0.785073 0.685279 0.032772
O O5 0.473222 0.070725 0.091652
O O6 0.429551 0.972575 0.871358
O O7 0.677470 0.929211 0.808476
O O8 0.814580 0.931698 0.932829
O O9 0.184917 0.436876 0.836057
O O10 0.084325 0.931616 0.247401
O O11 0.957626 0.916212 0.059297
O O12 0.187170 0.923524 0.497152
O O13 0.460239 0.406617 0.966111
#
# Coordination Sequence:
#
# PCOD9556263 Si02
#       7
#     8   4   8   8   8   8   8
#     4  10  24  42  62  96 138 170 229 281 340 420
#     4  10  24  46  68 102 136 176 246 292 344 412
#     4  11  23  42  66  95 132 178 223 281 352 401
#     4  11  23  43  72  97 135 181 230 294 351 407
#     4  11  24  41  64  96 132 173 221 275 333 413
#     4  11  23  42  68  97 134 179 222 284 348 410
#     4  11  23  40  64  94 131 172 220 267 334 410
#
# _framework density 20.596983000000002
#
# number of rings (size 3 to 8) (size 9 to 14) (size 15 to 20)
#    0.000    1.231    1.538    4.615    6.462    0.000 
#    0.000    1.538    0.000    0.000    0.000    0.000 
#    0.000    0.000    0.000    0.000    0.000    0.000 
#
# Total GULP energy -290453.508132 kJ/mol
# GULP energy per Si atom -5585.644387 kJ/mol
# Density = 2.055010 g / cm^3
# Si number density = 20.596983 Si / 1000 Ang^3
#
#
#
# Elastic Constant Matrix: (Units=GPa)
#
#
# Indices 1 2 3 4 5 6 
#
# 1 82.1884 35.4346 39.5688 0.0000 0.0000 0.0000
# 2 35.4346 82.1884 39.5688 0.0000 0.0000 0.0000
# 3 39.5688 39.5688 102.8653 0.0000 0.0000 0.0000
# 4 0.0000 0.0000 0.0000 22.0337 0.0000 0.0000
# 5 0.0000 0.0000 0.0000 0.0000 22.0337 0.0000
# 6 0.0000 0.0000 0.0000 0.0000 0.0000 31.2710
#
#
#
# Elastic Compliance Matrix: (Units=1/GPa)
#
#
# Indices 1 2 3 4 5 6 
#
# 1 0.016429 -0.004959 -0.004412 0.000000 0.000000 0.000000
# 2 -0.004959 0.016429 -0.004412 0.000000 0.000000 0.000000
# 3 -0.004412 -0.004412 0.013116 0.000000 0.000000 0.000000
# 4 0.000000 0.000000 0.000000 0.045385 0.000000 0.000000
# 5 0.000000 0.000000 0.000000 0.000000 0.045385 0.000000
# 6 0.000000 0.000000 0.000000 0.000000 0.000000 0.031979
#
#
# Mechanical properties :
#
#
# Convention : Reuss Voigt Hill
#
# Bulk Modulus (GPa) = 54.32536 55.15404 54.73970
# Shear Modulus (GPa) = 24.70028 25.24564 24.97296
#
# Velocity S-wave (km/s) = 3.46673 3.50479 3.48581
# Velocity P-wave (km/s) = 6.51590 6.57373 6.54488
#
# Compressibility (1/GPa) = 0.01840761
#
# Stress axis : x y z
#
# Youngs Moduli (GPa) = 60.86614 60.86614 76.24311
#
# Poissons Ratio (x) = 0.30185 0.33640
# Poissons Ratio (y) = 0.30185 0.33640
# Poissons Ratio (z) = 0.26856 0.26856
#
# Static dielectric constant tensor:
#      x y z
#    x 1.718690 0.000000 0.000000 
#    y 0.000000 1.718690 0.000000 
#    z 0.000000 0.000000 1.761750 
# 
# From -- ./inp_files/991.got.cif
#   From: 2010.05.17/outbox.cif.g08.bks.cpg/sg114_1_cif.got.tgz:991.got - 2010.05.20 11:04:54.
