data_PCOD9556059
_publ_section_title
;
Structure prediction by ZEFSAII (Michael W. Deem and Ramdas Pophale) SiO2 
 PCOD9556059
Probable space group: P -4 21 C
;
_chemical_formula_sum "Si O2"
_cell_formula_units_Z 40
_cell_length_a 18.650443
_cell_length_b 18.650443
_cell_length_c 5.082527
_cell_angle_alpha 90.000000
_cell_angle_beta 90.000000
_cell_angle_gamma 90.000000
_cell_volume 1767.901232
_symmetry_space_group_name_H-M "P -4 21 C"
_symmetry_group_IT_number 114
_symmetry_cell_setting 'tetragonal'
loop_
_space_group_symop_operation_xyz
x,y,z
y,-x,-z
-x,-y,z
-y,x,-z
1/2+x,1/2-y,1/2-z
1/2-x,1/2+y,1/2-z
1/2-y,1/2-x,1/2+z
1/2+y,1/2+x,1/2+z
loop_
_atom_site_type_symbol
_atom_site_label
_atom_site_fract_x
_atom_site_fract_y
_atom_site_fract_z
Si Si1 0.367974 0.401568 0.677531
Si Si2 0.156774 0.063906 0.666010
Si Si3 0.819949 0.385628 0.797545
Si Si4 0.037115 0.395879 0.366692
Si Si5 0.722525 0.161188 0.619267
O O1 0.348433 0.483729 0.725277
O O2 0.387434 0.384788 0.378417
O O3 0.300721 0.355609 0.777877
O O4 0.430700 0.378436 0.878508
O O5 0.238790 0.089979 0.655816
O O6 0.831273 0.348723 0.517302
O O7 0.868833 0.457201 0.817696
O O8 0.050408 0.433151 0.645683
O O9 0.089794 0.326550 0.357135
O O10 0.717873 0.187196 0.320146
#
# Coordination Sequence:
#
# PCOD9556059 Si02
#       5
#     8   8   8   8   8
#     4  12  26  47  72  98 138 170 226 284 333 406
#     4  12  28  47  71 101 131 179 224 279 345 391
#     4  12  26  44  68 102 144 177 221 278 340 406
#     4  10  21  39  65  97 134 179 224 263 320 396
#     4  10  21  39  68  98 129 174 221 264 318 391
#
# _framework density 22.625699999999998
#
# number of rings (size 3 to 8) (size 9 to 14) (size 15 to 20)
#    0.000    0.800    2.000    4.800    0.000    9.600 
#    0.000    0.000    0.000    0.000    0.000    0.000 
#    0.000    0.000    0.000    0.000    0.000    0.000 
#
# Total GULP energy -224244.015371 kJ/mol
# GULP energy per Si atom -5606.100384 kJ/mol
# Density = 2.257420 g / cm^3
# Si number density = 22.625700 Si / 1000 Ang^3
#
#
#
# Elastic Constant Matrix: (Units=GPa)
#
#
# Indices 1 2 3 4 5 6 
#
# 1 15.8755 71.4689 -10.4279 0.0000 0.0000 0.0000
# 2 71.4689 15.8755 -10.4279 0.0000 0.0000 0.0000
# 3 -10.4279 -10.4279 63.3573 0.0000 0.0000 0.0000
# 4 0.0000 0.0000 0.0000 18.7780 0.0000 0.0000
# 5 0.0000 0.0000 0.0000 0.0000 18.7780 0.0000
# 6 0.0000 0.0000 0.0000 0.0000 0.0000 15.7068
#
#
#
# Elastic Compliance Matrix: (Units=1/GPa)
#
#
# Indices 1 2 3 4 5 6 
#
# 1 -0.003035 0.014953 0.001961 0.000000 0.000000 0.000000
# 2 0.014953 -0.003035 0.001961 0.000000 0.000000 0.000000
# 3 0.001961 0.001961 0.016429 0.000000 0.000000 0.000000
# 4 0.000000 0.000000 0.000000 0.053254 0.000000 0.000000
# 5 0.000000 0.000000 0.000000 0.000000 0.053254 0.000000
# 6 0.000000 0.000000 0.000000 0.000000 0.000000 0.063667
#
#
# Mechanical properties :
#
#
# Convention : Reuss Voigt Hill
#
# Bulk Modulus (GPa) = 20.78591 21.81495 21.30043
# Shear Modulus (GPa) = 31.48236 13.61889 22.55062
#
# Velocity S-wave (km/s) = 3.73425 2.45607 3.16045
# Velocity P-wave (km/s) = 5.27254 4.20781 4.76997
#
# Compressibility (1/GPa) = 0.04810952
#
# Stress axis : x y z
#
# Youngs Moduli (GPa) = -329.46331 -329.46331 60.86737
#
# Poissons Ratio (x) = 4.92630 -0.11939
# Poissons Ratio (y) = 4.92630 -0.11939
# Poissons Ratio (z) = 0.64623 0.64623
#
# Static dielectric constant tensor:
#      x y z
#    x 1.824470 0.000000 0.000000 
#    y 0.000000 1.824470 0.000000 
#    z 0.000000 0.000000 1.775400 
# 
# From -- ./inp_files/148.got.cif
#   From: 2010.05.17/outbox.cif.g08.bks.cpg/sg114_1_cif.got.tgz:148.got - 2010.05.20 11:04:54.
