data_PCOD9556741
_publ_section_title
;
Structure prediction by ZEFSAII (Michael W. Deem and Ramdas Pophale) SiO2 
 PCOD9556741
Probable space group: P -4 M 2
;
_chemical_formula_sum "Si O2"
_cell_formula_units_Z 48
_cell_length_a 9.431444
_cell_length_b 9.431444
_cell_length_c 31.822351
_cell_angle_alpha 90.000000
_cell_angle_beta 90.000000
_cell_angle_gamma 90.000000
_cell_volume 2830.666092
_symmetry_space_group_name_H-M "P -4 M 2"
_symmetry_group_IT_number 115
_symmetry_cell_setting 'tetragonal'
loop_
_space_group_symop_operation_xyz
x,y,z
y,-x,-z
-x,-y,z
-y,x,-z
y,x,-z
-y,-x,-z
-x,y,z
x,-y,z
loop_
_atom_site_type_symbol
_atom_site_label
_atom_site_fract_x
_atom_site_fract_y
_atom_site_fract_z
Si Si1 0.667450 0.669317 0.048380
Si Si2 0.827444 0.663400 0.796416
Si Si3 0.166656 0.829636 0.120891
Si Si4 0.327444 0.836600 0.296416
Si Si5 0.329636 0.666656 0.379109
Si Si6 0.167450 0.830683 0.548381
O O1 0.500000 0.699502 0.054243
O O2 0.686430 0.500000 0.053420
O O3 0.758432 0.753877 0.081959
O O4 0.704432 0.704432 0.000000
O O5 0.781449 0.500000 0.802421
O O6 0.784073 0.758768 0.835581
O O7 0.784262 0.715738 0.750000
O O8 0.000000 0.661992 0.795224
O O9 0.000000 0.798638 0.121881
O O10 0.184359 0.000000 0.117224
O O11 0.500000 0.838008 0.295224
O O12 0.284073 0.741232 0.335581
O O13 0.281449 0.000000 0.302421
O O14 0.500000 0.684359 0.382777
O O15 0.298638 0.500000 0.378119
O O16 0.253877 0.741567 0.418041
O O17 0.204432 0.795569 0.500000
O O18 0.000000 0.800497 0.554243
O O19 0.186429 0.000000 0.553420
#
# Coordination Sequence:
#
# PCOD9556741 Si02
#       6
#     8   8   8   8   8   8
#     4   9  19  36  55  73  94 124 165 208 246 288
#     4   8  14  27  48  70  92 125 170 211 241 275
#     4  10  20  32  48  74 106 134 160 195 242 294
#     4   8  14  27  48  70  92 125 170 211 241 275
#     4  10  20  32  48  74 106 134 160 195 242 294
#     4   9  19  36  55  73  94 124 165 208 246 288
#
# _framework density 16.957139000000002
#
# number of rings (size 3 to 8) (size 9 to 14) (size 15 to 20)
#    0.000    3.000    0.000    3.000    0.000    4.000 
#    0.000    6.667    0.000    6.000    0.000    0.000 
#    0.000    0.000    0.000    0.000    0.000    0.000 
#
# Total GULP energy -267513.478661 kJ/mol
# GULP energy per Si atom -5573.197472 kJ/mol
# Density = 1.691854 g / cm^3
# Si number density = 16.957139 Si / 1000 Ang^3
#
#
#
# Elastic Constant Matrix: (Units=GPa)
#
#
# Indices 1 2 3 4 5 6 
#
# 1 60.8146 50.0908 90.7164 0.0000 0.0000 0.0000
# 2 50.0908 60.8146 90.7165 0.0000 0.0000 0.0000
# 3 90.7164 90.7165 205.0983 0.0000 0.0000 0.0000
# 4 0.0000 0.0000 0.0000 29.8235 0.0000 0.0000
# 5 0.0000 0.0000 0.0000 0.0000 29.8235 0.0000
# 6 0.0000 0.0000 0.0000 0.0000 0.0000 23.9199
#
#
#
# Elastic Compliance Matrix: (Units=1/GPa)
#
#
# Indices 1 2 3 4 5 6 
#
# 1 0.062935 -0.030315 -0.014428 0.000000 0.000000 0.000000
# 2 -0.030315 0.062935 -0.014428 0.000000 0.000000 0.000000
# 3 -0.014428 -0.014428 0.017639 0.000000 0.000000 0.000000
# 4 0.000000 0.000000 0.000000 0.033531 0.000000 0.000000
# 5 0.000000 0.000000 0.000000 0.000000 0.033531 0.000000
# 6 0.000000 0.000000 0.000000 0.000000 0.000000 0.041806
#
#
# Mechanical properties :
#
#
# Convention : Reuss Voigt Hill
#
# Bulk Modulus (GPa) = 39.73528 87.75277 63.74403
# Shear Modulus (GPa) = 13.18886 23.06031 18.12459
#
# Velocity S-wave (km/s) = 2.79189 3.69171 3.27287
# Velocity P-wave (km/s) = 5.82035 8.36861 7.20799
#
# Compressibility (1/GPa) = 0.02516655
#
# Stress axis : x y z
#
# Youngs Moduli (GPa) = 15.88940 15.88937 56.69300
#
# Poissons Ratio (x) = 0.48169 0.81796
# Poissons Ratio (y) = 0.48169 0.81797
# Poissons Ratio (z) = 0.22925 0.22925
#
# Static dielectric constant tensor:
#      x y z
#    x 1.560280 0.000000 0.000000 
#    y 0.000000 1.560280 0.000000 
#    z 0.000000 0.000000 1.572050 
# 
# From -- ./inp_files/5915.got.cif
#   From: 2010.05.17/outbox.cif.g08.bks.cpg/sg115_3_cif.got.tgz:5915.got - 2010.05.20 11:07:42.
