data_PCOD9556978
_publ_section_title
;
Structure prediction by ZEFSAII (Michael W. Deem and Ramdas Pophale) SiO2 
 PCOD9556978
Probable space group: P -4 M 2
;
_chemical_formula_sum "Si O2"
_cell_formula_units_Z 48
_cell_length_a 9.164040
_cell_length_b 9.164040
_cell_length_c 32.423449
_cell_angle_alpha 90.000000
_cell_angle_beta 90.000000
_cell_angle_gamma 90.000000
_cell_volume 2722.909222
_symmetry_space_group_name_H-M "P -4 M 2"
_symmetry_group_IT_number 115
_symmetry_cell_setting 'tetragonal'
loop_
_space_group_symop_operation_xyz
x,y,z
y,-x,-z
-x,-y,z
-y,x,-z
y,x,-z
-y,-x,-z
-x,y,z
x,-y,z
loop_
_atom_site_type_symbol
_atom_site_label
_atom_site_fract_x
_atom_site_fract_y
_atom_site_fract_z
Si Si1 0.326369 0.173927 0.038878
Si Si2 0.827623 0.324759 0.115888
Si Si3 0.668590 0.322368 0.199584
Si Si4 0.669103 0.321905 0.545167
Si Si5 0.668538 0.677988 0.709855
Si Si6 0.167550 0.321850 0.627561
O O1 0.500000 0.200267 0.037544
O O2 0.258477 0.242065 0.080160
O O3 0.302196 0.000000 0.037608
O O4 0.249593 0.249593 0.000000
O O5 0.805438 0.500000 0.111410
O O6 0.766058 0.280830 0.160718
O O7 0.000000 0.296619 0.112828
O O8 0.500000 0.276676 0.193284
O O9 0.667825 0.500000 0.201550
O O10 0.721215 0.273451 0.244909
O O11 0.725105 0.274896 0.500000
O O12 0.500000 0.279423 0.549425
O O13 0.672519 0.500000 0.544148
O O14 0.755556 0.273169 0.585415
O O15 0.500000 0.723111 0.705929
O O16 0.669959 0.500000 0.710456
O O17 0.755152 0.726875 0.669643
O O18 0.174484 0.500000 0.627557
O O19 0.000000 0.278725 0.627622
#
# Coordination Sequence:
#
# PCOD9556978 Si02
#       6
#     8   8   8   8   8   8
#     4  11  24  40  58  81 107 136 171 208 247 292
#     4  10  20  34  54  80 107 135 168 205 246 292
#     4   8  14  26  45  68  94 126 163 199 233 273
#     4   8  13  21  33  49  71 102 138 171 206 258
#     4   8  13  22  37  56  80 114 152 184 219 269
#     4   9  15  21  31  52  82 109 132 170 226 273
#
# _framework density 17.628202999999999
#
# number of rings (size 3 to 8) (size 9 to 14) (size 15 to 20)
#    0.000    3.000    0.000    3.500    0.000    6.333 
#    0.000    0.833    0.000    3.000    0.000    1.167 
#    0.000    9.667    0.000    0.000    0.000    0.000 
#
# Total GULP energy -267427.869277 kJ/mol
# GULP energy per Si atom -5571.413943 kJ/mol
# Density = 1.758808 g / cm^3
# Si number density = 17.628203 Si / 1000 Ang^3
#
#
#
# Elastic Constant Matrix: (Units=GPa)
#
#
# Indices 1 2 3 4 5 6 
#
# 1 57.9662 42.2728 73.6579 0.0000 0.0000 0.0000
# 2 42.2728 57.9664 73.6579 0.0000 0.0000 0.0000
# 3 73.6579 73.6579 221.8576 0.0000 0.0000 0.0000
# 4 0.0000 0.0000 0.0000 -7.7726 0.0000 0.0000
# 5 0.0000 0.0000 0.0000 0.0000 -7.7726 0.0000
# 6 0.0000 0.0000 0.0000 0.0000 0.0000 11.7605
#
#
#
# Elastic Compliance Matrix: (Units=1/GPa)
#
#
# Indices 1 2 3 4 5 6 
#
# 1 0.041601 -0.022119 -0.006468 0.000000 0.000000 0.000000
# 2 -0.022119 0.041601 -0.006468 0.000000 0.000000 0.000000
# 3 -0.006468 -0.006468 0.008802 0.000000 0.000000 0.000000
# 4 0.000000 0.000000 0.000000 -0.128657 0.000000 0.000000
# 5 0.000000 0.000000 0.000000 0.000000 -0.128657 0.000000
# 6 0.000000 0.000000 0.000000 0.000000 0.000000 0.085030
#
#
# Mechanical properties :
#
#
# Convention : Reuss Voigt Hill
#
# Bulk Modulus (GPa) = 45.67506 79.66304 62.66905
# Shear Modulus (GPa) = -1742.20294 9.12317 -866.53988
#
# Velocity S-wave (km/s) = -31.47141 2.27740 -22.19531
# Velocity P-wave (km/s) = 35.98101 7.22525 24.92418
#
# Compressibility (1/GPa) = 0.02189379
#
# Stress axis : x y z
#
# Youngs Moduli (GPa) = 24.03773 24.03781 113.60668
#
# Poissons Ratio (x) = 0.53170 0.73482
# Poissons Ratio (y) = 0.53170 0.73482
# Poissons Ratio (z) = 0.15548 0.15548
#
# Static dielectric constant tensor:
#      x y z
#    x 1.581600 0.000000 0.000000 
#    y 0.000000 1.581600 0.000000 
#    z 0.000000 0.000000 1.615960 
# 
# From -- ./inp_files/6071.got.cif
#   From: 2010.05.17/outbox.cif.g08.bks.cpg/sg115_4_cif.got.tgz:6071.got - 2010.05.20 11:07:42.
