data_PCOD9556813
_publ_section_title
;
Structure prediction by ZEFSAII (Michael W. Deem and Ramdas Pophale) SiO2 
 PCOD9556813
Probable space group: P -4 M 2
;
_chemical_formula_sum "Si O2"
_cell_formula_units_Z 48
_cell_length_a 9.092065
_cell_length_b 9.092065
_cell_length_c 31.997960
_cell_angle_alpha 90.000000
_cell_angle_beta 90.000000
_cell_angle_gamma 90.000000
_cell_volume 2645.132033
_symmetry_space_group_name_H-M "P -4 M 2"
_symmetry_group_IT_number 115
_symmetry_cell_setting 'tetragonal'
loop_
_space_group_symop_operation_xyz
x,y,z
y,-x,-z
-x,-y,z
-y,x,-z
y,x,-z
-y,-x,-z
-x,y,z
x,-y,z
loop_
_atom_site_type_symbol
_atom_site_label
_atom_site_fract_x
_atom_site_fract_y
_atom_site_fract_z
Si Si1 0.830879 0.178986 0.205307
Si Si2 0.329975 0.320814 0.454071
Si Si3 0.176748 0.325957 0.880594
Si Si4 0.672668 0.823117 0.290600
Si Si5 0.825165 0.675213 0.039933
Si Si6 0.171535 0.677292 0.369321
O O1 0.742366 0.222616 0.163906
O O2 0.754688 0.226355 0.248338
O O3 0.000000 0.227457 0.203249
O O4 0.830043 0.000000 0.205761
O O5 0.274537 0.274537 0.500000
O O6 0.500000 0.274826 0.448693
O O7 0.329697 0.500000 0.455413
O O8 0.236346 0.275053 0.414143
O O9 0.205672 0.500000 0.881497
O O10 0.257573 0.245388 0.918363
O O11 0.000000 0.305383 0.885007
O O12 0.500000 0.790390 0.287398
O O13 0.741154 0.748931 0.331285
O O14 0.689273 0.000000 0.293851
O O15 0.801327 0.500000 0.038379
O O16 0.000000 0.702549 0.039487
O O17 0.750727 0.750727 0.000000
O O18 0.186038 0.500000 0.367068
O O19 0.000000 0.714645 0.366291
#
# Coordination Sequence:
#
# PCOD9556813 Si02
#       6
#     8   8   8   8   8   8
#     4   9  17  31  53  79 107 140 176 216 264 315
#     4   8  14  27  48  70  92 124 167 211 253 300
#     4  10  20  35  57  84 111 140 177 219 262 312
#     4  10  20  34  53  77 104 136 176 220 264 311
#     4  11  24  40  58  82 111 143 180 221 265 314
#     4  10  20  33  50  74 104 137 171 209 257 312
#
# _framework density 18.146542
#
# number of rings (size 3 to 8) (size 9 to 14) (size 15 to 20)
#    0.000    2.333    0.000    3.500    0.000    8.333 
#    0.000    1.667    0.000    8.000    0.000    0.000 
#    0.000    0.000    0.000    0.000    0.000    0.000 
#
# Total GULP energy -267922.124422 kJ/mol
# GULP energy per Si atom -5581.710925 kJ/mol
# Density = 1.810524 g / cm^3
# Si number density = 18.146542 Si / 1000 Ang^3
#
#
#
# Elastic Constant Matrix: (Units=GPa)
#
#
# Indices 1 2 3 4 5 6 
#
# 1 76.9412 60.7135 77.0157 0.0000 0.0000 0.0000
# 2 60.7135 76.9412 77.0157 0.0000 0.0000 0.0000
# 3 77.0157 77.0157 203.3627 0.0000 0.0000 0.0000
# 4 0.0000 0.0000 0.0000 34.7366 0.0000 0.0000
# 5 0.0000 0.0000 0.0000 0.0000 34.7366 0.0000
# 6 0.0000 0.0000 0.0000 0.0000 0.0000 22.6428
#
#
#
# Elastic Compliance Matrix: (Units=1/GPa)
#
#
# Indices 1 2 3 4 5 6 
#
# 1 0.037115 -0.024508 -0.004774 0.000000 0.000000 0.000000
# 2 -0.024508 0.037115 -0.004774 0.000000 0.000000 0.000000
# 3 -0.004774 -0.004774 0.008534 0.000000 0.000000 0.000000
# 4 0.000000 0.000000 0.000000 0.028788 0.000000 0.000000
# 5 0.000000 0.000000 0.000000 0.000000 0.028788 0.000000
# 6 0.000000 0.000000 0.000000 0.000000 0.000000 0.044164
#
#
# Mechanical properties :
#
#
# Convention : Reuss Voigt Hill
#
# Bulk Modulus (GPa) = 68.25992 87.41497 77.83745
# Shear Modulus (GPa) = 19.41746 27.92323 23.67035
#
# Velocity S-wave (km/s) = 3.27469 3.92696 3.61557
# Velocity P-wave (km/s) = 7.21081 8.29685 7.77282
#
# Compressibility (1/GPa) = 0.01464988
#
# Stress axis : x y z
#
# Youngs Moduli (GPa) = 26.94339 26.94339 117.18457
#
# Poissons Ratio (x) = 0.66033 0.55948
# Poissons Ratio (y) = 0.66033 0.55948
# Poissons Ratio (z) = 0.12864 0.12864
#
# Static dielectric constant tensor:
#      x y z
#    x 1.609150 0.000000 0.000000 
#    y 0.000000 1.609150 0.000000 
#    z 0.000000 0.000000 1.600740 
# 
# From -- ./inp_files/6069.got.cif
#   From: 2010.05.17/outbox.cif.g08.bks.cpg/sg115_4_cif.got.tgz:6069.got - 2010.05.20 11:07:42.
