data_PCOD9556521
_publ_section_title
;
Structure prediction by ZEFSAII (Michael W. Deem and Ramdas Pophale) SiO2 
 PCOD9556521
Probable space group: P -4 21 C
;
_chemical_formula_sum "Si O2"
_cell_formula_units_Z 40
_cell_length_a 9.000000
_cell_length_b 9.000000
_cell_length_c 24.000000
_cell_angle_alpha 90.000000
_cell_angle_beta 90.000000
_cell_angle_gamma 90.000000
_cell_volume 1944.000000
_symmetry_space_group_name_H-M "P -4 21 C"
_symmetry_group_IT_number 114
_symmetry_cell_setting 'tetragonal'
loop_
_space_group_symop_operation_xyz
x,y,z
y,-x,-z
-x,-y,z
-y,x,-z
1/2+x,1/2-y,1/2-z
1/2-x,1/2+y,1/2-z
1/2-y,1/2-x,1/2+z
1/2+y,1/2+x,1/2+z
loop_
_atom_site_type_symbol
_atom_site_label
_atom_site_fract_x
_atom_site_fract_y
_atom_site_fract_z
Si Si1 0.667093 0.436354 0.691147
Si Si2 0.162663 0.421026 0.797749
Si Si3 0.672726 0.550666 0.915615
Si Si4 0.821841 0.522620 0.572787
Si Si5 0.800347 0.286547 0.489756
O O1 0.500000 0.500000 0.689217
O O2 0.757559 0.514551 0.742028
O O3 0.655307 0.259265 0.703465
O O4 0.745627 0.470940 0.631016
O O5 0.259696 0.450957 0.853756
O O6 0.000000 0.500000 0.802275
O O7 0.500000 0.500000 0.915002
O O8 0.676908 0.701519 0.951247
O O9 0.776044 0.451961 0.955790
O O10 0.763959 0.445243 0.515410
O O11 0.781844 0.690462 0.556175
O O12 0.000000 0.500000 0.577258
#
# Coordination Sequence:
#
# PCOD9556521 Si02
#       5
#     8   8   8   8   8
#     4  12  29  52  76 108 142 192 247 306 371 436
#     4  12  29  50  79 106 146 190 247 304 369 438
#     4  12  23  45  72 106 145 193 244 288 358 438
#     4  12  27  45  72 106 151 188 245 298 361 432
#     4  12  25  43  70 107 149 196 238 297 359 434
#
# _framework density 20.576132000000001
#
# number of rings (size 3 to 8) (size 9 to 14) (size 15 to 20)
#    0.000    0.000    6.000    2.400   11.200    0.000 
#    0.000    0.000    0.000    0.000    0.000    0.000 
#    0.000    0.000    0.000    0.000    0.000    0.000 
#
# Total GULP energy -223395.891173 kJ/mol
# GULP energy per Si atom -5584.897279 kJ/mol
# Density = 2.052930 g / cm^3
# Si number density = 20.576132 Si / 1000 Ang^3
#
#
#
# Elastic Constant Matrix: (Units=GPa)
#
#
# Indices 1 2 3 4 5 6 
#
# 1 93.0030 19.5677 35.0075 0.0000 0.0000 0.0000
# 2 19.5677 93.0030 35.0075 0.0000 0.0000 0.0000
# 3 35.0075 35.0075 157.1693 0.0000 0.0000 0.0000
# 4 0.0000 0.0000 0.0000 38.6389 0.0000 0.0000
# 5 0.0000 0.0000 0.0000 0.0000 38.6389 0.0000
# 6 0.0000 0.0000 0.0000 0.0000 0.0000 31.8640
#
#
#
# Elastic Compliance Matrix: (Units=1/GPa)
#
#
# Indices 1 2 3 4 5 6 
#
# 1 0.011965 -0.001653 -0.002297 0.000000 0.000000 0.000000
# 2 -0.001653 0.011965 -0.002297 0.000000 0.000000 0.000000
# 3 -0.002297 -0.002297 0.007386 0.000000 0.000000 0.000000
# 4 0.000000 0.000000 0.000000 0.025881 0.000000 0.000000
# 5 0.000000 0.000000 0.000000 0.000000 0.025881 0.000000
# 6 0.000000 0.000000 0.000000 0.000000 0.000000 0.031383
#
#
# Mechanical properties :
#
#
# Convention : Reuss Voigt Hill
#
# Bulk Modulus (GPa) = 53.12898 58.03785 55.58341
# Shear Modulus (GPa) = 37.53001 38.73453 38.13227
#
# Velocity S-wave (km/s) = 4.27542 4.34348 4.30958
# Velocity P-wave (km/s) = 7.08865 7.30904 7.19969
#
# Compressibility (1/GPa) = 0.01882212
#
# Stress axis : x y z
#
# Youngs Moduli (GPa) = 83.57958 83.57958 135.39582
#
# Poissons Ratio (x) = 0.13814 0.31098
# Poissons Ratio (y) = 0.13814 0.31098
# Poissons Ratio (z) = 0.19197 0.19197
#
# Static dielectric constant tensor:
#      x y z
#    x 1.915990 0.000000 0.000000 
#    y 0.000000 1.915990 0.000000 
#    z 0.000000 0.000000 1.663570 
# 
# From -- ./inp_files/3398.got.cif
#   From: 2010.05.17/outbox.ucp.g08.bks.cvg/sg114_2_cif.got.tgz:3398.got - 2010.06.11 11:33:27.
