data_PCOD9556076
_publ_section_title
;
Structure prediction by ZEFSAII (Michael W. Deem and Ramdas Pophale) SiO2 
 PCOD9556076
Probable space group: P -4 21 C
;
_chemical_formula_sum "Si O2"
_cell_formula_units_Z 48
_cell_length_a 7.885018
_cell_length_b 7.885018
_cell_length_c 29.401734
_cell_angle_alpha 90.000000
_cell_angle_beta 90.000000
_cell_angle_gamma 90.000000
_cell_volume 1828.008969
_symmetry_space_group_name_H-M "P -4 21 C"
_symmetry_group_IT_number 114
_symmetry_cell_setting 'tetragonal'
loop_
_space_group_symop_operation_xyz
x,y,z
y,-x,-z
-x,-y,z
-y,x,-z
1/2+x,1/2-y,1/2-z
1/2-x,1/2+y,1/2-z
1/2-y,1/2-x,1/2+z
1/2+y,1/2+x,1/2+z
loop_
_atom_site_type_symbol
_atom_site_label
_atom_site_fract_x
_atom_site_fract_y
_atom_site_fract_z
Si Si1 0.907827 0.259827 0.227118
Si Si2 0.466398 0.298299 0.842689
Si Si3 0.718237 0.802572 0.103187
Si Si4 0.693390 0.647932 0.934317
Si Si5 0.375864 0.841233 0.973564
Si Si6 0.078958 0.749494 0.804232
O O1 0.818249 0.406584 0.197945
O O2 0.903129 0.323575 0.279042
O O3 0.085427 0.190776 0.209081
O O4 0.786039 0.099598 0.218971
O O5 0.500000 0.500000 0.833140
O O6 0.641865 0.242173 0.864720
O O7 0.334928 0.274426 0.884541
O O8 0.535650 0.770304 0.080295
O O9 0.846723 0.778935 0.061757
O O10 0.725401 0.944882 0.141651
O O11 0.506885 0.688313 0.957719
O O12 0.813253 0.695344 0.976096
O O13 0.500000 0.000000 0.971478
#
# Coordination Sequence:
#
# PCOD9556076 Si02
#       6
#     8   8   8   8   8   8
#     4  11  26  47  70  94 148 175 238 282 357 412
#     4   9  21  38  68  95 128 177 222 285 340 410
#     4  10  22  39  68  94 133 174 235 270 350 397
#     4  10  21  40  66  94 138 173 230 281 336 415
#     4  11  22  37  67 100 132 180 227 284 343 410
#     4  11  27  45  67 103 132 191 226 292 341 422
#
# _framework density 26.258078999999999
#
# number of rings (size 3 to 8) (size 9 to 14) (size 15 to 20)
#    0.000    1.667    1.667    2.500   11.667    3.333 
#    3.000    0.000    0.000    0.500    0.000    0.000 
#    0.000    0.000    0.000    0.000    0.000    0.000 
#
# Total GULP energy -268110.070948 kJ/mol
# GULP energy per Si atom -5585.626478 kJ/mol
# Density = 2.619831 g / cm^3
# Si number density = 26.258079 Si / 1000 Ang^3
#
#
#
# Elastic Constant Matrix: (Units=GPa)
#
#
# Indices 1 2 3 4 5 6 
#
# 1 89.0616 4.8708 27.1914 0.0000 0.0000 0.0000
# 2 4.8708 89.0616 27.1914 0.0000 0.0000 0.0000
# 3 27.1914 27.1914 136.4723 0.0000 0.0000 0.0000
# 4 0.0000 0.0000 0.0000 27.0249 0.0000 0.0000
# 5 0.0000 0.0000 0.0000 0.0000 27.0249 0.0000
# 6 0.0000 0.0000 0.0000 0.0000 0.0000 18.3405
#
#
#
# Elastic Compliance Matrix: (Units=1/GPa)
#
#
# Indices 1 2 3 4 5 6 
#
# 1 0.011956 0.000078 -0.002398 0.000000 0.000000 0.000000
# 2 0.000078 0.011956 -0.002398 0.000000 0.000000 0.000000
# 3 -0.002398 -0.002398 0.008283 0.000000 0.000000 0.000000
# 4 0.000000 0.000000 0.000000 0.037003 0.000000 0.000000
# 5 0.000000 0.000000 0.000000 0.000000 0.037003 0.000000
# 6 0.000000 0.000000 0.000000 0.000000 0.000000 0.054524
#
#
# Mechanical properties :
#
#
# Convention : Reuss Voigt Hill
#
# Bulk Modulus (GPa) = 43.93616 48.12253 46.02934
# Shear Modulus (GPa) = 28.13001 31.50086 29.81544
#
# Velocity S-wave (km/s) = 3.27661 3.46737 3.37334
# Velocity P-wave (km/s) = 5.57527 5.86488 5.72191
#
# Compressibility (1/GPa) = 0.02276030
#
# Stress axis : x y z
#
# Youngs Moduli (GPa) = 83.64025 83.64025 120.72963
#
# Poissons Ratio (x) = -0.00654 0.28948
# Poissons Ratio (y) = -0.00654 0.28948
# Poissons Ratio (z) = 0.20055 0.20055
#
# Static dielectric constant tensor:
#      x y z
#    x 2.133980 0.000000 0.000000 
#    y 0.000000 2.133980 0.000000 
#    z 0.000000 0.000000 2.087450 
# 
# From -- ./inp_files/3944.got.cif
#   From: 2010.05.17/outbox.cif.g08.bks.cpg/sg114_2_cif.got.tgz:3944.got - 2010.05.20 11:04:54.
