data_PCOD9556617
_publ_section_title
;
Structure prediction by ZEFSAII (Michael W. Deem and Ramdas Pophale) SiO2 
 PCOD9556617
Probable space group: P -4 M 2
;
_chemical_formula_sum "Si O2"
_cell_formula_units_Z 48
_cell_length_a 18.554998
_cell_length_b 18.554998
_cell_length_c 8.914148
_cell_angle_alpha 90.000000
_cell_angle_beta 90.000000
_cell_angle_gamma 90.000000
_cell_volume 3069.033748
_symmetry_space_group_name_H-M "P -4 M 2"
_symmetry_group_IT_number 115
_symmetry_cell_setting 'tetragonal'
loop_
_space_group_symop_operation_xyz
x,y,z
y,-x,-z
-x,-y,z
-y,x,-z
y,x,-z
-y,-x,-z
-x,y,z
x,-y,z
loop_
_atom_site_type_symbol
_atom_site_label
_atom_site_fract_x
_atom_site_fract_y
_atom_site_fract_z
Si Si1 0.136840 0.082014 0.653936
Si Si2 0.295033 0.811927 0.935516
Si Si3 0.827750 0.724136 0.409914
Si Si4 0.416358 0.916360 0.055258
Si Si5 0.918650 0.655222 0.638286
Si Si6 0.082626 0.208051 0.862360
O O1 0.092012 0.092012 0.500000
O O2 0.216659 0.108769 0.609596
O O3 0.107731 0.135609 0.781090
O O4 0.135856 0.000000 0.702657
O O5 0.294801 0.805221 0.757364
O O6 0.264172 0.735829 0.000000
O O7 0.368819 0.851866 0.985386
O O8 0.237336 0.869658 0.001660
O O9 0.764603 0.764603 0.500000
O O10 0.860414 0.659829 0.507969
O O11 0.500000 0.911042 0.015039
O O12 0.405147 0.909786 0.234772
O O13 0.391710 0.000000 0.019037
O O14 0.911326 0.729644 0.734266
O O15 0.000000 0.651551 0.578392
O O16 0.000000 0.202232 0.907826
#
# Coordination Sequence:
#
# PCOD9556617 Si02
#       6
#     8   8   8   8   8   8
#     4  11  20  29  42  60  87 121 166 217 265 305
#     4  11  20  34  52  74  95 127 166 209 255 305
#     4  11  19  31  47  67  91 123 167 211 251 300
#     4   9  19  36  56  77 103 134 166 207 261 315
#     4   9  16  29  48  65  86 118 158 203 252 304
#     4  10  19  32  44  61  88 121 164 212 259 304
#
# _framework density 15.640103
#
# number of rings (size 3 to 8) (size 9 to 14) (size 15 to 20)
#    0.000    1.833    5.000    3.500    0.000    3.833 
#    0.000    0.833    0.000    2.000    0.000    0.000 
#    0.000    0.333    0.000    0.000    0.000    3.667 
#
# Total GULP energy -267526.417147 kJ/mol
# GULP energy per Si atom -5573.467024 kJ/mol
# Density = 1.560451 g / cm^3
# Si number density = 15.640103 Si / 1000 Ang^3
#
#
#
# Elastic Constant Matrix: (Units=GPa)
#
#
# Indices 1 2 3 4 5 6 
#
# 1 60.6211 19.2460 18.4891 0.0000 0.0000 0.0000
# 2 19.2460 60.6214 18.4891 0.0000 0.0000 0.0000
# 3 18.4891 18.4891 85.6510 0.0000 0.0000 0.0000
# 4 0.0000 0.0000 0.0000 14.8428 0.0000 0.0000
# 5 0.0000 0.0000 0.0000 0.0000 14.8426 0.0000
# 6 0.0000 0.0000 0.0000 0.0000 0.0000 15.0756
#
#
#
# Elastic Compliance Matrix: (Units=1/GPa)
#
#
# Indices 1 2 3 4 5 6 
#
# 1 0.019040 -0.005129 -0.003003 0.000000 0.000000 0.000000
# 2 -0.005129 0.019040 -0.003003 0.000000 0.000000 0.000000
# 3 -0.003003 -0.003003 0.012972 0.000000 0.000000 0.000000
# 4 0.000000 0.000000 0.000000 0.067373 0.000000 0.000000
# 5 0.000000 0.000000 0.000000 0.000000 0.067373 0.000000
# 6 0.000000 0.000000 0.000000 0.000000 0.000000 0.066332
#
#
# Mechanical properties :
#
#
# Convention : Reuss Voigt Hill
#
# Bulk Modulus (GPa) = 34.74363 35.48244 35.11303
# Shear Modulus (GPa) = 17.60599 18.99682 18.30141
#
# Velocity S-wave (km/s) = 3.35878 3.48892 3.42447
# Velocity P-wave (km/s) = 6.10774 6.24229 6.17538
#
# Compressibility (1/GPa) = 0.02878226
#
# Stress axis : x y z
#
# Youngs Moduli (GPa) = 52.52067 52.52095 77.09063
#
# Poissons Ratio (x) = 0.26938 0.23150
# Poissons Ratio (y) = 0.26938 0.23150
# Poissons Ratio (z) = 0.15772 0.15772
#
# Static dielectric constant tensor:
#      x y z
#    x 1.533540 0.000000 0.000000 
#    y 0.000000 1.533540 0.000000 
#    z 0.000000 0.000000 1.561740 
# 
# From -- ./inp_files/1837.got.cif
#   From: 2010.05.17/outbox.cif.g08.bks.cpg/sg115_1_cif.got.tgz:1837.got - 2010.05.20 11:07:42.
