data_PCOD9556657
_publ_section_title
;
Structure prediction by ZEFSAII (Michael W. Deem and Ramdas Pophale) SiO2 
 PCOD9556657
Probable space group: P -4 M 2
;
_chemical_formula_sum "Si O2"
_cell_formula_units_Z 60
_cell_length_a 13.428039
_cell_length_b 13.428039
_cell_length_c 19.720543
_cell_angle_alpha 90.000000
_cell_angle_beta 90.000000
_cell_angle_gamma 90.000000
_cell_volume 3555.855112
_symmetry_space_group_name_H-M "P -4 M 2"
_symmetry_group_IT_number 115
_symmetry_cell_setting 'tetragonal'
loop_
_space_group_symop_operation_xyz
x,y,z
y,-x,-z
-x,-y,z
-y,x,-z
y,x,-z
-y,-x,-z
-x,y,z
x,-y,z
loop_
_atom_site_type_symbol
_atom_site_label
_atom_site_fract_x
_atom_site_fract_y
_atom_site_fract_z
Si Si1 0.770320 0.229680 0.874464
Si Si2 0.879976 0.120025 0.000000
Si Si3 0.386993 0.119129 0.780112
Si Si4 0.386515 0.879165 0.500000
Si Si5 0.880900 0.718527 0.640538
Si Si6 0.119100 0.281474 0.359461
Si Si7 0.389276 0.389276 0.919187
Si Si8 0.613007 0.119129 0.219890
O O1 0.700381 0.159992 0.828042
O O2 0.692285 0.307716 0.905139
O O3 0.840008 0.299620 0.828041
O O4 0.829784 0.170219 0.933089
O O5 0.000000 0.136675 0.000001
O O6 0.500000 0.155024 0.794639
O O7 0.355810 0.141889 0.702654
O O8 0.388506 0.000000 0.786920
O O9 0.500000 0.842622 0.500000
O O10 0.329946 0.851524 0.431219
O O11 0.329947 0.851524 0.568782
O O12 0.390338 0.000000 0.500000
O O13 0.819280 0.819280 0.650651
O O14 0.858111 0.644190 0.702653
O O15 0.000000 0.736011 0.640316
O O16 0.000000 0.263990 0.359683
O O17 0.500000 0.363533 0.893319
O O18 0.363534 0.500000 0.893319
O O19 0.396205 0.396205 0.000000
O O20 0.500000 0.155024 0.205362
O O21 0.611494 0.000000 0.213081
#
# Coordination Sequence:
#
# PCOD9556657 Si02
#       8
#     8   4   8   8   8   8   8   8
#     4  12  20  38  60  81 107 139 183 221 269 330
#     4  11  26  44  60  81 110 144 180 223 272 330
#     4  10  21  36  55  81 112 143 179 227 275 320
#     4   9  17  30  51  75 101 139 183 227 273 321
#     4  10  19  33  51  77 111 145 185 227 271 326
#     4  10  19  33  51  77 111 145 185 227 271 326
#     4   9  18  33  54  81 109 135 167 210 262 317
#     4  10  21  36  55  81 112 143 179 227 275 320
#
# _framework density 16.873577999999998
#
# number of rings (size 3 to 8) (size 9 to 14) (size 15 to 20)
#    0.000    1.933    2.000    3.200    0.000    3.467 
#    0.000    0.000    0.000    5.600    0.000    0.000 
#    0.000    2.133    0.000    0.000    0.000    0.000 
#
# Total GULP energy -334330.690427 kJ/mol
# GULP energy per Si atom -5572.178174 kJ/mol
# Density = 1.683517 g / cm^3
# Si number density = 16.873578 Si / 1000 Ang^3
#
#
#
# Elastic Constant Matrix: (Units=GPa)
#
#
# Indices 1 2 3 4 5 6 
#
# 1 86.8411 57.3730 53.0250 0.0000 0.0000 0.0000
# 2 57.3730 86.8406 53.0249 0.0000 0.0000 0.0000
# 3 53.0250 53.0249 119.2638 0.0000 0.0000 0.0000
# 4 0.0000 0.0000 0.0000 -1.7772 0.0000 0.0000
# 5 0.0000 0.0000 0.0000 0.0000 -1.7788 0.0000
# 6 0.0000 0.0000 0.0000 0.0000 0.0000 23.9177
#
#
#
# Elastic Compliance Matrix: (Units=1/GPa)
#
#
# Indices 1 2 3 4 5 6 
#
# 1 0.022119 -0.011816 -0.004581 0.000000 0.000000 0.000000
# 2 -0.011816 0.022119 -0.004581 0.000000 0.000000 0.000000
# 3 -0.004581 -0.004581 0.012458 0.000000 0.000000 0.000000
# 4 0.000000 0.000000 0.000000 -0.562686 0.000000 0.000000
# 5 0.000000 0.000000 0.000000 0.000000 -0.562165 0.000000
# 6 0.000000 0.000000 0.000000 0.000000 0.000000 0.041810
#
#
# Mechanical properties :
#
#
# Convention : Reuss Voigt Hill
#
# Bulk Modulus (GPa) = 67.83925 68.86572 68.35249
# Shear Modulus (GPa) = -5.10477 12.70717 3.80120
#
# Velocity S-wave (km/s) = -1.74123 2.74721 1.50255
# Velocity P-wave (km/s) = 6.02073 7.13892 6.60354
#
# Compressibility (1/GPa) = 0.01474073
#
# Stress axis : x y z
#
# Youngs Moduli (GPa) = 45.21039 45.21014 80.27104
#
# Poissons Ratio (x) = 0.53422 0.36768
# Poissons Ratio (y) = 0.53422 0.36768
# Poissons Ratio (z) = 0.20709 0.20709
#
# Static dielectric constant tensor:
#      x y z
#    x 1.563850 0.000000 0.000000 
#    y 0.000000 1.563850 0.000000 
#    z 0.000000 0.000000 1.579780 
# 
# From -- ./inp_files/5011.got.cif
#   From: 2010.05.17/outbox.cif.g08.bks.cpg/sg115_3_cif.got.tgz:5011.got - 2010.05.20 11:07:42.
