data_PCOD9556663
_publ_section_title
;
Structure prediction by ZEFSAII (Michael W. Deem and Ramdas Pophale) SiO2 
 PCOD9556663
Probable space group: P -4 M 2
;
_chemical_formula_sum "Si O2"
_cell_formula_units_Z 40
_cell_length_a 20.645462
_cell_length_b 20.645462
_cell_length_c 5.044139
_cell_angle_alpha 90.000000
_cell_angle_beta 90.000000
_cell_angle_gamma 90.000000
_cell_volume 2149.989097
_symmetry_space_group_name_H-M "P -4 M 2"
_symmetry_group_IT_number 115
_symmetry_cell_setting 'tetragonal'
loop_
_space_group_symop_operation_xyz
x,y,z
y,-x,-z
-x,-y,z
-y,x,-z
y,x,-z
-y,-x,-z
-x,y,z
x,-y,z
loop_
_atom_site_type_symbol
_atom_site_label
_atom_site_fract_x
_atom_site_fract_y
_atom_site_fract_z
Si Si1 0.348947 0.247178 0.078155
Si Si2 0.721862 0.887008 0.032500
Si Si3 0.072244 0.354635 0.464372
Si Si4 0.924347 0.862988 0.758967
Si Si5 0.206056 0.575093 0.417777
O O1 0.297485 0.188395 0.045946
O O2 0.378671 0.241762 0.370327
O O3 0.312617 0.312617 0.000000
O O4 0.405750 0.231575 0.870999
O O5 0.674355 0.921566 0.242117
O O6 0.794283 0.900435 0.125069
O O7 0.703676 0.913003 0.742131
O O8 0.129975 0.405802 0.427424
O O9 0.000000 0.379626 0.417645
O O10 0.884703 0.884703 0.500000
O O11 0.000000 0.858484 0.690977
O O12 0.912683 0.912683 0.000000
O O13 0.215107 0.500000 0.477574
#
# Coordination Sequence:
#
# PCOD9556663 Si02
#       5
#     8   8   8   8   8
#     4  10  20  36  58  82 109 141 179 220 262 308
#     4  10  21  36  55  78 102 130 174 229 275 312
#     4  10  19  33  54  78 108 145 180 214 256 314
#     4  12  25  39  55  72  95 129 171 224 284 343
#     4  10  21  35  53  81 117 149 177 217 260 307
#
# _framework density 18.604745000000001
#
# number of rings (size 3 to 8) (size 9 to 14) (size 15 to 20)
#    0.000    1.600    0.000    5.400    0.000    4.800 
#    0.000    0.000    0.000    7.200    0.000    0.000 
#    0.000   28.000    0.000    0.000    0.000    0.000 
#
# Total GULP energy -223512.764884 kJ/mol
# GULP energy per Si atom -5587.819122 kJ/mol
# Density = 1.856240 g / cm^3
# Si number density = 18.604745 Si / 1000 Ang^3
#
#
#
# Elastic Constant Matrix: (Units=GPa)
#
#
# Indices 1 2 3 4 5 6 
#
# 1 63.0198 30.1206 -5.5339 0.0000 0.0000 0.0000
# 2 30.1206 63.0198 -5.5339 0.0000 0.0000 0.0000
# 3 -5.5339 -5.5339 59.6428 0.0000 0.0000 0.0000
# 4 0.0000 0.0000 0.0000 12.0799 0.0000 0.0000
# 5 0.0000 0.0000 0.0000 0.0000 12.0799 0.0000
# 6 0.0000 0.0000 0.0000 0.0000 0.0000 7.8662
#
#
#
# Elastic Compliance Matrix: (Units=1/GPa)
#
#
# Indices 1 2 3 4 5 6 
#
# 1 0.020626 -0.009770 0.001007 0.000000 0.000000 0.000000
# 2 -0.009770 0.020626 0.001007 0.000000 0.000000 0.000000
# 3 0.001007 0.001007 0.016953 0.000000 0.000000 0.000000
# 4 0.000000 0.000000 0.000000 0.082782 0.000000 0.000000
# 5 0.000000 0.000000 0.000000 0.000000 0.082782 0.000000
# 6 0.000000 0.000000 0.000000 0.000000 0.000000 0.127126
#
#
# Mechanical properties :
#
#
# Convention : Reuss Voigt Hill
#
# Bulk Modulus (GPa) = 23.42202 24.86532 24.14367
# Shear Modulus (GPa) = 13.13582 17.51382 15.32482
#
# Velocity S-wave (km/s) = 2.66004 3.07149 2.87314
# Velocity P-wave (km/s) = 4.69585 5.09635 4.90019
#
# Compressibility (1/GPa) = 0.04269487
#
# Stress axis : x y z
#
# Youngs Moduli (GPa) = 48.48244 48.48244 58.98524
#
# Poissons Ratio (x) = 0.47367 -0.05941
# Poissons Ratio (y) = 0.47367 -0.05941
# Poissons Ratio (z) = -0.04884 -0.04884
#
# Static dielectric constant tensor:
#      x y z
#    x 1.631880 0.000000 0.000000 
#    y 0.000000 1.631880 0.000000 
#    z 0.000000 0.000000 1.634800 
# 
# From -- ./inp_files/501.got.cif
#   From: 2010.05.17/outbox.cif.g08.bks.cpg/sg115_1_cif.got.tgz:501.got - 2010.05.20 11:07:42.
