data_PCOD9556292
_publ_section_title
;
Structure prediction by ZEFSAII (Michael W. Deem and Ramdas Pophale) SiO2 
 PCOD9556292
Probable space group: P -4 21 C
;
_chemical_formula_sum "Si O2"
_cell_formula_units_Z 60
_cell_length_a 11.192040
_cell_length_b 11.192040
_cell_length_c 22.030802
_cell_angle_alpha 90.000000
_cell_angle_beta 90.000000
_cell_angle_gamma 90.000000
_cell_volume 2759.617019
_symmetry_space_group_name_H-M "P -4 21 C"
_symmetry_group_IT_number 114
_symmetry_cell_setting 'tetragonal'
loop_
_space_group_symop_operation_xyz
x,y,z
y,-x,-z
-x,-y,z
-y,x,-z
1/2+x,1/2-y,1/2-z
1/2-x,1/2+y,1/2-z
1/2-y,1/2-x,1/2+z
1/2+y,1/2+x,1/2+z
loop_
_atom_site_type_symbol
_atom_site_label
_atom_site_fract_x
_atom_site_fract_y
_atom_site_fract_z
Si Si1 0.140345 0.027900 0.294546
Si Si2 0.084381 0.118012 0.587431
Si Si3 0.690065 0.116784 0.504295
Si Si4 0.248967 0.729678 0.122133
Si Si5 0.000000 0.000000 0.087854
Si Si6 0.393909 0.132781 0.070303
Si Si7 0.738777 0.964945 0.954377
Si Si8 0.502310 0.736183 0.662979
O O1 0.173723 0.145811 0.333843
O O2 0.169830 0.929138 0.345020
O O3 0.216189 0.026722 0.233648
O O4 0.000000 0.000000 0.280061
O O5 0.048391 0.215267 0.537544
O O6 0.224370 0.100837 0.578500
O O7 0.000000 0.000000 0.582755
O O8 0.756525 0.192236 0.555745
O O9 0.599737 0.190360 0.461455
O O10 0.612807 0.025877 0.544061
O O11 0.113425 0.691817 0.103065
O O12 0.247327 0.860902 0.151283
O O13 0.962473 0.118590 0.052060
O O14 0.886796 0.962356 0.128763
O O15 0.345741 0.070492 0.131028
O O16 0.302697 0.094783 0.017254
#
# Coordination Sequence:
#
# PCOD9556292 Si02
#       8
#     8   8   8   8   4   8   8   8
#     4  11  25  50  73 101 140 200 256 303 365 451
#     4  11  26  44  75 109 143 196 245 298 375 456
#     4  12  24  44  72 107 154 191 235 306 383 449
#     4  11  25  46  72 106 148 194 251 311 370 453
#     4  10  24  45  74 102 144 187 246 302 376 439
#     4  12  25  41  70 107 149 186 238 304 366 439
#     4  11  24  44  70 110 150 190 240 311 380 443
#     4  11  25  46  72 107 142 199 247 309 364 439
#
# _framework density 21.742148
#
# number of rings (size 3 to 8) (size 9 to 14) (size 15 to 20)
#    0.000    0.800    3.333    3.600    3.733    1.067 
#    0.000    0.000    2.933    0.000    0.000    0.000 
#    0.000    0.000    0.000    0.000    0.000    0.000 
#
# Total GULP energy -335272.275343 kJ/mol
# GULP energy per Si atom -5587.871256 kJ/mol
# Density = 2.169266 g / cm^3
# Si number density = 21.742148 Si / 1000 Ang^3
#
#
#
# Elastic Constant Matrix: (Units=GPa)
#
#
# Indices 1 2 3 4 5 6 
#
# 1 97.8330 23.0066 45.1859 0.0000 0.0000 0.0000
# 2 23.0066 97.8330 45.1859 0.0000 0.0000 0.0000
# 3 45.1859 45.1859 139.7583 0.0000 0.0000 0.0000
# 4 0.0000 0.0000 0.0000 26.1965 0.0000 0.0000
# 5 0.0000 0.0000 0.0000 0.0000 26.1965 0.0000
# 6 0.0000 0.0000 0.0000 0.0000 0.0000 41.2957
#
#
#
# Elastic Compliance Matrix: (Units=1/GPa)
#
#
# Indices 1 2 3 4 5 6 
#
# 1 0.012139 -0.001225 -0.003529 0.000000 0.000000 0.000000
# 2 -0.001225 0.012139 -0.003529 0.000000 0.000000 0.000000
# 3 -0.003529 -0.003529 0.009437 0.000000 0.000000 0.000000
# 4 0.000000 0.000000 0.000000 0.038173 0.000000 0.000000
# 5 0.000000 0.000000 0.000000 0.000000 0.038173 0.000000
# 6 0.000000 0.000000 0.000000 0.000000 0.000000 0.024216
#
#
# Mechanical properties :
#
#
# Convention : Reuss Voigt Hill
#
# Bulk Modulus (GPa) = 58.30631 62.46455 60.38543
# Shear Modulus (GPa) = 31.93677 33.54082 32.73879
#
# Velocity S-wave (km/s) = 3.83676 3.93194 3.88464
# Velocity P-wave (km/s) = 6.81932 7.02891 6.92491
#
# Compressibility (1/GPa) = 0.01715080
#
# Stress axis : x y z
#
# Youngs Moduli (GPa) = 82.37641 82.37641 105.96532
#
# Poissons Ratio (x) = 0.10090 0.37393
# Poissons Ratio (y) = 0.10090 0.37393
# Poissons Ratio (z) = 0.29069 0.29069
#
# Static dielectric constant tensor:
#      x y z
#    x 1.875050 0.000000 0.000000 
#    y 0.000000 1.875050 0.000000 
#    z 0.000000 0.000000 1.765780 
# 
# From -- ./inp_files/3230.got.cif
#   From: 2010.05.17/outbox.cif.g08.bks.cpg/sg114_2_cif.got.tgz:3230.got - 2010.05.20 11:04:54.
