data_PCOD9556056
_publ_section_title
;
Structure prediction by ZEFSAII (Michael W. Deem and Ramdas Pophale) SiO2 
 PCOD9556056
Probable space group: P -4 21 C
;
_chemical_formula_sum "Si O2"
_cell_formula_units_Z 48
_cell_length_a 11.567360
_cell_length_b 11.567360
_cell_length_c 16.689371
_cell_angle_alpha 90.000000
_cell_angle_beta 90.000000
_cell_angle_gamma 90.000000
_cell_volume 2233.101549
_symmetry_space_group_name_H-M "P -4 21 C"
_symmetry_group_IT_number 114
_symmetry_cell_setting 'tetragonal'
loop_
_space_group_symop_operation_xyz
x,y,z
y,-x,-z
-x,-y,z
-y,x,-z
1/2+x,1/2-y,1/2-z
1/2-x,1/2+y,1/2-z
1/2-y,1/2-x,1/2+z
1/2+y,1/2+x,1/2+z
loop_
_atom_site_type_symbol
_atom_site_label
_atom_site_fract_x
_atom_site_fract_y
_atom_site_fract_z
Si Si1 0.211810 0.231236 0.842567
Si Si2 0.317380 0.673233 0.309374
Si Si3 0.868526 0.480677 0.380127
Si Si4 0.129211 0.250236 0.590679
Si Si5 0.948268 0.895841 0.738566
Si Si6 0.303740 0.110233 0.485200
O O1 0.266123 0.316348 0.776387
O O2 0.165091 0.119525 0.793317
O O3 0.306072 0.203593 0.908818
O O4 0.098389 0.295408 0.876875
O O5 0.191230 0.615970 0.324251
O O6 0.334790 0.767378 0.378876
O O7 0.389904 0.556994 0.299928
O O8 0.867544 0.421447 0.466833
O O9 0.000000 0.500000 0.355447
O O10 0.072114 0.204593 0.673477
O O11 0.197130 0.149438 0.542647
O O12 0.024131 0.297024 0.538332
O O13 0.000000 0.000000 0.686061
#
# Coordination Sequence:
#
# PCOD9556056 Si02
#       6
#     8   8   8   8   8   8
#     4  10  21  41  62  87 125 164 206 257 308 376
#     4   9  20  41  64  87 124 161 210 258 311 370
#     4  10  22  41  63  90 124 166 207 260 322 371
#     4  10  22  36  65  92 128 161 208 266 317 375
#     4  10  21  39  63  92 121 163 212 259 310 372
#     4  11  22  39  62  96 130 168 212 262 324 386
#
# _framework density 21.494769000000002
#
# number of rings (size 3 to 8) (size 9 to 14) (size 15 to 20)
#    0.000    2.000    1.667    1.000    2.333    4.000 
#   12.000    0.833    0.000    0.000    0.000    0.000 
#    0.000    0.000    0.000    0.000    0.000    0.000 
#
# Total GULP energy -267315.862671 kJ/mol
# GULP energy per Si atom -5569.080472 kJ/mol
# Density = 2.144585 g / cm^3
# Si number density = 21.494769 Si / 1000 Ang^3
#
#
#
# Elastic Constant Matrix: (Units=GPa)
#
#
# Indices 1 2 3 4 5 6 
#
# 1 74.4007 15.0542 30.1665 0.0000 0.0000 0.0000
# 2 15.0542 74.4007 30.1665 0.0000 0.0000 0.0000
# 3 30.1665 30.1665 75.3027 0.0000 0.0000 0.0000
# 4 0.0000 0.0000 0.0000 15.1317 0.0000 0.0000
# 5 0.0000 0.0000 0.0000 0.0000 15.1317 0.0000
# 6 0.0000 0.0000 0.0000 0.0000 0.0000 23.1631
#
#
#
# Elastic Compliance Matrix: (Units=1/GPa)
#
#
# Indices 1 2 3 4 5 6 
#
# 1 0.016084 -0.000766 -0.006136 0.000000 0.000000 0.000000
# 2 -0.000766 0.016084 -0.006136 0.000000 0.000000 0.000000
# 3 -0.006136 -0.006136 0.018196 0.000000 0.000000 0.000000
# 4 0.000000 0.000000 0.000000 0.066087 0.000000 0.000000
# 5 0.000000 0.000000 0.000000 0.000000 0.066087 0.000000
# 6 0.000000 0.000000 0.000000 0.000000 0.000000 0.043172
#
#
# Mechanical properties :
#
#
# Convention : Reuss Voigt Hill
#
# Bulk Modulus (GPa) = 41.17584 41.65316 41.41450
# Shear Modulus (GPa) = 19.23952 20.59975 19.91963
#
# Velocity S-wave (km/s) = 2.99503 3.09910 3.04751
# Velocity P-wave (km/s) = 5.58194 5.67682 5.62958
#
# Compressibility (1/GPa) = 0.02428609
#
# Stress axis : x y z
#
# Youngs Moduli (GPa) = 62.17446 62.17446 54.95687
#
# Poissons Ratio (x) = 0.04765 0.33723
# Poissons Ratio (y) = 0.04765 0.33723
# Poissons Ratio (z) = 0.38151 0.38151
#
# Static dielectric constant tensor:
#      x y z
#    x 1.923970 0.000000 0.000000 
#    y 0.000000 1.923970 0.000000 
#    z 0.000000 0.000000 1.788750 
# 
# From -- ./inp_files/2602.got.cif
#   From: 2010.05.17/outbox.cif.g08.bks.cpg/sg114_2_cif.got.tgz:2602.got - 2010.05.20 11:04:54.
