data_PCOD9556363
_publ_section_title
;
Structure prediction by ZEFSAII (Michael W. Deem and Ramdas Pophale) SiO2 
 PCOD9556363
Probable space group: P -4 21 C
;
_chemical_formula_sum "Si O2"
_cell_formula_units_Z 32
_cell_length_a 8.957793
_cell_length_b 8.957793
_cell_length_c 17.119045
_cell_angle_alpha 90.000000
_cell_angle_beta 90.000000
_cell_angle_gamma 90.000000
_cell_volume 1373.667358
_symmetry_space_group_name_H-M "P -4 21 C"
_symmetry_group_IT_number 114
_symmetry_cell_setting 'tetragonal'
loop_
_space_group_symop_operation_xyz
x,y,z
y,-x,-z
-x,-y,z
-y,x,-z
1/2+x,1/2-y,1/2-z
1/2-x,1/2+y,1/2-z
1/2-y,1/2-x,1/2+z
1/2+y,1/2+x,1/2+z
loop_
_atom_site_type_symbol
_atom_site_label
_atom_site_fract_x
_atom_site_fract_y
_atom_site_fract_z
Si Si1 0.560758 0.738249 0.518537
Si Si2 0.211957 0.054010 0.457742
Si Si3 0.114285 0.623085 0.314682
Si Si4 0.891467 0.886180 0.291746
O O1 0.673058 0.597176 0.509155
O O2 0.627456 0.872237 0.466948
O O3 0.564286 0.808836 0.605549
O O4 0.173971 0.032175 0.367693
O O5 0.095360 0.173359 0.495339
O O6 0.251684 0.665190 0.258867
O O7 0.000000 0.500000 0.281295
O O8 0.000554 0.759212 0.323902
O O9 0.000000 0.000000 0.245883
#
# Coordination Sequence:
#
# PCOD9556363 Si02
#       4
#     8   8   8   8
#     4  11  26  43  69 100 143 192 246 304 365 442
#     4  11  21  44  69  97 132 182 244 300 361 441
#     4  12  27  47  71 108 149 193 245 315 383 457
#     4  12  25  45  72 102 145 190 243 307 379 457
#
# _framework density 23.295306
#
# number of rings (size 3 to 8) (size 9 to 14) (size 15 to 20)
#    0.000    0.500    5.000    3.000    7.000    0.000 
#    0.000    0.000    0.000    0.000    0.000    0.000 
#    0.000    0.000    0.000    0.000    0.000    0.000 
#
# Total GULP energy -178878.326112 kJ/mol
# GULP energy per Si atom -5589.947691 kJ/mol
# Density = 2.324228 g / cm^3
# Si number density = 23.295306 Si / 1000 Ang^3
#
#
#
# Elastic Constant Matrix: (Units=GPa)
#
#
# Indices 1 2 3 4 5 6 
#
# 1 84.7838 51.9627 17.0609 0.0000 0.0000 0.0000
# 2 51.9627 84.7838 17.0609 0.0000 0.0000 0.0000
# 3 17.0609 17.0609 72.3808 0.0000 0.0000 0.0000
# 4 0.0000 0.0000 0.0000 22.0481 0.0000 0.0000
# 5 0.0000 0.0000 0.0000 0.0000 22.0481 0.0000
# 6 0.0000 0.0000 0.0000 0.0000 0.0000 60.0968
#
#
#
# Elastic Compliance Matrix: (Units=1/GPa)
#
#
# Indices 1 2 3 4 5 6 
#
# 1 0.019119 -0.011349 -0.001831 0.000000 0.000000 0.000000
# 2 -0.011349 0.019119 -0.001831 0.000000 0.000000 0.000000
# 3 -0.001831 -0.001831 0.014679 0.000000 0.000000 0.000000
# 4 0.000000 0.000000 0.000000 0.045355 0.000000 0.000000
# 5 0.000000 0.000000 0.000000 0.000000 0.045355 0.000000
# 6 0.000000 0.000000 0.000000 0.000000 0.000000 0.016640
#
#
# Mechanical properties :
#
#
# Convention : Reuss Voigt Hill
#
# Bulk Modulus (GPa) = 43.68129 46.01303 44.84716
# Shear Modulus (GPa) = 25.26237 31.22953 28.24595
#
# Velocity S-wave (km/s) = 3.29666 3.66538 3.48590
# Velocity P-wave (km/s) = 5.76909 6.14071 5.95780
#
# Compressibility (1/GPa) = 0.02289310
#
# Stress axis : x y z
#
# Youngs Moduli (GPa) = 52.30390 52.30390 68.12365
#
# Poissons Ratio (x) = 0.59361 0.12476
# Poissons Ratio (y) = 0.59361 0.12476
# Poissons Ratio (z) = 0.09579 0.09579
#
# Static dielectric constant tensor:
#      x y z
#    x 1.956480 0.000000 0.000000 
#    y 0.000000 1.956480 0.000000 
#    z 0.000000 0.000000 1.828290 
# 
# From -- ./inp_files/2838.got.cif
#   From: 2010.05.17/outbox.cif.g08.bks.cpg/sg114_2_cif.got.tgz:2838.got - 2010.05.20 11:04:54.
