data_PCOD9556071
_publ_section_title
;
Structure prediction by ZEFSAII (Michael W. Deem and Ramdas Pophale) SiO2 
 PCOD9556071
Probable space group: P -4 21 C
;
_chemical_formula_sum "Si O2"
_cell_formula_units_Z 46
_cell_length_a 8.320751
_cell_length_b 8.320751
_cell_length_c 33.668146
_cell_angle_alpha 90.000000
_cell_angle_beta 90.000000
_cell_angle_gamma 90.000000
_cell_volume 2331.010627
_symmetry_space_group_name_H-M "P -4 21 C"
_symmetry_group_IT_number 114
_symmetry_cell_setting 'tetragonal'
loop_
_space_group_symop_operation_xyz
x,y,z
y,-x,-z
-x,-y,z
-y,x,-z
1/2+x,1/2-y,1/2-z
1/2-x,1/2+y,1/2-z
1/2-y,1/2-x,1/2+z
1/2+y,1/2+x,1/2+z
loop_
_atom_site_type_symbol
_atom_site_label
_atom_site_fract_x
_atom_site_fract_y
_atom_site_fract_z
Si Si1 0.799404 0.217890 0.222786
Si Si2 0.500000 0.500000 0.333259
Si Si3 0.683077 0.453811 0.805178
Si Si4 0.742382 0.718256 0.539698
Si Si5 0.000000 0.000000 0.000000
Si Si6 0.000000 0.500000 0.993944
Si Si7 0.729617 0.214749 0.868392
Si Si8 0.000000 0.500000 0.182582
O O1 0.869661 0.074413 0.196535
O O2 0.615298 0.240129 0.211741
O O3 0.825906 0.188302 0.269244
O O4 0.907222 0.369724 0.209165
O O5 0.412601 0.629880 0.360246
O O6 0.500000 0.500000 0.814504
O O7 0.762463 0.377217 0.843862
O O8 0.630106 0.567993 0.529977
O O9 0.790249 0.742437 0.585251
O O10 0.900960 0.644039 0.517055
O O11 0.619152 0.867421 0.527942
O O12 0.578811 0.132798 0.846274
#
# Coordination Sequence:
#
# PCOD9556071 Si02
#       8
#     8   4   8   8   2   4   8   4
#     4  11  23  40  61  81 123 161 217 254 305 377
#     4  10  23  40  62  93 116 166 208 259 314 374
#     4  12  25  41  60  90 118 168 212 265 317 372
#     4  10  21  42  67  99 132 170 212 271 318 404
#     4   8  18  40  72  92 128 176 224 236 320 420
#     4  10  23  44  69 100 130 178 222 254 335 402
#     4  11  23  40  64  95 130 157 211 263 332 369
#     4  10  21  40  63  88 120 170 204 262 319 378
#
# _framework density 19.733930999999998
#
# number of rings (size 3 to 8) (size 9 to 14) (size 15 to 20)
#    0.000    1.391    2.609    3.130    0.000    2.435 
#    3.130    1.739    0.000    0.000    0.000    0.000 
#    0.000    0.000    0.000    0.000    0.000    0.000 
#
# Total GULP energy -256267.353140 kJ/mol
# GULP energy per Si atom -5571.029416 kJ/mol
# Density = 1.968902 g / cm^3
# Si number density = 19.733931 Si / 1000 Ang^3
#
#
#
# Elastic Constant Matrix: (Units=GPa)
#
#
# Indices 1 2 3 4 5 6 
#
# 1 55.1366 -3.0810 19.4212 0.0000 0.0000 0.0000
# 2 -3.0810 55.1366 19.4212 0.0000 0.0000 0.0000
# 3 19.4212 19.4212 109.8642 0.0000 0.0000 0.0000
# 4 0.0000 0.0000 0.0000 -1.4354 0.0000 0.0000
# 5 0.0000 0.0000 0.0000 0.0000 -1.4354 0.0000
# 6 0.0000 0.0000 0.0000 0.0000 0.0000 23.0153
#
#
#
# Elastic Compliance Matrix: (Units=1/GPa)
#
#
# Indices 1 2 3 4 5 6 
#
# 1 0.019653 0.002476 -0.003912 0.000000 0.000000 0.000000
# 2 0.002476 0.019653 -0.003912 0.000000 0.000000 0.000000
# 3 -0.003912 -0.003912 0.010485 0.000000 0.000000 0.000000
# 4 0.000000 0.000000 0.000000 -0.696691 0.000000 0.000000
# 5 0.000000 0.000000 0.000000 0.000000 -0.696691 0.000000
# 6 0.000000 0.000000 0.000000 0.000000 0.000000 0.043449
#
#
# Mechanical properties :
#
#
# Convention : Reuss Voigt Hill
#
# Bulk Modulus (GPa) = 25.57805 32.40669 28.99237
# Shear Modulus (GPa) = -3.91722 16.32064 6.20171
#
# Velocity S-wave (km/s) = -1.41044 2.87894 1.77468
# Velocity P-wave (km/s) = 3.21514 5.24486 4.35004
#
# Compressibility (1/GPa) = 0.03909603
#
# Stress axis : x y z
#
# Youngs Moduli (GPa) = 50.88267 50.88267 95.37263
#
# Poissons Ratio (x) = -0.12599 0.37309
# Poissons Ratio (y) = -0.12599 0.37309
# Poissons Ratio (z) = 0.19905 0.19905
#
# Static dielectric constant tensor:
#      x y z
#    x 1.733360 0.000000 0.000000 
#    y 0.000000 1.733360 0.000000 
#    z 0.000000 0.000000 1.667390 
# 
# From -- ./inp_files/3884.got.cif
#   From: 2010.05.17/outbox.cif.g08.bks.cpg/sg114_2_cif.got.tgz:3884.got - 2010.05.20 11:04:54.
