data_PCOD9556873
_publ_section_title
;
Structure prediction by ZEFSAII (Michael W. Deem and Ramdas Pophale) SiO2 
 PCOD9556873
Probable space group: P -4 M 2
;
_chemical_formula_sum "Si O2"
_cell_formula_units_Z 40
_cell_length_a 9.264316
_cell_length_b 9.264316
_cell_length_c 26.514365
_cell_angle_alpha 90.000000
_cell_angle_beta 90.000000
_cell_angle_gamma 90.000000
_cell_volume 2275.663013
_symmetry_space_group_name_H-M "P -4 M 2"
_symmetry_group_IT_number 115
_symmetry_cell_setting 'tetragonal'
loop_
_space_group_symop_operation_xyz
x,y,z
y,-x,-z
-x,-y,z
-y,x,-z
y,x,-z
-y,-x,-z
-x,y,z
x,-y,z
loop_
_atom_site_type_symbol
_atom_site_label
_atom_site_fract_x
_atom_site_fract_y
_atom_site_fract_z
Si Si1 0.175652 0.833490 0.555498
Si Si2 0.330495 0.326610 0.942535
Si Si3 0.172438 0.671058 0.656816
Si Si4 0.172814 0.670412 0.251272
Si Si5 0.173125 0.831117 0.148016
O O1 0.220708 0.779293 0.500000
O O2 0.218543 0.738637 0.603197
O O3 0.000000 0.834542 0.553671
O O4 0.222103 0.000000 0.562471
O O5 0.500000 0.290142 0.935855
O O6 0.317953 0.500000 0.938219
O O7 0.236808 0.249411 0.900400
O O8 0.288274 0.288274 0.000000
O O9 0.195806 0.500000 0.657174
O O10 0.255696 0.746689 0.702284
O O11 0.000000 0.697586 0.662394
O O12 0.202699 0.500000 0.249082
O O13 0.215094 0.746039 0.198745
O O14 0.000000 0.689905 0.257458
O O15 0.000000 0.817345 0.142456
O O16 0.208014 0.000000 0.153271
#
# Coordination Sequence:
#
# PCOD9556873 Si02
#       5
#     8   8   8   8   8
#     4   8  14  27  49  74  99 132 174 215 253 295
#     4   9  19  36  56  78 106 141 178 212 249 298
#     4  10  20  33  51  77 107 137 169 208 256 307
#     4  10  21  37  56  76  99 133 176 216 257 307
#     4  10  21  36  55  80 107 134 168 213 262 308
#
# _framework density 17.577294999999999
#
# number of rings (size 3 to 8) (size 9 to 14) (size 15 to 20)
#    0.000    2.600    0.000    3.000    0.000    5.600 
#    0.000    4.000    0.000    3.600    0.000    0.000 
#    0.000    0.000    0.000    0.000    0.000    0.000 
#
# Total GULP energy -223157.582033 kJ/mol
# GULP energy per Si atom -5578.939551 kJ/mol
# Density = 1.753729 g / cm^3
# Si number density = 17.577295 Si / 1000 Ang^3
#
#
#
# Elastic Constant Matrix: (Units=GPa)
#
#
# Indices 1 2 3 4 5 6 
#
# 1 65.2832 58.7618 89.6746 0.0000 0.0000 0.0000
# 2 58.7618 65.2833 89.6747 0.0000 0.0000 0.0000
# 3 89.6746 89.6747 210.0616 0.0000 0.0000 0.0000
# 4 0.0000 0.0000 0.0000 -240.2354 0.0000 0.0000
# 5 0.0000 0.0000 0.0000 0.0000 -240.2055 0.0000
# 6 0.0000 0.0000 0.0000 0.0000 0.0000 25.6633
#
#
#
# Elastic Compliance Matrix: (Units=1/GPa)
#
#
# Indices 1 2 3 4 5 6 
#
# 1 0.087201 -0.066140 -0.008991 0.000000 0.000000 0.000000
# 2 -0.066140 0.087201 -0.008991 0.000000 0.000000 0.000000
# 3 -0.008991 -0.008991 0.012437 0.000000 0.000000 0.000000
# 4 0.000000 0.000000 0.000000 -0.004163 0.000000 0.000000
# 5 0.000000 0.000000 0.000000 0.000000 -0.004163 0.000000
# 6 0.000000 0.000000 0.000000 0.000000 0.000000 0.038966
#
#
# Mechanical properties :
#
#
# Convention : Reuss Voigt Hill
#
# Bulk Modulus (GPa) = 53.77711 90.76116 72.26914
# Shear Modulus (GPa) = 12.75770 -84.12104 -35.68167
#
# Velocity S-wave (km/s) = 2.69700 -6.92544 -4.51042
# Velocity P-wave (km/s) = 6.35291 3.49304 3.75221
#
# Compressibility (1/GPa) = 0.01859527
#
# Stress axis : x y z
#
# Youngs Moduli (GPa) = 11.46776 11.46782 80.40644
#
# Poissons Ratio (x) = 0.75848 0.72293
# Poissons Ratio (y) = 0.75848 0.72291
# Poissons Ratio (z) = 0.10311 0.10310
#
# Static dielectric constant tensor:
#      x y z
#    x 1.583750 0.000000 0.000000 
#    y 0.000000 1.583750 0.000000 
#    z 0.000000 0.000000 1.582000 
# 
# From -- ./inp_files/5088.got.cif
#   From: 2010.05.17/outbox.cif.g08.bks.cpg/sg115_3_cif.got.tgz:5088.got - 2010.05.20 11:07:42.
