data_PCOD9556963
_publ_section_title
;
Structure prediction by ZEFSAII (Michael W. Deem and Ramdas Pophale) SiO2 
 PCOD9556963
Probable space group: P -4 M 2
;
_chemical_formula_sum "Si O2"
_cell_formula_units_Z 28
_cell_length_a 7.819508
_cell_length_b 7.819508
_cell_length_c 22.401270
_cell_angle_alpha 90.000000
_cell_angle_beta 90.000000
_cell_angle_gamma 90.000000
_cell_volume 1369.719054
_symmetry_space_group_name_H-M "P -4 M 2"
_symmetry_group_IT_number 115
_symmetry_cell_setting 'tetragonal'
loop_
_space_group_symop_operation_xyz
x,y,z
y,-x,-z
-x,-y,z
-y,x,-z
y,x,-z
-y,-x,-z
-x,y,z
x,-y,z
loop_
_atom_site_type_symbol
_atom_site_label
_atom_site_fract_x
_atom_site_fract_y
_atom_site_fract_z
Si Si1 0.209099 0.687469 0.630360
Si Si2 0.708659 0.695090 0.932609
Si Si3 0.204182 0.204182 0.500000
Si Si4 0.294344 0.000000 0.849336
Si Si5 0.793700 0.000000 0.710818
O O1 0.259633 0.500000 0.651047
O O2 0.264983 0.716142 0.562003
O O3 0.000000 0.695291 0.628685
O O4 0.268620 0.834563 0.674638
O O5 0.500000 0.690509 0.931560
O O6 0.767759 0.500000 0.922740
O O7 0.768361 0.830811 0.883820
O O8 0.752100 0.752100 0.000000
O O9 0.000000 0.231735 0.494975
O O10 0.252492 0.000000 0.779849
O O11 0.500000 0.000000 0.854950
O O12 0.000000 0.000000 0.707167
#
# Coordination Sequence:
#
# PCOD9556963 Si02
#       5
#     8   8   4   4   4
#     4   9  17  30  51  76 102 140 182 219 268 327
#     4   8  15  31  54  77 103 136 175 221 271 321
#     4   9  14  26  50  75  94 124 172 225 276 323
#     4  10  20  34  54  78 104 140 181 218 264 325
#     4  10  20  36  50  72 110 144 177 218 264 319
#
# _framework density 20.442150000000002
#
# number of rings (size 3 to 8) (size 9 to 14) (size 15 to 20)
#    0.000    3.000    1.429    0.857    0.000    1.143 
#    2.571    1.429    0.000    2.143    0.000    0.000 
#    0.000    0.000    0.000    0.000    0.000    0.000 
#
# Total GULP energy -156262.295489 kJ/mol
# GULP energy per Si atom -5580.796267 kJ/mol
# Density = 2.039562 g / cm^3
# Si number density = 20.442150 Si / 1000 Ang^3
#
#
#
# Elastic Constant Matrix: (Units=GPa)
#
#
# Indices 1 2 3 4 5 6 
#
# 1 66.9611 41.0372 65.2321 0.0000 0.0000 0.0000
# 2 41.0372 66.9611 65.2321 0.0000 0.0000 0.0000
# 3 65.2321 65.2321 190.3008 0.0000 0.0000 0.0000
# 4 0.0000 0.0000 0.0000 66.8032 0.0000 0.0000
# 5 0.0000 0.0000 0.0000 0.0000 66.8032 0.0000
# 6 0.0000 0.0000 0.0000 0.0000 0.0000 0.7861
#
#
#
# Elastic Compliance Matrix: (Units=1/GPa)
#
#
# Indices 1 2 3 4 5 6 
#
# 1 0.027189 -0.011386 -0.005417 0.000000 0.000000 0.000000
# 2 -0.011386 0.027189 -0.005417 0.000000 0.000000 0.000000
# 3 -0.005417 -0.005417 0.008969 0.000000 0.000000 0.000000
# 4 0.000000 0.000000 0.000000 0.014969 0.000000 0.000000
# 5 0.000000 0.000000 0.000000 0.000000 0.014969 0.000000
# 6 0.000000 0.000000 0.000000 0.000000 0.000000 1.272111
#
#
# Mechanical properties :
#
#
# Convention : Reuss Voigt Hill
#
# Bulk Modulus (GPa) = 52.89071 74.13622 63.51347
# Shear Modulus (GPa) = 3.53073 37.05993 20.29533
#
# Velocity S-wave (km/s) = 1.31565 4.26246 3.15432
# Velocity P-wave (km/s) = 5.31389 7.78266 6.66360
#
# Compressibility (1/GPa) = 0.01890691
#
# Stress axis : x y z
#
# Youngs Moduli (GPa) = 36.77958 36.77958 111.49903
#
# Poissons Ratio (x) = 0.41875 0.60401
# Poissons Ratio (y) = 0.41875 0.60401
# Poissons Ratio (z) = 0.19924 0.19924
#
# Static dielectric constant tensor:
#      x y z
#    x 1.736080 0.000000 0.000000 
#    y 0.000000 1.736080 0.000000 
#    z 0.000000 0.000000 1.679240 
# 
# From -- ./inp_files/4531.got.cif
#   From: 2010.05.17/outbox.cif.g08.bks.cpg/sg115_3_cif.got.tgz:4531.got - 2010.05.20 11:07:42.
