data_PCOD9556772
_publ_section_title
;
Structure prediction by ZEFSAII (Michael W. Deem and Ramdas Pophale) SiO2 
 PCOD9556772
Probable space group: P -4 M 2
;
_chemical_formula_sum "Si O2"
_cell_formula_units_Z 48
_cell_length_a 7.861183
_cell_length_b 7.861183
_cell_length_c 36.810791
_cell_angle_alpha 90.000000
_cell_angle_beta 90.000000
_cell_angle_gamma 90.000000
_cell_volume 2274.840557
_symmetry_space_group_name_H-M "P -4 M 2"
_symmetry_group_IT_number 115
_symmetry_cell_setting 'tetragonal'
loop_
_space_group_symop_operation_xyz
x,y,z
y,-x,-z
-x,-y,z
-y,x,-z
y,x,-z
-y,-x,-z
-x,y,z
x,-y,z
loop_
_atom_site_type_symbol
_atom_site_label
_atom_site_fract_x
_atom_site_fract_y
_atom_site_fract_z
Si Si1 0.291986 0.697867 0.695520
Si Si2 0.702104 0.810163 0.039088
Si Si3 0.696754 0.208983 0.117510
Si Si4 0.295134 0.000000 0.746751
Si Si5 0.296767 0.696134 0.615596
Si Si6 0.000000 0.795328 0.169031
Si Si7 0.689701 0.200368 0.460573
O O1 0.500000 0.696621 0.696190
O O2 0.239758 0.500000 0.700427
O O3 0.233375 0.830654 0.725816
O O4 0.238878 0.759956 0.655026
O O5 0.500000 0.822028 0.044192
O O6 0.759118 0.731724 0.077407
O O7 0.775486 0.000000 0.036539
O O8 0.728749 0.728749 0.000000
O O9 0.500000 0.260564 0.124043
O O10 0.830336 0.263842 0.147947
O O11 0.696475 0.000000 0.116024
O O12 0.500000 0.000000 0.743723
O O13 0.251290 0.000000 0.788929
O O14 0.500000 0.690964 0.617551
O O15 0.232858 0.500000 0.613716
O O16 0.256292 0.779184 0.576814
O O17 0.000000 0.000000 0.166490
O O18 0.764563 0.235438 0.500000
O O19 0.500000 0.279349 0.460856
O O20 0.676292 0.000000 0.457330
#
# Coordination Sequence:
#
# PCOD9556772 Si02
#       7
#     8   8   8   4   8   4   8
#     4   8  15  30  52  76 102 131 163 207 264 317
#     4   9  18  31  48  73 101 130 168 213 258 306
#     4   8  16  32  51  72 101 135 175 218 258 307
#     4  10  20  34  52  78 106 130 164 216 264 314
#     4   8  14  28  51  73  92 121 162 204 247 296
#     4  10  20  34  54  74 100 138 178 214 260 314
#     4  10  20  33  49  71 100 134 171 209 251 301
#
# _framework density 21.100382
#
# number of rings (size 3 to 8) (size 9 to 14) (size 15 to 20)
#    0.000    3.167    0.000    2.500    1.167    2.000 
#    1.500    1.667    0.000    2.000    0.000    0.000 
#    0.000    0.000    0.000    0.000    0.000    0.000 
#
# Total GULP energy -267279.932337 kJ/mol
# GULP energy per Si atom -5568.331924 kJ/mol
# Density = 2.105236 g / cm^3
# Si number density = 21.100382 Si / 1000 Ang^3
#
#
#
# Elastic Constant Matrix: (Units=GPa)
#
#
# Indices 1 2 3 4 5 6 
#
# 1 50.0059 13.0905 52.2718 0.0000 0.0000 0.0000
# 2 13.0905 50.0060 52.2721 0.0000 0.0000 0.0000
# 3 52.2718 52.2721 244.1923 0.0000 0.0000 0.0000
# 4 0.0000 0.0000 0.0000 15.1294 0.0000 0.0000
# 5 0.0000 0.0000 0.0000 0.0000 15.1297 0.0000
# 6 0.0000 0.0000 0.0000 0.0000 0.0000 4.1354
#
#
#
# Elastic Compliance Matrix: (Units=1/GPa)
#
#
# Indices 1 2 3 4 5 6 
#
# 1 0.025824 -0.001265 -0.005257 0.000000 0.000000 0.000000
# 2 -0.001265 0.025824 -0.005257 0.000000 0.000000 0.000000
# 3 -0.005257 -0.005257 0.006346 0.000000 0.000000 0.000000
# 4 0.000000 0.000000 0.000000 0.066096 0.000000 0.000000
# 5 0.000000 0.000000 0.000000 0.000000 0.066095 0.000000
# 6 0.000000 0.000000 0.000000 0.000000 0.000000 0.241814
#
#
# Mechanical properties :
#
#
# Convention : Reuss Voigt Hill
#
# Bulk Modulus (GPa) = 29.03957 64.38588 46.71273
# Shear Modulus (GPa) = 10.70579 21.98357 16.34468
#
# Velocity S-wave (km/s) = 2.25494 3.23128 2.78621
# Velocity P-wave (km/s) = 4.53565 6.67097 5.70412
#
# Compressibility (1/GPa) = 0.03443577
#
# Stress axis : x y z
#
# Youngs Moduli (GPa) = 38.72354 38.72343 157.58351
#
# Poissons Ratio (x) = 0.04898 0.82844
# Poissons Ratio (y) = 0.04898 0.82845
# Poissons Ratio (z) = 0.20358 0.20358
#
# Static dielectric constant tensor:
#      x y z
#    x 1.782610 0.000000 0.000000 
#    y 0.000000 1.782610 0.000000 
#    z 0.000000 0.000000 1.801120 
# 
# From -- ./inp_files/6256.got.cif
#   From: 2010.05.17/outbox.cif.g08.bks.cpg/sg115_4_cif.got.tgz:6256.got - 2010.05.20 11:07:42.
