data_PCOD9556454
_publ_section_title
;
Structure prediction by ZEFSAII (Michael W. Deem and Ramdas Pophale) SiO2 
 PCOD9556454
Probable space group: P -4 21 C
;
_chemical_formula_sum "Si O2"
_cell_formula_units_Z 26
_cell_length_a 8.550997
_cell_length_b 8.550997
_cell_length_c 15.074894
_cell_angle_alpha 90.000000
_cell_angle_beta 90.000000
_cell_angle_gamma 90.000000
_cell_volume 1102.269461
_symmetry_space_group_name_H-M "P -4 21 C"
_symmetry_group_IT_number 114
_symmetry_cell_setting 'tetragonal'
loop_
_space_group_symop_operation_xyz
x,y,z
y,-x,-z
-x,-y,z
-y,x,-z
1/2+x,1/2-y,1/2-z
1/2-x,1/2+y,1/2-z
1/2-y,1/2-x,1/2+z
1/2+y,1/2+x,1/2+z
loop_
_atom_site_type_symbol
_atom_site_label
_atom_site_fract_x
_atom_site_fract_y
_atom_site_fract_z
Si Si1 0.391284 0.282825 0.653782
Si Si2 0.000000 0.000000 0.500000
Si Si3 0.374316 0.260148 0.313806
Si Si4 0.161434 0.592474 0.006604
O O1 0.310514 0.446375 0.676643
O O2 0.575822 0.285545 0.672091
O O3 0.311951 0.157751 0.718214
O O4 0.356899 0.247454 0.551817
O O5 0.994787 0.183679 0.470602
O O6 0.327195 0.136383 0.389817
O O7 0.000000 0.500000 0.993102
#
# Coordination Sequence:
#
# PCOD9556454 Si02
#       4
#     8   2   8   8
#     4  11  27  47  74 110 152 199 256 319 390 466
#     4  12  28  44  84 112 148 198 268 308 388 472
#     4  11  27  47  74 110 152 199 256 319 390 466
#     4  12  28  49  78 113 154 205 257 324 396 458
#
# _framework density 23.587700999999999
#
# number of rings (size 3 to 8) (size 9 to 14) (size 15 to 20)
#    0.000    0.615    0.000    5.538   17.231    2.462 
#    0.000    0.000    0.000    0.000    0.000    0.000 
#    0.000    0.000    0.000    0.000    0.000    0.000 
#
# Total GULP energy -145355.544204 kJ/mol
# GULP energy per Si atom -5590.597854 kJ/mol
# Density = 2.353401 g / cm^3
# Si number density = 23.587701 Si / 1000 Ang^3
#
#
#
# Elastic Constant Matrix: (Units=GPa)
#
#
# Indices 1 2 3 4 5 6 
#
# 1 98.0548 39.8534 -0.4090 0.0000 0.0000 0.0000
# 2 39.8534 98.0548 -0.4090 0.0000 0.0000 0.0000
# 3 -0.4090 -0.4090 70.0676 0.0000 0.0000 0.0000
# 4 0.0000 0.0000 0.0000 13.1289 0.0000 0.0000
# 5 0.0000 0.0000 0.0000 0.0000 13.1289 0.0000
# 6 0.0000 0.0000 0.0000 0.0000 0.0000 30.1408
#
#
#
# Elastic Compliance Matrix: (Units=1/GPa)
#
#
# Indices 1 2 3 4 5 6 
#
# 1 0.012217 -0.004965 0.000042 0.000000 0.000000 0.000000
# 2 -0.004965 0.012217 0.000042 0.000000 0.000000 0.000000
# 3 0.000042 0.000042 0.014272 0.000000 0.000000 0.000000
# 4 0.000000 0.000000 0.000000 0.076168 0.000000 0.000000
# 5 0.000000 0.000000 0.000000 0.000000 0.076168 0.000000
# 6 0.000000 0.000000 0.000000 0.000000 0.000000 0.033178
#
#
# Mechanical properties :
#
#
# Convention : Reuss Voigt Hill
#
# Bulk Modulus (GPa) = 34.54870 38.24976 36.39923
# Shear Modulus (GPa) = 20.52305 26.42249 23.47277
#
# Velocity S-wave (km/s) = 2.95290 3.35054 3.15799
# Velocity P-wave (km/s) = 5.12883 5.58743 5.36303
#
# Compressibility (1/GPa) = 0.02894465
#
# Stress axis : x y z
#
# Youngs Moduli (GPa) = 81.85592 81.85592 70.06520
#
# Poissons Ratio (x) = 0.40643 -0.00297
# Poissons Ratio (y) = 0.40643 -0.00297
# Poissons Ratio (z) = -0.00346 -0.00346
#
# Static dielectric constant tensor:
#      x y z
#    x 1.935360 0.000000 0.000000 
#    y 0.000000 1.935360 0.000000 
#    z 0.000000 0.000000 1.799500 
# 
# From -- ./inp_files/1954.got.cif
#   From: 2010.05.17/outbox.cif.g08.bks.cpg/sg114_1_cif.got.tgz:1954.got - 2010.05.20 11:04:54.
