data_PCOD9556404
_publ_section_title
;
Structure prediction by ZEFSAII (Michael W. Deem and Ramdas Pophale) SiO2 
 PCOD9556404
Probable space group: P -4 21 C
;
_chemical_formula_sum "Si O2"
_cell_formula_units_Z 32
_cell_length_a 8.156643
_cell_length_b 8.156643
_cell_length_c 19.633321
_cell_angle_alpha 90.000000
_cell_angle_beta 90.000000
_cell_angle_gamma 90.000000
_cell_volume 1306.221044
_symmetry_space_group_name_H-M "P -4 21 C"
_symmetry_group_IT_number 114
_symmetry_cell_setting 'tetragonal'
loop_
_space_group_symop_operation_xyz
x,y,z
y,-x,-z
-x,-y,z
-y,x,-z
1/2+x,1/2-y,1/2-z
1/2-x,1/2+y,1/2-z
1/2-y,1/2-x,1/2+z
1/2+y,1/2+x,1/2+z
loop_
_atom_site_type_symbol
_atom_site_label
_atom_site_fract_x
_atom_site_fract_y
_atom_site_fract_z
Si Si1 0.582715 0.265549 0.416737
Si Si2 0.078025 0.281681 0.936258
Si Si3 0.568870 0.839293 0.279110
Si Si4 0.930706 0.836723 0.339601
O O1 0.602027 0.162288 0.485662
O O2 0.404043 0.348047 0.431371
O O3 0.734320 0.392880 0.414688
O O4 0.551662 0.186927 0.343710
O O5 0.183866 0.399452 0.889220
O O6 0.751226 0.859438 0.306200
O O7 0.550797 0.697747 0.223881
O O8 0.500000 0.000000 0.243279
O O9 0.000000 0.000000 0.374827
#
# Coordination Sequence:
#
# PCOD9556404 Si02
#       4
#     8   8   8   8
#     4   8  16  34  67  99 134 169 227 272 342 418
#     4   8  16  35  66 103 129 173 219 284 339 415
#     4  11  24  39  65  98 138 182 226 282 348 423
#     4  11  24  41  67 101 140 180 232 288 350 415
#
# _framework density 24.498152000000001
#
# number of rings (size 3 to 8) (size 9 to 14) (size 15 to 20)
#    0.000    2.500    0.000    3.000   10.500    0.000 
#    0.000    1.250   16.500    0.000    6.500    0.000 
#    0.000    0.000    0.000    0.000    0.000    0.000 
#
# Total GULP energy -178750.352983 kJ/mol
# GULP energy per Si atom -5585.948531 kJ/mol
# Density = 2.444239 g / cm^3
# Si number density = 24.498152 Si / 1000 Ang^3
#
#
#
# Elastic Constant Matrix: (Units=GPa)
#
#
# Indices 1 2 3 4 5 6 
#
# 1 109.1457 38.0260 46.3517 0.0000 0.0000 0.0000
# 2 38.0260 109.1457 46.3517 0.0000 0.0000 0.0000
# 3 46.3517 46.3517 123.3141 0.0000 0.0000 0.0000
# 4 0.0000 0.0000 0.0000 133.4607 0.0000 0.0000
# 5 0.0000 0.0000 0.0000 0.0000 133.4607 0.0000
# 6 0.0000 0.0000 0.0000 0.0000 0.0000 40.5043
#
#
#
# Elastic Compliance Matrix: (Units=1/GPa)
#
#
# Indices 1 2 3 4 5 6 
#
# 1 0.011482 -0.002579 -0.003346 0.000000 0.000000 0.000000
# 2 -0.002579 0.011482 -0.003346 0.000000 0.000000 0.000000
# 3 -0.003346 -0.003346 0.010625 0.000000 0.000000 0.000000
# 4 0.000000 0.000000 0.000000 0.007493 0.000000 0.000000
# 5 0.000000 0.000000 0.000000 0.000000 0.007493 0.000000
# 6 0.000000 0.000000 0.000000 0.000000 0.000000 0.024689
#
#
# Mechanical properties :
#
#
# Convention : Reuss Voigt Hill
#
# Bulk Modulus (GPa) = 66.46755 67.00711 66.73733
# Shear Modulus (GPa) = 51.64144 75.54354 63.59249
#
# Velocity S-wave (km/s) = 4.59625 5.55908 5.10043
# Velocity P-wave (km/s) = 7.44029 8.28346 7.87317
#
# Compressibility (1/GPa) = 0.01504494
#
# Stress axis : x y z
#
# Youngs Moduli (GPa) = 87.09489 87.09489 94.11719
#
# Poissons Ratio (x) = 0.22462 0.31495
# Poissons Ratio (y) = 0.22462 0.31495
# Poissons Ratio (z) = 0.29145 0.29145
#
# Static dielectric constant tensor:
#      x y z
#    x 1.960770 0.000000 0.000000 
#    y 0.000000 1.960770 0.000000 
#    z 0.000000 0.000000 1.946760 
# 
# From -- ./inp_files/2833.got.cif
#   From: 2010.05.17/outbox.cif.g08.bks.cpg/sg114_2_cif.got.tgz:2833.got - 2010.05.20 11:04:54.
