data_PCOD9556627
_publ_section_title
;
Structure prediction by ZEFSAII (Michael W. Deem and Ramdas Pophale) SiO2 
 PCOD9556627
Probable space group: P -4 M 2
;
_chemical_formula_sum "Si O2"
_cell_formula_units_Z 44
_cell_length_a 14.435898
_cell_length_b 14.435898
_cell_length_c 12.950650
_cell_angle_alpha 90.000000
_cell_angle_beta 90.000000
_cell_angle_gamma 90.000000
_cell_volume 2698.852663
_symmetry_space_group_name_H-M "P -4 M 2"
_symmetry_group_IT_number 115
_symmetry_cell_setting 'tetragonal'
loop_
_space_group_symop_operation_xyz
x,y,z
y,-x,-z
-x,-y,z
-y,x,-z
y,x,-z
-y,-x,-z
-x,y,z
x,-y,z
loop_
_atom_site_type_symbol
_atom_site_label
_atom_site_fract_x
_atom_site_fract_y
_atom_site_fract_z
Si Si1 0.757363 0.891424 0.373793
Si Si2 0.108129 0.713205 0.859877
Si Si3 0.609864 0.762027 0.988734
Si Si4 0.276153 0.109454 0.597370
Si Si5 0.891972 0.891972 0.000000
Si Si6 0.107302 0.611179 0.202617
O O1 0.712925 0.875274 0.262423
O O2 0.698016 0.871524 0.477597
O O3 0.843077 0.822091 0.382159
O O4 0.784102 0.000000 0.376981
O O5 0.124139 0.815551 0.910568
O O6 0.000000 0.691814 0.878281
O O7 0.172627 0.640685 0.917275
O O8 0.500000 0.746812 0.986057
O O9 0.638194 0.821153 0.886946
O O10 0.668613 0.668613 0.000000
O O11 0.346336 0.136960 0.687707
O O12 0.266500 0.000000 0.605857
O O13 0.000000 0.881498 0.033968
O O14 0.107173 0.500000 0.208726
O O15 0.000000 0.639616 0.179243
#
# Coordination Sequence:
#
# PCOD9556627 Si02
#       6
#     8   8   8   8   4   8
#     4   9  18  30  43  66  99 133 165 197 233 282
#     4  10  19  32  50  72 103 135 165 200 243 291
#     4  11  22  36  53  74  98 125 160 200 249 301
#     4   9  17  29  46  66  94 131 168 202 237 274
#     4   9  18  30  46  72 103 136 172 204 237 282
#     4   9  18  33  54  77  96 118 157 206 247 286
#
# _framework density 16.303224
#
# number of rings (size 3 to 8) (size 9 to 14) (size 15 to 20)
#    0.000    2.455    0.909    1.636    0.000    2.364 
#    0.000    4.545    0.000    3.273    0.000    0.000 
#    0.000    0.000    0.000    9.636    0.000    0.000 
#
# Total GULP energy -245098.437933 kJ/mol
# GULP energy per Si atom -5570.419044 kJ/mol
# Density = 1.626612 g / cm^3
# Si number density = 16.303224 Si / 1000 Ang^3
#
#
#
# Elastic Constant Matrix: (Units=GPa)
#
#
# Indices 1 2 3 4 5 6 
#
# 1 56.4709 33.3803 50.6042 0.0000 0.0000 0.0000
# 2 33.3803 56.4709 50.6042 0.0000 0.0000 0.0000
# 3 50.6042 50.6042 131.3789 0.0000 0.0000 0.0000
# 4 0.0000 0.0000 0.0000 16.1944 0.0000 0.0000
# 5 0.0000 0.0000 0.0000 0.0000 16.1944 0.0000
# 6 0.0000 0.0000 0.0000 0.0000 0.0000 22.7250
#
#
#
# Elastic Compliance Matrix: (Units=1/GPa)
#
#
# Indices 1 2 3 4 5 6 
#
# 1 0.031483 -0.011824 -0.007572 0.000000 0.000000 0.000000
# 2 -0.011824 0.031483 -0.007572 0.000000 0.000000 0.000000
# 3 -0.007572 -0.007572 0.013445 0.000000 0.000000 0.000000
# 4 0.000000 0.000000 0.000000 0.061750 0.000000 0.000000
# 5 0.000000 0.000000 0.000000 0.000000 0.061750 0.000000
# 6 0.000000 0.000000 0.000000 0.000000 0.000000 0.044004
#
#
# Mechanical properties :
#
#
# Convention : Reuss Voigt Hill
#
# Bulk Modulus (GPa) = 44.49619 57.05533 50.77576
# Shear Modulus (GPa) = 16.37503 18.33826 17.35664
#
# Velocity S-wave (km/s) = 3.17267 3.35748 3.26638
# Velocity P-wave (km/s) = 6.38539 7.07831 6.74076
#
# Compressibility (1/GPa) = 0.02247384
#
# Stress axis : x y z
#
# Youngs Moduli (GPa) = 31.76304 31.76304 74.37841
#
# Poissons Ratio (x) = 0.37558 0.56320
# Poissons Ratio (y) = 0.37558 0.56320
# Poissons Ratio (z) = 0.24051 0.24051
#
# Static dielectric constant tensor:
#      x y z
#    x 1.538950 0.000000 0.000000 
#    y 0.000000 1.538950 0.000000 
#    z 0.000000 0.000000 1.583490 
# 
# From -- ./inp_files/2797.got.cif
#   From: 2010.05.17/outbox.cif.g08.bks.cpg/sg115_2_cif.got.tgz:2797.got - 2010.05.20 11:07:42.
