data_PCOD9556915
_publ_section_title
;
Structure prediction by ZEFSAII (Michael W. Deem and Ramdas Pophale) SiO2 
 PCOD9556915
Probable space group: P -4 M 2
;
_chemical_formula_sum "Si O2"
_cell_formula_units_Z 49
_cell_length_a 8.327140
_cell_length_b 8.327140
_cell_length_c 35.574690
_cell_angle_alpha 90.000000
_cell_angle_beta 90.000000
_cell_angle_gamma 90.000000
_cell_volume 2466.793849
_symmetry_space_group_name_H-M "P -4 M 2"
_symmetry_group_IT_number 115
_symmetry_cell_setting 'tetragonal'
loop_
_space_group_symop_operation_xyz
x,y,z
y,-x,-z
-x,-y,z
-y,x,-z
y,x,-z
-y,-x,-z
-x,y,z
x,-y,z
loop_
_atom_site_type_symbol
_atom_site_label
_atom_site_fract_x
_atom_site_fract_y
_atom_site_fract_z
Si Si1 0.181019 0.806916 0.266246
Si Si2 0.198362 0.500000 0.056159
Si Si3 0.500000 0.500000 0.000000
Si Si4 0.309179 0.309179 0.500000
Si Si5 0.314620 0.190257 0.579018
Si Si6 0.682251 0.310646 0.656658
Si Si7 0.190116 0.816191 0.105328
Si Si8 0.194913 0.318167 0.813029
O O1 0.275566 0.763040 0.303676
O O2 0.248673 0.745463 0.226522
O O3 0.000000 0.748235 0.270913
O O4 0.178769 0.000000 0.263671
O O5 0.330754 0.500000 0.023039
O O6 0.235805 0.664820 0.079328
O O7 0.000000 0.500000 0.048253
O O8 0.279829 0.500000 0.499800
O O9 0.241503 0.246003 0.539513
O O10 0.500000 0.255358 0.579838
O O11 0.239532 0.241070 0.618728
O O12 0.322213 0.000000 0.578169
O O13 0.500000 0.244689 0.659208
O O14 0.675339 0.500000 0.651349
O O15 0.225936 0.770090 0.148571
O O16 0.000000 0.830636 0.100910
O O17 0.257249 0.000000 0.098458
O O18 0.251202 0.500000 0.817063
O O19 0.000000 0.319015 0.810604
#
# Coordination Sequence:
#
# PCOD9556915 Si02
#       8
#     8   4   1   4   8   8   8   8
#     4  10  20  34  52  75 107 145 184 227 276 333
#     4  10  24  44  64  96 132 166 214 264 314 380
#     4  12  28  44  68  96 132 172 212 260 324 368
#     4   9  16  28  48  71  90 112 152 203 254 306
#     4   9  17  30  49  71  95 125 160 203 257 318
#     4  10  20  34  52  74 101 134 177 222 267 320
#     4   9  18  36  62  89 121 161 204 254 310 366
#     4   9  17  30  52  82 112 147 191 236 285 343
#
# _framework density 19.863841000000001
#
# number of rings (size 3 to 8) (size 9 to 14) (size 15 to 20)
#    0.000    2.531    0.000    1.959    1.143    6.531 
#    1.469    0.816    0.000    3.184    0.000    0.000 
#    0.000    0.000    0.000    0.000    0.000    0.000 
#
# Total GULP energy -272861.177367 kJ/mol
# GULP energy per Si atom -5568.595456 kJ/mol
# Density = 1.981863 g / cm^3
# Si number density = 19.863841 Si / 1000 Ang^3
#
#
#
# Elastic Constant Matrix: (Units=GPa)
#
#
# Indices 1 2 3 4 5 6 
#
# 1 26.9954 36.6676 48.0293 0.0000 0.0000 0.0000
# 2 36.6676 26.9954 48.0293 0.0000 0.0000 0.0000
# 3 48.0293 48.0293 158.6115 0.0000 0.0000 0.0000
# 4 0.0000 0.0000 0.0000 -9.2908 0.0000 0.0000
# 5 0.0000 0.0000 0.0000 0.0000 -9.2908 0.0000
# 6 0.0000 0.0000 0.0000 0.0000 0.0000 12.7155
#
#
#
# Elastic Compliance Matrix: (Units=1/GPa)
#
#
# Indices 1 2 3 4 5 6 
#
# 1 -0.037233 0.066156 -0.008758 0.000000 0.000000 0.000000
# 2 0.066156 -0.037233 -0.008758 0.000000 0.000000 0.000000
# 3 -0.008758 -0.008758 0.011609 0.000000 0.000000 0.000000
# 4 0.000000 0.000000 0.000000 -0.107634 0.000000 0.000000
# 5 0.000000 0.000000 0.000000 0.000000 -0.107634 0.000000
# 6 0.000000 0.000000 0.000000 0.000000 0.000000 0.078644
#
#
# Mechanical properties :
#
#
# Convention : Reuss Voigt Hill
#
# Bulk Modulus (GPa) = 29.05168 53.11720 41.08444
# Shear Modulus (GPa) = -17.52624 4.15187 -6.68719
#
# Velocity S-wave (km/s) = -2.97361 1.44731 -1.83680
# Velocity P-wave (km/s) = 1.69333 5.43982 4.02859
#
# Compressibility (1/GPa) = 0.03442142
#
# Stress axis : x y z
#
# Youngs Moduli (GPa) = -26.85779 -26.85779 86.14178
#
# Poissons Ratio (x) = 1.77679 0.75443
# Poissons Ratio (y) = 1.77679 0.75443
# Poissons Ratio (z) = -0.23522 -0.23522
#
# Static dielectric constant tensor:
#      x y z
#    x 1.724300 0.000000 0.000000 
#    y 0.000000 1.724300 0.000000 
#    z 0.000000 0.000000 1.749690 
# 
# From -- ./inp_files/6308.got.cif
#   From: 2010.05.17/outbox.cif.g08.bks.cpg/sg115_4_cif.got.tgz:6308.got - 2010.05.20 11:07:42.
