data_PCOD9556124
_publ_section_title
;
Structure prediction by ZEFSAII (Michael W. Deem and Ramdas Pophale) SiO2 
 PCOD9556124
Probable space group: P -4 21 C
;
_chemical_formula_sum "Si O2"
_cell_formula_units_Z 60
_cell_length_a 16.992983
_cell_length_b 16.992983
_cell_length_c 9.299496
_cell_angle_alpha 90.000000
_cell_angle_beta 90.000000
_cell_angle_gamma 90.000000
_cell_volume 2685.336147
_symmetry_space_group_name_H-M "P -4 21 C"
_symmetry_group_IT_number 114
_symmetry_cell_setting 'tetragonal'
loop_
_space_group_symop_operation_xyz
x,y,z
y,-x,-z
-x,-y,z
-y,x,-z
1/2+x,1/2-y,1/2-z
1/2-x,1/2+y,1/2-z
1/2-y,1/2-x,1/2+z
1/2+y,1/2+x,1/2+z
loop_
_atom_site_type_symbol
_atom_site_label
_atom_site_fract_x
_atom_site_fract_y
_atom_site_fract_z
Si Si1 0.172800 0.778446 0.221307
Si Si2 0.000000 0.500000 0.326177
Si Si3 0.112407 0.042822 0.522597
Si Si4 0.584761 0.149799 0.066111
Si Si5 0.240417 0.152658 0.444838
Si Si6 0.271577 0.495384 0.720381
Si Si7 0.330881 0.015336 0.313473
Si Si8 0.072818 0.243437 0.913948
O O1 0.178703 0.766522 0.391130
O O2 0.240822 0.726360 0.151415
O O3 0.085395 0.746536 0.182095
O O4 0.185136 0.867478 0.167453
O O5 0.971618 0.573878 0.418056
O O6 0.921013 0.479834 0.237467
O O7 0.161782 0.102342 0.425233
O O8 0.161087 0.013683 0.660817
O O9 0.033274 0.087130 0.566277
O O10 0.556525 0.207487 0.192919
O O11 0.673613 0.120068 0.069482
O O12 0.561908 0.183967 0.911348
O O13 0.307827 0.089106 0.410857
O O14 0.288202 0.452600 0.570075
O O15 0.272019 0.002739 0.179200
#
# Coordination Sequence:
#
# PCOD9556124 Si02
#       8
#     8   4   8   8   8   8   8   8
#     4  11  27  45  71 108 143 193 240 303 375 433
#     4  10  22  36  66  98 146 184 242 290 352 438
#     4  10  24  48  79 105 133 194 250 302 363 434
#     4  11  22  42  67  99 140 193 236 289 354 444
#     4  11  26  42  72 101 145 180 243 300 360 440
#     4  11  25  49  70 107 153 179 248 307 357 451
#     4  11  23  42  66 101 140 194 236 291 363 437
#     4  11  27  43  72 105 145 191 238 302 376 436
#
# _framework density 22.343572000000002
#
# number of rings (size 3 to 8) (size 9 to 14) (size 15 to 20)
#    0.000    1.200    2.667    2.800   11.200    2.133 
#    0.000    0.000    0.000    0.000    0.000    0.000 
#    0.000    0.000    0.000    0.000    0.000    0.000 
#
# Total GULP energy -335212.964420 kJ/mol
# GULP energy per Si atom -5586.882740 kJ/mol
# Density = 2.229272 g / cm^3
# Si number density = 22.343572 Si / 1000 Ang^3
#
#
#
# Elastic Constant Matrix: (Units=GPa)
#
#
# Indices 1 2 3 4 5 6 
#
# 1 72.8702 31.9328 20.1302 0.0000 0.0000 0.0000
# 2 31.9328 72.8702 20.1302 0.0000 0.0000 0.0000
# 3 20.1302 20.1302 61.1746 0.0000 0.0000 0.0000
# 4 0.0000 0.0000 0.0000 29.7011 0.0000 0.0000
# 5 0.0000 0.0000 0.0000 0.0000 29.7011 0.0000
# 6 0.0000 0.0000 0.0000 0.0000 0.0000 37.9685
#
#
#
# Elastic Compliance Matrix: (Units=1/GPa)
#
#
# Indices 1 2 3 4 5 6 
#
# 1 0.017675 -0.006753 -0.003594 0.000000 0.000000 0.000000
# 2 -0.006753 0.017675 -0.003594 0.000000 0.000000 0.000000
# 3 -0.003594 -0.003594 0.018712 0.000000 0.000000 0.000000
# 4 0.000000 0.000000 0.000000 0.033669 0.000000 0.000000
# 5 0.000000 0.000000 0.000000 0.000000 0.033669 0.000000
# 6 0.000000 0.000000 0.000000 0.000000 0.000000 0.026338
#
#
# Mechanical properties :
#
#
# Convention : Reuss Voigt Hill
#
# Bulk Modulus (GPa) = 38.19664 39.03346 38.61505
# Shear Modulus (GPa) = 27.12296 28.45559 27.78927
#
# Velocity S-wave (km/s) = 3.48789 3.57255 3.53048
# Velocity P-wave (km/s) = 5.77519 5.87580 5.82571
#
# Compressibility (1/GPa) = 0.02618031
#
# Stress axis : x y z
#
# Youngs Moduli (GPa) = 56.57718 56.57718 53.44149
#
# Poissons Ratio (x) = 0.38204 0.19208
# Poissons Ratio (y) = 0.38204 0.19208
# Poissons Ratio (z) = 0.20335 0.20335
#
# Static dielectric constant tensor:
#      x y z
#    x 1.858920 0.000000 0.000000 
#    y 0.000000 1.858920 0.000000 
#    z 0.000000 0.000000 1.820020 
# 
# From -- ./inp_files/1045.got.cif
#   From: 2010.05.17/outbox.cif.g08.bks.cpg/sg114_1_cif.got.tgz:1045.got - 2010.05.20 11:04:54.
