data_PCOD9556342
_publ_section_title
;
Structure prediction by ZEFSAII (Michael W. Deem and Ramdas Pophale) SiO2 
 PCOD9556342
Probable space group: P -4 21 C
;
_chemical_formula_sum "Si O2"
_cell_formula_units_Z 60
_cell_length_a 17.817714
_cell_length_b 17.817714
_cell_length_c 9.326725
_cell_angle_alpha 90.000000
_cell_angle_beta 90.000000
_cell_angle_gamma 90.000000
_cell_volume 2960.964080
_symmetry_space_group_name_H-M "P -4 21 C"
_symmetry_group_IT_number 114
_symmetry_cell_setting 'tetragonal'
loop_
_space_group_symop_operation_xyz
x,y,z
y,-x,-z
-x,-y,z
-y,x,-z
1/2+x,1/2-y,1/2-z
1/2-x,1/2+y,1/2-z
1/2-y,1/2-x,1/2+z
1/2+y,1/2+x,1/2+z
loop_
_atom_site_type_symbol
_atom_site_label
_atom_site_fract_x
_atom_site_fract_y
_atom_site_fract_z
Si Si1 0.441928 0.143013 0.601200
Si Si2 0.528500 0.169394 0.345614
Si Si3 0.389769 0.336168 0.001115
Si Si4 0.794732 0.800598 0.763417
Si Si5 0.500000 0.000000 0.731974
Si Si6 0.949950 0.783189 0.411421
Si Si7 0.359311 0.181659 0.880670
Si Si8 0.307400 0.811868 0.974731
O O1 0.483282 0.194191 0.486731
O O2 0.417030 0.177672 0.750553
O O3 0.368353 0.115441 0.514815
O O4 0.496284 0.074359 0.637347
O O5 0.501777 0.083514 0.306046
O O6 0.523953 0.231905 0.221998
O O7 0.613707 0.165894 0.395724
O O8 0.357567 0.343621 0.165093
O O9 0.475064 0.307755 0.005108
O O10 0.363138 0.405871 0.904752
O O11 0.347722 0.265450 0.932030
O O12 0.721565 0.843274 0.821216
O O13 0.768171 0.737974 0.648386
O O14 0.827202 0.750889 0.895042
O O15 0.884166 0.730911 0.479581
#
# Coordination Sequence:
#
# PCOD9556342 Si02
#       8
#     8   8   8   8   4   8   8   8
#     4  12  25  36  60  89 136 181 225 265 329 409
#     4  12  24  42  62  95 142 184 220 276 342 413
#     4  11  24  40  72  95 134 171 233 290 347 414
#     4  11  20  41  66  94 124 174 224 285 329 400
#     4  12  26  42  56  98 146 194 214 270 332 422
#     4  11  24  43  65  99 128 177 230 290 345 411
#     4  12  21  40  61  94 126 173 227 278 328 396
#     4  11  22  40  67  93 133 177 222 276 346 418
#
# _framework density 20.263669
#
# number of rings (size 3 to 8) (size 9 to 14) (size 15 to 20)
#    0.000    0.533    6.667    2.800    1.867    1.333 
#    0.000    0.000    0.000    0.000    0.000    1.867 
#    0.000    0.000    0.000    0.000    0.000    0.000 
#
# Total GULP energy -334170.546578 kJ/mol
# GULP energy per Si atom -5569.509110 kJ/mol
# Density = 2.021755 g / cm^3
# Si number density = 20.263669 Si / 1000 Ang^3
#
#
#
# Elastic Constant Matrix: (Units=GPa)
#
#
# Indices 1 2 3 4 5 6 
#
# 1 64.6758 13.2648 18.7155 0.0000 0.0000 0.0000
# 2 13.2648 64.6758 18.7155 0.0000 0.0000 0.0000
# 3 18.7155 18.7155 80.6402 0.0000 0.0000 0.0000
# 4 0.0000 0.0000 0.0000 29.9271 0.0000 0.0000
# 5 0.0000 0.0000 0.0000 0.0000 29.9271 0.0000
# 6 0.0000 0.0000 0.0000 0.0000 0.0000 33.7289
#
#
#
# Elastic Compliance Matrix: (Units=1/GPa)
#
#
# Indices 1 2 3 4 5 6 
#
# 1 0.016945 -0.002506 -0.003351 0.000000 0.000000 0.000000
# 2 -0.002506 0.016945 -0.003351 0.000000 0.000000 0.000000
# 3 -0.003351 -0.003351 0.013956 0.000000 0.000000 0.000000
# 4 0.000000 0.000000 0.000000 0.033415 0.000000 0.000000
# 5 0.000000 0.000000 0.000000 0.000000 0.033415 0.000000
# 6 0.000000 0.000000 0.000000 0.000000 0.000000 0.029648
#
#
# Mechanical properties :
#
#
# Convention : Reuss Voigt Hill
#
# Bulk Modulus (GPa) = 33.97807 34.59813 34.28810
# Shear Modulus (GPa) = 28.97692 29.33634 29.15663
#
# Velocity S-wave (km/s) = 3.78563 3.80903 3.79735
# Velocity P-wave (km/s) = 5.99269 6.03788 6.01533
#
# Compressibility (1/GPa) = 0.02943075
#
# Stress axis : x y z
#
# Youngs Moduli (GPa) = 59.01301 59.01301 71.65211
#
# Poissons Ratio (x) = 0.14787 0.24012
# Poissons Ratio (y) = 0.14787 0.24012
# Poissons Ratio (z) = 0.19777 0.19777
#
# Static dielectric constant tensor:
#      x y z
#    x 1.780320 0.000000 0.000000 
#    y 0.000000 1.780320 0.000000 
#    z 0.000000 0.000000 1.749960 
# 
# From -- ./inp_files/1037.got.cif
#   From: 2010.05.17/outbox.cif.g08.bks.cpg/sg114_1_cif.got.tgz:1037.got - 2010.05.20 11:04:54.
