data_PCOD9556409
_publ_section_title
;
Structure prediction by ZEFSAII (Michael W. Deem and Ramdas Pophale) SiO2 
 PCOD9556409
Probable space group: P -4 21 C
;
_chemical_formula_sum "Si O2"
_cell_formula_units_Z 28
_cell_length_a 8.255611
_cell_length_b 8.255611
_cell_length_c 18.952198
_cell_angle_alpha 90.000000
_cell_angle_beta 90.000000
_cell_angle_gamma 90.000000
_cell_volume 1291.689196
_symmetry_space_group_name_H-M "P -4 21 C"
_symmetry_group_IT_number 114
_symmetry_cell_setting 'tetragonal'
loop_
_space_group_symop_operation_xyz
x,y,z
y,-x,-z
-x,-y,z
-y,x,-z
1/2+x,1/2-y,1/2-z
1/2-x,1/2+y,1/2-z
1/2-y,1/2-x,1/2+z
1/2+y,1/2+x,1/2+z
loop_
_atom_site_type_symbol
_atom_site_label
_atom_site_fract_x
_atom_site_fract_y
_atom_site_fract_z
Si Si1 0.236511 0.427743 0.493922
Si Si2 0.950668 0.728053 0.372513
Si Si3 0.756084 0.551936 0.116603
Si Si4 0.500000 0.000000 0.257343
O O1 0.309124 0.606519 0.505030
O O2 0.139186 0.404249 0.421233
O O3 0.112877 0.374244 0.555070
O O4 0.967049 0.651602 0.294668
O O5 0.129139 0.800165 0.382999
O O6 0.843199 0.886315 0.392122
O O7 0.849932 0.514455 0.189004
#
# Coordination Sequence:
#
# PCOD9556409 Si02
#       4
#     8   8   8   4
#     4  11  24  43  70 103 136 174 222 277 340 412
#     4  11  24  42  66  96 132 176 223 276 340 405
#     4  11  24  42  66  96 132 176 223 276 340 405
#     4  12  24  42  64  92 132 174 224 280 332 402
#
# _framework density 21.677043000000001
#
# number of rings (size 3 to 8) (size 9 to 14) (size 15 to 20)
#    0.000    0.857    0.000    6.857    0.000    5.714 
#    0.000    5.714    0.000    0.000    0.000    0.000 
#    0.000    0.000    0.000    0.000    0.000    0.000 
#
# Total GULP energy -156120.186839 kJ/mol
# GULP energy per Si atom -5575.720959 kJ/mol
# Density = 2.162770 g / cm^3
# Si number density = 21.677043 Si / 1000 Ang^3
#
#
#
# Elastic Constant Matrix: (Units=GPa)
#
#
# Indices 1 2 3 4 5 6 
#
# 1 68.0785 16.2399 11.7074 0.0000 0.0000 0.0000
# 2 16.2399 68.0785 11.7074 0.0000 0.0000 0.0000
# 3 11.7074 11.7074 81.1475 0.0000 0.0000 0.0000
# 4 0.0000 0.0000 0.0000 116.8457 0.0000 0.0000
# 5 0.0000 0.0000 0.0000 0.0000 116.8457 0.0000
# 6 0.0000 0.0000 0.0000 0.0000 0.0000 51.6513
#
#
#
# Elastic Compliance Matrix: (Units=1/GPa)
#
#
# Indices 1 2 3 4 5 6 
#
# 1 0.015823 -0.003468 -0.001782 0.000000 0.000000 0.000000
# 2 -0.003468 0.015823 -0.001782 0.000000 0.000000 0.000000
# 3 -0.001782 -0.001782 0.012838 0.000000 0.000000 0.000000
# 4 0.000000 0.000000 0.000000 0.008558 0.000000 0.000000
# 5 0.000000 0.000000 0.000000 0.000000 0.008558 0.000000
# 6 0.000000 0.000000 0.000000 0.000000 0.000000 0.019361
#
#
# Mechanical properties :
#
#
# Convention : Reuss Voigt Hill
#
# Bulk Modulus (GPa) = 32.87607 32.95713 32.91660
# Shear Modulus (GPa) = 47.54435 68.91186 58.22811
#
# Velocity S-wave (km/s) = 4.68835 5.64440 5.18844
# Velocity P-wave (km/s) = 6.67134 7.59709 7.14921
#
# Compressibility (1/GPa) = 0.03041726
#
# Stress axis : x y z
#
# Youngs Moduli (GPa) = 63.20031 63.20031 77.89637
#
# Poissons Ratio (x) = 0.21917 0.13885
# Poissons Ratio (y) = 0.21917 0.13885
# Poissons Ratio (z) = 0.11265 0.11265
#
# Static dielectric constant tensor:
#      x y z
#    x 1.611370 0.000000 0.000000 
#    y 0.000000 1.611370 0.000000 
#    z 0.000000 0.000000 1.764590 
# 
# From -- ./inp_files/2428.got.cif
#   From: 2010.05.17/outbox.cif.g08.bks.cpg/sg114_2_cif.got.tgz:2428.got - 2010.05.20 11:04:54.
