data_PCOD9556303
_publ_section_title
;
Structure prediction by ZEFSAII (Michael W. Deem and Ramdas Pophale) SiO2 
 PCOD9556303
Probable space group: P -4 21 C
;
_chemical_formula_sum "Si O2"
_cell_formula_units_Z 54
_cell_length_a 13.989694
_cell_length_b 13.989694
_cell_length_c 13.141482
_cell_angle_alpha 90.000000
_cell_angle_beta 90.000000
_cell_angle_gamma 90.000000
_cell_volume 2571.939657
_symmetry_space_group_name_H-M "P -4 21 C"
_symmetry_group_IT_number 114
_symmetry_cell_setting 'tetragonal'
loop_
_space_group_symop_operation_xyz
x,y,z
y,-x,-z
-x,-y,z
-y,x,-z
1/2+x,1/2-y,1/2-z
1/2-x,1/2+y,1/2-z
1/2-y,1/2-x,1/2+z
1/2+y,1/2+x,1/2+z
loop_
_atom_site_type_symbol
_atom_site_label
_atom_site_fract_x
_atom_site_fract_y
_atom_site_fract_z
Si Si1 0.191052 0.768744 0.511304
Si Si2 0.570370 0.833051 0.386230
Si Si3 0.952636 0.852763 0.823055
Si Si4 0.500000 0.500000 0.500000
Si Si5 0.417914 0.420813 0.858134
Si Si6 0.818069 0.592050 0.459291
Si Si7 0.500000 0.000000 0.498981
Si Si8 0.727802 0.422268 0.808258
O O1 0.205853 0.669918 0.571347
O O2 0.111826 0.837204 0.564599
O O3 0.297287 0.812738 0.510899
O O4 0.148696 0.749525 0.399913
O O5 0.477825 0.790442 0.445422
O O6 0.562922 0.815092 0.267656
O O7 0.568983 0.941493 0.424518
O O8 0.938557 0.747312 0.865574
O O9 0.858256 0.879346 0.760114
O O10 0.040488 0.875024 0.746405
O O11 0.963025 0.918752 0.922999
O O12 0.500000 0.500000 0.887061
O O13 0.320003 0.479251 0.844127
O O14 0.926077 0.560987 0.437496
#
# Coordination Sequence:
#
# PCOD9556303 Si02
#       8
#     8   8   8   2   8   8   4   8
#     4  12  27  45  80 105 152 196 255 311 382 462
#     4  10  24  49  68 102 144 193 255 302 373 449
#     4  11  22  42  71 108 148 186 244 309 376 439
#     4  12  20  40  76 110 144 176 240 312 372 446
#     4  10  26  44  70 112 151 192 241 325 383 445
#     4  10  24  47  75 102 150 200 247 309 365 457
#     4   8  24  46  70  98 152 194 244 298 378 436
#     4  11  24  43  70 112 142 193 251 307 384 447
#
# _framework density 20.995826000000001
#
# number of rings (size 3 to 8) (size 9 to 14) (size 15 to 20)
#    0.889    0.593    3.704    0.889    6.222    2.370 
#    0.000    2.222    0.000    0.000    0.000    0.000 
#    0.000    0.000    0.000    0.000    0.000    0.000 
#
# Total GULP energy -301252.705779 kJ/mol
# GULP energy per Si atom -5578.753811 kJ/mol
# Density = 2.094804 g / cm^3
# Si number density = 20.995826 Si / 1000 Ang^3
#
#
#
# Elastic Constant Matrix: (Units=GPa)
#
#
# Indices 1 2 3 4 5 6 
#
# 1 69.8299 -7.4536 19.1131 0.0000 0.0000 0.0000
# 2 -7.4536 69.8299 19.1131 0.0000 0.0000 0.0000
# 3 19.1131 19.1131 94.7065 0.0000 0.0000 0.0000
# 4 0.0000 0.0000 0.0000 14.7085 0.0000 0.0000
# 5 0.0000 0.0000 0.0000 0.0000 14.7085 0.0000
# 6 0.0000 0.0000 0.0000 0.0000 0.0000 21.3565
#
#
#
# Elastic Compliance Matrix: (Units=1/GPa)
#
#
# Indices 1 2 3 4 5 6 
#
# 1 0.015617 0.002677 -0.003692 0.000000 0.000000 0.000000
# 2 0.002677 0.015617 -0.003692 0.000000 0.000000 0.000000
# 3 -0.003692 -0.003692 0.012049 0.000000 0.000000 0.000000
# 4 0.000000 0.000000 0.000000 0.067988 0.000000 0.000000
# 5 0.000000 0.000000 0.000000 0.000000 0.067988 0.000000
# 6 0.000000 0.000000 0.000000 0.000000 0.000000 0.046824
#
#
# Mechanical properties :
#
#
# Convention : Reuss Voigt Hill
#
# Bulk Modulus (GPa) = 29.52499 32.87906 31.20202
# Shear Modulus (GPa) = 20.26049 23.72763 21.99406
#
# Velocity S-wave (km/s) = 3.10978 3.36536 3.24009
# Velocity P-wave (km/s) = 5.19491 5.54929 5.37503
#
# Compressibility (1/GPa) = 0.03386961
#
# Stress axis : x y z
#
# Youngs Moduli (GPa) = 64.03342 64.03342 82.99340
#
# Poissons Ratio (x) = -0.17145 0.30642
# Poissons Ratio (y) = -0.17145 0.30642
# Poissons Ratio (z) = 0.23641 0.23641
#
# Static dielectric constant tensor:
#      x y z
#    x 1.974330 0.000000 0.000000 
#    y 0.000000 1.974330 0.000000 
#    z 0.000000 0.000000 1.735460 
# 
# From -- ./inp_files/1781.got.cif
#   From: 2010.05.17/outbox.cif.g08.bks.cpg/sg114_1_cif.got.tgz:1781.got - 2010.05.20 11:04:54.
