data_PCOD9556328
_publ_section_title
;
Structure prediction by ZEFSAII (Michael W. Deem and Ramdas Pophale) SiO2 
 PCOD9556328
Probable space group: P -4 21 C
;
_chemical_formula_sum "Si O2"
_cell_formula_units_Z 36
_cell_length_a 8.139501
_cell_length_b 8.139501
_cell_length_c 23.073728
_cell_angle_alpha 90.000000
_cell_angle_beta 90.000000
_cell_angle_gamma 90.000000
_cell_volume 1528.668549
_symmetry_space_group_name_H-M "P -4 21 C"
_symmetry_group_IT_number 114
_symmetry_cell_setting 'tetragonal'
loop_
_space_group_symop_operation_xyz
x,y,z
y,-x,-z
-x,-y,z
-y,x,-z
1/2+x,1/2-y,1/2-z
1/2-x,1/2+y,1/2-z
1/2-y,1/2-x,1/2+z
1/2+y,1/2+x,1/2+z
loop_
_atom_site_type_symbol
_atom_site_label
_atom_site_fract_x
_atom_site_fract_y
_atom_site_fract_z
Si Si1 0.500000 0.000000 0.540517
Si Si2 0.325246 0.796193 0.629470
Si Si3 0.808448 0.014773 0.732042
Si Si4 0.804301 0.201890 0.839742
Si Si5 0.504473 0.292141 0.445720
O O1 0.643226 0.047401 0.586761
O O2 0.495449 0.167434 0.501024
O O3 0.228857 0.840519 0.686843
O O4 0.500651 0.726846 0.651300
O O5 0.248498 0.657771 0.589660
O O6 0.747719 0.056271 0.796375
O O7 0.745369 0.859093 0.697135
O O8 0.000000 0.000000 0.739057
O O9 0.746765 0.157714 0.904582
O O10 0.500000 0.500000 0.448079
#
# Coordination Sequence:
#
# PCOD9556328 Si02
#       5
#     4   8   8   8   8
#     4  12  26  46  76 108 140 204 258 296 366 474
#     4  11  25  47  67 103 147 187 243 307 378 450
#     4  12  24  41  71 103 142 180 244 311 381 460
#     4  11  23  47  70 103 142 196 238 308 394 458
#     4  10  26  46  76 103 144 197 249 307 381 447
#
# _framework density 23.549904999999999
#
# number of rings (size 3 to 8) (size 9 to 14) (size 15 to 20)
#    0.000    0.889    2.222    4.667    9.333    0.000 
#    4.000    0.000    0.000    0.000    0.000    0.000 
#    0.000    0.000    0.000    0.000    0.000    0.000 
#
# Total GULP energy -200559.052530 kJ/mol
# GULP energy per Si atom -5571.084792 kJ/mol
# Density = 2.349630 g / cm^3
# Si number density = 23.549905 Si / 1000 Ang^3
#
#
#
# Elastic Constant Matrix: (Units=GPa)
#
#
# Indices 1 2 3 4 5 6 
#
# 1 63.8799 -3.7822 38.8243 0.0000 0.0000 0.0000
# 2 -3.7822 63.8799 38.8243 0.0000 0.0000 0.0000
# 3 38.8243 38.8243 175.3155 0.0000 0.0000 0.0000
# 4 0.0000 0.0000 0.0000 96.5509 0.0000 0.0000
# 5 0.0000 0.0000 0.0000 0.0000 96.5509 0.0000
# 6 0.0000 0.0000 0.0000 0.0000 0.0000 26.4057
#
#
#
# Elastic Compliance Matrix: (Units=1/GPa)
#
#
# Indices 1 2 3 4 5 6 
#
# 1 0.019044 0.004265 -0.005162 0.000000 0.000000 0.000000
# 2 0.004265 0.019044 -0.005162 0.000000 0.000000 0.000000
# 3 -0.005162 -0.005162 0.007990 0.000000 0.000000 0.000000
# 4 0.000000 0.000000 0.000000 0.010357 0.000000 0.000000
# 5 0.000000 0.000000 0.000000 0.000000 0.010357 0.000000
# 6 0.000000 0.000000 0.000000 0.000000 0.000000 0.037871
#
#
# Mechanical properties :
#
#
# Convention : Reuss Voigt Hill
#
# Bulk Modulus (GPa) = 29.44591 50.08977 39.76784
# Shear Modulus (GPa) = 39.03155 59.18209 49.10682
#
# Velocity S-wave (km/s) = 4.07553 5.01847 4.57138
# Velocity P-wave (km/s) = 5.88875 7.40918 6.69228
#
# Compressibility (1/GPa) = 0.03396058
#
# Stress axis : x y z
#
# Youngs Moduli (GPa) = 52.50974 52.50974 125.15306
#
# Poissons Ratio (x) = -0.22394 0.64602
# Poissons Ratio (y) = -0.22394 0.64602
# Poissons Ratio (z) = 0.27105 0.27105
#
# Static dielectric constant tensor:
#      x y z
#    x 1.944030 0.000000 0.000000 
#    y 0.000000 1.944030 0.000000 
#    z 0.000000 0.000000 1.959490 
# 
# From -- ./inp_files/2934.got.cif
#   From: 2010.05.17/outbox.cif.g08.bks.cpg/sg114_2_cif.got.tgz:2934.got - 2010.05.20 11:04:54.
