data_PCOD9556800
_publ_section_title
;
Structure prediction by ZEFSAII (Michael W. Deem and Ramdas Pophale) SiO2 
 PCOD9556800
Probable space group: P -4 M 2
;
_chemical_formula_sum "Si O2"
_cell_formula_units_Z 48
_cell_length_a 9.151033
_cell_length_b 9.151033
_cell_length_c 31.874424
_cell_angle_alpha 90.000000
_cell_angle_beta 90.000000
_cell_angle_gamma 90.000000
_cell_volume 2669.209048
_symmetry_space_group_name_H-M "P -4 M 2"
_symmetry_group_IT_number 115
_symmetry_cell_setting 'tetragonal'
loop_
_space_group_symop_operation_xyz
x,y,z
y,-x,-z
-x,-y,z
-y,x,-z
y,x,-z
-y,-x,-z
-x,y,z
x,-y,z
loop_
_atom_site_type_symbol
_atom_site_label
_atom_site_fract_x
_atom_site_fract_y
_atom_site_fract_z
Si Si1 0.174328 0.172970 0.626276
Si Si2 0.173017 0.674880 0.960742
Si Si3 0.825821 0.673006 0.539060
Si Si4 0.678133 0.331657 0.125160
Si Si5 0.831640 0.678140 0.790470
Si Si6 0.674669 0.326895 0.295411
O O1 0.216773 0.249336 0.582564
O O2 0.258211 0.243243 0.665166
O O3 0.000000 0.196248 0.631975
O O4 0.200878 0.000000 0.623768
O O5 0.196246 0.500000 0.965463
O O6 0.248669 0.721631 0.917211
O O7 0.000000 0.700718 0.958594
O O8 0.243897 0.756103 0.000000
O O9 0.741167 0.741167 0.500000
O O10 0.800179 0.500000 0.542104
O O11 0.000000 0.696846 0.533181
O O12 0.500000 0.330635 0.125853
O O13 0.725196 0.500000 0.124592
O O14 0.727133 0.250384 0.167405
O O15 0.830444 0.500000 0.791139
O O16 0.749602 0.721774 0.747959
O O17 0.000000 0.725090 0.790181
O O18 0.500000 0.302569 0.300291
O O19 0.699184 0.500000 0.292791
#
# Coordination Sequence:
#
# PCOD9556800 Si02
#       6
#     8   8   8   8   8   8
#     4  10  21  37  57  79 104 138 179 220 263 313
#     4  10  20  33  50  73 101 134 173 215 259 309
#     4  10  21  37  58  83 110 141 177 217 263 315
#     4   9  16  27  46  73 104 135 169 212 260 309
#     4   9  16  27  46  73 105 139 174 214 260 310
#     4  10  20  33  51  77 108 141 178 220 265 312
#
# _framework density 17.982855000000001
#
# number of rings (size 3 to 8) (size 9 to 14) (size 15 to 20)
#    0.000    2.333    0.000    3.000    0.000    8.667 
#    0.000    0.000    0.000    1.000    0.000    0.000 
#    0.000    0.000    0.000    0.000    0.000    0.000 
#
# Total GULP energy -267956.080942 kJ/mol
# GULP energy per Si atom -5582.418353 kJ/mol
# Density = 1.794193 g / cm^3
# Si number density = 17.982855 Si / 1000 Ang^3
#
#
#
# Elastic Constant Matrix: (Units=GPa)
#
#
# Indices 1 2 3 4 5 6 
#
# 1 77.0720 66.4163 95.4413 0.0000 0.0000 0.0000
# 2 66.4163 77.0720 95.4413 0.0000 0.0000 0.0000
# 3 95.4413 95.4413 227.8704 0.0000 0.0000 0.0000
# 4 0.0000 0.0000 0.0000 237.8776 0.0000 0.0000
# 5 0.0000 0.0000 0.0000 0.0000 237.8776 0.0000
# 6 0.0000 0.0000 0.0000 0.0000 0.0000 20.6983
#
#
#
# Elastic Compliance Matrix: (Units=1/GPa)
#
#
# Indices 1 2 3 4 5 6 
#
# 1 0.054792 -0.039054 -0.006592 0.000000 0.000000 0.000000
# 2 -0.039054 0.054792 -0.006592 0.000000 0.000000 0.000000
# 3 -0.006592 -0.006592 0.009910 0.000000 0.000000 0.000000
# 4 0.000000 0.000000 0.000000 0.004204 0.000000 0.000000
# 5 0.000000 0.000000 0.000000 0.000000 0.004204 0.000000
# 6 0.000000 0.000000 0.000000 0.000000 0.000000 0.048313
#
#
# Mechanical properties :
#
#
# Convention : Reuss Voigt Hill
#
# Bulk Modulus (GPa) = 66.57958 99.62357 83.10158
# Shear Modulus (GPa) = 17.50105 107.60508 62.55306
#
# Velocity S-wave (km/s) = 3.12301 7.74387 5.90427
# Velocity P-wave (km/s) = 7.07874 11.63942 9.63288
#
# Compressibility (1/GPa) = 0.01501962
#
# Stress axis : x y z
#
# Youngs Moduli (GPa) = 18.25078 18.25078 100.90486
#
# Poissons Ratio (x) = 0.71276 0.66515
# Poissons Ratio (y) = 0.71276 0.66515
# Poissons Ratio (z) = 0.12031 0.12031
#
# Static dielectric constant tensor:
#      x y z
#    x 1.601430 0.000000 0.000000 
#    y 0.000000 1.601430 0.000000 
#    z 0.000000 0.000000 1.582130 
# 
# From -- ./inp_files/6015.got.cif
#   From: 2010.05.17/outbox.cif.g08.bks.cpg/sg115_4_cif.got.tgz:6015.got - 2010.05.20 11:07:42.
