data_PCOD9556764
_publ_section_title
;
Structure prediction by ZEFSAII (Michael W. Deem and Ramdas Pophale) SiO2 
 PCOD9556764
Probable space group: P -4 M 2
;
_chemical_formula_sum "Si O2"
_cell_formula_units_Z 40
_cell_length_a 14.698737
_cell_length_b 14.698737
_cell_length_c 10.152846
_cell_angle_alpha 90.000000
_cell_angle_beta 90.000000
_cell_angle_gamma 90.000000
_cell_volume 2193.551511
_symmetry_space_group_name_H-M "P -4 M 2"
_symmetry_group_IT_number 115
_symmetry_cell_setting 'tetragonal'
loop_
_space_group_symop_operation_xyz
x,y,z
y,-x,-z
-x,-y,z
-y,x,-z
y,x,-z
-y,-x,-z
-x,y,z
x,-y,z
loop_
_atom_site_type_symbol
_atom_site_label
_atom_site_fract_x
_atom_site_fract_y
_atom_site_fract_z
Si Si1 0.107180 0.393041 0.604158
Si Si2 0.748803 0.893832 0.164358
Si Si3 0.609696 0.797508 0.667903
Si Si4 0.739489 0.105076 0.857744
Si Si5 0.598002 0.605689 0.340898
O O1 0.121257 0.500000 0.632913
O O2 0.124231 0.330297 0.730252
O O3 0.170440 0.367616 0.480357
O O4 0.000000 0.382499 0.567181
O O5 0.831881 0.824584 0.181415
O O6 0.776134 0.000000 0.179580
O O7 0.718330 0.882071 0.012631
O O8 0.500000 0.797676 0.675563
O O9 0.654705 0.865651 0.769685
O O10 0.643969 0.695256 0.700306
O O11 0.762140 0.000000 0.837128
O O12 0.602387 0.602387 0.500000
O O13 0.500000 0.647868 0.304412
O O14 0.595758 0.500000 0.297167
#
# Coordination Sequence:
#
# PCOD9556764 Si02
#       5
#     8   8   8   8   8
#     4   9  18  33  53  79 110 142 175 212 259 317
#     4   9  20  38  56  75 102 137 176 218 267 324
#     4  10  20  32  52  83 112 140 175 217 263 308
#     4  10  21  36  55  78 103 134 174 223 273 319
#     4   8  15  28  45  70 104 139 176 213 247 293
#
# _framework density 18.235267
#
# number of rings (size 3 to 8) (size 9 to 14) (size 15 to 20)
#    0.000    2.800    0.000    1.200    2.800    2.400 
#    0.000    4.000    0.000    1.200    0.000    2.800 
#    0.000    6.400    0.000    0.000    0.000    0.000 
#
# Total GULP energy -222959.898809 kJ/mol
# GULP energy per Si atom -5573.997470 kJ/mol
# Density = 1.819376 g / cm^3
# Si number density = 18.235267 Si / 1000 Ang^3
#
#
#
# Elastic Constant Matrix: (Units=GPa)
#
#
# Indices 1 2 3 4 5 6 
#
# 1 87.1435 45.8511 52.9302 0.0000 0.0000 0.0000
# 2 45.8511 87.1435 52.9302 0.0000 0.0000 0.0000
# 3 52.9302 52.9302 65.9935 0.0000 0.0000 0.0000
# 4 0.0000 0.0000 0.0000 24.9480 0.0000 0.0000
# 5 0.0000 0.0000 0.0000 0.0000 24.9480 0.0000
# 6 0.0000 0.0000 0.0000 0.0000 0.0000 25.2655
#
#
#
# Elastic Compliance Matrix: (Units=1/GPa)
#
#
# Indices 1 2 3 4 5 6 
#
# 1 0.022506 -0.001711 -0.016678 0.000000 0.000000 0.000000
# 2 -0.001711 0.022506 -0.016678 0.000000 0.000000 0.000000
# 3 -0.016678 -0.016678 0.041907 0.000000 0.000000 0.000000
# 4 0.000000 0.000000 0.000000 0.040083 0.000000 0.000000
# 5 0.000000 0.000000 0.000000 0.000000 0.040083 0.000000
# 6 0.000000 0.000000 0.000000 0.000000 0.000000 0.039580
#
#
# Mechanical properties :
#
#
# Convention : Reuss Voigt Hill
#
# Bulk Modulus (GPa) = 59.58544 60.41152 59.99848
# Shear Modulus (GPa) = 17.70561 20.93690 19.32125
#
# Velocity S-wave (km/s) = 3.11939 3.39212 3.25861
# Velocity P-wave (km/s) = 6.76173 6.96727 6.86527
#
# Compressibility (1/GPa) = 0.01678262
#
# Stress axis : x y z
#
# Youngs Moduli (GPa) = 44.43233 44.43233 23.86241
#
# Poissons Ratio (x) = 0.07604 0.39799
# Poissons Ratio (y) = 0.07604 0.39799
# Poissons Ratio (z) = 0.74106 0.74106
#
# Static dielectric constant tensor:
#      x y z
#    x 1.642490 0.000000 0.000000 
#    y 0.000000 1.642490 0.000000 
#    z 0.000000 0.000000 1.590950 
# 
# From -- ./inp_files/1599.got.cif
#   From: 2010.05.17/outbox.cif.g08.bks.cpg/sg115_1_cif.got.tgz:1599.got - 2010.05.20 11:07:42.
