data_PCOD9556280
_publ_section_title
;
Structure prediction by ZEFSAII (Michael W. Deem and Ramdas Pophale) SiO2 
 PCOD9556280
Probable space group: P -4 21 C
;
_chemical_formula_sum "Si O2"
_cell_formula_units_Z 48
_cell_length_a 8.559727
_cell_length_b 8.559727
_cell_length_c 28.750836
_cell_angle_alpha 90.000000
_cell_angle_beta 90.000000
_cell_angle_gamma 90.000000
_cell_volume 2106.542884
_symmetry_space_group_name_H-M "P -4 21 C"
_symmetry_group_IT_number 114
_symmetry_cell_setting 'tetragonal'
loop_
_space_group_symop_operation_xyz
x,y,z
y,-x,-z
-x,-y,z
-y,x,-z
1/2+x,1/2-y,1/2-z
1/2-x,1/2+y,1/2-z
1/2-y,1/2-x,1/2+z
1/2+y,1/2+x,1/2+z
loop_
_atom_site_type_symbol
_atom_site_label
_atom_site_fract_x
_atom_site_fract_y
_atom_site_fract_z
Si Si1 0.576715 0.329551 0.347208
Si Si2 0.783365 0.299768 0.598159
Si Si3 0.402241 0.660033 0.187712
Si Si4 0.328474 0.061784 0.763387
Si Si5 0.945456 0.330045 0.911839
Si Si6 0.091492 0.755473 0.502276
O O1 0.500000 0.500000 0.350331
O O2 0.462437 0.214413 0.374783
O O3 0.550999 0.281993 0.294231
O O4 0.740424 0.342553 0.373396
O O5 0.822722 0.160941 0.634781
O O6 0.605287 0.267258 0.581519
O O7 0.889927 0.313501 0.553367
O O8 0.500000 0.500000 0.192316
O O9 0.238779 0.678170 0.217066
O O10 0.522868 0.783600 0.210319
O O11 0.500000 0.000000 0.771538
O O12 0.000000 0.500000 0.895476
O O13 0.853327 0.352965 0.960096
O O14 0.913302 0.806428 0.495619
#
# Coordination Sequence:
#
# PCOD9556280 Si02
#       6
#     8   8   8   8   8   8
#     4   9  22  43  67  97 144 180 234 302 349 439
#     4  10  24  44  66 102 136 188 239 290 369 429
#     4  11  25  45  73 103 149 190 239 300 364 438
#     4  11  24  44  68 108 141 191 241 288 365 428
#     4  11  23  41  67 100 131 183 240 294 362 424
#     4  11  25  43  63  94 140 178 235 293 356 433
#
# _framework density 22.786151
#
# number of rings (size 3 to 8) (size 9 to 14) (size 15 to 20)
#    0.000    1.500    1.667    1.500    4.667    8.667 
#    0.000    0.833    0.000    0.000    0.000    0.000 
#    0.000    0.000    0.000    0.000    0.000    0.000 
#
# Total GULP energy -268183.838602 kJ/mol
# GULP energy per Si atom -5587.163304 kJ/mol
# Density = 2.273429 g / cm^3
# Si number density = 22.786151 Si / 1000 Ang^3
#
#
#
# Elastic Constant Matrix: (Units=GPa)
#
#
# Indices 1 2 3 4 5 6 
#
# 1 53.4349 26.5926 51.3693 0.0000 0.0000 0.0000
# 2 26.5926 53.4349 51.3693 0.0000 0.0000 0.0000
# 3 51.3693 51.3693 145.7257 0.0000 0.0000 0.0000
# 4 0.0000 0.0000 0.0000 -15.1225 0.0000 0.0000
# 5 0.0000 0.0000 0.0000 0.0000 -15.1225 0.0000
# 6 0.0000 0.0000 0.0000 0.0000 0.0000 31.7996
#
#
#
# Elastic Compliance Matrix: (Units=1/GPa)
#
#
# Indices 1 2 3 4 5 6 
#
# 1 0.030040 -0.007215 -0.008046 0.000000 0.000000 0.000000
# 2 -0.007215 0.030040 -0.008046 0.000000 0.000000 0.000000
# 3 -0.008046 -0.008046 0.012535 0.000000 0.000000 0.000000
# 4 0.000000 0.000000 0.000000 -0.066126 0.000000 0.000000
# 5 0.000000 0.000000 0.000000 0.000000 -0.066126 0.000000
# 6 0.000000 0.000000 0.000000 0.000000 0.000000 0.031447
#
#
# Mechanical properties :
#
#
# Convention : Reuss Voigt Hill
#
# Bulk Modulus (GPa) = 38.46016 56.80641 47.63329
# Shear Modulus (GPa) = 184.57775 8.52852 96.55314
#
# Velocity S-wave (km/s) = 9.01001 1.93674 6.51656
# Velocity P-wave (km/s) = 11.18730 5.47592 8.80742
#
# Compressibility (1/GPa) = 0.02600093
#
# Stress axis : x y z
#
# Youngs Moduli (GPa) = 33.28914 33.28914 79.77827
#
# Poissons Ratio (x) = 0.24017 0.64190
# Poissons Ratio (y) = 0.24017 0.64190
# Poissons Ratio (z) = 0.26784 0.26784
#
# Static dielectric constant tensor:
#      x y z
#    x 1.827290 0.000000 0.000000 
#    y 0.000000 1.827290 0.000000 
#    z 0.000000 0.000000 1.891700 
# 
# From -- ./inp_files/3988.got.cif
#   From: 2010.05.17/outbox.cif.g08.bks.cpg/sg114_2_cif.got.tgz:3988.got - 2010.05.20 11:04:54.
