data_PCOD9556962
_publ_section_title
;
Structure prediction by ZEFSAII (Michael W. Deem and Ramdas Pophale) SiO2 
 PCOD9556962
Probable space group: P -4 M 2
;
_chemical_formula_sum "Si O2"
_cell_formula_units_Z 40
_cell_length_a 9.256208
_cell_length_b 9.256208
_cell_length_c 26.574272
_cell_angle_alpha 90.000000
_cell_angle_beta 90.000000
_cell_angle_gamma 90.000000
_cell_volume 2276.814174
_symmetry_space_group_name_H-M "P -4 M 2"
_symmetry_group_IT_number 115
_symmetry_cell_setting 'tetragonal'
loop_
_space_group_symop_operation_xyz
x,y,z
y,-x,-z
-x,-y,z
-y,x,-z
y,x,-z
-y,-x,-z
-x,y,z
x,-y,z
loop_
_atom_site_type_symbol
_atom_site_label
_atom_site_fract_x
_atom_site_fract_y
_atom_site_fract_z
Si Si1 0.829076 0.326916 0.695127
Si Si2 0.333903 0.324069 0.796898
Si Si3 0.327917 0.828669 0.603330
Si Si4 0.171743 0.171743 0.000000
Si Si5 0.671237 0.328764 0.500000
Si Si6 0.673152 0.829352 0.102332
O O1 0.807160 0.500000 0.689557
O O2 0.753520 0.280501 0.747219
O O3 0.757779 0.246536 0.648264
O O4 0.000000 0.300469 0.697587
O O5 0.500000 0.277136 0.794296
O O6 0.332231 0.500000 0.797483
O O7 0.257901 0.277539 0.848587
O O8 0.500000 0.802841 0.610252
O O9 0.287409 0.759353 0.549651
O O10 0.303440 0.000000 0.602919
O O11 0.218823 0.252586 0.949386
O O12 0.000000 0.195656 0.006015
O O13 0.500000 0.306573 0.490773
O O14 0.500000 0.813948 0.097681
O O15 0.703984 0.000000 0.109510
#
# Coordination Sequence:
#
# PCOD9556962 Si02
#       6
#     8   8   8   4   4   8
#     4  10  20  34  54  78 103 135 175 214 253 303
#     4   9  17  30  50  75 100 127 163 208 254 298
#     4  10  21  36  54  78 108 138 169 210 258 304
#     4   9  18  32  48  67  94 128 162 195 238 294
#     4   9  18  34  56  79 104 138 178 215 252 299
#     4   9  17  30  48  69  94 124 159 200 244 291
#
# _framework density 17.568408000000002
#
# number of rings (size 3 to 8) (size 9 to 14) (size 15 to 20)
#    0.000    2.600    0.000    1.800    0.000    6.400 
#    0.000    3.000    0.000    3.600    0.000    0.000 
#    0.000    0.000    0.000    0.000    0.000    0.000 
#
# Total GULP energy -223155.871294 kJ/mol
# GULP energy per Si atom -5578.896782 kJ/mol
# Density = 1.752842 g / cm^3
# Si number density = 17.568408 Si / 1000 Ang^3
#
#
#
# Elastic Constant Matrix: (Units=GPa)
#
#
# Indices 1 2 3 4 5 6 
#
# 1 60.8003 55.1206 91.3363 0.0000 0.0000 0.0000
# 2 55.1206 60.8005 91.3362 0.0000 0.0000 0.0000
# 3 91.3363 91.3362 224.3357 0.0000 0.0000 0.0000
# 4 0.0000 0.0000 0.0000 -82.4843 0.0000 0.0000
# 5 0.0000 0.0000 0.0000 0.0000 -82.4620 0.0000
# 6 0.0000 0.0000 0.0000 0.0000 0.0000 18.5047
#
#
#
# Elastic Compliance Matrix: (Units=1/GPa)
#
#
# Indices 1 2 3 4 5 6 
#
# 1 0.100067 -0.075997 -0.009800 0.000000 0.000000 0.000000
# 2 -0.075997 0.100065 -0.009799 0.000000 0.000000 0.000000
# 3 -0.009800 -0.009799 0.012437 0.000000 0.000000 0.000000
# 4 0.000000 0.000000 0.000000 -0.012124 0.000000 0.000000
# 5 0.000000 0.000000 0.000000 0.000000 -0.012127 0.000000
# 6 0.000000 0.000000 0.000000 0.000000 0.000000 0.054040
#
#
# Mechanical properties :
#
#
# Convention : Reuss Voigt Hill
#
# Bulk Modulus (GPa) = 46.77903 91.28029 69.02966
# Shear Modulus (GPa) = 11.34620 -22.07875 -5.36627
#
# Velocity S-wave (km/s) = 2.54407 -3.54889 -1.74961
# Velocity P-wave (km/s) = 5.94259 5.93945 5.94102
#
# Compressibility (1/GPa) = 0.02137710
#
# Stress axis : x y z
#
# Youngs Moduli (GPa) = 9.99335 9.99349 80.40483
#
# Poissons Ratio (x) = 0.75948 0.78794
# Poissons Ratio (y) = 0.75947 0.78789
# Poissons Ratio (z) = 0.09793 0.09793
#
# Static dielectric constant tensor:
#      x y z
#    x 1.586810 0.000000 0.000000 
#    y 0.000000 1.586810 0.000000 
#    z 0.000000 0.000000 1.570590 
# 
# From -- ./inp_files/5510.got.cif
#   From: 2010.05.17/outbox.cif.g08.bks.cpg/sg115_3_cif.got.tgz:5510.got - 2010.05.20 11:07:42.
