data_PCOD9556024
_publ_section_title
;
Structure prediction by ZEFSAII (Michael W. Deem and Ramdas Pophale) SiO2 
 PCOD9556024
Probable space group: P -4 21 C
;
_chemical_formula_sum "Si O2"
_cell_formula_units_Z 40
_cell_length_a 14.226131
_cell_length_b 14.226131
_cell_length_c 9.160886
_cell_angle_alpha 90.000000
_cell_angle_beta 90.000000
_cell_angle_gamma 90.000000
_cell_volume 1854.005789
_symmetry_space_group_name_H-M "P -4 21 C"
_symmetry_group_IT_number 114
_symmetry_cell_setting 'tetragonal'
loop_
_space_group_symop_operation_xyz
x,y,z
y,-x,-z
-x,-y,z
-y,x,-z
1/2+x,1/2-y,1/2-z
1/2-x,1/2+y,1/2-z
1/2-y,1/2-x,1/2+z
1/2+y,1/2+x,1/2+z
loop_
_atom_site_type_symbol
_atom_site_label
_atom_site_fract_x
_atom_site_fract_y
_atom_site_fract_z
Si Si1 0.453557 0.629603 0.687193
Si Si2 0.611390 0.896670 0.070807
Si Si3 0.954224 0.628898 0.191317
Si Si4 0.292283 0.027201 0.333808
Si Si5 0.043588 0.162637 0.148766
O O1 0.464757 0.700309 0.819688
O O2 0.446149 0.673715 0.525720
O O3 0.362226 0.563308 0.695293
O O4 0.559157 0.585224 0.682836
O O5 0.518437 0.897493 0.170643
O O6 0.694331 0.909325 0.187847
O O7 0.623068 0.979065 0.951603
O O8 0.449023 0.874732 0.828713
O O9 0.095552 0.694786 0.529389
O O10 0.923337 0.737730 0.211735
#
# Coordination Sequence:
#
# PCOD9556024 Si02
#       5
#     8   8   8   8   8
#     4   9  19  38  59  79 113 158 192 226 282 347
#     4  10  21  34  56  82 118 150 176 227 298 339
#     4  11  19  35  57  86 114 147 188 234 281 337
#     4  11  19  35  57  86 114 147 188 234 281 337
#     4   9  19  38  59  79 113 158 192 226 282 347
#
# _framework density 21.574905999999999
#
# number of rings (size 3 to 8) (size 9 to 14) (size 15 to 20)
#    0.000    2.000    2.000    6.000    0.000    0.000 
#    7.200    2.000    0.000    2.400    0.000    0.000 
#    0.000    0.000    0.000    0.000    0.000    0.000 
#
# Total GULP energy -222673.083799 kJ/mol
# GULP energy per Si atom -5566.827095 kJ/mol
# Density = 2.152580 g / cm^3
# Si number density = 21.574906 Si / 1000 Ang^3
#
#
#
# Elastic Constant Matrix: (Units=GPa)
#
#
# Indices 1 2 3 4 5 6 
#
# 1 41.4165 -9.6966 -3.1692 0.0000 0.0000 0.0000
# 2 -9.6966 41.4165 -3.1692 0.0000 0.0000 0.0000
# 3 -3.1692 -3.1692 73.8613 0.0000 0.0000 0.0000
# 4 0.0000 0.0000 0.0000 15.0468 0.0000 0.0000
# 5 0.0000 0.0000 0.0000 0.0000 15.0468 0.0000
# 6 0.0000 0.0000 0.0000 0.0000 0.0000 11.3868
#
#
#
# Elastic Compliance Matrix: (Units=1/GPa)
#
#
# Indices 1 2 3 4 5 6 
#
# 1 0.025682 0.006117 0.001364 0.000000 0.000000 0.000000
# 2 0.006117 0.025682 0.001364 0.000000 0.000000 0.000000
# 3 0.001364 0.001364 0.013656 0.000000 0.000000 0.000000
# 4 0.000000 0.000000 0.000000 0.066459 0.000000 0.000000
# 5 0.000000 0.000000 0.000000 0.000000 0.066459 0.000000
# 6 0.000000 0.000000 0.000000 0.000000 0.000000 0.087821
#
#
# Mechanical properties :
#
#
# Convention : Reuss Voigt Hill
#
# Bulk Modulus (GPa) = 12.09034 13.84716 12.96875
# Shear Modulus (GPa) = 16.91265 19.81138 18.36201
#
# Velocity S-wave (km/s) = 2.80287 3.03357 2.92050
# Velocity P-wave (km/s) = 4.01133 4.32460 4.17091
#
# Compressibility (1/GPa) = 0.08271065
#
# Stress axis : x y z
#
# Youngs Moduli (GPa) = 38.93850 38.93850 73.22800
#
# Poissons Ratio (x) = -0.23819 -0.09991
# Poissons Ratio (y) = -0.23819 -0.09991
# Poissons Ratio (z) = -0.05313 -0.05313
#
# Static dielectric constant tensor:
#      x y z
#    x 1.864640 0.000000 0.000000 
#    y 0.000000 1.864640 0.000000 
#    z 0.000000 0.000000 1.797770 
# 
# From -- ./inp_files/875.got.cif
#   From: 2010.05.17/outbox.cif.g08.bks.cpg/sg114_1_cif.got.tgz:875.got - 2010.05.20 11:04:54.
