data_PCOD9556896
_publ_section_title
;
Structure prediction by ZEFSAII (Michael W. Deem and Ramdas Pophale) SiO2 
 PCOD9556896
Probable space group: P -4 M 2
;
_chemical_formula_sum "Si O2"
_cell_formula_units_Z 37
_cell_length_a 8.031171
_cell_length_b 8.031171
_cell_length_c 27.506017
_cell_angle_alpha 90.000000
_cell_angle_beta 90.000000
_cell_angle_gamma 90.000000
_cell_volume 1774.130055
_symmetry_space_group_name_H-M "P -4 M 2"
_symmetry_group_IT_number 115
_symmetry_cell_setting 'tetragonal'
loop_
_space_group_symop_operation_xyz
x,y,z
y,-x,-z
-x,-y,z
-y,x,-z
y,x,-z
-y,-x,-z
-x,y,z
x,-y,z
loop_
_atom_site_type_symbol
_atom_site_label
_atom_site_fract_x
_atom_site_fract_y
_atom_site_fract_z
Si Si1 0.193474 0.799249 0.052014
Si Si2 0.298857 0.314240 0.740068
Si Si3 0.191930 0.299464 0.155340
Si Si4 0.177978 0.198939 0.360303
Si Si5 0.500000 0.500000 0.500000
Si Si6 0.500000 0.795295 0.423071
O O1 0.270416 0.751597 0.103740
O O2 0.000000 0.740886 0.054223
O O3 0.191744 0.000000 0.049219
O O4 0.262305 0.737696 0.000000
O O5 0.500000 0.310233 0.741349
O O6 0.242824 0.500000 0.727514
O O7 0.240208 0.271872 0.794427
O O8 0.242805 0.198655 0.696336
O O9 0.192175 0.500000 0.156285
O O10 0.000000 0.240848 0.155922
O O11 0.337396 0.250795 0.391222
O O12 0.000000 0.265600 0.378067
O O13 0.175211 0.000000 0.363847
O O14 0.500000 0.671158 0.468683
O O15 0.500000 0.000000 0.431895
#
# Coordination Sequence:
#
# PCOD9556896 Si02
#       6
#     8   8   8   8   1   4
#     4   8  14  26  44  63  84 117 165 220 276 339
#     4  10  20  33  52  78 112 149 190 238 291 356
#     4   9  17  29  44  66  96 129 169 221 281 346
#     4  10  21  38  62  90 123 164 203 247 307 360
#     4  12  28  44  76 104 132 180 228 248 314 368
#     4  10  24  46  66  98 140 168 212 271 303 352
#
# _framework density 20.855293
#
# number of rings (size 3 to 8) (size 9 to 14) (size 15 to 20)
#    0.000    2.595    1.081    1.297    1.514    3.027 
#    0.000    3.243    0.000    1.297    0.000    0.000 
#    0.000    0.000    0.000    0.000    0.000    0.000 
#
# Total GULP energy -206218.824614 kJ/mol
# GULP energy per Si atom -5573.481746 kJ/mol
# Density = 2.080783 g / cm^3
# Si number density = 20.855293 Si / 1000 Ang^3
#
#
#
# Elastic Constant Matrix: (Units=GPa)
#
#
# Indices 1 2 3 4 5 6 
#
# 1 60.6401 18.3967 42.2584 0.0000 0.0000 0.0000
# 2 18.3967 60.6402 42.2583 0.0000 0.0000 0.0000
# 3 42.2584 42.2583 147.1084 0.0000 0.0000 0.0000
# 4 0.0000 0.0000 0.0000 32.5514 0.0000 0.0000
# 5 0.0000 0.0000 0.0000 0.0000 32.5512 0.0000
# 6 0.0000 0.0000 0.0000 0.0000 0.0000 4.4090
#
#
#
# Elastic Compliance Matrix: (Units=1/GPa)
#
#
# Indices 1 2 3 4 5 6 
#
# 1 0.020967 -0.002705 -0.005246 0.000000 0.000000 0.000000
# 2 -0.002705 0.020967 -0.005246 0.000000 0.000000 0.000000
# 3 -0.005246 -0.005246 0.009812 0.000000 0.000000 0.000000
# 4 0.000000 0.000000 0.000000 0.030721 0.000000 0.000000
# 5 0.000000 0.000000 0.000000 0.000000 0.030721 0.000000
# 6 0.000000 0.000000 0.000000 0.000000 0.000000 0.226807
#
#
# Mechanical properties :
#
#
# Convention : Reuss Voigt Hill
#
# Bulk Modulus (GPa) = 39.44493 52.69062 46.06777
# Shear Modulus (GPa) = 13.33907 24.93401 19.13654
#
# Velocity S-wave (km/s) = 2.53178 3.46146 3.03246
# Velocity P-wave (km/s) = 5.24416 6.42614 5.86500
#
# Compressibility (1/GPa) = 0.02535180
#
# Stress axis : x y z
#
# Youngs Moduli (GPa) = 47.69365 47.69373 101.92018
#
# Poissons Ratio (x) = 0.12902 0.53467
# Poissons Ratio (y) = 0.12902 0.53467
# Poissons Ratio (z) = 0.25020 0.25020
#
# Static dielectric constant tensor:
#      x y z
#    x 1.759100 0.000000 0.000000 
#    y 0.000000 1.759100 0.000000 
#    z 0.000000 0.000000 1.758960 
# 
# From -- ./inp_files/5191.got.cif
#   From: 2010.05.17/outbox.cif.g08.bks.cpg/sg115_3_cif.got.tgz:5191.got - 2010.05.20 11:07:42.
