data_PCOD9556658
_publ_section_title
;
Structure prediction by ZEFSAII (Michael W. Deem and Ramdas Pophale) SiO2 
 PCOD9556658
Probable space group: P -4 M 2
;
_chemical_formula_sum "Si O2"
_cell_formula_units_Z 48
_cell_length_a 15.408553
_cell_length_b 15.408553
_cell_length_c 11.106767
_cell_angle_alpha 90.000000
_cell_angle_beta 90.000000
_cell_angle_gamma 90.000000
_cell_volume 2637.007557
_symmetry_space_group_name_H-M "P -4 M 2"
_symmetry_group_IT_number 115
_symmetry_cell_setting 'tetragonal'
loop_
_space_group_symop_operation_xyz
x,y,z
y,-x,-z
-x,-y,z
-y,x,-z
y,x,-z
-y,-x,-z
-x,y,z
x,-y,z
loop_
_atom_site_type_symbol
_atom_site_label
_atom_site_fract_x
_atom_site_fract_y
_atom_site_fract_z
Si Si1 0.756765 0.902111 0.003077
Si Si2 0.284919 0.097364 0.736912
Si Si3 0.667539 0.096942 0.261839
Si Si4 0.404527 0.275380 0.346958
Si Si5 0.901790 0.857560 0.637299
Si Si6 0.250455 0.399404 0.364619
O O1 0.702954 0.891854 0.880137
O O2 0.793047 0.000000 0.001634
O O3 0.831940 0.831940 0.000000
O O4 0.702037 0.894420 0.125086
O O5 0.181733 0.109140 0.710727
O O6 0.343156 0.166265 0.667801
O O7 0.308384 0.000000 0.700730
O O8 0.611220 0.180346 0.292150
O O9 0.753491 0.101039 0.346219
O O10 0.629177 0.000000 0.276146
O O11 0.500000 0.307704 0.315141
O O12 0.330996 0.344382 0.312214
O O13 0.400317 0.262730 0.491248
O O14 0.886317 0.886317 0.500000
O O15 0.000000 0.884460 0.674860
O O16 0.246024 0.500000 0.324881
#
# Coordination Sequence:
#
# PCOD9556658 Si02
#       6
#     8   8   8   8   8   8
#     4  10  19  33  52  74 104 146 191 235 275 313
#     4  11  22  35  55  80 109 148 191 228 270 324
#     4  10  20  35  55  79 111 147 186 230 271 321
#     4  10  20  36  60  85 110 142 179 221 276 337
#     4  11  21  33  50  75 112 151 185 224 269 318
#     4  10  21  38  58  82 113 142 176 226 278 331
#
# _framework density 18.202449999999999
#
# number of rings (size 3 to 8) (size 9 to 14) (size 15 to 20)
#    0.000    1.667    3.333    1.500    0.000    4.333 
#    0.000    5.833    0.000    3.000    0.000    0.000 
#    0.000    4.000    0.000    0.000    0.000    0.000 
#
# Total GULP energy -267765.347580 kJ/mol
# GULP energy per Si atom -5578.444741 kJ/mol
# Density = 1.816102 g / cm^3
# Si number density = 18.202450 Si / 1000 Ang^3
#
#
#
# Elastic Constant Matrix: (Units=GPa)
#
#
# Indices 1 2 3 4 5 6 
#
# 1 106.6767 59.2740 15.3536 0.0000 0.0000 0.0000
# 2 59.2740 106.6767 15.3536 0.0000 0.0000 0.0000
# 3 15.3536 15.3536 33.4543 0.0000 0.0000 0.0000
# 4 0.0000 0.0000 0.0000 12.9031 0.0000 0.0000
# 5 0.0000 0.0000 0.0000 0.0000 12.9031 0.0000
# 6 0.0000 0.0000 0.0000 0.0000 0.0000 -48.3095
#
#
#
# Elastic Compliance Matrix: (Units=1/GPa)
#
#
# Indices 1 2 3 4 5 6 
#
# 1 0.013840 -0.007255 -0.003022 0.000000 0.000000 0.000000
# 2 -0.007255 0.013840 -0.003022 0.000000 0.000000 0.000000
# 3 -0.003022 -0.003022 0.032666 0.000000 0.000000 0.000000
# 4 0.000000 0.000000 0.000000 0.077500 0.000000 0.000000
# 5 0.000000 0.000000 0.000000 0.000000 0.077500 0.000000
# 6 0.000000 0.000000 0.000000 0.000000 0.000000 -0.020700
#
#
# Mechanical properties :
#
#
# Convention : Reuss Voigt Hill
#
# Bulk Modulus (GPa) = 29.63223 47.41890 38.52556
# Shear Modulus (GPa) = 21.50573 5.95445 13.73009
#
# Velocity S-wave (km/s) = 3.44099 1.81062 2.74943
# Velocity P-wave (km/s) = 5.66584 5.52073 5.59376
#
# Compressibility (1/GPa) = 0.03374704
#
# Stress axis : x y z
#
# Youngs Moduli (GPa) = 72.25181 72.25181 30.61326
#
# Poissons Ratio (x) = 0.52421 0.09252
# Poissons Ratio (y) = 0.52421 0.09252
# Poissons Ratio (z) = 0.21836 0.21836
#
# Static dielectric constant tensor:
#      x y z
#    x 1.627440 0.000000 0.000000 
#    y 0.000000 1.627440 0.000000 
#    z 0.000000 0.000000 1.636610 
# 
# From -- ./inp_files/2985.got.cif
#   From: 2010.05.17/outbox.cif.g08.bks.cpg/sg115_2_cif.got.tgz:2985.got - 2010.05.20 11:07:42.
