data_PCOD9556924
_publ_section_title
;
Structure prediction by ZEFSAII (Michael W. Deem and Ramdas Pophale) SiO2 
 PCOD9556924
Probable space group: P -4 M 2
;
_chemical_formula_sum "Si O2"
_cell_formula_units_Z 56
_cell_length_a 14.509207
_cell_length_b 14.509207
_cell_length_c 15.938886
_cell_angle_alpha 90.000000
_cell_angle_beta 90.000000
_cell_angle_gamma 90.000000
_cell_volume 3355.407863
_symmetry_space_group_name_H-M "P -4 M 2"
_symmetry_group_IT_number 115
_symmetry_cell_setting 'tetragonal'
loop_
_space_group_symop_operation_xyz
x,y,z
y,-x,-z
-x,-y,z
-y,x,-z
y,x,-z
-y,-x,-z
-x,y,z
x,-y,z
loop_
_atom_site_type_symbol
_atom_site_label
_atom_site_fract_x
_atom_site_fract_y
_atom_site_fract_z
Si Si1 0.888756 0.609063 0.207911
Si Si2 0.607863 0.605336 0.601252
Si Si3 0.887602 0.393863 0.841559
Si Si4 0.107040 0.612117 0.023618
Si Si5 0.892013 0.604389 0.502795
Si Si6 0.211354 0.290733 0.359607
Si Si7 0.106939 0.289524 0.672654
O O1 0.869522 0.500000 0.218724
O O2 0.854753 0.638443 0.114727
O O3 0.842469 0.664945 0.282078
O O4 0.000000 0.618854 0.210367
O O5 0.613175 0.613175 0.500000
O O6 0.500000 0.619734 0.623742
O O7 0.633131 0.500000 0.623385
O O8 0.671628 0.683762 0.639940
O O9 0.858281 0.500000 0.828610
O O10 0.864748 0.331767 0.762132
O O11 0.000000 0.395633 0.845636
O O12 0.853463 0.360093 0.933044
O O13 0.106877 0.500000 0.022367
O O14 0.000000 0.641505 0.024354
O O15 0.858259 0.500000 0.490598
O O16 0.834709 0.672476 0.444715
O O17 0.887094 0.633405 0.599696
O O18 0.000000 0.607787 0.478484
O O19 0.213244 0.180893 0.352659
O O20 0.000000 0.259969 0.676352
#
# Coordination Sequence:
#
# PCOD9556924 Si02
#       7
#     8   8   8   8   8   8   8
#     4   9  17  30  49  74  99 118 145 191 242 287
#     4   9  18  31  45  63  90 124 160 194 226 267
#     4   8  13  25  46  67  88 118 154 192 236 278
#     4   7  11  22  43  69  93 116 142 181 238 290
#     4  10  20  34  53  75  95 115 146 194 247 289
#     4  12  21  30  47  69  94 129 160 187 228 278
#     4  10  21  33  44  64  95 128 161 195 229 269
#
# _framework density 16.689477
#
# number of rings (size 3 to 8) (size 9 to 14) (size 15 to 20)
#    0.000    2.714    0.000    5.571    0.000    5.143 
#    0.000    0.714    0.000    1.714    0.000    4.000 
#    0.000    0.000    0.000   25.143    0.000    5.000 
#
# Total GULP energy -311983.095260 kJ/mol
# GULP energy per Si atom -5571.126701 kJ/mol
# Density = 1.665149 g / cm^3
# Si number density = 16.689477 Si / 1000 Ang^3
#
#
#
# Elastic Constant Matrix: (Units=GPa)
#
#
# Indices 1 2 3 4 5 6 
#
# 1 46.2336 25.2748 22.2047 0.0000 0.0000 0.0000
# 2 25.2748 46.2336 22.2047 0.0000 0.0000 0.0000
# 3 22.2047 22.2047 82.6581 0.0000 0.0000 0.0000
# 4 0.0000 0.0000 0.0000 5.7246 0.0000 0.0000
# 5 0.0000 0.0000 0.0000 0.0000 5.7246 0.0000
# 6 0.0000 0.0000 0.0000 0.0000 0.0000 13.0171
#
#
#
# Elastic Compliance Matrix: (Units=1/GPa)
#
#
# Indices 1 2 3 4 5 6 
#
# 1 0.032249 -0.015464 -0.004509 0.000000 0.000000 0.000000
# 2 -0.015464 0.032249 -0.004509 0.000000 0.000000 0.000000
# 3 -0.004509 -0.004509 0.014521 0.000000 0.000000 0.000000
# 4 0.000000 0.000000 0.000000 0.174686 0.000000 0.000000
# 5 0.000000 0.000000 0.000000 0.000000 0.174686 0.000000
# 6 0.000000 0.000000 0.000000 0.000000 0.000000 0.076822
#
#
# Mechanical properties :
#
#
# Convention : Reuss Voigt Hill
#
# Bulk Modulus (GPa) = 33.27338 34.94377 34.10858
# Shear Modulus (GPa) = 8.86220 11.92264 10.39242
#
# Velocity S-wave (km/s) = 2.30686 2.67569 2.49809
# Velocity P-wave (km/s) = 5.20341 5.52529 5.36676
#
# Compressibility (1/GPa) = 0.03005405
#
# Stress axis : x y z
#
# Youngs Moduli (GPa) = 31.00913 31.00913 68.86811
#
# Poissons Ratio (x) = 0.47953 0.31052
# Poissons Ratio (y) = 0.47953 0.31052
# Poissons Ratio (z) = 0.13982 0.13982
#
# Static dielectric constant tensor:
#      x y z
#    x 1.567140 0.000000 0.000000 
#    y 0.000000 1.567140 0.000000 
#    z 0.000000 0.000000 1.597130 
# 
# From -- ./inp_files/3825.got.cif
#   From: 2010.05.17/outbox.cif.g08.bks.cpg/sg115_2_cif.got.tgz:3825.got - 2010.05.20 11:07:42.
