data_PCOD9556666
_publ_section_title
;
Structure prediction by ZEFSAII (Michael W. Deem and Ramdas Pophale) SiO2 
 PCOD9556666
Probable space group: P -4 M 2
;
_chemical_formula_sum "Si O2"
_cell_formula_units_Z 32
_cell_length_a 13.865274
_cell_length_b 13.865274
_cell_length_c 10.475401
_cell_angle_alpha 90.000000
_cell_angle_beta 90.000000
_cell_angle_gamma 90.000000
_cell_volume 2013.852087
_symmetry_space_group_name_H-M "P -4 M 2"
_symmetry_group_IT_number 115
_symmetry_cell_setting 'tetragonal'
loop_
_space_group_symop_operation_xyz
x,y,z
y,-x,-z
-x,-y,z
-y,x,-z
y,x,-z
-y,-x,-z
-x,y,z
x,-y,z
loop_
_atom_site_type_symbol
_atom_site_label
_atom_site_fract_x
_atom_site_fract_y
_atom_site_fract_z
Si Si1 0.607866 0.887030 0.245790
Si Si2 0.113511 0.779869 0.116740
Si Si3 0.766854 0.388314 0.016187
Si Si4 0.809876 0.114832 0.365539
O O1 0.500000 0.872064 0.298914
O O2 0.617844 0.822292 0.119741
O O3 0.696045 0.867815 0.340233
O O4 0.615249 0.000000 0.207800
O O5 0.135432 0.834445 0.248268
O O6 0.000000 0.766544 0.098584
O O7 0.157643 0.842358 0.000000
O O8 0.169990 0.678322 0.110241
O O9 0.760274 0.500000 0.052732
O O10 0.664286 0.335715 0.000000
O O11 0.844190 0.155811 0.500000
O O12 0.826812 0.000000 0.361428
#
# Coordination Sequence:
#
# PCOD9556666 Si02
#       4
#     8   8   8   8
#     4   9  17  33  57  79 102 140 185 222 263 318
#     4  11  21  34  52  78 109 144 185 223 265 320
#     4  10  19  33  55  82 108 136 175 227 278 322
#     4  11  22  36  53  78 112 148 183 221 269 322
#
# _framework density 15.889944
#
# number of rings (size 3 to 8) (size 9 to 14) (size 15 to 20)
#    0.000    1.750    5.000    2.250    0.000    4.750 
#    0.000    1.250    0.000    3.000    0.000    0.000 
#    0.000    0.000    0.000    0.000    0.000    0.000 
#
# Total GULP energy -178485.830417 kJ/mol
# GULP energy per Si atom -5577.682201 kJ/mol
# Density = 1.585378 g / cm^3
# Si number density = 15.889944 Si / 1000 Ang^3
#
#
#
# Elastic Constant Matrix: (Units=GPa)
#
#
# Indices 1 2 3 4 5 6 
#
# 1 118.0362 54.0920 39.5124 0.0000 0.0000 0.0000
# 2 54.0920 118.0351 39.5134 0.0000 0.0000 0.0000
# 3 39.5124 39.5134 89.7812 0.0000 0.0000 0.0000
# 4 0.0000 0.0000 0.0000 21.2546 0.0000 0.0000
# 5 0.0000 0.0000 0.0000 0.0000 21.2562 0.0000
# 6 0.0000 0.0000 0.0000 0.0000 0.0000 20.9742
#
#
#
# Elastic Compliance Matrix: (Units=1/GPa)
#
#
# Indices 1 2 3 4 5 6 
#
# 1 0.011460 -0.004179 -0.003204 0.000000 0.000000 0.000000
# 2 -0.004179 0.011460 -0.003204 0.000000 0.000000 0.000000
# 3 -0.003204 -0.003204 0.013959 0.000000 0.000000 0.000000
# 4 0.000000 0.000000 0.000000 0.047049 0.000000 0.000000
# 5 0.000000 0.000000 0.000000 0.000000 0.047045 0.000000
# 6 0.000000 0.000000 0.000000 0.000000 0.000000 0.047678
#
#
# Mechanical properties :
#
#
# Convention : Reuss Voigt Hill
#
# Bulk Modulus (GPa) = 63.68202 65.78756 64.73479
# Shear Modulus (GPa) = 24.38326 25.54601 24.96463
#
# Velocity S-wave (km/s) = 3.92153 4.01394 3.96801
# Velocity P-wave (km/s) = 7.78900 7.93563 7.86265
#
# Compressibility (1/GPa) = 0.01570302
#
# Stress axis : x y z
#
# Youngs Moduli (GPa) = 87.26273 87.26098 71.64045
#
# Poissons Ratio (x) = 0.36466 0.22955
# Poissons Ratio (y) = 0.36467 0.22957
# Poissons Ratio (z) = 0.27960 0.27962
#
# Static dielectric constant tensor:
#      x y z
#    x 1.544780 0.000000 0.000000 
#    y 0.000000 1.544780 0.000000 
#    z 0.000000 0.000000 1.498190 
# 
# From -- ./inp_files/1307.got.cif
#   From: 2010.05.17/outbox.cif.g08.bks.cpg/sg115_1_cif.got.tgz:1307.got - 2010.05.20 11:07:42.
