data_PCOD9556819
_publ_section_title
;
Structure prediction by ZEFSAII (Michael W. Deem and Ramdas Pophale) SiO2 
 PCOD9556819
Probable space group: P -4 M 2
;
_chemical_formula_sum "Si O2"
_cell_formula_units_Z 37
_cell_length_a 8.111565
_cell_length_b 8.111565
_cell_length_c 26.444367
_cell_angle_alpha 90.000000
_cell_angle_beta 90.000000
_cell_angle_gamma 90.000000
_cell_volume 1739.972887
_symmetry_space_group_name_H-M "P -4 M 2"
_symmetry_group_IT_number 115
_symmetry_cell_setting 'tetragonal'
loop_
_space_group_symop_operation_xyz
x,y,z
y,-x,-z
-x,-y,z
-y,x,-z
y,x,-z
-y,-x,-z
-x,y,z
x,-y,z
loop_
_atom_site_type_symbol
_atom_site_label
_atom_site_fract_x
_atom_site_fract_y
_atom_site_fract_z
Si Si1 0.691702 0.196261 0.162414
Si Si2 0.187174 0.305510 0.269809
Si Si3 0.683141 0.192862 0.370060
Si Si4 0.300944 0.693759 0.945548
Si Si5 0.000000 0.000000 0.500000
Si Si6 0.315445 0.000000 0.572382
O O1 0.500000 0.251844 0.162910
O O2 0.775413 0.272542 0.211360
O O3 0.765473 0.242430 0.107680
O O4 0.695681 0.000000 0.167348
O O5 0.202663 0.500000 0.279326
O O6 0.301897 0.212832 0.309518
O O7 0.000000 0.252744 0.280172
O O8 0.500000 0.247234 0.386108
O O9 0.834904 0.291081 0.394228
O O10 0.702439 0.000000 0.383043
O O11 0.500000 0.699668 0.946279
O O12 0.251493 0.500000 0.944568
O O13 0.240506 0.759495 0.000000
O O14 0.166643 0.000000 0.532759
O O15 0.500000 0.000000 0.550579
#
# Coordination Sequence:
#
# PCOD9556819 Si02
#       6
#     8   8   8   8   1   4
#     4  10  20  33  50  76 109 147 192 244 308 383
#     4  11  23  37  56  86 123 164 211 265 325 391
#     4  11  23  42  71 105 142 186 232 282 346 411
#     4   8  14  27  48  70  94 132 184 243 306 371
#     4  12  28  52  76 112 156 196 236 296 350 388
#     4  12  26  48  78 110 148 194 242 291 345 402
#
# _framework density 21.264700999999999
#
# number of rings (size 3 to 8) (size 9 to 14) (size 15 to 20)
#    0.000    1.730    2.162    3.243    0.000    7.784 
#    0.000    1.081    0.000    3.892    0.000    0.000 
#    0.000    0.000    0.000    0.000    0.000    0.000 
#
# Total GULP energy -206643.027200 kJ/mol
# GULP energy per Si atom -5584.946681 kJ/mol
# Density = 2.121630 g / cm^3
# Si number density = 21.264701 Si / 1000 Ang^3
#
#
#
# Elastic Constant Matrix: (Units=GPa)
#
#
# Indices 1 2 3 4 5 6 
#
# 1 72.5432 30.5854 30.4698 0.0000 0.0000 0.0000
# 2 30.5854 72.5431 30.4698 0.0000 0.0000 0.0000
# 3 30.4698 30.4698 96.0978 0.0000 0.0000 0.0000
# 4 0.0000 0.0000 0.0000 26.7034 0.0000 0.0000
# 5 0.0000 0.0000 0.0000 0.0000 26.7036 0.0000
# 6 0.0000 0.0000 0.0000 0.0000 0.0000 5.5146
#
#
#
# Elastic Compliance Matrix: (Units=1/GPa)
#
#
# Indices 1 2 3 4 5 6 
#
# 1 0.017883 -0.005951 -0.003783 0.000000 0.000000 0.000000
# 2 -0.005951 0.017883 -0.003783 0.000000 0.000000 0.000000
# 3 -0.003783 -0.003783 0.012805 0.000000 0.000000 0.000000
# 4 0.000000 0.000000 0.000000 0.037448 0.000000 0.000000
# 5 0.000000 0.000000 0.000000 0.000000 0.037448 0.000000
# 6 0.000000 0.000000 0.000000 0.000000 0.000000 0.181338
#
#
# Mechanical properties :
#
#
# Convention : Reuss Voigt Hill
#
# Bulk Modulus (GPa) = 46.43324 47.13713 46.78518
# Shear Modulus (GPa) = 14.74841 21.76157 18.25499
#
# Velocity S-wave (km/s) = 2.63642 3.20248 2.93314
# Velocity P-wave (km/s) = 5.58129 5.99078 5.78966
#
# Compressibility (1/GPa) = 0.02153630
#
# Stress axis : x y z
#
# Youngs Moduli (GPa) = 55.91943 55.91937 78.09293
#
# Poissons Ratio (x) = 0.33276 0.29545
# Poissons Ratio (y) = 0.33276 0.29545
# Poissons Ratio (z) = 0.21156 0.21156
#
# Static dielectric constant tensor:
#      x y z
#    x 1.759830 0.000000 0.000000 
#    y 0.000000 1.759830 0.000000 
#    z 0.000000 0.000000 1.791470 
# 
# From -- ./inp_files/5142.got.cif
#   From: 2010.05.17/outbox.cif.g08.bks.cpg/sg115_3_cif.got.tgz:5142.got - 2010.05.20 11:07:42.
