data_PCOD9556070
_publ_section_title
;
Structure prediction by ZEFSAII (Michael W. Deem and Ramdas Pophale) SiO2 
 PCOD9556070
Probable space group: P -4 21 C
;
_chemical_formula_sum "Si O2"
_cell_formula_units_Z 58
_cell_length_a 18.210533
_cell_length_b 18.210533
_cell_length_c 9.498988
_cell_angle_alpha 90.000000
_cell_angle_beta 90.000000
_cell_angle_gamma 90.000000
_cell_volume 3150.087762
_symmetry_space_group_name_H-M "P -4 21 C"
_symmetry_group_IT_number 114
_symmetry_cell_setting 'tetragonal'
loop_
_space_group_symop_operation_xyz
x,y,z
y,-x,-z
-x,-y,z
-y,x,-z
1/2+x,1/2-y,1/2-z
1/2-x,1/2+y,1/2-z
1/2-y,1/2-x,1/2+z
1/2+y,1/2+x,1/2+z
loop_
_atom_site_type_symbol
_atom_site_label
_atom_site_fract_x
_atom_site_fract_y
_atom_site_fract_z
Si Si1 0.488594 0.620846 0.985805
Si Si2 0.962606 0.580113 0.314045
Si Si3 0.840235 0.451642 0.590694
Si Si4 0.945927 0.322186 0.535690
Si Si5 0.637253 0.566596 0.316098
Si Si6 0.000000 0.000000 0.000000
Si Si7 0.564830 0.711409 0.191771
Si Si8 0.299777 0.969163 0.179534
O O1 0.480761 0.644494 0.825996
O O2 0.564239 0.576675 0.991849
O O3 0.493178 0.676265 0.116197
O O4 0.874586 0.578965 0.325913
O O5 0.000000 0.500000 0.332098
O O6 0.985848 0.608170 0.158925
O O7 0.002642 0.632621 0.426773
O O8 0.885636 0.376915 0.598033
O O9 0.768217 0.450576 0.685505
O O10 0.818250 0.467200 0.431757
O O11 0.907088 0.258475 0.443032
O O12 0.996503 0.296764 0.664489
O O13 0.570183 0.531947 0.409595
O O14 0.612550 0.646872 0.261197
O O15 0.721840 0.565898 0.369101
#
# Coordination Sequence:
#
# PCOD9556070 Si02
#       8
#     8   8   8   8   8   2   8   8
#     4   9  17  34  62  87 109 150 205 256 307 378
#     4  11  21  37  62  91 129 167 221 265 325 395
#     4  11  22  37  62  90 128 171 221 269 324 402
#     4  11  21  38  61  91 125 174 217 269 322 407
#     4  11  23  40  64  94 129 163 218 278 337 400
#     4  12  24  44  70 100 132 172 230 288 352 412
#     4  10  21  40  60  87 124 169 215 265 332 394
#     4  12  22  35  60  98 129 159 217 289 330 386
#
# _framework density 18.412185000000001
#
# number of rings (size 3 to 8) (size 9 to 14) (size 15 to 20)
#    0.000    1.241    4.138    4.138    0.000    0.000 
#    0.000    2.759    0.000    1.655    0.000    0.000 
#    0.000    0.000    0.000    0.000    0.000    0.000 
#
# Total GULP energy -322907.234836 kJ/mol
# GULP energy per Si atom -5567.366118 kJ/mol
# Density = 1.837028 g / cm^3
# Si number density = 18.412185 Si / 1000 Ang^3
#
#
#
# Elastic Constant Matrix: (Units=GPa)
#
#
# Indices 1 2 3 4 5 6 
#
# 1 110.3728 36.5756 31.7484 0.0000 0.0000 0.0000
# 2 36.5756 110.3728 31.7484 0.0000 0.0000 0.0000
# 3 31.7484 31.7484 82.4786 0.0000 0.0000 0.0000
# 4 0.0000 0.0000 0.0000 25.0696 0.0000 0.0000
# 5 0.0000 0.0000 0.0000 0.0000 25.0696 0.0000
# 6 0.0000 0.0000 0.0000 0.0000 0.0000 12.2044
#
#
#
# Elastic Compliance Matrix: (Units=1/GPa)
#
#
# Indices 1 2 3 4 5 6 
#
# 1 0.010857 -0.002694 -0.003142 0.000000 0.000000 0.000000
# 2 -0.002694 0.010857 -0.003142 0.000000 0.000000 0.000000
# 3 -0.003142 -0.003142 0.014543 0.000000 0.000000 0.000000
# 4 0.000000 0.000000 0.000000 0.039889 0.000000 0.000000
# 5 0.000000 0.000000 0.000000 0.000000 0.039889 0.000000
# 6 0.000000 0.000000 0.000000 0.000000 0.000000 0.081938
#
#
# Mechanical properties :
#
#
# Convention : Reuss Voigt Hill
#
# Bulk Modulus (GPa) = 54.64318 55.92991 55.28654
# Shear Modulus (GPa) = 22.51961 26.01219 24.26590
#
# Velocity S-wave (km/s) = 3.50105 3.76276 3.63426
# Velocity P-wave (km/s) = 6.78862 7.02284 6.90672
#
# Compressibility (1/GPa) = 0.01830055
#
# Stress axis : x y z
#
# Youngs Moduli (GPa) = 92.10870 92.10870 68.76000
#
# Poissons Ratio (x) = 0.24813 0.21605
# Poissons Ratio (y) = 0.24813 0.21605
# Poissons Ratio (z) = 0.28942 0.28942
#
# Static dielectric constant tensor:
#      x y z
#    x 1.666040 0.000000 0.000000 
#    y 0.000000 1.666040 0.000000 
#    z 0.000000 0.000000 1.639720 
# 
# From -- ./inp_files/1038.got.cif
#   From: 2010.05.17/outbox.cif.g08.bks.cpg/sg114_1_cif.got.tgz:1038.got - 2010.05.20 11:04:54.
