data_PCOD9556642
_publ_section_title
;
Structure prediction by ZEFSAII (Michael W. Deem and Ramdas Pophale) SiO2 
 PCOD9556642
Probable space group: P -4 M 2
;
_chemical_formula_sum "Si O2"
_cell_formula_units_Z 32
_cell_length_a 7.806447
_cell_length_b 7.806447
_cell_length_c 25.514994
_cell_angle_alpha 90.000000
_cell_angle_beta 90.000000
_cell_angle_gamma 90.000000
_cell_volume 1554.899420
_symmetry_space_group_name_H-M "P -4 M 2"
_symmetry_group_IT_number 115
_symmetry_cell_setting 'tetragonal'
loop_
_space_group_symop_operation_xyz
x,y,z
y,-x,-z
-x,-y,z
-y,x,-z
y,x,-z
-y,-x,-z
-x,y,z
x,-y,z
loop_
_atom_site_type_symbol
_atom_site_label
_atom_site_fract_x
_atom_site_fract_y
_atom_site_fract_z
Si Si1 0.700097 0.790827 0.328672
Si Si2 0.308045 0.203872 0.442898
Si Si3 0.209664 0.000000 0.867970
Si Si4 0.210162 0.000000 0.747746
Si Si5 0.309179 0.792712 0.058347
O O1 0.500000 0.739910 0.322533
O O2 0.764546 0.735752 0.386933
O O3 0.831093 0.733822 0.284082
O O4 0.700915 0.000000 0.327098
O O5 0.231576 0.231576 0.500000
O O6 0.500000 0.274443 0.445321
O O7 0.316065 0.000000 0.437129
O O8 0.265064 0.834168 0.900816
O O9 0.266323 0.000000 0.807924
O O10 0.000000 0.000000 0.867406
O O11 0.000000 0.000000 0.747804
O O12 0.500000 0.743895 0.074917
O O13 0.299992 0.000000 0.055500
O O14 0.273651 0.726350 0.000000
#
# Coordination Sequence:
#
# PCOD9556642 Si02
#       5
#     8   8   4   4   8
#     4   8  15  27  41  62  98 135 171 221 268 317
#     4   9  18  30  44  67  95 124 163 214 268 318
#     4   9  18  30  47  75 111 144 181 234 270 316
#     4   9  16  26  44  69  99 143 182 208 267 323
#     4  10  19  32  53  78 108 147 183 224 282 330
#
# _framework density 20.580110000000001
#
# number of rings (size 3 to 8) (size 9 to 14) (size 15 to 20)
#    0.000    3.000    1.250    1.500    1.750    1.750 
#    0.000    5.000    0.000    0.000    0.000    3.500 
#    0.000    4.000    0.000    0.000    0.000    0.000 
#
# Total GULP energy -178330.631840 kJ/mol
# GULP energy per Si atom -5572.832245 kJ/mol
# Density = 2.053327 g / cm^3
# Si number density = 20.580110 Si / 1000 Ang^3
#
#
#
# Elastic Constant Matrix: (Units=GPa)
#
#
# Indices 1 2 3 4 5 6 
#
# 1 65.6566 28.6898 64.6626 0.0000 0.0000 0.0000
# 2 28.6898 65.6561 64.6640 0.0000 0.0000 0.0000
# 3 64.6626 64.6640 221.9657 0.0000 0.0000 0.0000
# 4 0.0000 0.0000 0.0000 -36.3085 0.0000 0.0000
# 5 0.0000 0.0000 0.0000 0.0000 -36.3095 0.0000
# 6 0.0000 0.0000 0.0000 0.0000 0.0000 -26.5978
#
#
#
# Elastic Compliance Matrix: (Units=1/GPa)
#
#
# Indices 1 2 3 4 5 6 
#
# 1 0.022348 -0.004703 -0.005140 0.000000 0.000000 0.000000
# 2 -0.004703 0.022349 -0.005141 0.000000 0.000000 0.000000
# 3 -0.005140 -0.005141 0.007500 0.000000 0.000000 0.000000
# 4 0.000000 0.000000 0.000000 -0.027542 0.000000 0.000000
# 5 0.000000 0.000000 0.000000 0.000000 -0.027541 0.000000
# 6 0.000000 0.000000 0.000000 0.000000 0.000000 -0.037597
#
#
# Mechanical properties :
#
#
# Convention : Reuss Voigt Hill
#
# Bulk Modulus (GPa) = 44.98508 74.36792 59.67650
# Shear Modulus (GPa) = -1610.62522 -6.82568 -808.72545
#
# Velocity S-wave (km/s) = -28.00556 -1.82314 -19.84484
# Velocity P-wave (km/s) = 31.99754 5.63760 22.27173
#
# Compressibility (1/GPa) = 0.02222959
#
# Stress axis : x y z
#
# Youngs Moduli (GPa) = 44.74606 44.74481 133.32728
#
# Poissons Ratio (x) = 0.21043 0.68536
# Poissons Ratio (y) = 0.21043 0.68541
# Poissons Ratio (z) = 0.23001 0.23002
#
# Static dielectric constant tensor:
#      x y z
#    x 1.774950 0.000000 0.000000 
#    y 0.000000 1.774950 0.000000 
#    z 0.000000 0.000000 1.724160 
# 
# From -- ./inp_files/5026.got.cif
#   From: 2010.05.17/outbox.cif.g08.bks.cpg/sg115_3_cif.got.tgz:5026.got - 2010.05.20 11:07:42.
