data_PCOD9556909
_publ_section_title
;
Structure prediction by ZEFSAII (Michael W. Deem and Ramdas Pophale) SiO2 
 PCOD9556909
Probable space group: P -4 M 2
;
_chemical_formula_sum "Si O2"
_cell_formula_units_Z 40
_cell_length_a 14.398501
_cell_length_b 14.398501
_cell_length_c 10.333362
_cell_angle_alpha 90.000000
_cell_angle_beta 90.000000
_cell_angle_gamma 90.000000
_cell_volume 2142.279864
_symmetry_space_group_name_H-M "P -4 M 2"
_symmetry_group_IT_number 115
_symmetry_cell_setting 'tetragonal'
loop_
_space_group_symop_operation_xyz
x,y,z
y,-x,-z
-x,-y,z
-y,x,-z
y,x,-z
-y,-x,-z
-x,y,z
x,-y,z
loop_
_atom_site_type_symbol
_atom_site_label
_atom_site_fract_x
_atom_site_fract_y
_atom_site_fract_z
Si Si1 0.889643 0.699351 0.237835
Si Si2 0.610770 0.236636 0.976654
Si Si3 0.711616 0.106524 0.462855
Si Si4 0.894009 0.101357 0.290206
Si Si5 0.610697 0.893270 0.217771
O O1 0.820868 0.639432 0.151517
O O2 0.860191 0.700643 0.390260
O O3 0.881996 0.808655 0.201521
O O4 0.000000 0.673443 0.226427
O O5 0.500000 0.253580 0.977142
O O6 0.671047 0.328954 0.000000
O O7 0.635522 0.167799 0.095006
O O8 0.813501 0.103586 0.397706
O O9 0.649626 0.150048 0.350204
O O10 0.679651 0.000000 0.473124
O O11 0.000000 0.110266 0.344595
O O12 0.888429 0.000000 0.227050
O O13 0.500000 0.897283 0.225552
O O14 0.645350 0.000000 0.203152
#
# Coordination Sequence:
#
# PCOD9556909 Si02
#       5
#     8   8   8   8   8
#     4  10  20  33  54  86 117 145 181 224 268 314
#     4  11  24  41  59  78 102 136 180 231 288 343
#     4   9  17  29  49  80 115 149 185 220 253 302
#     4   9  17  29  47  76 118 163 196 219 250 303
#     4   9  18  34  56  81 110 143 175 211 264 330
#
# _framework density 18.671699
#
# number of rings (size 3 to 8) (size 9 to 14) (size 15 to 20)
#    0.000    2.400    0.000    2.400    0.000    4.600 
#    0.000    9.000    0.000    1.200    0.000    5.600 
#    0.000    3.200    0.000    0.000    0.000    0.000 
#
# Total GULP energy -222762.301961 kJ/mol
# GULP energy per Si atom -5569.057549 kJ/mol
# Density = 1.862920 g / cm^3
# Si number density = 18.671699 Si / 1000 Ang^3
#
#
#
# Elastic Constant Matrix: (Units=GPa)
#
#
# Indices 1 2 3 4 5 6 
#
# 1 71.6192 46.4821 45.5304 0.0000 0.0000 0.0000
# 2 46.4821 71.6158 45.5301 0.0000 0.0000 0.0000
# 3 45.5304 45.5301 86.0785 0.0000 0.0000 0.0000
# 4 0.0000 0.0000 0.0000 21.9435 0.0000 0.0000
# 5 0.0000 0.0000 0.0000 0.0000 21.9435 0.0000
# 6 0.0000 0.0000 0.0000 0.0000 0.0000 26.4995
#
#
#
# Elastic Compliance Matrix: (Units=1/GPa)
#
#
# Indices 1 2 3 4 5 6 
#
# 1 0.027041 -0.012743 -0.007563 0.000000 0.000000 0.000000
# 2 -0.012743 0.027043 -0.007564 0.000000 0.000000 0.000000
# 3 -0.007563 -0.007564 0.019618 0.000000 0.000000 0.000000
# 4 0.000000 0.000000 0.000000 0.045572 0.000000 0.000000
# 5 0.000000 0.000000 0.000000 0.000000 0.045571 0.000000
# 6 0.000000 0.000000 0.000000 0.000000 0.000000 0.037736
#
#
# Mechanical properties :
#
#
# Convention : Reuss Voigt Hill
#
# Bulk Modulus (GPa) = 55.66927 56.04430 55.85679
# Shear Modulus (GPa) = 18.91728 20.19537 19.55633
#
# Velocity S-wave (km/s) = 3.18646 3.29234 3.23983
# Velocity P-wave (km/s) = 6.58920 6.67334 6.63140
#
# Compressibility (1/GPa) = 0.01796323
#
# Stress axis : x y z
#
# Youngs Moduli (GPa) = 36.98084 36.97849 50.97247
#
# Poissons Ratio (x) = 0.47121 0.38550
# Poissons Ratio (y) = 0.47124 0.38554
# Poissons Ratio (z) = 0.27969 0.27970
#
# Static dielectric constant tensor:
#      x y z
#    x 1.683560 0.000000 0.000000 
#    y 0.000000 1.683560 0.000000 
#    z 0.000000 0.000000 1.680890 
# 
# From -- ./inp_files/1631.got.cif
#   From: 2010.05.17/outbox.cif.g08.bks.cpg/sg115_1_cif.got.tgz:1631.got - 2010.05.20 11:07:42.
