data_PCOD9556609
_publ_section_title
;
Structure prediction by ZEFSAII (Michael W. Deem and Ramdas Pophale) SiO2 
 PCOD9556609
Probable space group: P -4 M 2
;
_chemical_formula_sum "Si O2"
_cell_formula_units_Z 48
_cell_length_a 8.099051
_cell_length_b 8.099051
_cell_length_c 35.375396
_cell_angle_alpha 90.000000
_cell_angle_beta 90.000000
_cell_angle_gamma 90.000000
_cell_volume 2320.435909
_symmetry_space_group_name_H-M "P -4 M 2"
_symmetry_group_IT_number 115
_symmetry_cell_setting 'tetragonal'
loop_
_space_group_symop_operation_xyz
x,y,z
y,-x,-z
-x,-y,z
-y,x,-z
y,x,-z
-y,-x,-z
-x,y,z
x,-y,z
loop_
_atom_site_type_symbol
_atom_site_label
_atom_site_fract_x
_atom_site_fract_y
_atom_site_fract_z
Si Si1 0.799197 0.805857 0.459143
Si Si2 0.689419 0.192848 0.039435
Si Si3 0.679028 0.195818 0.299544
Si Si4 0.305450 0.808339 0.622369
Si Si5 0.694779 0.310830 0.879331
Si Si6 0.000000 0.700313 0.168411
Si Si7 0.000000 0.799656 0.255429
O O1 0.740514 0.740514 0.500000
O O2 0.744549 0.725189 0.420063
O O3 0.000000 0.790957 0.460436
O O4 0.760170 0.000000 0.456724
O O5 0.500000 0.245369 0.033019
O O6 0.747003 0.283594 0.077218
O O7 0.693179 0.000000 0.048580
O O8 0.779355 0.220646 0.000000
O O9 0.500000 0.266502 0.289039
O O10 0.710198 0.220609 0.344049
O O11 0.836106 0.263032 0.276827
O O12 0.674481 0.000000 0.292238
O O13 0.500000 0.807400 0.629551
O O14 0.246617 0.000000 0.623816
O O15 0.500000 0.323390 0.871708
O O16 0.762941 0.500000 0.876014
O O17 0.762129 0.167351 0.852204
O O18 0.000000 0.500000 0.165448
O O19 0.000000 0.749384 0.211991
O O20 0.000000 0.000000 0.257957
#
# Coordination Sequence:
#
# PCOD9556609 Si02
#       7
#     8   8   8   8   8   4   4
#     4   8  14  26  46  71 100 141 191 233 270 321
#     4  10  21  35  53  80 113 149 190 237 287 337
#     4  10  21  38  60  84 110 144 186 229 280 344
#     4  10  19  31  51  79 110 144 181 226 283 336
#     4   9  19  37  58  80 111 152 195 237 282 337
#     4  10  22  38  60  86 112 148 192 234 282 346
#     4  10  22  40  60  86 116 144 178 230 292 344
#
# _framework density 20.685767999999999
#
# number of rings (size 3 to 8) (size 9 to 14) (size 15 to 20)
#    0.000    2.500    0.833    1.500    1.167    4.000 
#    0.000    0.833    0.000    3.000    0.000    0.000 
#    0.000    0.000    0.000    0.000    0.000    0.000 
#
# Total GULP energy -267701.397245 kJ/mol
# GULP energy per Si atom -5577.112443 kJ/mol
# Density = 2.063869 g / cm^3
# Si number density = 20.685768 Si / 1000 Ang^3
#
#
#
# Elastic Constant Matrix: (Units=GPa)
#
#
# Indices 1 2 3 4 5 6 
#
# 1 50.4401 25.2165 39.7300 0.0000 0.0000 0.0000
# 2 25.2165 50.4401 39.7304 0.0000 0.0000 0.0000
# 3 39.7300 39.7304 120.5989 0.0000 0.0000 0.0000
# 4 0.0000 0.0000 0.0000 28.1754 0.0000 0.0000
# 5 0.0000 0.0000 0.0000 0.0000 28.1753 0.0000
# 6 0.0000 0.0000 0.0000 0.0000 0.0000 4.8022
#
#
#
# Elastic Compliance Matrix: (Units=1/GPa)
#
#
# Indices 1 2 3 4 5 6 
#
# 1 0.029928 -0.009717 -0.006658 0.000000 0.000000 0.000000
# 2 -0.009717 0.029928 -0.006658 0.000000 0.000000 0.000000
# 3 -0.006658 -0.006658 0.012679 0.000000 0.000000 0.000000
# 4 0.000000 0.000000 0.000000 0.035492 0.000000 0.000000
# 5 0.000000 0.000000 0.000000 0.000000 0.035492 0.000000
# 6 0.000000 0.000000 0.000000 0.000000 0.000000 0.208239
#
#
# Mechanical properties :
#
#
# Convention : Reuss Voigt Hill
#
# Bulk Modulus (GPa) = 37.78249 47.87031 42.82640
# Shear Modulus (GPa) = 12.29565 20.01740 16.15652
#
# Velocity S-wave (km/s) = 2.44068 3.11415 2.79775
# Velocity P-wave (km/s) = 5.12320 6.01019 5.58434
#
# Compressibility (1/GPa) = 0.02646729
#
# Stress axis : x y z
#
# Youngs Moduli (GPa) = 33.41373 33.41347 78.87118
#
# Poissons Ratio (x) = 0.32469 0.52513
# Poissons Ratio (y) = 0.32469 0.52515
# Poissons Ratio (z) = 0.22247 0.22248
#
# Static dielectric constant tensor:
#      x y z
#    x 1.758230 0.000000 0.000000 
#    y 0.000000 1.758230 0.000000 
#    z 0.000000 0.000000 1.717410 
# 
# From -- ./inp_files/6188.got.cif
#   From: 2010.05.17/outbox.cif.g08.bks.cpg/sg115_4_cif.got.tgz:6188.got - 2010.05.20 11:07:42.
