data_PCOD9556552
_publ_section_title
;
Structure prediction by ZEFSAII (Michael W. Deem and Ramdas Pophale) SiO2 
 PCOD9556552
Probable space group: P -4 M 2
;
_chemical_formula_sum "Si O2"
_cell_formula_units_Z 64
_cell_length_a 13.800385
_cell_length_b 13.800385
_cell_length_c 19.569310
_cell_angle_alpha 90.000000
_cell_angle_beta 90.000000
_cell_angle_gamma 90.000000
_cell_volume 3726.987343
_symmetry_space_group_name_H-M "P -4 M 2"
_symmetry_group_IT_number 115
_symmetry_cell_setting 'tetragonal'
loop_
_space_group_symop_operation_xyz
x,y,z
y,-x,-z
-x,-y,z
-y,x,-z
y,x,-z
-y,-x,-z
-x,y,z
x,-y,z
loop_
_atom_site_type_symbol
_atom_site_label
_atom_site_fract_x
_atom_site_fract_y
_atom_site_fract_z
Si Si1 0.887076 0.240255 0.851626
Si Si2 0.728508 0.390604 0.097853
Si Si3 0.113265 0.715629 0.184282
Si Si4 0.886228 0.255741 0.346170
Si Si5 0.882693 0.390707 0.468450
Si Si6 0.392694 0.883131 0.264475
Si Si7 0.883906 0.723042 0.601914
Si Si8 0.209614 0.610090 0.940219
O O1 0.818311 0.147321 0.847997
O O2 0.854473 0.310205 0.788990
O O3 0.866314 0.308502 0.916700
O O4 0.000000 0.217023 0.845055
O O5 0.694422 0.500000 0.110208
O O6 0.812348 0.359986 0.150536
O O7 0.643890 0.310275 0.095378
O O8 0.773439 0.386985 0.021388
O O9 0.126742 0.722891 0.266102
O O10 0.000000 0.695300 0.170816
O O11 0.860610 0.346739 0.394392
O O12 0.819516 0.168934 0.372970
O O13 0.000000 0.233555 0.356766
O O14 0.846046 0.500000 0.477621
O O15 0.851924 0.317918 0.528632
O O16 0.000000 0.395029 0.473715
O O17 0.500000 0.844465 0.250212
O O18 0.357965 0.861503 0.340838
O O19 0.397274 0.000000 0.258864
O O20 0.000000 0.737710 0.601019
O O21 0.182456 0.500000 0.921264
#
# Coordination Sequence:
#
# PCOD9556552 Si02
#       8
#     8   8   8   8   8   8   8   8
#     4  10  19  32  49  72 102 135 172 214 256 301
#     4   9  19  35  54  77 103 132 168 211 260 312
#     4  10  21  35  50  70 101 140 180 216 252 297
#     4  10  20  33  49  71  99 134 171 207 246 293
#     4   9  18  32  49  69  94 124 160 203 248 292
#     4   9  16  26  43  68  96 126 159 196 245 300
#     4  10  18  30  48  72 101 130 160 200 248 301
#     4   9  18  33  54  80 106 130 162 208 262 318
#
# _framework density 17.172046999999999
#
# number of rings (size 3 to 8) (size 9 to 14) (size 15 to 20)
#    0.000    2.500    1.250    1.125    0.000    4.250 
#    0.000    5.000    0.000    2.250    0.000    3.500 
#    0.000    8.500    0.000    0.000    0.000    0.000 
#
# Total GULP energy -356554.633965 kJ/mol
# GULP energy per Si atom -5571.166156 kJ/mol
# Density = 1.713296 g / cm^3
# Si number density = 17.172047 Si / 1000 Ang^3
#
#
#
# Elastic Constant Matrix: (Units=GPa)
#
#
# Indices 1 2 3 4 5 6 
#
# 1 51.4925 4.5868 16.9225 0.0000 0.0000 0.0000
# 2 4.5868 51.4925 16.9225 0.0000 0.0000 0.0000
# 3 16.9225 16.9225 48.5078 0.0000 0.0000 0.0000
# 4 0.0000 0.0000 0.0000 16.2722 0.0000 0.0000
# 5 0.0000 0.0000 0.0000 0.0000 16.2722 0.0000
# 6 0.0000 0.0000 0.0000 0.0000 0.0000 9.2645
#
#
#
# Elastic Compliance Matrix: (Units=1/GPa)
#
#
# Indices 1 2 3 4 5 6 
#
# 1 0.021953 0.000634 -0.007880 0.000000 0.000000 0.000000
# 2 0.000634 0.021953 -0.007880 0.000000 0.000000 0.000000
# 3 -0.007880 -0.007880 0.026113 0.000000 0.000000 0.000000
# 4 0.000000 0.000000 0.000000 0.061455 0.000000 0.000000
# 5 0.000000 0.000000 0.000000 0.000000 0.061455 0.000000
# 6 0.000000 0.000000 0.000000 0.000000 0.000000 0.107939
#
#
# Mechanical properties :
#
#
# Convention : Reuss Voigt Hill
#
# Bulk Modulus (GPa) = 25.14538 25.37290 25.25914
# Shear Modulus (GPa) = 14.51899 15.89916 15.20907
#
# Velocity S-wave (km/s) = 2.91091 3.04612 2.97928
# Velocity P-wave (km/s) = 5.09635 5.21340 5.15521
#
# Compressibility (1/GPa) = 0.03976874
#
# Stress axis : x y z
#
# Youngs Moduli (GPa) = 45.55085 45.55085 38.29472
#
# Poissons Ratio (x) = -0.02888 0.30176
# Poissons Ratio (y) = -0.02888 0.30176
# Poissons Ratio (z) = 0.35894 0.35894
#
# Static dielectric constant tensor:
#      x y z
#    x 1.578520 0.000000 0.000000 
#    y 0.000000 1.578520 0.000000 
#    z 0.000000 0.000000 1.605160 
# 
# From -- ./inp_files/4477.got.cif
#   From: 2010.05.17/outbox.cif.g08.bks.cpg/sg115_3_cif.got.tgz:4477.got - 2010.05.20 11:07:42.
