data_PCOD9556127
_publ_section_title
;
Structure prediction by ZEFSAII (Michael W. Deem and Ramdas Pophale) SiO2 
 PCOD9556127
Probable space group: P -4 21 C
;
_chemical_formula_sum "Si O2"
_cell_formula_units_Z 54
_cell_length_a 12.362759
_cell_length_b 12.362759
_cell_length_c 18.640762
_cell_angle_alpha 90.000000
_cell_angle_beta 90.000000
_cell_angle_gamma 90.000000
_cell_volume 2849.013243
_symmetry_space_group_name_H-M "P -4 21 C"
_symmetry_group_IT_number 114
_symmetry_cell_setting 'tetragonal'
loop_
_space_group_symop_operation_xyz
x,y,z
y,-x,-z
-x,-y,z
-y,x,-z
1/2+x,1/2-y,1/2-z
1/2-x,1/2+y,1/2-z
1/2-y,1/2-x,1/2+z
1/2+y,1/2+x,1/2+z
loop_
_atom_site_type_symbol
_atom_site_label
_atom_site_fract_x
_atom_site_fract_y
_atom_site_fract_z
Si Si1 0.855480 0.306994 0.216650
Si Si2 0.909842 0.580562 0.538079
Si Si3 0.694526 0.299643 0.999937
Si Si4 0.500000 0.000000 0.321273
Si Si5 0.155636 0.100373 0.653789
Si Si6 0.403609 0.356450 0.851099
Si Si7 0.918123 0.217375 0.063528
Si Si8 0.500000 0.500000 0.500000
O O1 0.940897 0.406099 0.221986
O O2 0.851571 0.233844 0.286402
O O3 0.738993 0.354026 0.195928
O O4 0.893297 0.239162 0.146900
O O5 0.887743 0.697402 0.505237
O O6 0.951621 0.587054 0.621013
O O7 0.798608 0.514090 0.541110
O O8 0.000000 0.500000 0.503799
O O9 0.666679 0.379081 0.065240
O O10 0.812133 0.251354 0.018752
O O11 0.692055 0.362156 0.925007
O O12 0.031049 0.135556 0.661888
O O13 0.152708 0.971127 0.663425
O O14 0.951085 0.095744 0.047623
#
# Coordination Sequence:
#
# PCOD9556127 Si02
#       8
#     8   8   8   4   8   8   8   2
#     4  10  22  43  63  89 130 165 215 266 318 384
#     4   9  19  35  63  88 118 159 209 252 313 369
#     4  11  21  39  64  91 126 164 208 260 317 378
#     4   8  18  36  64  86 118 168 202 252 318 360
#     4  11  24  40  65  92 122 170 211 256 328 385
#     4  10  24  42  61  93 128 161 208 268 319 379
#     4  10  22  38  60  92 125 167 204 266 314 376
#     4  12  20  40  60  92 132 160 218 248 328 392
#
# _framework density 18.953931000000001
#
# number of rings (size 3 to 8) (size 9 to 14) (size 15 to 20)
#    0.444    1.481    1.481    1.778    4.148    5.926 
#    2.667    1.481    0.000    0.000    0.000    0.000 
#    0.000    0.000    0.000    0.000    0.000    0.000 
#
# Total GULP energy -301465.497761 kJ/mol
# GULP energy per Si atom -5582.694403 kJ/mol
# Density = 1.891079 g / cm^3
# Si number density = 18.953931 Si / 1000 Ang^3
#
#
#
# Elastic Constant Matrix: (Units=GPa)
#
#
# Indices 1 2 3 4 5 6 
#
# 1 104.8458 41.2295 58.1422 0.0000 0.0000 0.0000
# 2 41.2295 104.8458 58.1422 0.0000 0.0000 0.0000
# 3 58.1422 58.1422 99.7810 0.0000 0.0000 0.0000
# 4 0.0000 0.0000 0.0000 13.8553 0.0000 0.0000
# 5 0.0000 0.0000 0.0000 0.0000 13.8553 0.0000
# 6 0.0000 0.0000 0.0000 0.0000 0.0000 25.4870
#
#
#
# Elastic Compliance Matrix: (Units=1/GPa)
#
#
# Indices 1 2 3 4 5 6 
#
# 1 0.014244 -0.001475 -0.007440 0.000000 0.000000 0.000000
# 2 -0.001475 0.014244 -0.007440 0.000000 0.000000 0.000000
# 3 -0.007440 -0.007440 0.018693 0.000000 0.000000 0.000000
# 4 0.000000 0.000000 0.000000 0.072175 0.000000 0.000000
# 5 0.000000 0.000000 0.000000 0.000000 0.072175 0.000000
# 6 0.000000 0.000000 0.000000 0.000000 0.000000 0.039236
#
#
# Mechanical properties :
#
#
# Convention : Reuss Voigt Hill
#
# Bulk Modulus (GPa) = 69.11303 69.38892 69.25098
# Shear Modulus (GPa) = 18.63583 20.77009 19.70296
#
# Velocity S-wave (km/s) = 3.13903 3.31391 3.22765
# Velocity P-wave (km/s) = 7.04847 7.16459 7.10677
#
# Compressibility (1/GPa) = 0.01446905
#
# Stress axis : x y z
#
# Youngs Moduli (GPa) = 70.20519 70.20519 53.49645
#
# Poissons Ratio (x) = 0.10357 0.39803
# Poissons Ratio (y) = 0.10357 0.39803
# Poissons Ratio (z) = 0.52235 0.52235
#
# Static dielectric constant tensor:
#      x y z
#    x 1.668190 0.000000 0.000000 
#    y 0.000000 1.668190 0.000000 
#    z 0.000000 0.000000 1.624720 
# 
# From -- ./inp_files/3199.got.cif
#   From: 2010.05.17/outbox.cif.g08.bks.cpg/sg114_2_cif.got.tgz:3199.got - 2010.05.20 11:04:54.
