data_PCOD9556743
_publ_section_title
;
Structure prediction by ZEFSAII (Michael W. Deem and Ramdas Pophale) SiO2 
 PCOD9556743
Probable space group: P -4 M 2
;
_chemical_formula_sum "Si O2"
_cell_formula_units_Z 44
_cell_length_a 9.439117
_cell_length_b 9.439117
_cell_length_c 28.961720
_cell_angle_alpha 90.000000
_cell_angle_beta 90.000000
_cell_angle_gamma 90.000000
_cell_volume 2580.400332
_symmetry_space_group_name_H-M "P -4 M 2"
_symmetry_group_IT_number 115
_symmetry_cell_setting 'tetragonal'
loop_
_space_group_symop_operation_xyz
x,y,z
y,-x,-z
-x,-y,z
-y,x,-z
y,x,-z
-y,-x,-z
-x,y,z
x,-y,z
loop_
_atom_site_type_symbol
_atom_site_label
_atom_site_fract_x
_atom_site_fract_y
_atom_site_fract_z
Si Si1 0.670230 0.833450 0.858185
Si Si2 0.833316 0.669552 0.672332
Si Si3 0.830375 0.666546 0.406934
Si Si4 0.332765 0.830799 0.221305
Si Si5 0.832089 0.167911 0.500000
Si Si6 0.327597 0.663249 0.948987
O O1 0.500000 0.815769 0.854104
O O2 0.746155 0.758502 0.815463
O O3 0.715651 0.758804 0.906006
O O4 0.701164 0.000000 0.859291
O O5 0.817344 0.500000 0.667085
O O6 0.739693 0.751248 0.635496
O O7 0.796460 0.704450 0.725502
O O8 0.000000 0.702560 0.665498
O O9 0.798499 0.500000 0.409315
O O10 0.791408 0.743991 0.454774
O O11 0.000000 0.683265 0.401255
O O12 0.500000 0.800045 0.214892
O O13 0.314329 0.000000 0.215614
O O14 0.000000 0.189505 0.508672
O O15 0.500000 0.661737 0.950293
O O16 0.281553 0.500000 0.942351
O O17 0.284514 0.715486 0.000000
#
# Coordination Sequence:
#
# PCOD9556743 Si02
#       6
#     8   8   8   8   4   8
#     4  10  20  32  48  74 106 135 163 200 249 301
#     4   9  19  36  56  76  99 130 169 211 252 296
#     4  10  21  35  52  78 109 136 165 205 251 298
#     4   9  19  36  55  74  97 129 171 212 249 294
#     4   9  18  34  54  73  98 138 182 213 240 285
#     4   8  14  27  48  70  92 125 170 212 246 286
#
# _framework density 17.051618000000001
#
# number of rings (size 3 to 8) (size 9 to 14) (size 15 to 20)
#    0.000    2.818    0.000    2.727    0.000    5.091 
#    0.000    8.182    0.000    3.273    0.000    0.000 
#    0.000    0.000    0.000    0.000    0.000    0.000 
#
# Total GULP energy -245356.509292 kJ/mol
# GULP energy per Si atom -5576.284302 kJ/mol
# Density = 1.701281 g / cm^3
# Si number density = 17.051618 Si / 1000 Ang^3
#
#
#
# Elastic Constant Matrix: (Units=GPa)
#
#
# Indices 1 2 3 4 5 6 
#
# 1 66.7728 56.7786 96.4706 0.0000 0.0000 0.0000
# 2 56.7786 66.7722 96.4705 0.0000 0.0000 0.0000
# 3 96.4706 96.4705 199.7716 0.0000 0.0000 0.0000
# 4 0.0000 0.0000 0.0000 46.8916 0.0000 0.0000
# 5 0.0000 0.0000 0.0000 0.0000 46.8902 0.0000
# 6 0.0000 0.0000 0.0000 0.0000 0.0000 26.6960
#
#
#
# Elastic Compliance Matrix: (Units=1/GPa)
#
#
# Indices 1 2 3 4 5 6 
#
# 1 0.066488 -0.033572 -0.015896 0.000000 0.000000 0.000000
# 2 -0.033572 0.066490 -0.015896 0.000000 0.000000 0.000000
# 3 -0.015896 -0.015896 0.020358 0.000000 0.000000 0.000000
# 4 0.000000 0.000000 0.000000 0.021326 0.000000 0.000000
# 5 0.000000 0.000000 0.000000 0.000000 0.021326 0.000000
# 6 0.000000 0.000000 0.000000 0.000000 0.000000 0.037459
#
#
# Mechanical properties :
#
#
# Convention : Reuss Voigt Hill
#
# Bulk Modulus (GPa) = 44.22984 92.52843 68.37914
# Shear Modulus (GPa) = 13.45128 29.66868 21.55998
#
# Velocity S-wave (km/s) = 2.81171 4.17578 3.55969
# Velocity P-wave (km/s) = 6.04450 8.81085 7.55536
#
# Compressibility (1/GPa) = 0.02260917
#
# Stress axis : x y z
#
# Youngs Moduli (GPa) = 15.04022 15.03979 49.12034
#
# Poissons Ratio (x) = 0.50491 0.78079
# Poissons Ratio (y) = 0.50493 0.78084
# Poissons Ratio (z) = 0.23907 0.23908
#
# Static dielectric constant tensor:
#      x y z
#    x 1.563020 0.000000 0.000000 
#    y 0.000000 1.563020 0.000000 
#    z 0.000000 0.000000 1.563030 
# 
# From -- ./inp_files/5727.got.cif
#   From: 2010.05.17/outbox.cif.g08.bks.cpg/sg115_3_cif.got.tgz:5727.got - 2010.05.20 11:07:42.
