data_PCOD9556041
_publ_section_title
;
Structure prediction by ZEFSAII (Michael W. Deem and Ramdas Pophale) SiO2 
 PCOD9556041
Probable space group: P -4 21 C
;
_chemical_formula_sum "Si O2"
_cell_formula_units_Z 48
_cell_length_a 9.213184
_cell_length_b 9.213184
_cell_length_c 29.716452
_cell_angle_alpha 90.000000
_cell_angle_beta 90.000000
_cell_angle_gamma 90.000000
_cell_volume 2522.414446
_symmetry_space_group_name_H-M "P -4 21 C"
_symmetry_group_IT_number 114
_symmetry_cell_setting 'tetragonal'
loop_
_space_group_symop_operation_xyz
x,y,z
y,-x,-z
-x,-y,z
-y,x,-z
1/2+x,1/2-y,1/2-z
1/2-x,1/2+y,1/2-z
1/2-y,1/2-x,1/2+z
1/2+y,1/2+x,1/2+z
loop_
_atom_site_type_symbol
_atom_site_label
_atom_site_fract_x
_atom_site_fract_y
_atom_site_fract_z
Si Si1 0.137302 0.896574 0.730064
Si Si2 0.823351 0.673270 0.034566
Si Si3 0.672907 0.837409 0.954488
Si Si4 0.182385 0.140794 0.368219
Si Si5 0.130420 0.611773 0.787344
Si Si6 0.806212 0.853116 0.621265
O O1 0.191271 0.825966 0.683080
O O2 0.099672 0.764287 0.762799
O O3 0.260005 0.013505 0.742980
O O4 0.000000 0.000000 0.720188
O O5 0.806336 0.498495 0.037139
O O6 0.736251 0.738510 0.077302
O O7 0.994016 0.702643 0.037723
O O8 0.760788 0.738592 0.988929
O O9 0.703647 0.797972 0.902590
O O10 0.023888 0.173519 0.389195
O O11 0.202662 0.966999 0.365745
O O12 0.205224 0.651660 0.834931
O O13 0.000000 0.500000 0.795404
#
# Coordination Sequence:
#
# PCOD9556041 Si02
#       6
#     8   8   8   8   8   8
#     4  11  21  41  61  89 127 161 209 257 307 367
#     4  10  21  38  59  88 117 151 193 247 295 360
#     4  10  21  37  61  89 114 150 198 241 303 354
#     4   9  17  36  62  83 113 155 199 247 288 350
#     4  11  23  37  61  93 121 164 202 253 311 364
#     4   9  18  37  59  83 117 151 202 242 286 350
#
# _framework density 19.029385000000001
#
# number of rings (size 3 to 8) (size 9 to 14) (size 15 to 20)
#    0.000    2.000    3.333    2.000    0.000    3.333 
#   12.000    0.000    0.000    0.000    0.000    0.000 
#    0.000    0.000    0.000    0.000    0.000    0.000 
#
# Total GULP energy -267581.467902 kJ/mol
# GULP energy per Si atom -5574.613915 kJ/mol
# Density = 1.898607 g / cm^3
# Si number density = 19.029385 Si / 1000 Ang^3
#
#
#
# Elastic Constant Matrix: (Units=GPa)
#
#
# Indices 1 2 3 4 5 6 
#
# 1 56.4396 39.4993 49.0953 0.0000 0.0000 0.0000
# 2 39.4993 56.4396 49.0953 0.0000 0.0000 0.0000
# 3 49.0953 49.0953 101.3343 0.0000 0.0000 0.0000
# 4 0.0000 0.0000 0.0000 20.5781 0.0000 0.0000
# 5 0.0000 0.0000 0.0000 0.0000 20.5781 0.0000
# 6 0.0000 0.0000 0.0000 0.0000 0.0000 19.4192
#
#
#
# Elastic Compliance Matrix: (Units=1/GPa)
#
#
# Indices 1 2 3 4 5 6 
#
# 1 0.039853 -0.019178 -0.010017 0.000000 0.000000 0.000000
# 2 -0.019178 0.039853 -0.010017 0.000000 0.000000 0.000000
# 3 -0.010017 -0.010017 0.019575 0.000000 0.000000 0.000000
# 4 0.000000 0.000000 0.000000 0.048595 0.000000 0.000000
# 5 0.000000 0.000000 0.000000 0.000000 0.048595 0.000000
# 6 0.000000 0.000000 0.000000 0.000000 0.000000 0.051495
#
#
# Mechanical properties :
#
#
# Convention : Reuss Voigt Hill
#
# Bulk Modulus (GPa) = 47.94465 54.39925 51.17195
# Shear Modulus (GPa) = 14.99956 17.21665 16.10810
#
# Velocity S-wave (km/s) = 2.81059 3.01115 2.91260
# Velocity P-wave (km/s) = 5.98183 6.38267 6.18550
#
# Compressibility (1/GPa) = 0.02085738
#
# Stress axis : x y z
#
# Youngs Moduli (GPa) = 25.09208 25.09208 51.08672
#
# Poissons Ratio (x) = 0.48121 0.51173
# Poissons Ratio (y) = 0.48121 0.51173
# Poissons Ratio (z) = 0.25135 0.25135
#
# Static dielectric constant tensor:
#      x y z
#    x 1.675620 0.000000 0.000000 
#    y 0.000000 1.675620 0.000000 
#    z 0.000000 0.000000 1.657680 
# 
# From -- ./inp_files/3920.got.cif
#   From: 2010.05.17/outbox.cif.g08.bks.cpg/sg114_2_cif.got.tgz:3920.got - 2010.05.20 11:04:54.
