data_PCOD9556226
_publ_section_title
;
Structure prediction by ZEFSAII (Michael W. Deem and Ramdas Pophale) SiO2 
 PCOD9556226
Probable space group: P -4 21 C
;
_chemical_formula_sum "Si O2"
_cell_formula_units_Z 40
_cell_length_a 10.619348
_cell_length_b 10.619348
_cell_length_c 13.153489
_cell_angle_alpha 90.000000
_cell_angle_beta 90.000000
_cell_angle_gamma 90.000000
_cell_volume 1483.326215
_symmetry_space_group_name_H-M "P -4 21 C"
_symmetry_group_IT_number 114
_symmetry_cell_setting 'tetragonal'
loop_
_space_group_symop_operation_xyz
x,y,z
y,-x,-z
-x,-y,z
-y,x,-z
1/2+x,1/2-y,1/2-z
1/2-x,1/2+y,1/2-z
1/2-y,1/2-x,1/2+z
1/2+y,1/2+x,1/2+z
loop_
_atom_site_type_symbol
_atom_site_label
_atom_site_fract_x
_atom_site_fract_y
_atom_site_fract_z
Si Si1 0.122731 0.278094 0.802753
Si Si2 0.377773 0.055109 0.483261
Si Si3 0.809191 0.752722 0.487191
Si Si4 0.037321 0.711497 0.211019
Si Si5 0.885039 0.915887 0.288291
O O1 0.133614 0.256151 0.924659
O O2 0.138939 0.427074 0.775528
O O3 0.993657 0.228740 0.757241
O O4 0.226315 0.174269 0.759621
O O5 0.291371 0.933956 0.456736
O O6 0.567721 0.871667 0.386367
O O7 0.500000 0.000000 0.537828
O O8 0.291020 0.157041 0.539883
O O9 0.850467 0.834938 0.387776
O O10 0.950934 0.836087 0.198117
O O11 0.000000 0.000000 0.326950
#
# Coordination Sequence:
#
# PCOD9556226 Si02
#       5
#     8   8   8   8   8
#     4   9  18  39  66 106 141 187 256 306 370 456
#     4  11  24  44  63 100 150 193 234 294 379 447
#     4  10  23  40  67 105 146 190 240 300 377 446
#     4   9  19  38  66 100 144 190 241 309 381 439
#     4   9  18  36  67 102 137 187 248 306 363 440
#
# _framework density 26.966422000000001
#
# number of rings (size 3 to 8) (size 9 to 14) (size 15 to 20)
#    0.000    2.400    0.000    1.200    2.800    0.000 
#    7.200   14.000    0.000    0.000    0.000    0.000 
#    0.000    0.000    0.000    0.000    0.000    0.000 
#
# Total GULP energy -223010.363386 kJ/mol
# GULP energy per Si atom -5575.259085 kJ/mol
# Density = 2.690505 g / cm^3
# Si number density = 26.966422 Si / 1000 Ang^3
#
#
#
# Elastic Constant Matrix: (Units=GPa)
#
#
# Indices 1 2 3 4 5 6 
#
# 1 135.0658 72.1377 46.5509 0.0000 0.0000 0.0000
# 2 72.1377 135.0658 46.5509 0.0000 0.0000 0.0000
# 3 46.5509 46.5509 86.4795 0.0000 0.0000 0.0000
# 4 0.0000 0.0000 0.0000 32.4318 0.0000 0.0000
# 5 0.0000 0.0000 0.0000 0.0000 32.4318 0.0000
# 6 0.0000 0.0000 0.0000 0.0000 0.0000 73.7482
#
#
#
# Elastic Compliance Matrix: (Units=1/GPa)
#
#
# Indices 1 2 3 4 5 6 
#
# 1 0.011129 -0.004763 -0.003427 0.000000 0.000000 0.000000
# 2 -0.004763 0.011129 -0.003427 0.000000 0.000000 0.000000
# 3 -0.003427 -0.003427 0.015253 0.000000 0.000000 0.000000
# 4 0.000000 0.000000 0.000000 0.030834 0.000000 0.000000
# 5 0.000000 0.000000 0.000000 0.000000 0.030834 0.000000
# 6 0.000000 0.000000 0.000000 0.000000 0.000000 0.013560
#
#
# Mechanical properties :
#
#
# Convention : Reuss Voigt Hill
#
# Bulk Modulus (GPa) = 70.03998 76.34334 73.19166
# Shear Modulus (GPa) = 35.52949 40.48047 38.00498
#
# Velocity S-wave (km/s) = 3.63374 3.87866 3.75820
# Velocity P-wave (km/s) = 6.60567 6.95922 6.78474
#
# Compressibility (1/GPa) = 0.01427756
#
# Stress axis : x y z
#
# Youngs Moduli (GPa) = 89.85932 89.85932 65.56299
#
# Poissons Ratio (x) = 0.42797 0.22466
# Poissons Ratio (y) = 0.42797 0.22466
# Poissons Ratio (z) = 0.30792 0.30792
#
# Static dielectric constant tensor:
#      x y z
#    x 2.293810 0.000000 0.000000 
#    y 0.000000 2.293810 0.000000 
#    z 0.000000 0.000000 2.103560 
# 
# From -- ./inp_files/2155.got.cif
#   From: 2010.05.17/outbox.cif.g08.bks.cpg/sg114_2_cif.got.tgz:2155.got - 2010.05.20 11:04:54.
