data_PCOD9556537
_publ_section_title
;
Structure prediction by ZEFSAII (Michael W. Deem and Ramdas Pophale) SiO2 
 PCOD9556537
Probable space group: P -4 M 2
;
_chemical_formula_sum "Si O2"
_cell_formula_units_Z 36
_cell_length_a 14.268562
_cell_length_b 14.268562
_cell_length_c 13.155520
_cell_angle_alpha 90.000000
_cell_angle_beta 90.000000
_cell_angle_gamma 90.000000
_cell_volume 2678.356806
_symmetry_space_group_name_H-M "P -4 M 2"
_symmetry_group_IT_number 115
_symmetry_cell_setting 'tetragonal'
loop_
_space_group_symop_operation_xyz
x,y,z
y,-x,-z
-x,-y,z
-y,x,-z
y,x,-z
-y,-x,-z
-x,y,z
x,-y,z
loop_
_atom_site_type_symbol
_atom_site_label
_atom_site_fract_x
_atom_site_fract_y
_atom_site_fract_z
Si Si1 0.288077 0.288077 0.000000
Si Si2 0.609653 0.611411 0.814637
Si Si3 0.389262 0.110162 0.931970
Si Si4 0.703467 0.387020 0.401322
Si Si5 0.612921 0.103518 0.690956
O O1 0.337910 0.330611 0.099579
O O2 0.180104 0.319476 0.010621
O O3 0.500000 0.635946 0.831168
O O4 0.619450 0.500000 0.823392
O O5 0.633449 0.644434 0.700861
O O6 0.500000 0.134022 0.949057
O O7 0.370630 0.120468 0.810863
O O8 0.377818 0.000000 0.956735
O O9 0.661035 0.338966 0.500000
O O10 0.701766 0.500000 0.415018
O O11 0.809383 0.355294 0.376192
O O12 0.500000 0.101109 0.681438
O O13 0.649049 0.000000 0.663913
#
# Coordination Sequence:
#
# PCOD9556537 Si02
#       5
#     4   8   8   8   8
#     4  12  18  27  46  65  88 116 154 190 222 264
#     4  10  19  27  37  60  92 123 149 174 210 260
#     4   9  17  29  45  66  91 118 151 190 229 268
#     4  10  18  28  41  60  88 120 150 176 212 261
#     4   8  14  27  45  62  81 108 149 193 220 247
#
# _framework density 13.441077999999999
#
# number of rings (size 3 to 8) (size 9 to 14) (size 15 to 20)
#    0.000    2.444    2.222    4.000    0.000    2.000 
#    0.000    0.000    0.000    1.667    0.000    3.111 
#    0.000    0.444    0.000    0.000    0.000    0.000 
#
# Total GULP energy -200503.881720 kJ/mol
# GULP energy per Si atom -5569.552270 kJ/mol
# Density = 1.341049 g / cm^3
# Si number density = 13.441078 Si / 1000 Ang^3
#
#
#
# Elastic Constant Matrix: (Units=GPa)
#
#
# Indices 1 2 3 4 5 6 
#
# 1 66.6145 39.0612 37.4738 0.0000 0.0000 0.0000
# 2 39.0612 66.6131 37.4740 0.0000 0.0000 0.0000
# 3 37.4738 37.4740 69.7613 0.0000 0.0000 0.0000
# 4 0.0000 0.0000 0.0000 10.8292 0.0000 0.0000
# 5 0.0000 0.0000 0.0000 0.0000 10.8294 0.0000
# 6 0.0000 0.0000 0.0000 0.0000 0.0000 14.3354
#
#
#
# Elastic Compliance Matrix: (Units=1/GPa)
#
#
# Indices 1 2 3 4 5 6 
#
# 1 0.025790 -0.010504 -0.008211 0.000000 0.000000 0.000000
# 2 -0.010504 0.025791 -0.008212 0.000000 0.000000 0.000000
# 3 -0.008211 -0.008212 0.023157 0.000000 0.000000 0.000000
# 4 0.000000 0.000000 0.000000 0.092343 0.000000 0.000000
# 5 0.000000 0.000000 0.000000 0.000000 0.092341 0.000000
# 6 0.000000 0.000000 0.000000 0.000000 0.000000 0.069758
#
#
# Mechanical properties :
#
#
# Convention : Reuss Voigt Hill
#
# Bulk Modulus (GPa) = 47.88398 47.88966 47.88682
# Shear Modulus (GPa) = 12.82065 13.13077 12.97571
#
# Velocity S-wave (km/s) = 3.09178 3.12895 3.11042
# Velocity P-wave (km/s) = 6.96046 6.98287 6.97167
#
# Compressibility (1/GPa) = 0.02088381
#
# Stress axis : x y z
#
# Youngs Moduli (GPa) = 38.77444 38.77315 43.18367
#
# Poissons Ratio (x) = 0.40726 0.35460
# Poissons Ratio (y) = 0.40727 0.35463
# Poissons Ratio (z) = 0.31840 0.31841
#
# Static dielectric constant tensor:
#      x y z
#    x 1.451100 0.000000 0.000000 
#    y 0.000000 1.451100 0.000000 
#    z 0.000000 0.000000 1.422530 
# 
# From -- ./inp_files/2729.got.cif
#   From: 2010.05.17/outbox.cif.g08.bks.cpg/sg115_2_cif.got.tgz:2729.got - 2010.05.20 11:07:42.
