data_PCOD9556621
_publ_section_title
;
Structure prediction by ZEFSAII (Michael W. Deem and Ramdas Pophale) SiO2 
 PCOD9556621
Probable space group: P -4 M 2
;
_chemical_formula_sum "Si O2"
_cell_formula_units_Z 64
_cell_length_a 14.402647
_cell_length_b 14.402647
_cell_length_c 18.058545
_cell_angle_alpha 90.000000
_cell_angle_beta 90.000000
_cell_angle_gamma 90.000000
_cell_volume 3745.996686
_symmetry_space_group_name_H-M "P -4 M 2"
_symmetry_group_IT_number 115
_symmetry_cell_setting 'tetragonal'
loop_
_space_group_symop_operation_xyz
x,y,z
y,-x,-z
-x,-y,z
-y,x,-z
y,x,-z
-y,-x,-z
-x,y,z
x,-y,z
loop_
_atom_site_type_symbol
_atom_site_label
_atom_site_fract_x
_atom_site_fract_y
_atom_site_fract_z
Si Si1 0.328263 0.784063 0.952113
Si Si2 0.737870 0.890364 0.513508
Si Si3 0.608400 0.896539 0.088402
Si Si4 0.394071 0.887034 0.646800
Si Si5 0.220698 0.387805 0.772128
Si Si6 0.107648 0.610072 0.630930
Si Si7 0.608275 0.607329 0.864686
Si Si8 0.888530 0.608190 0.183965
O O1 0.367669 0.684208 0.925952
O O2 0.326707 0.842339 0.876925
O O3 0.236340 0.763661 0.000000
O O4 0.386979 0.841161 0.011765
O O5 0.827397 0.827397 0.500000
O O6 0.680679 0.858321 0.586073
O O7 0.668619 0.881823 0.443588
O O8 0.760544 0.000000 0.521530
O O9 0.500000 0.906057 0.105796
O O10 0.648073 0.837831 0.157040
O O11 0.648581 0.000000 0.081672
O O12 0.500000 0.856671 0.629913
O O13 0.371700 0.860638 0.731420
O O14 0.395905 0.000000 0.645167
O O15 0.211720 0.500000 0.769135
O O16 0.176754 0.355763 0.695304
O O17 0.327153 0.370397 0.794074
O O18 0.122761 0.500000 0.616517
O O19 0.000000 0.619002 0.656593
O O20 0.500000 0.612027 0.847533
O O21 0.629768 0.500000 0.887945
O O22 0.862459 0.500000 0.167999
O O23 0.000000 0.613433 0.179276
#
# Coordination Sequence:
#
# PCOD9556621 Si02
#       8
#     8   8   8   8   8   8   8   8
#     4  12  22  32  44  67  98 130 171 205 248 297
#     4  10  20  33  50  77 108 138 169 201 247 306
#     4  10  19  32  49  67  91 124 163 212 265 307
#     4   8  15  31  55  80 103 126 160 211 267 314
#     4   9  17  31  48  71  98 130 169 206 250 299
#     4   9  17  31  54  79 101 126 160 211 266 307
#     4  10  21  34  46  63  97 144 181 206 236 289
#     4   9  18  33  54  77  99 127 164 211 266 313
#
# _framework density 17.084907000000001
#
# number of rings (size 3 to 8) (size 9 to 14) (size 15 to 20)
#    0.000    2.375    1.250    3.000    0.000    6.125 
#    0.000    0.625    0.000    0.750    0.000    0.000 
#    0.000    6.250    0.000    0.500    0.000    0.125 
#
# Total GULP energy -356499.632392 kJ/mol
# GULP energy per Si atom -5570.306756 kJ/mol
# Density = 1.704602 g / cm^3
# Si number density = 17.084907 Si / 1000 Ang^3
#
#
#
# Elastic Constant Matrix: (Units=GPa)
#
#
# Indices 1 2 3 4 5 6 
#
# 1 62.2425 24.1688 42.8838 0.0000 0.0000 0.0000
# 2 24.1688 62.2416 42.8836 0.0000 0.0000 0.0000
# 3 42.8838 42.8836 112.4727 0.0000 0.0000 0.0000
# 4 0.0000 0.0000 0.0000 22.0655 0.0000 0.0000
# 5 0.0000 0.0000 0.0000 0.0000 22.0657 0.0000
# 6 0.0000 0.0000 0.0000 0.0000 0.0000 16.3900
#
#
#
# Elastic Compliance Matrix: (Units=1/GPa)
#
#
# Indices 1 2 3 4 5 6 
#
# 1 0.022442 -0.003823 -0.007099 0.000000 0.000000 0.000000
# 2 -0.003823 0.022442 -0.007099 0.000000 0.000000 0.000000
# 3 -0.007099 -0.007099 0.014304 0.000000 0.000000 0.000000
# 4 0.000000 0.000000 0.000000 0.045320 0.000000 0.000000
# 5 0.000000 0.000000 0.000000 0.000000 0.045319 0.000000
# 6 0.000000 0.000000 0.000000 0.000000 0.000000 0.061013
#
#
# Mechanical properties :
#
#
# Convention : Reuss Voigt Hill
#
# Bulk Modulus (GPa) = 43.20395 50.75881 46.98138
# Shear Modulus (GPa) = 19.63884 20.57228 20.10556
#
# Velocity S-wave (km/s) = 3.39408 3.47381 3.43418
# Velocity P-wave (km/s) = 6.37984 6.77230 6.57900
#
# Compressibility (1/GPa) = 0.02314603
#
# Stress axis : x y z
#
# Youngs Moduli (GPa) = 44.55979 44.55903 69.90826
#
# Poissons Ratio (x) = 0.17036 0.49627
# Poissons Ratio (y) = 0.17036 0.49628
# Poissons Ratio (z) = 0.31633 0.31633
#
# Static dielectric constant tensor:
#      x y z
#    x 1.604400 0.000000 0.000000 
#    y 0.000000 1.604400 0.000000 
#    z 0.000000 0.000000 1.590800 
# 
# From -- ./inp_files/4462.got.cif
#   From: 2010.05.17/outbox.cif.g08.bks.cpg/sg115_3_cif.got.tgz:4462.got - 2010.05.20 11:07:42.
