data_PCOD9556053
_publ_section_title
;
Structure prediction by ZEFSAII (Michael W. Deem and Ramdas Pophale) SiO2 
 PCOD9556053
Probable space group: P -4 21 C
;
_chemical_formula_sum "Si O2"
_cell_formula_units_Z 34
_cell_length_a 11.180045
_cell_length_b 11.180045
_cell_length_c 13.759003
_cell_angle_alpha 90.000000
_cell_angle_beta 90.000000
_cell_angle_gamma 90.000000
_cell_volume 1719.784651
_symmetry_space_group_name_H-M "P -4 21 C"
_symmetry_group_IT_number 114
_symmetry_cell_setting 'tetragonal'
loop_
_space_group_symop_operation_xyz
x,y,z
y,-x,-z
-x,-y,z
-y,x,-z
1/2+x,1/2-y,1/2-z
1/2-x,1/2+y,1/2-z
1/2-y,1/2-x,1/2+z
1/2+y,1/2+x,1/2+z
loop_
_atom_site_type_symbol
_atom_site_label
_atom_site_fract_x
_atom_site_fract_y
_atom_site_fract_z
Si Si1 0.473129 0.249705 0.091295
Si Si2 0.891305 0.412879 0.250433
Si Si3 0.293374 0.156852 0.940365
Si Si4 0.500000 0.500000 0.000000
Si Si5 0.189794 0.432296 0.432474
O O1 0.442241 0.208579 0.200231
O O2 0.513442 0.383178 0.067969
O O3 0.571456 0.150630 0.059571
O O4 0.354601 0.229201 0.027727
O O5 0.821901 0.372571 0.155340
O O6 0.823982 0.485608 0.335954
O O7 0.000000 0.500000 0.221799
O O8 0.159588 0.201678 0.924615
O O9 0.298956 0.019837 0.975826
#
# Coordination Sequence:
#
# PCOD9556053 Si02
#       5
#     8   8   8   2   8
#     4  10  21  39  60  91 122 157 213 255 314 382
#     4   9  20  40  62  87 121 167 208 247 312 380
#     4  11  21  41  65  86 127 166 203 264 310 373
#     4  12  20  36  64  92 120 158 200 280 316 340
#     4  10  22  40  62  93 122 164 216 249 318 385
#
# _framework density 19.769918000000001
#
# number of rings (size 3 to 8) (size 9 to 14) (size 15 to 20)
#    0.000    1.882    2.353    3.529    0.000    2.353 
#   16.941    0.000    0.000    0.000    0.000    0.000 
#    0.000    0.000    0.000    0.000    0.000    0.000 
#
# Total GULP energy -189663.351598 kJ/mol
# GULP energy per Si atom -5578.333871 kJ/mol
# Density = 1.972492 g / cm^3
# Si number density = 19.769918 Si / 1000 Ang^3
#
#
#
# Elastic Constant Matrix: (Units=GPa)
#
#
# Indices 1 2 3 4 5 6 
#
# 1 74.8872 8.2642 14.7867 0.0000 0.0000 0.0000
# 2 8.2642 74.8872 14.7867 0.0000 0.0000 0.0000
# 3 14.7867 14.7867 39.9746 0.0000 0.0000 0.0000
# 4 0.0000 0.0000 0.0000 13.2481 0.0000 0.0000
# 5 0.0000 0.0000 0.0000 0.0000 13.2481 0.0000
# 6 0.0000 0.0000 0.0000 0.0000 0.0000 28.5239
#
#
#
# Elastic Compliance Matrix: (Units=1/GPa)
#
#
# Indices 1 2 3 4 5 6 
#
# 1 0.014429 -0.000581 -0.005122 0.000000 0.000000 0.000000
# 2 -0.000581 0.014429 -0.005122 0.000000 0.000000 0.000000
# 3 -0.005122 -0.005122 0.028805 0.000000 0.000000 0.000000
# 4 0.000000 0.000000 0.000000 0.075482 0.000000 0.000000
# 5 0.000000 0.000000 0.000000 0.000000 0.075482 0.000000
# 6 0.000000 0.000000 0.000000 0.000000 0.000000 0.035058
#
#
# Mechanical properties :
#
#
# Convention : Reuss Voigt Hill
#
# Bulk Modulus (GPa) = 27.76860 29.49158 28.63009
# Shear Modulus (GPa) = 18.02828 21.13145 19.57986
#
# Velocity S-wave (km/s) = 3.02305 3.27290 3.15046
# Velocity P-wave (km/s) = 5.12460 5.40669 5.26753
#
# Compressibility (1/GPa) = 0.03601190
#
# Stress axis : x y z
#
# Youngs Moduli (GPa) = 69.30502 69.30502 34.71560
#
# Poissons Ratio (x) = 0.04026 0.17783
# Poissons Ratio (y) = 0.04026 0.17783
# Poissons Ratio (z) = 0.35501 0.35501
#
# Static dielectric constant tensor:
#      x y z
#    x 1.714480 0.000000 0.000000 
#    y 0.000000 1.714480 0.000000 
#    z 0.000000 0.000000 1.671670 
# 
# From -- ./inp_files/1410.got.cif
#   From: 2010.05.17/outbox.cif.g08.bks.cpg/sg114_1_cif.got.tgz:1410.got - 2010.05.20 11:04:54.
