data_PCOD9556625
_publ_section_title
;
Structure prediction by ZEFSAII (Michael W. Deem and Ramdas Pophale) SiO2 
 PCOD9556625
Probable space group: P -4 M 2
;
_chemical_formula_sum "Si O2"
_cell_formula_units_Z 56
_cell_length_a 12.735746
_cell_length_b 12.735746
_cell_length_c 19.444223
_cell_angle_alpha 90.000000
_cell_angle_beta 90.000000
_cell_angle_gamma 90.000000
_cell_volume 3153.837924
_symmetry_space_group_name_H-M "P -4 M 2"
_symmetry_group_IT_number 115
_symmetry_cell_setting 'tetragonal'
loop_
_space_group_symop_operation_xyz
x,y,z
y,-x,-z
-x,-y,z
-y,x,-z
y,x,-z
-y,-x,-z
-x,y,z
x,-y,z
loop_
_atom_site_type_symbol
_atom_site_label
_atom_site_fract_x
_atom_site_fract_y
_atom_site_fract_z
Si Si1 0.122255 0.878024 0.722307
Si Si2 0.784684 0.622665 0.031885
Si Si3 0.621009 0.379462 0.282981
Si Si4 0.623418 0.113782 0.108835
Si Si5 0.270297 0.772259 0.387964
Si Si6 0.280951 0.226786 0.824074
Si Si7 0.124733 0.624677 0.480242
O O1 0.152763 0.798556 0.661111
O O2 0.208386 0.853114 0.781337
O O3 0.000000 0.862045 0.743026
O O4 0.132456 0.000000 0.701322
O O5 0.759606 0.500000 0.036877
O O6 0.815662 0.664944 0.106801
O O7 0.686289 0.686289 0.000000
O O8 0.871746 0.637423 0.972973
O O9 0.500000 0.363438 0.259091
O O10 0.628337 0.500000 0.307376
O O11 0.650112 0.296003 0.341749
O O12 0.709477 0.360548 0.224783
O O13 0.500000 0.122343 0.122463
O O14 0.684682 0.201823 0.148664
O O15 0.661437 0.000000 0.130682
O O16 0.190809 0.690724 0.424715
O O17 0.331819 0.836767 0.446055
O O18 0.145254 0.500000 0.474635
O O19 0.000000 0.641537 0.472040
#
# Coordination Sequence:
#
# PCOD9556625 Si02
#       7
#     8   8   8   8   8   8   8
#     4  10  21  36  53  73  98 130 170 213 254 297
#     4   9  18  31  47  70  98 128 163 202 246 298
#     4  10  20  33  50  73 102 134 165 197 236 287
#     4   9  17  30  48  69  93 121 155 197 245 295
#     4  10  20  35  54  75 102 134 165 201 246 295
#     4  10  19  32  50  71  97 128 164 204 248 293
#     4  10  20  34  54  79 104 130 163 203 246 293
#
# _framework density 17.756143999999999
#
# number of rings (size 3 to 8) (size 9 to 14) (size 15 to 20)
#    0.000    2.286    0.000    3.000    0.000    1.286 
#    0.000    0.000    0.000   21.857    0.000    7.000 
#    0.000    0.000    0.000    0.000    0.000    0.000 
#
# Total GULP energy -312143.955388 kJ/mol
# GULP energy per Si atom -5573.999203 kJ/mol
# Density = 1.771573 g / cm^3
# Si number density = 17.756144 Si / 1000 Ang^3
#
#
#
# Elastic Constant Matrix: (Units=GPa)
#
#
# Indices 1 2 3 4 5 6 
#
# 1 62.3134 20.4478 -5.2998 0.0000 0.0000 0.0000
# 2 20.4478 62.3134 -5.2998 0.0000 0.0000 0.0000
# 3 -5.2998 -5.2998 31.5602 0.0000 0.0000 0.0000
# 4 0.0000 0.0000 0.0000 9.2386 0.0000 0.0000
# 5 0.0000 0.0000 0.0000 0.0000 9.2386 0.0000
# 6 0.0000 0.0000 0.0000 0.0000 0.0000 26.4886
#
#
#
# Elastic Compliance Matrix: (Units=1/GPa)
#
#
# Indices 1 2 3 4 5 6 
#
# 1 0.018117 -0.005769 0.002074 0.000000 0.000000 0.000000
# 2 -0.005769 0.018117 0.002074 0.000000 0.000000 0.000000
# 3 0.002074 0.002074 0.032382 0.000000 0.000000 0.000000
# 4 0.000000 0.000000 0.000000 0.108242 0.000000 0.000000
# 5 0.000000 0.000000 0.000000 0.000000 0.108242 0.000000
# 6 0.000000 0.000000 0.000000 0.000000 0.000000 0.037752
#
#
# Mechanical properties :
#
#
# Convention : Reuss Voigt Hill
#
# Bulk Modulus (GPa) = 15.29671 19.54260 17.41966
# Shear Modulus (GPa) = 14.37252 18.74907 16.56079
#
# Velocity S-wave (km/s) = 2.84815 3.25302 3.05729
# Velocity P-wave (km/s) = 4.41016 5.01393 4.72171
#
# Compressibility (1/GPa) = 0.06537355
#
# Stress axis : x y z
#
# Youngs Moduli (GPa) = 55.19606 55.19606 30.88147
#
# Poissons Ratio (x) = 0.31841 -0.06404
# Poissons Ratio (y) = 0.31841 -0.06404
# Poissons Ratio (z) = -0.11446 -0.11446
#
# Static dielectric constant tensor:
#      x y z
#    x 1.581690 0.000000 0.000000 
#    y 0.000000 1.581690 0.000000 
#    z 0.000000 0.000000 1.610570 
# 
# From -- ./inp_files/4906.got.cif
#   From: 2010.05.17/outbox.cif.g08.bks.cpg/sg115_3_cif.got.tgz:4906.got - 2010.05.20 11:07:42.
