data_PCOD9556901
_publ_section_title
;
Structure prediction by ZEFSAII (Michael W. Deem and Ramdas Pophale) SiO2 
 PCOD9556901
Probable space group: P -4 M 2
;
_chemical_formula_sum "Si O2"
_cell_formula_units_Z 48
_cell_length_a 9.135073
_cell_length_b 9.135073
_cell_length_c 31.905794
_cell_angle_alpha 90.000000
_cell_angle_beta 90.000000
_cell_angle_gamma 90.000000
_cell_volume 2662.524430
_symmetry_space_group_name_H-M "P -4 M 2"
_symmetry_group_IT_number 115
_symmetry_cell_setting 'tetragonal'
loop_
_space_group_symop_operation_xyz
x,y,z
y,-x,-z
-x,-y,z
-y,x,-z
y,x,-z
-y,-x,-z
-x,y,z
x,-y,z
loop_
_atom_site_type_symbol
_atom_site_label
_atom_site_fract_x
_atom_site_fract_y
_atom_site_fract_z
Si Si1 0.330801 0.178187 0.369022
Si Si2 0.676490 0.170554 0.461471
Si Si3 0.173634 0.826025 0.715978
Si Si4 0.671522 0.324660 0.794119
Si Si5 0.325880 0.825502 0.960260
Si Si6 0.324758 0.826515 0.118598
O O1 0.500000 0.223173 0.363419
O O2 0.277530 0.225508 0.415117
O O3 0.237474 0.222945 0.328932
O O4 0.329720 0.000000 0.370486
O O5 0.741079 0.258921 0.500000
O O6 0.500000 0.176574 0.461820
O O7 0.719372 0.000000 0.465506
O O8 0.260119 0.753533 0.754003
O O9 0.000000 0.792073 0.720546
O O10 0.190676 0.000000 0.716594
O O11 0.500000 0.289864 0.798693
O O12 0.685596 0.500000 0.788738
O O13 0.757702 0.284840 0.836499
O O14 0.500000 0.798045 0.960215
O O15 0.253657 0.760474 0.918448
O O16 0.302756 0.000000 0.962579
O O17 0.252000 0.748001 0.000000
O O18 0.500000 0.805583 0.112695
O O19 0.295795 0.000000 0.118121
#
# Coordination Sequence:
#
# PCOD9556901 Si02
#       6
#     8   8   8   8   8   8
#     4   8  15  30  51  72  97 132 173 215 257 305
#     4   9  18  32  50  74 102 132 169 212 258 310
#     4  10  20  33  52  79 107 135 171 216 265 315
#     4  10  21  37  57  80 107 142 182 220 262 315
#     4  11  24  40  59  85 116 150 187 226 270 319
#     4  10  21  38  61  87 112 141 181 226 270 317
#
# _framework density 18.028002999999998
#
# number of rings (size 3 to 8) (size 9 to 14) (size 15 to 20)
#    0.000    2.333    0.000    3.500    0.000    8.000 
#    0.000    2.500    0.000    1.000    0.000    0.000 
#    0.000    0.000    0.000    0.000    0.000    0.000 
#
# Total GULP energy -267923.599163 kJ/mol
# GULP energy per Si atom -5581.741649 kJ/mol
# Density = 1.798697 g / cm^3
# Si number density = 18.028003 Si / 1000 Ang^3
#
#
#
# Elastic Constant Matrix: (Units=GPa)
#
#
# Indices 1 2 3 4 5 6 
#
# 1 68.1291 61.7868 83.2902 0.0000 0.0000 0.0000
# 2 61.7868 68.1272 83.2896 0.0000 0.0000 0.0000
# 3 83.2902 83.2896 204.5195 0.0000 0.0000 0.0000
# 4 0.0000 0.0000 0.0000 35.5154 0.0000 0.0000
# 5 0.0000 0.0000 0.0000 0.0000 35.5154 0.0000
# 6 0.0000 0.0000 0.0000 0.0000 0.0000 26.8841
#
#
#
# Elastic Compliance Matrix: (Units=1/GPa)
#
#
# Indices 1 2 3 4 5 6 
#
# 1 0.086900 -0.070793 -0.006560 0.000000 0.000000 0.000000
# 2 -0.070793 0.086904 -0.006561 0.000000 0.000000 0.000000
# 3 -0.006560 -0.006561 0.010233 0.000000 0.000000 0.000000
# 4 0.000000 0.000000 0.000000 0.028157 0.000000 0.000000
# 5 0.000000 0.000000 0.000000 0.000000 0.028157 0.000000
# 6 0.000000 0.000000 0.000000 0.000000 0.000000 0.037197
#
#
# Mechanical properties :
#
#
# Convention : Reuss Voigt Hill
#
# Bulk Modulus (GPa) = 61.69133 88.61212 75.15173
# Shear Modulus (GPa) = 11.09196 27.07694 19.08445
#
# Velocity S-wave (km/s) = 2.48314 3.87969 3.25714
# Velocity P-wave (km/s) = 6.52038 8.32637 7.47810
#
# Compressibility (1/GPa) = 0.01620973
#
# Stress axis : x y z
#
# Youngs Moduli (GPa) = 11.50748 11.50699 97.72333
#
# Poissons Ratio (x) = 0.81461 0.64106
# Poissons Ratio (y) = 0.81464 0.64116
# Poissons Ratio (z) = 0.07549 0.07550
#
# Static dielectric constant tensor:
#      x y z
#    x 1.603170 0.000000 0.000000 
#    y 0.000000 1.603170 0.000000 
#    z 0.000000 0.000000 1.600130 
# 
# From -- ./inp_files/6010.got.cif
#   From: 2010.05.17/outbox.cif.g08.bks.cpg/sg115_4_cif.got.tgz:6010.got - 2010.05.20 11:07:42.
