data_PCOD9556707
_publ_section_title
;
Structure prediction by ZEFSAII (Michael W. Deem and Ramdas Pophale) SiO2 
 PCOD9556707
Probable space group: P -4 M 2
;
_chemical_formula_sum "Si O2"
_cell_formula_units_Z 48
_cell_length_a 15.721603
_cell_length_b 15.721603
_cell_length_c 12.608787
_cell_angle_alpha 90.000000
_cell_angle_beta 90.000000
_cell_angle_gamma 90.000000
_cell_volume 3116.498763
_symmetry_space_group_name_H-M "P -4 M 2"
_symmetry_group_IT_number 115
_symmetry_cell_setting 'tetragonal'
loop_
_space_group_symop_operation_xyz
x,y,z
y,-x,-z
-x,-y,z
-y,x,-z
y,x,-z
-y,-x,-z
-x,y,z
x,-y,z
loop_
_atom_site_type_symbol
_atom_site_label
_atom_site_fract_x
_atom_site_fract_y
_atom_site_fract_z
Si Si1 0.243569 0.101151 0.012545
Si Si2 0.896422 0.404215 0.134033
Si Si3 0.407910 0.103929 0.399126
Si Si4 0.748491 0.899616 0.259074
Si Si5 0.164543 0.903221 0.613061
Si Si6 0.367699 0.098185 0.629340
O O1 0.322959 0.127684 0.937786
O O2 0.225554 0.000000 0.993263
O O3 0.161129 0.161129 0.000000
O O4 0.269685 0.110657 0.135417
O O5 0.871774 0.500000 0.098436
O O6 0.865964 0.390770 0.255522
O O7 0.000000 0.402426 0.134573
O O8 0.500000 0.125443 0.352738
O O9 0.328216 0.134728 0.331155
O O10 0.403391 0.135337 0.520355
O O11 0.402666 0.000000 0.402336
O O12 0.838049 0.862283 0.295956
O O13 0.754610 0.000000 0.280669
O O14 0.128938 0.871063 0.500000
O O15 0.266478 0.903023 0.612761
O O16 0.135528 0.000000 0.631601
O O17 0.397316 0.000000 0.633138
#
# Coordination Sequence:
#
# PCOD9556707 Si02
#       6
#     8   8   8   8   8   8
#     4  10  21  35  49  65  92 129 169 208 245 285
#     4   9  17  30  49  71  91 117 159 207 252 296
#     4   9  16  27  43  62  84 109 139 183 239 290
#     4  10  20  32  43  61  86 116 158 198 234 281
#     4  11  20  30  44  63  93 128 163 200 237 277
#     4   9  16  27  44  65  89 114 146 190 236 285
#
# _framework density 15.401899
#
# number of rings (size 3 to 8) (size 9 to 14) (size 15 to 20)
#    0.000    2.333    1.667    2.000    0.000    6.000 
#    0.000    5.000    0.000    0.000    0.000    0.000 
#    0.000    0.333    0.000    0.333    0.000   22.000 
#
# Total GULP energy -267258.550893 kJ/mol
# GULP energy per Si atom -5567.886477 kJ/mol
# Density = 1.536684 g / cm^3
# Si number density = 15.401899 Si / 1000 Ang^3
#
#
#
# Elastic Constant Matrix: (Units=GPa)
#
#
# Indices 1 2 3 4 5 6 
#
# 1 73.4826 26.0842 38.1761 0.0000 0.0000 0.0000
# 2 26.0842 73.4832 38.1753 0.0000 0.0000 0.0000
# 3 38.1761 38.1753 47.4808 0.0000 0.0000 0.0000
# 4 0.0000 0.0000 0.0000 5.8155 0.0000 0.0000
# 5 0.0000 0.0000 0.0000 0.0000 5.8153 0.0000
# 6 0.0000 0.0000 0.0000 0.0000 0.0000 -2.4260
#
#
#
# Elastic Compliance Matrix: (Units=1/GPa)
#
#
# Indices 1 2 3 4 5 6 
#
# 1 0.023646 0.002547 -0.021060 0.000000 0.000000 0.000000
# 2 0.002547 0.023645 -0.021059 0.000000 0.000000 0.000000
# 3 -0.021060 -0.021059 0.054926 0.000000 0.000000 0.000000
# 4 0.000000 0.000000 0.000000 0.171955 0.000000 0.000000
# 5 0.000000 0.000000 0.000000 0.000000 0.171961 0.000000
# 6 0.000000 0.000000 0.000000 0.000000 0.000000 -0.412199
#
#
# Mechanical properties :
#
#
# Convention : Reuss Voigt Hill
#
# Bulk Modulus (GPa) = 43.34054 44.36865 43.85460
# Shear Modulus (GPa) = 41.40226 7.97501 24.68864
#
# Velocity S-wave (km/s) = 5.19034 2.27798 4.00804
# Velocity P-wave (km/s) = 8.00752 5.98237 7.06785
#
# Compressibility (1/GPa) = 0.02307308
#
# Stress axis : x y z
#
# Youngs Moduli (GPa) = 42.29104 42.29302 18.20636
#
# Poissons Ratio (x) = -0.10774 0.38343
# Poissons Ratio (y) = -0.10774 0.38341
# Poissons Ratio (z) = 0.89065 0.89064
#
# Static dielectric constant tensor:
#      x y z
#    x 1.517120 0.000000 0.000000 
#    y 0.000000 1.517120 0.000000 
#    z 0.000000 0.000000 1.546030 
# 
# From -- ./inp_files/2946.got.cif
#   From: 2010.05.17/outbox.cif.g08.bks.cpg/sg115_2_cif.got.tgz:2946.got - 2010.05.20 11:07:42.
