data_PCOD9556774
_publ_section_title
;
Structure prediction by ZEFSAII (Michael W. Deem and Ramdas Pophale) SiO2 
 PCOD9556774
Probable space group: P -4 M 2
;
_chemical_formula_sum "Si O2"
_cell_formula_units_Z 44
_cell_length_a 14.974525
_cell_length_b 14.974525
_cell_length_c 11.688765
_cell_angle_alpha 90.000000
_cell_angle_beta 90.000000
_cell_angle_gamma 90.000000
_cell_volume 2621.046572
_symmetry_space_group_name_H-M "P -4 M 2"
_symmetry_group_IT_number 115
_symmetry_cell_setting 'tetragonal'
loop_
_space_group_symop_operation_xyz
x,y,z
y,-x,-z
-x,-y,z
-y,x,-z
y,x,-z
-y,-x,-z
-x,y,z
x,-y,z
loop_
_atom_site_type_symbol
_atom_site_label
_atom_site_fract_x
_atom_site_fract_y
_atom_site_fract_z
Si Si1 0.100826 0.391684 0.512667
Si Si2 0.603549 0.396452 0.500000
Si Si3 0.393183 0.747360 0.308054
Si Si4 0.765435 0.743106 0.135411
Si Si5 0.607033 0.894233 0.748462
Si Si6 0.898905 0.898094 0.139091
O O1 0.099739 0.500000 0.510045
O O2 0.168499 0.367389 0.612325
O O3 0.126461 0.365334 0.383266
O O4 0.000000 0.360917 0.534901
O O5 0.500000 0.381904 0.528827
O O6 0.623478 0.336924 0.390456
O O7 0.500000 0.751596 0.282257
O O8 0.328763 0.741454 0.200184
O O9 0.827753 0.659330 0.168904
O O10 0.823772 0.828761 0.175127
O O11 0.750299 0.750299 0.000000
O O12 0.500000 0.883316 0.757654
O O13 0.625950 0.000000 0.769107
O O14 0.000000 0.872408 0.174189
O O15 0.882329 0.000000 0.176023
O O16 0.898402 0.898402 0.000000
#
# Coordination Sequence:
#
# PCOD9556774 Si02
#       6
#     8   4   8   8   8   8
#     4   8  15  30  52  75  97 123 160 209 261 305
#     4   9  18  34  56  76  90 113 160 218 264 297
#     4  10  20  33  49  72 102 133 165 204 251 300
#     4  11  22  32  47  72 104 141 175 203 236 291
#     4   9  18  34  56  78  98 124 163 213 264 306
#     4   8  15  30  50  68  88 119 163 211 247 275
#
# _framework density 16.787186999999999
#
# number of rings (size 3 to 8) (size 9 to 14) (size 15 to 20)
#    0.000    2.818    0.000    3.273    0.000    4.364 
#    0.000    0.000    0.000    2.182    0.000    1.273 
#    0.000   11.636    0.000    0.000    0.000    0.000 
#
# Total GULP energy -245148.965787 kJ/mol
# GULP energy per Si atom -5571.567404 kJ/mol
# Density = 1.674898 g / cm^3
# Si number density = 16.787187 Si / 1000 Ang^3
#
#
#
# Elastic Constant Matrix: (Units=GPa)
#
#
# Indices 1 2 3 4 5 6 
#
# 1 95.5409 41.7167 55.5731 0.0000 0.0000 0.0000
# 2 41.7167 95.5369 55.5735 0.0000 0.0000 0.0000
# 3 55.5731 55.5735 89.8099 0.0000 0.0000 0.0000
# 4 0.0000 0.0000 0.0000 -302.0270 0.0000 0.0000
# 5 0.0000 0.0000 0.0000 0.0000 -301.3436 0.0000
# 6 0.0000 0.0000 0.0000 0.0000 0.0000 26.8298
#
#
#
# Elastic Compliance Matrix: (Units=1/GPa)
#
#
# Indices 1 2 3 4 5 6 
#
# 1 0.016591 -0.001988 -0.009036 0.000000 0.000000 0.000000
# 2 -0.001988 0.016592 -0.009037 0.000000 0.000000 0.000000
# 3 -0.009036 -0.009037 0.022318 0.000000 0.000000 0.000000
# 4 0.000000 0.000000 0.000000 -0.003311 0.000000 0.000000
# 5 0.000000 0.000000 0.000000 0.000000 -0.003318 0.000000
# 6 0.000000 0.000000 0.000000 0.000000 0.000000 0.037272
#
#
# Mechanical properties :
#
#
# Convention : Reuss Voigt Hill
#
# Bulk Modulus (GPa) = 65.02417 65.17937 65.10177
# Shear Modulus (GPa) = 38.05457 -106.77320 -34.35931
#
# Velocity S-wave (km/s) = 4.76634 -7.98386 -4.52902
# Velocity P-wave (km/s) = 8.31319 6.78810 3.39344
#
# Compressibility (1/GPa) = 0.01537890
#
# Stress axis : x y z
#
# Youngs Moduli (GPa) = 60.27474 60.27031 44.80780
#
# Poissons Ratio (x) = 0.11984 0.40487
# Poissons Ratio (y) = 0.11985 0.40491
# Poissons Ratio (z) = 0.54463 0.54464
#
# Static dielectric constant tensor:
#      x y z
#    x 1.685590 0.000000 0.000000 
#    y 0.000000 1.685820 0.000000 
#    z 0.000000 0.000000 1.542810 
# 
# From -- ./inp_files/2804.got.cif
#   From: 2010.05.17/outbox.cif.g08.bks.cpg/sg115_2_cif.got.tgz:2804.got - 2010.05.20 11:07:42.
