data_PCOD9556955
_publ_section_title
;
Structure prediction by ZEFSAII (Michael W. Deem and Ramdas Pophale) SiO2 
 PCOD9556955
Probable space group: P -4 M 2
;
_chemical_formula_sum "Si O2"
_cell_formula_units_Z 40
_cell_length_a 9.029610
_cell_length_b 9.029610
_cell_length_c 26.485722
_cell_angle_alpha 90.000000
_cell_angle_beta 90.000000
_cell_angle_gamma 90.000000
_cell_volume 2159.483064
_symmetry_space_group_name_H-M "P -4 M 2"
_symmetry_group_IT_number 115
_symmetry_cell_setting 'tetragonal'
loop_
_space_group_symop_operation_xyz
x,y,z
y,-x,-z
-x,-y,z
-y,x,-z
y,x,-z
-y,-x,-z
-x,y,z
x,-y,z
loop_
_atom_site_type_symbol
_atom_site_label
_atom_site_fract_x
_atom_site_fract_y
_atom_site_fract_z
Si Si1 0.177994 0.324860 0.256527
Si Si2 0.822798 0.675224 0.048402
Si Si3 0.323711 0.824049 0.353568
Si Si4 0.676358 0.823657 0.548863
Si Si5 0.819757 0.829535 0.152309
O O1 0.207141 0.500000 0.258153
O O2 0.258319 0.243188 0.302248
O O3 0.224974 0.257879 0.202586
O O4 0.000000 0.303888 0.261496
O O5 0.797477 0.500000 0.051754
O O6 0.772424 0.752821 0.100295
O O7 0.000000 0.699588 0.043359
O O8 0.743221 0.743221 0.000000
O O9 0.500000 0.799696 0.355947
O O10 0.246157 0.746396 0.401009
O O11 0.296238 0.000000 0.355269
O O12 0.749889 0.749889 0.500000
O O13 0.500000 0.798188 0.548317
O O14 0.701872 0.000000 0.548191
O O15 0.000000 0.827796 0.151892
O O16 0.771648 0.000000 0.154433
#
# Coordination Sequence:
#
# PCOD9556955 Si02
#       5
#     8   8   8   8   8
#     4  10  20  35  57  85 115 147 185 229 278 333
#     4  10  20  34  53  78 108 142 181 226 275 328
#     4  11  24  40  58  83 115 151 192 235 278 328
#     4  11  24  41  62  89 118 149 188 232 279 333
#     4   9  17  31  54  82 110 142 181 226 276 329
#
# _framework density 18.522953000000001
#
# number of rings (size 3 to 8) (size 9 to 14) (size 15 to 20)
#    0.000    1.800    0.000    4.200    0.000   12.800 
#    0.000    1.000    0.000    6.000    0.000    0.000 
#    0.000    0.000    0.000    0.000    0.000    0.000 
#
# Total GULP energy -223551.603328 kJ/mol
# GULP energy per Si atom -5588.790083 kJ/mol
# Density = 1.848079 g / cm^3
# Si number density = 18.522953 Si / 1000 Ang^3
#
#
#
# Elastic Constant Matrix: (Units=GPa)
#
#
# Indices 1 2 3 4 5 6 
#
# 1 102.0394 93.9139 96.6563 0.0000 0.0000 0.0000
# 2 93.9139 102.0394 96.6563 0.0000 0.0000 0.0000
# 3 96.6563 96.6563 220.0005 0.0000 0.0000 0.0000
# 4 0.0000 0.0000 0.0000 296.0533 0.0000 0.0000
# 5 0.0000 0.0000 0.0000 0.0000 296.0533 0.0000
# 6 0.0000 0.0000 0.0000 0.0000 0.0000 25.8123
#
#
#
# Elastic Compliance Matrix: (Units=1/GPa)
#
#
# Indices 1 2 3 4 5 6 
#
# 1 0.066038 -0.057031 -0.003957 0.000000 0.000000 0.000000
# 2 -0.057031 0.066038 -0.003957 0.000000 0.000000 0.000000
# 3 -0.003957 -0.003957 0.008023 0.000000 0.000000 0.000000
# 4 0.000000 0.000000 0.000000 0.003378 0.000000 0.000000
# 5 0.000000 0.000000 0.000000 0.000000 0.003378 0.000000
# 6 0.000000 0.000000 0.000000 0.000000 0.000000 0.038741
#
#
# Mechanical properties :
#
#
# Convention : Reuss Voigt Hill
#
# Bulk Modulus (GPa) = 97.96266 110.94802 104.45534
# Shear Modulus (GPa) = 15.67939 132.70732 74.19336
#
# Velocity S-wave (km/s) = 2.91260 8.47351 6.33575
# Velocity P-wave (km/s) = 8.01954 12.48044 10.48986
#
# Compressibility (1/GPa) = 0.01020797
#
# Stress axis : x y z
#
# Youngs Moduli (GPa) = 15.14273 15.14273 124.64685
#
# Poissons Ratio (x) = 0.86361 0.49326
# Poissons Ratio (y) = 0.86361 0.49326
# Poissons Ratio (z) = 0.05992 0.05992
#
# Static dielectric constant tensor:
#      x y z
#    x 1.618810 0.000000 0.000000 
#    y 0.000000 1.618810 0.000000 
#    z 0.000000 0.000000 1.600090 
# 
# From -- ./inp_files/5066.got.cif
#   From: 2010.05.17/outbox.cif.g08.bks.cpg/sg115_3_cif.got.tgz:5066.got - 2010.05.20 11:07:42.
