data_PCOD9556961
_publ_section_title
;
Structure prediction by ZEFSAII (Michael W. Deem and Ramdas Pophale) SiO2 
 PCOD9556961
Probable space group: P -4 M 2
;
_chemical_formula_sum "Si O2"
_cell_formula_units_Z 40
_cell_length_a 9.235757
_cell_length_b 9.235757
_cell_length_c 26.609364
_cell_angle_alpha 90.000000
_cell_angle_beta 90.000000
_cell_angle_gamma 90.000000
_cell_volume 2269.757658
_symmetry_space_group_name_H-M "P -4 M 2"
_symmetry_group_IT_number 115
_symmetry_cell_setting 'tetragonal'
loop_
_space_group_symop_operation_xyz
x,y,z
y,-x,-z
-x,-y,z
-y,x,-z
y,x,-z
-y,-x,-z
-x,y,z
x,-y,z
loop_
_atom_site_type_symbol
_atom_site_label
_atom_site_fract_x
_atom_site_fract_y
_atom_site_fract_z
Si Si1 0.826410 0.329053 0.397665
Si Si2 0.327863 0.672138 0.500000
Si Si3 0.166493 0.823631 0.703191
Si Si4 0.671787 0.328214 0.000000
Si Si5 0.825473 0.330134 0.195288
Si Si6 0.170248 0.673769 0.896863
O O1 0.794873 0.500000 0.390551
O O2 0.752654 0.280405 0.449388
O O3 0.777162 0.241554 0.348645
O O4 0.000000 0.314201 0.402182
O O5 0.500000 0.696178 0.494141
O O6 0.255170 0.779293 0.752515
O O7 0.000000 0.776731 0.706156
O O8 0.168094 0.000000 0.702712
O O9 0.714152 0.240332 0.049601
O O10 0.500000 0.305994 0.991030
O O11 0.789757 0.500000 0.195814
O O12 0.752442 0.251474 0.148384
O O13 0.000000 0.316778 0.191510
O O14 0.187094 0.500000 0.891533
O O15 0.000000 0.707663 0.896047
#
# Coordination Sequence:
#
# PCOD9556961 Si02
#       6
#     8   4   8   4   8   8
#     4   9  17  30  48  68  91 122 160 199 240 291
#     4   9  18  32  48  67  94 126 158 195 242 294
#     4   9  17  30  49  73 100 129 163 206 253 298
#     4   9  18  34  54  73  98 136 176 209 246 299
#     4  10  20  34  54  78 103 135 175 214 253 303
#     4  10  21  36  54  78 108 138 169 210 258 304
#
# _framework density 17.623024999999998
#
# number of rings (size 3 to 8) (size 9 to 14) (size 15 to 20)
#    0.000    2.600    0.000    1.800    0.000    6.400 
#    0.000    3.000    0.000    3.600    0.000    0.000 
#    0.000    0.000    0.000    0.000    0.000    0.000 
#
# Total GULP energy -223152.589038 kJ/mol
# GULP energy per Si atom -5578.814726 kJ/mol
# Density = 1.758291 g / cm^3
# Si number density = 17.623025 Si / 1000 Ang^3
#
#
#
# Elastic Constant Matrix: (Units=GPa)
#
#
# Indices 1 2 3 4 5 6 
#
# 1 66.2536 49.5061 88.9952 0.0000 0.0000 0.0000
# 2 49.5061 66.2539 88.9953 0.0000 0.0000 0.0000
# 3 88.9952 88.9953 224.4872 0.0000 0.0000 0.0000
# 4 0.0000 0.0000 0.0000 38.1787 0.0000 0.0000
# 5 0.0000 0.0000 0.0000 0.0000 38.1786 0.0000
# 6 0.0000 0.0000 0.0000 0.0000 0.0000 20.2633
#
#
#
# Elastic Compliance Matrix: (Units=1/GPa)
#
#
# Indices 1 2 3 4 5 6 
#
# 1 0.040918 -0.018792 -0.008771 0.000000 0.000000 0.000000
# 2 -0.018792 0.040917 -0.008771 0.000000 0.000000 0.000000
# 3 -0.008771 -0.008771 0.011409 0.000000 0.000000 0.000000
# 4 0.000000 0.000000 0.000000 0.026193 0.000000 0.000000
# 5 0.000000 0.000000 0.000000 0.000000 0.026193 0.000000
# 6 0.000000 0.000000 0.000000 0.000000 0.000000 0.049350
#
#
# Mechanical properties :
#
#
# Convention : Reuss Voigt Hill
#
# Bulk Modulus (GPa) = 48.60425 90.22088 69.41256
# Shear Modulus (GPa) = 18.21443 27.95732 23.08587
#
# Velocity S-wave (km/s) = 3.21839 3.98730 3.62330
# Velocity P-wave (km/s) = 6.43821 8.51493 7.54833
#
# Compressibility (1/GPa) = 0.02057433
#
# Stress axis : x y z
#
# Youngs Moduli (GPa) = 24.43933 24.43951 87.64954
#
# Poissons Ratio (x) = 0.45928 0.76880
# Poissons Ratio (y) = 0.45928 0.76879
# Poissons Ratio (z) = 0.21436 0.21436
#
# Static dielectric constant tensor:
#      x y z
#    x 1.591280 0.000000 0.000000 
#    y 0.000000 1.591280 0.000000 
#    z 0.000000 0.000000 1.572080 
# 
# From -- ./inp_files/5533.got.cif
#   From: 2010.05.17/outbox.cif.g08.bks.cpg/sg115_3_cif.got.tgz:5533.got - 2010.05.20 11:07:42.
