data_PCOD9556123
_publ_section_title
;
Structure prediction by ZEFSAII (Michael W. Deem and Ramdas Pophale) SiO2 
 PCOD9556123
Probable space group: P -4 21 C
;
_chemical_formula_sum "Si O2"
_cell_formula_units_Z 26
_cell_length_a 13.620801
_cell_length_b 13.620801
_cell_length_c 5.349510
_cell_angle_alpha 90.000000
_cell_angle_beta 90.000000
_cell_angle_gamma 90.000000
_cell_volume 992.474369
_symmetry_space_group_name_H-M "P -4 21 C"
_symmetry_group_IT_number 114
_symmetry_cell_setting 'tetragonal'
loop_
_space_group_symop_operation_xyz
x,y,z
y,-x,-z
-x,-y,z
-y,x,-z
1/2+x,1/2-y,1/2-z
1/2-x,1/2+y,1/2-z
1/2-y,1/2-x,1/2+z
1/2+y,1/2+x,1/2+z
loop_
_atom_site_type_symbol
_atom_site_label
_atom_site_fract_x
_atom_site_fract_y
_atom_site_fract_z
Si Si1 0.498914 0.710769 0.146820
Si Si2 0.000000 0.000000 0.500000
Si Si3 0.819658 0.231771 0.649072
Si Si4 0.890879 0.548658 0.559245
O O1 0.564806 0.742394 0.911536
O O2 0.382784 0.703994 0.124682
O O3 0.515098 0.798310 0.348072
O O4 0.525730 0.594676 0.172766
O O5 0.786345 0.267334 0.918895
O O6 0.094200 0.375610 0.787976
O O7 0.000000 0.500000 0.535849
#
# Coordination Sequence:
#
# PCOD9556123 Si02
#       4
#     8   2   8   8
#     4  10  22  44  68  96 139 169 238 266 338 400
#     4   8  20  44  68  94 124 194 212 290 308 394
#     4  11  26  43  70 100 133 184 221 284 336 399
#     4  10  22  36  62  96 130 167 203 268 331 388
#
# _framework density 26.197149
#
# number of rings (size 3 to 8) (size 9 to 14) (size 15 to 20)
#    0.000    1.846    0.000    1.846    8.615    2.462 
#    0.000    0.000    0.000   20.308    0.000    0.000 
#    0.000    0.000    0.000    0.000    0.000    0.000 
#
# Total GULP energy -145145.993474 kJ/mol
# GULP energy per Si atom -5582.538211 kJ/mol
# Density = 2.613752 g / cm^3
# Si number density = 26.197149 Si / 1000 Ang^3
#
#
#
# Elastic Constant Matrix: (Units=GPa)
#
#
# Indices 1 2 3 4 5 6 
#
# 1 129.0701 42.9871 28.3257 0.0000 0.0000 0.0000
# 2 42.9871 129.0701 28.3257 0.0000 0.0000 0.0000
# 3 28.3257 28.3257 99.7854 0.0000 0.0000 0.0000
# 4 0.0000 0.0000 0.0000 11.6202 0.0000 0.0000
# 5 0.0000 0.0000 0.0000 0.0000 11.6202 0.0000
# 6 0.0000 0.0000 0.0000 0.0000 0.0000 29.7367
#
#
#
# Elastic Compliance Matrix: (Units=1/GPa)
#
#
# Indices 1 2 3 4 5 6 
#
# 1 0.009014 -0.002603 -0.001820 0.000000 0.000000 0.000000
# 2 -0.002603 0.009014 -0.001820 0.000000 0.000000 0.000000
# 3 -0.001820 -0.001820 0.011055 0.000000 0.000000 0.000000
# 4 0.000000 0.000000 0.000000 0.086057 0.000000 0.000000
# 5 0.000000 0.000000 0.000000 0.000000 0.086057 0.000000
# 6 0.000000 0.000000 0.000000 0.000000 0.000000 0.033628
#
#
# Mechanical properties :
#
#
# Convention : Reuss Voigt Hill
#
# Bulk Modulus (GPa) = 60.25003 61.91138 61.08071
# Shear Modulus (GPa) = 19.77512 27.81456 23.79484
#
# Velocity S-wave (km/s) = 2.75045 3.26197 3.01707
# Velocity P-wave (km/s) = 5.75632 6.15398 5.95847
#
# Compressibility (1/GPa) = 0.01659750
#
# Stress axis : x y z
#
# Youngs Moduli (GPa) = 110.93881 110.93881 90.45893
#
# Poissons Ratio (x) = 0.28874 0.16463
# Poissons Ratio (y) = 0.28874 0.16463
# Poissons Ratio (z) = 0.20190 0.20190
#
# Static dielectric constant tensor:
#      x y z
#    x 2.311170 0.000000 0.000000 
#    y 0.000000 2.311170 0.000000 
#    z 0.000000 0.000000 2.024900 
# 
# From -- ./inp_files/522.got.cif
#   From: 2010.05.17/outbox.cif.g08.bks.cpg/sg114_1_cif.got.tgz:522.got - 2010.05.20 11:04:54.
