data_PCOD9556853
_publ_section_title
;
Structure prediction by ZEFSAII (Michael W. Deem and Ramdas Pophale) SiO2 
 PCOD9556853
Probable space group: P -4 M 2
;
_chemical_formula_sum "Si O2"
_cell_formula_units_Z 48
_cell_length_a 9.216152
_cell_length_b 9.216152
_cell_length_c 31.589097
_cell_angle_alpha 90.000000
_cell_angle_beta 90.000000
_cell_angle_gamma 90.000000
_cell_volume 2683.097590
_symmetry_space_group_name_H-M "P -4 M 2"
_symmetry_group_IT_number 115
_symmetry_cell_setting 'tetragonal'
loop_
_space_group_symop_operation_xyz
x,y,z
y,-x,-z
-x,-y,z
-y,x,-z
y,x,-z
-y,-x,-z
-x,y,z
x,-y,z
loop_
_atom_site_type_symbol
_atom_site_label
_atom_site_fract_x
_atom_site_fract_y
_atom_site_fract_z
Si Si1 0.171989 0.172116 0.049284
Si Si2 0.829909 0.674439 0.461168
Si Si3 0.666852 0.323595 0.376747
Si Si4 0.325558 0.327631 0.281535
Si Si5 0.672089 0.672368 0.125324
Si Si6 0.172408 0.827432 0.203775
O O1 0.265155 0.264666 0.081688
O O2 0.000000 0.197956 0.056171
O O3 0.197025 0.000000 0.056128
O O4 0.203684 0.203684 0.000000
O O5 0.747751 0.747751 0.500000
O O6 0.811204 0.500000 0.463935
O O7 0.763826 0.722986 0.416120
O O8 0.000000 0.706645 0.462938
O O9 0.500000 0.277571 0.383274
O O10 0.666875 0.500000 0.376208
O O11 0.713917 0.280725 0.329454
O O12 0.500000 0.310529 0.277266
O O13 0.295107 0.500000 0.276958
O O14 0.242611 0.239026 0.245983
O O15 0.500000 0.698797 0.128214
O O16 0.696698 0.500000 0.127847
O O17 0.753132 0.751586 0.163690
O O18 0.000000 0.800945 0.203099
O O19 0.196611 0.000000 0.201984
#
# Coordination Sequence:
#
# PCOD9556853 Si02
#       6
#     8   8   8   8   8   8
#     4   9  19  37  60  85 113 145 181 220 263 315
#     4  10  20  33  51  76 104 136 176 218 261 312
#     4   8  15  30  53  79 105 134 170 214 261 309
#     4   9  18  34  57  84 110 135 169 214 263 316
#     4  11  24  39  56  81 111 142 180 226 271 315
#     4  11  24  39  55  78 108 142 181 221 262 314
#
# _framework density 17.889772000000001
#
# number of rings (size 3 to 8) (size 9 to 14) (size 15 to 20)
#    0.000    2.333    0.000    4.000    0.000    9.667 
#    0.000    5.000    0.000    1.000    0.000    0.000 
#    0.000    0.000    0.000    0.000    0.000    0.000 
#
# Total GULP energy -267951.727278 kJ/mol
# GULP energy per Si atom -5582.327652 kJ/mol
# Density = 1.784905 g / cm^3
# Si number density = 17.889772 Si / 1000 Ang^3
#
#
#
# Elastic Constant Matrix: (Units=GPa)
#
#
# Indices 1 2 3 4 5 6 
#
# 1 78.8537 76.3701 90.0354 0.0000 0.0000 0.0000
# 2 76.3701 78.8537 90.0354 0.0000 0.0000 0.0000
# 3 90.0354 90.0354 164.2904 0.0000 0.0000 0.0000
# 4 0.0000 0.0000 0.0000 115.1087 0.0000 0.0000
# 5 0.0000 0.0000 0.0000 0.0000 115.1087 0.0000
# 6 0.0000 0.0000 0.0000 0.0000 0.0000 28.6640
#
#
#
# Elastic Compliance Matrix: (Units=1/GPa)
#
#
# Indices 1 2 3 4 5 6 
#
# 1 0.210165 -0.192479 -0.009693 0.000000 0.000000 0.000000
# 2 -0.192479 0.210165 -0.009693 0.000000 0.000000 0.000000
# 3 -0.009693 -0.009693 0.016710 0.000000 0.000000 0.000000
# 4 0.000000 0.000000 0.000000 0.008687 0.000000 0.000000
# 5 0.000000 0.000000 0.000000 0.000000 0.008687 0.000000
# 6 0.000000 0.000000 0.000000 0.000000 0.000000 0.034887
#
#
# Mechanical properties :
#
#
# Convention : Reuss Voigt Hill
#
# Bulk Modulus (GPa) = 75.11565 92.76439 83.94002
# Shear Modulus (GPa) = 5.44978 56.14674 30.79826
#
# Velocity S-wave (km/s) = 1.74726 5.60829 4.15367
# Velocity P-wave (km/s) = 6.79336 9.69036 8.36818
#
# Compressibility (1/GPa) = 0.01331281
#
# Stress axis : x y z
#
# Youngs Moduli (GPa) = 4.75816 4.75816 59.84276
#
# Poissons Ratio (x) = 0.91584 0.58004
# Poissons Ratio (y) = 0.91584 0.58004
# Poissons Ratio (z) = 0.04612 0.04612
#
# Static dielectric constant tensor:
#      x y z
#    x 1.592060 0.000000 0.000000 
#    y 0.000000 1.592060 0.000000 
#    z 0.000000 0.000000 1.599780 
# 
# From -- ./inp_files/5940.got.cif
#   From: 2010.05.17/outbox.cif.g08.bks.cpg/sg115_3_cif.got.tgz:5940.got - 2010.05.20 11:07:42.
