data_PCOD9556939
_publ_section_title
;
Structure prediction by ZEFSAII (Michael W. Deem and Ramdas Pophale) SiO2 
 PCOD9556939
Probable space group: P -4 M 2
;
_chemical_formula_sum "Si O2"
_cell_formula_units_Z 48
_cell_length_a 9.171135
_cell_length_b 9.171135
_cell_length_c 31.809200
_cell_angle_alpha 90.000000
_cell_angle_beta 90.000000
_cell_angle_gamma 90.000000
_cell_volume 2675.462816
_symmetry_space_group_name_H-M "P -4 M 2"
_symmetry_group_IT_number 115
_symmetry_cell_setting 'tetragonal'
loop_
_space_group_symop_operation_xyz
x,y,z
y,-x,-z
-x,-y,z
-y,x,-z
y,x,-z
-y,-x,-z
-x,y,z
x,-y,z
loop_
_atom_site_type_symbol
_atom_site_label
_atom_site_fract_x
_atom_site_fract_y
_atom_site_fract_z
Si Si1 0.825035 0.829677 0.124714
Si Si2 0.675410 0.328933 0.047571
Si Si3 0.677420 0.332130 0.374848
Si Si4 0.325287 0.827252 0.460754
Si Si5 0.675780 0.171180 0.289343
Si Si6 0.175349 0.328801 0.211034
O O1 0.750024 0.763932 0.083662
O O2 0.780915 0.742601 0.166642
O O3 0.000000 0.815742 0.120483
O O4 0.789802 0.000000 0.129644
O O5 0.500000 0.317736 0.050413
O O6 0.713267 0.500000 0.052782
O O7 0.716197 0.283804 0.000000
O O8 0.500000 0.332002 0.374681
O O9 0.725946 0.500000 0.374857
O O10 0.721509 0.249477 0.417300
O O11 0.723055 0.249133 0.332580
O O12 0.243807 0.756193 0.500000
O O13 0.500000 0.804742 0.465550
O O14 0.299244 0.000000 0.458467
O O15 0.500000 0.184625 0.286269
O O16 0.748682 0.247672 0.249558
O O17 0.711420 0.000000 0.290584
O O18 0.211100 0.500000 0.211453
O O19 0.000000 0.313754 0.214811
#
# Coordination Sequence:
#
# PCOD9556939 Si02
#       6
#     8   8   8   8   8   8
#     4  10  21  36  54  77 105 137 174 216 262 313
#     4   9  19  36  56  78 105 137 173 213 258 309
#     4   9  17  31  53  79 106 137 174 216 261 310
#     4  10  20  34  53  77 105 137 173 214 260 310
#     4  10  20  34  54  81 111 141 174 215 264 316
#     4  10  21  37  56  77 103 139 181 221 263 313
#
# _framework density 17.940819999999999
#
# number of rings (size 3 to 8) (size 9 to 14) (size 15 to 20)
#    0.000    2.333    0.000    3.000    0.000    7.667 
#    0.000    3.333    0.000    5.000    0.000    0.000 
#    0.000    0.000    0.000    0.000    0.000    0.000 
#
# Total GULP energy -267963.539638 kJ/mol
# GULP energy per Si atom -5582.573742 kJ/mol
# Density = 1.789999 g / cm^3
# Si number density = 17.940820 Si / 1000 Ang^3
#
#
#
# Elastic Constant Matrix: (Units=GPa)
#
#
# Indices 1 2 3 4 5 6 
#
# 1 81.2416 59.6746 89.2621 0.0000 0.0000 0.0000
# 2 59.6746 81.2418 89.2622 0.0000 0.0000 0.0000
# 3 89.2621 89.2622 211.4910 0.0000 0.0000 0.0000
# 4 0.0000 0.0000 0.0000 195.1225 0.0000 0.0000
# 5 0.0000 0.0000 0.0000 0.0000 195.1361 0.0000
# 6 0.0000 0.0000 0.0000 0.0000 0.0000 26.1697
#
#
#
# Elastic Compliance Matrix: (Units=1/GPa)
#
#
# Indices 1 2 3 4 5 6 
#
# 1 0.030809 -0.015558 -0.006437 0.000000 0.000000 0.000000
# 2 -0.015558 0.030809 -0.006437 0.000000 0.000000 0.000000
# 3 -0.006437 -0.006437 0.010162 0.000000 0.000000 0.000000
# 4 0.000000 0.000000 0.000000 0.005125 0.000000 0.000000
# 5 0.000000 0.000000 0.000000 0.000000 0.005125 0.000000
# 6 0.000000 0.000000 0.000000 0.000000 0.000000 0.038212
#
#
# Mechanical properties :
#
#
# Convention : Reuss Voigt Hill
#
# Bulk Modulus (GPa) = 67.03930 94.48578 80.76254
# Shear Modulus (GPa) = 27.46083 92.33736 59.89909
#
# Velocity S-wave (km/s) = 3.91658 7.18189 5.78442
# Velocity P-wave (km/s) = 7.60926 11.02507 9.47241
#
# Compressibility (1/GPa) = 0.01491662
#
# Stress axis : x y z
#
# Youngs Moduli (GPa) = 32.45794 32.45799 98.40637
#
# Poissons Ratio (x) = 0.50497 0.63344
# Poissons Ratio (y) = 0.50497 0.63344
# Poissons Ratio (z) = 0.20893 0.20893
#
# Static dielectric constant tensor:
#      x y z
#    x 1.598000 0.000000 0.000000 
#    y 0.000000 1.598000 0.000000 
#    z 0.000000 0.000000 1.580740 
# 
# From -- ./inp_files/6003.got.cif
#   From: 2010.05.17/outbox.cif.g08.bks.cpg/sg115_4_cif.got.tgz:6003.got - 2010.05.20 11:07:42.
