data_PCOD9556821
_publ_section_title
;
Structure prediction by ZEFSAII (Michael W. Deem and Ramdas Pophale) SiO2 
 PCOD9556821
Probable space group: P -4 M 2
;
_chemical_formula_sum "Si O2"
_cell_formula_units_Z 64
_cell_length_a 15.101565
_cell_length_b 15.101565
_cell_length_c 16.231026
_cell_angle_alpha 90.000000
_cell_angle_beta 90.000000
_cell_angle_gamma 90.000000
_cell_volume 3701.603405
_symmetry_space_group_name_H-M "P -4 M 2"
_symmetry_group_IT_number 115
_symmetry_cell_setting 'tetragonal'
loop_
_space_group_symop_operation_xyz
x,y,z
y,-x,-z
-x,-y,z
-y,x,-z
y,x,-z
-y,-x,-z
-x,y,z
x,-y,z
loop_
_atom_site_type_symbol
_atom_site_label
_atom_site_fract_x
_atom_site_fract_y
_atom_site_fract_z
Si Si1 0.598255 0.797419 0.872609
Si Si2 0.224597 0.101114 0.608501
Si Si3 0.899989 0.759962 0.194902
Si Si4 0.399164 0.106828 0.507654
Si Si5 0.266489 0.893963 0.368699
Si Si6 0.402804 0.369581 0.096446
Si Si7 0.163246 0.400673 0.934492
Si Si8 0.898408 0.756021 0.822330
O O1 0.500000 0.827600 0.851827
O O2 0.670052 0.847401 0.819967
O O3 0.601146 0.690529 0.865459
O O4 0.616035 0.823521 0.968139
O O5 0.225860 0.094916 0.707332
O O6 0.321850 0.127234 0.574064
O O7 0.154678 0.180160 0.593786
O O8 0.204355 0.000000 0.577946
O O9 0.838672 0.836208 0.156592
O O10 0.000000 0.757405 0.161872
O O11 0.500000 0.140705 0.519406
O O12 0.353484 0.132101 0.420630
O O13 0.405659 0.000000 0.508485
O O14 0.273816 0.873900 0.271220
O O15 0.255761 0.000000 0.376251
O O16 0.500000 0.398566 0.127599
O O17 0.401322 0.263390 0.099524
O O18 0.396910 0.396910 0.000000
O O19 0.125622 0.500000 0.924187
O O20 0.113491 0.324106 0.886002
O O21 0.000000 0.784323 0.820215
#
# Coordination Sequence:
#
# PCOD9556821 Si02
#       8
#     8   8   8   8   8   8   8   8
#     4  10  20  33  51  74  98 127 164 204 251 304
#     4   9  18  32  51  73  98 129 162 199 244 291
#     4  10  21  36  51  69  97 130 167 213 253 287
#     4   9  17  30  48  71 100 130 158 188 225 276
#     4   9  18  31  49  75 102 127 159 199 243 291
#     4   9  16  28  48  73  99 124 153 194 247 306
#     4   9  18  32  50  72  99 130 162 199 248 305
#     4  10  20  34  52  72  97 130 166 205 250 298
#
# _framework density 17.289805999999999
#
# number of rings (size 3 to 8) (size 9 to 14) (size 15 to 20)
#    0.000    2.625    1.250    1.500    0.000    3.375 
#    0.000    6.250    0.000    2.250    0.000    1.750 
#    0.000    4.000    0.000    0.000    0.000    0.000 
#
# Total GULP energy -356306.806749 kJ/mol
# GULP energy per Si atom -5567.293855 kJ/mol
# Density = 1.725045 g / cm^3
# Si number density = 17.289806 Si / 1000 Ang^3
#
#
#
# Elastic Constant Matrix: (Units=GPa)
#
#
# Indices 1 2 3 4 5 6 
#
# 1 61.3039 27.8502 4.7837 0.0000 0.0000 0.0000
# 2 27.8502 61.3039 4.7837 0.0000 0.0000 0.0000
# 3 4.7837 4.7837 7.2189 0.0000 0.0000 0.0000
# 4 0.0000 0.0000 0.0000 17.8244 0.0000 0.0000
# 5 0.0000 0.0000 0.0000 0.0000 17.8244 0.0000
# 6 0.0000 0.0000 0.0000 0.0000 0.0000 2.0739
#
#
#
# Elastic Compliance Matrix: (Units=1/GPa)
#
#
# Indices 1 2 3 4 5 6 
#
# 1 0.020984 -0.008908 -0.008002 0.000000 0.000000 0.000000
# 2 -0.008908 0.020984 -0.008002 0.000000 0.000000 0.000000
# 3 -0.008002 -0.008002 0.149131 0.000000 0.000000 0.000000
# 4 0.000000 0.000000 0.000000 0.056103 0.000000 0.000000
# 5 0.000000 0.000000 0.000000 0.000000 0.056103 0.000000
# 6 0.000000 0.000000 0.000000 0.000000 0.000000 0.482190
#
#
# Mechanical properties :
#
#
# Convention : Reuss Voigt Hill
#
# Bulk Modulus (GPa) = 7.07843 22.74021 14.90932
# Shear Modulus (GPa) = 5.66630 13.70514 9.68572
#
# Velocity S-wave (km/s) = 1.81228 2.81850 2.36942
# Velocity P-wave (km/s) = 2.91239 4.87574 4.01590
#
# Compressibility (1/GPa) = 0.14127431
#
# Stress axis : x y z
#
# Youngs Moduli (GPa) = 47.65611 47.65611 6.70550
#
# Poissons Ratio (x) = 0.42454 0.05366
# Poissons Ratio (y) = 0.42454 0.05366
# Poissons Ratio (z) = 0.38134 0.38134
#
# Static dielectric constant tensor:
#      x y z
#    x 1.597640 0.000000 0.000000 
#    y 0.000000 1.597640 0.000000 
#    z 0.000000 0.000000 1.598770 
# 
# From -- ./inp_files/4418.got.cif
#   From: 2010.05.17/outbox.cif.g08.bks.cpg/sg115_3_cif.got.tgz:4418.got - 2010.05.20 11:07:42.
