data_PCOD9556007
_publ_section_title
;
Structure prediction by ZEFSAII (Michael W. Deem and Ramdas Pophale) SiO2 
 PCOD9556007
Probable space group: P -4 21 C
;
_chemical_formula_sum "Si O2"
_cell_formula_units_Z 40
_cell_length_a 8.183877
_cell_length_b 8.183877
_cell_length_c 24.454103
_cell_angle_alpha 90.000000
_cell_angle_beta 90.000000
_cell_angle_gamma 90.000000
_cell_volume 1637.834157
_symmetry_space_group_name_H-M "P -4 21 C"
_symmetry_group_IT_number 114
_symmetry_cell_setting 'tetragonal'
loop_
_space_group_symop_operation_xyz
x,y,z
y,-x,-z
-x,-y,z
-y,x,-z
1/2+x,1/2-y,1/2-z
1/2-x,1/2+y,1/2-z
1/2-y,1/2-x,1/2+z
1/2+y,1/2+x,1/2+z
loop_
_atom_site_type_symbol
_atom_site_label
_atom_site_fract_x
_atom_site_fract_y
_atom_site_fract_z
Si Si1 0.845665 0.767400 0.669856
Si Si2 0.255698 0.224419 0.365382
Si Si3 0.568034 0.179860 0.228312
Si Si4 0.812021 0.564915 0.571273
Si Si5 0.727940 0.620049 0.978567
O O1 0.775245 0.632878 0.712055
O O2 0.783628 0.723015 0.609394
O O3 0.041412 0.745770 0.660953
O O4 0.795257 0.937213 0.697871
O O5 0.218164 0.334271 0.313734
O O6 0.415318 0.275687 0.399360
O O7 0.120461 0.233090 0.413376
O O8 0.500000 0.000000 0.234245
O O9 0.793393 0.621270 0.509109
O O10 0.000000 0.500000 0.576100
O O11 0.710545 0.439653 0.004040
#
# Coordination Sequence:
#
# PCOD9556007 Si02
#       5
#     8   8   8   8   8
#     4  11  22  44  69  96 136 186 238 283 350 422
#     4  11  24  43  70 101 138 190 228 286 360 428
#     4  12  25  41  66 104 139 178 236 296 349 420
#     4  10  20  41  66  94 133 180 228 287 341 414
#     4  11  21  37  67 102 128 178 244 291 334 419
#
# _framework density 24.422495000000001
#
# number of rings (size 3 to 8) (size 9 to 14) (size 15 to 20)
#    0.000    1.000    4.000    6.000    2.800    0.800 
#    3.600    3.000    0.000    0.000    0.000    0.000 
#    0.000    0.000    0.000    0.000    0.000    0.000 
#
# Total GULP energy -223394.881723 kJ/mol
# GULP energy per Si atom -5584.872043 kJ/mol
# Density = 2.436691 g / cm^3
# Si number density = 24.422495 Si / 1000 Ang^3
#
#
#
# Elastic Constant Matrix: (Units=GPa)
#
#
# Indices 1 2 3 4 5 6 
#
# 1 65.1953 4.7401 22.2446 0.0000 0.0000 0.0000
# 2 4.7401 65.1953 22.2446 0.0000 0.0000 0.0000
# 3 22.2446 22.2446 157.9208 0.0000 0.0000 0.0000
# 4 0.0000 0.0000 0.0000 36.4941 0.0000 0.0000
# 5 0.0000 0.0000 0.0000 0.0000 36.4941 0.0000
# 6 0.0000 0.0000 0.0000 0.0000 0.0000 22.0646
#
#
#
# Elastic Compliance Matrix: (Units=1/GPa)
#
#
# Indices 1 2 3 4 5 6 
#
# 1 0.016124 -0.000417 -0.002212 0.000000 0.000000 0.000000
# 2 -0.000417 0.016124 -0.002212 0.000000 0.000000 0.000000
# 3 -0.002212 -0.002212 0.006956 0.000000 0.000000 0.000000
# 4 0.000000 0.000000 0.000000 0.027402 0.000000 0.000000
# 5 0.000000 0.000000 0.000000 0.000000 0.027402 0.000000
# 6 0.000000 0.000000 0.000000 0.000000 0.000000 0.045321
#
#
# Mechanical properties :
#
#
# Convention : Reuss Voigt Hill
#
# Bulk Modulus (GPa) = 33.87689 42.97446 38.42568
# Shear Modulus (GPa) = 31.47585 34.94933 33.21259
#
# Velocity S-wave (km/s) = 3.59389 3.78700 3.69171
# Velocity P-wave (km/s) = 5.57877 6.06270 5.82576
#
# Compressibility (1/GPa) = 0.02951865
#
# Stress axis : x y z
#
# Youngs Moduli (GPa) = 62.02030 62.02030 143.76993
#
# Poissons Ratio (x) = 0.02589 0.31807
# Poissons Ratio (y) = 0.02589 0.31807
# Poissons Ratio (z) = 0.13721 0.13721
#
# Static dielectric constant tensor:
#      x y z
#    x 2.041730 0.000000 0.000000 
#    y 0.000000 2.041730 0.000000 
#    z 0.000000 0.000000 1.861500 
# 
# From -- ./inp_files/3350.got.cif
#   From: 2010.05.17/outbox.cif.g08.bks.cpg/sg114_2_cif.got.tgz:3350.got - 2010.05.20 11:04:54.
