data_PCOD9556704
_publ_section_title
;
Structure prediction by ZEFSAII (Michael W. Deem and Ramdas Pophale) SiO2 
 PCOD9556704
Probable space group: P -4 M 2
;
_chemical_formula_sum "Si O2"
_cell_formula_units_Z 56
_cell_length_a 20.926854
_cell_length_b 20.926854
_cell_length_c 8.988880
_cell_angle_alpha 90.000000
_cell_angle_beta 90.000000
_cell_angle_gamma 90.000000
_cell_volume 3936.529148
_symmetry_space_group_name_H-M "P -4 M 2"
_symmetry_group_IT_number 115
_symmetry_cell_setting 'tetragonal'
loop_
_space_group_symop_operation_xyz
x,y,z
y,-x,-z
-x,-y,z
-y,x,-z
y,x,-z
-y,-x,-z
-x,y,z
x,-y,z
loop_
_atom_site_type_symbol
_atom_site_label
_atom_site_fract_x
_atom_site_fract_y
_atom_site_fract_z
Si Si1 0.500000 0.923057 0.825231
Si Si2 0.077212 0.500000 0.835298
Si Si3 0.929399 0.871451 0.861801
Si Si4 0.365805 0.075465 0.672646
Si Si5 0.751976 0.146109 0.810320
Si Si6 0.365976 0.075179 0.315700
Si Si7 0.928285 0.858444 0.373752
Si Si8 0.750923 0.856076 0.167173
O O1 0.564773 0.907219 0.738138
O O2 0.500000 0.000000 0.834046
O O3 0.500000 0.898601 0.994844
O O4 0.093960 0.564840 0.749265
O O5 0.000000 0.500000 0.840982
O O6 0.918102 0.925062 0.739308
O O7 0.909264 0.804249 0.792698
O O8 0.000000 0.870799 0.920456
O O9 0.883395 0.883395 0.000000
O O10 0.314610 0.125691 0.736457
O O11 0.366182 0.078006 0.494132
O O12 0.351736 0.000000 0.713868
O O13 0.800607 0.096783 0.728493
O O14 0.788490 0.214715 0.791870
O O15 0.743294 0.139505 0.988267
O O16 0.312912 0.122436 0.248887
O O17 0.353545 0.000000 0.274037
O O18 0.877914 0.877914 0.500000
O O19 0.000000 0.847332 0.429282
#
# Coordination Sequence:
#
# PCOD9556704 Si02
#       8
#     4   4   8   8   8   8   8   8
#     4   9  17  31  49  71  95 117 143 176 219 274
#     4   9  17  31  49  71  93 117 145 176 217 272
#     4  11  21  33  47  60  76 101 140 188 235 282
#     4  10  20  31  48  71  94 117 143 183 232 277
#     4  10  21  35  48  63  84 113 149 185 224 274
#     4  10  20  31  49  71  93 117 145 184 230 276
#     4  11  23  35  45  58  78 103 138 186 237 288
#     4  10  20  36  48  63  84 113 149 186 222 273
#
# _framework density 14.225728999999999
#
# number of rings (size 3 to 8) (size 9 to 14) (size 15 to 20)
#    0.000    1.857    2.857    3.000    4.000    6.286 
#    0.000    0.000    0.000    0.000    0.000    0.000 
#    0.000    0.000    0.000    0.000    0.000    0.714 
#
# Total GULP energy -311834.939927 kJ/mol
# GULP energy per Si atom -5568.481070 kJ/mol
# Density = 1.419335 g / cm^3
# Si number density = 14.225729 Si / 1000 Ang^3
#
#
#
# Elastic Constant Matrix: (Units=GPa)
#
#
# Indices 1 2 3 4 5 6 
#
# 1 91.9976 36.3623 38.0400 0.0000 0.0000 0.0000
# 2 36.3623 91.9976 38.0400 0.0000 0.0000 0.0000
# 3 38.0400 38.0400 75.6913 0.0000 0.0000 0.0000
# 4 0.0000 0.0000 0.0000 22.4273 0.0000 0.0000
# 5 0.0000 0.0000 0.0000 0.0000 22.4273 0.0000
# 6 0.0000 0.0000 0.0000 0.0000 0.0000 13.4131
#
#
#
# Elastic Compliance Matrix: (Units=1/GPa)
#
#
# Indices 1 2 3 4 5 6 
#
# 1 0.014535 -0.003439 -0.005576 0.000000 0.000000 0.000000
# 2 -0.003439 0.014535 -0.005576 0.000000 0.000000 0.000000
# 3 -0.005576 -0.005576 0.018817 0.000000 0.000000 0.000000
# 4 0.000000 0.000000 0.000000 0.044589 0.000000 0.000000
# 5 0.000000 0.000000 0.000000 0.000000 0.044589 0.000000
# 6 0.000000 0.000000 0.000000 0.000000 0.000000 0.074554
#
#
# Mechanical properties :
#
#
# Convention : Reuss Voigt Hill
#
# Bulk Modulus (GPa) = 53.46851 53.84124 53.65488
# Shear Modulus (GPa) = 20.23996 21.46979 20.85488
#
# Velocity S-wave (km/s) = 3.77606 3.88909 3.83299
# Velocity P-wave (km/s) = 7.52854 7.62211 7.57547
#
# Compressibility (1/GPa) = 0.01870260
#
# Stress axis : x y z
#
# Youngs Moduli (GPa) = 68.79953 68.79953 53.14462
#
# Poissons Ratio (x) = 0.23662 0.29635
# Poissons Ratio (y) = 0.23662 0.29635
# Poissons Ratio (z) = 0.38365 0.38365
#
# Static dielectric constant tensor:
#      x y z
#    x 1.476260 0.000000 0.000000 
#    y 0.000000 1.476260 0.000000 
#    z 0.000000 0.000000 1.509100 
# 
# From -- ./inp_files/2123.got.cif
#   From: 2010.05.17/outbox.cif.g08.bks.cpg/sg115_2_cif.got.tgz:2123.got - 2010.05.20 11:07:42.
