data_PCOD9556765
_publ_section_title
;
Structure prediction by ZEFSAII (Michael W. Deem and Ramdas Pophale) SiO2 
 PCOD9556765
Probable space group: P -4 M 2
;
_chemical_formula_sum "Si O2"
_cell_formula_units_Z 56
_cell_length_a 13.884795
_cell_length_b 13.884795
_cell_length_c 19.029330
_cell_angle_alpha 90.000000
_cell_angle_beta 90.000000
_cell_angle_gamma 90.000000
_cell_volume 3668.617570
_symmetry_space_group_name_H-M "P -4 M 2"
_symmetry_group_IT_number 115
_symmetry_cell_setting 'tetragonal'
loop_
_space_group_symop_operation_xyz
x,y,z
y,-x,-z
-x,-y,z
-y,x,-z
y,x,-z
-y,-x,-z
-x,y,z
x,-y,z
loop_
_atom_site_type_symbol
_atom_site_label
_atom_site_fract_x
_atom_site_fract_y
_atom_site_fract_z
Si Si1 0.888049 0.277425 0.175070
Si Si2 0.274085 0.608202 0.098774
Si Si3 0.886639 0.747310 0.341009
Si Si4 0.190501 0.886706 0.075297
Si Si5 0.883637 0.391940 0.466794
Si Si6 0.608849 0.787836 0.064934
Si Si7 0.784127 0.113245 0.438864
O O1 0.815535 0.357198 0.145254
O O2 0.875430 0.269178 0.258639
O O3 0.859673 0.178737 0.134821
O O4 0.000000 0.299425 0.160231
O O5 0.305646 0.500000 0.115358
O O6 0.357003 0.688911 0.102452
O O7 0.236562 0.609518 0.018198
O O8 0.863368 0.656142 0.391069
O O9 0.819050 0.831353 0.370305
O O10 0.000000 0.770607 0.353884
O O11 0.304892 0.862992 0.077682
O O12 0.172612 0.000000 0.082740
O O13 0.150737 0.849264 0.000000
O O14 0.845940 0.500000 0.473458
O O15 0.852596 0.317215 0.527316
O O16 0.000000 0.395845 0.471634
O O17 0.500000 0.816179 0.084355
O O18 0.860695 0.139306 0.500000
O O19 0.779875 0.000000 0.427389
#
# Coordination Sequence:
#
# PCOD9556765 Si02
#       7
#     8   8   8   8   8   8   8
#     4  10  20  33  45  65  96 129 166 202 240 292
#     4   9  17  30  48  71  95 118 147 189 243 298
#     4   9  18  29  43  65  96 127 154 189 233 280
#     4  11  21  34  49  66  91 125 167 212 250 289
#     4   8  14  26  44  66  91 118 148 182 223 272
#     4   9  17  32  51  71  92 113 146 196 250 301
#     4   9  16  26  42  64  89 119 153 191 230 272
#
# _framework density 15.264605
#
# number of rings (size 3 to 8) (size 9 to 14) (size 15 to 20)
#    0.000    2.714    2.857    1.714    0.000    4.000 
#    0.000    5.714    0.000    3.429    0.000    4.000 
#    0.000   23.143    0.000    0.000    0.000    0.000 
#
# Total GULP energy -311745.850628 kJ/mol
# GULP energy per Si atom -5566.890190 kJ/mol
# Density = 1.522986 g / cm^3
# Si number density = 15.264605 Si / 1000 Ang^3
#
#
#
# Elastic Constant Matrix: (Units=GPa)
#
#
# Indices 1 2 3 4 5 6 
#
# 1 64.9517 18.2944 30.2538 0.0000 0.0000 0.0000
# 2 18.2944 64.9526 30.2531 0.0000 0.0000 0.0000
# 3 30.2538 30.2531 61.7158 0.0000 0.0000 0.0000
# 4 0.0000 0.0000 0.0000 11.2288 0.0000 0.0000
# 5 0.0000 0.0000 0.0000 0.0000 11.2289 0.0000
# 6 0.0000 0.0000 0.0000 0.0000 0.0000 8.5945
#
#
#
# Elastic Compliance Matrix: (Units=1/GPa)
#
#
# Indices 1 2 3 4 5 6 
#
# 1 0.020047 -0.001385 -0.009148 0.000000 0.000000 0.000000
# 2 -0.001385 0.020047 -0.009148 0.000000 0.000000 0.000000
# 3 -0.009148 -0.009148 0.025172 0.000000 0.000000 0.000000
# 4 0.000000 0.000000 0.000000 0.089056 0.000000 0.000000
# 5 0.000000 0.000000 0.000000 0.000000 0.089056 0.000000
# 6 0.000000 0.000000 0.000000 0.000000 0.000000 0.116354
#
#
# Mechanical properties :
#
#
# Convention : Reuss Voigt Hill
#
# Bulk Modulus (GPa) = 38.60514 38.80251 38.70383
# Shear Modulus (GPa) = 12.26300 13.73169 12.99735
#
# Velocity S-wave (km/s) = 2.83744 3.00255 2.92116
# Velocity P-wave (km/s) = 6.00669 6.12336 6.06530
#
# Compressibility (1/GPa) = 0.02590329
#
# Stress axis : x y z
#
# Youngs Moduli (GPa) = 49.88156 49.88312 39.72634
#
# Poissons Ratio (x) = 0.06911 0.36343
# Poissons Ratio (y) = 0.06911 0.36341
# Poissons Ratio (z) = 0.45633 0.45632
#
# Static dielectric constant tensor:
#      x y z
#    x 1.513970 0.000000 0.000000 
#    y 0.000000 1.513970 0.000000 
#    z 0.000000 0.000000 1.494120 
# 
# From -- ./inp_files/4353.got.cif
#   From: 2010.05.17/outbox.cif.g08.bks.cpg/sg115_3_cif.got.tgz:4353.got - 2010.05.20 11:07:42.
