data_PCOD9556888
_publ_section_title
;
Structure prediction by ZEFSAII (Michael W. Deem and Ramdas Pophale) SiO2 
 PCOD9556888
Probable space group: P -4 M 2
;
_chemical_formula_sum "Si O2"
_cell_formula_units_Z 40
_cell_length_a 14.606167
_cell_length_b 14.606167
_cell_length_c 10.393199
_cell_angle_alpha 90.000000
_cell_angle_beta 90.000000
_cell_angle_gamma 90.000000
_cell_volume 2217.286264
_symmetry_space_group_name_H-M "P -4 M 2"
_symmetry_group_IT_number 115
_symmetry_cell_setting 'tetragonal'
loop_
_space_group_symop_operation_xyz
x,y,z
y,-x,-z
-x,-y,z
-y,x,-z
y,x,-z
-y,-x,-z
-x,y,z
x,-y,z
loop_
_atom_site_type_symbol
_atom_site_label
_atom_site_fract_x
_atom_site_fract_y
_atom_site_fract_z
Si Si1 0.891596 0.894567 0.345316
Si Si2 0.797417 0.395761 0.745675
Si Si3 0.789645 0.713176 0.280973
Si Si4 0.608217 0.101221 0.507201
Si Si5 0.241348 0.392145 0.029135
O O1 0.882070 0.882070 0.500000
O O2 0.833737 0.814702 0.277994
O O3 0.000000 0.885149 0.316292
O O4 0.864780 0.000000 0.315576
O O5 0.764444 0.500000 0.729173
O O6 0.724079 0.319306 0.709320
O O7 0.878357 0.381795 0.643950
O O8 0.816658 0.383761 0.896959
O O9 0.829052 0.662474 0.404642
O O10 0.806114 0.655505 0.151157
O O11 0.500000 0.106300 0.535820
O O12 0.642667 0.000000 0.537386
O O13 0.258006 0.500000 0.052356
O O14 0.334364 0.334364 0.000000
#
# Coordination Sequence:
#
# PCOD9556888 Si02
#       5
#     8   8   8   8   8
#     4   9  18  32  51  78 110 143 183 228 272 324
#     4   9  19  35  52  72 102 140 179 216 258 317
#     4  11  19  31  55  82 107 138 175 226 277 317
#     4  10  20  33  51  78 110 142 177 217 264 319
#     4   9  19  35  54  77 105 139 179 221 268 324
#
# _framework density 18.040071000000001
#
# number of rings (size 3 to 8) (size 9 to 14) (size 15 to 20)
#    0.000    2.400    0.000    3.600    0.000    2.600 
#    0.000    2.000    0.000   21.000    0.000   26.600 
#    0.000    0.000    0.000    0.000    0.000    0.000 
#
# Total GULP energy -222897.384933 kJ/mol
# GULP energy per Si atom -5572.434623 kJ/mol
# Density = 1.799901 g / cm^3
# Si number density = 18.040071 Si / 1000 Ang^3
#
#
#
# Elastic Constant Matrix: (Units=GPa)
#
#
# Indices 1 2 3 4 5 6 
#
# 1 73.3404 27.5208 47.0081 0.0000 0.0000 0.0000
# 2 27.5208 73.3404 47.0081 0.0000 0.0000 0.0000
# 3 47.0081 47.0081 88.0979 0.0000 0.0000 0.0000
# 4 0.0000 0.0000 0.0000 17.4089 0.0000 0.0000
# 5 0.0000 0.0000 0.0000 0.0000 17.4089 0.0000
# 6 0.0000 0.0000 0.0000 0.0000 0.0000 15.7374
#
#
#
# Elastic Compliance Matrix: (Units=1/GPa)
#
#
# Indices 1 2 3 4 5 6 
#
# 1 0.020775 -0.001049 -0.010525 0.000000 0.000000 0.000000
# 2 -0.001049 0.020775 -0.010525 0.000000 0.000000 0.000000
# 3 -0.010525 -0.010525 0.022584 0.000000 0.000000 0.000000
# 4 0.000000 0.000000 0.000000 0.057442 0.000000 0.000000
# 5 0.000000 0.000000 0.000000 0.000000 0.057442 0.000000
# 6 0.000000 0.000000 0.000000 0.000000 0.000000 0.063543
#
#
# Mechanical properties :
#
#
# Convention : Reuss Voigt Hill
#
# Bulk Modulus (GPa) = 50.16746 53.09476 51.63111
# Shear Modulus (GPa) = 17.04124 17.66049 17.35086
#
# Velocity S-wave (km/s) = 3.07682 3.13223 3.10465
# Velocity P-wave (km/s) = 6.36331 6.52507 6.44470
#
# Compressibility (1/GPa) = 0.01993324
#
# Stress axis : x y z
#
# Youngs Moduli (GPa) = 48.13421 48.13421 44.27994
#
# Poissons Ratio (x) = 0.05052 0.46607
# Poissons Ratio (y) = 0.05052 0.46607
# Poissons Ratio (z) = 0.50664 0.50664
#
# Static dielectric constant tensor:
#      x y z
#    x 1.628480 0.000000 0.000000 
#    y 0.000000 1.628480 0.000000 
#    z 0.000000 0.000000 1.625740 
# 
# From -- ./inp_files/1578.got.cif
#   From: 2010.05.17/outbox.cif.g08.bks.cpg/sg115_1_cif.got.tgz:1578.got - 2010.05.20 11:07:42.
