data_PCOD9556937
_publ_section_title
;
Structure prediction by ZEFSAII (Michael W. Deem and Ramdas Pophale) SiO2 
 PCOD9556937
Probable space group: P -4 M 2
;
_chemical_formula_sum "Si O2"
_cell_formula_units_Z 44
_cell_length_a 9.200566
_cell_length_b 9.200566
_cell_length_c 29.592863
_cell_angle_alpha 90.000000
_cell_angle_beta 90.000000
_cell_angle_gamma 90.000000
_cell_volume 2505.048126
_symmetry_space_group_name_H-M "P -4 M 2"
_symmetry_group_IT_number 115
_symmetry_cell_setting 'tetragonal'
loop_
_space_group_symop_operation_xyz
x,y,z
y,-x,-z
-x,-y,z
-y,x,-z
y,x,-z
-y,-x,-z
-x,y,z
x,-y,z
loop_
_atom_site_type_symbol
_atom_site_label
_atom_site_fract_x
_atom_site_fract_y
_atom_site_fract_z
Si Si1 0.325846 0.827967 0.958112
Si Si2 0.673222 0.325214 0.598812
Si Si3 0.825831 0.170948 0.317671
Si Si4 0.673289 0.827214 0.775014
Si Si5 0.332831 0.323040 0.133698
Si Si6 0.674199 0.325802 0.500000
O O1 0.500000 0.805323 0.962909
O O2 0.278757 0.754583 0.910964
O O3 0.299379 0.000000 0.956694
O O4 0.245461 0.754539 0.000000
O O5 0.500000 0.296409 0.602044
O O6 0.691164 0.500000 0.600821
O O7 0.755102 0.250746 0.639827
O O8 0.726798 0.273413 0.549004
O O9 0.781108 0.245745 0.270564
O O10 0.000000 0.190450 0.321733
O O11 0.794441 0.000000 0.316365
O O12 0.500000 0.804420 0.769297
O O13 0.723056 0.742848 0.819717
O O14 0.696149 0.000000 0.781628
O O15 0.500000 0.276147 0.131362
O O16 0.330660 0.500000 0.134147
O O17 0.500000 0.303625 0.500326
#
# Coordination Sequence:
#
# PCOD9556937 Si02
#       6
#     8   8   8   8   8   4
#     4  10  20  34  53  77 105 137 172 208 247 293
#     4   9  17  31  53  77  98 124 162 207 252 298
#     4  10  21  35  49  69 101 138 171 203 244 295
#     4   9  17  31  51  72  95 127 168 210 250 295
#     4   9  17  30  51  78 103 127 161 208 257 300
#     4   7  12  26  48  73  98 122 154 201 252 297
#
# _framework density 17.564533000000001
#
# number of rings (size 3 to 8) (size 9 to 14) (size 15 to 20)
#    0.000    2.818    0.000    2.727    0.000    5.455 
#    0.000    3.636    0.000    7.636    0.000    0.000 
#    0.000    0.000    0.000    0.000    0.000    0.000 
#
# Total GULP energy -245265.743177 kJ/mol
# GULP energy per Si atom -5574.221436 kJ/mol
# Density = 1.752456 g / cm^3
# Si number density = 17.564533 Si / 1000 Ang^3
#
#
#
# Elastic Constant Matrix: (Units=GPa)
#
#
# Indices 1 2 3 4 5 6 
#
# 1 51.6510 47.1456 81.6986 0.0000 0.0000 0.0000
# 2 47.1456 51.6521 81.6983 0.0000 0.0000 0.0000
# 3 81.6986 81.6983 240.0549 0.0000 0.0000 0.0000
# 4 0.0000 0.0000 0.0000 -33.2390 0.0000 0.0000
# 5 0.0000 0.0000 0.0000 0.0000 -33.2337 0.0000
# 6 0.0000 0.0000 0.0000 0.0000 0.0000 19.2959
#
#
#
# Elastic Compliance Matrix: (Units=1/GPa)
#
#
# Indices 1 2 3 4 5 6 
#
# 1 0.122544 -0.099386 -0.007881 0.000000 0.000000 0.000000
# 2 -0.099386 0.122538 -0.007879 0.000000 0.000000 0.000000
# 3 -0.007881 -0.007879 0.009530 0.000000 0.000000 0.000000
# 4 0.000000 0.000000 0.000000 -0.030085 0.000000 0.000000
# 5 0.000000 0.000000 0.000000 0.000000 -0.030090 0.000000
# 6 0.000000 0.000000 0.000000 0.000000 0.000000 0.051824
#
#
# Mechanical properties :
#
#
# Convention : Reuss Voigt Hill
#
# Bulk Modulus (GPa) = 41.12229 84.93811 63.03020
# Shear Modulus (GPa) = 10.31652 -0.58097 4.86778
#
# Velocity S-wave (km/s) = 2.42616 -0.57574 1.66655
# Velocity P-wave (km/s) = 5.59565 6.92970 6.29810
#
# Compressibility (1/GPa) = 0.02431771
#
# Stress axis : x y z
#
# Youngs Moduli (GPa) = 8.16034 8.16077 104.93694
#
# Poissons Ratio (x) = 0.81107 0.82706
# Poissons Ratio (y) = 0.81102 0.82680
# Poissons Ratio (z) = 0.06432 0.06430
#
# Static dielectric constant tensor:
#      x y z
#    x 1.583680 0.000000 0.000000 
#    y 0.000000 1.583680 0.000000 
#    z 0.000000 0.000000 1.594160 
# 
# From -- ./inp_files/5781.got.cif
#   From: 2010.05.17/outbox.cif.g08.bks.cpg/sg115_3_cif.got.tgz:5781.got - 2010.05.20 11:07:42.
