data_PCOD9556679
_publ_section_title
;
Structure prediction by ZEFSAII (Michael W. Deem and Ramdas Pophale) SiO2 
 PCOD9556679
Probable space group: P -4 M 2
;
_chemical_formula_sum "Si O2"
_cell_formula_units_Z 25
_cell_length_a 12.208430
_cell_length_b 12.208430
_cell_length_c 9.109807
_cell_angle_alpha 90.000000
_cell_angle_beta 90.000000
_cell_angle_gamma 90.000000
_cell_volume 1357.778136
_symmetry_space_group_name_H-M "P -4 M 2"
_symmetry_group_IT_number 115
_symmetry_cell_setting 'tetragonal'
loop_
_space_group_symop_operation_xyz
x,y,z
y,-x,-z
-x,-y,z
-y,x,-z
y,x,-z
-y,-x,-z
-x,y,z
x,-y,z
loop_
_atom_site_type_symbol
_atom_site_label
_atom_site_fract_x
_atom_site_fract_y
_atom_site_fract_z
Si Si1 0.000000 0.759014 0.380708
Si Si2 0.373808 0.875385 0.395292
Si Si3 0.000000 0.374510 0.088149
Si Si4 0.000000 0.000000 0.500000
Si Si5 0.371879 0.778575 0.096841
O O1 0.103959 0.704694 0.466651
O O2 0.000000 0.713881 0.217338
O O3 0.000000 0.888871 0.404044
O O4 0.500000 0.848066 0.436793
O O5 0.378758 0.000000 0.330924
O O6 0.334109 0.797295 0.265015
O O7 0.893146 0.361897 0.988675
O O8 0.000000 0.500000 0.149137
O O9 0.500000 0.751020 0.105616
O O10 0.308030 0.691971 0.000000
#
# Coordination Sequence:
#
# PCOD9556679 Si02
#       5
#     4   8   4   1   8
#     4  10  21  35  50  72 112 140 174 207 261 304
#     4   8  15  33  57  73  92 135 181 214 246 295
#     4  10  19  34  57  81  99 133 191 226 241 298
#     4  12  28  32  40  82 128 144 148 210 276 332
#     4  10  20  34  55  81 106 135 174 220 266 312
#
# _framework density 18.412434999999999
#
# number of rings (size 3 to 8) (size 9 to 14) (size 15 to 20)
#    0.960    1.600    1.600    0.960    4.480    0.320 
#    0.000    0.000    0.000    1.920    0.000    0.000 
#    0.000   10.240    0.000    0.000    0.000    0.000 
#
# Total GULP energy -139180.634207 kJ/mol
# GULP energy per Si atom -5567.225368 kJ/mol
# Density = 1.837053 g / cm^3
# Si number density = 18.412435 Si / 1000 Ang^3
#
#
#
# Elastic Constant Matrix: (Units=GPa)
#
#
# Indices 1 2 3 4 5 6 
#
# 1 57.8069 12.6963 18.0523 0.0000 0.0000 0.0000
# 2 12.6963 57.8102 18.0477 0.0000 0.0000 0.0000
# 3 18.0523 18.0477 36.7933 0.0000 0.0000 0.0000
# 4 0.0000 0.0000 0.0000 9.9165 0.0000 0.0000
# 5 0.0000 0.0000 0.0000 0.0000 9.9184 0.0000
# 6 0.0000 0.0000 0.0000 0.0000 0.0000 24.4272
#
#
#
# Elastic Compliance Matrix: (Units=1/GPa)
#
#
# Indices 1 2 3 4 5 6 
#
# 1 0.020556 -0.001613 -0.009294 0.000000 0.000000 0.000000
# 2 -0.001613 0.020552 -0.009290 0.000000 0.000000 0.000000
# 3 -0.009294 -0.009290 0.036296 0.000000 0.000000 0.000000
# 4 0.000000 0.000000 0.000000 0.100842 0.000000 0.000000
# 5 0.000000 0.000000 0.000000 0.000000 0.100823 0.000000
# 6 0.000000 0.000000 0.000000 0.000000 0.000000 0.040938
#
#
# Mechanical properties :
#
#
# Convention : Reuss Voigt Hill
#
# Bulk Modulus (GPa) = 27.01992 27.77812 27.39902
# Shear Modulus (GPa) = 13.41426 15.76002 14.58714
#
# Velocity S-wave (km/s) = 2.70208 2.92883 2.81774
# Velocity P-wave (km/s) = 4.94385 5.15332 5.04967
#
# Compressibility (1/GPa) = 0.03700973
#
# Stress axis : x y z
#
# Youngs Moduli (GPa) = 48.64833 48.65607 27.55132
#
# Poissons Ratio (x) = 0.07848 0.25607
# Poissons Ratio (y) = 0.07846 0.25595
# Poissons Ratio (z) = 0.45215 0.45201
#
# Static dielectric constant tensor:
#      x y z
#    x 1.644910 0.000000 0.000000 
#    y 0.000000 1.644910 0.000000 
#    z 0.000000 0.000000 1.621430 
# 
# From -- ./inp_files/2357.got.cif
#   From: 2010.05.17/outbox.cif.g08.bks.cpg/sg115_2_cif.got.tgz:2357.got - 2010.05.20 11:07:42.
