data_PCOD9556465
_publ_section_title
;
Structure prediction by ZEFSAII (Michael W. Deem and Ramdas Pophale) SiO2 
 PCOD9556465
Probable space group: P -4 21 C
;
_chemical_formula_sum "Si O2"
_cell_formula_units_Z 28
_cell_length_a 8.138380
_cell_length_b 8.138380
_cell_length_c 16.804085
_cell_angle_alpha 90.000000
_cell_angle_beta 90.000000
_cell_angle_gamma 90.000000
_cell_volume 1112.988810
_symmetry_space_group_name_H-M "P -4 21 C"
_symmetry_group_IT_number 114
_symmetry_cell_setting 'tetragonal'
loop_
_space_group_symop_operation_xyz
x,y,z
y,-x,-z
-x,-y,z
-y,x,-z
1/2+x,1/2-y,1/2-z
1/2-x,1/2+y,1/2-z
1/2-y,1/2-x,1/2+z
1/2+y,1/2+x,1/2+z
loop_
_atom_site_type_symbol
_atom_site_label
_atom_site_fract_x
_atom_site_fract_y
_atom_site_fract_z
Si Si1 0.000000 0.000000 0.000000
Si Si2 0.748675 0.751325 0.171336
Si Si3 0.000000 0.000000 0.500000
Si Si4 0.000000 0.500000 0.625875
Si Si5 0.000000 0.000000 0.750000
Si Si6 0.273658 0.226341 0.480431
O O1 0.151007 0.904281 0.041999
O O2 0.887640 0.612360 0.178655
O O3 0.588576 0.656463 0.205926
O O4 0.727559 0.772441 0.076155
O O5 0.843537 0.911424 0.205926
O O6 0.848993 0.095719 0.541999
O O7 0.107469 0.607469 0.566660
#
# Coordination Sequence:
#
# PCOD9556465 Si02
#       6
#     2   8   2   4   4   8
#     4  12  22  44  68 118 152 186 236 292 418 432
#     4  12  27  49  76 105 156 197 256 308 355 472
#     4  12  22  44  68 118 152 186 236 292 418 432
#     4  12  26  44  78 114 152 184 256 314 396 424
#     4  12  30  52  74 108 148 218 252 290 372 428
#     4  12  24  43  74 114 148 191 232 324 381 442
#
# _framework density 25.157487
#
# number of rings (size 3 to 8) (size 9 to 14) (size 15 to 20)
#    0.000    0.000    5.714    3.429    0.000    2.286 
#    0.000    0.000    0.000    0.000    0.000    0.000 
#    0.000    0.000    0.000    0.000    0.000    0.000 
#
# Total GULP energy -155935.732273 kJ/mol
# GULP energy per Si atom -5569.133295 kJ/mol
# Density = 2.510023 g / cm^3
# Si number density = 25.157487 Si / 1000 Ang^3
#
#
#
# Elastic Constant Matrix: (Units=GPa)
#
#
# Indices 1 2 3 4 5 6 
#
# 1 156.4912 68.2775 49.0349 0.0000 0.0000 0.0000
# 2 68.2775 156.4912 49.0349 0.0000 0.0000 0.0000
# 3 49.0349 49.0349 93.6023 0.0000 0.0000 0.0000
# 4 0.0000 0.0000 0.0000 39.3418 0.0000 0.0000
# 5 0.0000 0.0000 0.0000 0.0000 39.3418 0.0000
# 6 0.0000 0.0000 0.0000 0.0000 0.0000 85.1287
#
#
#
# Elastic Compliance Matrix: (Units=1/GPa)
#
#
# Indices 1 2 3 4 5 6 
#
# 1 0.008552 -0.002784 -0.003021 0.000000 0.000000 0.000000
# 2 -0.002784 0.008552 -0.003021 0.000000 0.000000 0.000000
# 3 -0.003021 -0.003021 0.013849 0.000000 0.000000 0.000000
# 4 0.000000 0.000000 0.000000 0.025418 0.000000 0.000000
# 5 0.000000 0.000000 0.000000 0.000000 0.025418 0.000000
# 6 0.000000 0.000000 0.000000 0.000000 0.000000 0.011747
#
#
# Mechanical properties :
#
#
# Convention : Reuss Voigt Hill
#
# Bulk Modulus (GPa) = 75.19687 82.14214 78.66951
# Shear Modulus (GPa) = 43.24423 48.77829 46.01126
#
# Velocity S-wave (km/s) = 4.15051 4.40809 4.28124
# Velocity P-wave (km/s) = 7.27491 7.65705 7.46842
#
# Compressibility (1/GPa) = 0.01329843
#
# Stress axis : x y z
#
# Youngs Moduli (GPa) = 116.93623 116.93623 72.20765
#
# Poissons Ratio (x) = 0.32560 0.21816
# Poissons Ratio (y) = 0.32560 0.21816
# Poissons Ratio (z) = 0.35329 0.35329
#
# Static dielectric constant tensor:
#      x y z
#    x 2.082560 0.000000 0.000000 
#    y 0.000000 2.082560 0.000000 
#    z 0.000000 0.000000 1.986530 
# 
# From -- ./inp_files/2419.got.cif
#   From: 2010.05.17/outbox.cif.g08.bks.cpg/sg114_2_cif.got.tgz:2419.got - 2010.05.20 11:04:54.
