data_PCOD9556429
_publ_section_title
;
Structure prediction by ZEFSAII (Michael W. Deem and Ramdas Pophale) SiO2 
 PCOD9556429
Probable space group: P -4 21 C
;
_chemical_formula_sum "Si O2"
_cell_formula_units_Z 24
_cell_length_a 8.088868
_cell_length_b 8.088868
_cell_length_c 13.753548
_cell_angle_alpha 90.000000
_cell_angle_beta 90.000000
_cell_angle_gamma 90.000000
_cell_volume 899.891696
_symmetry_space_group_name_H-M "P -4 21 C"
_symmetry_group_IT_number 114
_symmetry_cell_setting 'tetragonal'
loop_
_space_group_symop_operation_xyz
x,y,z
y,-x,-z
-x,-y,z
-y,x,-z
1/2+x,1/2-y,1/2-z
1/2-x,1/2+y,1/2-z
1/2-y,1/2-x,1/2+z
1/2+y,1/2+x,1/2+z
loop_
_atom_site_type_symbol
_atom_site_label
_atom_site_fract_x
_atom_site_fract_y
_atom_site_fract_z
Si Si1 0.874558 0.217910 0.959212
Si Si2 0.679673 0.074461 0.214655
Si Si3 0.817416 0.925468 0.394453
O O1 0.947539 0.214856 0.850899
O O2 0.770160 0.370459 0.004492
O O3 0.045552 0.215982 0.020843
O O4 0.689076 0.254660 0.167310
O O5 0.500000 0.000000 0.201402
O O6 0.723709 0.059190 0.327558
O O7 0.000000 0.000000 0.399746
#
# Coordination Sequence:
#
# PCOD9556429 Si02
#       3
#     8   8   8
#     4   9  22  46  80 110 149 197 252 322 395 463
#     4  11  25  45  74 112 152 198 249 324 395 459
#     4  11  25  48  79 112 152 203 261 317 393 480
#
# _framework density 26.669878000000001
#
# number of rings (size 3 to 8) (size 9 to 14) (size 15 to 20)
#    0.000    1.667    0.000    2.000   14.000    1.333 
#   18.000    0.000    7.333    0.000    0.000    0.000 
#    0.000    0.000    0.000    0.000    0.000    0.000 
#
# Total GULP energy -134491.985723 kJ/mol
# GULP energy per Si atom -5603.832738 kJ/mol
# Density = 2.660918 g / cm^3
# Si number density = 26.669878 Si / 1000 Ang^3
#
#
#
# Elastic Constant Matrix: (Units=GPa)
#
#
# Indices 1 2 3 4 5 6 
#
# 1 90.8889 36.4556 25.4012 0.0000 0.0000 0.0000
# 2 36.4556 90.8889 25.4012 0.0000 0.0000 0.0000
# 3 25.4012 25.4012 114.6386 0.0000 0.0000 0.0000
# 4 0.0000 0.0000 0.0000 38.1237 0.0000 0.0000
# 5 0.0000 0.0000 0.0000 0.0000 38.1237 0.0000
# 6 0.0000 0.0000 0.0000 0.0000 0.0000 63.7381
#
#
#
# Elastic Compliance Matrix: (Units=1/GPa)
#
#
# Indices 1 2 3 4 5 6 
#
# 1 0.013493 -0.004878 -0.001909 0.000000 0.000000 0.000000
# 2 -0.004878 0.013493 -0.001909 0.000000 0.000000 0.000000
# 3 -0.001909 -0.001909 0.009569 0.000000 0.000000 0.000000
# 4 0.000000 0.000000 0.000000 0.026230 0.000000 0.000000
# 5 0.000000 0.000000 0.000000 0.000000 0.026230 0.000000
# 6 0.000000 0.000000 0.000000 0.000000 0.000000 0.015689
#
#
# Mechanical properties :
#
#
# Convention : Reuss Voigt Hill
#
# Bulk Modulus (GPa) = 52.18539 52.32583 52.25561
# Shear Modulus (GPa) = 38.91553 41.94099 40.42826
#
# Velocity S-wave (km/s) = 3.82403 3.96990 3.89765
# Velocity P-wave (km/s) = 6.25358 6.37777 6.31598
#
# Compressibility (1/GPa) = 0.01916245
#
# Stress axis : x y z
#
# Youngs Moduli (GPa) = 74.11447 74.11447 104.50508
#
# Poissons Ratio (x) = 0.36157 0.19947
# Poissons Ratio (y) = 0.36157 0.19947
# Poissons Ratio (z) = 0.14146 0.14146
#
# Static dielectric constant tensor:
#      x y z
#    x 2.158620 0.000000 0.000000 
#    y 0.000000 2.158620 0.000000 
#    z 0.000000 0.000000 2.173970 
# 
# From -- ./inp_files/1882.got.cif
#   From: 2010.05.17/outbox.cif.g08.bks.cpg/sg114_1_cif.got.tgz:1882.got - 2010.05.20 11:04:54.
