data_PCOD9556255
_publ_section_title
;
Structure prediction by ZEFSAII (Michael W. Deem and Ramdas Pophale) SiO2 
 PCOD9556255
Probable space group: P -4 21 C
;
_chemical_formula_sum "Si O2"
_cell_formula_units_Z 52
_cell_length_a 17.561866
_cell_length_b 17.561866
_cell_length_c 8.710186
_cell_angle_alpha 90.000000
_cell_angle_beta 90.000000
_cell_angle_gamma 90.000000
_cell_volume 2686.388053
_symmetry_space_group_name_H-M "P -4 21 C"
_symmetry_group_IT_number 114
_symmetry_cell_setting 'tetragonal'
loop_
_space_group_symop_operation_xyz
x,y,z
y,-x,-z
-x,-y,z
-y,x,-z
1/2+x,1/2-y,1/2-z
1/2-x,1/2+y,1/2-z
1/2-y,1/2-x,1/2+z
1/2+y,1/2+x,1/2+z
loop_
_atom_site_type_symbol
_atom_site_label
_atom_site_fract_x
_atom_site_fract_y
_atom_site_fract_z
Si Si1 0.750000 0.750000 0.113117
Si Si2 0.500000 0.000000 0.000000
Si Si3 0.745529 0.875666 0.863308
Si Si4 0.126022 0.500000 0.750000
Si Si5 0.103050 0.033605 0.918631
Si Si6 0.254471 0.875666 0.636693
Si Si7 0.466395 0.603050 0.081369
O O1 0.679353 0.729332 0.223162
O O2 0.820647 0.770668 0.223162
O O3 0.725599 0.819392 0.003190
O O4 0.774401 0.680608 0.003190
O O5 0.570575 0.021162 0.890804
O O6 0.478838 0.070575 0.109197
O O7 0.815463 0.927413 0.918102
O O8 0.678668 0.930201 0.804389
O O9 0.178668 0.430202 0.804389
O O10 0.090295 0.000001 0.750000
O O11 0.036998 0.092663 0.965261
O O12 0.184536 0.927413 0.581898
O O13 0.536998 0.592663 0.965260
#
# Coordination Sequence:
#
# PCOD9556255 Si02
#       7
#     8   4   8   8   8   8   8
#     4  10  24  40  62  90 126 160 212 248 306 374
#     4  10  24  42  68  90 120 154 220 254 308 362
#     4  11  22  41  64  90 126 163 202 257 311 361
#     4  11  22  42  66  91 120 162 202 265 308 358
#     4  11  22  38  61  91 127 164 202 248 302 373
#     4  11  22  41  64  90 126 163 202 257 311 361
#     4  11  22  38  61  91 127 164 202 248 302 373
#
# _framework density 19.356846000000001
#
# number of rings (size 3 to 8) (size 9 to 14) (size 15 to 20)
#    0.000    1.231    1.538    5.538    0.000    0.000 
#    0.000    0.000    6.769    0.000    0.000    0.000 
#    0.000    0.000    0.000    0.000    0.000    0.000 
#
# Total GULP energy -290527.162155 kJ/mol
# GULP energy per Si atom -5587.060811 kJ/mol
# Density = 1.931279 g / cm^3
# Si number density = 19.356846 Si / 1000 Ang^3
#
#
#
# Elastic Constant Matrix: (Units=GPa)
#
#
# Indices 1 2 3 4 5 6 
#
# 1 93.1822 47.9614 27.2847 0.0000 0.0000 0.0000
# 2 47.9614 93.1822 27.2847 0.0000 0.0000 0.0000
# 3 27.2847 27.2847 85.4129 0.0000 0.0000 0.0000
# 4 0.0000 0.0000 0.0000 25.3306 0.0000 0.0000
# 5 0.0000 0.0000 0.0000 0.0000 25.3306 0.0000
# 6 0.0000 0.0000 0.0000 0.0000 0.0000 35.3542
#
#
#
# Elastic Compliance Matrix: (Units=1/GPa)
#
#
# Indices 1 2 3 4 5 6 
#
# 1 0.015099 -0.007015 -0.002582 0.000000 0.000000 0.000000
# 2 -0.007015 0.015099 -0.002582 0.000000 0.000000 0.000000
# 3 -0.002582 -0.002582 0.013358 0.000000 0.000000 0.000000
# 4 0.000000 0.000000 0.000000 0.039478 0.000000 0.000000
# 5 0.000000 0.000000 0.000000 0.000000 0.039478 0.000000
# 6 0.000000 0.000000 0.000000 0.000000 0.000000 0.028285
#
#
# Mechanical properties :
#
#
# Convention : Reuss Voigt Hill
#
# Bulk Modulus (GPa) = 52.09554 52.98207 52.53881
# Shear Modulus (GPa) = 27.54012 28.48618 28.01315
#
# Velocity S-wave (km/s) = 3.77604 3.84035 3.80833
# Velocity P-wave (km/s) = 6.78107 6.86258 6.82195
#
# Compressibility (1/GPa) = 0.01919550
#
# Stress axis : x y z
#
# Youngs Moduli (GPa) = 66.23167 66.23167 74.86405
#
# Poissons Ratio (x) = 0.46463 0.19331
# Poissons Ratio (y) = 0.46463 0.19331
# Poissons Ratio (z) = 0.17102 0.17102
#
# Static dielectric constant tensor:
#      x y z
#    x 1.662610 0.000000 0.000000 
#    y 0.000000 1.662610 0.000000 
#    z 0.000000 0.000000 1.670570 
# 
# From -- ./inp_files/990.got.cif
#   From: 2010.05.17/outbox.cif.g08.bks.cpg/sg114_1_cif.got.tgz:990.got - 2010.05.20 11:04:54.
