data_PCOD9556473
_publ_section_title
;
Structure prediction by ZEFSAII (Michael W. Deem and Ramdas Pophale) SiO2 
 PCOD9556473
Probable space group: P -4 21 C
;
_chemical_formula_sum "Si O2"
_cell_formula_units_Z 40
_cell_length_a 9.253144
_cell_length_b 9.253144
_cell_length_c 22.228293
_cell_angle_alpha 90.000000
_cell_angle_beta 90.000000
_cell_angle_gamma 90.000000
_cell_volume 1903.201426
_symmetry_space_group_name_H-M "P -4 21 C"
_symmetry_group_IT_number 114
_symmetry_cell_setting 'tetragonal'
loop_
_space_group_symop_operation_xyz
x,y,z
y,-x,-z
-x,-y,z
-y,x,-z
1/2+x,1/2-y,1/2-z
1/2-x,1/2+y,1/2-z
1/2-y,1/2-x,1/2+z
1/2+y,1/2+x,1/2+z
loop_
_atom_site_type_symbol
_atom_site_label
_atom_site_fract_x
_atom_site_fract_y
_atom_site_fract_z
Si Si1 0.000000 0.000000 0.000000
Si Si2 0.585493 0.231809 0.581222
Si Si3 0.000000 0.500000 0.511409
Si Si4 0.926238 0.843049 0.702915
Si Si5 0.247550 0.097730 0.408809
Si Si6 0.500000 0.500000 0.000000
Si Si7 0.653937 0.920579 0.195872
O O1 0.876095 0.060728 0.043482
O O2 0.739137 0.231167 0.615158
O O3 0.456993 0.203834 0.627989
O O4 0.588082 0.104775 0.532257
O O5 0.089022 0.605816 0.553762
O O6 0.752130 0.852463 0.706280
O O7 0.979137 0.758235 0.643405
O O8 0.999801 0.763969 0.759277
O O9 0.000000 0.000000 0.697524
O O10 0.121152 0.064311 0.456136
O O11 0.500000 0.000000 0.203929
#
# Coordination Sequence:
#
# PCOD9556473 Si02
#       7
#     2   8   4   8   8   2   8
#     4  12  28  44  70 104 152 188 240 290 368 420
#     4  12  26  46  70 106 145 191 236 298 358 438
#     4  12  26  42  70 104 146 184 236 288 360 426
#     4  12  28  50  77 106 141 190 245 303 370 436
#     4  12  26  44  72 104 145 187 239 295 360 434
#     4  12  24  40  70 104 140 180 232 286 360 428
#     4  12  28  50  77 104 145 188 246 304 366 441
#
# _framework density 21.017216000000001
#
# number of rings (size 3 to 8) (size 9 to 14) (size 15 to 20)
#    0.000    0.000    6.000    3.600    8.400    0.000 
#    0.000    0.000    0.000    0.000    0.000    0.000 
#    0.000    0.000    0.000    0.000    0.000    0.000 
#
# Total GULP energy -223840.348851 kJ/mol
# GULP energy per Si atom -5596.008721 kJ/mol
# Density = 2.096938 g / cm^3
# Si number density = 21.017216 Si / 1000 Ang^3
#
#
#
# Elastic Constant Matrix: (Units=GPa)
#
#
# Indices 1 2 3 4 5 6 
#
# 1 120.4147 5.1965 11.4126 0.0000 0.0000 0.0000
# 2 5.1965 120.4147 11.4126 0.0000 0.0000 0.0000
# 3 11.4126 11.4126 67.4871 0.0000 0.0000 0.0000
# 4 0.0000 0.0000 0.0000 33.7839 0.0000 0.0000
# 5 0.0000 0.0000 0.0000 0.0000 33.7839 0.0000
# 6 0.0000 0.0000 0.0000 0.0000 0.0000 13.5551
#
#
#
# Elastic Compliance Matrix: (Units=1/GPa)
#
#
# Indices 1 2 3 4 5 6 
#
# 1 0.008446 -0.000233 -0.001389 0.000000 0.000000 0.000000
# 2 -0.000233 0.008446 -0.001389 0.000000 0.000000 0.000000
# 3 -0.001389 -0.001389 0.015287 0.000000 0.000000 0.000000
# 4 0.000000 0.000000 0.000000 0.029600 0.000000 0.000000
# 5 0.000000 0.000000 0.000000 0.000000 0.029600 0.000000
# 6 0.000000 0.000000 0.000000 0.000000 0.000000 0.073773
#
#
# Mechanical properties :
#
#
# Convention : Reuss Voigt Hill
#
# Bulk Modulus (GPa) = 38.22847 40.48442 39.35645
# Shear Modulus (GPa) = 27.79417 34.91089 31.35253
#
# Velocity S-wave (km/s) = 3.64049 4.08003 3.86651
# Velocity P-wave (km/s) = 5.99162 6.44204 6.22091
#
# Compressibility (1/GPa) = 0.02615851
#
# Stress axis : x y z
#
# Youngs Moduli (GPa) = 118.39470 118.39470 65.41325
#
# Poissons Ratio (x) = 0.02757 0.09086
# Poissons Ratio (y) = 0.02757 0.09086
# Poissons Ratio (z) = 0.16445 0.16445
#
# Static dielectric constant tensor:
#      x y z
#    x 1.767860 0.000000 0.000000 
#    y 0.000000 1.767860 0.000000 
#    z 0.000000 0.000000 1.723090 
# 
# From -- ./inp_files/3470.got.cif
#   From: 2010.05.17/outbox.cif.g08.bks.cpg/sg114_2_cif.got.tgz:3470.got - 2010.05.20 11:04:54.
