data_PCOD9556192
_publ_section_title
;
Structure prediction by ZEFSAII (Michael W. Deem and Ramdas Pophale) SiO2 
 PCOD9556192
Probable space group: P -4 21 C
;
_chemical_formula_sum "Si O2"
_cell_formula_units_Z 32
_cell_length_a 9.205461
_cell_length_b 9.205461
_cell_length_c 18.862742
_cell_angle_alpha 90.000000
_cell_angle_beta 90.000000
_cell_angle_gamma 90.000000
_cell_volume 1598.438419
_symmetry_space_group_name_H-M "P -4 21 C"
_symmetry_group_IT_number 114
_symmetry_cell_setting 'tetragonal'
loop_
_space_group_symop_operation_xyz
x,y,z
y,-x,-z
-x,-y,z
-y,x,-z
1/2+x,1/2-y,1/2-z
1/2-x,1/2+y,1/2-z
1/2-y,1/2-x,1/2+z
1/2+y,1/2+x,1/2+z
loop_
_atom_site_type_symbol
_atom_site_label
_atom_site_fract_x
_atom_site_fract_y
_atom_site_fract_z
Si Si1 0.153093 0.325110 0.065419
Si Si2 0.631352 0.388809 0.192120
Si Si3 0.659531 0.824115 0.947461
Si Si4 0.601649 0.138698 0.779373
O O1 0.161626 0.489101 0.035680
O O2 0.199886 0.333184 0.147071
O O3 0.984535 0.281446 0.068963
O O4 0.251581 0.232902 0.013938
O O5 0.500000 0.500000 0.175790
O O6 0.719268 0.341976 0.121194
O O7 0.737724 0.486018 0.242515
O O8 0.596014 0.236231 0.230129
O O9 0.500000 0.000000 0.795852
#
# Coordination Sequence:
#
# PCOD9556192 Si02
#       4
#     8   8   8   8
#     4  10  22  43  64  89 131 165 212 270 318 386
#     4  11  24  40  70  99 128 180 219 272 338 401
#     4  10  23  42  62  93 126 169 215 265 324 388
#     4  11  22  46  63  94 137 167 219 278 329 397
#
# _framework density 20.019539999999999
#
# number of rings (size 3 to 8) (size 9 to 14) (size 15 to 20)
#    0.000    1.500    5.000    1.500    7.000    2.500 
#    4.500    0.000    0.000    0.000    0.000    0.000 
#    0.000    0.000    0.000    0.000    0.000    0.000 
#
# Total GULP energy -178363.186441 kJ/mol
# GULP energy per Si atom -5573.849576 kJ/mol
# Density = 1.997397 g / cm^3
# Si number density = 20.019540 Si / 1000 Ang^3
#
#
#
# Elastic Constant Matrix: (Units=GPa)
#
#
# Indices 1 2 3 4 5 6 
#
# 1 75.2586 34.5029 48.5716 0.0000 0.0000 0.0000
# 2 34.5029 75.2586 48.5716 0.0000 0.0000 0.0000
# 3 48.5716 48.5716 81.9546 0.0000 0.0000 0.0000
# 4 0.0000 0.0000 0.0000 30.5245 0.0000 0.0000
# 5 0.0000 0.0000 0.0000 0.0000 30.5245 0.0000
# 6 0.0000 0.0000 0.0000 0.0000 0.0000 35.8194
#
#
#
# Elastic Compliance Matrix: (Units=1/GPa)
#
#
# Indices 1 2 3 4 5 6 
#
# 1 0.021849 -0.002688 -0.011356 0.000000 0.000000 0.000000
# 2 -0.002688 0.021849 -0.011356 0.000000 0.000000 0.000000
# 3 -0.011356 -0.011356 0.025663 0.000000 0.000000 0.000000
# 4 0.000000 0.000000 0.000000 0.032761 0.000000 0.000000
# 5 0.000000 0.000000 0.000000 0.000000 0.032761 0.000000
# 6 0.000000 0.000000 0.000000 0.000000 0.000000 0.027918
#
#
# Mechanical properties :
#
#
# Convention : Reuss Voigt Hill
#
# Bulk Modulus (GPa) = 53.87790 55.08490 54.48140
# Shear Modulus (GPa) = 22.74930 26.09538 24.42234
#
# Velocity S-wave (km/s) = 3.37464 3.61431 3.49653
# Velocity P-wave (km/s) = 6.49272 6.70768 6.60107
#
# Compressibility (1/GPa) = 0.01856049
#
# Stress axis : x y z
#
# Youngs Moduli (GPa) = 45.76874 45.76874 38.96679
#
# Poissons Ratio (x) = 0.12300 0.44252
# Poissons Ratio (y) = 0.12300 0.44252
# Poissons Ratio (z) = 0.51977 0.51977
#
# Static dielectric constant tensor:
#      x y z
#    x 1.735040 0.000000 0.000000 
#    y 0.000000 1.735040 0.000000 
#    z 0.000000 0.000000 1.698790 
# 
# From -- ./inp_files/2821.got.cif
#   From: 2010.05.17/outbox.cif.g08.bks.cpg/sg114_2_cif.got.tgz:2821.got - 2010.05.20 11:04:54.
