data_PCOD9556382
_publ_section_title
;
Structure prediction by ZEFSAII (Michael W. Deem and Ramdas Pophale) SiO2 
 PCOD9556382
Probable space group: P -4 21 C
;
_chemical_formula_sum "Si O2"
_cell_formula_units_Z 56
_cell_length_a 14.566178
_cell_length_b 14.566178
_cell_length_c 13.257789
_cell_angle_alpha 90.000000
_cell_angle_beta 90.000000
_cell_angle_gamma 90.000000
_cell_volume 2812.952045
_symmetry_space_group_name_H-M "P -4 21 C"
_symmetry_group_IT_number 114
_symmetry_cell_setting 'tetragonal'
loop_
_space_group_symop_operation_xyz
x,y,z
y,-x,-z
-x,-y,z
-y,x,-z
1/2+x,1/2-y,1/2-z
1/2-x,1/2+y,1/2-z
1/2-y,1/2-x,1/2+z
1/2+y,1/2+x,1/2+z
loop_
_atom_site_type_symbol
_atom_site_label
_atom_site_fract_x
_atom_site_fract_y
_atom_site_fract_z
Si Si1 0.765804 0.062140 0.810664
Si Si2 0.379041 0.274539 0.783922
Si Si3 0.128892 0.304030 0.981337
Si Si4 0.071649 0.660007 0.911576
Si Si5 0.963858 0.148435 0.512131
Si Si6 0.765665 0.857367 0.893132
Si Si7 0.311960 0.983713 0.608550
O O1 0.841974 0.128261 0.760442
O O2 0.691435 0.046863 0.723711
O O3 0.790708 0.958502 0.849225
O O4 0.723842 0.118704 0.903063
O O5 0.422436 0.217593 0.691803
O O6 0.438839 0.301376 0.882452
O O7 0.299461 0.204739 0.822316
O O8 0.152445 0.211602 0.920646
O O9 0.192680 0.391021 0.958004
O O10 0.032308 0.341472 0.945137
O O11 0.108195 0.556734 0.905597
O O12 0.125287 0.712521 0.001357
O O13 0.064968 0.104652 0.510232
O O14 0.960153 0.221126 0.421721
#
# Coordination Sequence:
#
# PCOD9556382 Si02
#       7
#     8   8   8   8   8   8   8
#     4  11  24  41  71 101 130 181 230 270 342 415
#     4  12  22  43  70  96 133 183 222 278 345 401
#     4  11  25  44  68  97 137 179 221 280 343 408
#     4  11  25  43  65 102 135 173 230 278 339 409
#     4  11  24  40  64 100 134 170 223 284 337 396
#     4  11  22  43  67  96 136 177 221 280 333 401
#     4  12  23  44  70  98 136 173 227 283 337 407
#
# _framework density 19.907910999999999
#
# number of rings (size 3 to 8) (size 9 to 14) (size 15 to 20)
#    0.000    0.714    7.143    0.429    0.000    2.286 
#    0.000    1.429    0.000    0.000    0.000    0.000 
#    0.000    0.000    0.000    0.000    0.000    0.000 
#
# Total GULP energy -312456.154086 kJ/mol
# GULP energy per Si atom -5579.574180 kJ/mol
# Density = 1.986260 g / cm^3
# Si number density = 19.907911 Si / 1000 Ang^3
#
#
#
# Elastic Constant Matrix: (Units=GPa)
#
#
# Indices 1 2 3 4 5 6 
#
# 1 50.4525 9.4175 1.2025 0.0000 0.0000 0.0000
# 2 9.4175 50.4525 1.2025 0.0000 0.0000 0.0000
# 3 1.2025 1.2025 77.7279 0.0000 0.0000 0.0000
# 4 0.0000 0.0000 0.0000 27.3979 0.0000 0.0000
# 5 0.0000 0.0000 0.0000 0.0000 27.3979 0.0000
# 6 0.0000 0.0000 0.0000 0.0000 0.0000 34.4776
#
#
#
# Elastic Compliance Matrix: (Units=1/GPa)
#
#
# Indices 1 2 3 4 5 6 
#
# 1 0.020541 -0.003828 -0.000259 0.000000 0.000000 0.000000
# 2 -0.003828 0.020541 -0.000259 0.000000 0.000000 0.000000
# 3 -0.000259 -0.000259 0.012873 0.000000 0.000000 0.000000
# 4 0.000000 0.000000 0.000000 0.036499 0.000000 0.000000
# 5 0.000000 0.000000 0.000000 0.000000 0.036499 0.000000
# 6 0.000000 0.000000 0.000000 0.000000 0.000000 0.029004
#
#
# Mechanical properties :
#
#
# Convention : Reuss Voigt Hill
#
# Bulk Modulus (GPa) = 22.09182 22.47533 22.28357
# Shear Modulus (GPa) = 27.81831 28.97537 28.39684
#
# Velocity S-wave (km/s) = 3.74217 3.81920 3.78088
# Velocity P-wave (km/s) = 5.45828 5.54640 5.50252
#
# Compressibility (1/GPa) = 0.04526561
#
# Stress axis : x y z
#
# Youngs Moduli (GPa) = 48.68233 48.68233 77.67955
#
# Poissons Ratio (x) = 0.18636 0.02009
# Poissons Ratio (y) = 0.18636 0.02009
# Poissons Ratio (z) = 0.01259 0.01259
#
# Static dielectric constant tensor:
#      x y z
#    x 1.742050 0.000000 0.000000 
#    y 0.000000 1.742050 0.000000 
#    z 0.000000 0.000000 1.726730 
# 
# From -- ./inp_files/1743.got.cif
#   From: 2010.05.17/outbox.cif.g08.bks.cpg/sg114_1_cif.got.tgz:1743.got - 2010.05.20 11:04:54.
