data_PCOD9556736
_publ_section_title
;
Structure prediction by ZEFSAII (Michael W. Deem and Ramdas Pophale) SiO2 
 PCOD9556736
Probable space group: P -4 M 2
;
_chemical_formula_sum "Si O2"
_cell_formula_units_Z 48
_cell_length_a 7.839857
_cell_length_b 7.839857
_cell_length_c 36.729359
_cell_angle_alpha 90.000000
_cell_angle_beta 90.000000
_cell_angle_gamma 90.000000
_cell_volume 2257.509733
_symmetry_space_group_name_H-M "P -4 M 2"
_symmetry_group_IT_number 115
_symmetry_cell_setting 'tetragonal'
loop_
_space_group_symop_operation_xyz
x,y,z
y,-x,-z
-x,-y,z
-y,x,-z
y,x,-z
-y,-x,-z
-x,y,z
x,-y,z
loop_
_atom_site_type_symbol
_atom_site_label
_atom_site_fract_x
_atom_site_fract_y
_atom_site_fract_z
Si Si1 0.290673 0.696957 0.381062
Si Si2 0.305746 0.703706 0.116137
Si Si3 0.799019 0.690092 0.960377
Si Si4 0.000000 0.705805 0.670952
Si Si5 0.000000 0.794622 0.755377
Si Si6 0.693481 0.797659 0.804216
Si Si7 0.699083 0.291631 0.461051
O O1 0.500000 0.696882 0.382170
O O2 0.239645 0.500000 0.374561
O O3 0.229910 0.753523 0.421451
O O4 0.235775 0.831082 0.350664
O O5 0.500000 0.771734 0.114957
O O6 0.311410 0.500000 0.118229
O O7 0.221536 0.742414 0.077125
O O8 0.226720 0.758723 0.154345
O O9 0.719902 0.500000 0.960375
O O10 0.000000 0.677269 0.957183
O O11 0.763988 0.763988 0.000000
O O12 0.000000 0.757108 0.712825
O O13 0.000000 0.500000 0.669409
O O14 0.169070 0.727842 0.775828
O O15 0.000000 0.000000 0.759900
O O16 0.500000 0.726854 0.800837
O O17 0.680381 0.000000 0.798273
O O18 0.769848 0.230153 0.500000
O O19 0.500000 0.239992 0.460607
O O20 0.702291 0.500000 0.461955
#
# Coordination Sequence:
#
# PCOD9556736 Si02
#       7
#     8   8   8   4   4   8   8
#     4   8  14  25  41  65  99 131 162 206 255 306
#     4   9  18  33  54  79 104 131 163 202 255 310
#     4  10  21  35  51  74 104 139 177 213 248 294
#     4  10  20  32  48  74 100 128 168 210 258 308
#     4  10  22  38  54  74 100 132 170 206 256 314
#     4   9  19  36  56  77 101 129 165 209 256 312
#     4   7   9  15  31  57  87 119 155 192 234 287
#
# _framework density 21.262364000000002
#
# number of rings (size 3 to 8) (size 9 to 14) (size 15 to 20)
#    0.000    3.167    0.000    2.000    1.167    3.000 
#    0.000    1.667    0.000    0.000    2.167    0.000 
#    0.000    0.000    0.000    0.000    0.000    0.000 
#
# Total GULP energy -267372.412850 kJ/mol
# GULP energy per Si atom -5570.258601 kJ/mol
# Density = 2.121397 g / cm^3
# Si number density = 21.262364 Si / 1000 Ang^3
#
#
#
# Elastic Constant Matrix: (Units=GPa)
#
#
# Indices 1 2 3 4 5 6 
#
# 1 48.1745 16.8403 50.5208 0.0000 0.0000 0.0000
# 2 16.8403 48.1745 50.5208 0.0000 0.0000 0.0000
# 3 50.5208 50.5208 231.4509 0.0000 0.0000 0.0000
# 4 0.0000 0.0000 0.0000 15.2423 0.0000 0.0000
# 5 0.0000 0.0000 0.0000 0.0000 15.2421 0.0000
# 6 0.0000 0.0000 0.0000 0.0000 0.0000 2.3790
#
#
#
# Elastic Compliance Matrix: (Units=1/GPa)
#
#
# Indices 1 2 3 4 5 6 
#
# 1 0.027596 -0.004318 -0.005081 0.000000 0.000000 0.000000
# 2 -0.004318 0.027596 -0.005081 0.000000 0.000000 0.000000
# 3 -0.005081 -0.005081 0.006539 0.000000 0.000000 0.000000
# 4 0.000000 0.000000 0.000000 0.065607 0.000000 0.000000
# 5 0.000000 0.000000 0.000000 0.000000 0.065608 0.000000
# 6 0.000000 0.000000 0.000000 0.000000 0.000000 0.420339
#
#
# Mechanical properties :
#
#
# Convention : Reuss Voigt Hill
#
# Bulk Modulus (GPa) = 30.51572 62.61819 46.56696
# Shear Modulus (GPa) = 7.65499 20.56721 14.11110
#
# Velocity S-wave (km/s) = 1.89949 3.11353 2.57897
# Velocity P-wave (km/s) = 4.38108 6.51457 5.55128
#
# Compressibility (1/GPa) = 0.03277000
#
# Stress axis : x y z
#
# Youngs Moduli (GPa) = 36.23729 36.23731 152.93500
#
# Poissons Ratio (x) = 0.15648 0.77707
# Poissons Ratio (y) = 0.15648 0.77707
# Poissons Ratio (z) = 0.18412 0.18412
#
# Static dielectric constant tensor:
#      x y z
#    x 1.786780 0.000000 0.000000 
#    y 0.000000 1.786780 0.000000 
#    z 0.000000 0.000000 1.795650 
# 
# From -- ./inp_files/6186.got.cif
#   From: 2010.05.17/outbox.cif.g08.bks.cpg/sg115_4_cif.got.tgz:6186.got - 2010.05.20 11:07:42.
