data_PCOD9556718
_publ_section_title
;
Structure prediction by ZEFSAII (Michael W. Deem and Ramdas Pophale) SiO2 
 PCOD9556718
Probable space group: P -4 M 2
;
_chemical_formula_sum "Si O2"
_cell_formula_units_Z 48
_cell_length_a 9.328612
_cell_length_b 9.328612
_cell_length_c 32.137754
_cell_angle_alpha 90.000000
_cell_angle_beta 90.000000
_cell_angle_gamma 90.000000
_cell_volume 2796.723826
_symmetry_space_group_name_H-M "P -4 M 2"
_symmetry_group_IT_number 115
_symmetry_cell_setting 'tetragonal'
loop_
_space_group_symop_operation_xyz
x,y,z
y,-x,-z
-x,-y,z
-y,x,-z
y,x,-z
-y,-x,-z
-x,y,z
x,-y,z
loop_
_atom_site_type_symbol
_atom_site_label
_atom_site_fract_x
_atom_site_fract_y
_atom_site_fract_z
Si Si1 0.334647 0.325502 0.545831
Si Si2 0.671531 0.331772 0.121683
Si Si3 0.328657 0.830064 0.037386
Si Si4 0.671768 0.169061 0.371304
Si Si5 0.669299 0.827265 0.703068
Si Si6 0.674368 0.834656 0.795790
O O1 0.281019 0.281019 0.500000
O O2 0.500000 0.279555 0.551516
O O3 0.335368 0.500000 0.544473
O O4 0.240595 0.281747 0.585098
O O5 0.500000 0.323179 0.125992
O O6 0.708883 0.500000 0.115299
O O7 0.713865 0.241306 0.081296
O O8 0.743515 0.280556 0.164445
O O9 0.500000 0.806215 0.032092
O O10 0.303284 0.000000 0.037976
O O11 0.244980 0.755021 0.000000
O O12 0.500000 0.191201 0.367372
O O13 0.750860 0.243425 0.332973
O O14 0.699232 0.000000 0.371904
O O15 0.500000 0.793545 0.698745
O O16 0.718169 0.784041 0.749729
O O17 0.682998 0.000000 0.700644
O O18 0.500000 0.832464 0.795042
O O19 0.718349 0.000000 0.800890
#
# Coordination Sequence:
#
# PCOD9556718 Si02
#       6
#     8   8   8   8   8   8
#     4   8  14  27  48  70  91 120 160 203 244 286
#     4   9  17  30  50  75 100 126 158 197 242 291
#     4  10  21  36  53  74 101 133 167 203 244 289
#     4  10  20  32  47  71 102 132 161 196 242 293
#     4   9  18  33  52  73  97 128 167 206 242 284
#     4   8  15  29  49  72  96 122 157 201 243 284
#
# _framework density 17.162939999999999
#
# number of rings (size 3 to 8) (size 9 to 14) (size 15 to 20)
#    0.000    3.000    0.000    2.500    0.000    3.667 
#    0.000    5.000    0.000    6.000    0.000    0.000 
#    0.000    0.000    0.000    0.000    0.000    0.000 
#
# Total GULP energy -267477.401095 kJ/mol
# GULP energy per Si atom -5572.445856 kJ/mol
# Density = 1.712388 g / cm^3
# Si number density = 17.162940 Si / 1000 Ang^3
#
#
#
# Elastic Constant Matrix: (Units=GPa)
#
#
# Indices 1 2 3 4 5 6 
#
# 1 46.9987 41.6255 77.6126 0.0000 0.0000 0.0000
# 2 41.6255 46.9994 77.6123 0.0000 0.0000 0.0000
# 3 77.6126 77.6123 222.9339 0.0000 0.0000 0.0000
# 4 0.0000 0.0000 0.0000 -16.2737 0.0000 0.0000
# 5 0.0000 0.0000 0.0000 0.0000 -16.2725 0.0000
# 6 0.0000 0.0000 0.0000 0.0000 0.0000 17.8900
#
#
#
# Elastic Compliance Matrix: (Units=1/GPa)
#
#
# Indices 1 2 3 4 5 6 
#
# 1 0.107508 -0.078590 -0.010068 0.000000 0.000000 0.000000
# 2 -0.078590 0.107503 -0.010065 0.000000 0.000000 0.000000
# 3 -0.010068 -0.010065 0.011495 0.000000 0.000000 0.000000
# 4 0.000000 0.000000 0.000000 -0.061449 0.000000 0.000000
# 5 0.000000 0.000000 0.000000 0.000000 -0.061454 0.000000
# 6 0.000000 0.000000 0.000000 0.000000 0.000000 0.055897
#
#
# Mechanical properties :
#
#
# Convention : Reuss Voigt Hill
#
# Bulk Modulus (GPa) = 34.41318 78.95920 56.68619
# Shear Modulus (GPa) = 13.63762 5.07421 9.35592
#
# Velocity S-wave (km/s) = 2.82192 1.72131 2.33732
# Velocity P-wave (km/s) = 5.54184 7.07503 6.35484
#
# Compressibility (1/GPa) = 0.02905864
#
# Stress axis : x y z
#
# Youngs Moduli (GPa) = 9.30164 9.30210 86.99639
#
# Poissons Ratio (x) = 0.73106 0.87584
# Poissons Ratio (y) = 0.73102 0.87565
# Poissons Ratio (z) = 0.09364 0.09363
#
# Static dielectric constant tensor:
#      x y z
#    x 1.568860 0.000000 0.000000 
#    y 0.000000 1.568860 0.000000 
#    z 0.000000 0.000000 1.580900 
# 
# From -- ./inp_files/6041.got.cif
#   From: 2010.05.17/outbox.cif.g08.bks.cpg/sg115_4_cif.got.tgz:6041.got - 2010.05.20 11:07:42.
