data_PCOD9556111
_publ_section_title
;
Structure prediction by ZEFSAII (Michael W. Deem and Ramdas Pophale) SiO2 
 PCOD9556111
Probable space group: P -4 21 C
;
_chemical_formula_sum "Si O2"
_cell_formula_units_Z 40
_cell_length_a 7.448623
_cell_length_b 7.448623
_cell_length_c 27.424308
_cell_angle_alpha 90.000000
_cell_angle_beta 90.000000
_cell_angle_gamma 90.000000
_cell_volume 1521.555034
_symmetry_space_group_name_H-M "P -4 21 C"
_symmetry_group_IT_number 114
_symmetry_cell_setting 'tetragonal'
loop_
_space_group_symop_operation_xyz
x,y,z
y,-x,-z
-x,-y,z
-y,x,-z
1/2+x,1/2-y,1/2-z
1/2-x,1/2+y,1/2-z
1/2-y,1/2-x,1/2+z
1/2+y,1/2+x,1/2+z
loop_
_atom_site_type_symbol
_atom_site_label
_atom_site_fract_x
_atom_site_fract_y
_atom_site_fract_z
Si Si1 0.542552 0.696192 0.575955
Si Si2 0.562962 0.206149 0.683563
Si Si3 0.707581 0.623246 0.967941
Si Si4 0.943332 0.712445 0.608529
Si Si5 0.785751 0.467237 0.211122
O O1 0.500000 0.500000 0.556942
O O2 0.481745 0.705193 0.632455
O O3 0.407076 0.816780 0.544709
O O4 0.754687 0.723991 0.581124
O O5 0.483791 0.285182 0.734021
O O6 0.772970 0.231879 0.692403
O O7 0.500000 0.000000 0.679078
O O8 0.719849 0.431094 0.994813
O O9 0.596334 0.667734 0.917829
O O10 0.000000 0.500000 0.608066
O O11 0.911077 0.770122 0.664988
O O12 0.000000 0.500000 0.215667
#
# Coordination Sequence:
#
# PCOD9556111 Si02
#       5
#     8   8   8   8   8
#     4  12  24  50  87 122 171 227 285 357 446 528
#     4  11  24  43  77 126 173 230 284 358 438 531
#     4  11  27  51  80 115 166 220 288 364 431 510
#     4  11  22  46  81 119 168 224 286 361 437 526
#     4  10  21  44  73 119 175 227 286 349 435 530
#
# _framework density 26.288893999999999
#
# number of rings (size 3 to 8) (size 9 to 14) (size 15 to 20)
#    0.000    1.000    4.000    2.400    0.000    6.400 
#    0.000    4.000    0.000    0.000    0.000    0.000 
#    0.000    0.000    0.000    0.000    0.000    0.000 
#
# Total GULP energy -223706.545103 kJ/mol
# GULP energy per Si atom -5592.663628 kJ/mol
# Density = 2.622906 g / cm^3
# Si number density = 26.288894 Si / 1000 Ang^3
#
#
#
# Elastic Constant Matrix: (Units=GPa)
#
#
# Indices 1 2 3 4 5 6 
#
# 1 141.0580 42.8622 46.9944 0.0000 0.0000 0.0000
# 2 42.8622 141.0580 46.9944 0.0000 0.0000 0.0000
# 3 46.9944 46.9944 185.0720 0.0000 0.0000 0.0000
# 4 0.0000 0.0000 0.0000 58.7065 0.0000 0.0000
# 5 0.0000 0.0000 0.0000 0.0000 58.7065 0.0000
# 6 0.0000 0.0000 0.0000 0.0000 0.0000 26.7792
#
#
#
# Elastic Compliance Matrix: (Units=1/GPa)
#
#
# Indices 1 2 3 4 5 6 
#
# 1 0.008216 -0.001968 -0.001586 0.000000 0.000000 0.000000
# 2 -0.001968 0.008216 -0.001586 0.000000 0.000000 0.000000
# 3 -0.001586 -0.001586 0.006209 0.000000 0.000000 0.000000
# 4 0.000000 0.000000 0.000000 0.017034 0.000000 0.000000
# 5 0.000000 0.000000 0.000000 0.000000 0.017034 0.000000
# 6 0.000000 0.000000 0.000000 0.000000 0.000000 0.037342
#
#
# Mechanical properties :
#
#
# Convention : Reuss Voigt Hill
#
# Bulk Modulus (GPa) = 80.91400 82.32111 81.61756
# Shear Modulus (GPa) = 46.10325 50.86091 48.48208
#
# Velocity S-wave (km/s) = 4.19228 4.40329 4.29908
# Velocity P-wave (km/s) = 7.36744 7.56531 7.46703
#
# Compressibility (1/GPa) = 0.01235880
#
# Stress axis : x y z
#
# Youngs Moduli (GPa) = 121.71659 121.71659 161.05645
#
# Poissons Ratio (x) = 0.23953 0.25552
# Poissons Ratio (y) = 0.23953 0.25552
# Poissons Ratio (z) = 0.19310 0.19310
#
# Static dielectric constant tensor:
#      x y z
#    x 2.056610 0.000000 0.000000 
#    y 0.000000 2.056610 0.000000 
#    z 0.000000 0.000000 2.141520 
# 
# From -- ./inp_files/3340.got.cif
#   From: 2010.05.17/outbox.cif.g08.bks.cpg/sg114_2_cif.got.tgz:3340.got - 2010.05.20 11:04:54.
