data_PCOD9556776
_publ_section_title
;
Structure prediction by ZEFSAII (Michael W. Deem and Ramdas Pophale) SiO2 
 PCOD9556776
Probable space group: P -4 M 2
;
_chemical_formula_sum "Si O2"
_cell_formula_units_Z 37
_cell_length_a 7.959408
_cell_length_b 7.959408
_cell_length_c 28.090215
_cell_angle_alpha 90.000000
_cell_angle_beta 90.000000
_cell_angle_gamma 90.000000
_cell_volume 1779.576236
_symmetry_space_group_name_H-M "P -4 M 2"
_symmetry_group_IT_number 115
_symmetry_cell_setting 'tetragonal'
loop_
_space_group_symop_operation_xyz
x,y,z
y,-x,-z
-x,-y,z
-y,x,-z
y,x,-z
-y,-x,-z
-x,y,z
x,-y,z
loop_
_atom_site_type_symbol
_atom_site_label
_atom_site_fract_x
_atom_site_fract_y
_atom_site_fract_z
Si Si1 0.692826 0.301639 0.151018
Si Si2 0.000000 0.000000 0.500000
Si Si3 0.000000 0.293786 0.423499
Si Si4 0.688806 0.198217 0.051160
Si Si5 0.692856 0.699490 0.354745
Si Si6 0.199148 0.307203 0.748616
O O1 0.500000 0.229232 0.149252
O O2 0.681266 0.500000 0.154595
O O3 0.772743 0.261714 0.099864
O O4 0.772741 0.240918 0.200384
O O5 0.000000 0.170945 0.468666
O O6 0.832721 0.248968 0.392910
O O7 0.000000 0.500000 0.431820
O O8 0.500000 0.272413 0.049579
O O9 0.678668 0.000000 0.056512
O O10 0.766794 0.233207 0.000000
O O11 0.500000 0.769166 0.359290
O O12 0.678461 0.500000 0.359592
O O13 0.759839 0.734857 0.301376
O O14 0.267001 0.500000 0.750952
O O15 0.000000 0.313356 0.744807
#
# Coordination Sequence:
#
# PCOD9556776 Si02
#       6
#     8   1   4   8   8   8
#     4   9  16  27  46  73 105 138 177 227 279 337
#     4  12  28  44  68  96 124 172 212 256 314 360
#     4  10  24  44  64  94 130 164 212 263 305 360
#     4  10  20  33  50  71  96 131 175 225 279 339
#     4   9  18  35  60  88 121 162 204 249 303 358
#     4   9  16  26  46  80 116 150 188 230 280 343
#
# _framework density 20.791466
#
# number of rings (size 3 to 8) (size 9 to 14) (size 15 to 20)
#    0.000    2.595    0.000    1.946    1.514    7.351 
#    0.000    0.000    2.378    0.000    0.000    0.000 
#    0.000    0.000    0.000    0.000    0.000    0.000 
#
# Total GULP energy -206095.920554 kJ/mol
# GULP energy per Si atom -5570.160015 kJ/mol
# Density = 2.074414 g / cm^3
# Si number density = 20.791466 Si / 1000 Ang^3
#
#
#
# Elastic Constant Matrix: (Units=GPa)
#
#
# Indices 1 2 3 4 5 6 
#
# 1 50.9773 18.5211 47.9898 0.0000 0.0000 0.0000
# 2 18.5211 50.9774 47.9903 0.0000 0.0000 0.0000
# 3 47.9898 47.9903 186.1593 0.0000 0.0000 0.0000
# 4 0.0000 0.0000 0.0000 12.0507 0.0000 0.0000
# 5 0.0000 0.0000 0.0000 0.0000 12.0510 0.0000
# 6 0.0000 0.0000 0.0000 0.0000 0.0000 7.1616
#
#
#
# Elastic Compliance Matrix: (Units=1/GPa)
#
#
# Indices 1 2 3 4 5 6 
#
# 1 0.026577 -0.004234 -0.005760 0.000000 0.000000 0.000000
# 2 -0.004234 0.026577 -0.005760 0.000000 0.000000 0.000000
# 3 -0.005760 -0.005760 0.008341 0.000000 0.000000 0.000000
# 4 0.000000 0.000000 0.000000 0.082983 0.000000 0.000000
# 5 0.000000 0.000000 0.000000 0.000000 0.082981 0.000000
# 6 0.000000 0.000000 0.000000 0.000000 0.000000 0.139634
#
#
# Mechanical properties :
#
#
# Convention : Reuss Voigt Hill
#
# Bulk Modulus (GPa) = 33.34584 57.45737 45.40161
# Shear Modulus (GPa) = 12.23700 17.82683 15.03192
#
# Velocity S-wave (km/s) = 2.42866 2.93133 2.69175
# Velocity P-wave (km/s) = 4.89260 6.25716 5.61647
#
# Compressibility (1/GPa) = 0.02998875
#
# Stress axis : x y z
#
# Youngs Moduli (GPa) = 37.62641 37.62626 119.88311
#
# Poissons Ratio (x) = 0.15929 0.69051
# Poissons Ratio (y) = 0.15929 0.69053
# Poissons Ratio (z) = 0.21672 0.21673
#
# Static dielectric constant tensor:
#      x y z
#    x 1.752980 0.000000 0.000000 
#    y 0.000000 1.752980 0.000000 
#    z 0.000000 0.000000 1.789780 
# 
# From -- ./inp_files/5157.got.cif
#   From: 2010.05.17/outbox.cif.g08.bks.cpg/sg115_3_cif.got.tgz:5157.got - 2010.05.20 11:07:42.
