data_PCOD9556080
_publ_section_title
;
Structure prediction by ZEFSAII (Michael W. Deem and Ramdas Pophale) SiO2 
 PCOD9556080
Probable space group: P -4 21 C
;
_chemical_formula_sum "Si O2"
_cell_formula_units_Z 50
_cell_length_a 21.328697
_cell_length_b 21.328697
_cell_length_c 5.176161
_cell_angle_alpha 90.000000
_cell_angle_beta 90.000000
_cell_angle_gamma 90.000000
_cell_volume 2354.704563
_symmetry_space_group_name_H-M "P -4 21 C"
_symmetry_group_IT_number 114
_symmetry_cell_setting 'tetragonal'
loop_
_space_group_symop_operation_xyz
x,y,z
y,-x,-z
-x,-y,z
-y,x,-z
1/2+x,1/2-y,1/2-z
1/2-x,1/2+y,1/2-z
1/2-y,1/2-x,1/2+z
1/2+y,1/2+x,1/2+z
loop_
_atom_site_type_symbol
_atom_site_label
_atom_site_fract_x
_atom_site_fract_y
_atom_site_fract_z
Si Si1 0.357902 0.796899 0.657690
Si Si2 0.000000 0.000000 0.500000
Si Si3 0.359905 0.650634 0.733858
Si Si4 0.235908 0.044526 0.710938
Si Si5 0.432275 0.969276 0.390934
Si Si6 0.624812 0.556763 0.760610
Si Si7 0.507993 0.808729 0.702490
O O1 0.323301 0.833508 0.887138
O O2 0.345556 0.722866 0.680130
O O3 0.432742 0.802698 0.689040
O O4 0.941550 0.024557 0.671215
O O5 0.296795 0.611194 0.760561
O O6 0.402352 0.624009 0.499311
O O7 0.398897 0.642106 0.997629
O O8 0.180202 0.994277 0.761020
O O9 0.263943 0.033119 0.427938
O O10 0.288513 0.034914 0.928379
O O11 0.416481 0.941804 0.671381
O O12 0.380807 0.016942 0.286536
O O13 0.500000 0.000000 0.437243
#
# Coordination Sequence:
#
# PCOD9556080 Si02
#       7
#     8   2   8   8   8   8   8
#     4  12  24  42  70  97 129 170 236 297 331 401
#     4  12  28  38  72 102 140 198 248 286 344 414
#     4  12  26  44  66  94 143 181 228 293 340 398
#     4  12  24  41  67  95 137 184 222 282 343 417
#     4  10  21  40  69 100 136 167 204 281 356 416
#     4  12  24  42  62 100 137 182 238 287 344 395
#     4  12  23  42  68 105 128 173 232 281 353 411
#
# _framework density 21.234086000000001
#
# number of rings (size 3 to 8) (size 9 to 14) (size 15 to 20)
#    0.000    0.320    4.800    4.800    2.240    0.640 
#    0.000    0.000   21.120    0.000    0.000    0.000 
#    0.000    0.000    0.000    0.000    0.000    0.000 
#
# Total GULP energy -279942.788001 kJ/mol
# GULP energy per Si atom -5598.855760 kJ/mol
# Density = 2.118576 g / cm^3
# Si number density = 21.234086 Si / 1000 Ang^3
#
#
#
# Elastic Constant Matrix: (Units=GPa)
#
#
# Indices 1 2 3 4 5 6 
#
# 1 84.9477 25.6901 4.0530 0.0000 0.0000 0.0000
# 2 25.6901 84.9477 4.0530 0.0000 0.0000 0.0000
# 3 4.0530 4.0530 100.9547 0.0000 0.0000 0.0000
# 4 0.0000 0.0000 0.0000 26.1393 0.0000 0.0000
# 5 0.0000 0.0000 0.0000 0.0000 26.1393 0.0000
# 6 0.0000 0.0000 0.0000 0.0000 0.0000 22.9504
#
#
#
# Elastic Compliance Matrix: (Units=1/GPa)
#
#
# Indices 1 2 3 4 5 6 
#
# 1 0.012970 -0.003905 -0.000364 0.000000 0.000000 0.000000
# 2 -0.003905 0.012970 -0.000364 0.000000 0.000000 0.000000
# 3 -0.000364 -0.000364 0.009935 0.000000 0.000000 0.000000
# 4 0.000000 0.000000 0.000000 0.038257 0.000000 0.000000
# 5 0.000000 0.000000 0.000000 0.000000 0.038257 0.000000
# 6 0.000000 0.000000 0.000000 0.000000 0.000000 0.043572
#
#
# Mechanical properties :
#
#
# Convention : Reuss Voigt Hill
#
# Bulk Modulus (GPa) = 37.58094 37.60471 37.59282
# Shear Modulus (GPa) = 28.71972 30.84940 29.78456
#
# Velocity S-wave (km/s) = 3.68166 3.81573 3.74930
# Velocity P-wave (km/s) = 5.98412 6.09599 6.04031
#
# Compressibility (1/GPa) = 0.02660924
#
# Stress axis : x y z
#
# Youngs Moduli (GPa) = 77.09909 77.09909 100.65777
#
# Poissons Ratio (x) = 0.30108 0.03663
# Poissons Ratio (y) = 0.30108 0.03663
# Poissons Ratio (z) = 0.02806 0.02806
#
# Static dielectric constant tensor:
#      x y z
#    x 1.802980 0.000000 0.000000 
#    y 0.000000 1.802980 0.000000 
#    z 0.000000 0.000000 1.785950 
# 
# From -- ./inp_files/242.got.cif
#   From: 2010.05.17/outbox.cif.g08.bks.cpg/sg114_1_cif.got.tgz:242.got - 2010.05.20 11:04:54.
