data_PCOD9556734
_publ_section_title
;
Structure prediction by ZEFSAII (Michael W. Deem and Ramdas Pophale) SiO2 
 PCOD9556734
Probable space group: P -4 M 2
;
_chemical_formula_sum "Si O2"
_cell_formula_units_Z 40
_cell_length_a 9.103347
_cell_length_b 9.103347
_cell_length_c 26.886328
_cell_angle_alpha 90.000000
_cell_angle_beta 90.000000
_cell_angle_gamma 90.000000
_cell_volume 2228.094914
_symmetry_space_group_name_H-M "P -4 M 2"
_symmetry_group_IT_number 115
_symmetry_cell_setting 'tetragonal'
loop_
_space_group_symop_operation_xyz
x,y,z
y,-x,-z
-x,-y,z
-y,x,-z
y,x,-z
-y,-x,-z
-x,y,z
x,-y,z
loop_
_atom_site_type_symbol
_atom_site_label
_atom_site_fract_x
_atom_site_fract_y
_atom_site_fract_z
Si Si1 0.679106 0.328534 0.391930
Si Si2 0.323757 0.676244 0.500000
Si Si3 0.171246 0.677230 0.709119
Si Si4 0.674391 0.325610 0.000000
Si Si5 0.823776 0.327846 0.197493
Si Si6 0.173767 0.824125 0.905881
O O1 0.500000 0.325638 0.393221
O O2 0.721181 0.500000 0.386518
O O3 0.729709 0.269909 0.446098
O O4 0.725845 0.237998 0.343854
O O5 0.500000 0.698825 0.501625
O O6 0.184086 0.500000 0.711435
O O7 0.258311 0.746736 0.754794
O O8 0.000000 0.715735 0.712314
O O9 0.741980 0.250015 0.048667
O O10 0.500000 0.299605 0.997915
O O11 0.788669 0.500000 0.193355
O O12 0.781080 0.245007 0.146781
O O13 0.000000 0.313031 0.202851
O O14 0.000000 0.795203 0.905409
O O15 0.194944 0.000000 0.912026
#
# Coordination Sequence:
#
# PCOD9556734 Si02
#       6
#     8   4   8   4   8   8
#     4   8  13  23  41  65  92 123 162 209 257 302
#     4   7  10  18  36  62  88 117 158 206 254 301
#     4  10  20  32  48  73 104 137 172 209 253 307
#     4  11  24  39  56  82 114 145 176 211 252 296
#     4  10  21  37  57  79 103 134 173 216 261 308
#     4  10  21  38  60  83 106 136 174 213 256 307
#
# _framework density 17.952556000000001
#
# number of rings (size 3 to 8) (size 9 to 14) (size 15 to 20)
#    0.000    2.600    0.000    3.600    0.000    6.400 
#    0.000    0.000    0.000    1.200    0.000    5.600 
#    0.000    0.000    0.000    0.000    0.000    0.000 
#
# Total GULP energy -223069.646085 kJ/mol
# GULP energy per Si atom -5576.741152 kJ/mol
# Density = 1.791169 g / cm^3
# Si number density = 17.952556 Si / 1000 Ang^3
#
#
#
# Elastic Constant Matrix: (Units=GPa)
#
#
# Indices 1 2 3 4 5 6 
#
# 1 58.8418 52.1002 76.9452 0.0000 0.0000 0.0000
# 2 52.1002 58.8420 76.9454 0.0000 0.0000 0.0000
# 3 76.9452 76.9454 217.6694 0.0000 0.0000 0.0000
# 4 0.0000 0.0000 0.0000 200.6645 0.0000 0.0000
# 5 0.0000 0.0000 0.0000 0.0000 200.7153 0.0000
# 6 0.0000 0.0000 0.0000 0.0000 0.0000 21.8034
#
#
#
# Elastic Compliance Matrix: (Units=1/GPa)
#
#
# Indices 1 2 3 4 5 6 
#
# 1 0.083008 -0.065322 -0.006252 0.000000 0.000000 0.000000
# 2 -0.065322 0.083007 -0.006252 0.000000 0.000000 0.000000
# 3 -0.006252 -0.006252 0.009014 0.000000 0.000000 0.000000
# 4 0.000000 0.000000 0.000000 0.004983 0.000000 0.000000
# 5 0.000000 0.000000 0.000000 0.000000 0.004982 0.000000
# 6 0.000000 0.000000 0.000000 0.000000 0.000000 0.045864
#
#
# Mechanical properties :
#
#
# Convention : Reuss Voigt Hill
#
# Bulk Modulus (GPa) = 51.60399 83.03721 67.32060
# Shear Modulus (GPa) = 12.72364 93.26081 52.99223
#
# Velocity S-wave (km/s) = 2.66510 7.21535 5.43893
# Velocity P-wave (km/s) = 6.18687 10.75961 8.77629
#
# Compressibility (1/GPa) = 0.01937835
#
# Stress axis : x y z
#
# Youngs Moduli (GPa) = 12.04709 12.04713 110.93656
#
# Poissons Ratio (x) = 0.78694 0.69356
# Poissons Ratio (y) = 0.78694 0.69357
# Poissons Ratio (z) = 0.07532 0.07532
#
# Static dielectric constant tensor:
#      x y z
#    x 1.599730 0.000000 0.000000 
#    y 0.000000 1.599730 0.000000 
#    z 0.000000 0.000000 1.613300 
# 
# From -- ./inp_files/5531.got.cif
#   From: 2010.05.17/outbox.cif.g08.bks.cpg/sg115_3_cif.got.tgz:5531.got - 2010.05.20 11:07:42.
