data_PCOD9556727
_publ_section_title
;
Structure prediction by ZEFSAII (Michael W. Deem and Ramdas Pophale) SiO2 
 PCOD9556727
Probable space group: P -4 M 2
;
_chemical_formula_sum "Si O2"
_cell_formula_units_Z 32
_cell_length_a 9.186058
_cell_length_b 9.186058
_cell_length_c 21.655614
_cell_angle_alpha 90.000000
_cell_angle_beta 90.000000
_cell_angle_gamma 90.000000
_cell_volume 1827.380003
_symmetry_space_group_name_H-M "P -4 M 2"
_symmetry_group_IT_number 115
_symmetry_cell_setting 'tetragonal'
loop_
_space_group_symop_operation_xyz
x,y,z
y,-x,-z
-x,-y,z
-y,x,-z
y,x,-z
-y,-x,-z
-x,y,z
x,-y,z
loop_
_atom_site_type_symbol
_atom_site_label
_atom_site_fract_x
_atom_site_fract_y
_atom_site_fract_z
Si Si1 0.329566 0.824621 0.241076
Si Si2 0.828625 0.325495 0.126763
Si Si3 0.174628 0.825373 0.500000
Si Si4 0.177468 0.830164 0.634207
Si Si5 0.327029 0.672972 0.000000
O O1 0.500000 0.789431 0.239139
O O2 0.247923 0.752554 0.183849
O O3 0.260170 0.776430 0.306253
O O4 0.314131 0.000000 0.237390
O O5 0.808855 0.500000 0.132540
O O6 0.757293 0.281430 0.061583
O O7 0.000000 0.294236 0.126636
O O8 0.227617 0.772100 0.566934
O O9 0.000000 0.802982 0.497980
O O10 0.000000 0.827472 0.632561
O O11 0.219403 0.000000 0.641016
O O12 0.500000 0.696117 0.009323
#
# Coordination Sequence:
#
# PCOD9556727 Si02
#       5
#     8   8   4   8   4
#     4  10  20  32  48  72 101 133 168 204 242 287
#     4  10  21  36  54  76 101 129 162 200 241 287
#     4   7  10  18  36  62  88 117 156 200 246 293
#     4   8  13  23  41  65  92 122 159 204 250 292
#     4   9  18  34  54  73  96 128 162 195 236 289
#
# _framework density 17.511407999999999
#
# number of rings (size 3 to 8) (size 9 to 14) (size 15 to 20)
#    0.000    3.000    0.000    3.000    0.000    4.000 
#    0.000    2.500    0.000    1.500    0.000    7.000 
#    0.000    0.000    0.000    0.000    0.000    0.000 
#
# Total GULP energy -178265.091916 kJ/mol
# GULP energy per Si atom -5570.784122 kJ/mol
# Density = 1.747155 g / cm^3
# Si number density = 17.511408 Si / 1000 Ang^3
#
#
#
# Elastic Constant Matrix: (Units=GPa)
#
#
# Indices 1 2 3 4 5 6 
#
# 1 43.2111 37.8069 73.6476 0.0000 0.0000 0.0000
# 2 37.8069 43.2108 73.6475 0.0000 0.0000 0.0000
# 3 73.6476 73.6475 236.3128 0.0000 0.0000 0.0000
# 4 0.0000 0.0000 0.0000 -61.9420 0.0000 0.0000
# 5 0.0000 0.0000 0.0000 0.0000 -61.9495 0.0000
# 6 0.0000 0.0000 0.0000 0.0000 0.0000 18.1350
#
#
#
# Elastic Compliance Matrix: (Units=1/GPa)
#
#
# Indices 1 2 3 4 5 6 
#
# 1 0.106763 -0.078284 -0.008876 0.000000 0.000000 0.000000
# 2 -0.078284 0.106764 -0.008876 0.000000 0.000000 0.000000
# 3 -0.008876 -0.008876 0.009764 0.000000 0.000000 0.000000
# 4 0.000000 0.000000 0.000000 -0.016144 0.000000 0.000000
# 5 0.000000 0.000000 0.000000 0.000000 -0.016142 0.000000
# 6 0.000000 0.000000 0.000000 0.000000 0.000000 0.055142
#
#
# Mechanical properties :
#
#
# Convention : Reuss Voigt Hill
#
# Bulk Modulus (GPa) = 32.03057 76.99317 54.51187
# Shear Modulus (GPa) = 11.14521 -11.97578 -0.41529
#
# Velocity S-wave (km/s) = 2.52554 -2.61796 -0.48751
# Velocity P-wave (km/s) = 5.18029 5.90971 5.55698
#
# Compressibility (1/GPa) = 0.03122017
#
# Stress axis : x y z
#
# Youngs Moduli (GPa) = 9.36658 9.36645 102.41726
#
# Poissons Ratio (x) = 0.73324 0.90901
# Poissons Ratio (y) = 0.73325 0.90905
# Poissons Ratio (z) = 0.08313 0.08314
#
# Static dielectric constant tensor:
#      x y z
#    x 1.583380 0.000000 0.000000 
#    y 0.000000 1.583380 0.000000 
#    z 0.000000 0.000000 1.609550 
# 
# From -- ./inp_files/5041.got.cif
#   From: 2010.05.17/outbox.cif.g08.bks.cpg/sg115_3_cif.got.tgz:5041.got - 2010.05.20 11:07:42.
