data_PCOD9556613
_publ_section_title
;
Structure prediction by ZEFSAII (Michael W. Deem and Ramdas Pophale) SiO2 
 PCOD9556613
Probable space group: P -4 M 2
;
_chemical_formula_sum "Si O2"
_cell_formula_units_Z 49
_cell_length_a 8.186000
_cell_length_b 8.186000
_cell_length_c 35.837045
_cell_angle_alpha 90.000000
_cell_angle_beta 90.000000
_cell_angle_gamma 90.000000
_cell_volume 2401.461744
_symmetry_space_group_name_H-M "P -4 M 2"
_symmetry_group_IT_number 115
_symmetry_cell_setting 'tetragonal'
loop_
_space_group_symop_operation_xyz
x,y,z
y,-x,-z
-x,-y,z
-y,x,-z
y,x,-z
-y,-x,-z
-x,y,z
x,-y,z
loop_
_atom_site_type_symbol
_atom_site_label
_atom_site_fract_x
_atom_site_fract_y
_atom_site_fract_z
Si Si1 0.306786 0.306786 0.000000
Si Si2 0.000000 0.000000 0.500000
Si Si3 0.303849 0.810145 0.079443
Si Si4 0.189269 0.306278 0.237744
Si Si5 0.191403 0.196071 0.841607
Si Si6 0.000000 0.701165 0.442698
Si Si7 0.320888 0.305372 0.394664
Si Si8 0.805968 0.189331 0.683227
O O1 0.236828 0.251054 0.039784
O O2 0.277424 0.500000 0.998466
O O3 0.170172 0.000000 0.523415
O O4 0.500000 0.796951 0.078309
O O5 0.251262 0.734005 0.118889
O O6 0.257537 0.000000 0.081199
O O7 0.186923 0.500000 0.241234
O O8 0.260692 0.263282 0.197292
O O9 0.260118 0.235897 0.275988
O O10 0.000000 0.244811 0.236979
O O11 0.000000 0.241087 0.841181
O O12 0.205228 0.000000 0.841410
O O13 0.837165 0.743053 0.418747
O O14 0.000000 0.500000 0.450061
O O15 0.500000 0.238095 0.405709
O O16 0.328222 0.500000 0.398446
O O17 0.286159 0.265212 0.351542
O O18 0.000000 0.185280 0.679298
O O19 0.744403 0.000000 0.681630
#
# Coordination Sequence:
#
# PCOD9556613 Si02
#       8
#     4   1   8   8   8   4   8   8
#     4   9  18  32  48  65  86 112 146 189 238 300
#     4  12  28  44  76 104 132 172 236 260 316 408
#     4   9  18  32  48  66  89 118 150 190 246 305
#     4   9  17  29  47  72 103 141 182 225 274 328
#     4   9  17  30  47  67  93 125 165 207 253 311
#     4  10  24  46  68  98 138 174 214 274 326 372
#     4  10  21  38  62  91 126 168 210 256 315 374
#     4  10  19  31  53  83 116 153 198 246 297 354
#
# _framework density 20.404242
#
# number of rings (size 3 to 8) (size 9 to 14) (size 15 to 20)
#    0.000    2.531    0.816    0.980    1.143    4.898 
#    0.000    0.816    0.000    2.939    0.000    0.000 
#    0.000    0.000    0.000    0.000    0.000    0.000 
#
# Total GULP energy -272983.875079 kJ/mol
# GULP energy per Si atom -5571.099491 kJ/mol
# Density = 2.035780 g / cm^3
# Si number density = 20.404242 Si / 1000 Ang^3
#
#
#
# Elastic Constant Matrix: (Units=GPa)
#
#
# Indices 1 2 3 4 5 6 
#
# 1 45.5358 14.5389 40.4654 0.0000 0.0000 0.0000
# 2 14.5389 45.5358 40.4654 0.0000 0.0000 0.0000
# 3 40.4654 40.4654 153.4242 0.0000 0.0000 0.0000
# 4 0.0000 0.0000 0.0000 37.3999 0.0000 0.0000
# 5 0.0000 0.0000 0.0000 0.0000 37.3999 0.0000
# 6 0.0000 0.0000 0.0000 0.0000 0.0000 6.6819
#
#
#
# Elastic Compliance Matrix: (Units=1/GPa)
#
#
# Indices 1 2 3 4 5 6 
#
# 1 0.029041 -0.003221 -0.006810 0.000000 0.000000 0.000000
# 2 -0.003221 0.029041 -0.006810 0.000000 0.000000 0.000000
# 3 -0.006810 -0.006810 0.010110 0.000000 0.000000 0.000000
# 4 0.000000 0.000000 0.000000 0.026738 0.000000 0.000000
# 5 0.000000 0.000000 0.000000 0.000000 0.026738 0.000000
# 6 0.000000 0.000000 0.000000 0.000000 0.000000 0.149659
#
#
# Mechanical properties :
#
#
# Convention : Reuss Voigt Hill
#
# Bulk Modulus (GPa) = 28.97671 48.38166 38.67918
# Shear Modulus (GPa) = 15.79721 26.23138 21.01430
#
# Velocity S-wave (km/s) = 2.78549 3.58940 3.21268
# Velocity P-wave (km/s) = 4.95756 6.39855 5.72358
#
# Compressibility (1/GPa) = 0.03451047
#
# Stress axis : x y z
#
# Youngs Moduli (GPa) = 34.43433 34.43433 98.91042
#
# Poissons Ratio (x) = 0.11090 0.67359
# Poissons Ratio (y) = 0.11090 0.67359
# Poissons Ratio (z) = 0.23450 0.23450
#
# Static dielectric constant tensor:
#      x y z
#    x 1.732290 0.000000 0.000000 
#    y 0.000000 1.732290 0.000000 
#    z 0.000000 0.000000 1.763830 
# 
# From -- ./inp_files/6300.got.cif
#   From: 2010.05.17/outbox.cif.g08.bks.cpg/sg115_4_cif.got.tgz:6300.got - 2010.05.20 11:07:42.
