data_PCOD9556319
_publ_section_title
;
Structure prediction by ZEFSAII (Michael W. Deem and Ramdas Pophale) SiO2 
 PCOD9556319
Probable space group: P -4 21 C
;
_chemical_formula_sum "Si O2"
_cell_formula_units_Z 20
_cell_length_a 8.061631
_cell_length_b 8.061631
_cell_length_c 13.308183
_cell_angle_alpha 90.000000
_cell_angle_beta 90.000000
_cell_angle_gamma 90.000000
_cell_volume 864.897408
_symmetry_space_group_name_H-M "P -4 21 C"
_symmetry_group_IT_number 114
_symmetry_cell_setting 'tetragonal'
loop_
_space_group_symop_operation_xyz
x,y,z
y,-x,-z
-x,-y,z
-y,x,-z
1/2+x,1/2-y,1/2-z
1/2-x,1/2+y,1/2-z
1/2-y,1/2-x,1/2+z
1/2+y,1/2+x,1/2+z
loop_
_atom_site_type_symbol
_atom_site_label
_atom_site_fract_x
_atom_site_fract_y
_atom_site_fract_z
Si Si1 0.000000 0.500000 0.446623
Si Si2 0.682240 0.040270 0.362777
Si Si3 0.070881 0.823126 0.832234
O O1 0.981505 0.343033 0.522898
O O2 0.168170 0.479905 0.384436
O O3 0.698258 0.237099 0.357976
O O4 0.500000 0.000000 0.318249
O O5 0.808835 0.953893 0.287938
O O6 0.000000 0.000000 0.866382
#
# Coordination Sequence:
#
# PCOD9556319 Si02
#       3
#     4   8   8
#     4  10  26  46  74 116 140 194 266 302 362 472
#     4  10  25  46  72 106 148 191 253 307 366 452
#     4  12  25  47  78 103 154 200 242 313 390 433
#
# _framework density 23.124127999999999
#
# number of rings (size 3 to 8) (size 9 to 14) (size 15 to 20)
#    1.200    0.000    2.000    2.400    5.600    0.000 
#    0.000    0.000    0.000    0.000    0.000    0.000 
#    0.000    0.000    0.000    0.000    0.000    0.000 
#
# Total GULP energy -111666.960658 kJ/mol
# GULP energy per Si atom -5583.348033 kJ/mol
# Density = 2.307150 g / cm^3
# Si number density = 23.124128 Si / 1000 Ang^3
#
#
#
# Elastic Constant Matrix: (Units=GPa)
#
#
# Indices 1 2 3 4 5 6 
#
# 1 101.0180 -4.5434 34.1363 0.0000 0.0000 0.0000
# 2 -4.5434 101.0180 34.1363 0.0000 0.0000 0.0000
# 3 34.1363 34.1363 109.3020 0.0000 0.0000 0.0000
# 4 0.0000 0.0000 0.0000 -22.0533 0.0000 0.0000
# 5 0.0000 0.0000 0.0000 0.0000 -22.0533 0.0000
# 6 0.0000 0.0000 0.0000 0.0000 0.0000 29.5342
#
#
#
# Elastic Compliance Matrix: (Units=1/GPa)
#
#
# Indices 1 2 3 4 5 6 
#
# 1 0.011390 0.001917 -0.004156 0.000000 0.000000 0.000000
# 2 0.001917 0.011390 -0.004156 0.000000 0.000000 0.000000
# 3 -0.004156 -0.004156 0.011745 0.000000 0.000000 0.000000
# 4 0.000000 0.000000 0.000000 -0.045345 0.000000 0.000000
# 5 0.000000 0.000000 0.000000 0.000000 -0.045345 0.000000
# 6 0.000000 0.000000 0.000000 0.000000 0.000000 0.033859
#
#
# Mechanical properties :
#
#
# Convention : Reuss Voigt Hill
#
# Bulk Modulus (GPa) = 46.00986 48.75517 47.38251
# Shear Modulus (GPa) = -2201.12840 13.59277 -1093.76781
#
# Velocity S-wave (km/s) = -30.88595 2.42713 -21.77212
# Velocity P-wave (km/s) = 35.38336 5.38372 24.72850
#
# Compressibility (1/GPa) = 0.02173447
#
# Stress axis : x y z
#
# Youngs Moduli (GPa) = 87.79840 87.79840 85.14467
#
# Poissons Ratio (x) = -0.16827 0.35384
# Poissons Ratio (y) = -0.16827 0.35384
# Poissons Ratio (z) = 0.36486 0.36486
#
# Static dielectric constant tensor:
#      x y z
#    x 1.918790 0.000000 0.000000 
#    y 0.000000 1.918790 0.000000 
#    z 0.000000 0.000000 1.900240 
# 
# From -- ./inp_files/1192.got.cif
#   From: 2010.05.17/outbox.cif.g08.bks.cpg/sg114_1_cif.got.tgz:1192.got - 2010.05.20 11:04:54.
