data_PCOD9556799
_publ_section_title
;
Structure prediction by ZEFSAII (Michael W. Deem and Ramdas Pophale) SiO2 
 PCOD9556799
Probable space group: P -4 M 2
;
_chemical_formula_sum "Si O2"
_cell_formula_units_Z 48
_cell_length_a 9.169443
_cell_length_b 9.169443
_cell_length_c 31.769700
_cell_angle_alpha 90.000000
_cell_angle_beta 90.000000
_cell_angle_gamma 90.000000
_cell_volume 2671.154597
_symmetry_space_group_name_H-M "P -4 M 2"
_symmetry_group_IT_number 115
_symmetry_cell_setting 'tetragonal'
loop_
_space_group_symop_operation_xyz
x,y,z
y,-x,-z
-x,-y,z
-y,x,-z
y,x,-z
-y,-x,-z
-x,y,z
x,-y,z
loop_
_atom_site_type_symbol
_atom_site_label
_atom_site_fract_x
_atom_site_fract_y
_atom_site_fract_z
Si Si1 0.828098 0.826345 0.625531
Si Si2 0.168026 0.322239 0.790061
Si Si3 0.675215 0.672071 0.295987
Si Si4 0.668043 0.677744 0.874594
Si Si5 0.673089 0.326265 0.548465
Si Si6 0.827257 0.674564 0.960748
O O1 0.745401 0.752958 0.664529
O O2 0.763813 0.761503 0.582497
O O3 0.000000 0.794480 0.628522
O O4 0.807645 0.000000 0.626488
O O5 0.168515 0.500000 0.790776
O O6 0.251407 0.279168 0.747606
O O7 0.249887 0.273440 0.832347
O O8 0.000000 0.274951 0.789524
O O9 0.500000 0.689978 0.300387
O O10 0.705657 0.500000 0.294320
O O11 0.500000 0.725017 0.875065
O O12 0.668574 0.500000 0.873839
O O13 0.751069 0.720687 0.917117
O O14 0.709893 0.290108 0.500000
O O15 0.500000 0.299415 0.554307
O O16 0.695937 0.500000 0.554033
O O17 0.804321 0.500000 0.965661
O O18 0.000000 0.700389 0.958478
O O19 0.756369 0.756369 0.000000
#
# Coordination Sequence:
#
# PCOD9556799 Si02
#       6
#     8   8   8   8   8   8
#     4  11  24  38  52  75 108 143 178 217 262 313
#     4   9  16  27  46  74 107 139 171 211 260 312
#     4  10  20  34  54  79 105 136 178 224 266 311
#     4   9  16  27  46  73 104 135 169 212 259 306
#     4   9  19  37  60  84 108 135 171 215 261 311
#     4  10  20  33  50  73 101 134 172 213 258 309
#
# _framework density 17.969756
#
# number of rings (size 3 to 8) (size 9 to 14) (size 15 to 20)
#    0.000    2.333    0.000    3.500    0.000   10.333 
#    0.000    2.500    0.000    1.000    0.000    0.000 
#    0.000    0.000    0.000    0.000    0.000    0.000 
#
# Total GULP energy -267955.827190 kJ/mol
# GULP energy per Si atom -5582.413066 kJ/mol
# Density = 1.792886 g / cm^3
# Si number density = 17.969756 Si / 1000 Ang^3
#
#
#
# Elastic Constant Matrix: (Units=GPa)
#
#
# Indices 1 2 3 4 5 6 
#
# 1 87.0756 69.2015 95.2027 0.0000 0.0000 0.0000
# 2 69.2015 87.0757 95.2030 0.0000 0.0000 0.0000
# 3 95.2027 95.2030 198.1138 0.0000 0.0000 0.0000
# 4 0.0000 0.0000 0.0000 -20.2979 0.0000 0.0000
# 5 0.0000 0.0000 0.0000 0.0000 -20.2976 0.0000
# 6 0.0000 0.0000 0.0000 0.0000 0.0000 21.8539
#
#
#
# Elastic Compliance Matrix: (Units=1/GPa)
#
#
# Indices 1 2 3 4 5 6 
#
# 1 0.035692 -0.020255 -0.007418 0.000000 0.000000 0.000000
# 2 -0.020255 0.035692 -0.007418 0.000000 0.000000 0.000000
# 3 -0.007418 -0.007418 0.012177 0.000000 0.000000 0.000000
# 4 0.000000 0.000000 0.000000 -0.049266 0.000000 0.000000
# 5 0.000000 0.000000 0.000000 0.000000 -0.049267 0.000000
# 6 0.000000 0.000000 0.000000 0.000000 0.000000 0.045758
#
#
# Mechanical properties :
#
#
# Convention : Reuss Voigt Hill
#
# Bulk Modulus (GPa) = 74.74661 99.05329 86.89995
# Shear Modulus (GPa) = 47.42535 3.76221 25.59378
#
# Velocity S-wave (km/s) = 5.14286 1.44851 3.77804
# Velocity P-wave (km/s) = 8.77220 7.61836 8.21556
#
# Compressibility (1/GPa) = 0.01337853
#
# Stress axis : x y z
#
# Youngs Moduli (GPa) = 28.01753 28.01744 82.12007
#
# Poissons Ratio (x) = 0.56749 0.60919
# Poissons Ratio (y) = 0.56749 0.60920
# Poissons Ratio (z) = 0.20784 0.20784
#
# Static dielectric constant tensor:
#      x y z
#    x 1.595410 0.000000 0.000000 
#    y 0.000000 1.595410 0.000000 
#    z 0.000000 0.000000 1.588170 
# 
# From -- ./inp_files/6000.got.cif
#   From: 2010.05.17/outbox.cif.g08.bks.cpg/sg115_3_cif.got.tgz:6000.got - 2010.05.20 11:07:42.
