data_PCOD9556498
_publ_section_title
;
Structure prediction by ZEFSAII (Michael W. Deem and Ramdas Pophale) SiO2 
 PCOD9556498
Probable space group: P -4 21 C
;
_chemical_formula_sum "Si O2"
_cell_formula_units_Z 20
_cell_length_a 9.406270
_cell_length_b 9.406270
_cell_length_c 9.144665
_cell_angle_alpha 90.000000
_cell_angle_beta 90.000000
_cell_angle_gamma 90.000000
_cell_volume 809.100895
_symmetry_space_group_name_H-M "P -4 21 C"
_symmetry_group_IT_number 114
_symmetry_cell_setting 'tetragonal'
loop_
_space_group_symop_operation_xyz
x,y,z
y,-x,-z
-x,-y,z
-y,x,-z
1/2+x,1/2-y,1/2-z
1/2-x,1/2+y,1/2-z
1/2-y,1/2-x,1/2+z
1/2+y,1/2+x,1/2+z
loop_
_atom_site_type_symbol
_atom_site_label
_atom_site_fract_x
_atom_site_fract_y
_atom_site_fract_z
Si Si1 0.747510 0.594801 0.792686
Si Si2 0.711940 0.809719 0.568511
Si Si3 0.000000 0.500000 0.116798
O O1 0.660897 0.680222 0.669678
O O2 0.717287 0.429923 0.826568
O O3 0.904838 0.596633 0.722594
O O4 0.737774 0.677321 0.944913
O O5 0.588765 0.892496 0.482598
#
# Coordination Sequence:
#
# PCOD9556498 Si02
#       3
#     8   8   4
#     4  12  27  48  81 122 162 217 275 344 423 497
#     4  12  27  48  84 119 162 219 273 347 421 498
#     4  12  26  52  84 114 172 218 284 356 416 496
#
# _framework density 24.718793000000002
#
# number of rings (size 3 to 8) (size 9 to 14) (size 15 to 20)
#    0.000    0.000    8.000    1.200    0.000    0.800 
#    0.000    4.000    0.000    0.000    0.000    0.000 
#    0.000    0.000    0.000    0.000    0.000    0.000 
#
# Total GULP energy -112012.774863 kJ/mol
# GULP energy per Si atom -5600.638743 kJ/mol
# Density = 2.466253 g / cm^3
# Si number density = 24.718793 Si / 1000 Ang^3
#
#
#
# Elastic Constant Matrix: (Units=GPa)
#
#
# Indices 1 2 3 4 5 6 
#
# 1 88.6589 50.7091 62.1237 0.0000 0.0000 0.0000
# 2 50.7091 88.6589 62.1237 0.0000 0.0000 0.0000
# 3 62.1237 62.1237 153.2067 0.0000 0.0000 0.0000
# 4 0.0000 0.0000 0.0000 68.2655 0.0000 0.0000
# 5 0.0000 0.0000 0.0000 0.0000 68.2655 0.0000
# 6 0.0000 0.0000 0.0000 0.0000 0.0000 41.5235
#
#
#
# Elastic Compliance Matrix: (Units=1/GPa)
#
#
# Indices 1 2 3 4 5 6 
#
# 1 0.018794 -0.007556 -0.004557 0.000000 0.000000 0.000000
# 2 -0.007556 0.018794 -0.004557 0.000000 0.000000 0.000000
# 3 -0.004557 -0.004557 0.010223 0.000000 0.000000 0.000000
# 4 0.000000 0.000000 0.000000 0.014649 0.000000 0.000000
# 5 0.000000 0.000000 0.000000 0.000000 0.014649 0.000000
# 6 0.000000 0.000000 0.000000 0.000000 0.000000 0.024083
#
#
# Mechanical properties :
#
#
# Convention : Reuss Voigt Hill
#
# Bulk Modulus (GPa) = 69.10455 75.60415 72.35435
# Shear Modulus (GPa) = 35.87978 45.98213 40.93096
#
# Velocity S-wave (km/s) = 3.81401 4.31769 4.07365
# Velocity P-wave (km/s) = 6.88568 7.45042 7.17361
#
# Compressibility (1/GPa) = 0.01447083
#
# Stress axis : x y z
#
# Youngs Moduli (GPa) = 53.20825 53.20825 97.82315
#
# Poissons Ratio (x) = 0.40207 0.44575
# Poissons Ratio (y) = 0.40207 0.44575
# Poissons Ratio (z) = 0.24246 0.24246
#
# Static dielectric constant tensor:
#      x y z
#    x 2.004520 0.000000 0.000000 
#    y 0.000000 2.004520 0.000000 
#    z 0.000000 0.000000 1.969390 
# 
# From -- ./inp_files/416.got.cif
#   From: 2010.05.17/outbox.cif.g08.bks.cpg/sg114_1_cif.got.tgz:416.got - 2010.05.20 11:04:54.
