data_PCOD9556036
_publ_section_title
;
Structure prediction by ZEFSAII (Michael W. Deem and Ramdas Pophale) SiO2 
 PCOD9556036
Probable space group: P -4 21 C
;
_chemical_formula_sum "Si O2"
_cell_formula_units_Z 48
_cell_length_a 8.801604
_cell_length_b 8.801604
_cell_length_c 30.479834
_cell_angle_alpha 90.000000
_cell_angle_beta 90.000000
_cell_angle_gamma 90.000000
_cell_volume 2361.218881
_symmetry_space_group_name_H-M "P -4 21 C"
_symmetry_group_IT_number 114
_symmetry_cell_setting 'tetragonal'
loop_
_space_group_symop_operation_xyz
x,y,z
y,-x,-z
-x,-y,z
-y,x,-z
1/2+x,1/2-y,1/2-z
1/2-x,1/2+y,1/2-z
1/2-y,1/2-x,1/2+z
1/2+y,1/2+x,1/2+z
loop_
_atom_site_type_symbol
_atom_site_label
_atom_site_fract_x
_atom_site_fract_y
_atom_site_fract_z
Si Si1 0.704562 0.353385 0.799641
Si Si2 0.315117 0.829403 0.050516
Si Si3 0.821828 0.328546 0.969449
Si Si4 0.695123 0.845418 0.869561
Si Si5 0.651607 0.696483 0.780740
Si Si6 0.309183 0.836403 0.387593
O O1 0.722536 0.531794 0.790787
O O2 0.529388 0.316257 0.787265
O O3 0.808235 0.256857 0.767046
O O4 0.724549 0.304893 0.850109
O O5 0.493160 0.806211 0.040945
O O6 0.263886 0.794116 0.099852
O O7 0.282026 0.004185 0.038992
O O8 0.223839 0.717168 0.018414
O O9 0.713186 0.242262 0.935477
O O10 0.711702 0.809627 0.818296
O O11 0.518619 0.814452 0.882187
O O12 0.724613 0.021766 0.878698
#
# Coordination Sequence:
#
# PCOD9556036 Si02
#       6
#     8   8   8   8   8   8
#     4  10  21  37  58  84 114 150 191 234 283 337
#     4  11  24  40  59  85 115 148 187 230 278 333
#     4  11  24  40  59  85 115 148 187 230 278 333
#     4  10  21  38  60  85 113 147 188 233 281 334
#     4  10  21  37  58  84 114 150 191 234 283 337
#     4  10  21  38  60  85 113 147 188 233 281 334
#
# _framework density 20.328486000000002
#
# number of rings (size 3 to 8) (size 9 to 14) (size 15 to 20)
#    0.000    1.667    0.000    4.000    0.000   12.000 
#    0.000    0.000    0.000    0.000    0.000    0.000 
#    0.000    0.000    0.000    0.000    0.000    0.000 
#
# Total GULP energy -268400.320499 kJ/mol
# GULP energy per Si atom -5591.673344 kJ/mol
# Density = 2.028222 g / cm^3
# Si number density = 20.328486 Si / 1000 Ang^3
#
#
#
# Elastic Constant Matrix: (Units=GPa)
#
#
# Indices 1 2 3 4 5 6 
#
# 1 21.7232 10.6645 -17.9406 0.0000 0.0000 0.0000
# 2 10.6645 21.7232 -17.9406 0.0000 0.0000 0.0000
# 3 -17.9406 -17.9406 44.7824 0.0000 0.0000 0.0000
# 4 0.0000 0.0000 0.0000 36.8443 0.0000 0.0000
# 5 0.0000 0.0000 0.0000 0.0000 36.8443 0.0000
# 6 0.0000 0.0000 0.0000 0.0000 0.0000 17.8473
#
#
#
# Elastic Compliance Matrix: (Units=1/GPa)
#
#
# Indices 1 2 3 4 5 6 
#
# 1 0.072971 -0.017455 0.022240 0.000000 0.000000 0.000000
# 2 -0.017455 0.072971 0.022240 0.000000 0.000000 0.000000
# 3 0.022240 0.022240 0.040150 0.000000 0.000000 0.000000
# 4 0.000000 0.000000 0.000000 0.027141 0.000000 0.000000
# 5 0.000000 0.000000 0.000000 0.000000 0.027141 0.000000
# 6 0.000000 0.000000 0.000000 0.000000 0.000000 0.056031
#
#
# Mechanical properties :
#
#
# Convention : Reuss Voigt Hill
#
# Bulk Modulus (GPa) = 4.16421 4.19949 4.18185
# Shear Modulus (GPa) = 15.50861 25.87023 20.68942
#
# Velocity S-wave (km/s) = 2.76506 3.57124 3.19369
# Velocity P-wave (km/s) = 3.49957 4.36752 3.95741
#
# Compressibility (1/GPa) = 0.24014178
#
# Stress axis : x y z
#
# Youngs Moduli (GPa) = 13.70413 13.70413 24.90665
#
# Poissons Ratio (x) = 0.23921 -0.55393
# Poissons Ratio (y) = 0.23921 -0.55393
# Poissons Ratio (z) = -0.30478 -0.30478
#
# Static dielectric constant tensor:
#      x y z
#    x 1.706870 0.000000 0.000000 
#    y 0.000000 1.706870 0.000000 
#    z 0.000000 0.000000 1.665560 
# 
# From -- ./inp_files/3940.got.cif
#   From: 2010.05.17/outbox.cif.g08.bks.cpg/sg114_2_cif.got.tgz:3940.got - 2010.05.20 11:04:54.
