data_PCOD9556997
_publ_section_title
;
Structure prediction by ZEFSAII (Michael W. Deem and Ramdas Pophale) SiO2 
 PCOD9556997
Probable space group: P -4 M 2
;
_chemical_formula_sum "Si O2"
_cell_formula_units_Z 48
_cell_length_a 9.118444
_cell_length_b 9.118444
_cell_length_c 31.947561
_cell_angle_alpha 90.000000
_cell_angle_beta 90.000000
_cell_angle_gamma 90.000000
_cell_volume 2656.312577
_symmetry_space_group_name_H-M "P -4 M 2"
_symmetry_group_IT_number 115
_symmetry_cell_setting 'tetragonal'
loop_
_space_group_symop_operation_xyz
x,y,z
y,-x,-z
-x,-y,z
-y,x,-z
y,x,-z
-y,-x,-z
-x,y,z
x,-y,z
loop_
_atom_site_type_symbol
_atom_site_label
_atom_site_fract_x
_atom_site_fract_y
_atom_site_fract_z
Si Si1 0.174762 0.325584 0.460188
Si Si2 0.674851 0.325702 0.125565
Si Si3 0.173866 0.325555 0.039236
Si Si4 0.826425 0.323871 0.618936
Si Si5 0.169034 0.678947 0.789107
Si Si6 0.668430 0.678634 0.704894
O O1 0.250728 0.250728 0.500000
O O2 0.201869 0.500000 0.460736
O O3 0.241823 0.255275 0.418403
O O4 0.000000 0.301800 0.461836
O O5 0.500000 0.303021 0.120552
O O6 0.698929 0.500000 0.131233
O O7 0.754984 0.277967 0.083222
O O8 0.724722 0.242597 0.167311
O O9 0.202971 0.500000 0.034872
O O10 0.000000 0.303482 0.040403
O O11 0.243655 0.243655 0.000000
O O12 0.805709 0.500000 0.614181
O O13 0.759368 0.279680 0.663762
O O14 0.000000 0.295086 0.617715
O O15 0.172769 0.500000 0.788908
O O16 0.257220 0.728150 0.748082
O O17 0.000000 0.723815 0.786756
O O18 0.500000 0.726830 0.701935
O O19 0.668325 0.500000 0.705865
#
# Coordination Sequence:
#
# PCOD9556997 Si02
#       6
#     8   8   8   8   8   8
#     4  11  24  40  58  81 108 139 177 219 263 313
#     4   9  17  30  49  72  98 129 165 206 254 308
#     4  10  21  36  54  76 102 133 170 212 259 311
#     4  10  20  34  54  81 111 142 177 217 263 315
#     4   9  16  26  43  70 102 133 168 213 261 308
#     4   9  16  27  46  73 105 139 174 215 264 313
#
# _framework density 18.070160999999999
#
# number of rings (size 3 to 8) (size 9 to 14) (size 15 to 20)
#    0.000    2.333    0.000    3.000    0.000   10.000 
#    0.000    1.667    0.000    1.000    0.000    2.333 
#    0.000    0.000    0.000    0.000    0.000    0.000 
#
# Total GULP energy -267935.510710 kJ/mol
# GULP energy per Si atom -5581.989806 kJ/mol
# Density = 1.802903 g / cm^3
# Si number density = 18.070161 Si / 1000 Ang^3
#
#
#
# Elastic Constant Matrix: (Units=GPa)
#
#
# Indices 1 2 3 4 5 6 
#
# 1 73.8540 62.8184 85.2172 0.0000 0.0000 0.0000
# 2 62.8184 73.8540 85.2172 0.0000 0.0000 0.0000
# 3 85.2172 85.2172 214.4267 0.0000 0.0000 0.0000
# 4 0.0000 0.0000 0.0000 -18.7597 0.0000 0.0000
# 5 0.0000 0.0000 0.0000 0.0000 -18.7597 0.0000
# 6 0.0000 0.0000 0.0000 0.0000 0.0000 17.2498
#
#
#
# Elastic Compliance Matrix: (Units=1/GPa)
#
#
# Indices 1 2 3 4 5 6 
#
# 1 0.052561 -0.038055 -0.005765 0.000000 0.000000 0.000000
# 2 -0.038055 0.052561 -0.005765 0.000000 0.000000 0.000000
# 3 -0.005765 -0.005765 0.009246 0.000000 0.000000 0.000000
# 4 0.000000 0.000000 0.000000 -0.053306 0.000000 0.000000
# 5 0.000000 0.000000 0.000000 0.000000 -0.053306 0.000000
# 6 0.000000 0.000000 0.000000 0.000000 0.000000 0.057972
#
#
# Mechanical properties :
#
#
# Convention : Reuss Voigt Hill
#
# Bulk Modulus (GPa) = 65.79928 92.07112 78.93520
# Shear Modulus (GPa) = 29.41832 4.53821 16.97826
#
# Velocity S-wave (km/s) = 4.03923 1.58647 3.06857
# Velocity P-wave (km/s) = 7.63192 7.37689 7.50549
#
# Compressibility (1/GPa) = 0.01519773
#
# Stress axis : x y z
#
# Youngs Moduli (GPa) = 19.02566 19.02566 108.15847
#
# Poissons Ratio (x) = 0.72402 0.62351
# Poissons Ratio (y) = 0.72402 0.62351
# Poissons Ratio (z) = 0.10968 0.10968
#
# Static dielectric constant tensor:
#      x y z
#    x 1.602640 0.000000 0.000000 
#    y 0.000000 1.602640 0.000000 
#    z 0.000000 0.000000 1.592210 
# 
# From -- ./inp_files/6032.got.cif
#   From: 2010.05.17/outbox.cif.g08.bks.cpg/sg115_4_cif.got.tgz:6032.got - 2010.05.20 11:07:42.
