data_PCOD9556146
_publ_section_title
;
Structure prediction by ZEFSAII (Michael W. Deem and Ramdas Pophale) SiO2 
 PCOD9556146
Probable space group: P -4 21 C
;
_chemical_formula_sum "Si O2"
_cell_formula_units_Z 52
_cell_length_a 17.392035
_cell_length_b 17.392035
_cell_length_c 8.750114
_cell_angle_alpha 90.000000
_cell_angle_beta 90.000000
_cell_angle_gamma 90.000000
_cell_volume 2646.759696
_symmetry_space_group_name_H-M "P -4 21 C"
_symmetry_group_IT_number 114
_symmetry_cell_setting 'tetragonal'
loop_
_space_group_symop_operation_xyz
x,y,z
y,-x,-z
-x,-y,z
-y,x,-z
1/2+x,1/2-y,1/2-z
1/2-x,1/2+y,1/2-z
1/2-y,1/2-x,1/2+z
1/2+y,1/2+x,1/2+z
loop_
_atom_site_type_symbol
_atom_site_label
_atom_site_fract_x
_atom_site_fract_y
_atom_site_fract_z
Si Si1 0.794992 0.952175 0.427855
Si Si2 0.927703 0.897405 0.005830
Si Si3 0.126856 0.474389 0.027217
Si Si4 0.812967 0.168464 0.778445
Si Si5 0.288881 0.823325 0.476359
Si Si6 0.887361 0.854315 0.676194
Si Si7 0.000000 0.500000 0.778004
O O1 0.789695 0.888025 0.292581
O O2 0.836979 0.910079 0.569439
O O3 0.710650 0.985477 0.467804
O O4 0.848190 0.024220 0.379369
O O5 0.884080 0.873084 0.853202
O O6 0.911097 0.845817 0.153667
O O7 0.016474 0.900532 0.962528
O O8 0.075615 0.496822 0.172879
O O9 0.139520 0.381663 0.024141
O O10 0.075750 0.499271 0.883144
O O11 0.753974 0.165038 0.637720
O O12 0.763975 0.199593 0.922184
O O13 0.230820 0.855734 0.349608
#
# Coordination Sequence:
#
# PCOD9556146 Si02
#       7
#     8   8   8   8   8   8   4
#     4  10  23  40  67  93 133 166 229 258 354 385
#     4  11  24  38  60  92 131 164 215 262 327 394
#     4  10  22  42  63  98 121 176 211 281 328 400
#     4  11  22  42  62  97 124 175 214 278 322 406
#     4  10  22  39  69  88 131 164 227 261 340 384
#     4  10  22  40  61  95 125 175 206 281 315 414
#     4  10  22  42  68  90 134 162 228 268 336 390
#
# _framework density 19.646664999999999
#
# number of rings (size 3 to 8) (size 9 to 14) (size 15 to 20)
#    0.000    1.692    1.538    1.846    6.462    4.000 
#    0.000    1.538    0.000    0.000    0.000    0.000 
#    0.000    0.000    0.000    0.000    0.000    0.000 
#
# Total GULP energy -289891.642704 kJ/mol
# GULP energy per Si atom -5574.839283 kJ/mol
# Density = 1.960195 g / cm^3
# Si number density = 19.646665 Si / 1000 Ang^3
#
#
#
# Elastic Constant Matrix: (Units=GPa)
#
#
# Indices 1 2 3 4 5 6 
#
# 1 89.4508 41.6135 52.0606 0.0000 0.0000 0.0000
# 2 41.6135 89.4508 52.0606 0.0000 0.0000 0.0000
# 3 52.0606 52.0606 116.9846 0.0000 0.0000 0.0000
# 4 0.0000 0.0000 0.0000 23.1205 0.0000 0.0000
# 5 0.0000 0.0000 0.0000 0.0000 23.1205 0.0000
# 6 0.0000 0.0000 0.0000 0.0000 0.0000 29.2735
#
#
#
# Elastic Compliance Matrix: (Units=1/GPa)
#
#
# Indices 1 2 3 4 5 6 
#
# 1 0.016353 -0.004551 -0.005252 0.000000 0.000000 0.000000
# 2 -0.004551 0.016353 -0.005252 0.000000 0.000000 0.000000
# 3 -0.005252 -0.005252 0.013223 0.000000 0.000000 0.000000
# 4 0.000000 0.000000 0.000000 0.043252 0.000000 0.000000
# 5 0.000000 0.000000 0.000000 0.000000 0.043252 0.000000
# 6 0.000000 0.000000 0.000000 0.000000 0.000000 0.034161
#
#
# Mechanical properties :
#
#
# Convention : Reuss Voigt Hill
#
# Bulk Modulus (GPa) = 63.21720 65.26174 64.23947
# Shear Modulus (GPa) = 24.75525 25.11301 24.93413
#
# Velocity S-wave (km/s) = 3.55353 3.57912 3.56635
# Velocity P-wave (km/s) = 7.00598 7.09718 7.05172
#
# Compressibility (1/GPa) = 0.01581848
#
# Stress axis : x y z
#
# Youngs Moduli (GPa) = 61.14968 61.14968 75.62623
#
# Poissons Ratio (x) = 0.27828 0.39721
# Poissons Ratio (y) = 0.27828 0.39721
# Poissons Ratio (z) = 0.32118 0.32118
#
# Static dielectric constant tensor:
#      x y z
#    x 1.705420 0.000000 0.000000 
#    y 0.000000 1.705420 0.000000 
#    z 0.000000 0.000000 1.724960 
# 
# From -- ./inp_files/975.got.cif
#   From: 2010.05.17/outbox.cif.g08.bks.cpg/sg114_1_cif.got.tgz:975.got - 2010.05.20 11:04:54.
