data_PCOD9556296
_publ_section_title
;
Structure prediction by ZEFSAII (Michael W. Deem and Ramdas Pophale) SiO2 
 PCOD9556296
Probable space group: P -4 21 C
;
_chemical_formula_sum "Si O2"
_cell_formula_units_Z 40
_cell_length_a 11.290482
_cell_length_b 11.290482
_cell_length_c 13.881570
_cell_angle_alpha 90.000000
_cell_angle_beta 90.000000
_cell_angle_gamma 90.000000
_cell_volume 1769.552911
_symmetry_space_group_name_H-M "P -4 21 C"
_symmetry_group_IT_number 114
_symmetry_cell_setting 'tetragonal'
loop_
_space_group_symop_operation_xyz
x,y,z
y,-x,-z
-x,-y,z
-y,x,-z
1/2+x,1/2-y,1/2-z
1/2-x,1/2+y,1/2-z
1/2-y,1/2-x,1/2+z
1/2+y,1/2+x,1/2+z
loop_
_atom_site_type_symbol
_atom_site_label
_atom_site_fract_x
_atom_site_fract_y
_atom_site_fract_z
Si Si1 0.000000 0.000000 0.000000
Si Si2 0.778891 0.358625 0.828831
Si Si3 0.874219 0.647044 0.127077
Si Si4 0.760599 0.927664 0.464904
Si Si5 0.602942 0.719280 0.392538
Si Si6 0.000000 0.000000 0.500000
Si Si7 0.500000 0.000000 0.210147
O O1 0.920207 0.089477 0.064788
O O2 0.747059 0.222058 0.848850
O O3 0.725777 0.388296 0.723883
O O4 0.915467 0.401156 0.836416
O O5 0.725906 0.424839 0.920334
O O6 0.820563 0.536378 0.068945
O O7 0.986813 0.705560 0.077380
O O8 0.923964 0.589012 0.224405
O O9 0.710981 0.800788 0.430680
O O10 0.892392 0.956406 0.432851
#
# Coordination Sequence:
#
# PCOD9556296 Si02
#       7
#     2   8   8   8   8   2   4
#     4  12  28  50  76 112 158 204 252 318 384 448
#     4  11  25  43  77 110 145 202 254 306 386 456
#     4  11  22  48  72 107 147 191 252 313 378 452
#     4  12  24  47  73 106 152 188 251 313 371 451
#     4  11  27  51  74 112 151 200 253 315 383 454
#     4  12  28  42  72 112 140 206 248 302 384 448
#     4  10  24  46  70 108 144 194 248 308 380 448
#
# _framework density 22.604576999999999
#
# number of rings (size 3 to 8) (size 9 to 14) (size 15 to 20)
#    0.000    0.800    6.000    1.200    2.800    7.200 
#    0.000    0.000    0.000    0.000    0.000    0.000 
#    0.000    0.000    0.000    0.000    0.000    0.000 
#
# Total GULP energy -223257.635846 kJ/mol
# GULP energy per Si atom -5581.440896 kJ/mol
# Density = 2.255313 g / cm^3
# Si number density = 22.604577 Si / 1000 Ang^3
#
#
#
# Elastic Constant Matrix: (Units=GPa)
#
#
# Indices 1 2 3 4 5 6 
#
# 1 82.9613 70.2006 21.2646 0.0000 0.0000 0.0000
# 2 70.2006 82.9613 21.2646 0.0000 0.0000 0.0000
# 3 21.2646 21.2646 102.2492 0.0000 0.0000 0.0000
# 4 0.0000 0.0000 0.0000 23.5911 0.0000 0.0000
# 5 0.0000 0.0000 0.0000 0.0000 23.5911 0.0000
# 6 0.0000 0.0000 0.0000 0.0000 0.0000 71.0332
#
#
#
# Elastic Compliance Matrix: (Units=1/GPa)
#
#
# Indices 1 2 3 4 5 6 
#
# 1 0.042647 -0.035718 -0.001441 0.000000 0.000000 0.000000
# 2 -0.035718 0.042647 -0.001441 0.000000 0.000000 0.000000
# 3 -0.001441 -0.001441 0.010379 0.000000 0.000000 0.000000
# 4 0.000000 0.000000 0.000000 0.042389 0.000000 0.000000
# 5 0.000000 0.000000 0.000000 0.000000 0.042389 0.000000
# 6 0.000000 0.000000 0.000000 0.000000 0.000000 0.014078
#
#
# Mechanical properties :
#
#
# Convention : Reuss Voigt Hill
#
# Bulk Modulus (GPa) = 54.13138 54.84794 54.48966
# Shear Modulus (GPa) = 17.99288 34.00587 25.99937
#
# Velocity S-wave (km/s) = 2.82438 3.88284 3.39511
# Velocity P-wave (km/s) = 5.88517 6.66474 6.28705
#
# Compressibility (1/GPa) = 0.01847357
#
# Stress axis : x y z
#
# Youngs Moduli (GPa) = 23.44818 23.44818 96.34456
#
# Poissons Ratio (x) = 0.83752 0.13884
# Poissons Ratio (y) = 0.83752 0.13884
# Poissons Ratio (z) = 0.03379 0.03379
#
# Static dielectric constant tensor:
#      x y z
#    x 1.819400 0.000000 0.000000 
#    y 0.000000 1.819400 0.000000 
#    z 0.000000 0.000000 1.844390 
# 
# From -- ./inp_files/2194.got.cif
#   From: 2010.05.17/outbox.cif.g08.bks.cpg/sg114_2_cif.got.tgz:2194.got - 2010.05.20 11:04:54.
