data_PCOD9556092
_publ_section_title
;
Structure prediction by ZEFSAII (Michael W. Deem and Ramdas Pophale) SiO2 
 PCOD9556092
Probable space group: P -4 21 C
;
_chemical_formula_sum "Si O2"
_cell_formula_units_Z 50
_cell_length_a 21.326795
_cell_length_b 21.326795
_cell_length_c 5.364762
_cell_angle_alpha 90.000000
_cell_angle_beta 90.000000
_cell_angle_gamma 90.000000
_cell_volume 2440.066422
_symmetry_space_group_name_H-M "P -4 21 C"
_symmetry_group_IT_number 114
_symmetry_cell_setting 'tetragonal'
loop_
_space_group_symop_operation_xyz
x,y,z
y,-x,-z
-x,-y,z
-y,x,-z
1/2+x,1/2-y,1/2-z
1/2-x,1/2+y,1/2-z
1/2-y,1/2-x,1/2+z
1/2+y,1/2+x,1/2+z
loop_
_atom_site_type_symbol
_atom_site_label
_atom_site_fract_x
_atom_site_fract_y
_atom_site_fract_z
Si Si1 0.431651 0.031468 0.453184
Si Si2 0.494515 0.800514 0.842092
Si Si3 0.982226 0.907162 0.110217
Si Si4 0.744765 0.698645 0.754511
Si Si5 0.358584 0.197776 0.736053
Si Si6 0.000000 0.000000 0.500000
Si Si7 0.447577 0.735950 0.347344
O O1 0.420935 0.062060 0.722266
O O2 0.375186 0.985397 0.386312
O O3 0.500000 0.000000 0.477983
O O4 0.567994 0.792968 0.778950
O O5 0.458224 0.775662 0.599909
O O6 0.479030 0.765918 0.100847
O O7 0.968323 0.940123 0.370390
O O8 0.974185 0.833754 0.102891
O O9 0.052370 0.934258 0.059861
O O10 0.786282 0.723723 0.521655
O O11 0.679902 0.737216 0.746274
O O12 0.732951 0.625759 0.714328
O O13 0.342433 0.168324 0.467771
#
# Coordination Sequence:
#
# PCOD9556092 Si02
#       7
#     8   8   8   8   8   2   8
#     4  10  21  42  67  93 126 169 212 264 350 395
#     4  12  25  42  63 108 131 164 229 285 325 408
#     4   9  22  42  67  99 139 184 229 280 338 403
#     4  10  23  47  64  89 129 184 219 267 341 400
#     4  10  21  41  72  92 128 170 222 280 331 393
#     4   8  18  40  68  94 136 180 230 268 346 392
#     4  12  27  41  66 102 139 178 226 280 334 405
#
# _framework density 20.491243999999998
#
# number of rings (size 3 to 8) (size 9 to 14) (size 15 to 20)
#    0.000    1.760    0.000    3.840    6.720    0.000 
#   17.280    0.000    0.000    0.000    0.000    0.000 
#    0.000    0.000    0.000    0.000    0.000    0.000 
#
# Total GULP energy -278951.930953 kJ/mol
# GULP energy per Si atom -5579.038619 kJ/mol
# Density = 2.044461 g / cm^3
# Si number density = 20.491244 Si / 1000 Ang^3
#
#
#
# Elastic Constant Matrix: (Units=GPa)
#
#
# Indices 1 2 3 4 5 6 
#
# 1 111.7906 45.7367 32.1282 0.0000 0.0000 0.0000
# 2 45.7367 111.7906 32.1282 0.0000 0.0000 0.0000
# 3 32.1282 32.1282 127.7056 0.0000 0.0000 0.0000
# 4 0.0000 0.0000 0.0000 365.6704 0.0000 0.0000
# 5 0.0000 0.0000 0.0000 0.0000 365.6704 0.0000
# 6 0.0000 0.0000 0.0000 0.0000 0.0000 21.1583
#
#
#
# Elastic Compliance Matrix: (Units=1/GPa)
#
#
# Indices 1 2 3 4 5 6 
#
# 1 0.011107 -0.004033 -0.001780 0.000000 0.000000 0.000000
# 2 -0.004033 0.011107 -0.001780 0.000000 0.000000 0.000000
# 3 -0.001780 -0.001780 0.008726 0.000000 0.000000 0.000000
# 4 0.000000 0.000000 0.000000 0.002735 0.000000 0.000000
# 5 0.000000 0.000000 0.000000 0.000000 0.002735 0.000000
# 6 0.000000 0.000000 0.000000 0.000000 0.000000 0.047263
#
#
# Mechanical properties :
#
#
# Convention : Reuss Voigt Hill
#
# Bulk Modulus (GPa) = 63.47062 63.47477 63.47270
# Shear Modulus (GPa) = 48.02748 166.58609 107.30678
#
# Velocity S-wave (km/s) = 4.84654 9.02622 7.24436
# Velocity P-wave (km/s) = 7.89686 11.81838 10.05073
#
# Compressibility (1/GPa) = 0.01575532
#
# Stress axis : x y z
#
# Youngs Moduli (GPa) = 90.03658 90.03658 114.60035
#
# Poissons Ratio (x) = 0.36308 0.20395
# Poissons Ratio (y) = 0.36308 0.20395
# Poissons Ratio (z) = 0.16024 0.16024
#
# Static dielectric constant tensor:
#      x y z
#    x 1.565910 0.000000 0.000000 
#    y 0.000000 1.565910 0.000000 
#    z 0.000000 0.000000 1.832770 
# 
# From -- ./inp_files/243.got.cif
#   From: 2010.05.17/outbox.cif.g08.bks.cpg/sg114_1_cif.got.tgz:243.got - 2010.05.20 11:04:54.
