data_PCOD9556208
_publ_section_title
;
Structure prediction by ZEFSAII (Michael W. Deem and Ramdas Pophale) SiO2 
 PCOD9556208
Probable space group: P -4 21 C
;
_chemical_formula_sum "Si O2"
_cell_formula_units_Z 56
_cell_length_a 14.900015
_cell_length_b 14.900015
_cell_length_c 12.281701
_cell_angle_alpha 90.000000
_cell_angle_beta 90.000000
_cell_angle_gamma 90.000000
_cell_volume 2726.665929
_symmetry_space_group_name_H-M "P -4 21 C"
_symmetry_group_IT_number 114
_symmetry_cell_setting 'tetragonal'
loop_
_space_group_symop_operation_xyz
x,y,z
y,-x,-z
-x,-y,z
-y,x,-z
1/2+x,1/2-y,1/2-z
1/2-x,1/2+y,1/2-z
1/2-y,1/2-x,1/2+z
1/2+y,1/2+x,1/2+z
loop_
_atom_site_type_symbol
_atom_site_label
_atom_site_fract_x
_atom_site_fract_y
_atom_site_fract_z
Si Si1 0.948458 0.704593 0.253285
Si Si2 0.395129 0.158618 0.371383
Si Si3 0.345659 0.969108 0.295825
Si Si4 0.171743 0.782675 0.507036
Si Si5 0.810120 0.156592 0.908930
Si Si6 0.247617 0.968339 0.521504
Si Si7 0.004693 0.743505 0.935941
O O1 0.909167 0.616289 0.197848
O O2 0.886393 0.784139 0.207155
O O3 0.946817 0.684208 0.380949
O O4 0.048883 0.721607 0.209359
O O5 0.290949 0.179283 0.395523
O O6 0.447225 0.168864 0.486429
O O7 0.397282 0.061306 0.318098
O O8 0.279417 0.962009 0.398185
O O9 0.295990 0.975734 0.180102
O O10 0.254176 0.750061 0.430810
O O11 0.179625 0.886605 0.537644
O O12 0.072042 0.774658 0.459698
O O13 0.913897 0.185438 0.919090
O O14 0.782995 0.080554 0.998198
#
# Coordination Sequence:
#
# PCOD9556208 Si02
#       7
#     8   8   8   8   8   8   8
#     4  11  23  40  66 102 137 173 226 279 350 416
#     4   9  23  40  64 100 130 180 218 282 345 402
#     4  11  23  41  67  98 139 178 226 282 354 408
#     4  10  22  45  67  91 141 167 233 279 335 418
#     4  10  22  45  70  99 134 178 228 286 339 407
#     4  11  25  41  67 100 127 188 224 277 347 406
#     4  10  23  44  71 100 135 185 233 283 344 411
#
# _framework density 20.537901999999999
#
# number of rings (size 3 to 8) (size 9 to 14) (size 15 to 20)
#    0.000    1.714    1.429    1.286   12.000    0.571 
#    7.714    0.000    0.000    0.000    0.000    0.000 
#    0.000    0.000    0.000    0.000    0.000    0.000 
#
# Total GULP energy -312078.410799 kJ/mol
# GULP energy per Si atom -5572.828764 kJ/mol
# Density = 2.049116 g / cm^3
# Si number density = 20.537902 Si / 1000 Ang^3
#
#
#
# Elastic Constant Matrix: (Units=GPa)
#
#
# Indices 1 2 3 4 5 6 
#
# 1 103.8453 43.1702 26.8310 0.0000 0.0000 0.0000
# 2 43.1702 103.8453 26.8310 0.0000 0.0000 0.0000
# 3 26.8310 26.8310 127.8723 0.0000 0.0000 0.0000
# 4 0.0000 0.0000 0.0000 18.3536 0.0000 0.0000
# 5 0.0000 0.0000 0.0000 0.0000 18.3536 0.0000
# 6 0.0000 0.0000 0.0000 0.0000 0.0000 26.6643
#
#
#
# Elastic Compliance Matrix: (Units=1/GPa)
#
#
# Indices 1 2 3 4 5 6 
#
# 1 0.011924 -0.004558 -0.001546 0.000000 0.000000 0.000000
# 2 -0.004558 0.011924 -0.001546 0.000000 0.000000 0.000000
# 3 -0.001546 -0.001546 0.008469 0.000000 0.000000 0.000000
# 4 0.000000 0.000000 0.000000 0.054485 0.000000 0.000000
# 5 0.000000 0.000000 0.000000 0.000000 0.054485 0.000000
# 6 0.000000 0.000000 0.000000 0.000000 0.000000 0.037503
#
#
# Mechanical properties :
#
#
# Convention : Reuss Voigt Hill
#
# Bulk Modulus (GPa) = 58.75859 58.80305 58.78082
# Shear Modulus (GPa) = 25.02996 28.58968 26.80982
#
# Velocity S-wave (km/s) = 3.49480 3.73506 3.61693
# Velocity P-wave (km/s) = 6.70498 6.87710 6.79159
#
# Compressibility (1/GPa) = 0.01701879
#
# Stress axis : x y z
#
# Youngs Moduli (GPa) = 83.86664 83.86664 118.07877
#
# Poissons Ratio (x) = 0.38222 0.18250
# Poissons Ratio (y) = 0.38222 0.18250
# Poissons Ratio (z) = 0.12963 0.12963
#
# Static dielectric constant tensor:
#      x y z
#    x 1.751460 0.000000 0.000000 
#    y 0.000000 1.751460 0.000000 
#    z 0.000000 0.000000 1.781390 
# 
# From -- ./inp_files/1740.got.cif
#   From: 2010.05.17/outbox.cif.g08.bks.cpg/sg114_1_cif.got.tgz:1740.got - 2010.05.20 11:04:54.
