data_PCOD9556811
_publ_section_title
;
Structure prediction by ZEFSAII (Michael W. Deem and Ramdas Pophale) SiO2 
 PCOD9556811
Probable space group: P -4 M 2
;
_chemical_formula_sum "Si O2"
_cell_formula_units_Z 40
_cell_length_a 9.153797
_cell_length_b 9.153797
_cell_length_c 26.738681
_cell_angle_alpha 90.000000
_cell_angle_beta 90.000000
_cell_angle_gamma 90.000000
_cell_volume 2240.487545
_symmetry_space_group_name_H-M "P -4 M 2"
_symmetry_group_IT_number 115
_symmetry_cell_setting 'tetragonal'
loop_
_space_group_symop_operation_xyz
x,y,z
y,-x,-z
-x,-y,z
-y,x,-z
y,x,-z
-y,-x,-z
-x,y,z
x,-y,z
loop_
_atom_site_type_symbol
_atom_site_label
_atom_site_fract_x
_atom_site_fract_y
_atom_site_fract_z
Si Si1 0.175762 0.328298 0.250765
Si Si2 0.327044 0.825003 0.953175
Si Si3 0.677912 0.331250 0.444973
Si Si4 0.170837 0.676028 0.656012
Si Si5 0.822193 0.168124 0.148995
O O1 0.208621 0.500000 0.248021
O O2 0.250663 0.256667 0.298642
O O3 0.223896 0.248941 0.199666
O O4 0.000000 0.312029 0.254821
O O5 0.500000 0.798850 0.950780
O O6 0.251432 0.777487 0.901341
O O7 0.304197 0.000000 0.958589
O O8 0.255636 0.744364 0.000000
O O9 0.723538 0.276463 0.500000
O O10 0.500000 0.331589 0.446579
O O11 0.724131 0.500000 0.438302
O O12 0.722847 0.236731 0.397483
O O13 0.186229 0.500000 0.659192
O O14 0.000000 0.711901 0.659055
O O15 0.000000 0.169145 0.149183
O O16 0.774110 0.000000 0.148460
#
# Coordination Sequence:
#
# PCOD9556811 Si02
#       5
#     8   8   8   8   8
#     4  10  20  34  53  77 104 135 172 213 257 305
#     4  10  20  34  53  77 104 134 169 209 252 300
#     4   8  14  27  48  70  92 124 167 211 253 299
#     4  10  20  33  50  74 104 137 171 208 253 305
#     4   9  17  31  53  78 103 133 169 210 256 305
#
# _framework density 17.853256999999999
#
# number of rings (size 3 to 8) (size 9 to 14) (size 15 to 20)
#    0.000    2.600    0.000    3.000    0.000    6.000 
#    0.000    2.000    0.000    9.600    0.000    0.000 
#    0.000    0.000    0.000    0.000    0.000    0.000 
#
# Total GULP energy -223132.318377 kJ/mol
# GULP energy per Si atom -5578.307959 kJ/mol
# Density = 1.781262 g / cm^3
# Si number density = 17.853257 Si / 1000 Ang^3
#
#
#
# Elastic Constant Matrix: (Units=GPa)
#
#
# Indices 1 2 3 4 5 6 
#
# 1 69.9428 52.3268 80.4851 0.0000 0.0000 0.0000
# 2 52.3268 69.9422 80.4859 0.0000 0.0000 0.0000
# 3 80.4851 80.4859 220.0361 0.0000 0.0000 0.0000
# 4 0.0000 0.0000 0.0000 34.1042 0.0000 0.0000
# 5 0.0000 0.0000 0.0000 0.0000 34.1041 0.0000
# 6 0.0000 0.0000 0.0000 0.0000 0.0000 20.4550
#
#
#
# Elastic Compliance Matrix: (Units=1/GPa)
#
#
# Indices 1 2 3 4 5 6 
#
# 1 0.036271 -0.020496 -0.005770 0.000000 0.000000 0.000000
# 2 -0.020496 0.036272 -0.005771 0.000000 0.000000 0.000000
# 3 -0.005770 -0.005771 0.008766 0.000000 0.000000 0.000000
# 4 0.000000 0.000000 0.000000 0.029322 0.000000 0.000000
# 5 0.000000 0.000000 0.000000 0.000000 0.029322 0.000000
# 6 0.000000 0.000000 0.000000 0.000000 0.000000 0.048888
#
#
# Mechanical properties :
#
#
# Convention : Reuss Voigt Hill
#
# Bulk Modulus (GPa) = 58.01940 87.39074 72.70507
# Shear Modulus (GPa) = 19.33042 27.50756 23.41899
#
# Velocity S-wave (km/s) = 3.29407 3.92951 3.62574
# Velocity P-wave (km/s) = 6.85830 8.34528 7.63807
#
# Compressibility (1/GPa) = 0.01723561
#
# Stress axis : x y z
#
# Youngs Moduli (GPa) = 27.57026 27.56945 114.07474
#
# Poissons Ratio (x) = 0.56506 0.65823
# Poissons Ratio (y) = 0.56508 0.65830
# Poissons Ratio (z) = 0.15908 0.15910
#
# Static dielectric constant tensor:
#      x y z
#    x 1.599120 0.000000 0.000000 
#    y 0.000000 1.599120 0.000000 
#    z 0.000000 0.000000 1.592640 
# 
# From -- ./inp_files/5105.got.cif
#   From: 2010.05.17/outbox.cif.g08.bks.cpg/sg115_3_cif.got.tgz:5105.got - 2010.05.20 11:07:42.
