data_PCOD9556699
_publ_section_title
;
Structure prediction by ZEFSAII (Michael W. Deem and Ramdas Pophale) SiO2 
 PCOD9556699
Probable space group: P -4 M 2
;
_chemical_formula_sum "Si O2"
_cell_formula_units_Z 44
_cell_length_a 14.199224
_cell_length_b 14.199224
_cell_length_c 13.460290
_cell_angle_alpha 90.000000
_cell_angle_beta 90.000000
_cell_angle_gamma 90.000000
_cell_volume 2713.836240
_symmetry_space_group_name_H-M "P -4 M 2"
_symmetry_group_IT_number 115
_symmetry_cell_setting 'tetragonal'
loop_
_space_group_symop_operation_xyz
x,y,z
y,-x,-z
-x,-y,z
-y,x,-z
y,x,-z
-y,-x,-z
-x,y,z
x,-y,z
loop_
_atom_site_type_symbol
_atom_site_label
_atom_site_fract_x
_atom_site_fract_y
_atom_site_fract_z
Si Si1 0.387309 0.294648 0.904345
Si Si2 0.614909 0.892816 0.372015
Si Si3 0.114568 0.607225 0.409031
Si Si4 0.385301 0.106875 0.807604
Si Si5 0.699703 0.386067 0.709124
Si Si6 0.388073 0.611928 0.500000
O O1 0.500000 0.303155 0.912786
O O2 0.362026 0.184899 0.888365
O O3 0.353107 0.345648 0.803970
O O4 0.339116 0.339116 0.000000
O O5 0.500000 0.894709 0.378026
O O6 0.648799 0.863625 0.483048
O O7 0.639618 0.810389 0.296026
O O8 0.644798 0.000000 0.349818
O O9 0.151841 0.500000 0.409586
O O10 0.138265 0.650234 0.302118
O O11 0.000000 0.601622 0.407847
O O12 0.500000 0.105104 0.799758
O O13 0.355026 0.000000 0.828330
O O14 0.692312 0.500000 0.712097
O O15 0.655515 0.354199 0.603771
O O16 0.500000 0.628126 0.505210
#
# Coordination Sequence:
#
# PCOD9556699 Si02
#       6
#     8   8   8   8   8   4
#     4  11  23  36  50  66  91 129 172 205 233 274
#     4   8  14  25  42  65  93 122 152 190 242 296
#     4   7  10  19  38  63  88 113 140 176 229 289
#     4   8  15  29  49  70  89 112 149 198 248 288
#     4  10  20  31  45  65  93 128 165 198 234 278
#     4   9  18  30  42  60  88 122 160 199 234 270
#
# _framework density 16.21321
#
# number of rings (size 3 to 8) (size 9 to 14) (size 15 to 20)
#    0.000    3.182    0.000    3.273    2.545    2.000 
#    0.000    0.909    0.000    4.364    0.000    0.000 
#    0.000    2.545    0.000    0.000    0.000    0.000 
#
# Total GULP energy -244944.869994 kJ/mol
# GULP energy per Si atom -5566.928863 kJ/mol
# Density = 1.617631 g / cm^3
# Si number density = 16.213210 Si / 1000 Ang^3
#
#
#
# Elastic Constant Matrix: (Units=GPa)
#
#
# Indices 1 2 3 4 5 6 
#
# 1 58.7265 16.8297 34.6416 0.0000 0.0000 0.0000
# 2 16.8297 58.7261 34.6416 0.0000 0.0000 0.0000
# 3 34.6416 34.6416 80.7770 0.0000 0.0000 0.0000
# 4 0.0000 0.0000 0.0000 24.0171 0.0000 0.0000
# 5 0.0000 0.0000 0.0000 0.0000 24.0172 0.0000
# 6 0.0000 0.0000 0.0000 0.0000 0.0000 1.1251
#
#
#
# Elastic Compliance Matrix: (Units=1/GPa)
#
#
# Indices 1 2 3 4 5 6 
#
# 1 0.022841 -0.001028 -0.009355 0.000000 0.000000 0.000000
# 2 -0.001028 0.022841 -0.009355 0.000000 0.000000 0.000000
# 3 -0.009355 -0.009355 0.020403 0.000000 0.000000 0.000000
# 4 0.000000 0.000000 0.000000 0.041637 0.000000 0.000000
# 5 0.000000 0.000000 0.000000 0.000000 0.041637 0.000000
# 6 0.000000 0.000000 0.000000 0.000000 0.000000 0.888772
#
#
# Mechanical properties :
#
#
# Convention : Reuss Voigt Hill
#
# Bulk Modulus (GPa) = 37.57838 41.16170 39.37004
# Shear Modulus (GPa) = 4.60204 17.30635 10.95419
#
# Velocity S-wave (km/s) = 1.68660 3.27069 2.60212
# Velocity P-wave (km/s) = 5.19815 6.30128 5.77611
#
# Compressibility (1/GPa) = 0.02661105
#
# Stress axis : x y z
#
# Youngs Moduli (GPa) = 43.78156 43.78116 49.01147
#
# Poissons Ratio (x) = 0.04499 0.45849
# Poissons Ratio (y) = 0.04499 0.45849
# Poissons Ratio (z) = 0.40956 0.40956
#
# Static dielectric constant tensor:
#      x y z
#    x 1.566710 0.000000 0.000000 
#    y 0.000000 1.566720 0.000000 
#    z 0.000000 0.000000 1.559510 
# 
# From -- ./inp_files/2846.got.cif
#   From: 2010.05.17/outbox.cif.g08.bks.cpg/sg115_2_cif.got.tgz:2846.got - 2010.05.20 11:07:42.
