data_PCOD9556637
_publ_section_title
;
Structure prediction by ZEFSAII (Michael W. Deem and Ramdas Pophale) SiO2 
 PCOD9556637
Probable space group: P -4 M 2
;
_chemical_formula_sum "Si O2"
_cell_formula_units_Z 48
_cell_length_a 8.146881
_cell_length_b 8.146881
_cell_length_c 35.286377
_cell_angle_alpha 90.000000
_cell_angle_beta 90.000000
_cell_angle_gamma 90.000000
_cell_volume 2342.015771
_symmetry_space_group_name_H-M "P -4 M 2"
_symmetry_group_IT_number 115
_symmetry_cell_setting 'tetragonal'
loop_
_space_group_symop_operation_xyz
x,y,z
y,-x,-z
-x,-y,z
-y,x,-z
y,x,-z
-y,-x,-z
-x,y,z
x,-y,z
loop_
_atom_site_type_symbol
_atom_site_label
_atom_site_fract_x
_atom_site_fract_y
_atom_site_fract_z
Si Si1 0.803239 0.186787 0.540409
Si Si2 0.698932 0.500000 0.745341
Si Si3 0.691435 0.811177 0.960716
Si Si4 0.311074 0.305737 0.379839
Si Si5 0.500000 0.198666 0.167641
Si Si6 0.806310 0.188107 0.879256
Si Si7 0.700833 0.180099 0.698895
O O1 0.742649 0.257352 0.500000
O O2 0.766745 0.280025 0.578920
O O3 0.000000 0.180000 0.535958
O O4 0.741020 0.000000 0.545286
O O5 0.500000 0.500000 0.744247
O O6 0.755500 0.500000 0.788486
O O7 0.755027 0.334834 0.723779
O O8 0.500000 0.805241 0.951210
O O9 0.784270 0.756712 0.922950
O O10 0.740448 0.000000 0.967686
O O11 0.720067 0.720067 0.000000
O O12 0.500000 0.281777 0.368722
O O13 0.281062 0.500000 0.383411
O O14 0.204016 0.243802 0.344681
O O15 0.332814 0.260931 0.147396
O O16 0.500000 0.000000 0.163926
O O17 0.000000 0.175936 0.871552
O O18 0.738676 0.000000 0.875530
O O19 0.500000 0.184777 0.698337
O O20 0.750369 0.000000 0.712978
#
# Coordination Sequence:
#
# PCOD9556637 Si02
#       7
#     8   4   8   8   4   8   8
#     4   9  19  35  51  69  99 139 181 222 266 323
#     4  10  20  36  56  82 110 138 180 226 276 338
#     4  10  21  35  53  80 113 147 186 233 281 331
#     4  10  19  32  52  78 106 135 174 224 271 324
#     4  10  22  38  58  82 110 146 184 230 286 340
#     4   9  19  37  58  78 106 148 192 230 274 336
#     4   9  17  32  55  80 108 141 176 220 276 335
#
# _framework density 20.495166999999999
#
# number of rings (size 3 to 8) (size 9 to 14) (size 15 to 20)
#    0.000    2.500    0.833    1.500    1.167    4.333 
#    0.000    3.333    0.000    1.000    0.000    0.000 
#    0.000    0.000    0.000    0.000    0.000    0.000 
#
# Total GULP energy -267663.912148 kJ/mol
# GULP energy per Si atom -5576.331503 kJ/mol
# Density = 2.044852 g / cm^3
# Si number density = 20.495167 Si / 1000 Ang^3
#
#
#
# Elastic Constant Matrix: (Units=GPa)
#
#
# Indices 1 2 3 4 5 6 
#
# 1 -7.5852 67.4995 44.2060 0.0000 0.0000 0.0000
# 2 67.4995 -7.5858 44.2062 0.0000 0.0000 0.0000
# 3 44.2060 44.2062 129.9843 0.0000 0.0000 0.0000
# 4 0.0000 0.0000 0.0000 34.9632 0.0000 0.0000
# 5 0.0000 0.0000 0.0000 0.0000 34.9634 0.0000
# 6 0.0000 0.0000 0.0000 0.0000 0.0000 10.4361
#
#
#
# Elastic Compliance Matrix: (Units=1/GPa)
#
#
# Indices 1 2 3 4 5 6 
#
# 1 0.010094 0.023412 -0.011395 0.000000 0.000000 0.000000
# 2 0.023412 0.010093 -0.011395 0.000000 0.000000 0.000000
# 3 -0.011395 -0.011395 0.015444 0.000000 0.000000 0.000000
# 4 0.000000 0.000000 0.000000 0.028601 0.000000 0.000000
# 5 0.000000 0.000000 0.000000 0.000000 0.028601 0.000000
# 6 0.000000 0.000000 0.000000 0.000000 0.000000 0.095821
#
#
# Mechanical properties :
#
#
# Convention : Reuss Voigt Hill
#
# Bulk Modulus (GPa) = 27.11852 47.40407 37.26130
# Shear Modulus (GPa) = 25.03736 13.33265 19.18501
#
# Velocity S-wave (km/s) = 3.49896 2.55331 3.06285
# Velocity P-wave (km/s) = 5.43912 5.64554 5.54329
#
# Compressibility (1/GPa) = 0.03687517
#
# Stress axis : x y z
#
# Youngs Moduli (GPa) = 99.07240 99.07565 64.75158
#
# Poissons Ratio (x) = -2.31953 0.73783
# Poissons Ratio (y) = -2.31945 0.73782
# Poissons Ratio (z) = 1.12891 1.12893
#
# Static dielectric constant tensor:
#      x y z
#    x 1.746240 0.000000 0.000000 
#    y 0.000000 1.746240 0.000000 
#    z 0.000000 0.000000 1.754950 
# 
# From -- ./inp_files/6163.got.cif
#   From: 2010.05.17/outbox.cif.g08.bks.cpg/sg115_4_cif.got.tgz:6163.got - 2010.05.20 11:07:42.
