data_PCOD9556199
_publ_section_title
;
Structure prediction by ZEFSAII (Michael W. Deem and Ramdas Pophale) SiO2 
 PCOD9556199
Probable space group: P -4 21 C
;
_chemical_formula_sum "Si O2"
_cell_formula_units_Z 56
_cell_length_a 14.958473
_cell_length_b 14.958473
_cell_length_c 11.746117
_cell_angle_alpha 90.000000
_cell_angle_beta 90.000000
_cell_angle_gamma 90.000000
_cell_volume 2628.263151
_symmetry_space_group_name_H-M "P -4 21 C"
_symmetry_group_IT_number 114
_symmetry_cell_setting 'tetragonal'
loop_
_space_group_symop_operation_xyz
x,y,z
y,-x,-z
-x,-y,z
-y,x,-z
1/2+x,1/2-y,1/2-z
1/2-x,1/2+y,1/2-z
1/2-y,1/2-x,1/2+z
1/2+y,1/2+x,1/2+z
loop_
_atom_site_type_symbol
_atom_site_label
_atom_site_fract_x
_atom_site_fract_y
_atom_site_fract_z
Si Si1 0.603600 0.525931 0.215585
Si Si2 0.230024 0.726122 0.699099
Si Si3 0.257198 0.429661 0.397632
Si Si4 0.601698 0.245616 0.336604
Si Si5 0.537730 0.100124 0.763693
Si Si6 0.556879 0.758490 0.927161
Si Si7 0.777096 0.942790 0.680119
O O1 0.500000 0.500000 0.225421
O O2 0.659443 0.522244 0.334166
O O3 0.663713 0.472165 0.126375
O O4 0.604627 0.627266 0.168257
O O5 0.328606 0.736306 0.648784
O O6 0.220069 0.801168 0.796917
O O7 0.161837 0.737399 0.596284
O O8 0.216931 0.628977 0.754106
O O9 0.260882 0.424534 0.532978
O O10 0.162877 0.466763 0.349236
O O11 0.595756 0.140655 0.304857
O O12 0.529027 0.291928 0.256632
O O13 0.487677 0.160534 0.857935
O O14 0.500000 0.000000 0.750365
O O15 0.532846 0.762153 0.058716
#
# Coordination Sequence:
#
# PCOD9556199 Si02
#       7
#     8   8   8   8   8   8   8
#     4  10  23  44  64 102 131 177 223 275 340 399
#     4  10  22  44  66  97 131 176 223 265 343 405
#     4   9  22  44  67  92 139 173 223 272 337 412
#     4  11  23  43  69  96 130 182 213 277 338 399
#     4  10  23  43  65 100 131 175 223 274 339 393
#     4  11  24  42  70  99 134 172 224 286 322 403
#     4  11  25  42  67 102 130 175 231 267 345 405
#
# _framework density 21.306847000000001
#
# number of rings (size 3 to 8) (size 9 to 14) (size 15 to 20)
#    0.000    1.714    0.000    3.429    8.000    0.571 
#   28.286    0.000    0.000    0.000    0.000    0.000 
#    0.000    0.000    0.000    0.000    0.000    0.000 
#
# Total GULP energy -312998.248671 kJ/mol
# GULP energy per Si atom -5589.254441 kJ/mol
# Density = 2.125835 g / cm^3
# Si number density = 21.306847 Si / 1000 Ang^3
#
#
#
# Elastic Constant Matrix: (Units=GPa)
#
#
# Indices 1 2 3 4 5 6 
#
# 1 71.1644 7.5240 3.8888 0.0000 0.0000 0.0000
# 2 7.5240 71.1644 3.8888 0.0000 0.0000 0.0000
# 3 3.8888 3.8888 119.8191 0.0000 0.0000 0.0000
# 4 0.0000 0.0000 0.0000 13.8872 0.0000 0.0000
# 5 0.0000 0.0000 0.0000 0.0000 13.8872 0.0000
# 6 0.0000 0.0000 0.0000 0.0000 0.0000 34.4558
#
#
#
# Elastic Compliance Matrix: (Units=1/GPa)
#
#
# Indices 1 2 3 4 5 6 
#
# 1 0.014231 -0.001482 -0.000414 0.000000 0.000000 0.000000
# 2 -0.001482 0.014231 -0.000414 0.000000 0.000000 0.000000
# 3 -0.000414 -0.000414 0.008373 0.000000 0.000000 0.000000
# 4 0.000000 0.000000 0.000000 0.072009 0.000000 0.000000
# 5 0.000000 0.000000 0.000000 0.000000 0.072009 0.000000
# 6 0.000000 0.000000 0.000000 0.000000 0.000000 0.029023
#
#
# Mechanical properties :
#
#
# Convention : Reuss Voigt Hill
#
# Bulk Modulus (GPa) = 31.04034 32.52789 31.78412
# Shear Modulus (GPa) = 22.19918 28.90246 25.55082
#
# Velocity S-wave (km/s) = 3.23132 3.68705 3.46668
# Velocity P-wave (km/s) = 5.34058 5.78146 5.56539
#
# Compressibility (1/GPa) = 0.03221614
#
# Stress axis : x y z
#
# Youngs Moduli (GPa) = 70.26777 70.26777 119.43472
#
# Poissons Ratio (x) = 0.10414 0.04942
# Poissons Ratio (y) = 0.10414 0.04942
# Poissons Ratio (z) = 0.02908 0.02908
#
# Static dielectric constant tensor:
#      x y z
#    x 1.792760 0.000000 0.000000 
#    y 0.000000 1.792760 0.000000 
#    z 0.000000 0.000000 1.724630 
# 
# From -- ./inp_files/1753.got.cif
#   From: 2010.05.17/outbox.cif.g08.bks.cpg/sg114_1_cif.got.tgz:1753.got - 2010.05.20 11:04:54.
