data_PCOD9556999
_publ_section_title
;
Structure prediction by ZEFSAII (Michael W. Deem and Ramdas Pophale) SiO2 
 PCOD9556999
Probable space group: P -4 M 2
;
_chemical_formula_sum "Si O2"
_cell_formula_units_Z 40
_cell_length_a 9.010567
_cell_length_b 9.010567
_cell_length_c 26.484940
_cell_angle_alpha 90.000000
_cell_angle_beta 90.000000
_cell_angle_gamma 90.000000
_cell_volume 2150.320692
_symmetry_space_group_name_H-M "P -4 M 2"
_symmetry_group_IT_number 115
_symmetry_cell_setting 'tetragonal'
loop_
_space_group_symop_operation_xyz
x,y,z
y,-x,-z
-x,-y,z
-y,x,-z
y,x,-z
-y,-x,-z
-x,y,z
x,-y,z
loop_
_atom_site_type_symbol
_atom_site_label
_atom_site_fract_x
_atom_site_fract_y
_atom_site_fract_z
Si Si1 0.825257 0.321762 0.341072
Si Si2 0.323314 0.176656 0.049022
Si Si3 0.176321 0.676107 0.755552
Si Si4 0.328497 0.319304 0.444592
Si Si5 0.823382 0.323496 0.146944
O O1 0.802593 0.500000 0.336596
O O2 0.737290 0.241039 0.296770
O O3 0.766422 0.275208 0.396217
O O4 0.000000 0.292651 0.336325
O O5 0.500000 0.202089 0.048292
O O6 0.253637 0.247329 0.099109
O O7 0.297545 0.000000 0.048702
O O8 0.249652 0.249652 0.000000
O O9 0.202574 0.500000 0.759254
O O10 0.255714 0.757782 0.801877
O O11 0.000000 0.702257 0.758014
O O12 0.272221 0.272221 0.500000
O O13 0.500000 0.272372 0.437938
O O14 0.328835 0.500000 0.446519
O O15 0.796995 0.500000 0.145694
O O16 0.000000 0.298496 0.144926
#
# Coordination Sequence:
#
# PCOD9556999 Si02
#       5
#     8   8   8   8   8
#     4  10  20  34  54  81 111 144 183 226 275 332
#     4  11  24  41  62  90 122 156 196 238 280 330
#     4  11  24  40  58  82 111 145 187 232 279 333
#     4   8  14  27  49  75 103 139 183 228 273 322
#     4  11  24  41  62  89 118 149 188 232 280 336
#
# _framework density 18.601879
#
# number of rings (size 3 to 8) (size 9 to 14) (size 15 to 20)
#    0.000    1.800    0.000    4.800    0.000   13.200 
#    0.000    1.000    0.000    3.600    0.000    0.000 
#    0.000    0.000    0.000    0.000    0.000    0.000 
#
# Total GULP energy -223534.530465 kJ/mol
# GULP energy per Si atom -5588.363262 kJ/mol
# Density = 1.855954 g / cm^3
# Si number density = 18.601879 Si / 1000 Ang^3
#
#
#
# Elastic Constant Matrix: (Units=GPa)
#
#
# Indices 1 2 3 4 5 6 
#
# 1 97.2148 92.6382 82.5725 0.0000 0.0000 0.0000
# 2 92.6382 97.2148 82.5725 0.0000 0.0000 0.0000
# 3 82.5725 82.5725 191.0684 0.0000 0.0000 0.0000
# 4 0.0000 0.0000 0.0000 109.1623 0.0000 0.0000
# 5 0.0000 0.0000 0.0000 0.0000 109.1623 0.0000
# 6 0.0000 0.0000 0.0000 0.0000 0.0000 32.3241
#
#
#
# Elastic Compliance Matrix: (Units=1/GPa)
#
#
# Indices 1 2 3 4 5 6 
#
# 1 0.113472 -0.105032 -0.003647 0.000000 0.000000 0.000000
# 2 -0.105032 0.113472 -0.003647 0.000000 0.000000 0.000000
# 3 -0.003647 -0.003647 0.008386 0.000000 0.000000 0.000000
# 4 0.000000 0.000000 0.000000 0.009161 0.000000 0.000000
# 5 0.000000 0.000000 0.000000 0.000000 0.009161 0.000000
# 6 0.000000 0.000000 0.000000 0.000000 0.000000 0.030937
#
#
# Mechanical properties :
#
#
# Convention : Reuss Voigt Hill
#
# Bulk Modulus (GPa) = 93.66362 100.11828 96.89095
# Shear Modulus (GPa) = 9.75038 58.64404 34.19721
#
# Velocity S-wave (km/s) = 2.29194 5.62088 4.29228
# Velocity P-wave (km/s) = 7.58057 9.80123 8.76154
#
# Compressibility (1/GPa) = 0.01067650
#
# Stress axis : x y z
#
# Youngs Moduli (GPa) = 8.81275 8.81275 119.24207
#
# Poissons Ratio (x) = 0.92562 0.43493
# Poissons Ratio (y) = 0.92562 0.43493
# Poissons Ratio (z) = 0.03214 0.03214
#
# Static dielectric constant tensor:
#      x y z
#    x 1.620670 0.000000 0.000000 
#    y 0.000000 1.620670 0.000000 
#    z 0.000000 0.000000 1.617390 
# 
# From -- ./inp_files/5068.got.cif
#   From: 2010.05.17/outbox.cif.g08.bks.cpg/sg115_3_cif.got.tgz:5068.got - 2010.05.20 11:07:42.
