data_PCOD9556367
_publ_section_title
;
Structure prediction by ZEFSAII (Michael W. Deem and Ramdas Pophale) SiO2 
 PCOD9556367
Probable space group: P -4 21 C
;
_chemical_formula_sum "Si O2"
_cell_formula_units_Z 40
_cell_length_a 18.694574
_cell_length_b 18.694574
_cell_length_c 5.117486
_cell_angle_alpha 90.000000
_cell_angle_beta 90.000000
_cell_angle_gamma 90.000000
_cell_volume 1788.495326
_symmetry_space_group_name_H-M "P -4 21 C"
_symmetry_group_IT_number 114
_symmetry_cell_setting 'tetragonal'
loop_
_space_group_symop_operation_xyz
x,y,z
y,-x,-z
-x,-y,z
-y,x,-z
1/2+x,1/2-y,1/2-z
1/2-x,1/2+y,1/2-z
1/2-y,1/2-x,1/2+z
1/2+y,1/2+x,1/2+z
loop_
_atom_site_type_symbol
_atom_site_label
_atom_site_fract_x
_atom_site_fract_y
_atom_site_fract_z
Si Si1 0.502828 0.384773 0.577330
Si Si2 0.529196 0.912678 0.082597
Si Si3 0.889989 0.675005 0.511723
Si Si4 0.493617 0.299455 0.079967
Si Si5 0.352558 0.211931 0.050032
O O1 0.432891 0.430378 0.506582
O O2 0.500970 0.316377 0.386682
O O3 0.504944 0.364591 0.880194
O O4 0.531417 0.937686 0.379841
O O5 0.453456 0.883408 0.996813
O O6 0.587039 0.849642 0.062862
O O7 0.843083 0.662004 0.769526
O O8 0.940390 0.745442 0.489006
O O9 0.409476 0.277049 0.036593
O O10 0.303498 0.198506 0.303720
#
# Coordination Sequence:
#
# PCOD9556367 Si02
#       5
#     8   8   8   8   8
#     4  11  24  44  72 100 118 141 194 268 336 385
#     4   9  17  28  43  69 108 154 206 256 290 322
#     4  11  22  34  52  82 121 166 208 240 283 351
#     4  11  22  40  66  92 128 169 200 252 316 361
#     4   9  17  31  53  83 121 166 208 240 283 351
#
# _framework density 22.365169000000002
#
# number of rings (size 3 to 8) (size 9 to 14) (size 15 to 20)
#    0.000    1.800    0.000    4.800    0.000   10.400 
#    0.000    0.000    0.000   24.000    0.000    0.000 
#    0.000    0.000    0.000    0.000    0.000    0.000 
#
# Total GULP energy -223019.521204 kJ/mol
# GULP energy per Si atom -5575.488030 kJ/mol
# Density = 2.231427 g / cm^3
# Si number density = 22.365169 Si / 1000 Ang^3
#
#
#
# Elastic Constant Matrix: (Units=GPa)
#
#
# Indices 1 2 3 4 5 6 
#
# 1 32.0783 14.4645 0.6282 0.0000 0.0000 0.0000
# 2 14.4645 32.0783 0.6282 0.0000 0.0000 0.0000
# 3 0.6282 0.6282 109.1095 0.0000 0.0000 0.0000
# 4 0.0000 0.0000 0.0000 23.7931 0.0000 0.0000
# 5 0.0000 0.0000 0.0000 0.0000 23.7931 0.0000
# 6 0.0000 0.0000 0.0000 0.0000 0.0000 -3.7023
#
#
#
# Elastic Compliance Matrix: (Units=1/GPa)
#
#
# Indices 1 2 3 4 5 6 
#
# 1 0.039131 -0.017642 -0.000124 0.000000 0.000000 0.000000
# 2 -0.017642 0.039131 -0.000124 0.000000 0.000000 0.000000
# 3 -0.000124 -0.000124 0.009167 0.000000 0.000000 0.000000
# 4 0.000000 0.000000 0.000000 0.042029 0.000000 0.000000
# 5 0.000000 0.000000 0.000000 0.000000 0.042029 0.000000
# 6 0.000000 0.000000 0.000000 0.000000 0.000000 -0.270103
#
#
# Mechanical properties :
#
#
# Convention : Reuss Voigt Hill
#
# Bulk Modulus (GPa) = 19.36129 22.74534 21.05332
# Shear Modulus (GPa) = -109.60224 19.27979 -45.16123
#
# Velocity S-wave (km/s) = -7.00801 2.93925 -4.49850
# Velocity P-wave (km/s) = 7.53705 4.65950 4.18905
#
# Compressibility (1/GPa) = 0.05164946
#
# Stress axis : x y z
#
# Youngs Moduli (GPa) = 25.55504 25.55504 109.09253
#
# Poissons Ratio (x) = 0.45085 0.01350
# Poissons Ratio (y) = 0.45085 0.01350
# Poissons Ratio (z) = 0.00316 0.00316
#
# Static dielectric constant tensor:
#      x y z
#    x 1.854090 0.000000 0.000000 
#    y 0.000000 1.854090 0.000000 
#    z 0.000000 0.000000 1.789330 
# 
# From -- ./inp_files/158.got.cif
#   From: 2010.05.17/outbox.cif.g08.bks.cpg/sg114_1_cif.got.tgz:158.got - 2010.05.20 11:04:54.
