data_PCOD9556323
_publ_section_title
;
Structure prediction by ZEFSAII (Michael W. Deem and Ramdas Pophale) SiO2 
 PCOD9556323
Probable space group: P -4 21 C
;
_chemical_formula_sum "Si O2"
_cell_formula_units_Z 44
_cell_length_a 8.887863
_cell_length_b 8.887863
_cell_length_c 27.560773
_cell_angle_alpha 90.000000
_cell_angle_beta 90.000000
_cell_angle_gamma 90.000000
_cell_volume 2177.138698
_symmetry_space_group_name_H-M "P -4 21 C"
_symmetry_group_IT_number 114
_symmetry_cell_setting 'tetragonal'
loop_
_space_group_symop_operation_xyz
x,y,z
y,-x,-z
-x,-y,z
-y,x,-z
1/2+x,1/2-y,1/2-z
1/2-x,1/2+y,1/2-z
1/2-y,1/2-x,1/2+z
1/2+y,1/2+x,1/2+z
loop_
_atom_site_type_symbol
_atom_site_label
_atom_site_fract_x
_atom_site_fract_y
_atom_site_fract_z
Si Si1 0.500000 0.500000 0.741856
Si Si2 0.245840 0.933520 0.003310
Si Si3 0.681641 0.155489 0.901889
Si Si4 0.183748 0.119037 0.842243
Si Si5 0.335362 0.026384 0.106315
Si Si6 0.167774 0.041814 0.335833
O O1 0.641848 0.466282 0.707392
O O2 0.489571 0.358759 0.778633
O O3 0.347783 0.882337 0.958190
O O4 0.099894 0.824318 0.005724
O O5 0.327064 0.939658 0.054911
O O6 0.801483 0.291905 0.902160
O O7 0.553052 0.212026 0.866187
O O8 0.751668 0.003561 0.879339
O O9 0.292760 0.262744 0.838101
O O10 0.033384 0.196568 0.862087
O O11 0.500000 0.000000 0.127847
O O12 0.000000 0.000000 0.355676
#
# Coordination Sequence:
#
# PCOD9556323 Si02
#       6
#     4   8   8   8   8   8
#     4  10  26  42  66  95 127 174 234 272 348 390
#     4   9  18  36  63  96 132 168 223 271 316 413
#     4  11  21  42  68  95 129 177 221 271 340 400
#     4  12  22  44  66  93 129 173 224 271 330 409
#     4  11  22  37  65  97 134 171 215 278 336 403
#     4  10  26  43  64  94 133 168 225 283 342 400
#
# _framework density 20.210011999999999
#
# number of rings (size 3 to 8) (size 9 to 14) (size 15 to 20)
#    0.545    0.909    3.636    1.636    2.545    1.455 
#    0.000    0.000    0.000    0.000    0.000    0.000 
#    0.000    0.000    0.000    0.000    0.000    0.000 
#
# Total GULP energy -245167.139282 kJ/mol
# GULP energy per Si atom -5571.980438 kJ/mol
# Density = 2.016401 g / cm^3
# Si number density = 20.210012 Si / 1000 Ang^3
#
#
#
# Elastic Constant Matrix: (Units=GPa)
#
#
# Indices 1 2 3 4 5 6 
#
# 1 65.3010 6.6548 10.6366 0.0000 0.0000 0.0000
# 2 6.6548 65.3010 10.6366 0.0000 0.0000 0.0000
# 3 10.6366 10.6366 89.7260 0.0000 0.0000 0.0000
# 4 0.0000 0.0000 0.0000 -47.6912 0.0000 0.0000
# 5 0.0000 0.0000 0.0000 0.0000 -47.6912 0.0000
# 6 0.0000 0.0000 0.0000 0.0000 0.0000 33.2542
#
#
#
# Elastic Compliance Matrix: (Units=1/GPa)
#
#
# Indices 1 2 3 4 5 6 
#
# 1 0.015727 -0.001325 -0.001707 0.000000 0.000000 0.000000
# 2 -0.001325 0.015727 -0.001707 0.000000 0.000000 0.000000
# 3 -0.001707 -0.001707 0.011550 0.000000 0.000000 0.000000
# 4 0.000000 0.000000 0.000000 -0.020968 0.000000 0.000000
# 5 0.000000 0.000000 0.000000 0.000000 -0.020968 0.000000
# 6 0.000000 0.000000 0.000000 0.000000 0.000000 0.030071
#
#
# Mechanical properties :
#
#
# Convention : Reuss Voigt Hill
#
# Bulk Modulus (GPa) = 29.82855 30.68712 30.25783
# Shear Modulus (GPa) = 96.54043 0.40103 48.47073
#
# Velocity S-wave (km/s) = 6.91898 0.44594 4.90261
# Velocity P-wave (km/s) = 8.86685 3.93475 6.85942
#
# Compressibility (1/GPa) = 0.03352493
#
# Stress axis : x y z
#
# Youngs Moduli (GPa) = 63.58579 63.58579 86.58138
#
# Poissons Ratio (x) = 0.08423 0.14782
# Poissons Ratio (y) = 0.08423 0.14782
# Poissons Ratio (z) = 0.10856 0.10856
#
# Static dielectric constant tensor:
#      x y z
#    x 2.080500 0.000000 0.000000 
#    y 0.000000 2.080500 0.000000 
#    z 0.000000 0.000000 1.711280 
# 
# From -- ./inp_files/3847.got.cif
#   From: 2010.05.17/outbox.cif.g08.bks.cpg/sg114_2_cif.got.tgz:3847.got - 2010.05.20 11:04:54.
