data_PCOD9556837
_publ_section_title
;
Structure prediction by ZEFSAII (Michael W. Deem and Ramdas Pophale) SiO2 
 PCOD9556837
Probable space group: P -4 M 2
;
_chemical_formula_sum "Si O2"
_cell_formula_units_Z 48
_cell_length_a 9.359199
_cell_length_b 9.359199
_cell_length_c 32.015245
_cell_angle_alpha 90.000000
_cell_angle_beta 90.000000
_cell_angle_gamma 90.000000
_cell_volume 2804.362769
_symmetry_space_group_name_H-M "P -4 M 2"
_symmetry_group_IT_number 115
_symmetry_cell_setting 'tetragonal'
loop_
_space_group_symop_operation_xyz
x,y,z
y,-x,-z
-x,-y,z
-y,x,-z
y,x,-z
-y,-x,-z
-x,y,z
x,-y,z
loop_
_atom_site_type_symbol
_atom_site_label
_atom_site_fract_x
_atom_site_fract_y
_atom_site_fract_z
Si Si1 0.828155 0.832249 0.378636
Si Si2 0.831942 0.672123 0.963233
Si Si3 0.828702 0.168552 0.212373
Si Si4 0.664905 0.826147 0.129595
Si Si5 0.174051 0.335594 0.295197
Si Si6 0.331782 0.328965 0.548059
O O1 0.782262 0.750379 0.336499
O O2 0.753448 0.761996 0.418442
O O3 0.000000 0.817334 0.382362
O O4 0.795499 0.000000 0.375403
O O5 0.820439 0.500000 0.964994
O O6 0.781757 0.715854 0.916567
O O7 0.000000 0.708115 0.967375
O O8 0.744355 0.744355 0.000000
O O9 0.757127 0.218367 0.169298
O O10 0.780325 0.257124 0.252733
O O11 0.000000 0.180975 0.208845
O O12 0.795976 0.000000 0.218439
O O13 0.500000 0.782255 0.134871
O O14 0.666623 0.000000 0.128709
O O15 0.220736 0.500000 0.296734
O O16 0.000000 0.334542 0.294849
O O17 0.293924 0.293924 0.500000
O O18 0.500000 0.295559 0.554086
O O19 0.315732 0.500000 0.552807
#
# Coordination Sequence:
#
# PCOD9556837 Si02
#       6
#     8   8   8   8   8   8
#     4  10  20  33  51  76 103 130 164 205 244 285
#     4   9  18  32  49  70  96 126 161 200 241 287
#     4   9  16  27  46  70  92 116 152 196 237 280
#     4   8  15  29  47  66  91 122 153 188 234 286
#     4   9  17  30  48  69  95 128 162 196 239 288
#     4   9  19  36  55  74  99 132 167 202 243 291
#
# _framework density 17.116188999999999
#
# number of rings (size 3 to 8) (size 9 to 14) (size 15 to 20)
#    0.000    3.000    0.000    2.500    0.000    5.000 
#    0.000    5.833    0.000    6.500    0.000    0.000 
#    0.000    0.000    0.000    0.000    0.000    0.000 
#
# Total GULP energy -267488.662953 kJ/mol
# GULP energy per Si atom -5572.680478 kJ/mol
# Density = 1.707723 g / cm^3
# Si number density = 17.116189 Si / 1000 Ang^3
#
#
#
# Elastic Constant Matrix: (Units=GPa)
#
#
# Indices 1 2 3 4 5 6 
#
# 1 50.2367 38.7797 76.2813 0.0000 0.0000 0.0000
# 2 38.7797 50.2367 76.2813 0.0000 0.0000 0.0000
# 3 76.2813 76.2813 202.0311 0.0000 0.0000 0.0000
# 4 0.0000 0.0000 0.0000-1000.7839 0.0000 0.0000
# 5 0.0000 0.0000 0.0000 0.0000-1000.7839 0.0000
# 6 0.0000 0.0000 0.0000 0.0000 0.0000 20.9587
#
#
#
# Elastic Compliance Matrix: (Units=1/GPa)
#
#
# Indices 1 2 3 4 5 6 
#
# 1 0.059558 -0.027724 -0.012020 0.000000 0.000000 0.000000
# 2 -0.027724 0.059558 -0.012020 0.000000 0.000000 0.000000
# 3 -0.012020 -0.012020 0.014026 0.000000 0.000000 0.000000
# 4 0.000000 0.000000 0.000000 -0.000999 0.000000 0.000000
# 5 0.000000 0.000000 0.000000 0.000000 -0.000999 0.000000
# 6 0.000000 0.000000 0.000000 0.000000 0.000000 0.047713
#
#
# Mechanical properties :
#
#
# Convention : Reuss Voigt Hill
#
# Bulk Modulus (GPa) = 33.76586 76.13213 54.94900
# Shear Modulus (GPa) = 17.10827 -388.71102 -185.80137
#
# Velocity S-wave (km/s) = 3.16498 -15.08623 -10.43018
# Velocity P-wave (km/s) = 5.75555 16.08984 10.62442
#
# Compressibility (1/GPa) = 0.02961571
#
# Stress axis : x y z
#
# Youngs Moduli (GPa) = 16.79027 16.79027 71.29479
#
# Poissons Ratio (x) = 0.46550 0.85694
# Poissons Ratio (y) = 0.46550 0.85694
# Poissons Ratio (z) = 0.20181 0.20181
#
# Static dielectric constant tensor:
#      x y z
#    x 1.576230 0.000000 0.000000 
#    y 0.000000 1.576230 0.000000 
#    z 0.000000 0.000000 1.572650 
# 
# From -- ./inp_files/5944.got.cif
#   From: 2010.05.17/outbox.cif.g08.bks.cpg/sg115_3_cif.got.tgz:5944.got - 2010.05.20 11:07:42.
