data_PCOD9556231
_publ_section_title
;
Structure prediction by ZEFSAII (Michael W. Deem and Ramdas Pophale) SiO2 
 PCOD9556231
Probable space group: P -4 21 C
;
_chemical_formula_sum "Si O2"
_cell_formula_units_Z 24
_cell_length_a 8.444245
_cell_length_b 8.444245
_cell_length_c 14.177545
_cell_angle_alpha 90.000000
_cell_angle_beta 90.000000
_cell_angle_gamma 90.000000
_cell_volume 1010.933725
_symmetry_space_group_name_H-M "P -4 21 C"
_symmetry_group_IT_number 114
_symmetry_cell_setting 'tetragonal'
loop_
_space_group_symop_operation_xyz
x,y,z
y,-x,-z
-x,-y,z
-y,x,-z
1/2+x,1/2-y,1/2-z
1/2-x,1/2+y,1/2-z
1/2-y,1/2-x,1/2+z
1/2+y,1/2+x,1/2+z
loop_
_atom_site_type_symbol
_atom_site_label
_atom_site_fract_x
_atom_site_fract_y
_atom_site_fract_z
Si Si1 0.931005 0.335373 0.415415
Si Si2 0.234930 0.699008 0.104400
Si Si3 0.829083 0.082818 0.273507
O O1 0.835405 0.365513 0.511401
O O2 0.830742 0.237493 0.340250
O O3 0.000000 0.500000 0.378618
O O4 0.085259 0.224407 0.433512
O O5 0.200927 0.850400 0.169344
O O6 0.223023 0.546812 0.173115
O O7 0.000000 0.000000 0.271447
#
# Coordination Sequence:
#
# PCOD9556231 Si02
#       3
#     8   8   8
#     4  11  23  41  69  98 137 186 234 289 359 423
#     4  11  22  44  70 100 137 185 235 294 360 425
#     4  10  23  41  71 102 139 184 239 296 353 431
#
# _framework density 23.740427
#
# number of rings (size 3 to 8) (size 9 to 14) (size 15 to 20)
#    0.000    1.333    3.333    2.000    0.000    6.667 
#    6.000    0.000    0.000    0.000    0.000    0.000 
#    0.000    0.000    0.000    0.000    0.000    0.000 
#
# Total GULP energy -134110.494582 kJ/mol
# GULP energy per Si atom -5587.937274 kJ/mol
# Density = 2.368639 g / cm^3
# Si number density = 23.740427 Si / 1000 Ang^3
#
#
#
# Elastic Constant Matrix: (Units=GPa)
#
#
# Indices 1 2 3 4 5 6 
#
# 1 68.2123 2.2141 30.3713 0.0000 0.0000 0.0000
# 2 2.2141 68.2123 30.3713 0.0000 0.0000 0.0000
# 3 30.3713 30.3713 135.3042 0.0000 0.0000 0.0000
# 4 0.0000 0.0000 0.0000 37.9527 0.0000 0.0000
# 5 0.0000 0.0000 0.0000 0.0000 37.9527 0.0000
# 6 0.0000 0.0000 0.0000 0.0000 0.0000 31.0617
#
#
#
# Elastic Compliance Matrix: (Units=1/GPa)
#
#
# Indices 1 2 3 4 5 6 
#
# 1 0.016380 0.001228 -0.003952 0.000000 0.000000 0.000000
# 2 0.001228 0.016380 -0.003952 0.000000 0.000000 0.000000
# 3 -0.003952 -0.003952 0.009165 0.000000 0.000000 0.000000
# 4 0.000000 0.000000 0.000000 0.026349 0.000000 0.000000
# 5 0.000000 0.000000 0.000000 0.000000 0.026349 0.000000
# 6 0.000000 0.000000 0.000000 0.000000 0.000000 0.032194
#
#
# Mechanical properties :
#
#
# Convention : Reuss Voigt Hill
#
# Bulk Modulus (GPa) = 34.99964 44.18245 39.59105
# Shear Modulus (GPa) = 33.40149 35.31155 34.35652
#
# Velocity S-wave (km/s) = 3.75500 3.86087 3.80830
# Velocity P-wave (km/s) = 5.79436 6.20694 6.00420
#
# Compressibility (1/GPa) = 0.02857172
#
# Stress axis : x y z
#
# Youngs Moduli (GPa) = 61.04981 61.04981 109.10907
#
# Poissons Ratio (x) = -0.07498 0.43125
# Poissons Ratio (y) = -0.07498 0.43125
# Poissons Ratio (z) = 0.24130 0.24130
#
# Static dielectric constant tensor:
#      x y z
#    x 1.930440 0.000000 0.000000 
#    y 0.000000 1.930440 0.000000 
#    z 0.000000 0.000000 1.882820 
# 
# From -- ./inp_files/1919.got.cif
#   From: 2010.05.17/outbox.cif.g08.bks.cpg/sg114_1_cif.got.tgz:1919.got - 2010.05.20 11:04:54.
