data_PCOD9556158
_publ_section_title
;
Structure prediction by ZEFSAII (Michael W. Deem and Ramdas Pophale) SiO2 
 PCOD9556158
Probable space group: P -4 21 C
;
_chemical_formula_sum "Si O2"
_cell_formula_units_Z 48
_cell_length_a 13.120464
_cell_length_b 13.120464
_cell_length_c 13.372302
_cell_angle_alpha 90.000000
_cell_angle_beta 90.000000
_cell_angle_gamma 90.000000
_cell_volume 2301.995997
_symmetry_space_group_name_H-M "P -4 21 C"
_symmetry_group_IT_number 114
_symmetry_cell_setting 'tetragonal'
loop_
_space_group_symop_operation_xyz
x,y,z
y,-x,-z
-x,-y,z
-y,x,-z
1/2+x,1/2-y,1/2-z
1/2-x,1/2+y,1/2-z
1/2-y,1/2-x,1/2+z
1/2+y,1/2+x,1/2+z
loop_
_atom_site_type_symbol
_atom_site_label
_atom_site_fract_x
_atom_site_fract_y
_atom_site_fract_z
Si Si1 0.500000 0.500000 0.000000
Si Si2 0.229641 0.452911 0.501496
Si Si3 0.138576 0.133478 0.359911
Si Si4 0.364747 0.109671 0.424705
Si Si5 0.863178 0.888480 0.122674
Si Si6 0.500000 0.500000 0.500000
Si Si7 0.000000 0.500000 0.219060
Si Si8 0.151511 0.462329 0.894407
O O1 0.587824 0.455455 0.073053
O O2 0.189853 0.542773 0.574411
O O3 0.295216 0.517801 0.418880
O O4 0.282496 0.357364 0.560865
O O5 0.130795 0.407999 0.446446
O O6 0.255496 0.149849 0.391944
O O7 0.139320 0.114818 0.240693
O O8 0.071654 0.233241 0.379316
O O9 0.402604 0.020791 0.350310
O O10 0.356138 0.060287 0.534227
O O11 0.975749 0.912017 0.077907
O O12 0.985162 0.596130 0.290726
#
# Coordination Sequence:
#
# PCOD9556158 Si02
#       8
#     2   8   8   8   8   2   4   8
#     4  12  26  48  64  86 148 168 226 288 340 390
#     4  11  21  45  65 102 136 174 221 290 330 403
#     4  12  26  44  66 101 128 186 225 277 336 413
#     4  12  24  43  67  97 138 175 226 281 337 395
#     4  10  22  40  68  94 131 167 226 267 339 398
#     4   8  18  40  68  90 124 164 194 288 328 390
#     4  12  22  44  72  98 136 184 222 280 332 410
#     4  12  24  43  67  97 138 175 226 281 337 395
#
# _framework density 20.851471
#
# number of rings (size 3 to 8) (size 9 to 14) (size 15 to 20)
#    0.000    0.667    5.000    3.500    0.000    0.000 
#    0.000    5.000    0.000    0.000    0.000    0.000 
#    0.000    0.000    0.000    0.000    0.000    0.000 
#
# Total GULP energy -267722.698935 kJ/mol
# GULP energy per Si atom -5577.556228 kJ/mol
# Density = 2.080401 g / cm^3
# Si number density = 20.851471 Si / 1000 Ang^3
#
#
#
# Elastic Constant Matrix: (Units=GPa)
#
#
# Indices 1 2 3 4 5 6 
#
# 1 39.8958 -12.0232 17.1455 0.0000 0.0000 0.0000
# 2 -12.0232 39.8958 17.1455 0.0000 0.0000 0.0000
# 3 17.1455 17.1455 116.7744 0.0000 0.0000 0.0000
# 4 0.0000 0.0000 0.0000 21.1421 0.0000 0.0000
# 5 0.0000 0.0000 0.0000 0.0000 21.1421 0.0000
# 6 0.0000 0.0000 0.0000 0.0000 0.0000 37.1673
#
#
#
# Elastic Compliance Matrix: (Units=1/GPa)
#
#
# Indices 1 2 3 4 5 6 
#
# 1 0.031524 0.012263 -0.006429 0.000000 0.000000 0.000000
# 2 0.012263 0.031524 -0.006429 0.000000 0.000000 0.000000
# 3 -0.006429 -0.006429 0.010451 0.000000 0.000000 0.000000
# 4 0.000000 0.000000 0.000000 0.047299 0.000000 0.000000
# 5 0.000000 0.000000 0.000000 0.000000 0.047299 0.000000
# 6 0.000000 0.000000 0.000000 0.000000 0.000000 0.026905
#
#
# Mechanical properties :
#
#
# Convention : Reuss Voigt Hill
#
# Bulk Modulus (GPa) = 13.82946 26.78904 20.30925
# Shear Modulus (GPa) = 22.69676 27.51019 25.10347
#
# Velocity S-wave (km/s) = 3.30282 3.63621 3.47352
# Velocity P-wave (km/s) = 4.60343 5.52312 5.08411
#
# Compressibility (1/GPa) = 0.07230942
#
# Stress axis : x y z
#
# Youngs Moduli (GPa) = 31.72190 31.72190 95.68069
#
# Poissons Ratio (x) = -0.38901 0.61514
# Poissons Ratio (y) = -0.38901 0.61514
# Poissons Ratio (z) = 0.20394 0.20394
#
# Static dielectric constant tensor:
#      x y z
#    x 1.928550 0.000000 0.000000 
#    y 0.000000 1.928550 0.000000 
#    z 0.000000 0.000000 1.719500 
# 
# From -- ./inp_files/1721.got.cif
#   From: 2010.05.17/outbox.cif.g08.bks.cpg/sg114_1_cif.got.tgz:1721.got - 2010.05.20 11:04:54.
