data_PCOD9556472
_publ_section_title
;
Structure prediction by ZEFSAII (Michael W. Deem and Ramdas Pophale) SiO2 
 PCOD9556472
Probable space group: P -4 21 C
;
_chemical_formula_sum "Si O2"
_cell_formula_units_Z 36
_cell_length_a 10.952925
_cell_length_b 10.952925
_cell_length_c 14.606323
_cell_angle_alpha 90.000000
_cell_angle_beta 90.000000
_cell_angle_gamma 90.000000
_cell_volume 1752.270413
_symmetry_space_group_name_H-M "P -4 21 C"
_symmetry_group_IT_number 114
_symmetry_cell_setting 'tetragonal'
loop_
_space_group_symop_operation_xyz
x,y,z
y,-x,-z
-x,-y,z
-y,x,-z
1/2+x,1/2-y,1/2-z
1/2-x,1/2+y,1/2-z
1/2-y,1/2-x,1/2+z
1/2+y,1/2+x,1/2+z
loop_
_atom_site_type_symbol
_atom_site_label
_atom_site_fract_x
_atom_site_fract_y
_atom_site_fract_z
Si Si1 0.395228 0.895228 0.223827
Si Si2 0.457748 0.247629 0.079624
Si Si3 0.000000 0.000000 0.000000
Si Si4 0.042252 0.747629 0.920376
Si Si5 0.601906 0.101906 0.927753
Si Si6 0.000000 0.000000 0.500000
O O1 0.458147 0.786682 0.166603
O O2 0.358929 0.858929 0.326404
O O3 0.500000 0.000000 0.222043
O O4 0.286682 0.958147 0.166602
O O5 0.332844 0.167157 0.083514
O O6 0.533474 0.198065 0.991971
O O7 0.448629 0.390622 0.062797
O O8 0.051371 0.890622 0.937203
O O9 0.966527 0.698065 0.008030
O O10 0.500000 0.000000 0.909741
#
# Coordination Sequence:
#
# PCOD9556472 Si02
#       6
#     8   8   2   8   8   2
#     4   8  15  35  64  85 109 151 197 242 291 340
#     4   9  20  36  58  87 116 152 194 237 290 345
#     4  12  24  36  62  88 124 158 192 236 294 352
#     4   9  20  36  58  87 116 152 194 237 290 345
#     4   8  15  35  64  85 109 151 197 242 291 340
#     4  12  24  36  62  88 124 158 192 236 294 352
#
# _framework density 20.544775000000001
#
# number of rings (size 3 to 8) (size 9 to 14) (size 15 to 20)
#    0.000    3.111    0.000    2.667    6.222    0.000 
#    0.000    6.667    0.000    0.000    0.000    0.000 
#    0.000    0.000    0.000    0.000    0.000    0.000 
#
# Total GULP energy -200610.276356 kJ/mol
# GULP energy per Si atom -5572.507677 kJ/mol
# Density = 2.049801 g / cm^3
# Si number density = 20.544775 Si / 1000 Ang^3
#
#
#
# Elastic Constant Matrix: (Units=GPa)
#
#
# Indices 1 2 3 4 5 6 
#
# 1 90.9079 26.8945 18.6992 0.0000 0.0000 0.0000
# 2 26.8945 90.9079 18.6992 0.0000 0.0000 0.0000
# 3 18.6992 18.6992 140.7339 0.0000 0.0000 0.0000
# 4 0.0000 0.0000 0.0000 4.6174 0.0000 0.0000
# 5 0.0000 0.0000 0.0000 0.0000 4.6174 0.0000
# 6 0.0000 0.0000 0.0000 0.0000 0.0000 16.8334
#
#
#
# Elastic Compliance Matrix: (Units=1/GPa)
#
#
# Indices 1 2 3 4 5 6 
#
# 1 0.012242 -0.003380 -0.001178 0.000000 0.000000 0.000000
# 2 -0.003380 0.012242 -0.001178 0.000000 0.000000 0.000000
# 3 -0.001178 -0.001178 0.007419 0.000000 0.000000 0.000000
# 4 0.000000 0.000000 0.000000 0.216570 0.000000 0.000000
# 5 0.000000 0.000000 0.000000 0.000000 0.216570 0.000000
# 6 0.000000 0.000000 0.000000 0.000000 0.000000 0.059406
#
#
# Mechanical properties :
#
#
# Convention : Reuss Voigt Hill
#
# Bulk Modulus (GPa) = 48.93923 50.12619 49.53271
# Shear Modulus (GPa) = 9.21270 22.43078 15.82174
#
# Velocity S-wave (km/s) = 2.11989 3.30782 2.77810
# Velocity P-wave (km/s) = 5.46483 6.24823 5.86962
#
# Compressibility (1/GPa) = 0.02043351
#
# Stress axis : x y z
#
# Youngs Moduli (GPa) = 81.68484 81.68484 134.79753
#
# Poissons Ratio (x) = 0.27606 0.15873
# Poissons Ratio (y) = 0.27606 0.15873
# Poissons Ratio (z) = 0.09619 0.09619
#
# Static dielectric constant tensor:
#      x y z
#    x 1.745940 0.000000 0.000000 
#    y 0.000000 1.745940 0.000000 
#    z 0.000000 0.000000 1.742780 
# 
# From -- ./inp_files/2069.got.cif
#   From: 2010.05.17/outbox.cif.g08.bks.cpg/sg114_2_cif.got.tgz:2069.got - 2010.05.20 11:04:54.
