data_PCOD9556152
_publ_section_title
;
Structure prediction by ZEFSAII (Michael W. Deem and Ramdas Pophale) SiO2 
 PCOD9556152
Probable space group: P -4 21 C
;
_chemical_formula_sum "Si O2"
_cell_formula_units_Z 40
_cell_length_a 14.567884
_cell_length_b 14.567884
_cell_length_c 9.998964
_cell_angle_alpha 90.000000
_cell_angle_beta 90.000000
_cell_angle_gamma 90.000000
_cell_volume 2122.012579
_symmetry_space_group_name_H-M "P -4 21 C"
_symmetry_group_IT_number 114
_symmetry_cell_setting 'tetragonal'
loop_
_space_group_symop_operation_xyz
x,y,z
y,-x,-z
-x,-y,z
-y,x,-z
1/2+x,1/2-y,1/2-z
1/2-x,1/2+y,1/2-z
1/2-y,1/2-x,1/2+z
1/2+y,1/2+x,1/2+z
loop_
_atom_site_type_symbol
_atom_site_label
_atom_site_fract_x
_atom_site_fract_y
_atom_site_fract_z
Si Si1 0.784784 0.607854 0.670493
Si Si2 0.894346 0.105654 0.000000
Si Si3 0.243653 0.608743 0.978287
Si Si4 0.107854 0.715216 0.170493
Si Si5 0.891257 0.743653 0.478287
O O1 0.681193 0.621075 0.614534
O O2 0.807130 0.500000 0.653308
O O3 0.850341 0.671261 0.582909
O O4 0.788638 0.630019 0.827015
O O5 0.878925 0.181193 0.114534
O O6 1.000000 0.116133 0.952998
O O7 0.171261 0.649659 0.082909
O O8 0.339046 0.660954 1.000000
O O9 0.211362 0.630019 0.827015
O O10 0.252557 0.500000 0.991574
#
# Coordination Sequence:
#
# PCOD9556152 Si02
#       5
#     8   8   8   8   8
#     4  10  22  40  62  89 119 154 199 245 297 358
#     4   9  18  34  60  90 119 152 192 244 301 358
#     4  11  24  41  61  89 123 158 200 246 297 353
#     4  10  22  40  62  89 119 154 199 245 297 358
#     4  11  24  41  61  89 123 158 200 246 297 353
#
# _framework density 18.85003
#
# number of rings (size 3 to 8) (size 9 to 14) (size 15 to 20)
#    0.000    1.800    2.000    1.200    0.000    4.400 
#    0.000    8.000    0.000    0.000    0.000    0.000 
#    0.000    0.000    0.000    0.000    0.000    0.000 
#
# Total GULP energy -223482.869743 kJ/mol
# GULP energy per Si atom -5587.071744 kJ/mol
# Density = 1.880713 g / cm^3
# Si number density = 18.850030 Si / 1000 Ang^3
#
#
#
# Elastic Constant Matrix: (Units=GPa)
#
#
# Indices 1 2 3 4 5 6 
#
# 1 103.1858 79.0811 93.3400 0.0000 0.0000 0.0000
# 2 79.0811 103.1858 93.3400 0.0000 0.0000 0.0000
# 3 93.3400 93.3400 146.9659 0.0000 0.0000 0.0000
# 4 0.0000 0.0000 0.0000 -10.9807 0.0000 0.0000
# 5 0.0000 0.0000 0.0000 0.0000 -10.9807 0.0000
# 6 0.0000 0.0000 0.0000 0.0000 0.0000 0.3565
#
#
#
# Elastic Compliance Matrix: (Units=1/GPa)
#
#
# Indices 1 2 3 4 5 6 
#
# 1 0.028592 -0.012894 -0.009970 0.000000 0.000000 0.000000
# 2 -0.012894 0.028592 -0.009970 0.000000 0.000000 0.000000
# 3 -0.009970 -0.009970 0.019468 0.000000 0.000000 0.000000
# 4 0.000000 0.000000 0.000000 -0.091069 0.000000 0.000000
# 5 0.000000 0.000000 0.000000 0.000000 -0.091069 0.000000
# 6 0.000000 0.000000 0.000000 0.000000 0.000000 2.805212
#
#
# Mechanical properties :
#
#
# Convention : Reuss Voigt Hill
#
# Bulk Modulus (GPa) = 91.03876 98.31776 94.67826
# Shear Modulus (GPa) = 1.80567 1.51745 1.66156
#
# Velocity S-wave (km/s) = 0.97979 0.89820 0.93988
# Velocity P-wave (km/s) = 7.04849 7.30389 7.17732
#
# Compressibility (1/GPa) = 0.01098433
#
# Stress axis : x y z
#
# Youngs Moduli (GPa) = 34.97519 34.97519 51.36582
#
# Poissons Ratio (x) = 0.45097 0.51211
# Poissons Ratio (y) = 0.45097 0.51211
# Poissons Ratio (z) = 0.34870 0.34870
#
# Static dielectric constant tensor:
#      x y z
#    x 1.642130 0.000000 0.000000 
#    y 0.000000 1.642130 0.000000 
#    z 0.000000 0.000000 1.634700 
# 
# From -- ./inp_files/765.got.cif
#   From: 2010.05.17/outbox.cif.g08.bks.cpg/sg114_1_cif.got.tgz:765.got - 2010.05.20 11:04:54.
