data_PCOD9556150
_publ_section_title
;
Structure prediction by ZEFSAII (Michael W. Deem and Ramdas Pophale) SiO2 
 PCOD9556150
Probable space group: P -4 21 C
;
_chemical_formula_sum "Si O2"
_cell_formula_units_Z 28
_cell_length_a 9.370509
_cell_length_b 9.370509
_cell_length_c 15.983319
_cell_angle_alpha 90.000000
_cell_angle_beta 90.000000
_cell_angle_gamma 90.000000
_cell_volume 1403.438323
_symmetry_space_group_name_H-M "P -4 21 C"
_symmetry_group_IT_number 114
_symmetry_cell_setting 'tetragonal'
loop_
_space_group_symop_operation_xyz
x,y,z
y,-x,-z
-x,-y,z
-y,x,-z
1/2+x,1/2-y,1/2-z
1/2-x,1/2+y,1/2-z
1/2-y,1/2-x,1/2+z
1/2+y,1/2+x,1/2+z
loop_
_atom_site_type_symbol
_atom_site_label
_atom_site_fract_x
_atom_site_fract_y
_atom_site_fract_z
Si Si1 0.976859 0.205622 0.455233
Si Si2 0.110377 0.891836 0.719869
Si Si3 0.875453 0.593621 0.190734
Si Si4 0.000000 0.500000 0.528977
O O1 0.023736 0.167342 0.361822
O O2 0.847571 0.108442 0.486949
O O3 0.948246 0.369938 0.472935
O O4 0.252299 0.848348 0.769769
O O5 0.013567 0.758151 0.692483
O O6 0.000000 0.000000 0.765033
O O7 0.000000 0.500000 0.235619
O O8 0.938254 0.612524 0.096902
#
# Coordination Sequence:
#
# PCOD9556150 Si02
#       4
#     8   8   8   4
#     4  11  20  40  66  88 120 166 214 262 309 386
#     4  12  22  40  67  93 124 172 213 264 331 393
#     4  10  23  40  58  94 132 162 208 273 316 389
#     4  10  22  40  60  90 130 154 216 262 316 372
#
# _framework density 19.951001999999999
#
# number of rings (size 3 to 8) (size 9 to 14) (size 15 to 20)
#    0.857    0.286    5.714    1.714    2.000    0.000 
#    0.000    0.000    0.000    0.000    0.000    0.000 
#    0.000    0.000    0.000    0.000    0.000    0.000 
#
# Total GULP energy -156023.706215 kJ/mol
# GULP energy per Si atom -5572.275222 kJ/mol
# Density = 1.990559 g / cm^3
# Si number density = 19.951002 Si / 1000 Ang^3
#
#
#
# Elastic Constant Matrix: (Units=GPa)
#
#
# Indices 1 2 3 4 5 6 
#
# 1 131.0606 37.9221 23.2513 0.0000 0.0000 0.0000
# 2 37.9221 131.0606 23.2513 0.0000 0.0000 0.0000
# 3 23.2513 23.2513 50.2642 0.0000 0.0000 0.0000
# 4 0.0000 0.0000 0.0000 19.6069 0.0000 0.0000
# 5 0.0000 0.0000 0.0000 0.0000 19.6069 0.0000
# 6 0.0000 0.0000 0.0000 0.0000 0.0000 16.0935
#
#
#
# Elastic Compliance Matrix: (Units=1/GPa)
#
#
# Indices 1 2 3 4 5 6 
#
# 1 0.008759 -0.001978 -0.003137 0.000000 0.000000 0.000000
# 2 -0.001978 0.008759 -0.003137 0.000000 0.000000 0.000000
# 3 -0.003137 -0.003137 0.022797 0.000000 0.000000 0.000000
# 4 0.000000 0.000000 0.000000 0.051003 0.000000 0.000000
# 5 0.000000 0.000000 0.000000 0.000000 0.051003 0.000000
# 6 0.000000 0.000000 0.000000 0.000000 0.000000 0.062137
#
#
# Mechanical properties :
#
#
# Convention : Reuss Voigt Hill
#
# Bulk Modulus (GPa) = 41.99594 53.47052 47.73323
# Shear Modulus (GPa) = 21.84393 26.25883 24.05138
#
# Velocity S-wave (km/s) = 3.31249 3.63184 3.47583
# Velocity P-wave (km/s) = 5.97707 6.66679 6.33133
#
# Compressibility (1/GPa) = 0.02381182
#
# Stress axis : x y z
#
# Youngs Moduli (GPa) = 114.17039 114.17039 43.86563
#
# Poissons Ratio (x) = 0.22581 0.13760
# Poissons Ratio (y) = 0.22581 0.13760
# Poissons Ratio (z) = 0.35812 0.35812
#
# Static dielectric constant tensor:
#      x y z
#    x 1.727950 0.000000 0.000000 
#    y 0.000000 1.727950 0.000000 
#    z 0.000000 0.000000 1.739570 
# 
# From -- ./inp_files/2780.got.cif
#   From: 2010.05.17/outbox.cif.g08.bks.cpg/sg114_2_cif.got.tgz:2780.got - 2010.05.20 11:04:54.
