data_PCOD9556949
_publ_section_title
;
Structure prediction by ZEFSAII (Michael W. Deem and Ramdas Pophale) SiO2 
 PCOD9556949
Probable space group: P -4 M 2
;
_chemical_formula_sum "Si O2"
_cell_formula_units_Z 48
_cell_length_a 9.109120
_cell_length_b 9.109120
_cell_length_c 31.973899
_cell_angle_alpha 90.000000
_cell_angle_beta 90.000000
_cell_angle_gamma 90.000000
_cell_volume 2653.068391
_symmetry_space_group_name_H-M "P -4 M 2"
_symmetry_group_IT_number 115
_symmetry_cell_setting 'tetragonal'
loop_
_space_group_symop_operation_xyz
x,y,z
y,-x,-z
-x,-y,z
-y,x,-z
y,x,-z
-y,-x,-z
-x,y,z
x,-y,z
loop_
_atom_site_type_symbol
_atom_site_label
_atom_site_fract_x
_atom_site_fract_y
_atom_site_fract_z
Si Si1 0.826487 0.323591 0.210947
Si Si2 0.330464 0.321282 0.454030
Si Si3 0.321349 0.331015 0.874796
Si Si4 0.673618 0.825118 0.290164
Si Si5 0.826238 0.675833 0.039514
Si Si6 0.172816 0.676452 0.369008
O O1 0.806843 0.500000 0.215115
O O2 0.752839 0.276315 0.167263
O O3 0.751322 0.245145 0.249948
O O4 0.000000 0.294323 0.210161
O O5 0.275159 0.275159 0.500000
O O6 0.500000 0.274543 0.448396
O O7 0.331127 0.500000 0.455529
O O8 0.235320 0.277420 0.414225
O O9 0.500000 0.329922 0.874875
O O10 0.273080 0.500000 0.874286
O O11 0.275627 0.250343 0.917303
O O12 0.500000 0.794568 0.288553
O O13 0.741846 0.755074 0.331796
O O14 0.695269 0.000000 0.290387
O O15 0.803084 0.500000 0.035125
O O16 0.000000 0.701863 0.041828
O O17 0.756020 0.756020 0.000000
O O18 0.193435 0.500000 0.365313
O O19 0.000000 0.706640 0.366037
#
# Coordination Sequence:
#
# PCOD9556949 Si02
#       6
#     8   8   8   8   8   8
#     4  10  20  35  57  84 111 139 173 214 262 317
#     4   8  14  27  49  75 102 134 172 213 256 302
#     4   9  17  31  54  82 109 138 174 217 263 310
#     4  11  24  39  54  75 104 139 179 221 265 313
#     4  10  20  34  53  78 108 141 177 218 263 311
#     4  10  20  34  54  80 107 137 175 217 262 313
#
# _framework density 18.092258000000001
#
# number of rings (size 3 to 8) (size 9 to 14) (size 15 to 20)
#    0.000    2.333    0.000    3.500    0.000    8.333 
#    0.000    1.667    0.000    8.000    0.000    0.000 
#    0.000    0.000    0.000    0.000    0.000    0.000 
#
# Total GULP energy -267930.895872 kJ/mol
# GULP energy per Si atom -5581.893664 kJ/mol
# Density = 1.805108 g / cm^3
# Si number density = 18.092258 Si / 1000 Ang^3
#
#
#
# Elastic Constant Matrix: (Units=GPa)
#
#
# Indices 1 2 3 4 5 6 
#
# 1 81.0084 68.5454 89.3763 0.0000 0.0000 0.0000
# 2 68.5454 81.0084 89.3763 0.0000 0.0000 0.0000
# 3 89.3763 89.3763 223.7003 0.0000 0.0000 0.0000
# 4 0.0000 0.0000 0.0000 -23.3551 0.0000 0.0000
# 5 0.0000 0.0000 0.0000 0.0000 -23.3551 0.0000
# 6 0.0000 0.0000 0.0000 0.0000 0.0000 20.1521
#
#
#
# Elastic Compliance Matrix: (Units=1/GPa)
#
#
# Indices 1 2 3 4 5 6 
#
# 1 0.046518 -0.033720 -0.005113 0.000000 0.000000 0.000000
# 2 -0.033720 0.046518 -0.005113 0.000000 0.000000 0.000000
# 3 -0.005113 -0.005113 0.008556 0.000000 0.000000 0.000000
# 4 0.000000 0.000000 0.000000 -0.042817 0.000000 0.000000
# 5 0.000000 0.000000 0.000000 0.000000 -0.042817 0.000000
# 6 0.000000 0.000000 0.000000 0.000000 0.000000 0.049623
#
#
# Mechanical properties :
#
#
# Convention : Reuss Voigt Hill
#
# Bulk Modulus (GPa) = 72.99660 97.81258 85.40459
# Shear Modulus (GPa) = 31.63763 3.91631 17.77697
#
# Velocity S-wave (km/s) = 4.18626 1.47287 3.13800
# Velocity P-wave (km/s) = 7.98754 7.55467 7.77412
#
# Compressibility (1/GPa) = 0.01369927
#
# Stress axis : x y z
#
# Youngs Moduli (GPa) = 21.49708 21.49708 116.87411
#
# Poissons Ratio (x) = 0.72487 0.59762
# Poissons Ratio (y) = 0.72487 0.59762
# Poissons Ratio (z) = 0.10992 0.10992
#
# Static dielectric constant tensor:
#      x y z
#    x 1.601720 0.000000 0.000000 
#    y 0.000000 1.601720 0.000000 
#    z 0.000000 0.000000 1.599370 
# 
# From -- ./inp_files/6059.got.cif
#   From: 2010.05.17/outbox.cif.g08.bks.cpg/sg115_4_cif.got.tgz:6059.got - 2010.05.20 11:07:42.
