data_PCOD9556005
_publ_section_title
;
Structure prediction by ZEFSAII (Michael W. Deem and Ramdas Pophale) SiO2 
 PCOD9556005
Probable space group: P -4 21 C
;
_chemical_formula_sum "Si O2"
_cell_formula_units_Z 48
_cell_length_a 8.566387
_cell_length_b 8.566387
_cell_length_c 29.262799
_cell_angle_alpha 90.000000
_cell_angle_beta 90.000000
_cell_angle_gamma 90.000000
_cell_volume 2147.391576
_symmetry_space_group_name_H-M "P -4 21 C"
_symmetry_group_IT_number 114
_symmetry_cell_setting 'tetragonal'
loop_
_space_group_symop_operation_xyz
x,y,z
y,-x,-z
-x,-y,z
-y,x,-z
1/2+x,1/2-y,1/2-z
1/2-x,1/2+y,1/2-z
1/2-y,1/2-x,1/2+z
1/2+y,1/2+x,1/2+z
loop_
_atom_site_type_symbol
_atom_site_label
_atom_site_fract_x
_atom_site_fract_y
_atom_site_fract_z
Si Si1 0.821404 0.821059 0.491383
Si Si2 0.891574 0.861751 0.062617
Si Si3 0.089793 0.667350 0.278521
Si Si4 0.213282 0.198525 0.312929
Si Si5 0.871869 0.370857 0.099363
Si Si6 0.971833 0.184637 0.847487
O O1 0.739447 0.691696 0.523712
O O2 0.745802 0.835493 0.441657
O O3 0.006316 0.795003 0.487629
O O4 0.774659 0.930801 0.100007
O O5 0.009279 0.773494 0.097378
O O6 0.000000 0.000000 0.044869
O O7 0.169347 0.693276 0.229645
O O8 0.231762 0.652408 0.314477
O O9 0.000000 0.500000 0.276019
O O10 0.963714 0.798164 0.293936
O O11 0.279291 0.090734 0.354062
O O12 0.232381 0.365697 0.336749
O O13 0.000000 0.500000 0.087374
O O14 0.000000 0.000000 0.837154
#
# Coordination Sequence:
#
# PCOD9556005 Si02
#       6
#     8   8   8   8   8   8
#     4  11  27  49  72 104 149 188 241 307 372 446
#     4  11  24  44  73 101 140 185 238 295 363 434
#     4  10  23  40  68  98 139 187 234 301 359 435
#     4  11  22  41  65  99 139 183 240 295 367 424
#     4  12  25  44  69 105 141 187 241 305 359 444
#     4  10  20  41  65  97 132 177 234 290 346 432
#
# _framework density 22.352698
#
# number of rings (size 3 to 8) (size 9 to 14) (size 15 to 20)
#    0.000    1.167    5.000    1.500    4.667    0.000 
#    0.000    0.000    3.667    0.000    0.000    0.000 
#    0.000    0.000    0.000    0.000    0.000    0.000 
#
# Total GULP energy -267640.862740 kJ/mol
# GULP energy per Si atom -5575.851307 kJ/mol
# Density = 2.230182 g / cm^3
# Si number density = 22.352698 Si / 1000 Ang^3
#
#
#
# Elastic Constant Matrix: (Units=GPa)
#
#
# Indices 1 2 3 4 5 6 
#
# 1 78.6758 23.4308 31.2651 0.0000 0.0000 0.0000
# 2 23.4308 78.6758 31.2651 0.0000 0.0000 0.0000
# 3 31.2651 31.2651 151.7269 0.0000 0.0000 0.0000
# 4 0.0000 0.0000 0.0000 5.3211 0.0000 0.0000
# 5 0.0000 0.0000 0.0000 0.0000 5.3211 0.0000
# 6 0.0000 0.0000 0.0000 0.0000 0.0000 30.8725
#
#
#
# Elastic Compliance Matrix: (Units=1/GPa)
#
#
# Indices 1 2 3 4 5 6 
#
# 1 0.014655 -0.003447 -0.002310 0.000000 0.000000 0.000000
# 2 -0.003447 0.014655 -0.002310 0.000000 0.000000 0.000000
# 3 -0.002310 -0.002310 0.007543 0.000000 0.000000 0.000000
# 4 0.000000 0.000000 0.000000 0.187931 0.000000 0.000000
# 5 0.000000 0.000000 0.000000 0.000000 0.187931 0.000000
# 6 0.000000 0.000000 0.000000 0.000000 0.000000 0.032391
#
#
# Mechanical properties :
#
#
# Convention : Reuss Voigt Hill
#
# Bulk Modulus (GPa) = 48.26132 53.44448 50.85290
# Shear Modulus (GPa) = 10.68047 23.17743 16.92895
#
# Velocity S-wave (km/s) = 2.18827 3.22358 2.75500
# Velocity P-wave (km/s) = 5.29362 6.14954 5.73756
#
# Compressibility (1/GPa) = 0.02072053
#
# Stress axis : x y z
#
# Youngs Moduli (GPa) = 68.23783 68.23783 132.58012
#
# Poissons Ratio (x) = 0.23519 0.30620
# Poissons Ratio (y) = 0.23519 0.30620
# Poissons Ratio (z) = 0.15760 0.15760
#
# Static dielectric constant tensor:
#      x y z
#    x 1.931950 0.000000 0.000000 
#    y 0.000000 1.931950 0.000000 
#    z 0.000000 0.000000 1.903000 
# 
# From -- ./inp_files/3912.got.cif
#   From: 2010.05.17/outbox.cif.g08.bks.cpg/sg114_2_cif.got.tgz:3912.got - 2010.05.20 11:04:54.
