data_PCOD9556161
_publ_section_title
;
Structure prediction by ZEFSAII (Michael W. Deem and Ramdas Pophale) SiO2 
 PCOD9556161
Probable space group: P -4 21 C
;
_chemical_formula_sum "Si O2"
_cell_formula_units_Z 28
_cell_length_a 13.071609
_cell_length_b 13.071609
_cell_length_c 7.710984
_cell_angle_alpha 90.000000
_cell_angle_beta 90.000000
_cell_angle_gamma 90.000000
_cell_volume 1317.552409
_symmetry_space_group_name_H-M "P -4 21 C"
_symmetry_group_IT_number 114
_symmetry_cell_setting 'tetragonal'
loop_
_space_group_symop_operation_xyz
x,y,z
y,-x,-z
-x,-y,z
-y,x,-z
1/2+x,1/2-y,1/2-z
1/2-x,1/2+y,1/2-z
1/2-y,1/2-x,1/2+z
1/2+y,1/2+x,1/2+z
loop_
_atom_site_type_symbol
_atom_site_label
_atom_site_fract_x
_atom_site_fract_y
_atom_site_fract_z
Si Si1 0.773445 0.143074 0.901852
Si Si2 0.000000 0.500000 0.869369
Si Si3 0.777028 0.566829 0.974664
Si Si4 0.027134 0.737220 0.808614
O O1 0.676180 0.216483 0.929977
O O2 0.761774 0.081423 0.720579
O O3 0.872455 0.212958 0.887862
O O4 0.769071 0.064967 0.062788
O O5 0.968292 0.387032 0.796755
O O6 0.895218 0.532530 0.959740
O O7 0.724142 0.492137 0.112162
#
# Coordination Sequence:
#
# PCOD9556161 Si02
#       4
#     8   4   8   8
#     4  11  25  43  66 102 140 180 230 285 352 409
#     4  10  22  40  72 102 128 174 230 286 344 402
#     4  11  23  41  67 105 133 177 233 284 355 405
#     4  11  26  44  68  99 144 177 231 291 342 422
#
# _framework density 21.251525999999998
#
# number of rings (size 3 to 8) (size 9 to 14) (size 15 to 20)
#    0.000    1.143    5.714    0.857    8.000    2.857 
#    0.000    0.000    0.000    0.000    0.000    0.000 
#    0.000    0.000    0.000    0.000    0.000    0.000 
#
# Total GULP energy -155998.741529 kJ/mol
# GULP energy per Si atom -5571.383626 kJ/mol
# Density = 2.120316 g / cm^3
# Si number density = 21.251526 Si / 1000 Ang^3
#
#
#
# Elastic Constant Matrix: (Units=GPa)
#
#
# Indices 1 2 3 4 5 6 
#
# 1 55.8623 26.2275 15.0138 0.0000 0.0000 0.0000
# 2 26.2275 55.8623 15.0138 0.0000 0.0000 0.0000
# 3 15.0138 15.0138 103.7926 0.0000 0.0000 0.0000
# 4 0.0000 0.0000 0.0000 0.1390 0.0000 0.0000
# 5 0.0000 0.0000 0.0000 0.0000 0.1390 0.0000
# 6 0.0000 0.0000 0.0000 0.0000 0.0000 22.6509
#
#
#
# Elastic Compliance Matrix: (Units=1/GPa)
#
#
# Indices 1 2 3 4 5 6 
#
# 1 0.023303 -0.010441 -0.001861 0.000000 0.000000 0.000000
# 2 -0.010441 0.023303 -0.001861 0.000000 0.000000 0.000000
# 3 -0.001861 -0.001861 0.010173 0.000000 0.000000 0.000000
# 4 0.000000 0.000000 0.000000 7.194914 0.000000 0.000000
# 5 0.000000 0.000000 0.000000 0.000000 7.194914 0.000000
# 6 0.000000 0.000000 0.000000 0.000000 0.000000 0.044148
#
#
# Mechanical properties :
#
#
# Convention : Reuss Voigt Hill
#
# Bulk Modulus (GPa) = 35.14279 36.44748 35.79513
# Shear Modulus (GPa) = 0.34415 15.20325 7.77370
#
# Velocity S-wave (km/s) = 0.40286 2.67759 1.91465
# Velocity P-wave (km/s) = 4.09742 5.17176 4.66562
#
# Compressibility (1/GPa) = 0.02845534
#
# Stress axis : x y z
#
# Youngs Moduli (GPa) = 42.91252 42.91252 98.30070
#
# Poissons Ratio (x) = 0.44804 0.18290
# Poissons Ratio (y) = 0.44804 0.18290
# Poissons Ratio (z) = 0.07984 0.07984
#
# Static dielectric constant tensor:
#      x y z
#    x 1.827480 0.000000 0.000000 
#    y 0.000000 1.827480 0.000000 
#    z 0.000000 0.000000 1.847720 
# 
# From -- ./inp_files/595.got.cif
#   From: 2010.05.17/outbox.cif.g08.bks.cpg/sg114_1_cif.got.tgz:595.got - 2010.05.20 11:04:54.
