data_PCOD9556865
_publ_section_title
;
Structure prediction by ZEFSAII (Michael W. Deem and Ramdas Pophale) SiO2 
 PCOD9556865
Probable space group: P -4 M 2
;
_chemical_formula_sum "Si O2"
_cell_formula_units_Z 48
_cell_length_a 9.325463
_cell_length_b 9.325463
_cell_length_c 32.170677
_cell_angle_alpha 90.000000
_cell_angle_beta 90.000000
_cell_angle_gamma 90.000000
_cell_volume 2797.699124
_symmetry_space_group_name_H-M "P -4 M 2"
_symmetry_group_IT_number 115
_symmetry_cell_setting 'tetragonal'
loop_
_space_group_symop_operation_xyz
x,y,z
y,-x,-z
-x,-y,z
-y,x,-z
y,x,-z
-y,-x,-z
-x,y,z
x,-y,z
loop_
_atom_site_type_symbol
_atom_site_label
_atom_site_fract_x
_atom_site_fract_y
_atom_site_fract_z
Si Si1 0.672058 0.669742 0.740863
Si Si2 0.171972 0.171972 0.000000
Si Si3 0.328898 0.330241 0.164794
Si Si4 0.170925 0.829076 0.500000
Si Si5 0.168558 0.827484 0.333278
Si Si6 0.664957 0.174520 0.416555
Si Si7 0.828280 0.171093 0.909278
O O1 0.500000 0.686877 0.737296
O O2 0.703009 0.500000 0.735627
O O3 0.713179 0.711395 0.788085
O O4 0.752459 0.760380 0.706251
O O5 0.224265 0.224169 0.045022
O O6 0.000000 0.193701 0.000125
O O7 0.500000 0.309919 0.161076
O O8 0.300182 0.500000 0.160876
O O9 0.248645 0.245996 0.128887
O O10 0.255411 0.782238 0.458869
O O11 0.000000 0.807469 0.493847
O O12 0.249567 0.780958 0.375370
O O13 0.000000 0.795174 0.336177
O O14 0.184045 0.000000 0.329624
O O15 0.500000 0.222017 0.415426
O O16 0.665541 0.000000 0.416569
O O17 0.000000 0.192238 0.907475
O O18 0.802810 0.000000 0.907009
#
# Coordination Sequence:
#
# PCOD9556865 Si02
#       7
#     8   4   8   4   8   8   8
#     4   9  19  36  54  70  93 129 168 202 241 291
#     4   7  12  26  46  67  94 126 156 191 238 287
#     4   9  19  35  51  68  95 130 164 198 240 291
#     4   9  16  28  48  71  94 122 158 199 240 282
#     4  10  20  33  51  77 105 130 161 203 247 291
#     4   9  17  30  49  72  98 129 163 198 239 287
#     4   9  17  30  50  74  97 123 159 201 242 286
#
# _framework density 17.156956999999998
#
# number of rings (size 3 to 8) (size 9 to 14) (size 15 to 20)
#    0.000    3.000    0.000    3.000    0.000    5.333 
#    0.000    6.667    0.000    7.250    0.000    0.000 
#    0.000    0.000    0.000    0.000    0.000    0.000 
#
# Total GULP energy -267443.944660 kJ/mol
# GULP energy per Si atom -5571.748847 kJ/mol
# Density = 1.711791 g / cm^3
# Si number density = 17.156957 Si / 1000 Ang^3
#
#
#
# Elastic Constant Matrix: (Units=GPa)
#
#
# Indices 1 2 3 4 5 6 
#
# 1 49.8602 40.1856 79.9972 0.0000 0.0000 0.0000
# 2 40.1856 49.8606 79.9972 0.0000 0.0000 0.0000
# 3 79.9972 79.9972 222.7255 0.0000 0.0000 0.0000
# 4 0.0000 0.0000 0.0000 672.1091 0.0000 0.0000
# 5 0.0000 0.0000 0.0000 0.0000 672.7741 0.0000
# 6 0.0000 0.0000 0.0000 0.0000 0.0000 25.1368
#
#
#
# Elastic Compliance Matrix: (Units=1/GPa)
#
#
# Indices 1 2 3 4 5 6 
#
# 1 0.067028 -0.036334 -0.011025 0.000000 0.000000 0.000000
# 2 -0.036334 0.067027 -0.011024 0.000000 0.000000 0.000000
# 3 -0.011025 -0.011024 0.012409 0.000000 0.000000 0.000000
# 4 0.000000 0.000000 0.000000 0.001488 0.000000 0.000000
# 5 0.000000 0.000000 0.000000 0.000000 0.001486 0.000000
# 6 0.000000 0.000000 0.000000 0.000000 0.000000 0.039782
#
#
# Mechanical properties :
#
#
# Convention : Reuss Voigt Hill
#
# Bulk Modulus (GPa) = 33.67124 80.31180 56.99152
# Shear Modulus (GPa) = 15.82854 282.15509 148.99181
#
# Velocity S-wave (km/s) = 3.04068 12.83792 9.32893
# Velocity P-wave (km/s) = 5.65647 16.32977 12.22000
#
# Compressibility (1/GPa) = 0.02969893
#
# Stress axis : x y z
#
# Youngs Moduli (GPa) = 14.91913 14.91941 80.58579
#
# Poissons Ratio (x) = 0.54208 0.88842
# Poissons Ratio (y) = 0.54207 0.88839
# Poissons Ratio (z) = 0.16448 0.16447
#
# Static dielectric constant tensor:
#      x y z
#    x 1.566710 0.000000 0.000000 
#    y 0.000000 1.566710 0.000000 
#    z 0.000000 0.000000 1.583620 
# 
# From -- ./inp_files/6243.got.cif
#   From: 2010.05.17/outbox.cif.g08.bks.cpg/sg115_4_cif.got.tgz:6243.got - 2010.05.20 11:07:42.
