data_PCOD9556655
_publ_section_title
;
Structure prediction by ZEFSAII (Michael W. Deem and Ramdas Pophale) SiO2 
 PCOD9556655
Probable space group: P -4 M 2
;
_chemical_formula_sum "Si O2"
_cell_formula_units_Z 56
_cell_length_a 15.661792
_cell_length_b 15.661792
_cell_length_c 14.095516
_cell_angle_alpha 90.000000
_cell_angle_beta 90.000000
_cell_angle_gamma 90.000000
_cell_volume 3457.513486
_symmetry_space_group_name_H-M "P -4 M 2"
_symmetry_group_IT_number 115
_symmetry_cell_setting 'tetragonal'
loop_
_space_group_symop_operation_xyz
x,y,z
y,-x,-z
-x,-y,z
-y,x,-z
y,x,-z
-y,-x,-z
-x,y,z
x,-y,z
loop_
_atom_site_type_symbol
_atom_site_label
_atom_site_fract_x
_atom_site_fract_y
_atom_site_fract_z
Si Si1 0.311943 0.177665 0.037184
Si Si2 0.102182 0.400234 0.788147
Si Si3 0.662160 0.592510 0.912943
Si Si4 0.602648 0.267207 0.545444
Si Si5 0.399095 0.732752 0.768705
Si Si6 0.397166 0.902874 0.433547
Si Si7 0.093192 0.600178 0.126267
O O1 0.329039 0.143194 0.143164
O O2 0.384882 0.250645 0.032279
O O3 0.226432 0.226432 0.000000
O O4 0.340068 0.105016 0.964590
O O5 0.129617 0.500000 0.807398
O O6 0.118315 0.380942 0.677282
O O7 0.000000 0.399491 0.801611
O O8 0.662958 0.500000 0.868244
O O9 0.648513 0.663848 0.833426
O O10 0.596658 0.596658 0.000000
O O11 0.656531 0.343470 0.500000
O O12 0.500000 0.276379 0.530318
O O13 0.619144 0.270668 0.657744
O O14 0.629712 0.175756 0.500192
O O15 0.500000 0.716583 0.782206
O O16 0.380854 0.827749 0.805859
O O17 0.500000 0.907434 0.442434
O O18 0.365215 0.000000 0.453697
O O19 0.098857 0.500000 0.098301
O O20 0.000000 0.612514 0.170337
#
# Coordination Sequence:
#
# PCOD9556655 Si02
#       7
#     8   8   8   8   8   8   8
#     4  11  20  29  44  70 103 133 162 203 246 302
#     4   9  17  30  50  74  96 123 165 212 261 313
#     4  11  21  32  48  67  96 133 171 213 249 286
#     4  10  22  36  52  71 100 138 176 215 253 300
#     4  10  21  36  47  68  96 128 179 217 246 298
#     4   8  16  32  53  75  95 120 163 217 270 316
#     4  10  19  33  51  69  95 131 169 210 257 304
#
# _framework density 16.19661
#
# number of rings (size 3 to 8) (size 9 to 14) (size 15 to 20)
#    0.000    2.143    2.857    3.000    2.000    3.429 
#    0.000    4.286    0.000    0.000    0.000    0.000 
#    0.000    4.857    0.000    6.714    0.000    0.000 
#
# Total GULP energy -311767.987043 kJ/mol
# GULP energy per Si atom -5567.285483 kJ/mol
# Density = 1.615975 g / cm^3
# Si number density = 16.196610 Si / 1000 Ang^3
#
#
#
# Elastic Constant Matrix: (Units=GPa)
#
#
# Indices 1 2 3 4 5 6 
#
# 1 75.5117 28.0091 40.9120 0.0000 0.0000 0.0000
# 2 28.0091 75.5095 40.9127 0.0000 0.0000 0.0000
# 3 40.9120 40.9127 81.3735 0.0000 0.0000 0.0000
# 4 0.0000 0.0000 0.0000 15.5594 0.0000 0.0000
# 5 0.0000 0.0000 0.0000 0.0000 15.5595 0.0000
# 6 0.0000 0.0000 0.0000 0.0000 0.0000 14.9693
#
#
#
# Elastic Compliance Matrix: (Units=1/GPa)
#
#
# Indices 1 2 3 4 5 6 
#
# 1 0.018541 -0.002511 -0.008059 0.000000 0.000000 0.000000
# 2 -0.002511 0.018542 -0.008060 0.000000 0.000000 0.000000
# 3 -0.008059 -0.008060 0.020393 0.000000 0.000000 0.000000
# 4 0.000000 0.000000 0.000000 0.064270 0.000000 0.000000
# 5 0.000000 0.000000 0.000000 0.000000 0.064269 0.000000
# 6 0.000000 0.000000 0.000000 0.000000 0.000000 0.066803
#
#
# Mechanical properties :
#
#
# Convention : Reuss Voigt Hill
#
# Bulk Modulus (GPa) = 49.46650 50.22914 49.84782
# Shear Modulus (GPa) = 16.84537 17.38838 17.11688
#
# Velocity S-wave (km/s) = 3.22849 3.28011 3.25440
# Velocity P-wave (km/s) = 6.67121 6.73980 6.70560
#
# Compressibility (1/GPa) = 0.02021570
#
# Stress axis : x y z
#
# Youngs Moduli (GPa) = 53.93508 53.93227 49.03536
#
# Poissons Ratio (x) = 0.13541 0.39520
# Poissons Ratio (y) = 0.13541 0.39523
# Poissons Ratio (z) = 0.43469 0.43470
#
# Static dielectric constant tensor:
#      x y z
#    x 1.570200 0.000000 0.000000 
#    y 0.000000 1.570190 0.000000 
#    z 0.000000 0.000000 1.563120 
# 
# From -- ./inp_files/3831.got.cif
#   From: 2010.05.17/outbox.cif.g08.bks.cpg/sg115_2_cif.got.tgz:3831.got - 2010.05.20 11:07:42.
