data_PCOD9556325
_publ_section_title
;
Structure prediction by ZEFSAII (Michael W. Deem and Ramdas Pophale) SiO2 
 PCOD9556325
Probable space group: P -4 21 C
;
_chemical_formula_sum "Si O2"
_cell_formula_units_Z 24
_cell_length_a 9.029688
_cell_length_b 9.029688
_cell_length_c 13.840214
_cell_angle_alpha 90.000000
_cell_angle_beta 90.000000
_cell_angle_gamma 90.000000
_cell_volume 1128.465521
_symmetry_space_group_name_H-M "P -4 21 C"
_symmetry_group_IT_number 114
_symmetry_cell_setting 'tetragonal'
loop_
_space_group_symop_operation_xyz
x,y,z
y,-x,-z
-x,-y,z
-y,x,-z
1/2+x,1/2-y,1/2-z
1/2-x,1/2+y,1/2-z
1/2-y,1/2-x,1/2+z
1/2+y,1/2+x,1/2+z
loop_
_atom_site_type_symbol
_atom_site_label
_atom_site_fract_x
_atom_site_fract_y
_atom_site_fract_z
Si Si1 0.165410 0.976317 0.847023
Si Si2 0.084287 0.345775 0.525444
Si Si3 0.330113 0.289864 0.848884
O O1 0.238114 0.385645 0.576421
O O2 0.245290 0.134409 0.830760
O O3 0.844274 0.117411 0.748471
O O4 0.000000 0.000000 0.882531
O O5 0.115209 0.259839 0.427357
O O6 0.000000 0.500000 0.506319
O O7 0.985130 0.252952 0.600708
#
# Coordination Sequence:
#
# PCOD9556325 Si02
#       3
#     8   8   8
#     4  11  26  45  71 106 139 190 237 298 355 429
#     4  10  26  45  69 108 141 188 238 303 361 433
#     4  11  26  45  73 101 147 185 243 290 366 426
#
# _framework density 21.267817000000001
#
# number of rings (size 3 to 8) (size 9 to 14) (size 15 to 20)
#    0.000    1.333    0.000    2.000   18.667    4.000 
#    0.000    0.000    0.000    0.000    0.000    0.000 
#    0.000    0.000    0.000    0.000    0.000    0.000 
#
# Total GULP energy -134483.620034 kJ/mol
# GULP energy per Si atom -5603.484168 kJ/mol
# Density = 2.121941 g / cm^3
# Si number density = 21.267817 Si / 1000 Ang^3
#
#
#
# Elastic Constant Matrix: (Units=GPa)
#
#
# Indices 1 2 3 4 5 6 
#
# 1 87.5575 10.5451 28.0951 0.0000 0.0000 0.0000
# 2 10.5451 87.5575 28.0951 0.0000 0.0000 0.0000
# 3 28.0951 28.0951 62.6146 0.0000 0.0000 0.0000
# 4 0.0000 0.0000 0.0000 25.7164 0.0000 0.0000
# 5 0.0000 0.0000 0.0000 0.0000 25.7164 0.0000
# 6 0.0000 0.0000 0.0000 0.0000 0.0000 13.2606
#
#
#
# Elastic Compliance Matrix: (Units=1/GPa)
#
#
# Indices 1 2 3 4 5 6 
#
# 1 0.013352 0.000367 -0.006156 0.000000 0.000000 0.000000
# 2 0.000367 0.013352 -0.006156 0.000000 0.000000 0.000000
# 3 -0.006156 -0.006156 0.021495 0.000000 0.000000 0.000000
# 4 0.000000 0.000000 0.000000 0.038886 0.000000 0.000000
# 5 0.000000 0.000000 0.000000 0.000000 0.038886 0.000000
# 6 0.000000 0.000000 0.000000 0.000000 0.000000 0.075412
#
#
# Mechanical properties :
#
#
# Convention : Reuss Voigt Hill
#
# Bulk Modulus (GPa) = 41.13498 41.24445 41.18972
# Shear Modulus (GPa) = 21.42479 24.33828 22.88154
#
# Velocity S-wave (km/s) = 3.17737 3.38653 3.28361
# Velocity P-wave (km/s) = 5.73100 5.89291 5.81252
#
# Compressibility (1/GPa) = 0.02431021
#
# Stress axis : x y z
#
# Youngs Moduli (GPa) = 74.89453 74.89453 46.52253
#
# Poissons Ratio (x) = -0.02750 0.28638
# Poissons Ratio (y) = -0.02750 0.28638
# Poissons Ratio (z) = 0.46104 0.46104
#
# Static dielectric constant tensor:
#      x y z
#    x 1.764870 0.000000 0.000000 
#    y 0.000000 1.764870 0.000000 
#    z 0.000000 0.000000 1.698400 
# 
# From -- ./inp_files/1936.got.cif
#   From: 2010.05.17/outbox.cif.g08.bks.cpg/sg114_1_cif.got.tgz:1936.got - 2010.05.20 11:04:54.
