data_PCOD9556890
_publ_section_title
;
Structure prediction by ZEFSAII (Michael W. Deem and Ramdas Pophale) SiO2 
 PCOD9556890
Probable space group: P -4 M 2
;
_chemical_formula_sum "Si O2"
_cell_formula_units_Z 64
_cell_length_a 20.190099
_cell_length_b 20.190099
_cell_length_c 8.801881
_cell_angle_alpha 90.000000
_cell_angle_beta 90.000000
_cell_angle_gamma 90.000000
_cell_volume 3587.999630
_symmetry_space_group_name_H-M "P -4 M 2"
_symmetry_group_IT_number 115
_symmetry_cell_setting 'tetragonal'
loop_
_space_group_symop_operation_xyz
x,y,z
y,-x,-z
-x,-y,z
-y,x,-z
y,x,-z
-y,-x,-z
-x,y,z
x,-y,z
loop_
_atom_site_type_symbol
_atom_site_label
_atom_site_fract_x
_atom_site_fract_y
_atom_site_fract_z
Si Si1 0.724996 0.926353 0.316968
Si Si2 0.425425 0.251899 0.171849
Si Si3 0.254673 0.425290 0.175617
Si Si4 0.573607 0.889379 0.679528
Si Si5 0.073851 0.724415 0.317420
Si Si6 0.426357 0.108576 0.315361
Si Si7 0.201389 0.201115 0.820625
Si Si8 0.699322 0.301936 0.671836
O O1 0.729613 0.920459 0.499788
O O2 0.645623 0.922803 0.281069
O O3 0.768376 0.866944 0.246787
O O4 0.748223 0.000000 0.271968
O O5 0.500000 0.277425 0.182262
O O6 0.426698 0.174914 0.216324
O O7 0.376924 0.284620 0.290613
O O8 0.402089 0.260466 0.998553
O O9 0.279980 0.500000 0.184069
O O10 0.178354 0.426260 0.226445
O O11 0.289637 0.376382 0.290054
O O12 0.500000 0.920807 0.707424
O O13 0.644977 0.921420 0.717013
O O14 0.575550 0.876945 0.497086
O O15 0.132682 0.768384 0.246684
O O16 0.000000 0.746658 0.271803
O O17 0.500000 0.076818 0.290047
O O18 0.256547 0.255915 0.779502
O O19 0.194007 0.194007 0.000000
O O20 0.715976 0.284025 0.500000
#
# Coordination Sequence:
#
# PCOD9556890 Si02
#       8
#     8   8   8   8   8   8   8   8
#     4  10  21  37  58  84 115 151 188 230 281 335
#     4  10  20  33  51  78 111 145 183 229 281 332
#     4  10  20  33  51  78 111 145 183 229 281 332
#     4   9  17  30  50  78 114 153 188 222 263 320
#     4  10  21  37  58  84 115 151 188 230 281 335
#     4   9  17  30  50  78 114 153 188 222 263 320
#     4  12  24  38  58  83 112 147 188 234 281 327
#     4  12  22  34  56  81 108 145 190 236 281 329
#
# _framework density 17.837235
#
# number of rings (size 3 to 8) (size 9 to 14) (size 15 to 20)
#    0.000    1.750    2.500    3.000    0.000    2.500 
#    0.000    2.500    0.000    0.750    0.000   10.500 
#    0.000    0.000    0.000    0.000    0.000    0.000 
#
# Total GULP energy -356573.633755 kJ/mol
# GULP energy per Si atom -5571.463027 kJ/mol
# Density = 1.779664 g / cm^3
# Si number density = 17.837235 Si / 1000 Ang^3
#
#
#
# Elastic Constant Matrix: (Units=GPa)
#
#
# Indices 1 2 3 4 5 6 
#
# 1 85.4226 48.3507 28.0737 0.0000 0.0000 0.0000
# 2 48.3507 85.4228 28.0736 0.0000 0.0000 0.0000
# 3 28.0737 28.0736 34.7855 0.0000 0.0000 0.0000
# 4 0.0000 0.0000 0.0000 129.4253 0.0000 0.0000
# 5 0.0000 0.0000 0.0000 0.0000 129.3080 0.0000
# 6 0.0000 0.0000 0.0000 0.0000 0.0000 14.6259
#
#
#
# Elastic Compliance Matrix: (Units=1/GPa)
#
#
# Indices 1 2 3 4 5 6 
#
# 1 0.019140 -0.007835 -0.009123 0.000000 0.000000 0.000000
# 2 -0.007835 0.019140 -0.009123 0.000000 0.000000 0.000000
# 3 -0.009123 -0.009123 0.043474 0.000000 0.000000 0.000000
# 4 0.000000 0.000000 0.000000 0.007726 0.000000 0.000000
# 5 0.000000 0.000000 0.000000 0.000000 0.007733 0.000000
# 6 0.000000 0.000000 0.000000 0.000000 0.000000 0.068372
#
#
# Mechanical properties :
#
#
# Convention : Reuss Voigt Hill
#
# Bulk Modulus (GPa) = 33.79598 46.06967 39.93282
# Shear Modulus (GPa) = 21.96731 61.41405 41.69068
#
# Velocity S-wave (km/s) = 3.51314 5.87410 4.83979
# Velocity P-wave (km/s) = 5.95350 8.47883 7.32580
#
# Compressibility (1/GPa) = 0.02958932
#
# Stress axis : x y z
#
# Youngs Moduli (GPa) = 52.24770 52.24787 23.00246
#
# Poissons Ratio (x) = 0.40936 0.20986
# Poissons Ratio (y) = 0.40936 0.20986
# Poissons Ratio (z) = 0.47668 0.47667
#
# Static dielectric constant tensor:
#      x y z
#    x 1.603950 0.000000 0.000000 
#    y 0.000000 1.603910 0.000000 
#    z 0.000000 0.000000 1.594820 
# 
# From -- ./inp_files/2181.got.cif
#   From: 2010.05.17/outbox.cif.g08.bks.cpg/sg115_2_cif.got.tgz:2181.got - 2010.05.20 11:07:42.
