data_PCOD9556457
_publ_section_title
;
Structure prediction by ZEFSAII (Michael W. Deem and Ramdas Pophale) SiO2 
 PCOD9556457
Probable space group: P -4 21 C
;
_chemical_formula_sum "Si O2"
_cell_formula_units_Z 40
_cell_length_a 8.534277
_cell_length_b 8.534277
_cell_length_c 23.713646
_cell_angle_alpha 90.000000
_cell_angle_beta 90.000000
_cell_angle_gamma 90.000000
_cell_volume 1727.156940
_symmetry_space_group_name_H-M "P -4 21 C"
_symmetry_group_IT_number 114
_symmetry_cell_setting 'tetragonal'
loop_
_space_group_symop_operation_xyz
x,y,z
y,-x,-z
-x,-y,z
-y,x,-z
1/2+x,1/2-y,1/2-z
1/2-x,1/2+y,1/2-z
1/2-y,1/2-x,1/2+z
1/2+y,1/2+x,1/2+z
loop_
_atom_site_type_symbol
_atom_site_label
_atom_site_fract_x
_atom_site_fract_y
_atom_site_fract_z
Si Si1 0.168065 0.928239 0.694879
Si Si2 0.675059 0.302519 0.001217
Si Si3 0.052769 0.678663 0.192183
Si Si4 0.867929 0.115599 0.906232
Si Si5 0.400104 0.868393 0.603448
O O1 0.170982 0.740298 0.693311
O O2 0.302239 0.963623 0.649431
O O3 0.219031 0.993591 0.755137
O O4 0.000000 0.000000 0.678873
O O5 0.768700 0.211622 0.952352
O O6 0.486881 0.289486 0.993859
O O7 0.710596 0.218724 0.060244
O O8 0.000000 0.500000 0.198147
O O9 0.976514 0.755752 0.136583
O O10 0.979458 0.240106 0.873352
O O11 0.000000 0.000000 0.931603
O O12 0.500000 0.000000 0.571172
#
# Coordination Sequence:
#
# PCOD9556457 Si02
#       5
#     8   8   8   8   8
#     4  12  29  50  81 113 158 202 258 318 392 466
#     4  11  28  50  78 112 154 206 262 320 389 460
#     4  12  29  49  79 117 154 203 256 325 388 468
#     4  12  28  51  78 113 160 202 264 322 393 462
#     4  12  28  47  76 112 153 207 256 321 384 458
#
# _framework density 23.159445000000002
#
# number of rings (size 3 to 8) (size 9 to 14) (size 15 to 20)
#    0.000    0.200    4.000    2.400   16.800    0.800 
#    0.000    0.000    0.000    0.000    0.000    0.000 
#    0.000    0.000    0.000    0.000    0.000    0.000 
#
# Total GULP energy -223905.517900 kJ/mol
# GULP energy per Si atom -5597.637948 kJ/mol
# Density = 2.310673 g / cm^3
# Si number density = 23.159445 Si / 1000 Ang^3
#
#
#
# Elastic Constant Matrix: (Units=GPa)
#
#
# Indices 1 2 3 4 5 6 
#
# 1 145.8974 74.9630 36.4959 0.0000 0.0000 0.0000
# 2 74.9630 145.8974 36.4959 0.0000 0.0000 0.0000
# 3 36.4959 36.4959 88.9291 0.0000 0.0000 0.0000
# 4 0.0000 0.0000 0.0000 -18.6038 0.0000 0.0000
# 5 0.0000 0.0000 0.0000 0.0000 -18.6038 0.0000
# 6 0.0000 0.0000 0.0000 0.0000 0.0000 50.6381
#
#
#
# Elastic Compliance Matrix: (Units=1/GPa)
#
#
# Indices 1 2 3 4 5 6 
#
# 1 0.009668 -0.004430 -0.002150 0.000000 0.000000 0.000000
# 2 -0.004430 0.009668 -0.002150 0.000000 0.000000 0.000000
# 3 -0.002150 -0.002150 0.013009 0.000000 0.000000 0.000000
# 4 0.000000 0.000000 0.000000 -0.053752 0.000000 0.000000
# 5 0.000000 0.000000 0.000000 0.000000 -0.053752 0.000000
# 6 0.000000 0.000000 0.000000 0.000000 0.000000 0.019748
#
#
# Mechanical properties :
#
#
# Convention : Reuss Voigt Hill
#
# Bulk Modulus (GPa) = 67.17320 75.18150 71.17735
# Shear Modulus (GPa) = -151.55500 18.20403 -66.67548
#
# Velocity S-wave (km/s) = -8.09826 2.80667 -5.37143
# Velocity P-wave (km/s) = 7.64035 6.56020 2.76936
#
# Compressibility (1/GPa) = 0.01488689
#
# Stress axis : x y z
#
# Youngs Moduli (GPa) = 103.43539 103.43539 76.86763
#
# Poissons Ratio (x) = 0.45818 0.16524
# Poissons Ratio (y) = 0.45818 0.16524
# Poissons Ratio (z) = 0.22236 0.22236
#
# Static dielectric constant tensor:
#      x y z
#    x 1.900010 0.000000 0.000000 
#    y 0.000000 1.900010 0.000000 
#    z 0.000000 0.000000 1.830290 
# 
# From -- ./inp_files/3362.got.cif
#   From: 2010.05.17/outbox.cif.g08.bks.cpg/sg114_2_cif.got.tgz:3362.got - 2010.05.20 11:04:54.
