data_PCOD9556691
_publ_section_title
;
Structure prediction by ZEFSAII (Michael W. Deem and Ramdas Pophale) SiO2 
 PCOD9556691
Probable space group: P -4 M 2
;
_chemical_formula_sum "Si O2"
_cell_formula_units_Z 64
_cell_length_a 13.499808
_cell_length_b 13.499808
_cell_length_c 21.684070
_cell_angle_alpha 90.000000
_cell_angle_beta 90.000000
_cell_angle_gamma 90.000000
_cell_volume 3951.809348
_symmetry_space_group_name_H-M "P -4 M 2"
_symmetry_group_IT_number 115
_symmetry_cell_setting 'tetragonal'
loop_
_space_group_symop_operation_xyz
x,y,z
y,-x,-z
-x,-y,z
-y,x,-z
y,x,-z
-y,-x,-z
-x,y,z
x,-y,z
loop_
_atom_site_type_symbol
_atom_site_label
_atom_site_fract_x
_atom_site_fract_y
_atom_site_fract_z
Si Si1 0.883600 0.617287 0.366900
Si Si2 0.883415 0.883137 0.189918
Si Si3 0.383123 0.383184 0.190483
Si Si4 0.251239 0.248017 0.279533
Si Si5 0.384130 0.781634 0.501630
Si Si6 0.883636 0.780900 0.057609
Si Si7 0.883884 0.382825 0.629408
Si Si8 0.281759 0.616531 0.057993
O O1 0.871449 0.500000 0.353662
O O2 0.819706 0.682169 0.320173
O O3 0.844157 0.634109 0.436332
O O4 0.000000 0.640745 0.362876
O O5 0.815251 0.821843 0.236221
O O6 0.868797 0.841592 0.120847
O O7 0.000000 0.869809 0.205085
O O8 0.861288 0.000000 0.192044
O O9 0.500000 0.361025 0.193096
O O10 0.369909 0.500000 0.205085
O O11 0.321523 0.315936 0.237199
O O12 0.342161 0.367674 0.121315
O O13 0.317761 0.181464 0.324769
O O14 0.312501 0.687500 0.500000
O O15 0.500000 0.752173 0.501734
O O16 0.366867 0.846950 0.440601
O O17 0.817544 0.682016 0.060271
O O18 0.000000 0.759621 0.051092
O O19 0.844828 0.844828 0.000000
O O20 0.871318 0.500000 0.642827
O O21 0.000000 0.358992 0.634749
O O22 0.261088 0.500000 0.052026
O O23 0.345275 0.654726 0.000000
#
# Coordination Sequence:
#
# PCOD9556691 Si02
#       8
#     8   8   8   8   8   8   8   8
#     4  10  21  36  56  80 107 140 179 221 266 320
#     4  10  21  36  54  79 109 141 179 220 265 316
#     4  10  21  36  54  79 111 145 179 216 263 320
#     4  12  20  35  55  80 110 144 178 216 266 313
#     4  10  19  36  57  80 106 136 174 221 270 316
#     4  10  20  36  58  82 107 140 180 225 271 315
#     4  10  21  36  56  80 105 138 181 222 262 313
#     4  10  20  36  58  82 107 140 181 225 267 315
#
# _framework density 16.195114
#
# number of rings (size 3 to 8) (size 9 to 14) (size 15 to 20)
#    0.000    1.750    2.500    2.625    0.000    3.125 
#    0.000    0.000    0.000    0.000    0.000    0.875 
#    0.000    0.000    0.000    0.000    0.000    0.000 
#
# Total GULP energy -357286.733489 kJ/mol
# GULP energy per Si atom -5582.605211 kJ/mol
# Density = 1.615825 g / cm^3
# Si number density = 16.195114 Si / 1000 Ang^3
#
#
#
# Elastic Constant Matrix: (Units=GPa)
#
#
# Indices 1 2 3 4 5 6 
#
# 1 130.2802 115.5288 97.3566 0.0000 0.0000 0.0000
# 2 115.5288 130.2759 97.3573 0.0000 0.0000 0.0000
# 3 97.3566 97.3573 140.8806 0.0000 0.0000 0.0000
# 4 0.0000 0.0000 0.0000 26.7046 0.0000 0.0000
# 5 0.0000 0.0000 0.0000 0.0000 26.7048 0.0000
# 6 0.0000 0.0000 0.0000 0.0000 0.0000 27.8850
#
#
#
# Elastic Compliance Matrix: (Units=1/GPa)
#
#
# Indices 1 2 3 4 5 6 
#
# 1 0.038393 -0.029406 -0.006211 0.000000 0.000000 0.000000
# 2 -0.029406 0.038396 -0.006213 0.000000 0.000000 0.000000
# 3 -0.006211 -0.006213 0.015684 0.000000 0.000000 0.000000
# 4 0.000000 0.000000 0.000000 0.037447 0.000000 0.000000
# 5 0.000000 0.000000 0.000000 0.000000 0.037446 0.000000
# 6 0.000000 0.000000 0.000000 0.000000 0.000000 0.035862
#
#
# Mechanical properties :
#
#
# Convention : Reuss Voigt Hill
#
# Bulk Modulus (GPa) = 113.45470 113.54687 113.50079
# Shear Modulus (GPa) = 17.25185 22.33848 19.79517
#
# Velocity S-wave (km/s) = 3.26736 3.71797 3.49992
# Velocity P-wave (km/s) = 9.18919 9.41781 9.30420
#
# Compressibility (1/GPa) = 0.00881409
#
# Stress axis : x y z
#
# Youngs Moduli (GPa) = 26.04653 26.04434 63.76011
#
# Poissons Ratio (x) = 0.76585 0.39599
# Poissons Ratio (y) = 0.76591 0.39615
# Poissons Ratio (z) = 0.16176 0.16182
#
# Static dielectric constant tensor:
#      x y z
#    x 1.515010 0.000000 0.000000 
#    y 0.000000 1.515010 0.000000 
#    z 0.000000 0.000000 1.521000 
# 
# From -- ./inp_files/5373.got.cif
#   From: 2010.05.17/outbox.cif.g08.bks.cpg/sg115_3_cif.got.tgz:5373.got - 2010.05.20 11:07:42.
