data_PCOD9556649
_publ_section_title
;
Structure prediction by ZEFSAII (Michael W. Deem and Ramdas Pophale) SiO2 
 PCOD9556649
Probable space group: P -4 M 2
;
_chemical_formula_sum "Si O2"
_cell_formula_units_Z 40
_cell_length_a 7.933875
_cell_length_b 7.933875
_cell_length_c 30.641502
_cell_angle_alpha 90.000000
_cell_angle_beta 90.000000
_cell_angle_gamma 90.000000
_cell_volume 1928.771399
_symmetry_space_group_name_H-M "P -4 M 2"
_symmetry_group_IT_number 115
_symmetry_cell_setting 'tetragonal'
loop_
_space_group_symop_operation_xyz
x,y,z
y,-x,-z
-x,-y,z
-y,x,-z
y,x,-z
-y,-x,-z
-x,y,z
x,-y,z
loop_
_atom_site_type_symbol
_atom_site_label
_atom_site_fract_x
_atom_site_fract_y
_atom_site_fract_z
Si Si1 0.204087 0.689095 0.547990
Si Si2 0.207443 0.000000 0.708294
Si Si3 0.310071 0.801453 0.046898
Si Si4 0.306911 0.199484 0.232642
Si Si5 0.305311 0.301092 0.138441
Si Si6 0.205808 0.000000 0.607816
O O1 0.275769 0.724232 0.500000
O O2 0.248441 0.500000 0.562222
O O3 0.259715 0.834103 0.581288
O O4 0.000000 0.699102 0.544615
O O5 0.265555 0.831573 0.733545
O O6 0.259797 0.000000 0.657946
O O7 0.000000 0.000000 0.709449
O O8 0.500000 0.728564 0.044305
O O9 0.225890 0.733171 0.091126
O O10 0.319595 0.000000 0.053155
O O11 0.230203 0.769798 0.000000
O O12 0.500000 0.268694 0.235371
O O13 0.239488 0.223961 0.183234
O O14 0.320256 0.000000 0.240298
O O15 0.500000 0.237575 0.135137
O O16 0.308005 0.500000 0.144829
O O17 0.000000 0.000000 0.607955
#
# Coordination Sequence:
#
# PCOD9556649 Si02
#       6
#     8   4   8   8   8   4
#     4  10  19  32  55  83 113 154 198 241 293 346
#     4   9  18  32  51  81 113 147 186 230 282 332
#     4  10  20  34  52  75 104 136 171 212 264 324
#     4   9  17  31  52  76 105 141 183 231 279 332
#     4   9  17  31  53  77  99 129 172 218 266 323
#     4   9  18  32  53  81 119 152 189 243 288 338
#
# _framework density 20.738591
#
# number of rings (size 3 to 8) (size 9 to 14) (size 15 to 20)
#    0.000    2.600    1.000    1.200    0.000    4.600 
#    1.800    4.500    0.000    2.400    0.000    2.800 
#    0.000    0.000    0.000    0.000    0.000    0.000 
#
# Total GULP energy -223047.869496 kJ/mol
# GULP energy per Si atom -5576.196737 kJ/mol
# Density = 2.069139 g / cm^3
# Si number density = 20.738591 Si / 1000 Ang^3
#
#
#
# Elastic Constant Matrix: (Units=GPa)
#
#
# Indices 1 2 3 4 5 6 
#
# 1 61.7149 26.0299 48.5982 0.0000 0.0000 0.0000
# 2 26.0299 61.7143 48.5985 0.0000 0.0000 0.0000
# 3 48.5982 48.5985 178.2461 0.0000 0.0000 0.0000
# 4 0.0000 0.0000 0.0000 28.6325 0.0000 0.0000
# 5 0.0000 0.0000 0.0000 0.0000 28.6316 0.0000
# 6 0.0000 0.0000 0.0000 0.0000 0.0000 6.0854
#
#
#
# Elastic Compliance Matrix: (Units=1/GPa)
#
#
# Indices 1 2 3 4 5 6 
#
# 1 0.022175 -0.005848 -0.004452 0.000000 0.000000 0.000000
# 2 -0.005848 0.022176 -0.004452 0.000000 0.000000 0.000000
# 3 -0.004452 -0.004452 0.008038 0.000000 0.000000 0.000000
# 4 0.000000 0.000000 0.000000 0.034925 0.000000 0.000000
# 5 0.000000 0.000000 0.000000 0.000000 0.034926 0.000000
# 6 0.000000 0.000000 0.000000 0.000000 0.000000 0.164328
#
#
# Mechanical properties :
#
#
# Convention : Reuss Voigt Hill
#
# Bulk Modulus (GPa) = 43.69343 60.90317 52.29830
# Shear Modulus (GPa) = 15.44638 24.56648 20.00643
#
# Velocity S-wave (km/s) = 2.73209 3.44550 3.10932
# Velocity P-wave (km/s) = 5.57376 6.72752 6.17763
#
# Compressibility (1/GPa) = 0.02288674
#
# Stress axis : x y z
#
# Youngs Moduli (GPa) = 45.09484 45.09414 124.41254
#
# Poissons Ratio (x) = 0.26369 0.55385
# Poissons Ratio (y) = 0.26369 0.55387
# Poissons Ratio (z) = 0.20075 0.20075
#
# Static dielectric constant tensor:
#      x y z
#    x 1.764080 0.000000 0.000000 
#    y 0.000000 1.764070 0.000000 
#    z 0.000000 0.000000 1.734910 
# 
# From -- ./inp_files/5483.got.cif
#   From: 2010.05.17/outbox.cif.g08.bks.cpg/sg115_3_cif.got.tgz:5483.got - 2010.05.20 11:07:42.
