data_PCOD9556110
_publ_section_title
;
Structure prediction by ZEFSAII (Michael W. Deem and Ramdas Pophale) SiO2 
 PCOD9556110
Probable space group: P -4 21 C
;
_chemical_formula_sum "Si O2"
_cell_formula_units_Z 36
_cell_length_a 8.482384
_cell_length_b 8.482384
_cell_length_c 20.473990
_cell_angle_alpha 90.000000
_cell_angle_beta 90.000000
_cell_angle_gamma 90.000000
_cell_volume 1473.120744
_symmetry_space_group_name_H-M "P -4 21 C"
_symmetry_group_IT_number 114
_symmetry_cell_setting 'tetragonal'
loop_
_space_group_symop_operation_xyz
x,y,z
y,-x,-z
-x,-y,z
-y,x,-z
1/2+x,1/2-y,1/2-z
1/2-x,1/2+y,1/2-z
1/2-y,1/2-x,1/2+z
1/2+y,1/2+x,1/2+z
loop_
_atom_site_type_symbol
_atom_site_label
_atom_site_fract_x
_atom_site_fract_y
_atom_site_fract_z
Si Si1 0.500000 0.500000 0.629351
Si Si2 0.328280 0.585415 0.823780
Si Si3 0.708318 0.372982 0.973379
Si Si4 0.179655 0.265504 0.806376
Si Si5 0.326809 0.069772 0.916433
O O1 0.531525 0.339498 0.669873
O O2 0.664651 0.525117 0.592533
O O3 0.500000 0.500000 0.816007
O O4 0.314317 0.647652 0.897073
O O5 0.195092 0.451199 0.813317
O O6 0.303033 0.715266 0.768416
O O7 0.559573 0.299816 0.011268
O O8 0.860310 0.315134 0.011045
O O9 0.310194 0.197528 0.857531
O O10 0.500000 0.000000 0.909288
#
# Coordination Sequence:
#
# PCOD9556110 Si02
#       5
#     4   8   8   8   8
#     4   8  20  46  70 111 151 200 272 326 408 499
#     4  12  22  44  77 113 155 206 275 341 417 506
#     4  11  20  40  74 106 141 201 272 331 400 502
#     4  10  23  43  75 112 158 208 265 346 409 501
#     4  10  21  44  73 105 155 215 259 341 426 487
#
# _framework density 24.437916000000001
#
# number of rings (size 3 to 8) (size 9 to 14) (size 15 to 20)
#    1.333    0.222    5.556    0.000    0.000    3.556 
#    0.000    7.778    7.333    0.000    0.000    0.000 
#    0.000    0.000    0.000    0.000    0.000    0.000 
#
# Total GULP energy -201176.492703 kJ/mol
# GULP energy per Si atom -5588.235908 kJ/mol
# Density = 2.438229 g / cm^3
# Si number density = 24.437916 Si / 1000 Ang^3
#
#
#
# Elastic Constant Matrix: (Units=GPa)
#
#
# Indices 1 2 3 4 5 6 
#
# 1 69.0024 55.9945 25.6691 0.0000 0.0000 0.0000
# 2 55.9945 69.0024 25.6691 0.0000 0.0000 0.0000
# 3 25.6691 25.6691 154.2156 0.0000 0.0000 0.0000
# 4 0.0000 0.0000 0.0000 24.3801 0.0000 0.0000
# 5 0.0000 0.0000 0.0000 0.0000 24.3801 0.0000
# 6 0.0000 0.0000 0.0000 0.0000 0.0000 -724.9593
#
#
#
# Elastic Compliance Matrix: (Units=1/GPa)
#
#
# Indices 1 2 3 4 5 6 
#
# 1 0.042732 -0.034144 -0.001429 0.000000 0.000000 0.000000
# 2 -0.034144 0.042732 -0.001429 0.000000 0.000000 0.000000
# 3 -0.001429 -0.001429 0.006960 0.000000 0.000000 0.000000
# 4 0.000000 0.000000 0.000000 0.041017 0.000000 0.000000
# 5 0.000000 0.000000 0.000000 0.000000 0.041017 0.000000
# 6 0.000000 0.000000 0.000000 0.000000 0.000000 -0.001379
#
#
# Mechanical properties :
#
#
# Convention : Reuss Voigt Hill
#
# Bulk Modulus (GPa) = 54.29652 56.32064 55.30858
# Shear Modulus (GPa) = 19.74538 -122.91397 -51.58429
#
# Velocity S-wave (km/s) = 2.84559 -7.09969 -4.59936
# Velocity P-wave (km/s) = 5.75003 6.64161 2.35034
#
# Compressibility (1/GPa) = 0.01841739
#
# Stress axis : x y z
#
# Youngs Moduli (GPa) = 23.40185 23.40185 143.67292
#
# Poissons Ratio (x) = 0.79904 0.20536
# Poissons Ratio (y) = 0.79904 0.20536
# Poissons Ratio (z) = 0.03345 0.03345
#
# Static dielectric constant tensor:
#      x y z
#    x 2.011680 0.000000 0.000000 
#    y 0.000000 2.011680 0.000000 
#    z 0.000000 0.000000 1.982590 
# 
# From -- ./inp_files/2968.got.cif
#   From: 2010.05.17/outbox.cif.g08.bks.cpg/sg114_2_cif.got.tgz:2968.got - 2010.05.20 11:04:54.
