data_PCOD9556659
_publ_section_title
;
Structure prediction by ZEFSAII (Michael W. Deem and Ramdas Pophale) SiO2 
 PCOD9556659
Probable space group: P -4 M 2
;
_chemical_formula_sum "Si O2"
_cell_formula_units_Z 40
_cell_length_a 21.260404
_cell_length_b 21.260404
_cell_length_c 5.110688
_cell_angle_alpha 90.000000
_cell_angle_beta 90.000000
_cell_angle_gamma 90.000000
_cell_volume 2310.055396
_symmetry_space_group_name_H-M "P -4 M 2"
_symmetry_group_IT_number 115
_symmetry_cell_setting 'tetragonal'
loop_
_space_group_symop_operation_xyz
x,y,z
y,-x,-z
-x,-y,z
-y,x,-z
y,x,-z
-y,-x,-z
-x,y,z
x,-y,z
loop_
_atom_site_type_symbol
_atom_site_label
_atom_site_fract_x
_atom_site_fract_y
_atom_site_fract_z
Si Si1 0.573852 0.242937 0.025117
Si Si2 0.872220 0.234951 0.496678
Si Si3 0.928218 0.821034 0.997953
Si Si4 0.432633 0.382368 0.253130
Si Si5 0.770767 0.660819 0.484529
O O1 0.500000 0.220931 0.012860
O O2 0.570460 0.314995 0.118200
O O3 0.620222 0.217395 0.251861
O O4 0.611059 0.239185 0.750973
O O5 0.818344 0.181657 0.500000
O O6 0.906031 0.227099 0.773340
O O7 0.833792 0.298239 0.442430
O O8 0.919486 0.215186 0.269746
O O9 0.000000 0.840756 0.956497
O O10 0.880766 0.880766 0.000000
O O11 0.386887 0.386887 0.500000
O O12 0.500000 0.392940 0.381914
O O13 0.425498 0.425498 0.000000
O O14 0.712450 0.712450 0.500000
#
# Coordination Sequence:
#
# PCOD9556659 Si02
#       5
#     8   8   8   8   8
#     4  11  22  34  49  71  97 122 156 206 263 325
#     4   9  19  33  51  77 104 136 178 221 254 285
#     4  10  19  33  52  78 116 152 181 211 238 270
#     4  11  22  34  46  61  84 116 156 199 243 297
#     4  11  20  34  55  73  97 132 168 207 262 321
#
# _framework density 17.315601999999998
#
# number of rings (size 3 to 8) (size 9 to 14) (size 15 to 20)
#    0.000    1.600    0.000    6.600    0.000    7.800 
#    0.000    0.000    0.000    3.600    0.000    0.000 
#    0.000   56.000    0.000    0.000    0.000    0.000 
#
# Total GULP energy -222792.580038 kJ/mol
# GULP energy per Si atom -5569.814501 kJ/mol
# Density = 1.727619 g / cm^3
# Si number density = 17.315602 Si / 1000 Ang^3
#
#
#
# Elastic Constant Matrix: (Units=GPa)
#
#
# Indices 1 2 3 4 5 6 
#
# 1 65.7895 35.4567 17.9851 0.0000 0.0000 0.0000
# 2 35.4567 65.7888 17.9860 0.0000 0.0000 0.0000
# 3 17.9851 17.9860 97.0444 0.0000 0.0000 0.0000
# 4 0.0000 0.0000 0.0000 17.4194 0.0000 0.0000
# 5 0.0000 0.0000 0.0000 0.0000 17.4187 0.0000
# 6 0.0000 0.0000 0.0000 0.0000 0.0000 14.3745
#
#
#
# Elastic Compliance Matrix: (Units=1/GPa)
#
#
# Indices 1 2 3 4 5 6 
#
# 1 0.021770 -0.011197 -0.001959 0.000000 0.000000 0.000000
# 2 -0.011197 0.021771 -0.001960 0.000000 0.000000 0.000000
# 3 -0.001959 -0.001960 0.011031 0.000000 0.000000 0.000000
# 4 0.000000 0.000000 0.000000 0.057407 0.000000 0.000000
# 5 0.000000 0.000000 0.000000 0.000000 0.057410 0.000000
# 6 0.000000 0.000000 0.000000 0.000000 0.000000 0.069567
#
#
# Mechanical properties :
#
#
# Convention : Reuss Voigt Hill
#
# Bulk Modulus (GPa) = 41.08635 41.27536 41.18085
# Shear Modulus (GPa) = 18.03087 20.32219 19.17653
#
# Velocity S-wave (km/s) = 3.23043 3.42955 3.33148
# Velocity P-wave (km/s) = 6.13952 6.29057 6.21550
#
# Compressibility (1/GPa) = 0.02433898
#
# Stress axis : x y z
#
# Youngs Moduli (GPa) = 45.93398 45.93324 90.65437
#
# Poissons Ratio (x) = 0.51433 0.17763
# Poissons Ratio (y) = 0.51434 0.17766
# Poissons Ratio (z) = 0.09000 0.09002
#
# Static dielectric constant tensor:
#      x y z
#    x 1.624890 0.000000 0.000000 
#    y 0.000000 1.624890 0.000000 
#    z 0.000000 0.000000 1.637800 
# 
# From -- ./inp_files/581.got.cif
#   From: 2010.05.17/outbox.cif.g08.bks.cpg/sg115_1_cif.got.tgz:581.got - 2010.05.20 11:07:42.
