data_PCOD9556467
_publ_section_title
;
Structure prediction by ZEFSAII (Michael W. Deem and Ramdas Pophale) SiO2 
 PCOD9556467
Probable space group: P -4 21 C
;
_chemical_formula_sum "Si O2"
_cell_formula_units_Z 32
_cell_length_a 10.111474
_cell_length_b 10.111474
_cell_length_c 13.341891
_cell_angle_alpha 90.000000
_cell_angle_beta 90.000000
_cell_angle_gamma 90.000000
_cell_volume 1364.100372
_symmetry_space_group_name_H-M "P -4 21 C"
_symmetry_group_IT_number 114
_symmetry_cell_setting 'tetragonal'
loop_
_space_group_symop_operation_xyz
x,y,z
y,-x,-z
-x,-y,z
-y,x,-z
1/2+x,1/2-y,1/2-z
1/2-x,1/2+y,1/2-z
1/2-y,1/2-x,1/2+z
1/2+y,1/2+x,1/2+z
loop_
_atom_site_type_symbol
_atom_site_label
_atom_site_fract_x
_atom_site_fract_y
_atom_site_fract_z
Si Si1 0.755721 0.130975 0.574758
Si Si2 0.500000 0.500000 0.169034
Si Si3 0.059306 0.262248 0.778748
Si Si4 0.000000 0.500000 0.626946
Si Si5 0.346747 0.127323 0.039990
O O1 0.699002 0.203996 0.671744
O O2 0.767409 0.239632 0.487683
O O3 0.669718 0.998605 0.562098
O O4 0.899271 0.078562 0.600236
O O5 0.385185 0.437324 0.236505
O O6 0.027469 0.371791 0.694922
O O7 0.953349 0.283153 0.869041
O O8 0.872550 0.462881 0.558260
#
# Coordination Sequence:
#
# PCOD9556467 Si02
#       5
#     8   4   8   4   8
#     4  12  26  47  77 111 153 202 260 326 399 479
#     4  12  30  45  77 120 154 206 266 339 391 488
#     4  12  28  50  77 113 155 210 266 327 407 473
#     4  12  22  52  74 102 146 210 260 312 394 482
#     4  12  26  48  77 110 152 208 263 324 397 479
#
# _framework density 23.458682
#
# number of rings (size 3 to 8) (size 9 to 14) (size 15 to 20)
#    0.000    0.000    7.500    1.500    7.000    2.000 
#    0.000    0.000    0.000    0.000    0.000    0.000 
#    0.000    0.000    0.000    0.000    0.000    0.000 
#
# Total GULP energy -179278.801247 kJ/mol
# GULP energy per Si atom -5602.462539 kJ/mol
# Density = 2.340529 g / cm^3
# Si number density = 23.458682 Si / 1000 Ang^3
#
#
#
# Elastic Constant Matrix: (Units=GPa)
#
#
# Indices 1 2 3 4 5 6 
#
# 1 52.8852 33.8258 18.9121 0.0000 0.0000 0.0000
# 2 33.8258 52.8852 18.9121 0.0000 0.0000 0.0000
# 3 18.9121 18.9121 90.6465 0.0000 0.0000 0.0000
# 4 0.0000 0.0000 0.0000 -16.9427 0.0000 0.0000
# 5 0.0000 0.0000 0.0000 0.0000 -16.9427 0.0000
# 6 0.0000 0.0000 0.0000 0.0000 0.0000 28.1501
#
#
#
# Elastic Compliance Matrix: (Units=1/GPa)
#
#
# Indices 1 2 3 4 5 6 
#
# 1 0.032577 -0.019890 -0.002647 0.000000 0.000000 0.000000
# 2 -0.019890 0.032577 -0.002647 0.000000 0.000000 0.000000
# 3 -0.002647 -0.002647 0.012136 0.000000 0.000000 0.000000
# 4 0.000000 0.000000 0.000000 -0.059023 0.000000 0.000000
# 5 0.000000 0.000000 0.000000 0.000000 -0.059023 0.000000
# 6 0.000000 0.000000 0.000000 0.000000 0.000000 0.035524
#
#
# Mechanical properties :
#
#
# Convention : Reuss Voigt Hill
#
# Bulk Modulus (GPa) = 37.14327 37.74633 37.44480
# Shear Modulus (GPa) = 92.40005 7.17075 49.78540
#
# Velocity S-wave (km/s) = 6.28283 1.75026 4.61180
# Velocity P-wave (km/s) = 8.27646 4.49556 6.65995
#
# Compressibility (1/GPa) = 0.02692278
#
# Stress axis : x y z
#
# Youngs Moduli (GPa) = 30.69612 30.69612 82.39691
#
# Poissons Ratio (x) = 0.61055 0.21810
# Poissons Ratio (y) = 0.61055 0.21810
# Poissons Ratio (z) = 0.08125 0.08125
#
# Static dielectric constant tensor:
#      x y z
#    x 1.990140 0.000000 0.000000 
#    y 0.000000 1.990140 0.000000 
#    z 0.000000 0.000000 1.929010 
# 
# From -- ./inp_files/1427.got.cif
#   From: 2010.05.17/outbox.cif.g08.bks.cpg/sg114_1_cif.got.tgz:1427.got - 2010.05.20 11:04:54.
