data_PCOD9556252
_publ_section_title
;
Structure prediction by ZEFSAII (Michael W. Deem and Ramdas Pophale) SiO2 
 PCOD9556252
Probable space group: P -4 21 C
;
_chemical_formula_sum "Si O2"
_cell_formula_units_Z 60
_cell_length_a 17.912439
_cell_length_b 17.912439
_cell_length_c 9.311389
_cell_angle_alpha 90.000000
_cell_angle_beta 90.000000
_cell_angle_gamma 90.000000
_cell_volume 2987.610103
_symmetry_space_group_name_H-M "P -4 21 C"
_symmetry_group_IT_number 114
_symmetry_cell_setting 'tetragonal'
loop_
_space_group_symop_operation_xyz
x,y,z
y,-x,-z
-x,-y,z
-y,x,-z
1/2+x,1/2-y,1/2-z
1/2-x,1/2+y,1/2-z
1/2-y,1/2-x,1/2+z
1/2+y,1/2+x,1/2+z
loop_
_atom_site_type_symbol
_atom_site_label
_atom_site_fract_x
_atom_site_fract_y
_atom_site_fract_z
Si Si1 0.141663 0.780194 0.361178
Si Si2 0.620381 0.221114 0.836417
Si Si3 0.258508 0.878290 0.990944
Si Si4 0.251555 0.541136 0.629398
Si Si5 0.500000 0.000000 0.004956
Si Si6 0.097611 0.543921 0.732476
Si Si7 0.351574 0.252540 0.620092
Si Si8 0.554801 0.787337 0.867918
O O1 0.201353 0.844557 0.395913
O O2 0.087551 0.807005 0.231871
O O3 0.196351 0.710886 0.317721
O O4 0.096620 0.745660 0.494008
O O5 0.670547 0.154915 0.903556
O O6 0.625879 0.224530 0.661664
O O7 0.534089 0.214770 0.877653
O O8 0.191979 0.823055 0.943023
O O9 0.235177 0.962087 0.944782
O O10 0.184064 0.530198 0.738545
O O11 0.221291 0.599361 0.510837
O O12 0.523614 0.936140 0.114607
O O13 0.566663 0.010289 0.892648
O O14 0.074961 0.627670 0.683488
O O15 0.412488 0.265298 0.741942
#
# Coordination Sequence:
#
# PCOD9556252 Si02
#       8
#     8   8   8   8   4   8   8   8
#     4  11  23  42  66  94 126 171 224 265 312 400
#     4  11  27  43  63 100 135 167 214 274 333 386
#     4  11  27  41  65  97 135 169 214 276 333 383
#     4  12  22  40  66  90 128 171 220 263 321 382
#     4  10  24  34  48  76 138 164 196 246 302 368
#     4  11  22  36  56  88 122 176 205 246 301 400
#     4  11  21  44  65  90 127 173 220 263 314 391
#     4  12  24  40  69  92 128 172 219 264 327 382
#
# _framework density 20.082941000000002
#
# number of rings (size 3 to 8) (size 9 to 14) (size 15 to 20)
#    0.000    0.800    5.333    1.600   11.200    0.000 
#    0.000    0.000    0.000    4.800    0.000    0.000 
#    0.000    0.000    0.000    0.000    0.000    0.000 
#
# Total GULP energy -334731.095378 kJ/mol
# GULP energy per Si atom -5578.851590 kJ/mol
# Density = 2.003723 g / cm^3
# Si number density = 20.082941 Si / 1000 Ang^3
#
#
#
# Elastic Constant Matrix: (Units=GPa)
#
#
# Indices 1 2 3 4 5 6 
#
# 1 75.6510 42.9213 10.9930 0.0000 0.0000 0.0000
# 2 42.9213 75.6510 10.9930 0.0000 0.0000 0.0000
# 3 10.9930 10.9930 86.4355 0.0000 0.0000 0.0000
# 4 0.0000 0.0000 0.0000 27.4425 0.0000 0.0000
# 5 0.0000 0.0000 0.0000 0.0000 27.4425 0.0000
# 6 0.0000 0.0000 0.0000 0.0000 0.0000 21.6906
#
#
#
# Elastic Compliance Matrix: (Units=1/GPa)
#
#
# Indices 1 2 3 4 5 6 
#
# 1 0.019595 -0.010958 -0.001099 0.000000 0.000000 0.000000
# 2 -0.010958 0.019595 -0.001099 0.000000 0.000000 0.000000
# 3 -0.001099 -0.001099 0.011849 0.000000 0.000000 0.000000
# 4 0.000000 0.000000 0.000000 0.036440 0.000000 0.000000
# 5 0.000000 0.000000 0.000000 0.000000 0.036440 0.000000
# 6 0.000000 0.000000 0.000000 0.000000 0.000000 0.046103
#
#
# Mechanical properties :
#
#
# Convention : Reuss Voigt Hill
#
# Bulk Modulus (GPa) = 40.43768 40.83913 40.63841
# Shear Modulus (GPa) = 24.44091 26.83715 25.63903
#
# Velocity S-wave (km/s) = 3.49234 3.65953 3.57691
# Velocity P-wave (km/s) = 6.03663 6.18349 6.11050
#
# Compressibility (1/GPa) = 0.02472941
#
# Stress axis : x y z
#
# Youngs Moduli (GPa) = 51.03258 51.03258 84.39717
#
# Poissons Ratio (x) = 0.55921 0.09271
# Poissons Ratio (y) = 0.55921 0.09271
# Poissons Ratio (z) = 0.05606 0.05606
#
# Static dielectric constant tensor:
#      x y z
#    x 1.801510 0.000000 0.000000 
#    y 0.000000 1.801510 0.000000 
#    z 0.000000 0.000000 1.743090 
# 
# From -- ./inp_files/1017.got.cif
#   From: 2010.05.17/outbox.cif.g08.bks.cpg/sg114_1_cif.got.tgz:1017.got - 2010.05.20 11:04:54.
