data_PCOD9556899
_publ_section_title
;
Structure prediction by ZEFSAII (Michael W. Deem and Ramdas Pophale) SiO2 
 PCOD9556899
Probable space group: P -4 M 2
;
_chemical_formula_sum "Si O2"
_cell_formula_units_Z 40
_cell_length_a 9.236975
_cell_length_b 9.236975
_cell_length_c 26.588173
_cell_angle_alpha 90.000000
_cell_angle_beta 90.000000
_cell_angle_gamma 90.000000
_cell_volume 2268.548310
_symmetry_space_group_name_H-M "P -4 M 2"
_symmetry_group_IT_number 115
_symmetry_cell_setting 'tetragonal'
loop_
_space_group_symop_operation_xyz
x,y,z
y,-x,-z
-x,-y,z
-y,x,-z
y,x,-z
-y,-x,-z
-x,y,z
x,-y,z
loop_
_atom_site_type_symbol
_atom_site_label
_atom_site_fract_x
_atom_site_fract_y
_atom_site_fract_z
Si Si1 0.172645 0.671501 0.545985
Si Si2 0.826762 0.829514 0.650093
Si Si3 0.323881 0.832982 0.156792
Si Si4 0.672498 0.671817 0.257888
Si Si5 0.174466 0.330787 0.954673
O O1 0.258807 0.741194 0.500000
O O2 0.198975 0.500000 0.549548
O O3 0.212578 0.749349 0.598224
O O4 0.000000 0.693736 0.538227
O O5 0.746205 0.757504 0.696835
O O6 0.000000 0.812734 0.656919
O O7 0.794643 0.000000 0.646427
O O8 0.500000 0.833115 0.155137
O O9 0.280262 0.737446 0.204205
O O10 0.277648 0.781844 0.101272
O O11 0.278475 0.000000 0.164133
O O12 0.500000 0.701339 0.263534
O O13 0.693106 0.500000 0.258448
O O14 0.215084 0.500000 0.959464
O O15 0.000000 0.322942 0.956080
O O16 0.242621 0.242621 0.000000
#
# Coordination Sequence:
#
# PCOD9556899 Si02
#       5
#     8   8   8   8   8
#     4  10  21  37  58  83 109 139 175 214 257 303
#     4  10  21  37  57  79 104 138 178 215 253 302
#     4   8  15  30  51  72  97 132 172 212 253 301
#     4  10  20  33  52  79 107 134 168 212 260 308
#     4   9  18  32  50  74 102 132 169 211 255 305
#
# _framework density 17.632422999999999
#
# number of rings (size 3 to 8) (size 9 to 14) (size 15 to 20)
#    0.000    2.600    0.000    3.000    0.000    5.600 
#    0.000    3.000    0.000    1.200    0.000    0.000 
#    0.000    0.000    0.000    0.000    0.000    0.000 
#
# Total GULP energy -223140.087223 kJ/mol
# GULP energy per Si atom -5578.502181 kJ/mol
# Density = 1.759229 g / cm^3
# Si number density = 17.632423 Si / 1000 Ang^3
#
#
#
# Elastic Constant Matrix: (Units=GPa)
#
#
# Indices 1 2 3 4 5 6 
#
# 1 56.9169 53.5632 84.7583 0.0000 0.0000 0.0000
# 2 53.5632 56.9164 84.7595 0.0000 0.0000 0.0000
# 3 84.7583 84.7595 213.3772 0.0000 0.0000 0.0000
# 4 0.0000 0.0000 0.0000 35.2479 0.0000 0.0000
# 5 0.0000 0.0000 0.0000 0.0000 35.2479 0.0000
# 6 0.0000 0.0000 0.0000 0.0000 0.0000 25.9417
#
#
#
# Elastic Compliance Matrix: (Units=1/GPa)
#
#
# Indices 1 2 3 4 5 6 
#
# 1 0.160685 -0.137511 -0.009204 0.000000 0.000000 0.000000
# 2 -0.137511 0.160695 -0.009210 0.000000 0.000000 0.000000
# 3 -0.009204 -0.009210 0.012001 0.000000 0.000000 0.000000
# 4 0.000000 0.000000 0.000000 0.028370 0.000000 0.000000
# 5 0.000000 0.000000 0.000000 0.000000 0.028370 0.000000
# 6 0.000000 0.000000 0.000000 0.000000 0.000000 0.038548
#
#
# Mechanical properties :
#
#
# Convention : Reuss Voigt Hill
#
# Bulk Modulus (GPa) = 46.44703 85.93025 66.18864
# Shear Modulus (GPa) = 6.68721 26.22950 16.45835
#
# Velocity S-wave (km/s) = 1.94956 3.86109 3.05850
# Velocity P-wave (km/s) = 5.60952 8.28959 7.07757
#
# Compressibility (1/GPa) = 0.02152990
#
# Stress axis : x y z
#
# Youngs Moduli (GPa) = 6.22337 6.22299 83.32512
#
# Poissons Ratio (x) = 0.85573 0.76696
# Poissons Ratio (y) = 0.85578 0.76742
# Poissons Ratio (z) = 0.05728 0.05731
#
# Static dielectric constant tensor:
#      x y z
#    x 1.587590 0.000000 0.000000 
#    y 0.000000 1.587590 0.000000 
#    z 0.000000 0.000000 1.585860 
# 
# From -- ./inp_files/5092.got.cif
#   From: 2010.05.17/outbox.cif.g08.bks.cpg/sg115_3_cif.got.tgz:5092.got - 2010.05.20 11:07:42.
