data_PCOD9556994
_publ_section_title
;
Structure prediction by ZEFSAII (Michael W. Deem and Ramdas Pophale) SiO2 
 PCOD9556994
Probable space group: P -4 M 2
;
_chemical_formula_sum "Si O2"
_cell_formula_units_Z 40
_cell_length_a 8.066358
_cell_length_b 8.066358
_cell_length_c 30.312402
_cell_angle_alpha 90.000000
_cell_angle_beta 90.000000
_cell_angle_gamma 90.000000
_cell_volume 1972.310731
_symmetry_space_group_name_H-M "P -4 M 2"
_symmetry_group_IT_number 115
_symmetry_cell_setting 'tetragonal'
loop_
_space_group_symop_operation_xyz
x,y,z
y,-x,-z
-x,-y,z
-y,x,-z
y,x,-z
-y,-x,-z
-x,y,z
x,-y,z
loop_
_atom_site_type_symbol
_atom_site_label
_atom_site_fract_x
_atom_site_fract_y
_atom_site_fract_z
Si Si1 0.817928 0.702852 0.734923
Si Si2 0.301757 0.185847 0.546812
Si Si3 0.299601 0.500000 0.209532
Si Si4 0.500000 0.799751 0.892042
Si Si5 0.811113 0.201351 0.949235
Si Si6 0.301400 0.309009 0.358865
O O1 0.815821 0.500000 0.735125
O O2 0.664961 0.758455 0.764933
O O3 0.788183 0.756431 0.684275
O O4 0.000000 0.755891 0.750196
O O5 0.268780 0.268780 0.500000
O O6 0.500000 0.185758 0.551629
O O7 0.238321 0.259647 0.592897
O O8 0.238420 0.000000 0.543452
O O9 0.500000 0.500000 0.211717
O O10 0.247655 0.500000 0.158945
O O11 0.332728 0.739629 0.916536
O O12 0.500000 0.000000 0.895484
O O13 0.000000 0.261245 0.940758
O O14 0.817531 0.000000 0.946417
O O15 0.763390 0.236611 0.000000
O O16 0.500000 0.315324 0.356561
O O17 0.240820 0.500000 0.355282
#
# Coordination Sequence:
#
# PCOD9556994 Si02
#       6
#     8   8   4   4   8   8
#     4   9  17  31  54  78 100 135 179 222 272 330
#     4  10  21  35  51  74 105 140 173 211 264 322
#     4  10  20  36  52  74 112 140 172 224 278 319
#     4  10  20  34  54  80 108 146 186 224 274 331
#     4   8  15  31  54  77 105 143 184 227 273 323
#     4   9  16  30  53  76  96 125 170 221 268 317
#
# _framework density 20.280781000000001
#
# number of rings (size 3 to 8) (size 9 to 14) (size 15 to 20)
#    0.000    2.800    1.000    1.200    0.000    2.800 
#    1.800    3.000    0.000    1.200    0.000    0.000 
#    0.000    0.000    0.000    0.000    0.000    0.000 
#
# Total GULP energy -222987.476231 kJ/mol
# GULP energy per Si atom -5574.686906 kJ/mol
# Density = 2.023462 g / cm^3
# Si number density = 20.280781 Si / 1000 Ang^3
#
#
#
# Elastic Constant Matrix: (Units=GPa)
#
#
# Indices 1 2 3 4 5 6 
#
# 1 64.3979 24.3063 55.3600 0.0000 0.0000 0.0000
# 2 24.3063 64.3977 55.3600 0.0000 0.0000 0.0000
# 3 55.3600 55.3600 174.1419 0.0000 0.0000 0.0000
# 4 0.0000 0.0000 0.0000 -224.4289 0.0000 0.0000
# 5 0.0000 0.0000 0.0000 0.0000 -224.4575 0.0000
# 6 0.0000 0.0000 0.0000 0.0000 0.0000 1.9122
#
#
#
# Elastic Compliance Matrix: (Units=1/GPa)
#
#
# Indices 1 2 3 4 5 6 
#
# 1 0.021816 -0.003127 -0.005941 0.000000 0.000000 0.000000
# 2 -0.003127 0.021816 -0.005941 0.000000 0.000000 0.000000
# 3 -0.005941 -0.005941 0.009520 0.000000 0.000000 0.000000
# 4 0.000000 0.000000 0.000000 -0.004456 0.000000 0.000000
# 5 0.000000 0.000000 0.000000 0.000000 -0.004455 0.000000
# 6 0.000000 0.000000 0.000000 0.000000 0.000000 0.522954
#
#
# Mechanical properties :
#
#
# Convention : Reuss Voigt Hill
#
# Bulk Modulus (GPa) = 43.22770 63.66556 53.44663
# Shear Modulus (GPa) = 8.26547 -78.20074 -34.96764
#
# Velocity S-wave (km/s) = 2.02098 -6.21633 -4.15682
# Velocity P-wave (km/s) = 5.17752 4.47922 1.83620
#
# Compressibility (1/GPa) = 0.02313331
#
# Stress axis : x y z
#
# Youngs Moduli (GPa) = 45.83757 45.83742 105.04191
#
# Poissons Ratio (x) = 0.14332 0.62410
# Poissons Ratio (y) = 0.14332 0.62410
# Poissons Ratio (z) = 0.27234 0.27234
#
# Static dielectric constant tensor:
#      x y z
#    x 1.786590 0.000000 0.000000 
#    y 0.000000 1.786590 0.000000 
#    z 0.000000 0.000000 1.715800 
# 
# From -- ./inp_files/5540.got.cif
#   From: 2010.05.17/outbox.cif.g08.bks.cpg/sg115_3_cif.got.tgz:5540.got - 2010.05.20 11:07:42.
