data_PCOD9556634
_publ_section_title
;
Structure prediction by ZEFSAII (Michael W. Deem and Ramdas Pophale) SiO2 
 PCOD9556634
Probable space group: P -4 M 2
;
_chemical_formula_sum "Si O2"
_cell_formula_units_Z 40
_cell_length_a 7.964177
_cell_length_b 7.964177
_cell_length_c 30.426651
_cell_angle_alpha 90.000000
_cell_angle_beta 90.000000
_cell_angle_gamma 90.000000
_cell_volume 1929.905127
_symmetry_space_group_name_H-M "P -4 M 2"
_symmetry_group_IT_number 115
_symmetry_cell_setting 'tetragonal'
loop_
_space_group_symop_operation_xyz
x,y,z
y,-x,-z
-x,-y,z
-y,x,-z
y,x,-z
-y,-x,-z
-x,y,z
x,-y,z
loop_
_atom_site_type_symbol
_atom_site_label
_atom_site_fract_x
_atom_site_fract_y
_atom_site_fract_z
Si Si1 0.687596 0.199796 0.046863
Si Si2 0.297816 0.500000 0.203004
Si Si3 0.806127 0.304707 0.453483
Si Si4 0.816193 0.794519 0.639102
Si Si5 0.500000 0.797490 0.695473
Si Si6 0.293817 0.805466 0.142159
O O1 0.500000 0.272146 0.043939
O O2 0.764583 0.253970 0.093458
O O3 0.675893 0.000000 0.052239
O O4 0.769951 0.230049 0.000000
O O5 0.500000 0.500000 0.200208
O O6 0.249106 0.500000 0.253727
O O7 0.239988 0.669116 0.177996
O O8 0.718095 0.281906 0.500000
O O9 0.804762 0.500000 0.440870
O O10 0.737136 0.207716 0.411290
O O11 0.000000 0.252804 0.460400
O O12 0.665474 0.736418 0.669903
O O13 0.000000 0.746642 0.655461
O O14 0.808238 0.000000 0.637428
O O15 0.500000 0.000000 0.692506
O O16 0.500000 0.806356 0.140494
O O17 0.242985 0.000000 0.150454
#
# Coordination Sequence:
#
# PCOD9556634 Si02
#       6
#     8   4   8   8   4   8
#     4   9  18  31  48  73 102 133 170 212 258 313
#     4  10  20  34  56  78 100 138 182 220 278 331
#     4  10  19  32  51  77 107 139 179 222 266 324
#     4   9  17  32  55  78 104 141 180 224 278 333
#     4  10  20  36  54  78 108 136 176 234 282 327
#     4   8  16  32  51  73 104 136 173 221 268 324
#
# _framework density 20.726409
#
# number of rings (size 3 to 8) (size 9 to 14) (size 15 to 20)
#    0.000    2.800    1.000    1.800    1.400    2.400 
#    0.000    2.000    0.000    2.400    0.000    0.000 
#    0.000    0.000    0.000    0.000    0.000    0.000 
#
# Total GULP energy -223028.104634 kJ/mol
# GULP energy per Si atom -5575.702616 kJ/mol
# Density = 2.067923 g / cm^3
# Si number density = 20.726409 Si / 1000 Ang^3
#
#
#
# Elastic Constant Matrix: (Units=GPa)
#
#
# Indices 1 2 3 4 5 6 
#
# 1 60.5356 19.1651 47.9226 0.0000 0.0000 0.0000
# 2 19.1651 60.5351 47.9221 0.0000 0.0000 0.0000
# 3 47.9226 47.9221 171.1836 0.0000 0.0000 0.0000
# 4 0.0000 0.0000 0.0000 33.5971 0.0000 0.0000
# 5 0.0000 0.0000 0.0000 0.0000 33.5969 0.0000
# 6 0.0000 0.0000 0.0000 0.0000 0.0000 6.2167
#
#
#
# Elastic Compliance Matrix: (Units=1/GPa)
#
#
# Indices 1 2 3 4 5 6 
#
# 1 0.021543 -0.002629 -0.005295 0.000000 0.000000 0.000000
# 2 -0.002629 0.021543 -0.005295 0.000000 0.000000 0.000000
# 3 -0.005295 -0.005295 0.008806 0.000000 0.000000 0.000000
# 4 0.000000 0.000000 0.000000 0.029765 0.000000 0.000000
# 5 0.000000 0.000000 0.000000 0.000000 0.029765 0.000000
# 6 0.000000 0.000000 0.000000 0.000000 0.000000 0.160856
#
#
# Mechanical properties :
#
#
# Convention : Reuss Voigt Hill
#
# Bulk Modulus (GPa) = 39.28454 58.03042 48.65748
# Shear Modulus (GPa) = 16.27600 26.49845 21.38722
#
# Velocity S-wave (km/s) = 2.80532 3.57947 3.21578
# Velocity P-wave (km/s) = 5.43030 6.71882 6.10863
#
# Compressibility (1/GPa) = 0.02545531
#
# Stress axis : x y z
#
# Youngs Moduli (GPa) = 46.41818 46.41799 113.55406
#
# Poissons Ratio (x) = 0.12202 0.60128
# Poissons Ratio (y) = 0.12202 0.60128
# Poissons Ratio (z) = 0.24579 0.24579
#
# Static dielectric constant tensor:
#      x y z
#    x 1.765000 0.000000 0.000000 
#    y 0.000000 1.765000 0.000000 
#    z 0.000000 0.000000 1.728490 
# 
# From -- ./inp_files/5521.got.cif
#   From: 2010.05.17/outbox.cif.g08.bks.cpg/sg115_3_cif.got.tgz:5521.got - 2010.05.20 11:07:42.
