data_PCOD9556696
_publ_section_title
;
Structure prediction by ZEFSAII (Michael W. Deem and Ramdas Pophale) SiO2 
 PCOD9556696
Probable space group: P -4 M 2
;
_chemical_formula_sum "Si O2"
_cell_formula_units_Z 32
_cell_length_a 17.729663
_cell_length_b 17.729663
_cell_length_c 5.374868
_cell_angle_alpha 90.000000
_cell_angle_beta 90.000000
_cell_angle_gamma 90.000000
_cell_volume 1689.541114
_symmetry_space_group_name_H-M "P -4 M 2"
_symmetry_group_IT_number 115
_symmetry_cell_setting 'tetragonal'
loop_
_space_group_symop_operation_xyz
x,y,z
y,-x,-z
-x,-y,z
-y,x,-z
y,x,-z
-y,-x,-z
-x,y,z
x,-y,z
loop_
_atom_site_type_symbol
_atom_site_label
_atom_site_fract_x
_atom_site_fract_y
_atom_site_fract_z
Si Si1 0.874113 0.212870 0.185289
Si Si2 0.081311 0.081311 0.500000
Si Si3 0.414644 0.820520 0.429484
Si Si4 0.734388 0.734388 0.500000
Si Si5 0.086185 0.377296 0.068159
O O1 0.918623 0.166147 0.389850
O O2 0.793528 0.242779 0.285614
O O3 0.913147 0.285956 0.074501
O O4 0.853457 0.146544 0.000000
O O5 0.000000 0.079367 0.642397
O O6 0.500000 0.791595 0.431372
O O7 0.350747 0.755705 0.430890
O O8 0.402498 0.871244 0.678485
O O9 0.402590 0.870462 0.180879
O O10 0.000000 0.404082 0.067731
#
# Coordination Sequence:
#
# PCOD9556696 Si02
#       5
#     8   4   8   4   8
#     4  10  19  37  57  76 104 153 198 244 287 353
#     4  10  22  35  48  74 110 147 200 262 308 342
#     4  11  23  39  62  88 118 156 190 235 295 350
#     4   9  20  39  58  80 114 143 196 229 278 350
#     4  11  23  38  59  88 120 155 196 242 294 350
#
# _framework density 18.940055999999998
#
# number of rings (size 3 to 8) (size 9 to 14) (size 15 to 20)
#    0.000    1.625    2.500    2.250    0.000    5.000 
#    0.000    1.250    0.000    0.375    0.000    0.000 
#    0.000    4.500    0.000    0.000    0.000    0.750 
#
# Total GULP energy -178177.886372 kJ/mol
# GULP energy per Si atom -5568.058949 kJ/mol
# Density = 1.889695 g / cm^3
# Si number density = 18.940056 Si / 1000 Ang^3
#
#
#
# Elastic Constant Matrix: (Units=GPa)
#
#
# Indices 1 2 3 4 5 6 
#
# 1 134.4943 57.8483 26.9327 0.0000 0.0000 0.0000
# 2 57.8483 134.4942 26.9300 0.0000 0.0000 0.0000
# 3 26.9327 26.9300 90.8009 0.0000 0.0000 0.0000
# 4 0.0000 0.0000 0.0000 6.4833 0.0000 0.0000
# 5 0.0000 0.0000 0.0000 0.0000 6.4817 0.0000
# 6 0.0000 0.0000 0.0000 0.0000 0.0000 12.1981
#
#
#
# Elastic Compliance Matrix: (Units=1/GPa)
#
#
# Indices 1 2 3 4 5 6 
#
# 1 0.009359 -0.003689 -0.001682 0.000000 0.000000 0.000000
# 2 -0.003689 0.009358 -0.001681 0.000000 0.000000 0.000000
# 3 -0.001682 -0.001681 0.012011 0.000000 0.000000 0.000000
# 4 0.000000 0.000000 0.000000 0.154243 0.000000 0.000000
# 5 0.000000 0.000000 0.000000 0.000000 0.154280 0.000000
# 6 0.000000 0.000000 0.000000 0.000000 0.000000 0.081980
#
#
# Mechanical properties :
#
#
# Convention : Reuss Voigt Hill
#
# Bulk Modulus (GPa) = 60.15456 64.80127 62.47791
# Shear Modulus (GPa) = 11.34104 21.57117 16.45611
#
# Velocity S-wave (km/s) = 2.44967 3.37845 2.95083
# Velocity P-wave (km/s) = 6.31115 7.03610 6.68346
#
# Compressibility (1/GPa) = 0.01662384
#
# Stress axis : x y z
#
# Youngs Moduli (GPa) = 106.85403 106.85536 83.25924
#
# Poissons Ratio (x) = 0.39414 0.14004
# Poissons Ratio (y) = 0.39413 0.14000
# Poissons Ratio (z) = 0.17972 0.17968
#
# Static dielectric constant tensor:
#      x y z
#    x 1.650300 0.000000 0.000000 
#    y 0.000000 1.650300 0.000000 
#    z 0.000000 0.000000 1.789810 
# 
# From -- ./inp_files/463.got.cif
#   From: 2010.05.17/outbox.cif.g08.bks.cpg/sg115_1_cif.got.tgz:463.got - 2010.05.20 11:07:42.
