data_PCOD9556021
_publ_section_title
;
Structure prediction by ZEFSAII (Michael W. Deem and Ramdas Pophale) SiO2 
 PCOD9556021
Probable space group: P -4 21 C
;
_chemical_formula_sum "Si O2"
_cell_formula_units_Z 48
_cell_length_a 13.803503
_cell_length_b 13.803503
_cell_length_c 11.054267
_cell_angle_alpha 90.000000
_cell_angle_beta 90.000000
_cell_angle_gamma 90.000000
_cell_volume 2106.243501
_symmetry_space_group_name_H-M "P -4 21 C"
_symmetry_group_IT_number 114
_symmetry_cell_setting 'tetragonal'
loop_
_space_group_symop_operation_xyz
x,y,z
y,-x,-z
-x,-y,z
-y,x,-z
1/2+x,1/2-y,1/2-z
1/2-x,1/2+y,1/2-z
1/2-y,1/2-x,1/2+z
1/2+y,1/2+x,1/2+z
loop_
_atom_site_type_symbol
_atom_site_label
_atom_site_fract_x
_atom_site_fract_y
_atom_site_fract_z
Si Si1 0.685391 0.103289 0.510697
Si Si2 0.000000 0.500000 0.188292
Si Si3 0.921773 0.190562 0.868724
Si Si4 0.112756 0.626435 0.517111
Si Si5 0.000000 0.000000 0.000000
Si Si6 0.000000 0.000000 0.500000
Si Si7 0.844312 0.877410 0.377343
Si Si8 0.086847 0.309765 0.769840
O O1 0.794517 0.099372 0.552112
O O2 0.686998 0.127586 0.367350
O O3 0.643703 0.182105 0.604343
O O4 0.637591 0.997423 0.535237
O O5 0.964044 0.408138 0.107527
O O6 0.907393 0.523580 0.266501
O O7 0.848060 0.160808 0.763464
O O8 0.014494 0.221452 0.787531
O O9 0.892125 0.287751 0.943087
O O10 0.950805 0.093688 0.937329
O O11 0.121218 0.732296 0.579303
O O12 0.967929 0.088179 0.587662
#
# Coordination Sequence:
#
# PCOD9556021 Si02
#       8
#     8   4   8   8   2   2   8   8
#     4  11  25  43  74 114 147 203 256 328 397 461
#     4  10  20  46  74 116 148 194 248 334 392 458
#     4  12  26  51  71 108 155 209 264 319 410 487
#     4  11  24  45  74 110 152 195 264 324 399 473
#     4  12  34  52  76 110 168 224 246 354 412 484
#     4  12  22  52  72  98 160 184 278 316 376 490
#     4  12  25  45  72 108 147 207 261 319 394 480
#     4  11  23  45  75 109 153 198 256 324 394 476
#
# _framework density 22.789387999999999
#
# number of rings (size 3 to 8) (size 9 to 14) (size 15 to 20)
#    0.000    0.667    5.000    3.500    4.667    2.000 
#    0.000    0.000    0.000    0.000    0.000    0.000 
#    0.000    0.000    0.000    0.000    0.000    0.000 
#
# Total GULP energy -267297.033932 kJ/mol
# GULP energy per Si atom -5568.688207 kJ/mol
# Density = 2.273752 g / cm^3
# Si number density = 22.789388 Si / 1000 Ang^3
#
#
#
# Elastic Constant Matrix: (Units=GPa)
#
#
# Indices 1 2 3 4 5 6 
#
# 1 86.2197 27.3584 42.7218 0.0000 0.0000 0.0000
# 2 27.3584 86.2197 42.7218 0.0000 0.0000 0.0000
# 3 42.7218 42.7218 128.3498 0.0000 0.0000 0.0000
# 4 0.0000 0.0000 0.0000 24.3263 0.0000 0.0000
# 5 0.0000 0.0000 0.0000 0.0000 24.3263 0.0000
# 6 0.0000 0.0000 0.0000 0.0000 0.0000 20.2535
#
#
#
# Elastic Compliance Matrix: (Units=1/GPa)
#
#
# Indices 1 2 3 4 5 6 
#
# 1 0.014367 -0.002622 -0.003910 0.000000 0.000000 0.000000
# 2 -0.002622 0.014367 -0.003910 0.000000 0.000000 0.000000
# 3 -0.003910 -0.003910 0.010394 0.000000 0.000000 0.000000
# 4 0.000000 0.000000 0.000000 0.041108 0.000000 0.000000
# 5 0.000000 0.000000 0.000000 0.000000 0.041108 0.000000
# 6 0.000000 0.000000 0.000000 0.000000 0.000000 0.049374
#
#
# Mechanical properties :
#
#
# Convention : Reuss Voigt Hill
#
# Bulk Modulus (GPa) = 54.80410 58.48812 56.64611
# Shear Modulus (GPa) = 25.29308 26.31369 25.80339
#
# Velocity S-wave (km/s) = 3.33507 3.40170 3.36855
# Velocity P-wave (km/s) = 6.23944 6.41475 6.32770
#
# Compressibility (1/GPa) = 0.01824681
#
# Stress axis : x y z
#
# Youngs Moduli (GPa) = 69.60209 69.60209 96.21056
#
# Poissons Ratio (x) = 0.18248 0.37615
# Poissons Ratio (y) = 0.18248 0.37615
# Poissons Ratio (z) = 0.27212 0.27212
#
# Static dielectric constant tensor:
#      x y z
#    x 1.923900 0.000000 0.000000 
#    y 0.000000 1.923900 0.000000 
#    z 0.000000 0.000000 1.955120 
# 
# From -- ./inp_files/1714.got.cif
#   From: 2010.05.17/outbox.cif.g08.bks.cpg/sg114_1_cif.got.tgz:1714.got - 2010.05.20 11:04:54.
