data_PCOD9556052
_publ_section_title
;
Structure prediction by ZEFSAII (Michael W. Deem and Ramdas Pophale) SiO2 
 PCOD9556052
Probable space group: P -4 21 C
;
_chemical_formula_sum "Si O2"
_cell_formula_units_Z 40
_cell_length_a 9.608776
_cell_length_b 9.608776
_cell_length_c 21.912686
_cell_angle_alpha 90.000000
_cell_angle_beta 90.000000
_cell_angle_gamma 90.000000
_cell_volume 2023.167099
_symmetry_space_group_name_H-M "P -4 21 C"
_symmetry_group_IT_number 114
_symmetry_cell_setting 'tetragonal'
loop_
_space_group_symop_operation_xyz
x,y,z
y,-x,-z
-x,-y,z
-y,x,-z
1/2+x,1/2-y,1/2-z
1/2-x,1/2+y,1/2-z
1/2-y,1/2-x,1/2+z
1/2+y,1/2+x,1/2+z
loop_
_atom_site_type_symbol
_atom_site_label
_atom_site_fract_x
_atom_site_fract_y
_atom_site_fract_z
Si Si1 0.762335 0.635009 0.561939
Si Si2 0.899499 0.105668 0.132611
Si Si3 0.675607 0.132311 0.303886
Si Si4 0.171988 0.639165 0.730492
Si Si5 0.344804 0.023290 0.057136
O O1 0.658782 0.508017 0.581253
O O2 0.854747 0.653736 0.623111
O O3 0.838891 0.572366 0.503516
O O4 0.676879 0.776643 0.546261
O O5 0.842774 0.231155 0.171792
O O6 0.766613 0.033777 0.104824
O O7 0.000000 0.000000 0.169831
O O8 0.528813 0.160424 0.269160
O O9 0.788847 0.246650 0.285421
O O10 0.708376 0.976792 0.282189
O O11 0.500000 0.000000 0.081320
#
# Coordination Sequence:
#
# PCOD9556052 Si02
#       5
#     8   8   8   8   8
#     4  10  21  39  59  92 122 161 206 257 307 371
#     4   9  20  37  61  87 123 159 207 255 306 365
#     4  10  24  40  63  90 126 165 210 255 317 372
#     4  10  23  41  62  91 124 168 206 259 307 378
#     4  11  22  35  65  92 125 158 208 263 311 373
#
# _framework density 19.770983999999999
#
# number of rings (size 3 to 8) (size 9 to 14) (size 15 to 20)
#    0.000    2.000    2.000    0.000   14.000    1.600 
#    0.000    0.000    0.000    3.000    0.000    0.000 
#    0.000    0.000    0.000    0.000    0.000    0.000 
#
# Total GULP energy -222900.094585 kJ/mol
# GULP energy per Si atom -5572.502365 kJ/mol
# Density = 1.972598 g / cm^3
# Si number density = 19.770984 Si / 1000 Ang^3
#
#
#
# Elastic Constant Matrix: (Units=GPa)
#
#
# Indices 1 2 3 4 5 6 
#
# 1 80.5406 8.6375 27.4808 0.0000 0.0000 0.0000
# 2 8.6375 80.5406 27.4808 0.0000 0.0000 0.0000
# 3 27.4808 27.4808 49.3914 0.0000 0.0000 0.0000
# 4 0.0000 0.0000 0.0000 11.5085 0.0000 0.0000
# 5 0.0000 0.0000 0.0000 0.0000 11.5085 0.0000
# 6 0.0000 0.0000 0.0000 0.0000 0.0000 21.0570
#
#
#
# Elastic Compliance Matrix: (Units=1/GPa)
#
#
# Indices 1 2 3 4 5 6 
#
# 1 0.015487 0.001579 -0.009495 0.000000 0.000000 0.000000
# 2 0.001579 0.015487 -0.009495 0.000000 0.000000 0.000000
# 3 -0.009495 -0.009495 0.030812 0.000000 0.000000 0.000000
# 4 0.000000 0.000000 0.000000 0.086892 0.000000 0.000000
# 5 0.000000 0.000000 0.000000 0.000000 0.086892 0.000000
# 6 0.000000 0.000000 0.000000 0.000000 0.000000 0.047490
#
#
# Mechanical properties :
#
#
# Convention : Reuss Voigt Hill
#
# Bulk Modulus (GPa) = 37.08776 37.51899 37.30337
# Shear Modulus (GPa) = 15.29659 18.60636 16.95148
#
# Velocity S-wave (km/s) = 2.78454 3.07105 2.93130
# Velocity P-wave (km/s) = 5.39793 5.62078 5.51048
#
# Compressibility (1/GPa) = 0.02696307
#
# Stress axis : x y z
#
# Youngs Moduli (GPa) = 64.57231 64.57231 32.45458
#
# Poissons Ratio (x) = -0.10195 0.30816
# Poissons Ratio (y) = -0.10195 0.30816
# Poissons Ratio (z) = 0.61311 0.61311
#
# Static dielectric constant tensor:
#      x y z
#    x 1.818110 0.000000 0.000000 
#    y 0.000000 1.818110 0.000000 
#    z 0.000000 0.000000 1.711370 
# 
# From -- ./inp_files/3377.got.cif
#   From: 2010.05.17/outbox.cif.g08.bks.cpg/sg114_2_cif.got.tgz:3377.got - 2010.05.20 11:04:54.
