data_PCOD9556002
_publ_section_title
;
Structure prediction by ZEFSAII (Michael W. Deem and Ramdas Pophale) SiO2 
 PCOD9556002
Probable space group: P -4 21 C
;
_chemical_formula_sum "Si O2"
_cell_formula_units_Z 48
_cell_length_a 7.896165
_cell_length_b 7.896165
_cell_length_c 30.498821
_cell_angle_alpha 90.000000
_cell_angle_beta 90.000000
_cell_angle_gamma 90.000000
_cell_volume 1901.583852
_symmetry_space_group_name_H-M "P -4 21 C"
_symmetry_group_IT_number 114
_symmetry_cell_setting 'tetragonal'
loop_
_space_group_symop_operation_xyz
x,y,z
y,-x,-z
-x,-y,z
-y,x,-z
1/2+x,1/2-y,1/2-z
1/2-x,1/2+y,1/2-z
1/2-y,1/2-x,1/2+z
1/2+y,1/2+x,1/2+z
loop_
_atom_site_type_symbol
_atom_site_label
_atom_site_fract_x
_atom_site_fract_y
_atom_site_fract_z
Si Si1 0.896167 0.249308 0.278995
Si Si2 0.707258 0.793063 0.395410
Si Si3 0.943297 0.302217 0.434303
Si Si4 0.301373 0.054246 0.142675
Si Si5 0.120200 0.756880 0.011726
Si Si6 0.107453 0.746384 0.697737
O O1 0.779986 0.370003 0.309477
O O2 0.893937 0.315675 0.229663
O O3 0.085840 0.227320 0.298094
O O4 0.809945 0.068132 0.283004
O O5 0.694092 0.605054 0.373509
O O6 0.594925 0.805581 0.438736
O O7 0.694628 0.909058 0.352869
O O8 0.896812 0.800741 0.416508
O O9 0.801931 0.305859 0.395949
O O10 0.864815 0.267218 0.481432
O O11 0.000000 0.500000 0.438694
O O12 0.500000 0.000000 0.144072
O O13 0.940150 0.790630 0.988632
#
# Coordination Sequence:
#
# PCOD9556002 Si02
#       6
#     8   8   8   8   8   8
#     4  11  23  41  67  92 127 161 214 250 321 376
#     4  10  20  41  62  83 119 165 206 248 314 367
#     4   9  17  37  60  79 115 165 197 231 321 359
#     4   9  16  36  66  79 112 168 198 238 311 374
#     4  11  21  36  60  92 122 155 211 257 296 368
#     4  11  24  41  64  96 124 165 207 266 308 388
#
# _framework density 25.242117
#
# number of rings (size 3 to 8) (size 9 to 14) (size 15 to 20)
#    0.000    2.167    6.667    1.000    0.000    0.000 
#    6.000    1.667    0.000    0.000    0.000    0.000 
#    0.000    0.000    0.000    0.000    0.000    0.000 
#
# Total GULP energy -268186.479756 kJ/mol
# GULP energy per Si atom -5587.218328 kJ/mol
# Density = 2.518466 g / cm^3
# Si number density = 25.242117 Si / 1000 Ang^3
#
#
#
# Elastic Constant Matrix: (Units=GPa)
#
#
# Indices 1 2 3 4 5 6 
#
# 1 41.2472 13.6521 26.2931 0.0000 0.0000 0.0000
# 2 13.6521 41.2472 26.2931 0.0000 0.0000 0.0000
# 3 26.2931 26.2931 183.5099 0.0000 0.0000 0.0000
# 4 0.0000 0.0000 0.0000 13.9954 0.0000 0.0000
# 5 0.0000 0.0000 0.0000 0.0000 13.9954 0.0000
# 6 0.0000 0.0000 0.0000 0.0000 0.0000 14.8495
#
#
#
# Elastic Compliance Matrix: (Units=1/GPa)
#
#
# Indices 1 2 3 4 5 6 
#
# 1 0.028676 -0.007563 -0.003025 0.000000 0.000000 0.000000
# 2 -0.007563 0.028676 -0.003025 0.000000 0.000000 0.000000
# 3 -0.003025 -0.003025 0.006316 0.000000 0.000000 0.000000
# 4 0.000000 0.000000 0.000000 0.071452 0.000000 0.000000
# 5 0.000000 0.000000 0.000000 0.000000 0.071452 0.000000
# 6 0.000000 0.000000 0.000000 0.000000 0.000000 0.067343
#
#
# Mechanical properties :
#
#
# Convention : Reuss Voigt Hill
#
# Bulk Modulus (GPa) = 27.44118 44.27566 35.85842
# Shear Modulus (GPa) = 15.95984 21.88579 18.92282
#
# Velocity S-wave (km/s) = 2.51723 2.94774 2.74095
# Velocity P-wave (km/s) = 4.39811 5.40037 4.92480
#
# Compressibility (1/GPa) = 0.03644158
#
# Stress axis : x y z
#
# Youngs Moduli (GPa) = 34.87294 34.87294 158.32452
#
# Poissons Ratio (x) = 0.26374 0.47893
# Poissons Ratio (y) = 0.26374 0.47893
# Poissons Ratio (z) = 0.10549 0.10549
#
# Static dielectric constant tensor:
#      x y z
#    x 2.357210 0.000000 0.000000 
#    y 0.000000 2.357210 0.000000 
#    z 0.000000 0.000000 2.100710 
# 
# From -- ./inp_files/3932.got.cif
#   From: 2010.05.17/outbox.cif.g08.bks.cpg/sg114_2_cif.got.tgz:3932.got - 2010.05.20 11:04:54.
