data_PCOD9556091
_publ_section_title
;
Structure prediction by ZEFSAII (Michael W. Deem and Ramdas Pophale) SiO2 
 PCOD9556091
Probable space group: P -4 21 C
;
_chemical_formula_sum "Si O2"
_cell_formula_units_Z 48
_cell_length_a 11.267896
_cell_length_b 11.267896
_cell_length_c 18.162306
_cell_angle_alpha 90.000000
_cell_angle_beta 90.000000
_cell_angle_gamma 90.000000
_cell_volume 2305.985904
_symmetry_space_group_name_H-M "P -4 21 C"
_symmetry_group_IT_number 114
_symmetry_cell_setting 'tetragonal'
loop_
_space_group_symop_operation_xyz
x,y,z
y,-x,-z
-x,-y,z
-y,x,-z
1/2+x,1/2-y,1/2-z
1/2-x,1/2+y,1/2-z
1/2-y,1/2-x,1/2+z
1/2+y,1/2+x,1/2+z
loop_
_atom_site_type_symbol
_atom_site_label
_atom_site_fract_x
_atom_site_fract_y
_atom_site_fract_z
Si Si1 0.776108 0.815225 0.044568
Si Si2 0.431231 0.884935 0.387626
Si Si3 0.342442 0.248027 0.376459
Si Si4 0.291316 0.518559 0.167512
Si Si5 0.359095 0.503810 0.331763
Si Si6 0.084134 0.867084 0.453224
O O1 0.864425 0.703237 0.056753
O O2 0.646023 0.758587 0.053455
O O3 0.803755 0.912063 0.106140
O O4 0.782635 0.861675 0.961791
O O5 0.532985 0.807308 0.348780
O O6 0.500000 0.000000 0.420461
O O7 0.328728 0.938759 0.336051
O O8 0.247236 0.143053 0.369119
O O9 0.311662 0.369314 0.336502
O O10 0.333529 0.545665 0.249270
O O11 0.385040 0.440974 0.120428
O O12 0.500000 0.500000 0.345040
O O13 0.950437 0.858020 0.482521
#
# Coordination Sequence:
#
# PCOD9556091 Si02
#       6
#     8   8   8   8   8   8
#     4  11  22  41  66  99 132 174 231 279 340 419
#     4   9  20  41  66  88 131 181 219 275 351 406
#     4  11  22  42  68  94 132 181 229 283 349 425
#     4  10  24  42  65  96 134 176 230 290 358 411
#     4  12  27  39  67  98 136 182 228 296 352 425
#     4  10  21  41  70  99 129 176 226 284 341 410
#
# _framework density 20.815393
#
# number of rings (size 3 to 8) (size 9 to 14) (size 15 to 20)
#    0.000    1.500    3.333    1.000    7.000    0.000 
#    0.000    0.000    3.667    0.000    0.000    0.000 
#    0.000    0.000    0.000    0.000    0.000    0.000 
#
# Total GULP energy -267882.871905 kJ/mol
# GULP energy per Si atom -5580.893165 kJ/mol
# Density = 2.076802 g / cm^3
# Si number density = 20.815393 Si / 1000 Ang^3
#
#
#
# Elastic Constant Matrix: (Units=GPa)
#
#
# Indices 1 2 3 4 5 6 
#
# 1 84.1599 31.2745 24.9718 0.0000 0.0000 0.0000
# 2 31.2745 84.1599 24.9718 0.0000 0.0000 0.0000
# 3 24.9718 24.9718 104.2755 0.0000 0.0000 0.0000
# 4 0.0000 0.0000 0.0000 21.9995 0.0000 0.0000
# 5 0.0000 0.0000 0.0000 0.0000 21.9995 0.0000
# 6 0.0000 0.0000 0.0000 0.0000 0.0000 33.4253
#
#
#
# Elastic Compliance Matrix: (Units=1/GPa)
#
#
# Indices 1 2 3 4 5 6 
#
# 1 0.014287 -0.004622 -0.002314 0.000000 0.000000 0.000000
# 2 -0.004622 0.014287 -0.002314 0.000000 0.000000 0.000000
# 3 -0.002314 -0.002314 0.010698 0.000000 0.000000 0.000000
# 4 0.000000 0.000000 0.000000 0.045455 0.000000 0.000000
# 5 0.000000 0.000000 0.000000 0.000000 0.045455 0.000000
# 6 0.000000 0.000000 0.000000 0.000000 0.000000 0.029917
#
#
# Mechanical properties :
#
#
# Convention : Reuss Voigt Hill
#
# Bulk Modulus (GPa) = 48.14763 48.33683 48.24223
# Shear Modulus (GPa) = 26.95051 28.24336 27.59694
#
# Velocity S-wave (km/s) = 3.60215 3.68754 3.64510
# Velocity P-wave (km/s) = 6.36252 6.43449 6.39861
#
# Compressibility (1/GPa) = 0.02076946
#
# Stress axis : x y z
#
# Youngs Moduli (GPa) = 69.99595 69.99595 93.47124
#
# Poissons Ratio (x) = 0.32354 0.21633
# Poissons Ratio (y) = 0.32354 0.21633
# Poissons Ratio (z) = 0.16200 0.16200
#
# Static dielectric constant tensor:
#      x y z
#    x 1.790240 0.000000 0.000000 
#    y 0.000000 1.790240 0.000000 
#    z 0.000000 0.000000 1.717440 
# 
# From -- ./inp_files/2646.got.cif
#   From: 2010.05.17/outbox.cif.g08.bks.cpg/sg114_2_cif.got.tgz:2646.got - 2010.05.20 11:04:54.
