data_PCOD9556708
_publ_section_title
;
Structure prediction by ZEFSAII (Michael W. Deem and Ramdas Pophale) SiO2 
 PCOD9556708
Probable space group: P -4 M 2
;
_chemical_formula_sum "Si O2"
_cell_formula_units_Z 48
_cell_length_a 9.102662
_cell_length_b 9.102662
_cell_length_c 32.621211
_cell_angle_alpha 90.000000
_cell_angle_beta 90.000000
_cell_angle_gamma 90.000000
_cell_volume 2702.943160
_symmetry_space_group_name_H-M "P -4 M 2"
_symmetry_group_IT_number 115
_symmetry_cell_setting 'tetragonal'
loop_
_space_group_symop_operation_xyz
x,y,z
y,-x,-z
-x,-y,z
-y,x,-z
y,x,-z
-y,-x,-z
-x,y,z
x,-y,z
loop_
_atom_site_type_symbol
_atom_site_label
_atom_site_fract_x
_atom_site_fract_y
_atom_site_fract_z
Si Si1 0.676964 0.171670 0.716556
Si Si2 0.326231 0.824155 0.038738
Si Si3 0.673188 0.320946 0.544086
Si Si4 0.679265 0.671133 0.633294
Si Si5 0.821103 0.830894 0.877347
Si Si6 0.327453 0.176614 0.206297
O O1 0.500000 0.187427 0.718787
O O2 0.725435 0.237139 0.672739
O O3 0.749085 0.256841 0.754136
O O4 0.712892 0.000000 0.719078
O O5 0.500000 0.798136 0.040546
O O6 0.251601 0.775164 0.081292
O O7 0.302526 0.000000 0.034668
O O8 0.255242 0.744758 0.000000
O O9 0.732532 0.267469 0.500000
O O10 0.500000 0.283391 0.543982
O O11 0.680837 0.500000 0.544054
O O12 0.733052 0.274891 0.588520
O O13 0.500000 0.675153 0.631819
O O14 0.720317 0.500000 0.638460
O O15 0.774070 0.751329 0.835631
O O16 0.000000 0.828394 0.877217
O O17 0.773852 0.000000 0.877846
O O18 0.500000 0.209092 0.204015
O O19 0.310178 0.000000 0.209427
#
# Coordination Sequence:
#
# PCOD9556708 Si02
#       6
#     8   8   8   8   8   8
#     4  10  20  32  46  67  96 129 164 201 240 285
#     4  10  20  34  53  77 104 133 165 201 240 283
#     4   7   9  14  27  50  78 105 137 181 231 280
#     4   8  13  22  37  57  83 115 149 188 236 286
#     4   9  17  31  53  78 102 129 162 201 244 290
#     4  10  20  34  53  76 100 127 161 202 248 296
#
# _framework density 17.758419
#
# number of rings (size 3 to 8) (size 9 to 14) (size 15 to 20)
#    0.000    3.000    0.000    3.500    0.000    5.000 
#    0.000    0.833    0.000    5.000    0.000    1.167 
#    0.000    6.667    0.000    0.000    0.000    0.000 
#
# Total GULP energy -267377.671343 kJ/mol
# GULP energy per Si atom -5570.368153 kJ/mol
# Density = 1.771800 g / cm^3
# Si number density = 17.758419 Si / 1000 Ang^3
#
#
#
# Elastic Constant Matrix: (Units=GPa)
#
#
# Indices 1 2 3 4 5 6 
#
# 1 46.3570 39.6922 67.3579 0.0000 0.0000 0.0000
# 2 39.6922 46.3571 67.3579 0.0000 0.0000 0.0000
# 3 67.3579 67.3579 228.9061 0.0000 0.0000 0.0000
# 4 0.0000 0.0000 0.0000 50.4408 0.0000 0.0000
# 5 0.0000 0.0000 0.0000 0.0000 50.4412 0.0000
# 6 0.0000 0.0000 0.0000 0.0000 0.0000 16.1932
#
#
#
# Elastic Compliance Matrix: (Units=1/GPa)
#
#
# Indices 1 2 3 4 5 6 
#
# 1 0.085794 -0.064246 -0.006341 0.000000 0.000000 0.000000
# 2 -0.064246 0.085794 -0.006341 0.000000 0.000000 0.000000
# 3 -0.006341 -0.006341 0.008100 0.000000 0.000000 0.000000
# 4 0.000000 0.000000 0.000000 0.019825 0.000000 0.000000
# 5 0.000000 0.000000 0.000000 0.000000 0.019825 0.000000
# 6 0.000000 0.000000 0.000000 0.000000 0.000000 0.061754
#
#
# Mechanical properties :
#
#
# Convention : Reuss Voigt Hill
#
# Bulk Modulus (GPa) = 38.70940 74.49292 56.60116
# Shear Modulus (GPa) = 11.27244 33.22918 22.25081
#
# Velocity S-wave (km/s) = 2.52219 4.33041 3.54358
# Velocity P-wave (km/s) = 5.50700 8.18793 6.97744
#
# Compressibility (1/GPa) = 0.02583352
#
# Stress axis : x y z
#
# Youngs Moduli (GPa) = 11.65577 11.65583 123.45269
#
# Poissons Ratio (x) = 0.74884 0.78279
# Poissons Ratio (y) = 0.74884 0.78278
# Poissons Ratio (z) = 0.07391 0.07391
#
# Static dielectric constant tensor:
#      x y z
#    x 1.595840 0.000000 0.000000 
#    y 0.000000 1.595840 0.000000 
#    z 0.000000 0.000000 1.622550 
# 
# From -- ./inp_files/6110.got.cif
#   From: 2010.05.17/outbox.cif.g08.bks.cpg/sg115_4_cif.got.tgz:6110.got - 2010.05.20 11:07:42.
