data_PCOD9556375
_publ_section_title
;
Structure prediction by ZEFSAII (Michael W. Deem and Ramdas Pophale) SiO2 
 PCOD9556375
Probable space group: P -4 21 C
;
_chemical_formula_sum "Si O2"
_cell_formula_units_Z 40
_cell_length_a 8.207732
_cell_length_b 8.207732
_cell_length_c 25.101852
_cell_angle_alpha 90.000000
_cell_angle_beta 90.000000
_cell_angle_gamma 90.000000
_cell_volume 1691.033064
_symmetry_space_group_name_H-M "P -4 21 C"
_symmetry_group_IT_number 114
_symmetry_cell_setting 'tetragonal'
loop_
_space_group_symop_operation_xyz
x,y,z
y,-x,-z
-x,-y,z
-y,x,-z
1/2+x,1/2-y,1/2-z
1/2-x,1/2+y,1/2-z
1/2-y,1/2-x,1/2+z
1/2+y,1/2+x,1/2+z
loop_
_atom_site_type_symbol
_atom_site_label
_atom_site_fract_x
_atom_site_fract_y
_atom_site_fract_z
Si Si1 0.665476 0.912512 0.535742
Si Si2 0.329107 0.594773 0.279899
Si Si3 0.653961 0.206807 0.176145
Si Si4 0.802107 0.792176 0.632910
Si Si5 0.350977 0.280264 0.924229
O O1 0.805297 0.048246 0.546974
O O2 0.500000 0.000000 0.550449
O O3 0.699410 0.773130 0.578478
O O4 0.662365 0.864025 0.474340
O O5 0.500000 0.500000 0.278952
O O6 0.295171 0.666229 0.221718
O O7 0.191255 0.468414 0.299024
O O8 0.330457 0.744102 0.321705
O O9 0.970761 0.241989 0.342001
O O10 0.753065 0.217820 0.120912
O O11 0.985124 0.785712 0.611002
#
# Coordination Sequence:
#
# PCOD9556375 Si02
#       5
#     8   8   8   8   8
#     4  11  22  39  67  98 129 169 225 281 338 406
#     4  12  25  43  65 101 140 181 225 291 350 413
#     4  11  23  41  67  94 135 180 230 276 347 412
#     4  11  23  42  72  96 129 180 233 283 335 419
#     4  11  22  41  70  98 127 176 232 284 333 418
#
# _framework density 23.654178000000002
#
# number of rings (size 3 to 8) (size 9 to 14) (size 15 to 20)
#    0.000    0.800    2.000    9.000    0.000    1.600 
#    0.000    4.000    0.000    0.000    0.000    0.000 
#    0.000    0.000    0.000    0.000    0.000    0.000 
#
# Total GULP energy -223573.280324 kJ/mol
# GULP energy per Si atom -5589.332008 kJ/mol
# Density = 2.360034 g / cm^3
# Si number density = 23.654178 Si / 1000 Ang^3
#
#
#
# Elastic Constant Matrix: (Units=GPa)
#
#
# Indices 1 2 3 4 5 6 
#
# 1 56.9842 0.3247 33.7170 0.0000 0.0000 0.0000
# 2 0.3247 56.9842 33.7170 0.0000 0.0000 0.0000
# 3 33.7170 33.7170 183.0515 0.0000 0.0000 0.0000
# 4 0.0000 0.0000 0.0000 23.2203 0.0000 0.0000
# 5 0.0000 0.0000 0.0000 0.0000 23.2203 0.0000
# 6 0.0000 0.0000 0.0000 0.0000 0.0000 21.5442
#
#
#
# Elastic Compliance Matrix: (Units=1/GPa)
#
#
# Indices 1 2 3 4 5 6 
#
# 1 0.019963 0.002314 -0.004103 0.000000 0.000000 0.000000
# 2 0.002314 0.019963 -0.004103 0.000000 0.000000 0.000000
# 3 -0.004103 -0.004103 0.006975 0.000000 0.000000 0.000000
# 4 0.000000 0.000000 0.000000 0.043066 0.000000 0.000000
# 5 0.000000 0.000000 0.000000 0.000000 0.043066 0.000000
# 6 0.000000 0.000000 0.000000 0.000000 0.000000 0.046416
#
#
# Mechanical properties :
#
#
# Convention : Reuss Voigt Hill
#
# Bulk Modulus (GPa) = 28.47681 48.05969 38.26825
# Shear Modulus (GPa) = 24.63784 28.88106 26.75945
#
# Velocity S-wave (km/s) = 3.23086 3.49803 3.36710
# Velocity P-wave (km/s) = 5.09734 6.05613 5.59730
#
# Compressibility (1/GPa) = 0.03511629
#
# Stress axis : x y z
#
# Youngs Moduli (GPa) = 50.09148 50.09148 143.37764
#
# Poissons Ratio (x) = -0.11592 0.58834
# Poissons Ratio (y) = -0.11592 0.58834
# Poissons Ratio (z) = 0.20555 0.20555
#
# Static dielectric constant tensor:
#      x y z
#    x 1.969720 0.000000 0.000000 
#    y 0.000000 1.969720 0.000000 
#    z 0.000000 0.000000 1.895460 
# 
# From -- ./inp_files/3393.got.cif
#   From: 2010.05.17/outbox.cif.g08.bks.cpg/sg114_2_cif.got.tgz:3393.got - 2010.05.20 11:04:54.
