data_PCOD9556460
_publ_section_title
;
Structure prediction by ZEFSAII (Michael W. Deem and Ramdas Pophale) SiO2 
 PCOD9556460
Probable space group: P -4 21 C
;
_chemical_formula_sum "Si O2"
_cell_formula_units_Z 40
_cell_length_a 9.324306
_cell_length_b 9.324306
_cell_length_c 20.469029
_cell_angle_alpha 90.000000
_cell_angle_beta 90.000000
_cell_angle_gamma 90.000000
_cell_volume 1779.632287
_symmetry_space_group_name_H-M "P -4 21 C"
_symmetry_group_IT_number 114
_symmetry_cell_setting 'tetragonal'
loop_
_space_group_symop_operation_xyz
x,y,z
y,-x,-z
-x,-y,z
-y,x,-z
1/2+x,1/2-y,1/2-z
1/2-x,1/2+y,1/2-z
1/2-y,1/2-x,1/2+z
1/2+y,1/2+x,1/2+z
loop_
_atom_site_type_symbol
_atom_site_label
_atom_site_fract_x
_atom_site_fract_y
_atom_site_fract_z
Si Si1 0.391803 0.213141 0.567535
Si Si2 0.440445 0.710313 0.897838
Si Si3 0.500000 0.000000 0.457118
Si Si4 0.604076 0.390078 0.228118
Si Si5 0.500000 0.500000 0.500000
Si Si6 0.500000 0.500000 0.000000
Si Si7 0.598111 0.880310 0.203626
O O1 0.224892 0.180899 0.584309
O O2 0.445301 0.122366 0.506030
O O3 0.430642 0.375663 0.546374
O O4 0.454834 0.151825 0.635558
O O5 0.451318 0.876167 0.909653
O O6 0.508845 0.658747 0.830947
O O7 0.533799 0.630153 0.952747
O O8 0.500000 0.500000 0.267886
O O9 0.507522 0.257302 0.203535
O O10 0.749541 0.340583 0.263477
O O11 0.500000 0.000000 0.238581
#
# Coordination Sequence:
#
# PCOD9556460 Si02
#       7
#     8   8   4   8   2   2   8
#     4  12  25  47  69 110 151 194 245 312 383 457
#     4  12  25  44  75 106 146 196 253 299 385 461
#     4  12  26  42  74 110 148 192 242 314 376 458
#     4  12  27  50  76 112 147 209 258 312 385 463
#     4  12  28  44  74 112 160 192 252 318 396 452
#     4  12  20  40  74 104 144 196 236 322 356 476
#     4  12  28  49  77 109 156 196 263 324 380 454
#
# _framework density 22.476552999999999
#
# number of rings (size 3 to 8) (size 9 to 14) (size 15 to 20)
#    0.000    0.000    8.000    1.200    2.800    1.600 
#    0.000    0.000    0.000    0.000    0.000    0.000 
#    0.000    0.000    0.000    0.000    0.000    0.000 
#
# Total GULP energy -223148.321727 kJ/mol
# GULP energy per Si atom -5578.708043 kJ/mol
# Density = 2.242540 g / cm^3
# Si number density = 22.476553 Si / 1000 Ang^3
#
#
#
# Elastic Constant Matrix: (Units=GPa)
#
#
# Indices 1 2 3 4 5 6 
#
# 1 141.3068 46.1351 32.3246 0.0000 0.0000 0.0000
# 2 46.1351 141.3068 32.3246 0.0000 0.0000 0.0000
# 3 32.3246 32.3246 55.5256 0.0000 0.0000 0.0000
# 4 0.0000 0.0000 0.0000 22.8398 0.0000 0.0000
# 5 0.0000 0.0000 0.0000 0.0000 22.8398 0.0000
# 6 0.0000 0.0000 0.0000 0.0000 0.0000 40.2703
#
#
#
# Elastic Compliance Matrix: (Units=1/GPa)
#
#
# Indices 1 2 3 4 5 6 
#
# 1 0.008591 -0.001916 -0.003886 0.000000 0.000000 0.000000
# 2 -0.001916 0.008591 -0.003886 0.000000 0.000000 0.000000
# 3 -0.003886 -0.003886 0.022534 0.000000 0.000000 0.000000
# 4 0.000000 0.000000 0.000000 0.043783 0.000000 0.000000
# 5 0.000000 0.000000 0.000000 0.000000 0.043783 0.000000
# 6 0.000000 0.000000 0.000000 0.000000 0.000000 0.024832
#
#
# Mechanical properties :
#
#
# Convention : Reuss Voigt Hill
#
# Bulk Modulus (GPa) = 49.16271 62.18978 55.67624
# Shear Modulus (GPa) = 28.04702 32.34698 30.19700
#
# Velocity S-wave (km/s) = 3.53630 3.79772 3.66934
# Velocity P-wave (km/s) = 6.21243 6.85267 6.54039
#
# Compressibility (1/GPa) = 0.02034062
#
# Stress axis : x y z
#
# Youngs Moduli (GPa) = 116.39664 116.39664 44.37679
#
# Poissons Ratio (x) = 0.22302 0.17245
# Poissons Ratio (y) = 0.22302 0.17245
# Poissons Ratio (z) = 0.45233 0.45233
#
# Static dielectric constant tensor:
#      x y z
#    x 1.932300 0.000000 0.000000 
#    y 0.000000 1.932300 0.000000 
#    z 0.000000 0.000000 1.859720 
# 
# From -- ./inp_files/3456.got.cif
#   From: 2010.05.17/outbox.cif.g08.bks.cpg/sg114_2_cif.got.tgz:3456.got - 2010.05.20 11:04:54.
