data_PCOD9556624
_publ_section_title
;
Structure prediction by ZEFSAII (Michael W. Deem and Ramdas Pophale) SiO2 
 PCOD9556624
Probable space group: P -4 M 2
;
_chemical_formula_sum "Si O2"
_cell_formula_units_Z 40
_cell_length_a 13.678574
_cell_length_b 13.678574
_cell_length_c 12.477274
_cell_angle_alpha 90.000000
_cell_angle_beta 90.000000
_cell_angle_gamma 90.000000
_cell_volume 2334.540222
_symmetry_space_group_name_H-M "P -4 M 2"
_symmetry_group_IT_number 115
_symmetry_cell_setting 'tetragonal'
loop_
_space_group_symop_operation_xyz
x,y,z
y,-x,-z
-x,-y,z
-y,x,-z
y,x,-z
-y,-x,-z
-x,y,z
x,-y,z
loop_
_atom_site_type_symbol
_atom_site_label
_atom_site_fract_x
_atom_site_fract_y
_atom_site_fract_z
Si Si1 0.282342 0.884214 0.802115
Si Si2 0.881949 0.392225 0.645419
Si Si3 0.224831 0.384778 0.017840
Si Si4 0.265141 0.884302 0.548928
Si Si5 0.256595 0.884160 0.155890
O O1 0.283620 0.867992 0.674237
O O2 0.179165 0.842081 0.846201
O O3 0.293364 0.000000 0.822250
O O4 0.362099 0.819903 0.865003
O O5 0.842972 0.500000 0.669785
O O6 0.855681 0.355811 0.527060
O O7 0.855775 0.312519 0.734218
O O8 0.000000 0.397376 0.649539
O O9 0.231564 0.500000 0.997986
O O10 0.149964 0.329636 0.937634
O O11 0.326725 0.326725 0.000000
O O12 0.174542 0.825459 0.500000
O O13 0.248011 0.000000 0.535085
O O14 0.239969 0.000000 0.152866
#
# Coordination Sequence:
#
# PCOD9556624 Si02
#       5
#     8   8   8   8   8
#     4  10  21  34  51  78 112 147 181 219 267 322
#     4   9  17  29  47  71  96 129 176 224 267 309
#     4  10  22  39  58  81 107 137 178 225 275 328
#     4  10  19  32  49  72 106 144 179 219 265 321
#     4  10  19  33  53  77 107 142 180 220 262 314
#
# _framework density 17.133994999999999
#
# number of rings (size 3 to 8) (size 9 to 14) (size 15 to 20)
#    0.000    2.200    2.000    1.200    0.000    4.000 
#    0.000    4.000    0.000    3.600    0.000    0.000 
#    0.000    0.400    0.000    0.000    0.000    0.000 
#
# Total GULP energy -222917.638702 kJ/mol
# GULP energy per Si atom -5572.940968 kJ/mol
# Density = 1.709500 g / cm^3
# Si number density = 17.133995 Si / 1000 Ang^3
#
#
#
# Elastic Constant Matrix: (Units=GPa)
#
#
# Indices 1 2 3 4 5 6 
#
# 1 56.6354 12.2513 15.3573 0.0000 0.0000 0.0000
# 2 12.2513 56.6342 15.3588 0.0000 0.0000 0.0000
# 3 15.3573 15.3588 78.0994 0.0000 0.0000 0.0000
# 4 0.0000 0.0000 0.0000 16.6892 0.0000 0.0000
# 5 0.0000 0.0000 0.0000 0.0000 16.6894 0.0000
# 6 0.0000 0.0000 0.0000 0.0000 0.0000 9.0695
#
#
#
# Elastic Compliance Matrix: (Units=1/GPa)
#
#
# Indices 1 2 3 4 5 6 
#
# 1 0.019221 -0.003309 -0.003129 0.000000 0.000000 0.000000
# 2 -0.003309 0.019222 -0.003129 0.000000 0.000000 0.000000
# 3 -0.003129 -0.003129 0.014035 0.000000 0.000000 0.000000
# 4 0.000000 0.000000 0.000000 0.059919 0.000000 0.000000
# 5 0.000000 0.000000 0.000000 0.000000 0.059918 0.000000
# 6 0.000000 0.000000 0.000000 0.000000 0.000000 0.110260
#
#
# Mechanical properties :
#
#
# Convention : Reuss Voigt Hill
#
# Bulk Modulus (GPa) = 29.99168 30.81151 30.40160
# Shear Modulus (GPa) = 15.98341 18.38306 17.18323
#
# Velocity S-wave (km/s) = 3.05757 3.27907 3.17025
# Velocity P-wave (km/s) = 5.47788 5.68842 5.58414
#
# Compressibility (1/GPa) = 0.03334258
#
# Stress axis : x y z
#
# Youngs Moduli (GPa) = 52.02619 52.02446 71.25130
#
# Poissons Ratio (x) = 0.17217 0.22293
# Poissons Ratio (y) = 0.17218 0.22297
# Poissons Ratio (z) = 0.16278 0.16280
#
# Static dielectric constant tensor:
#      x y z
#    x 1.569560 0.000000 0.000000 
#    y 0.000000 1.569560 0.000000 
#    z 0.000000 0.000000 1.624540 
# 
# From -- ./inp_files/2743.got.cif
#   From: 2010.05.17/outbox.cif.g08.bks.cpg/sg115_2_cif.got.tgz:2743.got - 2010.05.20 11:07:42.
