data_PCOD9556471
_publ_section_title
;
Structure prediction by ZEFSAII (Michael W. Deem and Ramdas Pophale) SiO2 
 PCOD9556471
Probable space group: P -4 21 C
;
_chemical_formula_sum "Si O2"
_cell_formula_units_Z 42
_cell_length_a 14.078754
_cell_length_b 14.078754
_cell_length_c 9.443920
_cell_angle_alpha 90.000000
_cell_angle_beta 90.000000
_cell_angle_gamma 90.000000
_cell_volume 1871.891794
_symmetry_space_group_name_H-M "P -4 21 C"
_symmetry_group_IT_number 114
_symmetry_cell_setting 'tetragonal'
loop_
_space_group_symop_operation_xyz
x,y,z
y,-x,-z
-x,-y,z
-y,x,-z
1/2+x,1/2-y,1/2-z
1/2-x,1/2+y,1/2-z
1/2-y,1/2-x,1/2+z
1/2+y,1/2+x,1/2+z
loop_
_atom_site_type_symbol
_atom_site_label
_atom_site_fract_x
_atom_site_fract_y
_atom_site_fract_z
Si Si1 0.199151 0.793755 0.073368
Si Si2 0.932428 0.164562 0.299074
Si Si3 0.000000 0.000000 0.500000
Si Si4 0.112537 0.645968 0.444415
Si Si5 0.604917 0.008783 0.306376
Si Si6 0.130019 0.267738 0.226193
O O1 0.135400 0.863570 0.168408
O O2 0.286374 0.748937 0.161408
O O3 0.128719 0.707905 0.032468
O O4 0.238748 0.840695 0.931885
O O5 0.876984 0.253188 0.367994
O O6 0.948300 0.077352 0.402534
O O7 0.034388 0.210581 0.261287
O O8 0.105325 0.562564 0.328040
O O9 0.028998 0.663297 0.559165
O O10 0.619814 0.117723 0.266531
O O11 0.500000 0.000000 0.368674
#
# Coordination Sequence:
#
# PCOD9556471 Si02
#       6
#     8   8   2   8   8   8
#     4  12  26  48  72 110 149 199 251 309 381 455
#     4  12  27  50  76 104 151 202 258 310 373 459
#     4  12  32  52  74 108 148 220 262 312 380 452
#     4  12  23  46  72 107 149 188 240 305 376 452
#     4  12  25  41  74 114 146 182 237 310 387 448
#     4  12  27  46  76 111 151 194 249 317 385 451
#
# _framework density 22.437194999999999
#
# number of rings (size 3 to 8) (size 9 to 14) (size 15 to 20)
#    0.000    0.000    5.714    2.857    8.000    1.524 
#    0.000    0.000    0.000    0.000    0.000    0.000 
#    0.000    0.000    0.000    0.000    0.000    0.000 
#
# Total GULP energy -234888.773959 kJ/mol
# GULP energy per Si atom -5592.589856 kJ/mol
# Density = 2.238613 g / cm^3
# Si number density = 22.437195 Si / 1000 Ang^3
#
#
#
# Elastic Constant Matrix: (Units=GPa)
#
#
# Indices 1 2 3 4 5 6 
#
# 1 62.2265 -9.7945 25.4405 0.0000 0.0000 0.0000
# 2 -9.7945 62.2265 25.4405 0.0000 0.0000 0.0000
# 3 25.4405 25.4405 127.1541 0.0000 0.0000 0.0000
# 4 0.0000 0.0000 0.0000 96.9925 0.0000 0.0000
# 5 0.0000 0.0000 0.0000 0.0000 96.9925 0.0000
# 6 0.0000 0.0000 0.0000 0.0000 0.0000 28.9541
#
#
#
# Elastic Compliance Matrix: (Units=1/GPa)
#
#
# Indices 1 2 3 4 5 6 
#
# 1 0.018776 0.004891 -0.004735 0.000000 0.000000 0.000000
# 2 0.004891 0.018776 -0.004735 0.000000 0.000000 0.000000
# 3 -0.004735 -0.004735 0.009759 0.000000 0.000000 0.000000
# 4 0.000000 0.000000 0.000000 0.010310 0.000000 0.000000
# 5 0.000000 0.000000 0.000000 0.000000 0.010310 0.000000
# 6 0.000000 0.000000 0.000000 0.000000 0.000000 0.034537
#
#
# Mechanical properties :
#
#
# Convention : Reuss Voigt Hill
#
# Bulk Modulus (GPa) = 26.21013 37.08668 31.64840
# Shear Modulus (GPa) = 40.21055 58.62255 49.41655
#
# Velocity S-wave (km/s) = 4.23796 5.11704 4.69811
# Velocity P-wave (km/s) = 5.97109 7.17476 6.60042
#
# Compressibility (1/GPa) = 0.03815319
#
# Stress axis : x y z
#
# Youngs Moduli (GPa) = 53.25893 53.25893 102.46617
#
# Poissons Ratio (x) = -0.26051 0.48521
# Poissons Ratio (y) = -0.26051 0.48521
# Poissons Ratio (z) = 0.25220 0.25220
#
# Static dielectric constant tensor:
#      x y z
#    x 1.697860 0.000000 0.000000 
#    y 0.000000 1.697860 0.000000 
#    z 0.000000 0.000000 1.851590 
# 
# From -- ./inp_files/819.got.cif
#   From: 2010.05.17/outbox.cif.g08.bks.cpg/sg114_1_cif.got.tgz:819.got - 2010.05.20 11:04:54.
