data_PCOD9556900
_publ_section_title
;
Structure prediction by ZEFSAII (Michael W. Deem and Ramdas Pophale) SiO2 
 PCOD9556900
Probable space group: P -4 M 2
;
_chemical_formula_sum "Si O2"
_cell_formula_units_Z 48
_cell_length_a 9.126698
_cell_length_b 9.126698
_cell_length_c 31.890296
_cell_angle_alpha 90.000000
_cell_angle_beta 90.000000
_cell_angle_gamma 90.000000
_cell_volume 2656.353752
_symmetry_space_group_name_H-M "P -4 M 2"
_symmetry_group_IT_number 115
_symmetry_cell_setting 'tetragonal'
loop_
_space_group_symop_operation_xyz
x,y,z
y,-x,-z
-x,-y,z
-y,x,-z
y,x,-z
-y,-x,-z
-x,y,z
x,-y,z
loop_
_atom_site_type_symbol
_atom_site_label
_atom_site_fract_x
_atom_site_fract_y
_atom_site_fract_z
Si Si1 0.675404 0.826425 0.618805
Si Si2 0.176840 0.829617 0.784190
Si Si3 0.174611 0.325785 0.539803
Si Si4 0.178459 0.330596 0.868789
Si Si5 0.671440 0.675652 0.293909
Si Si6 0.829484 0.676597 0.961432
O O1 0.500000 0.805401 0.613004
O O2 0.760305 0.746193 0.581671
O O3 0.715699 0.757887 0.663746
O O4 0.704448 0.000000 0.618249
O O5 0.224226 0.765045 0.829184
O O6 0.246119 0.739348 0.746313
O O7 0.000000 0.817886 0.782172
O O8 0.216549 0.000000 0.780661
O O9 0.251876 0.251876 0.500000
O O10 0.202160 0.500000 0.539798
O O11 0.000000 0.302600 0.537539
O O12 0.223590 0.500000 0.862876
O O13 0.225383 0.278055 0.915011
O O14 0.000000 0.330233 0.870008
O O15 0.500000 0.711624 0.298429
O O16 0.684441 0.500000 0.288753
O O17 0.823913 0.500000 0.961848
O O18 0.000000 0.720146 0.965432
O O19 0.740983 0.740983 0.000000
#
# Coordination Sequence:
#
# PCOD9556900 Si02
#       6
#     8   8   8   8   8   8
#     4  10  21  38  60  84 110 142 180 222 269 318
#     4  10  20  33  52  79 107 135 171 216 265 315
#     4  11  24  40  59  85 115 147 184 224 267 316
#     4   8  15  30  50  70  96 132 171 211 255 305
#     4  10  21  37  57  80 107 142 182 220 262 315
#     4   9  18  32  50  73 100 130 167 210 256 308
#
# _framework density 18.069883000000001
#
# number of rings (size 3 to 8) (size 9 to 14) (size 15 to 20)
#    0.000    2.333    0.000    3.500    0.000    8.000 
#    0.000    2.500    0.000    1.000    0.000    0.000 
#    0.000    0.000    0.000    0.000    0.000    0.000 
#
# Total GULP energy -267926.265675 kJ/mol
# GULP energy per Si atom -5581.797202 kJ/mol
# Density = 1.802876 g / cm^3
# Si number density = 18.069883 Si / 1000 Ang^3
#
#
#
# Elastic Constant Matrix: (Units=GPa)
#
#
# Indices 1 2 3 4 5 6 
#
# 1 69.4677 56.2296 75.8044 0.0000 0.0000 0.0000
# 2 56.2296 69.4677 75.8044 0.0000 0.0000 0.0000
# 3 75.8044 75.8044 189.7515 0.0000 0.0000 0.0000
# 4 0.0000 0.0000 0.0000 36.6963 0.0000 0.0000
# 5 0.0000 0.0000 0.0000 0.0000 36.6963 0.0000
# 6 0.0000 0.0000 0.0000 0.0000 0.0000 27.2736
#
#
#
# Elastic Compliance Matrix: (Units=1/GPa)
#
#
# Indices 1 2 3 4 5 6 
#
# 1 0.045447 -0.030093 -0.006134 0.000000 0.000000 0.000000
# 2 -0.030093 0.045447 -0.006134 0.000000 0.000000 0.000000
# 3 -0.006134 -0.006134 0.010171 0.000000 0.000000 0.000000
# 4 0.000000 0.000000 0.000000 0.027251 0.000000 0.000000
# 5 0.000000 0.000000 0.000000 0.000000 0.027251 0.000000
# 6 0.000000 0.000000 0.000000 0.000000 0.000000 0.036666
#
#
# Mechanical properties :
#
#
# Convention : Reuss Voigt Hill
#
# Bulk Modulus (GPa) = 61.18659 82.70708 71.94683
# Shear Modulus (GPa) = 17.70545 28.18981 22.94763
#
# Velocity S-wave (km/s) = 3.13362 3.95402 3.56748
# Velocity P-wave (km/s) = 6.85765 8.16797 7.54132
#
# Compressibility (1/GPa) = 0.01634345
#
# Stress axis : x y z
#
# Youngs Moduli (GPa) = 22.00389 22.00389 98.32062
#
# Poissons Ratio (x) = 0.66216 0.60307
# Poissons Ratio (y) = 0.66216 0.60307
# Poissons Ratio (z) = 0.13497 0.13497
#
# Static dielectric constant tensor:
#      x y z
#    x 1.604360 0.000000 0.000000 
#    y 0.000000 1.604360 0.000000 
#    z 0.000000 0.000000 1.599560 
# 
# From -- ./inp_files/5934.got.cif
#   From: 2010.05.17/outbox.cif.g08.bks.cpg/sg115_3_cif.got.tgz:5934.got - 2010.05.20 11:07:42.
