data_PCOD9556014
_publ_section_title
;
Structure prediction by ZEFSAII (Michael W. Deem and Ramdas Pophale) SiO2 
 PCOD9556014
Probable space group: P -4 21 C
;
_chemical_formula_sum "Si O2"
_cell_formula_units_Z 48
_cell_length_a 16.814714
_cell_length_b 16.814714
_cell_length_c 8.537473
_cell_angle_alpha 90.000000
_cell_angle_beta 90.000000
_cell_angle_gamma 90.000000
_cell_volume 2413.839073
_symmetry_space_group_name_H-M "P -4 21 C"
_symmetry_group_IT_number 114
_symmetry_cell_setting 'tetragonal'
loop_
_space_group_symop_operation_xyz
x,y,z
y,-x,-z
-x,-y,z
-y,x,-z
1/2+x,1/2-y,1/2-z
1/2-x,1/2+y,1/2-z
1/2-y,1/2-x,1/2+z
1/2+y,1/2+x,1/2+z
loop_
_atom_site_type_symbol
_atom_site_label
_atom_site_fract_x
_atom_site_fract_y
_atom_site_fract_z
Si Si1 0.718522 0.068014 0.710916
Si Si2 0.000000 0.000000 0.500000
Si Si3 0.349217 0.917690 0.062073
Si Si4 0.071662 0.730342 0.865680
Si Si5 0.500000 0.000000 0.209713
Si Si6 0.096841 0.909215 0.754351
Si Si7 0.346255 0.087108 0.794329
Si Si8 0.500000 0.500000 0.500000
O O1 0.672677 0.133759 0.609491
O O2 0.811793 0.079516 0.710636
O O3 0.697708 0.974950 0.676809
O O4 0.681752 0.079805 0.885309
O O5 0.040636 0.933506 0.609613
O O6 0.434571 0.956495 0.103625
O O7 0.291468 0.977814 0.156816
O O8 0.084221 0.820807 0.819605
O O9 0.131192 0.673360 0.769315
O O10 0.088046 0.704246 0.046267
O O11 0.546212 0.933481 0.308964
O O12 0.071404 0.969890 0.891545
#
# Coordination Sequence:
#
# PCOD9556014 Si02
#       8
#     8   2   8   8   4   8   8   2
#     4  10  21  36  57  87 121 157 196 240 292 348
#     4  10  28  50  68  82 104 154 204 242 304 378
#     4   9  19  34  55  88 125 160 195 235 287 345
#     4  10  21  36  57  87 121 157 196 240 292 348
#     4   8  16  30  56  86 132 178 200 222 280 366
#     4  11  24  44  66  86 112 151 202 250 298 355
#     4   9  19  34  55  88 125 160 195 235 287 345
#     4  10  20  42  68  82 112 162 196 234 288 362
#
# _framework density 19.885335999999999
#
# number of rings (size 3 to 8) (size 9 to 14) (size 15 to 20)
#    0.000    2.333    0.000    2.000    0.000   24.000 
#    0.000    3.333    0.000    0.000    0.000    0.000 
#    0.000    0.000    0.000    0.000    0.000    0.000 
#
# Total GULP energy -267515.943772 kJ/mol
# GULP energy per Si atom -5573.248829 kJ/mol
# Density = 1.984008 g / cm^3
# Si number density = 19.885336 Si / 1000 Ang^3
#
#
#
# Elastic Constant Matrix: (Units=GPa)
#
#
# Indices 1 2 3 4 5 6 
#
# 1 69.7909 -17.6659 -2.4841 0.0000 0.0000 0.0000
# 2 -17.6659 69.7909 -2.4841 0.0000 0.0000 0.0000
# 3 -2.4841 -2.4841 43.3052 0.0000 0.0000 0.0000
# 4 0.0000 0.0000 0.0000 15.9116 0.0000 0.0000
# 5 0.0000 0.0000 0.0000 0.0000 15.9116 0.0000
# 6 0.0000 0.0000 0.0000 0.0000 0.0000 18.5603
#
#
#
# Elastic Compliance Matrix: (Units=1/GPa)
#
#
# Indices 1 2 3 4 5 6 
#
# 1 0.015362 0.003928 0.001107 0.000000 0.000000 0.000000
# 2 0.003928 0.015362 0.001107 0.000000 0.000000 0.000000
# 3 0.001107 0.001107 0.023219 0.000000 0.000000 0.000000
# 4 0.000000 0.000000 0.000000 0.062847 0.000000 0.000000
# 5 0.000000 0.000000 0.000000 0.000000 0.062847 0.000000
# 6 0.000000 0.000000 0.000000 0.000000 0.000000 0.053878
#
#
# Mechanical properties :
#
#
# Convention : Reuss Voigt Hill
#
# Bulk Modulus (GPa) = 15.09999 15.29098 15.19549
# Shear Modulus (GPa) = 20.55001 23.77811 22.16406
#
# Velocity S-wave (km/s) = 3.21818 3.46173 3.34217
# Velocity P-wave (km/s) = 4.62806 4.86666 4.74886
#
# Compressibility (1/GPa) = 0.06622521
#
# Stress axis : x y z
#
# Youngs Moduli (GPa) = 65.09496 65.09496 43.06846
#
# Poissons Ratio (x) = -0.25569 -0.04766
# Poissons Ratio (y) = -0.25569 -0.04766
# Poissons Ratio (z) = -0.07203 -0.07203
#
# Static dielectric constant tensor:
#      x y z
#    x 1.711970 0.000000 0.000000 
#    y 0.000000 1.711970 0.000000 
#    z 0.000000 0.000000 1.745270 
# 
# From -- ./inp_files/944.got.cif
#   From: 2010.05.17/outbox.cif.g08.bks.cpg/sg114_1_cif.got.tgz:944.got - 2010.05.20 11:04:54.
