data_PCOD9556389
_publ_section_title
;
Structure prediction by ZEFSAII (Michael W. Deem and Ramdas Pophale) SiO2 
 PCOD9556389
Probable space group: P -4 21 C
;
_chemical_formula_sum "Si O2"
_cell_formula_units_Z 34
_cell_length_a 12.839143
_cell_length_b 12.839143
_cell_length_c 9.379554
_cell_angle_alpha 90.000000
_cell_angle_beta 90.000000
_cell_angle_gamma 90.000000
_cell_volume 1546.159382
_symmetry_space_group_name_H-M "P -4 21 C"
_symmetry_group_IT_number 114
_symmetry_cell_setting 'tetragonal'
loop_
_space_group_symop_operation_xyz
x,y,z
y,-x,-z
-x,-y,z
-y,x,-z
1/2+x,1/2-y,1/2-z
1/2-x,1/2+y,1/2-z
1/2-y,1/2-x,1/2+z
1/2+y,1/2+x,1/2+z
loop_
_atom_site_type_symbol
_atom_site_label
_atom_site_fract_x
_atom_site_fract_y
_atom_site_fract_z
Si Si1 0.614689 0.982172 0.406898
Si Si2 0.000000 0.000000 0.000000
Si Si3 0.320791 0.808732 0.265581
Si Si4 0.268842 0.442645 0.483311
Si Si5 0.346488 0.145178 0.139720
O O1 0.597066 0.908350 0.272033
O O2 0.684400 0.927908 0.524485
O O3 0.500000 0.000000 0.471534
O O4 0.669367 0.082851 0.347539
O O5 0.950978 0.890915 0.938388
O O6 0.415213 0.745102 0.347494
O O7 0.294515 0.852518 0.105777
O O8 0.225466 0.735079 0.302971
O O9 0.218651 0.553397 0.439268
#
# Coordination Sequence:
#
# PCOD9556389 Si02
#       5
#     8   2   8   8   8
#     4  11  23  40  66  97 126 172 227 272 333 398
#     4  12  24  48  72 106 136 200 228 282 368 448
#     4  11  24  42  66 102 135 180 223 289 337 417
#     4  11  24  43  71  97 139 179 237 279 348 419
#     4  11  23  41  63  98 132 174 219 283 334 402
#
# _framework density 21.989972999999999
#
# number of rings (size 3 to 8) (size 9 to 14) (size 15 to 20)
#    0.000    0.941    4.706    2.118    3.294    0.000 
#    0.000    0.000    0.000    1.412    0.000    0.000 
#    0.000    0.000    0.000    0.000    0.000    0.000 
#
# Total GULP energy -189349.448560 kJ/mol
# GULP energy per Si atom -5569.101428 kJ/mol
# Density = 2.193992 g / cm^3
# Si number density = 21.989973 Si / 1000 Ang^3
#
#
#
# Elastic Constant Matrix: (Units=GPa)
#
#
# Indices 1 2 3 4 5 6 
#
# 1 76.8672 8.2323 16.9718 0.0000 0.0000 0.0000
# 2 8.2323 76.8672 16.9718 0.0000 0.0000 0.0000
# 3 16.9718 16.9718 78.6304 0.0000 0.0000 0.0000
# 4 0.0000 0.0000 0.0000 17.5633 0.0000 0.0000
# 5 0.0000 0.0000 0.0000 0.0000 17.5633 0.0000
# 6 0.0000 0.0000 0.0000 0.0000 0.0000 23.9475
#
#
#
# Elastic Compliance Matrix: (Units=1/GPa)
#
#
# Indices 1 2 3 4 5 6 
#
# 1 0.013714 -0.000856 -0.002775 0.000000 0.000000 0.000000
# 2 -0.000856 0.013714 -0.002775 0.000000 0.000000 0.000000
# 3 -0.002775 -0.002775 0.013916 0.000000 0.000000 0.000000
# 4 0.000000 0.000000 0.000000 0.056937 0.000000 0.000000
# 5 0.000000 0.000000 0.000000 0.000000 0.056937 0.000000
# 6 0.000000 0.000000 0.000000 0.000000 0.000000 0.041758
#
#
# Mechanical properties :
#
#
# Convention : Reuss Voigt Hill
#
# Bulk Modulus (GPa) = 35.05021 35.19071 35.12046
# Shear Modulus (GPa) = 22.79998 24.49409 23.64704
#
# Velocity S-wave (km/s) = 3.22349 3.34110 3.28282
# Velocity P-wave (km/s) = 5.46153 5.56073 5.51135
#
# Compressibility (1/GPa) = 0.02853050
#
# Stress axis : x y z
#
# Youngs Moduli (GPa) = 72.91877 72.91877 71.86085
#
# Poissons Ratio (x) = 0.06242 0.19943
# Poissons Ratio (y) = 0.06242 0.19943
# Poissons Ratio (z) = 0.20237 0.20237
#
# Static dielectric constant tensor:
#      x y z
#    x 1.843670 0.000000 0.000000 
#    y 0.000000 1.843670 0.000000 
#    z 0.000000 0.000000 1.901740 
# 
# From -- ./inp_files/675.got.cif
#   From: 2010.05.17/outbox.cif.g08.bks.cpg/sg114_1_cif.got.tgz:675.got - 2010.05.20 11:04:54.
