data_PCOD9556716
_publ_section_title
;
Structure prediction by ZEFSAII (Michael W. Deem and Ramdas Pophale) SiO2 
 PCOD9556716
Probable space group: P -4 M 2
;
_chemical_formula_sum "Si O2"
_cell_formula_units_Z 48
_cell_length_a 9.316467
_cell_length_b 9.316467
_cell_length_c 32.077842
_cell_angle_alpha 90.000000
_cell_angle_beta 90.000000
_cell_angle_gamma 90.000000
_cell_volume 2784.246253
_symmetry_space_group_name_H-M "P -4 M 2"
_symmetry_group_IT_number 115
_symmetry_cell_setting 'tetragonal'
loop_
_space_group_symop_operation_xyz
x,y,z
y,-x,-z
-x,-y,z
-y,x,-z
y,x,-z
-y,-x,-z
-x,y,z
x,-y,z
loop_
_atom_site_type_symbol
_atom_site_label
_atom_site_fract_x
_atom_site_fract_y
_atom_site_fract_z
Si Si1 0.834032 0.174999 0.046119
Si Si2 0.665179 0.824709 0.128142
Si Si3 0.827799 0.668109 0.463227
Si Si4 0.169634 0.327420 0.369064
Si Si5 0.668821 0.172513 0.294517
Si Si6 0.834847 0.174898 0.210658
O O1 0.738933 0.221860 0.085046
O O2 0.000000 0.219275 0.051816
O O3 0.834079 0.000000 0.045478
O O4 0.781749 0.218252 0.000000
O O5 0.500000 0.779810 0.130881
O O6 0.754843 0.778290 0.168576
O O7 0.666977 0.000000 0.128067
O O8 0.755695 0.755695 0.500000
O O9 0.790832 0.500000 0.467425
O O10 0.786913 0.714504 0.416252
O O11 0.000000 0.679907 0.465721
O O12 0.184857 0.500000 0.365953
O O13 0.260584 0.248941 0.334019
O O14 0.000000 0.294840 0.363869
O O15 0.500000 0.204198 0.291429
O O16 0.749896 0.217713 0.252196
O O17 0.684888 0.000000 0.298558
O O18 0.000000 0.222204 0.211681
O O19 0.835129 0.000000 0.210061
#
# Coordination Sequence:
#
# PCOD9556716 Si02
#       6
#     8   8   8   8   8   8
#     4   8  13  21  33  50  74 105 140 175 212 261
#     4   9  15  22  34  55  84 114 143 181 230 277
#     4   9  19  35  53  74 100 128 160 199 241 286
#     4   9  19  36  54  71  95 129 166 201 238 284
#     4  10  20  32  47  71 101 129 160 201 246 290
#     4   9  16  26  41  61  88 123 158 191 233 285
#
# _framework density 17.239853
#
# number of rings (size 3 to 8) (size 9 to 14) (size 15 to 20)
#    0.000    3.000    0.000    3.000    0.000    7.000 
#    0.000    5.000    0.000    0.000    0.000    1.167 
#    0.000    7.000    0.000    0.000    0.000    0.000 
#
# Total GULP energy -267493.433156 kJ/mol
# GULP energy per Si atom -5572.779857 kJ/mol
# Density = 1.720061 g / cm^3
# Si number density = 17.239853 Si / 1000 Ang^3
#
#
#
# Elastic Constant Matrix: (Units=GPa)
#
#
# Indices 1 2 3 4 5 6 
#
# 1 56.3409 32.6072 72.5185 0.0000 0.0000 0.0000
# 2 32.6072 56.3407 72.5184 0.0000 0.0000 0.0000
# 3 72.5185 72.5184 205.3840 0.0000 0.0000 0.0000
# 4 0.0000 0.0000 0.0000 -16.1857 0.0000 0.0000
# 5 0.0000 0.0000 0.0000 0.0000 -16.1859 0.0000
# 6 0.0000 0.0000 0.0000 0.0000 0.0000 16.6947
#
#
#
# Elastic Compliance Matrix: (Units=1/GPa)
#
#
# Indices 1 2 3 4 5 6 
#
# 1 0.034317 -0.007818 -0.009356 0.000000 0.000000 0.000000
# 2 -0.007818 0.034317 -0.009356 0.000000 0.000000 0.000000
# 3 -0.009356 -0.009356 0.011476 0.000000 0.000000 0.000000
# 4 0.000000 0.000000 0.000000 -0.061783 0.000000 0.000000
# 5 0.000000 0.000000 0.000000 0.000000 -0.061782 0.000000
# 6 0.000000 0.000000 0.000000 0.000000 0.000000 0.059899
#
#
# Mechanical properties :
#
#
# Convention : Reuss Voigt Hill
#
# Bulk Modulus (GPa) = 36.97080 74.81707 55.89393
# Shear Modulus (GPa) = 63.67725 6.22605 34.95165
#
# Velocity S-wave (km/s) = 6.08410 1.90244 4.50752
# Velocity P-wave (km/s) = 8.41704 6.95109 7.71894
#
# Compressibility (1/GPa) = 0.02704838
#
# Stress axis : x y z
#
# Youngs Moduli (GPa) = 29.14042 29.14031 87.13676
#
# Poissons Ratio (x) = 0.22781 0.81529
# Poissons Ratio (y) = 0.22781 0.81529
# Poissons Ratio (z) = 0.27265 0.27265
#
# Static dielectric constant tensor:
#      x y z
#    x 1.568510 0.000000 0.000000 
#    y 0.000000 1.568510 0.000000 
#    z 0.000000 0.000000 1.579820 
# 
# From -- ./inp_files/6095.got.cif
#   From: 2010.05.17/outbox.cif.g08.bks.cpg/sg115_4_cif.got.tgz:6095.got - 2010.05.20 11:07:42.
