data_PCOD9556822
_publ_section_title
;
Structure prediction by ZEFSAII (Michael W. Deem and Ramdas Pophale) SiO2 
 PCOD9556822
Probable space group: P -4 M 2
;
_chemical_formula_sum "Si O2"
_cell_formula_units_Z 48
_cell_length_a 9.257821
_cell_length_b 9.257821
_cell_length_c 32.252570
_cell_angle_alpha 90.000000
_cell_angle_beta 90.000000
_cell_angle_gamma 90.000000
_cell_volume 2764.279069
_symmetry_space_group_name_H-M "P -4 M 2"
_symmetry_group_IT_number 115
_symmetry_cell_setting 'tetragonal'
loop_
_space_group_symop_operation_xyz
x,y,z
y,-x,-z
-x,-y,z
-y,x,-z
y,x,-z
-y,-x,-z
-x,y,z
x,-y,z
loop_
_atom_site_type_symbol
_atom_site_label
_atom_site_fract_x
_atom_site_fract_y
_atom_site_fract_z
Si Si1 0.830423 0.327082 0.128455
Si Si2 0.671164 0.672567 0.212775
Si Si3 0.829135 0.826974 0.711480
Si Si4 0.832820 0.176058 0.954620
Si Si5 0.167168 0.176205 0.545820
Si Si6 0.665651 0.176005 0.627637
O O1 0.820749 0.500000 0.124492
O O2 0.741107 0.282980 0.168904
O O3 0.779144 0.255510 0.085700
O O4 0.000000 0.289908 0.134478
O O5 0.500000 0.697460 0.212511
O O6 0.696340 0.500000 0.217594
O O7 0.746382 0.755409 0.250335
O O8 0.755958 0.781641 0.668135
O O9 0.000000 0.800081 0.710199
O O10 0.807243 0.000000 0.716113
O O11 0.000000 0.219415 0.950108
O O12 0.829823 0.000000 0.956009
O O13 0.777090 0.222911 0.000000
O O14 0.220075 0.220075 0.500000
O O15 0.261321 0.224449 0.584751
O O16 0.000000 0.220120 0.551260
O O17 0.167834 0.000000 0.545181
O O18 0.500000 0.223009 0.630891
O O19 0.666780 0.000000 0.626756
#
# Coordination Sequence:
#
# PCOD9556822 Si02
#       6
#     8   8   8   8   8   8
#     4   9  17  30  49  71  94 122 158 198 237 281
#     4  10  21  36  52  70  96 130 164 199 243 294
#     4  10  20  33  51  75 100 126 160 203 247 291
#     4   8  14  26  45  68  93 121 153 190 233 280
#     4   8  13  22  38  61  89 120 153 190 233 279
#     4   9  16  26  43  68  96 124 156 196 239 283
#
# _framework density 17.364381999999999
#
# number of rings (size 3 to 8) (size 9 to 14) (size 15 to 20)
#    0.000    3.000    0.000    2.500    0.000    4.667 
#    0.000    2.500    0.000    2.000    0.000    2.333 
#    0.000    0.000    0.000    0.000    0.000    0.000 
#
# Total GULP energy -267469.635932 kJ/mol
# GULP energy per Si atom -5572.284082 kJ/mol
# Density = 1.732486 g / cm^3
# Si number density = 17.364382 Si / 1000 Ang^3
#
#
#
# Elastic Constant Matrix: (Units=GPa)
#
#
# Indices 1 2 3 4 5 6 
#
# 1 47.6817 40.7815 74.8512 0.0000 0.0000 0.0000
# 2 40.7815 47.6815 74.8512 0.0000 0.0000 0.0000
# 3 74.8512 74.8512 223.3424 0.0000 0.0000 0.0000
# 4 0.0000 0.0000 0.0000 -16.2651 0.0000 0.0000
# 5 0.0000 0.0000 0.0000 0.0000 -16.2654 0.0000
# 6 0.0000 0.0000 0.0000 0.0000 0.0000 13.6203
#
#
#
# Elastic Compliance Matrix: (Units=1/GPa)
#
#
# Indices 1 2 3 4 5 6 
#
# 1 0.085520 -0.059405 -0.008752 0.000000 0.000000 0.000000
# 2 -0.059405 0.085520 -0.008752 0.000000 0.000000 0.000000
# 3 -0.008752 -0.008752 0.010344 0.000000 0.000000 0.000000
# 4 0.000000 0.000000 0.000000 -0.061481 0.000000 0.000000
# 5 0.000000 0.000000 0.000000 0.000000 -0.061480 0.000000
# 6 0.000000 0.000000 0.000000 0.000000 0.000000 0.073420
#
#
# Mechanical properties :
#
#
# Convention : Reuss Voigt Hill
#
# Bulk Modulus (GPa) = 36.27744 77.74147 57.00946
# Shear Modulus (GPa) = 16.95779 4.76608 10.86194
#
# Velocity S-wave (km/s) = 3.12843 1.65853 2.50377
# Velocity P-wave (km/s) = 5.82980 6.96674 6.42348
#
# Compressibility (1/GPa) = 0.02756534
#
# Stress axis : x y z
#
# Youngs Moduli (GPa) = 11.69318 11.69312 96.67490
#
# Poissons Ratio (x) = 0.69463 0.84612
# Poissons Ratio (y) = 0.69463 0.84614
# Poissons Ratio (z) = 0.10234 0.10234
#
# Static dielectric constant tensor:
#      x y z
#    x 1.577900 0.000000 0.000000 
#    y 0.000000 1.577900 0.000000 
#    z 0.000000 0.000000 1.588430 
# 
# From -- ./inp_files/6023.got.cif
#   From: 2010.05.17/outbox.cif.g08.bks.cpg/sg115_4_cif.got.tgz:6023.got - 2010.05.20 11:07:42.
