data_PCOD9556700
_publ_section_title
;
Structure prediction by ZEFSAII (Michael W. Deem and Ramdas Pophale) SiO2 
 PCOD9556700
Probable space group: P -4 M 2
;
_chemical_formula_sum "Si O2"
_cell_formula_units_Z 56
_cell_length_a 14.323351
_cell_length_b 14.323351
_cell_length_c 16.178616
_cell_angle_alpha 90.000000
_cell_angle_beta 90.000000
_cell_angle_gamma 90.000000
_cell_volume 3319.178712
_symmetry_space_group_name_H-M "P -4 M 2"
_symmetry_group_IT_number 115
_symmetry_cell_setting 'tetragonal'
loop_
_space_group_symop_operation_xyz
x,y,z
y,-x,-z
-x,-y,z
-y,x,-z
y,x,-z
-y,-x,-z
-x,y,z
x,-y,z
loop_
_atom_site_type_symbol
_atom_site_label
_atom_site_fract_x
_atom_site_fract_y
_atom_site_fract_z
Si Si1 0.388496 0.706833 0.077525
Si Si2 0.292153 0.612917 0.420885
Si Si3 0.388783 0.107527 0.159738
Si Si4 0.390592 0.612572 0.251936
Si Si5 0.387738 0.106085 0.499190
Si Si6 0.113399 0.709221 0.671549
Si Si7 0.105371 0.113758 0.406028
O O1 0.500000 0.693571 0.067077
O O2 0.369420 0.816846 0.089450
O O3 0.362817 0.657082 0.164367
O O4 0.336426 0.663574 0.000000
O O5 0.346782 0.653219 0.500000
O O6 0.299936 0.500000 0.423736
O O7 0.333355 0.643646 0.332807
O O8 0.183664 0.638716 0.433977
O O9 0.500000 0.109524 0.175689
O O10 0.338058 0.140548 0.243207
O O11 0.363235 0.000000 0.141167
O O12 0.500000 0.635229 0.265738
O O13 0.382662 0.500000 0.245485
O O14 0.500000 0.103913 0.494214
O O15 0.348721 0.137700 0.410380
O O16 0.355104 0.000000 0.515615
O O17 0.144757 0.815243 0.656963
O O18 0.000000 0.708976 0.673003
O O19 0.135987 0.135987 0.500000
O O20 0.000000 0.146651 0.391016
O O21 0.102465 0.000000 0.404571
#
# Coordination Sequence:
#
# PCOD9556700 Si02
#       7
#     8   8   8   8   8   8   8
#     4  10  20  34  56  81 103 128 160 204 258 313
#     4  10  20  31  46  68  98 136 170 201 243 299
#     4   9  18  32  51  76 103 129 161 207 258 304
#     4   9  18  32  49  72 101 128 159 201 247 301
#     4   9  18  31  46  65  91 127 172 215 249 287
#     4   9  16  27  44  66  92 124 164 210 255 290
#     4   8  14  25  40  59  87 125 168 211 253 293
#
# _framework density 16.871644
#
# number of rings (size 3 to 8) (size 9 to 14) (size 15 to 20)
#    0.000    2.857    0.000    1.714    2.000    3.714 
#    0.000    0.000    0.000    1.714    0.000    4.000 
#    0.000    0.000    0.000    0.000    0.000    0.000 
#
# Total GULP energy -312336.737962 kJ/mol
# GULP energy per Si atom -5577.441749 kJ/mol
# Density = 1.683324 g / cm^3
# Si number density = 16.871644 Si / 1000 Ang^3
#
#
#
# Elastic Constant Matrix: (Units=GPa)
#
#
# Indices 1 2 3 4 5 6 
#
# 1 62.5905 37.1631 59.9333 0.0000 0.0000 0.0000
# 2 37.1631 62.5934 59.9331 0.0000 0.0000 0.0000
# 3 59.9333 59.9331 126.9652 0.0000 0.0000 0.0000
# 4 0.0000 0.0000 0.0000 25.3291 0.0000 0.0000
# 5 0.0000 0.0000 0.0000 0.0000 25.3289 0.0000
# 6 0.0000 0.0000 0.0000 0.0000 0.0000 9.6295
#
#
#
# Elastic Compliance Matrix: (Units=1/GPa)
#
#
# Indices 1 2 3 4 5 6 
#
# 1 0.031245 -0.008081 -0.010934 0.000000 0.000000 0.000000
# 2 -0.008081 0.031243 -0.010933 0.000000 0.000000 0.000000
# 3 -0.010934 -0.010933 0.018199 0.000000 0.000000 0.000000
# 4 0.000000 0.000000 0.000000 0.039480 0.000000 0.000000
# 5 0.000000 0.000000 0.000000 0.000000 0.039481 0.000000
# 6 0.000000 0.000000 0.000000 0.000000 0.000000 0.103847
#
#
# Mechanical properties :
#
#
# Convention : Reuss Voigt Hill
#
# Bulk Modulus (GPa) = 48.10285 62.91202 55.50743
# Shear Modulus (GPa) = 15.13673 18.39881 16.76777
#
# Velocity S-wave (km/s) = 2.99853 3.30588 3.15595
# Velocity P-wave (km/s) = 6.36877 7.20703 6.80083
#
# Compressibility (1/GPa) = 0.02078879
#
# Stress axis : x y z
#
# Youngs Moduli (GPa) = 32.00467 32.00749 54.94915
#
# Poissons Ratio (x) = 0.25866 0.60084
# Poissons Ratio (y) = 0.25864 0.60077
# Poissons Ratio (z) = 0.34995 0.34994
#
# Static dielectric constant tensor:
#      x y z
#    x 1.608040 0.000000 0.000000 
#    y 0.000000 1.608040 0.000000 
#    z 0.000000 0.000000 1.528100 
# 
# From -- ./inp_files/3779.got.cif
#   From: 2010.05.17/outbox.cif.g08.bks.cpg/sg115_2_cif.got.tgz:3779.got - 2010.05.20 11:07:42.
