data_PCOD9556270
_publ_section_title
;
Structure prediction by ZEFSAII (Michael W. Deem and Ramdas Pophale) SiO2 
 PCOD9556270
Probable space group: P -4 21 C
;
_chemical_formula_sum "Si O2"
_cell_formula_units_Z 20
_cell_length_a 9.791921
_cell_length_b 9.791921
_cell_length_c 8.286223
_cell_angle_alpha 90.000000
_cell_angle_beta 90.000000
_cell_angle_gamma 90.000000
_cell_volume 794.497288
_symmetry_space_group_name_H-M "P -4 21 C"
_symmetry_group_IT_number 114
_symmetry_cell_setting 'tetragonal'
loop_
_space_group_symop_operation_xyz
x,y,z
y,-x,-z
-x,-y,z
-y,x,-z
1/2+x,1/2-y,1/2-z
1/2-x,1/2+y,1/2-z
1/2-y,1/2-x,1/2+z
1/2+y,1/2+x,1/2+z
loop_
_atom_site_type_symbol
_atom_site_label
_atom_site_fract_x
_atom_site_fract_y
_atom_site_fract_z
Si Si1 0.926878 0.235011 0.759596
Si Si2 0.239721 0.320569 0.446697
Si Si3 0.000000 0.500000 0.899916
O O1 0.833711 0.206419 0.605838
O O2 0.913199 0.397625 0.790637
O O3 0.087546 0.208845 0.792581
O O4 0.848510 0.170167 0.912264
O O5 0.100820 0.399313 0.493240
#
# Coordination Sequence:
#
# PCOD9556270 Si02
#       3
#     8   8   4
#     4  10  24  42  70  96 134 183 224 283 344 405
#     4  10  24  42  70  96 134 183 224 283 344 405
#     4   8  24  42  68  90 148 162 236 282 356 370
#
# _framework density 25.173148999999999
#
# number of rings (size 3 to 8) (size 9 to 14) (size 15 to 20)
#    2.400    0.000    0.000    0.000   11.200    4.000 
#    0.000    0.000    0.000    0.000    0.000    0.000 
#    0.000    0.000    0.000    0.000    0.000    0.000 
#
# Total GULP energy -111506.055195 kJ/mol
# GULP energy per Si atom -5575.302760 kJ/mol
# Density = 2.511585 g / cm^3
# Si number density = 25.173149 Si / 1000 Ang^3
#
#
#
# Elastic Constant Matrix: (Units=GPa)
#
#
# Indices 1 2 3 4 5 6 
#
# 1 83.2950 29.7372 5.7834 0.0000 0.0000 0.0000
# 2 29.7372 83.2950 5.7834 0.0000 0.0000 0.0000
# 3 5.7834 5.7834 59.1239 0.0000 0.0000 0.0000
# 4 0.0000 0.0000 0.0000 33.8752 0.0000 0.0000
# 5 0.0000 0.0000 0.0000 0.0000 33.8752 0.0000
# 6 0.0000 0.0000 0.0000 0.0000 0.0000 45.8784
#
#
#
# Elastic Compliance Matrix: (Units=1/GPa)
#
#
# Indices 1 2 3 4 5 6 
#
# 1 0.013804 -0.004867 -0.000874 0.000000 0.000000 0.000000
# 2 -0.004867 0.013804 -0.000874 0.000000 0.000000 0.000000
# 3 -0.000874 -0.000874 0.017085 0.000000 0.000000 0.000000
# 4 0.000000 0.000000 0.000000 0.029520 0.000000 0.000000
# 5 0.000000 0.000000 0.000000 0.000000 0.029520 0.000000
# 6 0.000000 0.000000 0.000000 0.000000 0.000000 0.021797
#
#
# Mechanical properties :
#
#
# Convention : Reuss Voigt Hill
#
# Bulk Modulus (GPa) = 31.78537 34.25800 33.02169
# Shear Modulus (GPa) = 33.50125 35.01974 34.26050
#
# Velocity S-wave (km/s) = 3.65202 3.73386 3.69317
# Velocity P-wave (km/s) = 5.51698 5.67693 5.59752
#
# Compressibility (1/GPa) = 0.03146101
#
# Stress axis : x y z
#
# Youngs Moduli (GPa) = 72.44306 72.44306 58.53207
#
# Poissons Ratio (x) = 0.35261 0.05117
# Poissons Ratio (y) = 0.35261 0.05117
# Poissons Ratio (z) = 0.06333 0.06333
#
# Static dielectric constant tensor:
#      x y z
#    x 2.010850 0.000000 0.000000 
#    y 0.000000 2.010850 0.000000 
#    z 0.000000 0.000000 2.056280 
# 
# From -- ./inp_files/415.got.cif
#   From: 2010.05.17/outbox.cif.g08.bks.cpg/sg114_1_cif.got.tgz:415.got - 2010.05.20 11:04:54.
