data_PCOD9556142
_publ_section_title
;
Structure prediction by ZEFSAII (Michael W. Deem and Ramdas Pophale) SiO2 
 PCOD9556142
Probable space group: P -4 21 C
;
_chemical_formula_sum "Si O2"
_cell_formula_units_Z 56
_cell_length_a 11.618099
_cell_length_b 11.618099
_cell_length_c 21.196189
_cell_angle_alpha 90.000000
_cell_angle_beta 90.000000
_cell_angle_gamma 90.000000
_cell_volume 2861.066347
_symmetry_space_group_name_H-M "P -4 21 C"
_symmetry_group_IT_number 114
_symmetry_cell_setting 'tetragonal'
loop_
_space_group_symop_operation_xyz
x,y,z
y,-x,-z
-x,-y,z
-y,x,-z
1/2+x,1/2-y,1/2-z
1/2-x,1/2+y,1/2-z
1/2-y,1/2-x,1/2+z
1/2+y,1/2+x,1/2+z
loop_
_atom_site_type_symbol
_atom_site_label
_atom_site_fract_x
_atom_site_fract_y
_atom_site_fract_z
Si Si1 0.259702 0.813673 0.884033
Si Si2 0.543851 0.156787 0.112494
Si Si3 0.391455 0.581063 0.102489
Si Si4 0.871809 0.269909 0.490913
Si Si5 0.545174 0.875446 0.411073
Si Si6 0.197219 0.495163 0.189898
Si Si7 0.550454 0.827462 0.665328
O O1 0.277024 0.722842 0.941764
O O2 0.362400 0.807738 0.832633
O O3 0.135618 0.774185 0.857351
O O4 0.283003 0.943543 0.906385
O O5 0.586874 0.285767 0.117733
O O6 0.470013 0.163594 0.048264
O O7 0.445074 0.125704 0.163284
O O8 0.640462 0.058483 0.120313
O O9 0.500000 0.500000 0.098629
O O10 0.315012 0.536417 0.159548
O O11 0.327125 0.575149 0.035365
O O12 0.824862 0.359872 0.542030
O O13 0.604413 0.920902 0.345729
O O14 0.500000 0.000000 0.436031
O O15 0.191147 0.506875 0.264283
#
# Coordination Sequence:
#
# PCOD9556142 Si02
#       7
#     8   8   8   8   8   8   8
#     4  10  22  39  63  95 123 172 221 266 332 392
#     4  10  24  37  63  98 126 180 217 268 342 394
#     4  11  24  39  64 100 139 165 212 282 350 395
#     4  10  23  37  61 102 129 164 212 274 334 410
#     4   9  21  37  64  90 128 164 220 266 334 402
#     4  10  23  41  61  95 124 176 219 278 327 394
#     4  10  23  40  64  90 132 169 232 269 315 414
#
# _framework density 19.573122000000001
#
# number of rings (size 3 to 8) (size 9 to 14) (size 15 to 20)
#    0.000    2.000    0.000    1.714   20.000    0.000 
#    0.000    0.000    0.000    3.857    0.000    0.000 
#    0.000    0.000    0.000    0.000    0.000    0.000 
#
# Total GULP energy -312137.825716 kJ/mol
# GULP energy per Si atom -5573.889745 kJ/mol
# Density = 1.952857 g / cm^3
# Si number density = 19.573122 Si / 1000 Ang^3
#
#
#
# Elastic Constant Matrix: (Units=GPa)
#
#
# Indices 1 2 3 4 5 6 
#
# 1 110.0191 65.4607 52.2871 0.0000 0.0000 0.0000
# 2 65.4607 110.0191 52.2871 0.0000 0.0000 0.0000
# 3 52.2871 52.2871 73.5887 0.0000 0.0000 0.0000
# 4 0.0000 0.0000 0.0000 111.1760 0.0000 0.0000
# 5 0.0000 0.0000 0.0000 0.0000 111.1760 0.0000
# 6 0.0000 0.0000 0.0000 0.0000 0.0000 47.2110
#
#
#
# Elastic Compliance Matrix: (Units=1/GPa)
#
#
# Indices 1 2 3 4 5 6 
#
# 1 0.016163 -0.006279 -0.007023 0.000000 0.000000 0.000000
# 2 -0.006279 0.016163 -0.007023 0.000000 0.000000 0.000000
# 3 -0.007023 -0.007023 0.023569 0.000000 0.000000 0.000000
# 4 0.000000 0.000000 0.000000 0.008995 0.000000 0.000000
# 5 0.000000 0.000000 0.000000 0.000000 0.008995 0.000000
# 6 0.000000 0.000000 0.000000 0.000000 0.000000 0.021182
#
#
# Mechanical properties :
#
#
# Convention : Reuss Voigt Hill
#
# Bulk Modulus (GPa) = 65.59359 70.41076 68.00218
# Shear Modulus (GPa) = 35.51202 62.15207 48.83204
#
# Velocity S-wave (km/s) = 4.26411 5.64116 5.00027
# Velocity P-wave (km/s) = 7.60450 8.85898 8.25560
#
# Compressibility (1/GPa) = 0.01524539
#
# Stress axis : x y z
#
# Youngs Moduli (GPa) = 61.86930 61.86930 42.42902
#
# Poissons Ratio (x) = 0.38850 0.29797
# Poissons Ratio (y) = 0.38850 0.29797
# Poissons Ratio (z) = 0.43449 0.43449
#
# Static dielectric constant tensor:
#      x y z
#    x 1.727660 0.000000 0.000000 
#    y 0.000000 1.727660 0.000000 
#    z 0.000000 0.000000 1.693760 
# 
# From -- ./inp_files/3137.got.cif
#   From: 2010.05.17/outbox.cif.g08.bks.cpg/sg114_2_cif.got.tgz:3137.got - 2010.05.20 11:04:54.
