data_PCOD9556573
_publ_section_title
;
Structure prediction by ZEFSAII (Michael W. Deem and Ramdas Pophale) SiO2 
 PCOD9556573
Probable space group: P -4 M 2
;
_chemical_formula_sum "Si O2"
_cell_formula_units_Z 48
_cell_length_a 13.942768
_cell_length_b 13.942768
_cell_length_c 16.247263
_cell_angle_alpha 90.000000
_cell_angle_beta 90.000000
_cell_angle_gamma 90.000000
_cell_volume 3158.480592
_symmetry_space_group_name_H-M "P -4 M 2"
_symmetry_group_IT_number 115
_symmetry_cell_setting 'tetragonal'
loop_
_space_group_symop_operation_xyz
x,y,z
y,-x,-z
-x,-y,z
-y,x,-z
y,x,-z
-y,-x,-z
-x,y,z
x,-y,z
loop_
_atom_site_type_symbol
_atom_site_label
_atom_site_fract_x
_atom_site_fract_y
_atom_site_fract_z
Si Si1 0.616307 0.891949 0.161482
Si Si2 0.279519 0.384269 0.424194
Si Si3 0.384406 0.703358 0.081660
Si Si4 0.615362 0.389349 0.743448
Si Si5 0.115847 0.608398 0.656214
Si Si6 0.885807 0.732290 0.495558
O O1 0.500000 0.896072 0.162851
O O2 0.643611 0.814353 0.094133
O O3 0.641249 0.854139 0.252937
O O4 0.652026 0.000000 0.148952
O O5 0.343562 0.343562 0.500000
O O6 0.272240 0.500000 0.429840
O O7 0.329038 0.358014 0.337371
O O8 0.176237 0.332809 0.432949
O O9 0.500000 0.696055 0.076442
O O10 0.355921 0.651769 0.167230
O O11 0.340785 0.659216 0.000000
O O12 0.500000 0.389597 0.746241
O O13 0.647719 0.500000 0.733001
O O14 0.150453 0.500000 0.638310
O O15 0.135213 0.680513 0.582904
O O16 0.000000 0.602171 0.662285
O O17 0.836470 0.836470 0.500000
O O18 0.000000 0.733395 0.481319
#
# Coordination Sequence:
#
# PCOD9556573 Si02
#       6
#     8   8   8   8   8   8
#     4   8  15  27  45  69  93 116 146 192 244 284
#     4  10  20  31  47  70  98 131 164 198 236 288
#     4  10  19  29  46  69  95 127 160 194 232 281
#     4   9  18  31  45  65  97 132 163 194 228 274
#     4   8  14  27  47  70  93 115 145 190 244 291
#     4  10  21  33  47  68  93 126 165 206 246 289
#
# _framework density 15.197179
#
# number of rings (size 3 to 8) (size 9 to 14) (size 15 to 20)
#    0.000    2.833    0.000    2.500    4.667    2.833 
#    0.000    0.000    0.000    1.000    0.000    2.333 
#    0.000    0.333    0.000    0.000    0.000    0.000 
#
# Total GULP energy -267406.064864 kJ/mol
# GULP energy per Si atom -5570.959685 kJ/mol
# Density = 1.516259 g / cm^3
# Si number density = 15.197179 Si / 1000 Ang^3
#
#
#
# Elastic Constant Matrix: (Units=GPa)
#
#
# Indices 1 2 3 4 5 6 
#
# 1 82.5973 35.5272 52.2434 0.0000 0.0000 0.0000
# 2 35.5272 82.5982 52.2441 0.0000 0.0000 0.0000
# 3 52.2434 52.2441 122.6406 0.0000 0.0000 0.0000
# 4 0.0000 0.0000 0.0000 20.5909 0.0000 0.0000
# 5 0.0000 0.0000 0.0000 0.0000 20.5906 0.0000
# 6 0.0000 0.0000 0.0000 0.0000 0.0000 18.0517
#
#
#
# Elastic Compliance Matrix: (Units=1/GPa)
#
#
# Indices 1 2 3 4 5 6 
#
# 1 0.017415 -0.003830 -0.005787 0.000000 0.000000 0.000000
# 2 -0.003830 0.017414 -0.005787 0.000000 0.000000 0.000000
# 3 -0.005787 -0.005787 0.013084 0.000000 0.000000 0.000000
# 4 0.000000 0.000000 0.000000 0.048565 0.000000 0.000000
# 5 0.000000 0.000000 0.000000 0.000000 0.048566 0.000000
# 6 0.000000 0.000000 0.000000 0.000000 0.000000 0.055396
#
#
# Mechanical properties :
#
#
# Convention : Reuss Voigt Hill
#
# Bulk Modulus (GPa) = 58.46034 63.09618 60.77826
# Shear Modulus (GPa) = 21.10149 21.70139 21.40144
#
# Velocity S-wave (km/s) = 3.73032 3.78297 3.75674
# Velocity P-wave (km/s) = 7.55679 7.79036 7.67446
#
# Compressibility (1/GPa) = 0.01710561
#
# Stress axis : x y z
#
# Youngs Moduli (GPa) = 57.42321 57.42346 76.42841
#
# Poissons Ratio (x) = 0.21994 0.44227
# Poissons Ratio (y) = 0.21994 0.44228
# Poissons Ratio (z) = 0.33229 0.33230
#
# Static dielectric constant tensor:
#      x y z
#    x 1.525870 0.000000 0.000000 
#    y 0.000000 1.525870 0.000000 
#    z 0.000000 0.000000 1.504400 
# 
# From -- ./inp_files/3721.got.cif
#   From: 2010.05.17/outbox.cif.g08.bks.cpg/sg115_2_cif.got.tgz:3721.got - 2010.05.20 11:07:42.
