data_PCOD9556302
_publ_section_title
;
Structure prediction by ZEFSAII (Michael W. Deem and Ramdas Pophale) SiO2 
 PCOD9556302
Probable space group: P -4 21 C
;
_chemical_formula_sum "Si O2"
_cell_formula_units_Z 32
_cell_length_a 9.856584
_cell_length_b 9.856584
_cell_length_c 12.730636
_cell_angle_alpha 90.000000
_cell_angle_beta 90.000000
_cell_angle_gamma 90.000000
_cell_volume 1236.809908
_symmetry_space_group_name_H-M "P -4 21 C"
_symmetry_group_IT_number 114
_symmetry_cell_setting 'tetragonal'
loop_
_space_group_symop_operation_xyz
x,y,z
y,-x,-z
-x,-y,z
-y,x,-z
1/2+x,1/2-y,1/2-z
1/2-x,1/2+y,1/2-z
1/2-y,1/2-x,1/2+z
1/2+y,1/2+x,1/2+z
loop_
_atom_site_type_symbol
_atom_site_label
_atom_site_fract_x
_atom_site_fract_y
_atom_site_fract_z
Si Si1 0.163497 0.365357 0.693496
Si Si2 0.251793 0.616984 0.592616
Si Si3 0.679390 0.611053 0.999329
Si Si4 0.722535 0.471392 0.355979
O O1 0.171729 0.524904 0.673189
O O2 0.107431 0.291859 0.588413
O O3 0.786950 0.226375 0.583354
O O4 0.059272 0.323773 0.783869
O O5 0.410058 0.611244 0.623125
O O6 0.228900 0.561299 0.474615
O O7 0.818158 0.824206 0.191462
O O8 0.655396 0.464256 0.949930
#
# Coordination Sequence:
#
# PCOD9556302 Si02
#       4
#     8   8   8   8
#     4  11  26  45  81 112 151 207 272 329 399 498
#     4  11  23  49  81 108 160 207 268 332 408 481
#     4  10  24  47  74 108 157 209 255 336 410 475
#     4  11  24  47  76 118 152 211 260 332 408 482
#
# _framework density 25.873014999999999
#
# number of rings (size 3 to 8) (size 9 to 14) (size 15 to 20)
#    0.000    1.250    5.000    0.750    3.500    3.000 
#    4.500    2.500    0.000    0.000    0.000    0.000 
#    0.000    0.000    0.000    0.000    0.000    0.000 
#
# Total GULP energy -178969.094556 kJ/mol
# GULP energy per Si atom -5592.784205 kJ/mol
# Density = 2.581413 g / cm^3
# Si number density = 25.873015 Si / 1000 Ang^3
#
#
#
# Elastic Constant Matrix: (Units=GPa)
#
#
# Indices 1 2 3 4 5 6 
#
# 1 108.0037 20.5785 18.2785 0.0000 0.0000 0.0000
# 2 20.5785 108.0037 18.2785 0.0000 0.0000 0.0000
# 3 18.2785 18.2785 103.8236 0.0000 0.0000 0.0000
# 4 0.0000 0.0000 0.0000 -1.9577 0.0000 0.0000
# 5 0.0000 0.0000 0.0000 0.0000 -1.9577 0.0000
# 6 0.0000 0.0000 0.0000 0.0000 0.0000 55.1866
#
#
#
# Elastic Compliance Matrix: (Units=1/GPa)
#
#
# Indices 1 2 3 4 5 6 
#
# 1 0.009813 -0.001626 -0.001441 0.000000 0.000000 0.000000
# 2 -0.001626 0.009813 -0.001441 0.000000 0.000000 0.000000
# 3 -0.001441 -0.001441 0.010139 0.000000 0.000000 0.000000
# 4 0.000000 0.000000 0.000000 -0.510802 0.000000 0.000000
# 5 0.000000 0.000000 0.000000 0.000000 -0.510802 0.000000
# 6 0.000000 0.000000 0.000000 0.000000 0.000000 0.018120
#
#
# Mechanical properties :
#
#
# Convention : Reuss Voigt Hill
#
# Bulk Modulus (GPa) = 48.19811 48.23357 48.21584
# Shear Modulus (GPa) = -5.22037 27.76728 11.27345
#
# Velocity S-wave (km/s) = -1.42200 3.27955 2.08966
# Velocity P-wave (km/s) = 3.99663 5.74661 4.94957
#
# Compressibility (1/GPa) = 0.02074770
#
# Stress axis : x y z
#
# Youngs Moduli (GPa) = 101.90952 101.90952 98.62687
#
# Poissons Ratio (x) = 0.16568 0.14215
# Poissons Ratio (y) = 0.16568 0.14215
# Poissons Ratio (z) = 0.14689 0.14689
#
# Static dielectric constant tensor:
#      x y z
#    x 2.280680 0.000000 0.000000 
#    y 0.000000 2.280680 0.000000 
#    z 0.000000 0.000000 2.025070 
# 
# From -- ./inp_files/1382.got.cif
#   From: 2010.05.17/outbox.cif.g08.bks.cpg/sg114_1_cif.got.tgz:1382.got - 2010.05.20 11:04:54.
