data_PCOD9556887
_publ_section_title
;
Structure prediction by ZEFSAII (Michael W. Deem and Ramdas Pophale) SiO2 
 PCOD9556887
Probable space group: P -4 M 2
;
_chemical_formula_sum "Si O2"
_cell_formula_units_Z 56
_cell_length_a 15.106309
_cell_length_b 15.106309
_cell_length_c 13.378017
_cell_angle_alpha 90.000000
_cell_angle_beta 90.000000
_cell_angle_gamma 90.000000
_cell_volume 3052.871126
_symmetry_space_group_name_H-M "P -4 M 2"
_symmetry_group_IT_number 115
_symmetry_cell_setting 'tetragonal'
loop_
_space_group_symop_operation_xyz
x,y,z
y,-x,-z
-x,-y,z
-y,x,-z
y,x,-z
-y,-x,-z
-x,y,z
x,-y,z
loop_
_atom_site_type_symbol
_atom_site_label
_atom_site_fract_x
_atom_site_fract_y
_atom_site_fract_z
Si Si1 0.404337 0.897636 0.925358
Si Si2 0.304699 0.775357 0.592203
Si Si3 0.250446 0.900937 0.765808
Si Si4 0.227086 0.333309 0.918983
Si Si5 0.604486 0.899465 0.442423
Si Si6 0.162300 0.897329 0.107121
Si Si7 0.737392 0.605831 0.697481
O O1 0.500000 0.887767 0.873678
O O2 0.321797 0.879456 0.853006
O O3 0.395646 0.000000 0.956770
O O4 0.400488 0.834060 0.019755
O O5 0.238673 0.761328 0.500000
O O6 0.261982 0.828943 0.681569
O O7 0.376336 0.839855 0.540985
O O8 0.323687 0.676255 0.635466
O O9 0.153097 0.896215 0.811665
O O10 0.270812 0.000000 0.730247
O O11 0.160542 0.251899 0.896289
O O12 0.264179 0.370468 0.814948
O O13 0.298755 0.298755 0.000000
O O14 0.500000 0.909683 0.436617
O O15 0.627093 0.835566 0.348152
O O16 0.643161 0.000000 0.443563
O O17 0.178286 0.000000 0.126021
O O18 0.115957 0.884044 0.000000
O O19 0.720347 0.500000 0.682408
#
# Coordination Sequence:
#
# PCOD9556887 Si02
#       7
#     8   8   8   8   8   8   8
#     4  10  20  33  51  78 110 141 176 222 277 334
#     4  10  20  37  55  78 109 145 185 234 290 344
#     4  11  21  36  53  76 108 142 185 233 277 338
#     4  11  19  34  53  77 113 150 191 230 276 339
#     4   9  19  35  57  86 115 145 187 240 301 362
#     4  11  21  34  53  74 104 146 190 233 277 328
#     4  10  20  35  56  82 113 150 192 236 288 349
#
# _framework density 18.343387
#
# number of rings (size 3 to 8) (size 9 to 14) (size 15 to 20)
#    0.000    1.714    4.286    1.714    0.000    2.714 
#    0.000    3.571    0.000    0.429    0.000    3.000 
#    0.000    3.714    0.000    0.000    0.000    0.000 
#
# Total GULP energy -311802.703530 kJ/mol
# GULP energy per Si atom -5567.905420 kJ/mol
# Density = 1.830164 g / cm^3
# Si number density = 18.343387 Si / 1000 Ang^3
#
#
#
# Elastic Constant Matrix: (Units=GPa)
#
#
# Indices 1 2 3 4 5 6 
#
# 1 68.1956 10.8814 22.3298 0.0000 0.0000 0.0000
# 2 10.8814 68.1957 22.3301 0.0000 0.0000 0.0000
# 3 22.3298 22.3301 90.1840 0.0000 0.0000 0.0000
# 4 0.0000 0.0000 0.0000 -14.0031 0.0000 0.0000
# 5 0.0000 0.0000 0.0000 0.0000 -14.0013 0.0000
# 6 0.0000 0.0000 0.0000 0.0000 0.0000 18.5982
#
#
#
# Elastic Compliance Matrix: (Units=1/GPa)
#
#
# Indices 1 2 3 4 5 6 
#
# 1 0.016075 -0.001373 -0.003640 0.000000 0.000000 0.000000
# 2 -0.001373 0.016075 -0.003640 0.000000 0.000000 0.000000
# 3 -0.003640 -0.003640 0.012891 0.000000 0.000000 0.000000
# 4 0.000000 0.000000 0.000000 -0.071413 0.000000 0.000000
# 5 0.000000 0.000000 0.000000 0.000000 -0.071422 0.000000
# 6 0.000000 0.000000 0.000000 0.000000 0.000000 0.053769
#
#
# Mechanical properties :
#
#
# Convention : Reuss Voigt Hill
#
# Bulk Modulus (GPa) = 36.05716 37.51755 36.78736
# Shear Modulus (GPa) = -286.12981 9.52105 -138.30438
#
# Velocity S-wave (km/s) = -12.50296 2.28073 -8.69259
# Velocity P-wave (km/s) = 13.73799 5.23765 8.98052
#
# Compressibility (1/GPa) = 0.02773375
#
# Stress axis : x y z
#
# Youngs Moduli (GPa) = 62.20955 62.20951 77.57289
#
# Poissons Ratio (x) = 0.08541 0.28238
# Poissons Ratio (y) = 0.08541 0.28238
# Poissons Ratio (z) = 0.22645 0.22646
#
# Static dielectric constant tensor:
#      x y z
#    x 1.677430 0.000000 0.000000 
#    y 0.000000 1.677440 0.000000 
#    z 0.000000 0.000000 1.635700 
# 
# From -- ./inp_files/3111.got.cif
#   From: 2010.05.17/outbox.cif.g08.bks.cpg/sg115_2_cif.got.tgz:3111.got - 2010.05.20 11:07:42.
