data_PCOD9556306
_publ_section_title
;
Structure prediction by ZEFSAII (Michael W. Deem and Ramdas Pophale) SiO2 
 PCOD9556306
Probable space group: P -4 21 C
;
_chemical_formula_sum "Si O2"
_cell_formula_units_Z 34
_cell_length_a 11.026841
_cell_length_b 11.026841
_cell_length_c 12.066903
_cell_angle_alpha 90.000000
_cell_angle_beta 90.000000
_cell_angle_gamma 90.000000
_cell_volume 1467.229487
_symmetry_space_group_name_H-M "P -4 21 C"
_symmetry_group_IT_number 114
_symmetry_cell_setting 'tetragonal'
loop_
_space_group_symop_operation_xyz
x,y,z
y,-x,-z
-x,-y,z
-y,x,-z
1/2+x,1/2-y,1/2-z
1/2-x,1/2+y,1/2-z
1/2-y,1/2-x,1/2+z
1/2+y,1/2+x,1/2+z
loop_
_atom_site_type_symbol
_atom_site_label
_atom_site_fract_x
_atom_site_fract_y
_atom_site_fract_z
Si Si1 0.000000 0.000000 0.000000
Si Si2 0.761220 0.817707 0.752822
Si Si3 0.245809 0.006008 0.142504
Si Si4 0.929143 0.394947 0.065126
Si Si5 0.317525 0.535371 0.963544
O O1 0.004727 0.882904 0.920393
O O2 0.635510 0.757096 0.707275
O O3 0.717116 0.892597 0.859287
O O4 0.804854 0.907868 0.656792
O O5 0.881889 0.742931 0.786343
O O6 0.345719 0.005376 0.044755
O O7 0.000000 0.500000 0.128813
O O8 0.809493 0.460948 0.022560
O O9 0.405188 0.621894 0.034995
#
# Coordination Sequence:
#
# PCOD9556306 Si02
#       5
#     2   8   8   8   8
#     4  12  24  48  76 108 158 200 264 336 384 472
#     4  11  25  48  78 110 152 210 252 320 396 465
#     4  11  26  49  76 114 155 203 261 323 390 477
#     4  11  26  47  73 111 153 195 250 320 377 465
#     4  10  24  48  73 107 147 190 252 311 371 458
#
# _framework density 23.172927000000001
#
# number of rings (size 3 to 8) (size 9 to 14) (size 15 to 20)
#    0.000    1.176    2.353    1.412    3.294    9.412 
#    8.471    0.000    0.000    0.000    0.000    0.000 
#    0.000    0.000    0.000    0.000    0.000    0.000 
#
# Total GULP energy -190225.416844 kJ/mol
# GULP energy per Si atom -5594.865201 kJ/mol
# Density = 2.312018 g / cm^3
# Si number density = 23.172927 Si / 1000 Ang^3
#
#
#
# Elastic Constant Matrix: (Units=GPa)
#
#
# Indices 1 2 3 4 5 6 
#
# 1 132.5987 49.0265 35.5889 0.0000 0.0000 0.0000
# 2 49.0265 132.5987 35.5889 0.0000 0.0000 0.0000
# 3 35.5889 35.5889 73.0860 0.0000 0.0000 0.0000
# 4 0.0000 0.0000 0.0000 24.9529 0.0000 0.0000
# 5 0.0000 0.0000 0.0000 0.0000 24.9529 0.0000
# 6 0.0000 0.0000 0.0000 0.0000 0.0000 18.7307
#
#
#
# Elastic Compliance Matrix: (Units=1/GPa)
#
#
# Indices 1 2 3 4 5 6 
#
# 1 0.009385 -0.002581 -0.003313 0.000000 0.000000 0.000000
# 2 -0.002581 0.009385 -0.003313 0.000000 0.000000 0.000000
# 3 -0.003313 -0.003313 0.016909 0.000000 0.000000 0.000000
# 4 0.000000 0.000000 0.000000 0.040075 0.000000 0.000000
# 5 0.000000 0.000000 0.000000 0.000000 0.040075 0.000000
# 6 0.000000 0.000000 0.000000 0.000000 0.000000 0.053388
#
#
# Mechanical properties :
#
#
# Convention : Reuss Voigt Hill
#
# Bulk Modulus (GPa) = 57.92184 64.29910 61.11047
# Shear Modulus (GPa) = 25.85475 28.26592 27.06034
#
# Velocity S-wave (km/s) = 3.34388 3.49633 3.42095
# Velocity P-wave (km/s) = 6.32127 6.64130 6.48326
#
# Compressibility (1/GPa) = 0.01726464
#
# Stress axis : x y z
#
# Youngs Moduli (GPa) = 106.55287 106.55287 59.13900
#
# Poissons Ratio (x) = 0.27498 0.19595
# Poissons Ratio (y) = 0.27498 0.19595
# Poissons Ratio (z) = 0.35304 0.35304
#
# Static dielectric constant tensor:
#      x y z
#    x 1.874780 0.000000 0.000000 
#    y 0.000000 1.874780 0.000000 
#    z 0.000000 0.000000 1.851980 
# 
# From -- ./inp_files/1480.got.cif
#   From: 2010.05.17/outbox.cif.g08.bks.cpg/sg114_1_cif.got.tgz:1480.got - 2010.05.20 11:04:54.
