data_PCOD9556093
_publ_section_title
;
Structure prediction by ZEFSAII (Michael W. Deem and Ramdas Pophale) SiO2 
 PCOD9556093
Probable space group: P -4 21 C
;
_chemical_formula_sum "Si O2"
_cell_formula_units_Z 48
_cell_length_a 15.337743
_cell_length_b 15.337743
_cell_length_c 10.562644
_cell_angle_alpha 90.000000
_cell_angle_beta 90.000000
_cell_angle_gamma 90.000000
_cell_volume 2484.823557
_symmetry_space_group_name_H-M "P -4 21 C"
_symmetry_group_IT_number 114
_symmetry_cell_setting 'tetragonal'
loop_
_space_group_symop_operation_xyz
x,y,z
y,-x,-z
-x,-y,z
-y,x,-z
1/2+x,1/2-y,1/2-z
1/2-x,1/2+y,1/2-z
1/2-y,1/2-x,1/2+z
1/2+y,1/2+x,1/2+z
loop_
_atom_site_type_symbol
_atom_site_label
_atom_site_fract_x
_atom_site_fract_y
_atom_site_fract_z
Si Si1 0.869791 0.562694 0.925665
Si Si2 0.230423 0.704810 0.977048
Si Si3 0.944455 0.376989 0.893749
Si Si4 0.874319 0.937039 0.475401
Si Si5 0.981086 0.737806 0.679831
Si Si6 0.203659 0.286762 0.769558
O O1 0.904526 0.472122 0.871702
O O2 0.818112 0.616297 0.819410
O O3 0.960351 0.613166 0.959023
O O4 0.810080 0.545260 0.048112
O O5 0.132020 0.671491 0.967629
O O6 0.248724 0.773006 0.863820
O O7 0.303424 0.627674 0.961172
O O8 0.245528 0.744210 0.114843
O O9 0.963020 0.328354 0.762747
O O10 0.968723 0.892498 0.459198
O O11 0.824952 0.965828 0.348176
O O12 0.891429 0.755940 0.751794
#
# Coordination Sequence:
#
# PCOD9556093 Si02
#       6
#     8   8   8   8   8   8
#     4  10  21  42  62  95 131 175 212 274 337 407
#     4  12  23  43  63 101 130 176 220 282 334 403
#     4  10  24  37  64  95 135 170 214 276 340 403
#     4  11  22  40  67  91 129 175 232 275 322 399
#     4  11  21  44  66  97 136 172 229 275 342 407
#     4  11  23  41  68  93 135 168 226 273 338 401
#
# _framework density 19.317267999999999
#
# number of rings (size 3 to 8) (size 9 to 14) (size 15 to 20)
#    0.000    1.167    5.000    1.000    0.000    5.333 
#    0.000    0.000    0.000    0.000    0.000    0.000 
#    5.000    0.000    0.000    0.000    0.000    0.000 
#
# Total GULP energy -267748.197070 kJ/mol
# GULP energy per Si atom -5578.087439 kJ/mol
# Density = 1.927330 g / cm^3
# Si number density = 19.317268 Si / 1000 Ang^3
#
#
#
# Elastic Constant Matrix: (Units=GPa)
#
#
# Indices 1 2 3 4 5 6 
#
# 1 86.5518 31.7944 24.2251 0.0000 0.0000 0.0000
# 2 31.7944 86.5518 24.2251 0.0000 0.0000 0.0000
# 3 24.2251 24.2251 55.3823 0.0000 0.0000 0.0000
# 4 0.0000 0.0000 0.0000 27.3352 0.0000 0.0000
# 5 0.0000 0.0000 0.0000 0.0000 27.3352 0.0000
# 6 0.0000 0.0000 0.0000 0.0000 0.0000 32.0858
#
#
#
# Elastic Compliance Matrix: (Units=1/GPa)
#
#
# Indices 1 2 3 4 5 6 
#
# 1 0.014278 -0.003985 -0.004502 0.000000 0.000000 0.000000
# 2 -0.003985 0.014278 -0.004502 0.000000 0.000000 0.000000
# 3 -0.004502 -0.004502 0.021995 0.000000 0.000000 0.000000
# 4 0.000000 0.000000 0.000000 0.036583 0.000000 0.000000
# 5 0.000000 0.000000 0.000000 0.000000 0.036583 0.000000
# 6 0.000000 0.000000 0.000000 0.000000 0.000000 0.031166
#
#
# Mechanical properties :
#
#
# Convention : Reuss Voigt Hill
#
# Bulk Modulus (GPa) = 40.69706 43.21948 41.95827
# Shear Modulus (GPa) = 26.44777 27.23401 26.84089
#
# Velocity S-wave (km/s) = 3.70418 3.75884 3.73161
# Velocity P-wave (km/s) = 6.27759 6.42344 6.35093
#
# Compressibility (1/GPa) = 0.02457180
#
# Stress axis : x y z
#
# Youngs Moduli (GPa) = 70.03937 70.03937 45.46462
#
# Poissons Ratio (x) = 0.27908 0.20470
# Poissons Ratio (y) = 0.27908 0.20470
# Poissons Ratio (z) = 0.31534 0.31534
#
# Static dielectric constant tensor:
#      x y z
#    x 1.719830 0.000000 0.000000 
#    y 0.000000 1.719830 0.000000 
#    z 0.000000 0.000000 1.647950 
# 
# From -- ./inp_files/1671.got.cif
#   From: 2010.05.17/outbox.cif.g08.bks.cpg/sg114_1_cif.got.tgz:1671.got - 2010.05.20 11:04:54.
