data_PCOD9556843
_publ_section_title
;
Structure prediction by ZEFSAII (Michael W. Deem and Ramdas Pophale) SiO2 
 PCOD9556843
Probable space group: P -4 M 2
;
_chemical_formula_sum "Si O2"
_cell_formula_units_Z 48
_cell_length_a 9.146042
_cell_length_b 9.146042
_cell_length_c 31.856048
_cell_angle_alpha 90.000000
_cell_angle_beta 90.000000
_cell_angle_gamma 90.000000
_cell_volume 2664.761100
_symmetry_space_group_name_H-M "P -4 M 2"
_symmetry_group_IT_number 115
_symmetry_cell_setting 'tetragonal'
loop_
_space_group_symop_operation_xyz
x,y,z
y,-x,-z
-x,-y,z
-y,x,-z
y,x,-z
-y,-x,-z
-x,y,z
x,-y,z
loop_
_atom_site_type_symbol
_atom_site_label
_atom_site_fract_x
_atom_site_fract_y
_atom_site_fract_z
Si Si1 0.324957 0.173246 0.381509
Si Si2 0.675134 0.329144 0.294393
Si Si3 0.177973 0.831298 0.876555
Si Si4 0.326054 0.825705 0.539720
Si Si5 0.823477 0.171338 0.216809
Si Si6 0.670927 0.175877 0.039029
O O1 0.500000 0.194603 0.387314
O O2 0.284757 0.240339 0.336350
O O3 0.239705 0.254562 0.418367
O O4 0.296202 0.000000 0.382490
O O5 0.500000 0.315671 0.289107
O O6 0.710286 0.500000 0.299861
O O7 0.753534 0.263563 0.253841
O O8 0.222287 0.779322 0.830096
O O9 0.225198 0.737729 0.916401
O O10 0.000000 0.830637 0.875760
O O11 0.223585 0.000000 0.882081
O O12 0.251639 0.748362 0.500000
O O13 0.500000 0.798483 0.539526
O O14 0.302755 0.000000 0.537523
O O15 0.000000 0.179347 0.218291
O O16 0.783155 0.000000 0.221643
O O17 0.500000 0.210170 0.037258
O O18 0.688160 0.000000 0.036787
O O19 0.753256 0.246745 0.000000
#
# Coordination Sequence:
#
# PCOD9556843 Si02
#       6
#     8   8   8   8   8   8
#     4  10  21  38  60  84 109 141 183 227 270 316
#     4  10  21  36  54  78 109 145 183 220 262 315
#     4   8  15  30  52  76 101 131 170 215 260 308
#     4  11  24  40  59  85 115 147 183 222 267 319
#     4   9  18  33  54  80 107 135 171 216 265 315
#     4  10  20  33  51  76 103 133 171 213 259 312
#
# _framework density 18.012871000000001
#
# number of rings (size 3 to 8) (size 9 to 14) (size 15 to 20)
#    0.000    2.333    0.000    3.500    0.000    8.000 
#    0.000    2.500    0.000    1.000    0.000    0.000 
#    0.000    0.000    0.000    0.000    0.000    0.000 
#
# Total GULP energy -267934.597338 kJ/mol
# GULP energy per Si atom -5581.970778 kJ/mol
# Density = 1.797187 g / cm^3
# Si number density = 18.012871 Si / 1000 Ang^3
#
#
#
# Elastic Constant Matrix: (Units=GPa)
#
#
# Indices 1 2 3 4 5 6 
#
# 1 66.3504 58.8766 75.8807 0.0000 0.0000 0.0000
# 2 58.8766 66.3549 75.8841 0.0000 0.0000 0.0000
# 3 75.8807 75.8841 188.8276 0.0000 0.0000 0.0000
# 4 0.0000 0.0000 0.0000 108.0688 0.0000 0.0000
# 5 0.0000 0.0000 0.0000 0.0000 108.0659 0.0000
# 6 0.0000 0.0000 0.0000 0.0000 0.0000 25.9801
#
#
#
# Elastic Compliance Matrix: (Units=1/GPa)
#
#
# Indices 1 2 3 4 5 6 
#
# 1 0.074666 -0.059097 -0.006255 0.000000 0.000000 0.000000
# 2 -0.059097 0.074662 -0.006256 0.000000 0.000000 0.000000
# 3 -0.006255 -0.006256 0.010324 0.000000 0.000000 0.000000
# 4 0.000000 0.000000 0.000000 0.009253 0.000000 0.000000
# 5 0.000000 0.000000 0.000000 0.000000 0.009254 0.000000
# 6 0.000000 0.000000 0.000000 0.000000 0.000000 0.038491
#
#
# Mechanical properties :
#
#
# Convention : Reuss Voigt Hill
#
# Bulk Modulus (GPa) = 60.84862 82.53509 71.69186
# Shear Modulus (GPa) = 13.68573 55.81571 34.75072
#
# Velocity S-wave (km/s) = 2.75939 5.57260 4.39705
# Velocity P-wave (km/s) = 6.63372 9.34477 8.10342
#
# Compressibility (1/GPa) = 0.01643423
#
# Stress axis : x y z
#
# Youngs Moduli (GPa) = 13.39304 13.39372 96.86607
#
# Poissons Ratio (x) = 0.79153 0.60591
# Poissons Ratio (y) = 0.79149 0.60599
# Poissons Ratio (z) = 0.08377 0.08379
#
# Static dielectric constant tensor:
#      x y z
#    x 1.600400 0.000000 0.000000 
#    y 0.000000 1.600400 0.000000 
#    z 0.000000 0.000000 1.597360 
# 
# From -- ./inp_files/6009.got.cif
#   From: 2010.05.17/outbox.cif.g08.bks.cpg/sg115_4_cif.got.tgz:6009.got - 2010.05.20 11:07:42.
