data_PCOD9556380
_publ_section_title
;
Structure prediction by ZEFSAII (Michael W. Deem and Ramdas Pophale) SiO2 
 PCOD9556380
Probable space group: P -4 21 C
;
_chemical_formula_sum "Si O2"
_cell_formula_units_Z 34
_cell_length_a 12.756431
_cell_length_b 12.756431
_cell_length_c 9.744736
_cell_angle_alpha 90.000000
_cell_angle_beta 90.000000
_cell_angle_gamma 90.000000
_cell_volume 1585.727093
_symmetry_space_group_name_H-M "P -4 21 C"
_symmetry_group_IT_number 114
_symmetry_cell_setting 'tetragonal'
loop_
_space_group_symop_operation_xyz
x,y,z
y,-x,-z
-x,-y,z
-y,x,-z
1/2+x,1/2-y,1/2-z
1/2-x,1/2+y,1/2-z
1/2-y,1/2-x,1/2+z
1/2+y,1/2+x,1/2+z
loop_
_atom_site_type_symbol
_atom_site_label
_atom_site_fract_x
_atom_site_fract_y
_atom_site_fract_z
Si Si1 0.795608 0.122612 0.598862
Si Si2 0.789950 0.445948 0.553723
Si Si3 0.461615 0.113725 0.167316
Si Si4 0.000000 0.000000 0.500000
Si Si5 0.317875 0.723517 0.408775
O O1 0.772021 0.200832 0.471991
O O2 0.796377 0.181273 0.745881
O O3 0.903168 0.057074 0.579580
O O4 0.693356 0.047899 0.608118
O O5 0.824049 0.413392 0.705283
O O6 0.881346 0.415837 0.450074
O O7 0.773745 0.569716 0.559158
O O8 0.691684 0.383599 0.494344
O O9 0.500000 0.000000 0.220939
#
# Coordination Sequence:
#
# PCOD9556380 Si02
#       5
#     8   8   8   2   8
#     4  11  26  46  75 104 150 196 254 306 388 451
#     4  11  24  40  67  98 142 181 247 303 373 442
#     4  11  22  42  70 103 135 190 244 308 360 444
#     4  12  28  52  76 118 160 200 244 326 392 452
#     4  11  25  44  67 107 139 198 243 312 371 456
#
# _framework density 21.441267
#
# number of rings (size 3 to 8) (size 9 to 14) (size 15 to 20)
#    0.000    0.941    2.353    3.529    3.294    8.000 
#    0.000    0.000    0.000    1.412    0.000    0.000 
#    0.000    0.000    0.000    0.000    0.000    0.000 
#
# Total GULP energy -189907.723590 kJ/mol
# GULP energy per Si atom -5585.521282 kJ/mol
# Density = 2.139247 g / cm^3
# Si number density = 21.441267 Si / 1000 Ang^3
#
#
#
# Elastic Constant Matrix: (Units=GPa)
#
#
# Indices 1 2 3 4 5 6 
#
# 1 108.0240 53.0844 48.9054 0.0000 0.0000 0.0000
# 2 53.0844 108.0240 48.9054 0.0000 0.0000 0.0000
# 3 48.9054 48.9054 132.1917 0.0000 0.0000 0.0000
# 4 0.0000 0.0000 0.0000 26.5923 0.0000 0.0000
# 5 0.0000 0.0000 0.0000 0.0000 26.5923 0.0000
# 6 0.0000 0.0000 0.0000 0.0000 0.0000 38.5004
#
#
#
# Elastic Compliance Matrix: (Units=1/GPa)
#
#
# Indices 1 2 3 4 5 6 
#
# 1 0.013103 -0.005098 -0.002962 0.000000 0.000000 0.000000
# 2 -0.005098 0.013103 -0.002962 0.000000 0.000000 0.000000
# 3 -0.002962 -0.002962 0.009756 0.000000 0.000000 0.000000
# 4 0.000000 0.000000 0.000000 0.037605 0.000000 0.000000
# 5 0.000000 0.000000 0.000000 0.000000 0.037605 0.000000
# 6 0.000000 0.000000 0.000000 0.000000 0.000000 0.025974
#
#
# Mechanical properties :
#
#
# Convention : Reuss Voigt Hill
#
# Bulk Modulus (GPa) = 71.83934 72.22560 72.03247
# Shear Modulus (GPa) = 30.51963 31.49332 31.00648
#
# Velocity S-wave (km/s) = 3.77690 3.83667 3.80690
# Velocity P-wave (km/s) = 7.25244 7.30652 7.27953
#
# Compressibility (1/GPa) = 0.01391995
#
# Stress axis : x y z
#
# Youngs Moduli (GPa) = 76.31618 76.31618 102.50067
#
# Poissons Ratio (x) = 0.38909 0.30356
# Poissons Ratio (y) = 0.38909 0.30356
# Poissons Ratio (z) = 0.22601 0.22601
#
# Static dielectric constant tensor:
#      x y z
#    x 1.810290 0.000000 0.000000 
#    y 0.000000 1.810290 0.000000 
#    z 0.000000 0.000000 1.775050 
# 
# From -- ./inp_files/1492.got.cif
#   From: 2010.05.17/outbox.cif.g08.bks.cpg/sg114_1_cif.got.tgz:1492.got - 2010.05.20 11:04:54.
