data_PCOD9556964
_publ_section_title
;
Structure prediction by ZEFSAII (Michael W. Deem and Ramdas Pophale) SiO2 
 PCOD9556964
Probable space group: P -4 M 2
;
_chemical_formula_sum "Si O2"
_cell_formula_units_Z 44
_cell_length_a 9.215023
_cell_length_b 9.215023
_cell_length_c 29.509042
_cell_angle_alpha 90.000000
_cell_angle_beta 90.000000
_cell_angle_gamma 90.000000
_cell_volume 2505.808959
_symmetry_space_group_name_H-M "P -4 M 2"
_symmetry_group_IT_number 115
_symmetry_cell_setting 'tetragonal'
loop_
_space_group_symop_operation_xyz
x,y,z
y,-x,-z
-x,-y,z
-y,x,-z
y,x,-z
-y,-x,-z
-x,y,z
x,-y,z
loop_
_atom_site_type_symbol
_atom_site_label
_atom_site_fract_x
_atom_site_fract_y
_atom_site_fract_z
Si Si1 0.323117 0.668032 0.049571
Si Si2 0.676674 0.166951 0.591741
Si Si3 0.670503 0.325179 0.316508
Si Si4 0.825465 0.829446 0.767094
Si Si5 0.329797 0.173884 0.140745
Si Si6 0.673013 0.326988 0.500000
O O1 0.500000 0.671327 0.048043
O O2 0.279814 0.500000 0.054420
O O3 0.278005 0.756100 0.093762
O O4 0.275869 0.724132 0.000000
O O5 0.500000 0.168519 0.591512
O O6 0.721585 0.254009 0.636524
O O7 0.721672 0.244058 0.545166
O O8 0.723908 0.000000 0.593718
O O9 0.500000 0.290782 0.317358
O O10 0.685217 0.500000 0.312944
O O11 0.747553 0.250939 0.274072
O O12 0.780807 0.760149 0.815182
O O13 0.000000 0.812376 0.763268
O O14 0.791827 0.000000 0.765820
O O15 0.500000 0.212196 0.147227
O O16 0.320963 0.000000 0.136873
O O17 0.500000 0.304773 0.493875
#
# Coordination Sequence:
#
# PCOD9556964 Si02
#       6
#     8   8   8   8   8   4
#     4   8  14  26  45  68  93 121 154 194 240 288
#     4   9  17  30  49  73 101 131 162 200 247 294
#     4  10  20  34  54  79 103 129 166 210 253 298
#     4  10  21  36  52  71  99 134 168 204 250 301
#     4   9  17  30  48  68  91 122 160 199 239 288
#     4   9  16  28  48  71  94 124 164 203 236 280
#
# _framework density 17.559201000000002
#
# number of rings (size 3 to 8) (size 9 to 14) (size 15 to 20)
#    0.000    2.818    0.000    2.182    0.000    5.091 
#    0.000    3.636    0.000    4.636    0.000    0.000 
#    0.000    0.000    0.000    0.000    0.000    0.000 
#
# Total GULP energy -245300.362940 kJ/mol
# GULP energy per Si atom -5575.008249 kJ/mol
# Density = 1.751923 g / cm^3
# Si number density = 17.559201 Si / 1000 Ang^3
#
#
#
# Elastic Constant Matrix: (Units=GPa)
#
#
# Indices 1 2 3 4 5 6 
#
# 1 57.4256 42.7791 78.6583 0.0000 0.0000 0.0000
# 2 42.7791 57.4259 78.6583 0.0000 0.0000 0.0000
# 3 78.6583 78.6583 228.4055 0.0000 0.0000 0.0000
# 4 0.0000 0.0000 0.0000 -28.3034 0.0000 0.0000
# 5 0.0000 0.0000 0.0000 0.0000 -28.3015 0.0000
# 6 0.0000 0.0000 0.0000 0.0000 0.0000 17.0906
#
#
#
# Elastic Compliance Matrix: (Units=1/GPa)
#
#
# Indices 1 2 3 4 5 6 
#
# 1 0.045001 -0.023275 -0.007482 0.000000 0.000000 0.000000
# 2 -0.023275 0.045000 -0.007482 0.000000 0.000000 0.000000
# 3 -0.007482 -0.007482 0.009531 0.000000 0.000000 0.000000
# 4 0.000000 0.000000 0.000000 -0.035331 0.000000 0.000000
# 5 0.000000 0.000000 0.000000 0.000000 -0.035334 0.000000
# 6 0.000000 0.000000 0.000000 0.000000 0.000000 0.058512
#
#
# Mechanical properties :
#
#
# Convention : Reuss Voigt Hill
#
# Bulk Modulus (GPa) = 43.37394 82.60538 62.98966
# Shear Modulus (GPa) = 29.14756 1.64122 15.39439
#
# Velocity S-wave (km/s) = 4.07868 0.96784 2.96415
# Velocity P-wave (km/s) = 6.85099 6.95665 6.90402
#
# Compressibility (1/GPa) = 0.02305532
#
# Stress axis : x y z
#
# Youngs Moduli (GPa) = 22.22189 22.22211 104.91599
#
# Poissons Ratio (x) = 0.51721 0.78498
# Poissons Ratio (y) = 0.51721 0.78497
# Poissons Ratio (z) = 0.16626 0.16626
#
# Static dielectric constant tensor:
#      x y z
#    x 1.587670 0.000000 0.000000 
#    y 0.000000 1.587670 0.000000 
#    z 0.000000 0.000000 1.585400 
# 
# From -- ./inp_files/5786.got.cif
#   From: 2010.05.17/outbox.cif.g08.bks.cpg/sg115_3_cif.got.tgz:5786.got - 2010.05.20 11:07:42.
