data_PCOD9556792
_publ_section_title
;
Structure prediction by ZEFSAII (Michael W. Deem and Ramdas Pophale) SiO2 
 PCOD9556792
Probable space group: P -4 M 2
;
_chemical_formula_sum "Si O2"
_cell_formula_units_Z 44
_cell_length_a 9.197559
_cell_length_b 9.197559
_cell_length_c 29.498356
_cell_angle_alpha 90.000000
_cell_angle_beta 90.000000
_cell_angle_gamma 90.000000
_cell_volume 2495.416127
_symmetry_space_group_name_H-M "P -4 M 2"
_symmetry_group_IT_number 115
_symmetry_cell_setting 'tetragonal'
loop_
_space_group_symop_operation_xyz
x,y,z
y,-x,-z
-x,-y,z
-y,x,-z
y,x,-z
-y,-x,-z
-x,y,z
x,-y,z
loop_
_atom_site_type_symbol
_atom_site_label
_atom_site_fract_x
_atom_site_fract_y
_atom_site_fract_z
Si Si1 0.168367 0.822607 0.050004
Si Si2 0.832710 0.322983 0.591828
Si Si3 0.674314 0.328121 0.316098
Si Si4 0.826051 0.827879 0.767909
Si Si5 0.333309 0.177177 0.140022
Si Si6 0.673346 0.326655 0.500000
O O1 0.261428 0.773934 0.092916
O O2 0.000000 0.778857 0.055728
O O3 0.169586 0.000000 0.049201
O O4 0.222113 0.777888 0.000000
O O5 0.830517 0.500000 0.591502
O O6 0.746584 0.278205 0.636841
O O7 0.755543 0.277345 0.545282
O O8 0.000000 0.276060 0.593678
O O9 0.500000 0.306469 0.311505
O O10 0.701749 0.500000 0.317855
O O11 0.753380 0.255324 0.273727
O O12 0.779796 0.757157 0.815667
O O13 0.000000 0.803953 0.762947
O O14 0.800400 0.000000 0.768693
O O15 0.500000 0.224017 0.143789
O O16 0.331488 0.000000 0.139054
O O17 0.500000 0.304257 0.505899
#
# Coordination Sequence:
#
# PCOD9556792 Si02
#       6
#     8   8   8   8   8   4
#     4   8  13  22  38  61  89 121 157 196 237 283
#     4   9  17  30  50  75 101 130 165 204 245 291
#     4  10  20  34  53  76 101 131 168 208 250 297
#     4  10  20  33  50  73 101 132 166 206 252 299
#     4   9  16  26  43  68  96 125 159 200 244 291
#     4   9  16  28  48  73 100 130 166 205 242 284
#
# _framework density 17.63233
#
# number of rings (size 3 to 8) (size 9 to 14) (size 15 to 20)
#    0.000    2.818    0.000    2.727    0.000    6.545 
#    0.000    0.909    0.000    4.636    0.000    2.545 
#    0.000    0.000    0.000    0.000    0.000    0.000 
#
# Total GULP energy -245306.544063 kJ/mol
# GULP energy per Si atom -5575.148729 kJ/mol
# Density = 1.759220 g / cm^3
# Si number density = 17.632330 Si / 1000 Ang^3
#
#
#
# Elastic Constant Matrix: (Units=GPa)
#
#
# Indices 1 2 3 4 5 6 
#
# 1 59.1115 49.3774 80.4837 0.0000 0.0000 0.0000
# 2 49.3774 59.1121 80.4837 0.0000 0.0000 0.0000
# 3 80.4837 80.4837 226.5001 0.0000 0.0000 0.0000
# 4 0.0000 0.0000 0.0000 35.3309 0.0000 0.0000
# 5 0.0000 0.0000 0.0000 0.0000 35.3316 0.0000
# 6 0.0000 0.0000 0.0000 0.0000 0.0000 14.0166
#
#
#
# Elastic Compliance Matrix: (Units=1/GPa)
#
#
# Indices 1 2 3 4 5 6 
#
# 1 0.061113 -0.041616 -0.006928 0.000000 0.000000 0.000000
# 2 -0.041616 0.061112 -0.006928 0.000000 0.000000 0.000000
# 3 -0.006928 -0.006928 0.009338 0.000000 0.000000 0.000000
# 4 0.000000 0.000000 0.000000 0.028304 0.000000 0.000000
# 5 0.000000 0.000000 0.000000 0.000000 0.028303 0.000000
# 6 0.000000 0.000000 0.000000 0.000000 0.000000 0.071344
#
#
# Mechanical properties :
#
#
# Convention : Reuss Voigt Hill
#
# Bulk Modulus (GPa) = 48.49655 85.04593 66.77124
# Shear Modulus (GPa) = 13.25097 25.89441 19.57269
#
# Velocity S-wave (km/s) = 2.74435 3.83636 3.33535
# Velocity P-wave (km/s) = 6.13237 8.24386 7.26523
#
# Compressibility (1/GPa) = 0.02062002
#
# Stress axis : x y z
#
# Youngs Moduli (GPa) = 16.36315 16.36343 107.08501
#
# Poissons Ratio (x) = 0.68098 0.74188
# Poissons Ratio (y) = 0.68097 0.74184
# Poissons Ratio (z) = 0.11336 0.11336
#
# Static dielectric constant tensor:
#      x y z
#    x 1.591310 0.000000 0.000000 
#    y 0.000000 1.591310 0.000000 
#    z 0.000000 0.000000 1.589050 
# 
# From -- ./inp_files/5782.got.cif
#   From: 2010.05.17/outbox.cif.g08.bks.cpg/sg115_3_cif.got.tgz:5782.got - 2010.05.20 11:07:42.
