data_PCOD9556138
_publ_section_title
;
Structure prediction by ZEFSAII (Michael W. Deem and Ramdas Pophale) SiO2 
 PCOD9556138
Probable space group: P -4 21 C
;
_chemical_formula_sum "Si O2"
_cell_formula_units_Z 24
_cell_length_a 6.860934
_cell_length_b 6.860934
_cell_length_c 16.760238
_cell_angle_alpha 90.000000
_cell_angle_beta 90.000000
_cell_angle_gamma 90.000000
_cell_volume 788.944885
_symmetry_space_group_name_H-M "P -4 21 C"
_symmetry_group_IT_number 114
_symmetry_cell_setting 'tetragonal'
loop_
_space_group_symop_operation_xyz
x,y,z
y,-x,-z
-x,-y,z
-y,x,-z
1/2+x,1/2-y,1/2-z
1/2-x,1/2+y,1/2-z
1/2-y,1/2-x,1/2+z
1/2+y,1/2+x,1/2+z
loop_
_atom_site_type_symbol
_atom_site_label
_atom_site_fract_x
_atom_site_fract_y
_atom_site_fract_z
Si Si1 0.553107 0.770814 0.819818
Si Si2 0.871069 0.306673 0.855235
Si Si3 0.753413 0.788967 0.483666
O O1 0.362075 0.654456 0.848288
O O2 0.598905 0.704034 0.730109
O O3 0.718772 0.776238 0.888395
O O4 0.500000 0.000000 0.814918
O O5 0.000000 0.500000 0.853244
O O6 0.879920 0.210373 0.943466
O O7 0.976461 0.732067 0.501079
#
# Coordination Sequence:
#
# PCOD9556138 Si02
#       3
#     8   8   8
#     4  10  22  39  63 101 131 178 229 281 340 407
#     4  10  22  40  65  98 137 177 223 285 341 411
#     4   9  19  37  66  95 130 181 234 278 341 418
#
# _framework density 30.420373000000001
#
# number of rings (size 3 to 8) (size 9 to 14) (size 15 to 20)
#    0.000    2.333    0.000    1.000    9.333    0.000 
#    0.000    0.000    0.000    0.000    0.000    0.000 
#    0.000    0.000    0.000    0.000    0.000    0.000 
#
# Total GULP energy -134370.323800 kJ/mol
# GULP energy per Si atom -5598.763492 kJ/mol
# Density = 3.035113 g / cm^3
# Si number density = 30.420373 Si / 1000 Ang^3
#
#
#
# Elastic Constant Matrix: (Units=GPa)
#
#
# Indices 1 2 3 4 5 6 
#
# 1 98.0810 52.6422 56.2102 0.0000 0.0000 0.0000
# 2 52.6422 98.0810 56.2102 0.0000 0.0000 0.0000
# 3 56.2102 56.2102 390.0080 0.0000 0.0000 0.0000
# 4 0.0000 0.0000 0.0000 48.5614 0.0000 0.0000
# 5 0.0000 0.0000 0.0000 0.0000 48.5614 0.0000
# 6 0.0000 0.0000 0.0000 0.0000 0.0000 48.6053
#
#
#
# Elastic Compliance Matrix: (Units=1/GPa)
#
#
# Indices 1 2 3 4 5 6 
#
# 1 0.014721 -0.007287 -0.001071 0.000000 0.000000 0.000000
# 2 -0.007287 0.014721 -0.001071 0.000000 0.000000 0.000000
# 3 -0.001071 -0.001071 0.002873 0.000000 0.000000 0.000000
# 4 0.000000 0.000000 0.000000 0.020593 0.000000 0.000000
# 5 0.000000 0.000000 0.000000 0.000000 0.020593 0.000000
# 6 0.000000 0.000000 0.000000 0.000000 0.000000 0.020574
#
#
# Mechanical properties :
#
#
# Convention : Reuss Voigt Hill
#
# Bulk Modulus (GPa) = 74.32240 101.81055 88.06647
# Shear Modulus (GPa) = 42.58305 57.21943 49.90124
#
# Velocity S-wave (km/s) = 3.74548 4.34171 4.05457
# Velocity P-wave (km/s) = 6.57188 7.65992 7.13667
#
# Compressibility (1/GPa) = 0.01345489
#
# Stress axis : x y z
#
# Youngs Moduli (GPa) = 67.93146 67.93146 348.08237
#
# Poissons Ratio (x) = 0.49501 0.37294
# Poissons Ratio (y) = 0.49501 0.37294
# Poissons Ratio (z) = 0.07278 0.07278
#
# Static dielectric constant tensor:
#      x y z
#    x 2.434140 0.000000 0.000000 
#    y 0.000000 2.434140 0.000000 
#    z 0.000000 0.000000 2.439900 
# 
# From -- ./inp_files/1881.got.cif
#   From: 2010.05.17/outbox.cif.g08.bks.cpg/sg114_1_cif.got.tgz:1881.got - 2010.05.20 11:04:54.
