data_PCOD9556234
_publ_section_title
;
Structure prediction by ZEFSAII (Michael W. Deem and Ramdas Pophale) SiO2 
 PCOD9556234
Probable space group: P -4 21 C
;
_chemical_formula_sum "Si O2"
_cell_formula_units_Z 48
_cell_length_a 8.255471
_cell_length_b 8.255471
_cell_length_c 30.585341
_cell_angle_alpha 90.000000
_cell_angle_beta 90.000000
_cell_angle_gamma 90.000000
_cell_volume 2084.476672
_symmetry_space_group_name_H-M "P -4 21 C"
_symmetry_group_IT_number 114
_symmetry_cell_setting 'tetragonal'
loop_
_space_group_symop_operation_xyz
x,y,z
y,-x,-z
-x,-y,z
-y,x,-z
1/2+x,1/2-y,1/2-z
1/2-x,1/2+y,1/2-z
1/2-y,1/2-x,1/2+z
1/2+y,1/2+x,1/2+z
loop_
_atom_site_type_symbol
_atom_site_label
_atom_site_fract_x
_atom_site_fract_y
_atom_site_fract_z
Si Si1 0.404282 0.834071 0.780909
Si Si2 0.340333 0.710996 0.191449
Si Si3 0.327164 0.219288 0.050814
Si Si4 0.819320 0.293500 0.353377
Si Si5 0.657357 0.614209 0.375727
Si Si6 0.687036 0.169037 0.038956
O O1 0.533029 0.690512 0.789260
O O2 0.331472 0.836864 0.732505
O O3 0.262653 0.802451 0.815773
O O4 0.500000 0.000000 0.786711
O O5 0.504280 0.737493 0.163446
O O6 0.187329 0.751773 0.160573
O O7 0.271021 0.274254 0.098764
O O8 0.518492 0.253555 0.051195
O O9 0.321750 0.025440 0.042540
O O10 0.226862 0.283612 0.010081
O O11 0.800648 0.484867 0.363099
O O12 0.500000 0.500000 0.375455
O O13 0.681409 0.697989 0.422964
#
# Coordination Sequence:
#
# PCOD9556234 Si02
#       6
#     8   8   8   8   8   8
#     4  12  26  43  69 102 136 181 236 296 348 426
#     4  12  24  45  71 100 139 184 232 289 362 424
#     4  10  23  44  66 100 135 181 228 280 349 408
#     4  11  24  46  68  97 141 188 226 289 361 428
#     4  11  23  41  71 102 135 181 234 287 349 419
#     4  10  23  42  68  98 134 179 228 283 341 412
#
# _framework density 23.027362
#
# number of rings (size 3 to 8) (size 9 to 14) (size 15 to 20)
#    0.000    1.000    1.667    5.000    4.667    3.000 
#    6.000    0.000    0.000    0.000    0.000    0.000 
#    0.000    0.000    0.000    0.000    0.000    0.000 
#
# Total GULP energy -268055.002454 kJ/mol
# GULP energy per Si atom -5584.479218 kJ/mol
# Density = 2.297495 g / cm^3
# Si number density = 23.027362 Si / 1000 Ang^3
#
#
#
# Elastic Constant Matrix: (Units=GPa)
#
#
# Indices 1 2 3 4 5 6 
#
# 1 55.1341 -2.0530 29.9147 0.0000 0.0000 0.0000
# 2 -2.0530 55.1341 29.9147 0.0000 0.0000 0.0000
# 3 29.9147 29.9147 202.0408 0.0000 0.0000 0.0000
# 4 0.0000 0.0000 0.0000 32.9263 0.0000 0.0000
# 5 0.0000 0.0000 0.0000 0.0000 32.9263 0.0000
# 6 0.0000 0.0000 0.0000 0.0000 0.0000 22.1896
#
#
#
# Elastic Compliance Matrix: (Units=1/GPa)
#
#
# Indices 1 2 3 4 5 6 
#
# 1 0.020050 0.002563 -0.003348 0.000000 0.000000 0.000000
# 2 0.002563 0.020050 -0.003348 0.000000 0.000000 0.000000
# 3 -0.003348 -0.003348 0.005941 0.000000 0.000000 0.000000
# 4 0.000000 0.000000 0.000000 0.030371 0.000000 0.000000
# 5 0.000000 0.000000 0.000000 0.000000 0.030371 0.000000
# 6 0.000000 0.000000 0.000000 0.000000 0.000000 0.045066
#
#
# Mechanical properties :
#
#
# Convention : Reuss Voigt Hill
#
# Bulk Modulus (GPa) = 26.47305 47.54017 37.00661
# Shear Modulus (GPa) = 28.95100 34.57728 31.76414
#
# Velocity S-wave (km/s) = 3.54961 3.87922 3.71807
# Velocity P-wave (km/s) = 5.32174 6.38391 5.87687
#
# Compressibility (1/GPa) = 0.03777426
#
# Stress axis : x y z
#
# Youngs Moduli (GPa) = 49.87612 49.87612 168.32297
#
# Poissons Ratio (x) = -0.12784 0.56357
# Poissons Ratio (y) = -0.12784 0.56357
# Poissons Ratio (z) = 0.16699 0.16699
#
# Static dielectric constant tensor:
#      x y z
#    x 1.919600 0.000000 0.000000 
#    y 0.000000 1.919600 0.000000 
#    z 0.000000 0.000000 1.873440 
# 
# From -- ./inp_files/3929.got.cif
#   From: 2010.05.17/outbox.cif.g08.bks.cpg/sg114_2_cif.got.tgz:3929.got - 2010.05.20 11:04:54.
