data_PCOD9556162
_publ_section_title
;
Structure prediction by ZEFSAII (Michael W. Deem and Ramdas Pophale) SiO2 
 PCOD9556162
Probable space group: P -4 21 C
;
_chemical_formula_sum "Si O2"
_cell_formula_units_Z 40
_cell_length_a 13.963998
_cell_length_b 13.963998
_cell_length_c 8.627927
_cell_angle_alpha 90.000000
_cell_angle_beta 90.000000
_cell_angle_gamma 90.000000
_cell_volume 1682.387441
_symmetry_space_group_name_H-M "P -4 21 C"
_symmetry_group_IT_number 114
_symmetry_cell_setting 'tetragonal'
loop_
_space_group_symop_operation_xyz
x,y,z
y,-x,-z
-x,-y,z
-y,x,-z
1/2+x,1/2-y,1/2-z
1/2-x,1/2+y,1/2-z
1/2-y,1/2-x,1/2+z
1/2+y,1/2+x,1/2+z
loop_
_atom_site_type_symbol
_atom_site_label
_atom_site_fract_x
_atom_site_fract_y
_atom_site_fract_z
Si Si1 0.500000 0.500000 0.000000
Si Si2 0.825998 0.120622 0.117741
Si Si3 0.000000 0.000000 0.000000
Si Si4 0.461919 0.306514 0.838745
Si Si5 0.500000 0.000000 0.779495
Si Si6 0.647964 0.963131 0.543122
Si Si7 0.261056 0.211829 0.161897
O O1 0.470621 0.415293 0.885846
O O2 0.780590 0.023250 0.186125
O O3 0.806483 0.193325 0.260894
O O4 0.784527 0.176255 0.967066
O O5 0.934931 0.083739 0.082034
O O6 0.353526 0.279590 0.800479
O O7 0.498729 0.250511 0.989985
O O8 0.409106 0.978455 0.671781
O O9 0.470974 0.086159 0.888413
O O10 0.657023 0.853077 0.592468
#
# Coordination Sequence:
#
# PCOD9556162 Si02
#       7
#     2   8   2   8   4   8   8
#     4  12  30  48  74 120 158 212 282 352 410 488
#     4  12  27  49  80 119 159 219 274 350 415 495
#     4  12  26  52  88 122 166 220 292 342 418 504
#     4  12  26  47  78 111 158 210 275 342 412 489
#     4  10  22  40  72 106 148 192 256 310 410 506
#     4  11  22  45  70 107 150 202 246 327 398 494
#     4  12  25  50  78 109 161 212 270 348 412 494
#
# _framework density 23.775735000000001
#
# number of rings (size 3 to 8) (size 9 to 14) (size 15 to 20)
#    0.000    0.400    6.000    1.800    0.000    1.600 
#    0.000    0.000    0.000    0.000    0.000    0.000 
#    0.000    0.000    0.000    0.000    0.000    0.000 
#
# Total GULP energy -223392.728447 kJ/mol
# GULP energy per Si atom -5584.818211 kJ/mol
# Density = 2.372162 g / cm^3
# Si number density = 23.775735 Si / 1000 Ang^3
#
#
#
# Elastic Constant Matrix: (Units=GPa)
#
#
# Indices 1 2 3 4 5 6 
#
# 1 105.2639 42.5633 34.4032 0.0000 0.0000 0.0000
# 2 42.5633 105.2639 34.4032 0.0000 0.0000 0.0000
# 3 34.4032 34.4032 92.3733 0.0000 0.0000 0.0000
# 4 0.0000 0.0000 0.0000 109.5073 0.0000 0.0000
# 5 0.0000 0.0000 0.0000 0.0000 109.5073 0.0000
# 6 0.0000 0.0000 0.0000 0.0000 0.0000 34.8978
#
#
#
# Elastic Compliance Matrix: (Units=1/GPa)
#
#
# Indices 1 2 3 4 5 6 
#
# 1 0.012066 -0.003883 -0.003048 0.000000 0.000000 0.000000
# 2 -0.003883 0.012066 -0.003048 0.000000 0.000000 0.000000
# 3 -0.003048 -0.003048 0.013096 0.000000 0.000000 0.000000
# 4 0.000000 0.000000 0.000000 0.009132 0.000000 0.000000
# 5 0.000000 0.000000 0.000000 0.000000 0.009132 0.000000
# 6 0.000000 0.000000 0.000000 0.000000 0.000000 0.028655
#
#
# Mechanical properties :
#
#
# Convention : Reuss Voigt Hill
#
# Bulk Modulus (GPa) = 57.89939 58.40448 58.15193
# Shear Modulus (GPa) = 45.51237 63.55124 54.53181
#
# Velocity S-wave (km/s) = 4.37995 5.17566 4.79434
# Velocity P-wave (km/s) = 7.06992 7.76754 7.42693
#
# Compressibility (1/GPa) = 0.01727134
#
# Stress axis : x y z
#
# Youngs Moduli (GPa) = 82.87732 82.87732 76.36034
#
# Poissons Ratio (x) = 0.32180 0.23273
# Poissons Ratio (y) = 0.32180 0.23273
# Poissons Ratio (z) = 0.25259 0.25259
#
# Static dielectric constant tensor:
#      x y z
#    x 1.916050 0.000000 0.000000 
#    y 0.000000 1.916050 0.000000 
#    z 0.000000 0.000000 1.945020 
# 
# From -- ./inp_files/840.got.cif
#   From: 2010.05.17/outbox.cif.g08.bks.cpg/sg114_1_cif.got.tgz:840.got - 2010.05.20 11:04:54.
