data_PCOD9556555
_publ_section_title
;
Structure prediction by ZEFSAII (Michael W. Deem and Ramdas Pophale) SiO2 
 PCOD9556555
Probable space group: P -4 M 2
;
_chemical_formula_sum "Si O2"
_cell_formula_units_Z 48
_cell_length_a 16.711013
_cell_length_b 16.711013
_cell_length_c 10.624645
_cell_angle_alpha 90.000000
_cell_angle_beta 90.000000
_cell_angle_gamma 90.000000
_cell_volume 2967.016640
_symmetry_space_group_name_H-M "P -4 M 2"
_symmetry_group_IT_number 115
_symmetry_cell_setting 'tetragonal'
loop_
_space_group_symop_operation_xyz
x,y,z
y,-x,-z
-x,-y,z
-y,x,-z
y,x,-z
-y,-x,-z
-x,y,z
x,-y,z
loop_
_atom_site_type_symbol
_atom_site_label
_atom_site_fract_x
_atom_site_fract_y
_atom_site_fract_z
Si Si1 0.912701 0.150037 0.625220
Si Si2 0.223493 0.285632 0.628183
Si Si3 0.289276 0.219609 0.878149
Si Si4 0.908498 0.404006 0.018018
Si Si5 0.596323 0.092744 0.276951
Si Si6 0.912803 0.150247 0.124776
O O1 0.901324 0.098677 0.500000
O O2 0.843120 0.215497 0.626122
O O3 0.901311 0.098696 0.750387
O O4 0.000000 0.188272 0.625554
O O5 0.274253 0.274253 0.500000
O O6 0.279722 0.269346 0.749517
O O7 0.165751 0.362563 0.648023
O O8 0.365078 0.162033 0.900597
O O9 0.216703 0.155776 0.876215
O O10 0.275162 0.275162 0.000000
O O11 0.903558 0.500000 0.021747
O O12 0.000000 0.382311 0.055520
O O13 0.898888 0.378971 0.870802
O O14 0.500000 0.098838 0.283187
O O15 0.616336 0.000000 0.314185
O O16 0.000000 0.188354 0.124532
O O17 0.901322 0.098679 0.000000
#
# Coordination Sequence:
#
# PCOD9556555 Si02
#       6
#     8   8   8   8   8   8
#     4  10  20  31  43  57  79 117 159 197 234 271
#     4  10  20  33  48  70  99 129 162 200 243 298
#     4  10  18  31  48  68  94 123 158 199 245 296
#     4   9  17  30  51  77 102 130 167 212 258 302
#     4   9  17  31  53  77 100 130 169 210 251 301
#     4  10  20  29  39  57  80 111 149 193 238 273
#
# _framework density 16.177866000000002
#
# number of rings (size 3 to 8) (size 9 to 14) (size 15 to 20)
#    0.000    2.333    1.667    3.000    0.000    2.000 
#    0.000    3.333    0.000    2.000    0.000    0.000 
#    0.000    4.000    0.000    0.000    0.000    0.000 
#
# Total GULP energy -267264.814221 kJ/mol
# GULP energy per Si atom -5568.016963 kJ/mol
# Density = 1.614104 g / cm^3
# Si number density = 16.177866 Si / 1000 Ang^3
#
#
#
# Elastic Constant Matrix: (Units=GPa)
#
#
# Indices 1 2 3 4 5 6 
#
# 1 51.8162 15.3828 27.9363 0.0000 0.0000 0.0000
# 2 15.3828 51.8163 27.9367 0.0000 0.0000 0.0000
# 3 27.9363 27.9367 109.7517 0.0000 0.0000 0.0000
# 4 0.0000 0.0000 0.0000 34.4895 0.0000 0.0000
# 5 0.0000 0.0000 0.0000 0.0000 34.4852 0.0000
# 6 0.0000 0.0000 0.0000 0.0000 0.0000 33.9776
#
#
#
# Elastic Compliance Matrix: (Units=1/GPa)
#
#
# Indices 1 2 3 4 5 6 
#
# 1 0.023162 -0.004286 -0.004805 0.000000 0.000000 0.000000
# 2 -0.004286 0.023162 -0.004805 0.000000 0.000000 0.000000
# 3 -0.004805 -0.004805 0.011558 0.000000 0.000000 0.000000
# 4 0.000000 0.000000 0.000000 0.028994 0.000000 0.000000
# 5 0.000000 0.000000 0.000000 0.000000 0.028998 0.000000
# 6 0.000000 0.000000 0.000000 0.000000 0.000000 0.029431
#
#
# Mechanical properties :
#
#
# Convention : Reuss Voigt Hill
#
# Bulk Modulus (GPa) = 33.23291 39.54398 36.38844
# Shear Modulus (GPa) = 27.30378 30.06569 28.68474
#
# Velocity S-wave (km/s) = 4.11265 4.31565 4.21537
# Velocity P-wave (km/s) = 6.56800 7.02349 6.79956
#
# Compressibility (1/GPa) = 0.03009065
#
# Stress axis : x y z
#
# Youngs Moduli (GPa) = 43.17474 43.17473 86.52376
#
# Poissons Ratio (x) = 0.18503 0.41572
# Poissons Ratio (y) = 0.18503 0.41573
# Poissons Ratio (z) = 0.20744 0.20745
#
# Static dielectric constant tensor:
#      x y z
#    x 1.541010 0.000000 0.000000 
#    y 0.000000 1.541010 0.000000 
#    z 0.000000 0.000000 1.573620 
# 
# From -- ./inp_files/1842.got.cif
#   From: 2010.05.17/outbox.cif.g08.bks.cpg/sg115_1_cif.got.tgz:1842.got - 2010.05.20 11:07:42.
