data_PCOD9556731
_publ_section_title
;
Structure prediction by ZEFSAII (Michael W. Deem and Ramdas Pophale) SiO2 
 PCOD9556731
Probable space group: P -4 M 2
;
_chemical_formula_sum "Si O2"
_cell_formula_units_Z 32
_cell_length_a 9.345256
_cell_length_b 9.345256
_cell_length_c 21.324574
_cell_angle_alpha 90.000000
_cell_angle_beta 90.000000
_cell_angle_gamma 90.000000
_cell_volume 1862.356288
_symmetry_space_group_name_H-M "P -4 M 2"
_symmetry_group_IT_number 115
_symmetry_cell_setting 'tetragonal'
loop_
_space_group_symop_operation_xyz
x,y,z
y,-x,-z
-x,-y,z
-y,x,-z
y,x,-z
-y,-x,-z
-x,y,z
x,-y,z
loop_
_atom_site_type_symbol
_atom_site_label
_atom_site_fract_x
_atom_site_fract_y
_atom_site_fract_z
Si Si1 0.171368 0.168613 0.071886
Si Si2 0.667985 0.328022 0.817494
Si Si3 0.325562 0.835736 0.307881
Si Si4 0.334546 0.674508 0.569423
O O1 0.252960 0.260962 0.122996
O O2 0.000000 0.184790 0.078490
O O3 0.204379 0.000000 0.080442
O O4 0.207886 0.207886 0.000000
O O5 0.500000 0.295652 0.813291
O O6 0.683659 0.500000 0.823166
O O7 0.747829 0.282503 0.753680
O O8 0.500000 0.834591 0.308917
O O9 0.277999 0.760404 0.372171
O O10 0.279034 0.000000 0.304137
O O11 0.282565 0.717436 0.500000
O O12 0.500000 0.718539 0.577954
O O13 0.334465 0.500000 0.568581
#
# Coordination Sequence:
#
# PCOD9556731 Si02
#       4
#     8   8   8   8
#     4   9  19  36  55  73  95 126 163 200 240 290
#     4  10  20  32  48  73 103 131 161 201 245 287
#     4   9  16  26  42  65  93 125 160 197 238 285
#     4   8  13  22  38  60  85 114 150 193 240 288
#
# _framework density 17.182535000000001
#
# number of rings (size 3 to 8) (size 9 to 14) (size 15 to 20)
#    0.000    3.000    0.000    3.000    0.000    6.000 
#    0.000    3.750    0.000    1.500    0.000    3.500 
#    0.000    0.000    0.000    0.000    0.000    0.000 
#
# Total GULP energy -178335.018446 kJ/mol
# GULP energy per Si atom -5572.969326 kJ/mol
# Density = 1.714343 g / cm^3
# Si number density = 17.182535 Si / 1000 Ang^3
#
#
#
# Elastic Constant Matrix: (Units=GPa)
#
#
# Indices 1 2 3 4 5 6 
#
# 1 62.8336 41.1378 84.0127 0.0000 0.0000 0.0000
# 2 41.1378 62.8333 84.0125 0.0000 0.0000 0.0000
# 3 84.0127 84.0125 207.5156 0.0000 0.0000 0.0000
# 4 0.0000 0.0000 0.0000 -32.0908 0.0000 0.0000
# 5 0.0000 0.0000 0.0000 0.0000 -32.0919 0.0000
# 6 0.0000 0.0000 0.0000 0.0000 0.0000 19.0078
#
#
#
# Elastic Compliance Matrix: (Units=1/GPa)
#
#
# Indices 1 2 3 4 5 6 
#
# 1 0.036956 -0.009136 -0.011263 0.000000 0.000000 0.000000
# 2 -0.009136 0.036956 -0.011263 0.000000 0.000000 0.000000
# 3 -0.011263 -0.011263 0.013938 0.000000 0.000000 0.000000
# 4 0.000000 0.000000 0.000000 -0.031162 0.000000 0.000000
# 5 0.000000 0.000000 0.000000 0.000000 -0.031160 0.000000
# 6 0.000000 0.000000 0.000000 0.000000 0.000000 0.052610
#
#
# Mechanical properties :
#
#
# Convention : Reuss Voigt Hill
#
# Bulk Modulus (GPa) = 40.77254 83.50095 62.13674
# Shear Modulus (GPa) = 33.41435 -0.76700 16.32367
#
# Velocity S-wave (km/s) = 4.41462 -0.66885 3.08558
# Velocity P-wave (km/s) = 7.05449 6.93581 6.99540
#
# Compressibility (1/GPa) = 0.02452631
#
# Stress axis : x y z
#
# Youngs Moduli (GPa) = 27.05949 27.05933 71.74499
#
# Poissons Ratio (x) = 0.24723 0.80803
# Poissons Ratio (y) = 0.24723 0.80804
# Poissons Ratio (z) = 0.30476 0.30476
#
# Static dielectric constant tensor:
#      x y z
#    x 1.568730 0.000000 0.000000 
#    y 0.000000 1.568730 0.000000 
#    z 0.000000 0.000000 1.577210 
# 
# From -- ./inp_files/4564.got.cif
#   From: 2010.05.17/outbox.cif.g08.bks.cpg/sg115_3_cif.got.tgz:4564.got - 2010.05.20 11:07:42.
