data_PCOD9556742
_publ_section_title
;
Structure prediction by ZEFSAII (Michael W. Deem and Ramdas Pophale) SiO2 
 PCOD9556742
Probable space group: P -4 M 2
;
_chemical_formula_sum "Si O2"
_cell_formula_units_Z 48
_cell_length_a 9.163945
_cell_length_b 9.163945
_cell_length_c 32.527826
_cell_angle_alpha 90.000000
_cell_angle_beta 90.000000
_cell_angle_gamma 90.000000
_cell_volume 2731.618128
_symmetry_space_group_name_H-M "P -4 M 2"
_symmetry_group_IT_number 115
_symmetry_cell_setting 'tetragonal'
loop_
_space_group_symop_operation_xyz
x,y,z
y,-x,-z
-x,-y,z
-y,x,-z
y,x,-z
-y,-x,-z
-x,y,z
x,-y,z
loop_
_atom_site_type_symbol
_atom_site_label
_atom_site_fract_x
_atom_site_fract_y
_atom_site_fract_z
Si Si1 0.826400 0.826826 0.199694
Si Si2 0.322239 0.829878 0.627618
Si Si3 0.674077 0.172803 0.961774
Si Si4 0.175964 0.328139 0.462066
Si Si5 0.325292 0.671777 0.876703
Si Si6 0.178041 0.669680 0.283062
O O1 0.742488 0.753187 0.162194
O O2 0.777490 0.761756 0.243570
O O3 0.000000 0.795919 0.195474
O O4 0.806488 0.000000 0.199217
O O5 0.500000 0.828422 0.627893
O O6 0.277419 0.768844 0.583199
O O7 0.277611 0.767889 0.672014
O O8 0.277657 0.000000 0.627414
O O9 0.500000 0.196852 0.967164
O O10 0.717891 0.248894 0.919027
O O11 0.699720 0.000000 0.959301
O O12 0.757783 0.242218 0.000000
O O13 0.242452 0.242452 0.500000
O O14 0.210307 0.500000 0.466100
O O15 0.000000 0.315001 0.462119
O O16 0.500000 0.690293 0.871978
O O17 0.293948 0.500000 0.879543
O O18 0.219186 0.500000 0.277523
O O19 0.000000 0.673471 0.284886
#
# Coordination Sequence:
#
# PCOD9556742 Si02
#       6
#     8   8   8   8   8   8
#     4  10  20  32  48  74 106 134 160 196 245 297
#     4   7  11  22  41  64  88 116 153 196 239 282
#     4  10  21  37  58  83 109 137 169 206 249 294
#     4   9  17  29  45  66  93 123 156 196 240 287
#     4  10  21  37  57  78 100 132 174 213 246 284
#     4   8  13  24  45  69  91 119 157 200 243 286
#
# _framework density 17.572002999999999
#
# number of rings (size 3 to 8) (size 9 to 14) (size 15 to 20)
#    0.000    3.000    0.000    3.500    0.000    4.000 
#    0.000    0.833    0.000    4.000    0.000    2.333 
#    0.000    0.000    0.000    0.000    0.000    0.000 
#
# Total GULP energy -267376.546907 kJ/mol
# GULP energy per Si atom -5570.344727 kJ/mol
# Density = 1.753201 g / cm^3
# Si number density = 17.572003 Si / 1000 Ang^3
#
#
#
# Elastic Constant Matrix: (Units=GPa)
#
#
# Indices 1 2 3 4 5 6 
#
# 1 35.4615 39.6045 67.4004 0.0000 0.0000 0.0000
# 2 39.6045 35.4614 67.4015 0.0000 0.0000 0.0000
# 3 67.4004 67.4015 223.9254 0.0000 0.0000 0.0000
# 4 0.0000 0.0000 0.0000 28.2539 0.0000 0.0000
# 5 0.0000 0.0000 0.0000 0.0000 28.2539 0.0000
# 6 0.0000 0.0000 0.0000 0.0000 0.0000 20.2505
#
#
#
# Elastic Compliance Matrix: (Units=1/GPa)
#
#
# Indices 1 2 3 4 5 6 
#
# 1 -0.106184 0.135180 -0.008728 0.000000 0.000000 0.000000
# 2 0.135180 -0.106189 -0.008725 0.000000 0.000000 0.000000
# 3 -0.008728 -0.008725 0.009719 0.000000 0.000000 0.000000
# 4 0.000000 0.000000 0.000000 0.035393 0.000000 0.000000
# 5 0.000000 0.000000 0.000000 0.000000 0.035393 0.000000
# 6 0.000000 0.000000 0.000000 0.000000 0.000000 0.049382
#
#
# Mechanical properties :
#
#
# Convention : Reuss Voigt Hill
#
# Bulk Modulus (GPa) = 30.48951 71.51790 51.00370
# Shear Modulus (GPa) = -16.28636 23.38110 3.54737
#
# Velocity S-wave (km/s) = -3.04770 3.65168 1.42237
# Velocity P-wave (km/s) = 2.23701 7.65297 5.63792
#
# Compressibility (1/GPa) = 0.03279816
#
# Stress axis : x y z
#
# Youngs Moduli (GPa) = -9.41761 -9.41714 102.88811
#
# Poissons Ratio (x) = 1.27301 0.89803
# Poissons Ratio (y) = 1.27307 0.89775
# Poissons Ratio (z) = -0.08220 -0.08217
#
# Static dielectric constant tensor:
#      x y z
#    x 1.587920 0.000000 0.000000 
#    y 0.000000 1.587920 0.000000 
#    z 0.000000 0.000000 1.617270 
# 
# From -- ./inp_files/5994.got.cif
#   From: 2010.05.17/outbox.cif.g08.bks.cpg/sg115_3_cif.got.tgz:5994.got - 2010.05.20 11:07:42.
