data_PCOD9556530
_publ_section_title
;
Structure prediction by ZEFSAII (Michael W. Deem and Ramdas Pophale) SiO2 
 PCOD9556530
Probable space group: P -4 M 2
;
_chemical_formula_sum "Si O2"
_cell_formula_units_Z 56
_cell_length_a 20.469851
_cell_length_b 20.469851
_cell_length_c 10.072430
_cell_angle_alpha 90.000000
_cell_angle_beta 90.000000
_cell_angle_gamma 90.000000
_cell_volume 4220.497242
_symmetry_space_group_name_H-M "P -4 M 2"
_symmetry_group_IT_number 115
_symmetry_cell_setting 'tetragonal'
loop_
_space_group_symop_operation_xyz
x,y,z
y,-x,-z
-x,-y,z
-y,x,-z
y,x,-z
-y,-x,-z
-x,y,z
x,-y,z
loop_
_atom_site_type_symbol
_atom_site_label
_atom_site_fract_x
_atom_site_fract_y
_atom_site_fract_z
Si Si1 0.358974 0.744753 0.005973
Si Si2 0.300060 0.424089 0.740952
Si Si3 0.000000 0.578803 0.894417
Si Si4 0.000000 0.420121 0.587991
Si Si5 0.423474 0.352115 0.800962
Si Si6 0.114018 0.420953 0.390477
Si Si7 0.420749 0.120904 0.914955
Si Si8 0.578792 0.259666 0.551669
O O1 0.382190 0.742753 0.157744
O O2 0.285834 0.714167 0.000000
O O3 0.402831 0.691346 0.926707
O O4 0.378736 0.814239 0.944881
O O5 0.282579 0.500000 0.752497
O O6 0.375059 0.412709 0.783767
O O7 0.288033 0.401865 0.590385
O O8 0.000000 0.500000 0.888482
O O9 0.000000 0.602031 0.741415
O O10 0.935486 0.595682 0.979231
O O11 0.937491 0.399032 0.501014
O O12 0.000000 0.500000 0.590837
O O13 0.500000 0.367650 0.803282
O O14 0.407256 0.306540 0.674433
O O15 0.115012 0.500000 0.399104
O O16 0.098082 0.407304 0.236313
O O17 0.186775 0.396304 0.422105
O O18 0.500000 0.135117 0.923055
O O19 0.500000 0.255439 0.548413
#
# Coordination Sequence:
#
# PCOD9556530 Si02
#       8
#     8   8   4   4   8   8   8   8
#     4  10  20  31  44  60  79 105 138 174 207 247
#     4  10  20  29  40  58  75  94 127 173 222 263
#     4   9  19  27  41  67  89 105 125 160 205 252
#     4   9  17  27  37  61  87  99 121 157 195 246
#     4  10  18  31  44  54  71  96 131 172 216 265
#     4   9  16  26  42  56  75 103 127 152 192 245
#     4  10  17  29  45  61  82 110 138 165 205 254
#     4   9  17  28  41  56  70  94 124 156 201 252
#
# _framework density 13.268579000000001
#
# number of rings (size 3 to 8) (size 9 to 14) (size 15 to 20)
#    0.000    2.429    1.429    2.143    2.000    2.000 
#    0.000    0.000    0.000    5.143    0.000    0.000 
#    0.000    0.000    0.000    0.000    0.000    0.357 
#
# Total GULP energy -311768.320542 kJ/mol
# GULP energy per Si atom -5567.291438 kJ/mol
# Density = 1.323838 g / cm^3
# Si number density = 13.268579 Si / 1000 Ang^3
#
#
#
# Elastic Constant Matrix: (Units=GPa)
#
#
# Indices 1 2 3 4 5 6 
#
# 1 42.9406 11.0499 22.4727 0.0000 0.0000 0.0000
# 2 11.0499 42.9397 22.4730 0.0000 0.0000 0.0000
# 3 22.4727 22.4730 94.6588 0.0000 0.0000 0.0000
# 4 0.0000 0.0000 0.0000 16.0357 0.0000 0.0000
# 5 0.0000 0.0000 0.0000 0.0000 16.0359 0.0000
# 6 0.0000 0.0000 0.0000 0.0000 0.0000 7.4878
#
#
#
# Elastic Compliance Matrix: (Units=1/GPa)
#
#
# Indices 1 2 3 4 5 6 
#
# 1 0.027221 -0.004137 -0.005480 0.000000 0.000000 0.000000
# 2 -0.004137 0.027221 -0.005481 0.000000 0.000000 0.000000
# 3 -0.005480 -0.005481 0.013166 0.000000 0.000000 0.000000
# 4 0.000000 0.000000 0.000000 0.062361 0.000000 0.000000
# 5 0.000000 0.000000 0.000000 0.000000 0.062360 0.000000
# 6 0.000000 0.000000 0.000000 0.000000 0.000000 0.133550
#
#
# Mechanical properties :
#
#
# Convention : Reuss Voigt Hill
#
# Bulk Modulus (GPa) = 26.72840 32.50335 29.61587
# Shear Modulus (GPa) = 13.56685 16.21479 14.89082
#
# Velocity S-wave (km/s) = 3.20109 3.49957 3.35365
# Velocity P-wave (km/s) = 5.81812 6.39367 6.11267
#
# Compressibility (1/GPa) = 0.03741339
#
# Stress axis : x y z
#
# Youngs Moduli (GPa) = 36.73695 36.73595 75.95060
#
# Poissons Ratio (x) = 0.15196 0.41623
# Poissons Ratio (y) = 0.15197 0.41625
# Poissons Ratio (z) = 0.20133 0.20133
#
# Static dielectric constant tensor:
#      x y z
#    x 1.425980 0.000000 0.000000 
#    y 0.000000 1.425980 0.000000 
#    z 0.000000 0.000000 1.467530 
# 
# From -- ./inp_files/2113.got.cif
#   From: 2010.05.17/outbox.cif.g08.bks.cpg/sg115_2_cif.got.tgz:2113.got - 2010.05.20 11:07:42.
