data_PCOD9556852
_publ_section_title
;
Structure prediction by ZEFSAII (Michael W. Deem and Ramdas Pophale) SiO2 
 PCOD9556852
Probable space group: P -4 M 2
;
_chemical_formula_sum "Si O2"
_cell_formula_units_Z 48
_cell_length_a 9.191362
_cell_length_b 9.191362
_cell_length_c 31.749528
_cell_angle_alpha 90.000000
_cell_angle_beta 90.000000
_cell_angle_gamma 90.000000
_cell_volume 2682.236174
_symmetry_space_group_name_H-M "P -4 M 2"
_symmetry_group_IT_number 115
_symmetry_cell_setting 'tetragonal'
loop_
_space_group_symop_operation_xyz
x,y,z
y,-x,-z
-x,-y,z
-y,x,-z
y,x,-z
-y,-x,-z
-x,y,z
x,-y,z
loop_
_atom_site_type_symbol
_atom_site_label
_atom_site_fract_x
_atom_site_fract_y
_atom_site_fract_z
Si Si1 0.673289 0.827898 0.538781
Si Si2 0.172004 0.173394 0.295268
Si Si3 0.323066 0.332524 0.123035
Si Si4 0.672432 0.675160 0.217521
Si Si5 0.829642 0.674961 0.961181
Si Si6 0.326015 0.328041 0.626581
O O1 0.760261 0.760261 0.500000
O O2 0.500000 0.806302 0.531829
O O3 0.711738 0.747325 0.582278
O O4 0.700049 0.000000 0.542628
O O5 0.238106 0.244787 0.253340
O O6 0.253152 0.242058 0.335272
O O7 0.000000 0.203597 0.298095
O O8 0.193216 0.000000 0.294424
O O9 0.500000 0.332307 0.123604
O O10 0.277132 0.500000 0.116860
O O11 0.279934 0.284090 0.169980
O O12 0.276149 0.236604 0.083610
O O13 0.500000 0.707486 0.222195
O O14 0.687676 0.500000 0.221165
O O15 0.811543 0.500000 0.963730
O O16 0.000000 0.707992 0.962987
O O17 0.747293 0.747293 0.000000
O O18 0.500000 0.309855 0.633027
O O19 0.295460 0.500000 0.624957
#
# Coordination Sequence:
#
# PCOD9556852 Si02
#       6
#     8   8   8   8   8   8
#     4  10  21  37  58  84 113 146 182 220 266 318
#     4  11  24  38  52  76 111 147 181 217 261 315
#     4   8  15  30  53  79 104 131 168 216 264 309
#     4   9  18  34  57  83 107 133 171 217 264 316
#     4  10  20  33  51  76 104 136 175 216 260 312
#     4  10  21  38  61  85 107 137 181 229 272 315
#
# _framework density 17.895516000000001
#
# number of rings (size 3 to 8) (size 9 to 14) (size 15 to 20)
#    0.000    2.333    0.000    3.500    0.000    8.000 
#    0.000    2.500    0.000    1.000    0.000    0.000 
#    0.000    0.000    0.000    0.000    0.000    0.000 
#
# Total GULP energy -267948.849409 kJ/mol
# GULP energy per Si atom -5582.267696 kJ/mol
# Density = 1.785478 g / cm^3
# Si number density = 17.895516 Si / 1000 Ang^3
#
#
#
# Elastic Constant Matrix: (Units=GPa)
#
#
# Indices 1 2 3 4 5 6 
#
# 1 70.3353 63.9066 87.6509 0.0000 0.0000 0.0000
# 2 63.9066 70.3353 87.6509 0.0000 0.0000 0.0000
# 3 87.6509 87.6509 195.6332 0.0000 0.0000 0.0000
# 4 0.0000 0.0000 0.0000 -23.3998 0.0000 0.0000
# 5 0.0000 0.0000 0.0000 0.0000 -23.3998 0.0000
# 6 0.0000 0.0000 0.0000 0.0000 0.0000 26.2653
#
#
#
# Elastic Compliance Matrix: (Units=1/GPa)
#
#
# Indices 1 2 3 4 5 6 
#
# 1 0.086752 -0.068799 -0.008044 0.000000 0.000000 0.000000
# 2 -0.068799 0.086752 -0.008044 0.000000 0.000000 0.000000
# 3 -0.008044 -0.008044 0.012319 0.000000 0.000000 0.000000
# 4 0.000000 0.000000 0.000000 -0.042735 0.000000 0.000000
# 5 0.000000 0.000000 0.000000 0.000000 -0.042735 0.000000
# 6 0.000000 0.000000 0.000000 0.000000 0.000000 0.038073
#
#
# Mechanical properties :
#
#
# Convention : Reuss Voigt Hill
#
# Bulk Modulus (GPa) = 62.30140 90.52449 76.41295
# Shear Modulus (GPa) = 15.94648 2.36617 9.15633
#
# Velocity S-wave (km/s) = 2.98835 1.15112 2.26443
# Velocity P-wave (km/s) = 6.84080 7.24304 7.04479
#
# Compressibility (1/GPa) = 0.01605100
#
# Stress axis : x y z
#
# Youngs Moduli (GPa) = 11.52710 11.52710 81.17289
#
# Poissons Ratio (x) = 0.79305 0.65293
# Poissons Ratio (y) = 0.79305 0.65293
# Poissons Ratio (z) = 0.09272 0.09272
#
# Static dielectric constant tensor:
#      x y z
#    x 1.592490 0.000000 0.000000 
#    y 0.000000 1.592490 0.000000 
#    z 0.000000 0.000000 1.591180 
# 
# From -- ./inp_files/5924.got.cif
#   From: 2010.05.17/outbox.cif.g08.bks.cpg/sg115_3_cif.got.tgz:5924.got - 2010.05.20 11:07:42.
