data_PCOD9556938
_publ_section_title
;
Structure prediction by ZEFSAII (Michael W. Deem and Ramdas Pophale) SiO2 
 PCOD9556938
Probable space group: P -4 M 2
;
_chemical_formula_sum "Si O2"
_cell_formula_units_Z 40
_cell_length_a 9.270160
_cell_length_b 9.270160
_cell_length_c 26.531941
_cell_angle_alpha 90.000000
_cell_angle_beta 90.000000
_cell_angle_gamma 90.000000
_cell_volume 2280.045338
_symmetry_space_group_name_H-M "P -4 M 2"
_symmetry_group_IT_number 115
_symmetry_cell_setting 'tetragonal'
loop_
_space_group_symop_operation_xyz
x,y,z
y,-x,-z
-x,-y,z
-y,x,-z
y,x,-z
-y,-x,-z
-x,y,z
x,-y,z
loop_
_atom_site_type_symbol
_atom_site_label
_atom_site_fract_x
_atom_site_fract_y
_atom_site_fract_z
Si Si1 0.328833 0.172216 0.250749
Si Si2 0.328988 0.827083 0.453924
Si Si3 0.165831 0.175535 0.351875
Si Si4 0.672686 0.669524 0.147824
Si Si5 0.826744 0.830243 0.057112
O O1 0.500000 0.196415 0.258812
O O2 0.241854 0.220970 0.300020
O O3 0.283968 0.252435 0.199788
O O4 0.308088 0.000000 0.244335
O O5 0.255122 0.744878 0.500000
O O6 0.500000 0.800939 0.452179
O O7 0.254873 0.781849 0.401364
O O8 0.306865 0.000000 0.459900
O O9 0.000000 0.223170 0.354763
O O10 0.166476 0.000000 0.351272
O O11 0.500000 0.688606 0.142661
O O12 0.703574 0.500000 0.150773
O O13 0.750121 0.739860 0.100145
O O14 0.000000 0.816540 0.060936
O O15 0.791889 0.000000 0.063133
O O16 0.786312 0.786312 0.000000
#
# Coordination Sequence:
#
# PCOD9556938 Si02
#       5
#     8   8   8   8   8
#     4   9  17  31  51  73  99 134 174 212 252 302
#     4  10  20  34  53  77 105 137 173 212 254 303
#     4   9  17  30  51  78 103 129 167 215 262 304
#     4  10  21  35  51  75 107 140 173 209 252 304
#     4   9  19  36  56  77 101 131 170 215 260 306
#
# _framework density 17.543510999999999
#
# number of rings (size 3 to 8) (size 9 to 14) (size 15 to 20)
#    0.000    2.600    0.000    2.400    0.000    6.800 
#    0.000    6.000    0.000    3.600    0.000    0.000 
#    0.000    0.000    0.000    0.000    0.000    0.000 
#
# Total GULP energy -223159.890000 kJ/mol
# GULP energy per Si atom -5578.997250 kJ/mol
# Density = 1.750358 g / cm^3
# Si number density = 17.543511 Si / 1000 Ang^3
#
#
#
# Elastic Constant Matrix: (Units=GPa)
#
#
# Indices 1 2 3 4 5 6 
#
# 1 62.5751 54.2436 88.6060 0.0000 0.0000 0.0000
# 2 54.2436 62.5751 88.6060 0.0000 0.0000 0.0000
# 3 88.6060 88.6060 217.6473 0.0000 0.0000 0.0000
# 4 0.0000 0.0000 0.0000 -121.0299 0.0000 0.0000
# 5 0.0000 0.0000 0.0000 0.0000 -121.0299 0.0000
# 6 0.0000 0.0000 0.0000 0.0000 0.0000 21.9781
#
#
#
# Elastic Compliance Matrix: (Units=1/GPa)
#
#
# Indices 1 2 3 4 5 6 
#
# 1 0.071205 -0.048821 -0.009113 0.000000 0.000000 0.000000
# 2 -0.048821 0.071205 -0.009113 0.000000 0.000000 0.000000
# 3 -0.009113 -0.009113 0.012014 0.000000 0.000000 0.000000
# 4 0.000000 0.000000 0.000000 -0.008262 0.000000 0.000000
# 5 0.000000 0.000000 0.000000 0.000000 -0.008262 0.000000
# 6 0.000000 0.000000 0.000000 0.000000 0.000000 0.045500
#
#
# Mechanical properties :
#
#
# Convention : Reuss Voigt Hill
#
# Bulk Modulus (GPa) = 49.18443 89.52322 69.35383
# Shear Modulus (GPa) = 15.41924 -36.59354 -10.58715
#
# Velocity S-wave (km/s) = 2.96786 -4.57209 -2.45925
# Velocity P-wave (km/s) = 6.31196 4.82369 5.61733
#
# Compressibility (1/GPa) = 0.02033164
#
# Stress axis : x y z
#
# Youngs Moduli (GPa) = 14.04391 14.04391 83.23348
#
# Poissons Ratio (x) = 0.68564 0.75849
# Poissons Ratio (y) = 0.68564 0.75849
# Poissons Ratio (z) = 0.12798 0.12798
#
# Static dielectric constant tensor:
#      x y z
#    x 1.583750 0.000000 0.000000 
#    y 0.000000 1.583750 0.000000 
#    z 0.000000 0.000000 1.571950 
# 
# From -- ./inp_files/5087.got.cif
#   From: 2010.05.17/outbox.cif.g08.bks.cpg/sg115_3_cif.got.tgz:5087.got - 2010.05.20 11:07:42.
