data_PCOD9556215
_publ_section_title
;
Structure prediction by ZEFSAII (Michael W. Deem and Ramdas Pophale) SiO2 
 PCOD9556215
Probable space group: P -4 21 C
;
_chemical_formula_sum "Si O2"
_cell_formula_units_Z 42
_cell_length_a 14.037755
_cell_length_b 14.037755
_cell_length_c 8.049003
_cell_angle_alpha 90.000000
_cell_angle_beta 90.000000
_cell_angle_gamma 90.000000
_cell_volume 1586.124984
_symmetry_space_group_name_H-M "P -4 21 C"
_symmetry_group_IT_number 114
_symmetry_cell_setting 'tetragonal'
loop_
_space_group_symop_operation_xyz
x,y,z
y,-x,-z
-x,-y,z
-y,x,-z
1/2+x,1/2-y,1/2-z
1/2-x,1/2+y,1/2-z
1/2-y,1/2-x,1/2+z
1/2+y,1/2+x,1/2+z
loop_
_atom_site_type_symbol
_atom_site_label
_atom_site_fract_x
_atom_site_fract_y
_atom_site_fract_z
Si Si1 0.500000 0.500000 0.000000
Si Si2 0.893405 0.834343 0.574615
Si Si3 0.205792 0.714001 0.065454
Si Si4 0.621473 0.165460 0.725967
Si Si5 0.989010 0.385640 0.075445
Si Si6 0.609457 0.403974 0.551296
O O1 0.455402 0.603395 0.050963
O O2 0.782463 0.846026 0.533696
O O3 0.912377 0.722513 0.607817
O O4 0.912243 0.874745 0.759464
O O5 0.275643 0.783414 0.174403
O O6 0.147255 0.798882 0.976929
O O7 0.118226 0.647042 0.118021
O O8 0.645268 0.058865 0.776699
O O9 0.538029 0.161181 0.588660
O O10 0.000000 0.500000 0.060209
O O11 0.516090 0.378189 0.451276
#
# Coordination Sequence:
#
# PCOD9556215 Si02
#       6
#     2   8   8   8   8   8
#     4  12  28  48  74 116 168 188 280 350 408 492
#     4  11  26  48  75 118 154 215 264 340 416 485
#     4  11  25  47  78 114 157 211 266 334 405 489
#     4  11  26  53  78 116 165 211 280 333 421 496
#     4  12  28  51  81 120 163 214 276 342 413 497
#     4  10  22  46  75 112 149 205 266 329 406 481
#
# _framework density 26.47963
#
# number of rings (size 3 to 8) (size 9 to 14) (size 15 to 20)
#    0.000    0.952    1.905    4.000    2.667    9.143 
#   10.286    0.000    0.000    0.000    0.000    0.000 
#    0.000    0.000    0.000    0.000    0.000    0.000 
#
# Total GULP energy -234422.444326 kJ/mol
# GULP energy per Si atom -5581.486770 kJ/mol
# Density = 2.641936 g / cm^3
# Si number density = 26.479630 Si / 1000 Ang^3
#
#
#
# Elastic Constant Matrix: (Units=GPa)
#
#
# Indices 1 2 3 4 5 6 
#
# 1 156.1119 51.2295 30.5492 0.0000 0.0000 0.0000
# 2 51.2295 156.1119 30.5492 0.0000 0.0000 0.0000
# 3 30.5492 30.5492 73.0359 0.0000 0.0000 0.0000
# 4 0.0000 0.0000 0.0000 28.4631 0.0000 0.0000
# 5 0.0000 0.0000 0.0000 0.0000 28.4631 0.0000
# 6 0.0000 0.0000 0.0000 0.0000 0.0000 55.4361
#
#
#
# Elastic Compliance Matrix: (Units=1/GPa)
#
#
# Indices 1 2 3 4 5 6 
#
# 1 0.007518 -0.002017 -0.002301 0.000000 0.000000 0.000000
# 2 -0.002017 0.007518 -0.002301 0.000000 0.000000 0.000000
# 3 -0.002301 -0.002301 0.015617 0.000000 0.000000 0.000000
# 4 0.000000 0.000000 0.000000 0.035133 0.000000 0.000000
# 5 0.000000 0.000000 0.000000 0.000000 0.035133 0.000000
# 6 0.000000 0.000000 0.000000 0.000000 0.000000 0.018039
#
#
# Mechanical properties :
#
#
# Convention : Reuss Voigt Hill
#
# Bulk Modulus (GPa) = 57.42176 67.76836 62.59506
# Shear Modulus (GPa) = 36.23199 40.66792 38.44995
#
# Velocity S-wave (km/s) = 3.70306 3.92320 3.81472
# Velocity P-wave (km/s) = 6.32581 6.79487 6.56453
#
# Compressibility (1/GPa) = 0.01741500
#
# Stress axis : x y z
#
# Youngs Moduli (GPa) = 133.01867 133.01867 64.03381
#
# Poissons Ratio (x) = 0.26827 0.14734
# Poissons Ratio (y) = 0.26827 0.14734
# Poissons Ratio (z) = 0.30607 0.30607
#
# Static dielectric constant tensor:
#      x y z
#    x 2.120700 0.000000 0.000000 
#    y 0.000000 2.120700 0.000000 
#    z 0.000000 0.000000 2.258350 
# 
# From -- ./inp_files/816.got.cif
#   From: 2010.05.17/outbox.cif.g08.bks.cpg/sg114_1_cif.got.tgz:816.got - 2010.05.20 11:04:54.
