data_PCOD9556278
_publ_section_title
;
Structure prediction by ZEFSAII (Michael W. Deem and Ramdas Pophale) SiO2 
 PCOD9556278
Probable space group: P -4 21 C
;
_chemical_formula_sum "Si O2"
_cell_formula_units_Z 48
_cell_length_a 11.209309
_cell_length_b 11.209309
_cell_length_c 14.496182
_cell_angle_alpha 90.000000
_cell_angle_beta 90.000000
_cell_angle_gamma 90.000000
_cell_volume 1821.425093
_symmetry_space_group_name_H-M "P -4 21 C"
_symmetry_group_IT_number 114
_symmetry_cell_setting 'tetragonal'
loop_
_space_group_symop_operation_xyz
x,y,z
y,-x,-z
-x,-y,z
-y,x,-z
1/2+x,1/2-y,1/2-z
1/2-x,1/2+y,1/2-z
1/2-y,1/2-x,1/2+z
1/2+y,1/2+x,1/2+z
loop_
_atom_site_type_symbol
_atom_site_label
_atom_site_fract_x
_atom_site_fract_y
_atom_site_fract_z
Si Si1 0.585162 0.265419 0.494502
Si Si2 0.657704 0.061622 0.364706
Si Si3 0.209897 0.730449 0.601813
Si Si4 0.687377 0.756363 0.204230
Si Si5 0.057015 0.885885 0.847437
Si Si6 0.449650 0.879072 0.159717
O O1 0.583433 0.138608 0.440607
O O2 0.725807 0.301667 0.507057
O O3 0.523912 0.292483 0.592984
O O4 0.543345 0.364503 0.422984
O O5 0.776129 0.137063 0.346147
O O6 0.597112 0.078191 0.262374
O O7 0.698639 0.930043 0.395294
O O8 0.259085 0.658305 0.688851
O O9 0.282022 0.856891 0.617611
O O10 0.799627 0.849951 0.205421
O O11 0.570427 0.807687 0.163261
O O12 0.000000 0.000000 0.794724
O O13 0.500000 0.000000 0.112878
#
# Coordination Sequence:
#
# PCOD9556278 Si02
#       6
#     8   8   8   8   8   8
#     4  11  23  40  71 104 146 196 250 301 371 453
#     4  10  25  45  64 105 149 191 248 310 378 458
#     4  11  25  44  70 100 148 200 236 312 370 447
#     4  10  24  43  71 108 142 191 252 306 377 450
#     4  11  22  44  71 108 146 188 254 317 375 443
#     4  11  22  45  72 106 141 187 254 312 372 450
#
# _framework density 26.352989999999998
#
# number of rings (size 3 to 8) (size 9 to 14) (size 15 to 20)
#    0.000    1.333    3.333    1.000    4.667    4.667 
#    0.000    2.500    0.000    0.000    0.000    0.000 
#    0.000    0.000    0.000    0.000    0.000    0.000 
#
# Total GULP energy -267691.740200 kJ/mol
# GULP energy per Si atom -5576.911254 kJ/mol
# Density = 2.629301 g / cm^3
# Si number density = 26.352990 Si / 1000 Ang^3
#
#
#
# Elastic Constant Matrix: (Units=GPa)
#
#
# Indices 1 2 3 4 5 6 
#
# 1 165.0504 64.0392 27.3292 0.0000 0.0000 0.0000
# 2 64.0392 165.0504 27.3292 0.0000 0.0000 0.0000
# 3 27.3292 27.3292 59.9857 0.0000 0.0000 0.0000
# 4 0.0000 0.0000 0.0000 -23.7124 0.0000 0.0000
# 5 0.0000 0.0000 0.0000 0.0000 -23.7124 0.0000
# 6 0.0000 0.0000 0.0000 0.0000 0.0000 54.6394
#
#
#
# Elastic Compliance Matrix: (Units=1/GPa)
#
#
# Indices 1 2 3 4 5 6 
#
# 1 0.007399 -0.002501 -0.002231 0.000000 0.000000 0.000000
# 2 -0.002501 0.007399 -0.002231 0.000000 0.000000 0.000000
# 3 -0.002231 -0.002231 0.018704 0.000000 0.000000 0.000000
# 4 0.000000 0.000000 0.000000 -0.042172 0.000000 0.000000
# 5 0.000000 0.000000 0.000000 0.000000 -0.042172 0.000000
# 6 0.000000 0.000000 0.000000 0.000000 0.000000 0.018302
#
#
# Mechanical properties :
#
#
# Convention : Reuss Voigt Hill
#
# Bulk Modulus (GPa) = 51.08915 69.72020 60.40468
# Shear Modulus (GPa) = -413.59387 19.53551 -197.02918
#
# Velocity S-wave (km/s) = -12.54131 2.72564 -8.65608
# Velocity P-wave (km/s) = 13.79435 6.03483 8.77112
#
# Compressibility (1/GPa) = 0.01957363
#
# Stress axis : x y z
#
# Youngs Moduli (GPa) = 135.15931 135.15931 53.46520
#
# Poissons Ratio (x) = 0.33806 0.11929
# Poissons Ratio (y) = 0.33806 0.11929
# Poissons Ratio (z) = 0.30158 0.30158
#
# Static dielectric constant tensor:
#      x y z
#    x 2.156880 0.000000 0.000000 
#    y 0.000000 2.156880 0.000000 
#    z 0.000000 0.000000 2.167450 
# 
# From -- ./inp_files/3078.got.cif
#   From: 2010.05.17/outbox.cif.g08.bks.cpg/sg114_2_cif.got.tgz:3078.got - 2010.05.20 11:04:54.
