data_PCOD9556068
_publ_section_title
;
Structure prediction by ZEFSAII (Michael W. Deem and Ramdas Pophale) SiO2 
 PCOD9556068
Probable space group: P -4 21 C
;
_chemical_formula_sum "Si O2"
_cell_formula_units_Z 32
_cell_length_a 9.322921
_cell_length_b 9.322921
_cell_length_c 17.285090
_cell_angle_alpha 90.000000
_cell_angle_beta 90.000000
_cell_angle_gamma 90.000000
_cell_volume 1502.365678
_symmetry_space_group_name_H-M "P -4 21 C"
_symmetry_group_IT_number 114
_symmetry_cell_setting 'tetragonal'
loop_
_space_group_symop_operation_xyz
x,y,z
y,-x,-z
-x,-y,z
-y,x,-z
1/2+x,1/2-y,1/2-z
1/2-x,1/2+y,1/2-z
1/2-y,1/2-x,1/2+z
1/2+y,1/2+x,1/2+z
loop_
_atom_site_type_symbol
_atom_site_label
_atom_site_fract_x
_atom_site_fract_y
_atom_site_fract_z
Si Si1 0.500000 0.000000 0.712431
Si Si2 0.739950 0.073738 0.592782
Si Si3 0.500000 0.500000 0.000000
Si Si4 0.047947 0.684808 0.641148
Si Si5 0.419959 0.801541 0.446625
Si Si6 0.000000 0.000000 0.000000
O O1 0.362398 0.987569 0.657970
O O2 0.532835 0.871339 0.772041
O O3 0.849025 0.975689 0.543799
O O4 0.855703 0.177022 0.633329
O O5 0.632376 0.150651 0.531729
O O6 0.131683 0.570249 0.584828
O O7 0.884967 0.688562 0.610101
O O8 0.434892 0.630469 0.449536
#
# Coordination Sequence:
#
# PCOD9556068 Si02
#       6
#     4   8   2   8   8   2
#     4  10  26  44  68 100 148 200 222 290 372 438
#     4  12  23  46  70 104 137 190 239 297 357 423
#     4  12  28  40  78 108 132 180 254 304 348 412
#     4  10  23  47  64 100 150 182 228 298 359 431
#     4  10  21  39  69  98 133 176 237 290 345 409
#     4  12  20  36  70 112 120 180 244 302 348 412
#
# _framework density 21.299738999999999
#
# number of rings (size 3 to 8) (size 9 to 14) (size 15 to 20)
#    0.000    1.500    5.000    1.500    0.000    2.000 
#    9.000    5.000    0.000    0.000    0.000    0.000 
#    0.000    0.000    0.000    0.000    0.000    0.000 
#
# Total GULP energy -178365.332043 kJ/mol
# GULP energy per Si atom -5573.916626 kJ/mol
# Density = 2.125126 g / cm^3
# Si number density = 21.299739 Si / 1000 Ang^3
#
#
#
# Elastic Constant Matrix: (Units=GPa)
#
#
# Indices 1 2 3 4 5 6 
#
# 1 115.2957 45.2062 55.6771 0.0000 0.0000 0.0000
# 2 45.2062 115.2957 55.6771 0.0000 0.0000 0.0000
# 3 55.6771 55.6771 139.8115 0.0000 0.0000 0.0000
# 4 0.0000 0.0000 0.0000 0.4095 0.0000 0.0000
# 5 0.0000 0.0000 0.0000 0.0000 0.4095 0.0000
# 6 0.0000 0.0000 0.0000 0.0000 0.0000 32.4851
#
#
#
# Elastic Compliance Matrix: (Units=1/GPa)
#
#
# Indices 1 2 3 4 5 6 
#
# 1 0.011438 -0.002829 -0.003428 0.000000 0.000000 0.000000
# 2 -0.002829 0.011438 -0.003428 0.000000 0.000000 0.000000
# 3 -0.003428 -0.003428 0.009883 0.000000 0.000000 0.000000
# 4 0.000000 0.000000 0.000000 2.441779 0.000000 0.000000
# 5 0.000000 0.000000 0.000000 0.000000 2.441779 0.000000
# 6 0.000000 0.000000 0.000000 0.000000 0.000000 0.030783
#
#
# Mechanical properties :
#
#
# Convention : Reuss Voigt Hill
#
# Bulk Modulus (GPa) = 74.69594 75.94707 75.32150
# Shear Modulus (GPa) = 1.00585 20.91701 10.96143
#
# Velocity S-wave (km/s) = 0.68794 3.13714 2.27100
# Velocity P-wave (km/s) = 5.98131 6.98970 6.50508
#
# Compressibility (1/GPa) = 0.01338761
#
# Stress axis : x y z
#
# Youngs Moduli (GPa) = 87.42606 87.42606 101.18347
#
# Poissons Ratio (x) = 0.24735 0.34689
# Poissons Ratio (y) = 0.24735 0.34689
# Poissons Ratio (z) = 0.29973 0.29973
#
# Static dielectric constant tensor:
#      x y z
#    x 1.824230 0.000000 0.000000 
#    y 0.000000 1.824230 0.000000 
#    z 0.000000 0.000000 1.773670 
# 
# From -- ./inp_files/2908.got.cif
#   From: 2010.05.17/outbox.cif.g08.bks.cpg/sg114_2_cif.got.tgz:2908.got - 2010.05.20 11:04:54.
