data_PCOD9556841
_publ_section_title
;
Structure prediction by ZEFSAII (Michael W. Deem and Ramdas Pophale) SiO2 
 PCOD9556841
Probable space group: P -4 M 2
;
_chemical_formula_sum "Si O2"
_cell_formula_units_Z 48
_cell_length_a 9.339337
_cell_length_b 9.339337
_cell_length_c 32.094487
_cell_angle_alpha 90.000000
_cell_angle_beta 90.000000
_cell_angle_gamma 90.000000
_cell_volume 2799.384359
_symmetry_space_group_name_H-M "P -4 M 2"
_symmetry_group_IT_number 115
_symmetry_cell_setting 'tetragonal'
loop_
_space_group_symop_operation_xyz
x,y,z
y,-x,-z
-x,-y,z
-y,x,-z
y,x,-z
-y,-x,-z
-x,y,z
x,-y,z
loop_
_atom_site_type_symbol
_atom_site_label
_atom_site_fract_x
_atom_site_fract_y
_atom_site_fract_z
Si Si1 0.328486 0.668845 0.212566
Si Si2 0.165555 0.174490 0.045678
Si Si3 0.827601 0.831363 0.286655
Si Si4 0.835467 0.174021 0.380103
Si Si5 0.669003 0.171806 0.462667
Si Si6 0.328735 0.168523 0.128528
O O1 0.500000 0.689510 0.216910
O O2 0.299651 0.500000 0.211160
O O3 0.249198 0.742059 0.251093
O O4 0.284297 0.743496 0.169220
O O5 0.255090 0.218579 0.085862
O O6 0.000000 0.218140 0.050463
O O7 0.167703 0.000000 0.044301
O O8 0.220434 0.220434 0.000000
O O9 0.788745 0.782491 0.333645
O O10 0.000000 0.819827 0.283446
O O11 0.791250 0.000000 0.282324
O O12 0.736283 0.217561 0.418361
O O13 0.000000 0.220207 0.387070
O O14 0.836870 0.000000 0.379187
O O15 0.749006 0.250995 0.500000
O O16 0.500000 0.199746 0.463647
O O17 0.690654 0.000000 0.466720
O O18 0.500000 0.180277 0.124178
O O19 0.294216 0.000000 0.134637
#
# Coordination Sequence:
#
# PCOD9556841 Si02
#       6
#     8   8   8   8   8   8
#     4  10  21  35  49  68  98 134 168 201 240 288
#     4   8  14  26  45  68  92 117 147 187 236 287
#     4   9  18  33  54  79 102 124 157 202 248 294
#     4   8  15  30  52  76 100 126 159 201 246 290
#     4  10  20  33  51  76 103 132 167 204 243 288
#     4   9  17  30  48  68  90 120 159 199 237 280
#
# _framework density 17.146628
#
# number of rings (size 3 to 8) (size 9 to 14) (size 15 to 20)
#    0.000    3.000    0.000    2.500    0.000    3.667 
#    0.000    5.000    0.000    2.000    0.000    0.000 
#    0.000    0.000    0.000    0.000    0.000    0.000 
#
# Total GULP energy -267483.436975 kJ/mol
# GULP energy per Si atom -5572.571604 kJ/mol
# Density = 1.710760 g / cm^3
# Si number density = 17.146628 Si / 1000 Ang^3
#
#
#
# Elastic Constant Matrix: (Units=GPa)
#
#
# Indices 1 2 3 4 5 6 
#
# 1 46.4667 42.0901 77.0782 0.0000 0.0000 0.0000
# 2 42.0901 46.4683 77.0790 0.0000 0.0000 0.0000
# 3 77.0782 77.0790 216.2964 0.0000 0.0000 0.0000
# 4 0.0000 0.0000 0.0000 -15.9762 0.0000 0.0000
# 5 0.0000 0.0000 0.0000 0.0000 -15.9750 0.0000
# 6 0.0000 0.0000 0.0000 0.0000 0.0000 19.0221
#
#
#
# Elastic Compliance Matrix: (Units=1/GPa)
#
#
# Indices 1 2 3 4 5 6 
#
# 1 0.129098 -0.099353 -0.010600 0.000000 0.000000 0.000000
# 2 -0.099353 0.129091 -0.010598 0.000000 0.000000 0.000000
# 3 -0.010600 -0.010598 0.012177 0.000000 0.000000 0.000000
# 4 0.000000 0.000000 0.000000 -0.062593 0.000000 0.000000
# 5 0.000000 0.000000 0.000000 0.000000 -0.062598 0.000000
# 6 0.000000 0.000000 0.000000 0.000000 0.000000 0.052570
#
#
# Mechanical properties :
#
#
# Convention : Reuss Voigt Hill
#
# Bulk Modulus (GPa) = 34.16939 77.96956 56.06948
# Shear Modulus (GPa) = 11.14577 4.94647 8.04612
#
# Velocity S-wave (km/s) = 2.55233 1.70031 2.16858
# Velocity P-wave (km/s) = 5.35321 7.03034 6.24830
#
# Compressibility (1/GPa) = 0.02926596
#
# Stress axis : x y z
#
# Youngs Moduli (GPa) = 7.74604 7.74648 82.12140
#
# Poissons Ratio (x) = 0.76963 0.87045
# Poissons Ratio (y) = 0.76959 0.87030
# Poissons Ratio (z) = 0.08210 0.08210
#
# Static dielectric constant tensor:
#      x y z
#    x 1.567760 0.000000 0.000000 
#    y 0.000000 1.567760 0.000000 
#    z 0.000000 0.000000 1.579350 
# 
# From -- ./inp_files/5931.got.cif
#   From: 2010.05.17/outbox.cif.g08.bks.cpg/sg115_3_cif.got.tgz:5931.got - 2010.05.20 11:07:42.
