data_PCOD9556513
_publ_section_title
;
Structure prediction by ZEFSAII (Michael W. Deem and Ramdas Pophale) SiO2 
 PCOD9556513
Probable space group: P -4 21 C
;
_chemical_formula_sum "Si O2"
_cell_formula_units_Z 36
_cell_length_a 9.000000
_cell_length_b 9.000000
_cell_length_c 21.000000
_cell_angle_alpha 90.000000
_cell_angle_beta 90.000000
_cell_angle_gamma 90.000000
_cell_volume 1701.000000
_symmetry_space_group_name_H-M "P -4 21 C"
_symmetry_group_IT_number 114
_symmetry_cell_setting 'tetragonal'
loop_
_space_group_symop_operation_xyz
x,y,z
y,-x,-z
-x,-y,z
-y,x,-z
1/2+x,1/2-y,1/2-z
1/2-x,1/2+y,1/2-z
1/2-y,1/2-x,1/2+z
1/2+y,1/2+x,1/2+z
loop_
_atom_site_type_symbol
_atom_site_label
_atom_site_fract_x
_atom_site_fract_y
_atom_site_fract_z
Si Si1 0.988719 0.247505 0.496829
Si Si2 0.695001 0.808446 0.673475
Si Si3 0.000000 0.500000 0.393267
Si Si4 0.027500 0.339398 0.629516
Si Si5 0.903592 0.869800 0.284914
O O1 0.010866 0.355802 0.437897
O O2 0.962179 0.344328 0.559290
O O3 0.854323 0.132371 0.491028
O O4 0.533113 0.851548 0.647550
O O5 0.800294 0.709043 0.628919
O O6 0.699068 0.712394 0.736931
O O7 0.762789 0.971340 0.687328
O O8 0.000000 0.500000 0.661250
O O9 0.947559 0.199857 0.662697
O O10 0.000000 0.000000 0.251984
#
# Coordination Sequence:
#
# PCOD9556513 Si02
#       5
#     8   8   4   8   8
#     4  11  23  43  66  93 129 174 224 270 328 403
#     4  11  24  42  65  98 132 174 220 281 344 397
#     4  12  24  40  68 100 132 168 224 286 334 394
#     4  11  22  41  67  94 127 172 221 271 332 404
#     4  10  24  41  65  96 127 173 222 271 335 403
#
# _framework density 21.164021000000002
#
# number of rings (size 3 to 8) (size 9 to 14) (size 15 to 20)
#    0.000    1.111    3.333    2.667   14.000    0.000 
#    4.000    0.000    0.000    0.000    0.000    0.000 
#    0.000    0.000    0.000    0.000    0.000    0.000 
#
# Total GULP energy -200665.249481 kJ/mol
# GULP energy per Si atom -5574.034708 kJ/mol
# Density = 2.111585 g / cm^3
# Si number density = 21.164021 Si / 1000 Ang^3
#
#
#
# Elastic Constant Matrix: (Units=GPa)
#
#
# Indices 1 2 3 4 5 6 
#
# 1 102.6919 32.1611 15.4244 0.0000 0.0000 0.0000
# 2 32.1611 102.6919 15.4244 0.0000 0.0000 0.0000
# 3 15.4244 15.4244 56.6173 0.0000 0.0000 0.0000
# 4 0.0000 0.0000 0.0000 13.0347 0.0000 0.0000
# 5 0.0000 0.0000 0.0000 0.0000 13.0347 0.0000
# 6 0.0000 0.0000 0.0000 0.0000 0.0000 28.1826
#
#
#
# Elastic Compliance Matrix: (Units=1/GPa)
#
#
# Indices 1 2 3 4 5 6 
#
# 1 0.011043 -0.003135 -0.002154 0.000000 0.000000 0.000000
# 2 -0.003135 0.011043 -0.002154 0.000000 0.000000 0.000000
# 3 -0.002154 -0.002154 0.018836 0.000000 0.000000 0.000000
# 4 0.000000 0.000000 0.000000 0.076718 0.000000 0.000000
# 5 0.000000 0.000000 0.000000 0.000000 0.076718 0.000000
# 6 0.000000 0.000000 0.000000 0.000000 0.000000 0.035483
#
#
# Mechanical properties :
#
#
# Convention : Reuss Voigt Hill
#
# Bulk Modulus (GPa) = 38.40974 43.11345 40.76160
# Shear Modulus (GPa) = 19.73098 24.11646 21.92372
#
# Velocity S-wave (km/s) = 3.05665 3.37931 3.22203
# Velocity P-wave (km/s) = 5.53584 5.97007 5.75705
#
# Compressibility (1/GPa) = 0.02603506
#
# Stress axis : x y z
#
# Youngs Moduli (GPa) = 90.55281 90.55281 53.08879
#
# Poissons Ratio (x) = 0.28388 0.11438
# Poissons Ratio (y) = 0.28388 0.11438
# Poissons Ratio (z) = 0.19510 0.19510
#
# Static dielectric constant tensor:
#      x y z
#    x 1.794560 0.000000 0.000000 
#    y 0.000000 1.794560 0.000000 
#    z 0.000000 0.000000 1.871060 
# 
# From -- ./inp_files/2925.got.cif
#   From: 2010.05.17/outbox.ucp.g08.bks.cvg/sg114_2_cif.got.tgz:2925.got - 2010.06.11 11:33:27.
