data_PCOD9556354
_publ_section_title
;
Structure prediction by ZEFSAII (Michael W. Deem and Ramdas Pophale) SiO2 
 PCOD9556354
Probable space group: P -4 21 C
;
_chemical_formula_sum "Si O2"
_cell_formula_units_Z 40
_cell_length_a 8.848734
_cell_length_b 8.848734
_cell_length_c 23.700971
_cell_angle_alpha 90.000000
_cell_angle_beta 90.000000
_cell_angle_gamma 90.000000
_cell_volume 1855.788243
_symmetry_space_group_name_H-M "P -4 21 C"
_symmetry_group_IT_number 114
_symmetry_cell_setting 'tetragonal'
loop_
_space_group_symop_operation_xyz
x,y,z
y,-x,-z
-x,-y,z
-y,x,-z
1/2+x,1/2-y,1/2-z
1/2-x,1/2+y,1/2-z
1/2-y,1/2-x,1/2+z
1/2+y,1/2+x,1/2+z
loop_
_atom_site_type_symbol
_atom_site_label
_atom_site_fract_x
_atom_site_fract_y
_atom_site_fract_z
Si Si1 0.890678 0.127106 0.638850
Si Si2 0.632442 0.112593 0.413820
Si Si3 0.771261 0.072975 0.520668
Si Si4 0.806623 0.159456 0.217859
Si Si5 0.654139 0.320725 0.314379
O O1 0.777512 0.075961 0.588171
O O2 0.787051 0.219463 0.681545
O O3 0.015714 0.224136 0.605744
O O4 0.000000 0.000000 0.665377
O O5 0.632108 0.124639 0.481757
O O6 0.636594 0.267714 0.379115
O O7 0.500000 0.000000 0.395447
O O8 0.904768 0.181442 0.497567
O O9 0.750240 0.195606 0.280740
O O10 0.985099 0.182412 0.210630
O O11 0.778341 0.987730 0.196667
#
# Coordination Sequence:
#
# PCOD9556354 Si02
#       5
#     8   8   8   8   8
#     4  11  21  41  68  95 131 177 224 273 334 405
#     4  11  21  40  67  92 130 172 221 277 335 400
#     4   9  17  36  62  91 124 166 215 267 323 393
#     4  11  26  44  68  94 138 177 227 284 344 411
#     4  11  26  45  64  98 133 179 228 281 348 409
#
# _framework density 21.554182000000001
#
# number of rings (size 3 to 8) (size 9 to 14) (size 15 to 20)
#    0.000    1.400    6.000    1.200    5.600    0.000 
#    7.200    0.000    0.000    2.400    0.000    0.000 
#    0.000    0.000    0.000    0.000    0.000    0.000 
#
# Total GULP energy -223039.769495 kJ/mol
# GULP energy per Si atom -5575.994237 kJ/mol
# Density = 2.150512 g / cm^3
# Si number density = 21.554182 Si / 1000 Ang^3
#
#
#
# Elastic Constant Matrix: (Units=GPa)
#
#
# Indices 1 2 3 4 5 6 
#
# 1 76.6233 34.7411 25.5606 0.0000 0.0000 0.0000
# 2 34.7411 76.6233 25.5606 0.0000 0.0000 0.0000
# 3 25.5606 25.5606 93.9474 0.0000 0.0000 0.0000
# 4 0.0000 0.0000 0.0000 33.2261 0.0000 0.0000
# 5 0.0000 0.0000 0.0000 0.0000 33.2261 0.0000
# 6 0.0000 0.0000 0.0000 0.0000 0.0000 19.2572
#
#
#
# Elastic Compliance Matrix: (Units=1/GPa)
#
#
# Indices 1 2 3 4 5 6 
#
# 1 0.017069 -0.006808 -0.002792 0.000000 0.000000 0.000000
# 2 -0.006808 0.017069 -0.002792 0.000000 0.000000 0.000000
# 3 -0.002792 -0.002792 0.012163 0.000000 0.000000 0.000000
# 4 0.000000 0.000000 0.000000 0.030097 0.000000 0.000000
# 5 0.000000 0.000000 0.000000 0.000000 0.030097 0.000000
# 6 0.000000 0.000000 0.000000 0.000000 0.000000 0.051929
#
#
# Mechanical properties :
#
#
# Convention : Reuss Voigt Hill
#
# Bulk Modulus (GPa) = 46.47172 46.54652 46.50912
# Shear Modulus (GPa) = 26.26349 27.89735 27.08042
#
# Velocity S-wave (km/s) = 3.49447 3.60153 3.54840
# Velocity P-wave (km/s) = 6.15540 6.23992 6.19781
#
# Compressibility (1/GPa) = 0.02151846
#
# Stress axis : x y z
#
# Youngs Moduli (GPa) = 58.58648 58.58648 82.21388
#
# Poissons Ratio (x) = 0.39884 0.22952
# Poissons Ratio (y) = 0.39884 0.22952
# Poissons Ratio (z) = 0.16356 0.16356
#
# Static dielectric constant tensor:
#      x y z
#    x 1.818350 0.000000 0.000000 
#    y 0.000000 1.818350 0.000000 
#    z 0.000000 0.000000 1.877340 
# 
# From -- ./inp_files/3353.got.cif
#   From: 2010.05.17/outbox.cif.g08.bks.cpg/sg114_2_cif.got.tgz:3353.got - 2010.05.20 11:04:54.
