data_PCOD9556013
_publ_section_title
;
Structure prediction by ZEFSAII (Michael W. Deem and Ramdas Pophale) SiO2 
 PCOD9556013
Probable space group: P -4 21 C
;
_chemical_formula_sum "Si O2"
_cell_formula_units_Z 40
_cell_length_a 14.062632
_cell_length_b 14.062632
_cell_length_c 9.127834
_cell_angle_alpha 90.000000
_cell_angle_beta 90.000000
_cell_angle_gamma 90.000000
_cell_volume 1805.098716
_symmetry_space_group_name_H-M "P -4 21 C"
_symmetry_group_IT_number 114
_symmetry_cell_setting 'tetragonal'
loop_
_space_group_symop_operation_xyz
x,y,z
y,-x,-z
-x,-y,z
-y,x,-z
1/2+x,1/2-y,1/2-z
1/2-x,1/2+y,1/2-z
1/2-y,1/2-x,1/2+z
1/2+y,1/2+x,1/2+z
loop_
_atom_site_type_symbol
_atom_site_label
_atom_site_fract_x
_atom_site_fract_y
_atom_site_fract_z
Si Si1 0.214068 0.276467 0.136229
Si Si2 0.366625 0.429772 0.489268
Si Si3 0.894290 0.318972 0.239572
Si Si4 0.177019 0.416096 0.896131
Si Si5 0.826597 0.487706 0.421304
O O1 0.156199 0.182787 0.079238
O O2 0.305935 0.248600 0.227698
O O3 0.138466 0.323834 0.242517
O O4 0.236761 0.350779 0.007174
O O5 0.393897 0.530806 0.569620
O O6 0.276726 0.463835 0.392228
O O7 0.858944 0.422974 0.287972
O O8 0.928668 0.318465 0.072634
O O9 0.978427 0.293778 0.353963
O O10 0.069268 0.404271 0.949695
#
# Coordination Sequence:
#
# PCOD9556013 Si02
#       5
#     8   8   8   8   8
#     4  11  24  43  69 103 136 185 236 289 351 423
#     4  10  20  42  68 102 136 179 233 280 339 421
#     4  12  24  44  68  99 146 179 236 288 359 410
#     4  11  24  43  66 100 137 180 234 285 356 421
#     4  11  25  40  67 101 136 187 223 287 349 426
#
# _framework density 22.159452000000002
#
# number of rings (size 3 to 8) (size 9 to 14) (size 15 to 20)
#    0.000    1.000    6.000    1.800    5.600    1.600 
#    0.000    0.000    0.000    0.600    0.000    0.000 
#    0.000    0.000    0.000    0.000    0.000    0.000 
#
# Total GULP energy -223205.121855 kJ/mol
# GULP energy per Si atom -5580.128046 kJ/mol
# Density = 2.210902 g / cm^3
# Si number density = 22.159452 Si / 1000 Ang^3
#
#
#
# Elastic Constant Matrix: (Units=GPa)
#
#
# Indices 1 2 3 4 5 6 
#
# 1 118.4585 17.6687 22.8840 0.0000 0.0000 0.0000
# 2 17.6687 118.4585 22.8840 0.0000 0.0000 0.0000
# 3 22.8840 22.8840 63.5267 0.0000 0.0000 0.0000
# 4 0.0000 0.0000 0.0000 29.6713 0.0000 0.0000
# 5 0.0000 0.0000 0.0000 0.0000 29.6713 0.0000
# 6 0.0000 0.0000 0.0000 0.0000 0.0000 30.4205
#
#
#
# Elastic Compliance Matrix: (Units=1/GPa)
#
#
# Indices 1 2 3 4 5 6 
#
# 1 0.009140 -0.000782 -0.003011 0.000000 0.000000 0.000000
# 2 -0.000782 0.009140 -0.003011 0.000000 0.000000 0.000000
# 3 -0.003011 -0.003011 0.017911 0.000000 0.000000 0.000000
# 4 0.000000 0.000000 0.000000 0.033703 0.000000 0.000000
# 5 0.000000 0.000000 0.000000 0.000000 0.033703 0.000000
# 6 0.000000 0.000000 0.000000 0.000000 0.000000 0.032873
#
#
# Mechanical properties :
#
#
# Convention : Reuss Voigt Hill
#
# Bulk Modulus (GPa) = 44.27960 47.47966 45.87963
# Shear Modulus (GPa) = 31.72523 33.75308 32.73915
#
# Velocity S-wave (km/s) = 3.78786 3.90704 3.84791
# Velocity P-wave (km/s) = 6.25749 6.46732 6.36327
#
# Compressibility (1/GPa) = 0.02258377
#
# Stress axis : x y z
#
# Youngs Moduli (GPa) = 109.40905 109.40905 55.83278
#
# Poissons Ratio (x) = 0.08552 0.16811
# Poissons Ratio (y) = 0.08552 0.16811
# Poissons Ratio (z) = 0.32942 0.32942
#
# Static dielectric constant tensor:
#      x y z
#    x 1.882770 0.000000 0.000000 
#    y 0.000000 1.882770 0.000000 
#    z 0.000000 0.000000 1.798290 
# 
# From -- ./inp_files/778.got.cif
#   From: 2010.05.17/outbox.cif.g08.bks.cpg/sg114_1_cif.got.tgz:778.got - 2010.05.20 11:04:54.
