data_PCOD9556674
_publ_section_title
;
Structure prediction by ZEFSAII (Michael W. Deem and Ramdas Pophale) SiO2 
 PCOD9556674
Probable space group: P -4 M 2
;
_chemical_formula_sum "Si O2"
_cell_formula_units_Z 40
_cell_length_a 14.539963
_cell_length_b 14.539963
_cell_length_c 10.102607
_cell_angle_alpha 90.000000
_cell_angle_beta 90.000000
_cell_angle_gamma 90.000000
_cell_volume 2135.797440
_symmetry_space_group_name_H-M "P -4 M 2"
_symmetry_group_IT_number 115
_symmetry_cell_setting 'tetragonal'
loop_
_space_group_symop_operation_xyz
x,y,z
y,-x,-z
-x,-y,z
-y,x,-z
y,x,-z
-y,-x,-z
-x,y,z
x,-y,z
loop_
_atom_site_type_symbol
_atom_site_label
_atom_site_fract_x
_atom_site_fract_y
_atom_site_fract_z
Si Si1 0.159111 0.902662 0.863744
Si Si2 0.104464 0.362513 0.010803
Si Si3 0.807911 0.292588 0.747622
Si Si4 0.607584 0.107351 0.500352
Si Si5 0.600778 0.764962 0.756223
O O1 0.261520 0.901706 0.923943
O O2 0.155011 0.811281 0.775487
O O3 0.141514 0.000000 0.794724
O O4 0.102530 0.897471 0.000000
O O5 0.178161 0.406569 0.108099
O O6 0.000000 0.398721 0.008793
O O7 0.146246 0.352269 0.864866
O O8 0.842439 0.330737 0.608516
O O9 0.696374 0.291845 0.758451
O O10 0.500000 0.111457 0.459819
O O11 0.614381 0.160667 0.638964
O O12 0.632469 0.000000 0.514748
O O13 0.500000 0.719108 0.733710
#
# Coordination Sequence:
#
# PCOD9556674 Si02
#       5
#     8   8   8   8   8
#     4   8  15  27  44  69 101 136 172 209 254 312
#     4   9  17  31  52  76 102 133 171 217 266 314
#     4  10  19  34  54  79 108 139 177 223 270 312
#     4  10  21  36  54  78 108 141 179 226 276 318
#     4  10  20  34  53  78 110 146 179 211 259 324
#
# _framework density 18.728366999999999
#
# number of rings (size 3 to 8) (size 9 to 14) (size 15 to 20)
#    0.000    2.600    0.000    3.600    0.000    3.800 
#    0.000    0.000    0.000    0.600    0.000    2.800 
#    0.000    3.200    0.000    0.000    0.000    0.000 
#
# Total GULP energy -222762.051956 kJ/mol
# GULP energy per Si atom -5569.051299 kJ/mol
# Density = 1.868574 g / cm^3
# Si number density = 18.728367 Si / 1000 Ang^3
#
#
#
# Elastic Constant Matrix: (Units=GPa)
#
#
# Indices 1 2 3 4 5 6 
#
# 1 56.9820 0.3067 7.8535 0.0000 0.0000 0.0000
# 2 0.3067 56.9821 7.8532 0.0000 0.0000 0.0000
# 3 7.8535 7.8532 57.1467 0.0000 0.0000 0.0000
# 4 0.0000 0.0000 0.0000 21.1856 0.0000 0.0000
# 5 0.0000 0.0000 0.0000 0.0000 21.1855 0.0000
# 6 0.0000 0.0000 0.0000 0.0000 0.0000 29.4193
#
#
#
# Elastic Compliance Matrix: (Units=1/GPa)
#
#
# Indices 1 2 3 4 5 6 
#
# 1 0.017892 0.000247 -0.002493 0.000000 0.000000 0.000000
# 2 0.000247 0.017892 -0.002493 0.000000 0.000000 0.000000
# 3 -0.002493 -0.002493 0.018184 0.000000 0.000000 0.000000
# 4 0.000000 0.000000 0.000000 0.047202 0.000000 0.000000
# 5 0.000000 0.000000 0.000000 0.000000 0.047202 0.000000
# 6 0.000000 0.000000 0.000000 0.000000 0.000000 0.033991
#
#
# Mechanical properties :
#
#
# Convention : Reuss Voigt Hill
#
# Bulk Modulus (GPa) = 22.47658 22.57086 22.52372
# Shear Modulus (GPa) = 24.19326 24.69790 24.44558
#
# Velocity S-wave (km/s) = 3.59806 3.63539 3.61677
# Velocity P-wave (km/s) = 5.41191 5.44970 5.43084
#
# Compressibility (1/GPa) = 0.04449074
#
# Stress axis : x y z
#
# Youngs Moduli (GPa) = 55.89201 55.89223 54.99358
#
# Poissons Ratio (x) = -0.01382 0.13709
# Poissons Ratio (y) = -0.01382 0.13708
# Poissons Ratio (z) = 0.13933 0.13932
#
# Static dielectric constant tensor:
#      x y z
#    x 1.746740 0.000000 0.000000 
#    y 0.000000 1.746730 0.000000 
#    z 0.000000 0.000000 1.617580 
# 
# From -- ./inp_files/1634.got.cif
#   From: 2010.05.17/outbox.cif.g08.bks.cpg/sg115_1_cif.got.tgz:1634.got - 2010.05.20 11:07:42.
