data_PCOD9556072
_publ_section_title
;
Structure prediction by ZEFSAII (Michael W. Deem and Ramdas Pophale) SiO2 
 PCOD9556072
Probable space group: P -4 21 C
;
_chemical_formula_sum "Si O2"
_cell_formula_units_Z 32
_cell_length_a 13.134404
_cell_length_b 13.134404
_cell_length_c 8.053110
_cell_angle_alpha 90.000000
_cell_angle_beta 90.000000
_cell_angle_gamma 90.000000
_cell_volume 1389.262690
_symmetry_space_group_name_H-M "P -4 21 C"
_symmetry_group_IT_number 114
_symmetry_cell_setting 'tetragonal'
loop_
_space_group_symop_operation_xyz
x,y,z
y,-x,-z
-x,-y,z
-y,x,-z
1/2+x,1/2-y,1/2-z
1/2-x,1/2+y,1/2-z
1/2-y,1/2-x,1/2+z
1/2+y,1/2+x,1/2+z
loop_
_atom_site_type_symbol
_atom_site_label
_atom_site_fract_x
_atom_site_fract_y
_atom_site_fract_z
Si Si1 0.387572 0.275377 0.188433
Si Si2 0.877022 0.773636 0.006680
Si Si3 0.427840 0.744412 0.988475
Si Si4 0.749693 0.920810 0.179295
O O1 0.332088 0.321507 0.351308
O O2 0.336995 0.164590 0.161133
O O3 0.356313 0.362979 0.054837
O O4 0.506017 0.256622 0.155194
O O5 0.993740 0.757607 0.962427
O O6 0.827467 0.662158 0.020232
O O7 0.848614 0.849921 0.155559
O O8 0.511939 0.762346 0.844203
#
# Coordination Sequence:
#
# PCOD9556072 Si02
#       4
#     8   8   8   8
#     4  10  22  42  65  91 129 171 217 271 328 392
#     4  10  23  40  63  95 128 169 221 270 323 393
#     4  10  22  42  65  94 130 171 219 273 329 392
#     4  10  21  40  63  92 131 171 217 272 326 391
#
# _framework density 23.033798000000001
#
# number of rings (size 3 to 8) (size 9 to 14) (size 15 to 20)
#    0.000    2.000    0.000    3.000    0.000   10.000 
#    0.000   12.500    0.000    0.000    0.000    0.000 
#    0.000    0.000    0.000    0.000    0.000    0.000 
#
# Total GULP energy -178525.770795 kJ/mol
# GULP energy per Si atom -5578.930337 kJ/mol
# Density = 2.298137 g / cm^3
# Si number density = 23.033798 Si / 1000 Ang^3
#
#
#
# Elastic Constant Matrix: (Units=GPa)
#
#
# Indices 1 2 3 4 5 6 
#
# 1 153.8275 52.6052 51.2058 0.0000 0.0000 0.0000
# 2 52.6052 153.8275 51.2058 0.0000 0.0000 0.0000
# 3 51.2058 51.2058 100.7900 0.0000 0.0000 0.0000
# 4 0.0000 0.0000 0.0000 31.1008 0.0000 0.0000
# 5 0.0000 0.0000 0.0000 0.0000 31.1008 0.0000
# 6 0.0000 0.0000 0.0000 0.0000 0.0000 -5.7686
#
#
#
# Elastic Compliance Matrix: (Units=1/GPa)
#
#
# Indices 1 2 3 4 5 6 
#
# 1 0.008178 -0.001701 -0.003290 0.000000 0.000000 0.000000
# 2 -0.001701 0.008178 -0.003290 0.000000 0.000000 0.000000
# 3 -0.003290 -0.003290 0.013265 0.000000 0.000000 0.000000
# 4 0.000000 0.000000 0.000000 0.032154 0.000000 0.000000
# 5 0.000000 0.000000 0.000000 0.000000 0.032154 0.000000
# 6 0.000000 0.000000 0.000000 0.000000 0.000000 -0.173352
#
#
# Mechanical properties :
#
#
# Convention : Reuss Voigt Hill
#
# Bulk Modulus (GPa) = 76.58998 79.83095 78.21046
# Shear Modulus (GPa) = -85.45801 28.18181 -28.63810
#
# Velocity S-wave (km/s) = -6.09768 3.50165 -3.52988
# Velocity P-wave (km/s) = 4.03141 7.14718 4.17312
#
# Compressibility (1/GPa) = 0.01305654
#
# Stress axis : x y z
#
# Youngs Moduli (GPa) = 122.28081 122.28081 75.38675
#
# Poissons Ratio (x) = 0.20804 0.24805
# Poissons Ratio (y) = 0.20804 0.24805
# Poissons Ratio (z) = 0.40235 0.40235
#
# Static dielectric constant tensor:
#      x y z
#    x 1.812900 0.000000 0.000000 
#    y 0.000000 1.812900 0.000000 
#    z 0.000000 0.000000 2.155500 
# 
# From -- ./inp_files/658.got.cif
#   From: 2010.05.17/outbox.cif.g08.bks.cpg/sg114_1_cif.got.tgz:658.got - 2010.05.20 11:04:54.
