data_PCOD9556867
_publ_section_title
;
Structure prediction by ZEFSAII (Michael W. Deem and Ramdas Pophale) SiO2 
 PCOD9556867
Probable space group: P -4 M 2
;
_chemical_formula_sum "Si O2"
_cell_formula_units_Z 48
_cell_length_a 9.326932
_cell_length_b 9.326932
_cell_length_c 32.065735
_cell_angle_alpha 90.000000
_cell_angle_beta 90.000000
_cell_angle_gamma 90.000000
_cell_volume 2789.451534
_symmetry_space_group_name_H-M "P -4 M 2"
_symmetry_group_IT_number 115
_symmetry_cell_setting 'tetragonal'
loop_
_space_group_symop_operation_xyz
x,y,z
y,-x,-z
-x,-y,z
-y,x,-z
y,x,-z
-y,-x,-z
-x,y,z
x,-y,z
loop_
_atom_site_type_symbol
_atom_site_label
_atom_site_fract_x
_atom_site_fract_y
_atom_site_fract_z
Si Si1 0.331726 0.672441 0.378297
Si Si2 0.334167 0.325098 0.953941
Si Si3 0.325183 0.835347 0.127821
Si Si4 0.674591 0.164931 0.705142
Si Si5 0.828261 0.831105 0.547821
Si Si6 0.328718 0.670211 0.788515
O O1 0.500000 0.705092 0.375102
O O2 0.316476 0.500000 0.381852
O O3 0.250042 0.719198 0.336220
O O4 0.261753 0.746710 0.418217
O O5 0.500000 0.281475 0.948572
O O6 0.333339 0.500000 0.954623
O O7 0.241337 0.277109 0.914689
O O8 0.281391 0.281391 0.000000
O O9 0.500000 0.832402 0.127170
O O10 0.282555 0.750602 0.169431
O O11 0.279704 0.000000 0.129354
O O12 0.500000 0.166223 0.705287
O O13 0.718972 0.243872 0.747604
O O14 0.721492 0.000000 0.703900
O O15 0.791861 0.791861 0.500000
O O16 0.000000 0.815176 0.552228
O O17 0.794892 0.000000 0.553570
O O18 0.500000 0.688780 0.793792
O O19 0.303302 0.500000 0.782236
#
# Coordination Sequence:
#
# PCOD9556867 Si02
#       6
#     8   8   8   8   8   8
#     4  10  20  33  51  77 106 132 161 200 245 292
#     4   8  13  22  38  60  84 111 146 185 221 261
#     4   9  16  25  39  62  91 118 144 180 227 273
#     4   9  17  30  49  71  94 123 160 199 237 278
#     4   9  19  36  55  74  99 133 171 207 243 286
#     4   9  16  27  45  67  90 117 150 188 230 276
#
# _framework density 17.207685000000001
#
# number of rings (size 3 to 8) (size 9 to 14) (size 15 to 20)
#    0.000    3.000    0.000    2.500    0.000    6.000 
#    0.000    3.333    0.000    4.500    0.000    4.667 
#    0.000    0.000    0.000    0.000    0.000    0.000 
#
# Total GULP energy -267496.551122 kJ/mol
# GULP energy per Si atom -5572.844815 kJ/mol
# Density = 1.716852 g / cm^3
# Si number density = 17.207685 Si / 1000 Ang^3
#
#
#
# Elastic Constant Matrix: (Units=GPa)
#
#
# Indices 1 2 3 4 5 6 
#
# 1 56.1587 40.2074 80.2006 0.0000 0.0000 0.0000
# 2 40.2074 56.1587 80.2006 0.0000 0.0000 0.0000
# 3 80.2006 80.2006 211.8891 0.0000 0.0000 0.0000
# 4 0.0000 0.0000 0.0000 -11.7225 0.0000 0.0000
# 5 0.0000 0.0000 0.0000 0.0000 -11.7225 0.0000
# 6 0.0000 0.0000 0.0000 0.0000 0.0000 15.0761
#
#
#
# Elastic Compliance Matrix: (Units=1/GPa)
#
#
# Indices 1 2 3 4 5 6 
#
# 1 0.045369 -0.017322 -0.010616 0.000000 0.000000 0.000000
# 2 -0.017322 0.045369 -0.010616 0.000000 0.000000 0.000000
# 3 -0.010616 -0.010616 0.012756 0.000000 0.000000 0.000000
# 4 0.000000 0.000000 0.000000 -0.085306 0.000000 0.000000
# 5 0.000000 0.000000 0.000000 0.000000 -0.085306 0.000000
# 6 0.000000 0.000000 0.000000 0.000000 0.000000 0.066330
#
#
# Mechanical properties :
#
#
# Convention : Reuss Voigt Hill
#
# Bulk Modulus (GPa) = 37.89798 80.60261 59.25030
# Shear Modulus (GPa) = 58.74351 6.56607 32.65479
#
# Velocity S-wave (km/s) = 5.84911 1.95552 4.36097
# Velocity P-wave (km/s) = 8.22726 7.21398 7.73722
#
# Compressibility (1/GPa) = 0.02638663
#
# Stress axis : x y z
#
# Youngs Moduli (GPa) = 22.04142 22.04142 78.39546
#
# Poissons Ratio (x) = 0.38179 0.83225
# Poissons Ratio (y) = 0.38179 0.83225
# Poissons Ratio (z) = 0.23399 0.23399
#
# Static dielectric constant tensor:
#      x y z
#    x 1.569710 0.000000 0.000000 
#    y 0.000000 1.569710 0.000000 
#    z 0.000000 0.000000 1.574440 
# 
# From -- ./inp_files/6121.got.cif
#   From: 2010.05.17/outbox.cif.g08.bks.cpg/sg115_4_cif.got.tgz:6121.got - 2010.05.20 11:07:42.
