data_PCOD9556587
_publ_section_title
;
Structure prediction by ZEFSAII (Michael W. Deem and Ramdas Pophale) SiO2 
 PCOD9556587
Probable space group: P -4 M 2
;
_chemical_formula_sum "Si O2"
_cell_formula_units_Z 56
_cell_length_a 15.342539
_cell_length_b 15.342539
_cell_length_c 14.540653
_cell_angle_alpha 90.000000
_cell_angle_beta 90.000000
_cell_angle_gamma 90.000000
_cell_volume 3422.775245
_symmetry_space_group_name_H-M "P -4 M 2"
_symmetry_group_IT_number 115
_symmetry_cell_setting 'tetragonal'
loop_
_space_group_symop_operation_xyz
x,y,z
y,-x,-z
-x,-y,z
-y,x,-z
y,x,-z
-y,-x,-z
-x,y,z
x,-y,z
loop_
_atom_site_type_symbol
_atom_site_label
_atom_site_fract_x
_atom_site_fract_y
_atom_site_fract_z
Si Si1 0.603745 0.093665 0.561583
Si Si2 0.345026 0.269821 0.257326
Si Si3 0.265674 0.400542 0.537886
Si Si4 0.895912 0.605333 0.851826
Si Si5 0.901172 0.605105 0.062167
Si Si6 0.401059 0.603309 0.901919
Si Si7 0.812625 0.396360 0.253422
O O1 0.500000 0.090421 0.542105
O O2 0.636581 0.175851 0.504026
O O3 0.611397 0.112004 0.670360
O O4 0.642062 0.000000 0.537149
O O5 0.396934 0.264284 0.352230
O O6 0.345790 0.173243 0.213098
O O7 0.383275 0.334861 0.180358
O O8 0.257002 0.322888 0.280603
O O9 0.344802 0.344802 0.500000
O O10 0.274690 0.500000 0.505923
O O11 0.882409 0.500000 0.841858
O O12 0.000000 0.620756 0.835799
O O13 0.876162 0.630240 0.958334
O O14 0.904509 0.500000 0.059828
O O15 0.841087 0.625096 0.149196
O O16 0.000000 0.636425 0.079415
O O17 0.500000 0.637177 0.884657
O O18 0.408544 0.500000 0.915406
O O19 0.364405 0.635596 0.000000
O O20 0.785705 0.500000 0.257922
#
# Coordination Sequence:
#
# PCOD9556587 Si02
#       7
#     8   8   8   8   8   8   8
#     4   9  18  35  57  76  97 129 171 219 265 305
#     4  12  22  32  50  73 102 135 170 212 259 302
#     4  11  23  38  51  71 102 137 179 217 255 304
#     4   9  19  34  49  68  96 134 178 214 251 301
#     4   8  15  29  48  70  99 134 169 208 255 303
#     4   9  19  33  46  65  96 136 180 213 238 282
#     4  10  19  30  49  78 107 133 167 210 256 309
#
# _framework density 16.360993000000001
#
# number of rings (size 3 to 8) (size 9 to 14) (size 15 to 20)
#    0.000    2.286    1.429    3.429    2.000    3.000 
#    0.000    1.429    0.000    0.000    0.000    0.000 
#    0.000    3.714    0.000    6.286    0.000    0.000 
#
# Total GULP energy -311744.832113 kJ/mol
# GULP energy per Si atom -5566.872002 kJ/mol
# Density = 1.632375 g / cm^3
# Si number density = 16.360993 Si / 1000 Ang^3
#
#
#
# Elastic Constant Matrix: (Units=GPa)
#
#
# Indices 1 2 3 4 5 6 
#
# 1 66.9341 28.0124 23.4989 0.0000 0.0000 0.0000
# 2 28.0124 66.9341 23.4988 0.0000 0.0000 0.0000
# 3 23.4989 23.4988 83.7744 0.0000 0.0000 0.0000
# 4 0.0000 0.0000 0.0000 14.0430 0.0000 0.0000
# 5 0.0000 0.0000 0.0000 0.0000 14.0430 0.0000
# 6 0.0000 0.0000 0.0000 0.0000 0.0000 1.8291
#
#
#
# Elastic Compliance Matrix: (Units=1/GPa)
#
#
# Indices 1 2 3 4 5 6 
#
# 1 0.018961 -0.006731 -0.003431 0.000000 0.000000 0.000000
# 2 -0.006731 0.018961 -0.003431 0.000000 0.000000 0.000000
# 3 -0.003431 -0.003431 0.013861 0.000000 0.000000 0.000000
# 4 0.000000 0.000000 0.000000 0.071210 0.000000 0.000000
# 5 0.000000 0.000000 0.000000 0.000000 0.071210 0.000000
# 6 0.000000 0.000000 0.000000 0.000000 0.000000 0.546718
#
#
# Mechanical properties :
#
#
# Convention : Reuss Voigt Hill
#
# Bulk Modulus (GPa) = 40.65101 40.85140 40.75120
# Shear Modulus (GPa) = 6.44075 15.49187 10.96631
#
# Velocity S-wave (km/s) = 1.98625 3.08048 2.59177
# Velocity P-wave (km/s) = 5.49186 6.13803 5.82391
#
# Compressibility (1/GPa) = 0.02459964
#
# Stress axis : x y z
#
# Youngs Moduli (GPa) = 52.73848 52.73849 72.14270
#
# Poissons Ratio (x) = 0.35499 0.24750
# Poissons Ratio (y) = 0.35499 0.24749
# Poissons Ratio (z) = 0.18093 0.18093
#
# Static dielectric constant tensor:
#      x y z
#    x 1.567410 0.000000 0.000000 
#    y 0.000000 1.567410 0.000000 
#    z 0.000000 0.000000 1.595650 
# 
# From -- ./inp_files/3783.got.cif
#   From: 2010.05.17/outbox.cif.g08.bks.cpg/sg115_2_cif.got.tgz:3783.got - 2010.05.20 11:07:42.
