data_PCOD9556945
_publ_section_title
;
Structure prediction by ZEFSAII (Michael W. Deem and Ramdas Pophale) SiO2 
 PCOD9556945
Probable space group: P -4 M 2
;
_chemical_formula_sum "Si O2"
_cell_formula_units_Z 40
_cell_length_a 9.099511
_cell_length_b 9.099511
_cell_length_c 26.796705
_cell_angle_alpha 90.000000
_cell_angle_beta 90.000000
_cell_angle_gamma 90.000000
_cell_volume 2218.796662
_symmetry_space_group_name_H-M "P -4 M 2"
_symmetry_group_IT_number 115
_symmetry_cell_setting 'tetragonal'
loop_
_space_group_symop_operation_xyz
x,y,z
y,-x,-z
-x,-y,z
-y,x,-z
y,x,-z
-y,-x,-z
-x,y,z
x,-y,z
loop_
_atom_site_type_symbol
_atom_site_label
_atom_site_fract_x
_atom_site_fract_y
_atom_site_fract_z
Si Si1 0.170302 0.820705 0.554870
Si Si2 0.674983 0.825401 0.047562
Si Si3 0.179013 0.168477 0.244408
Si Si4 0.326328 0.176505 0.857898
Si Si5 0.668902 0.820527 0.655197
O O1 0.225445 0.774556 0.500000
O O2 0.261779 0.772189 0.602741
O O3 0.000000 0.776971 0.560837
O O4 0.172200 0.000000 0.553755
O O5 0.500000 0.801361 0.045898
O O6 0.742429 0.756199 0.097517
O O7 0.702232 0.000000 0.046553
O O8 0.750125 0.750125 0.000000
O O9 0.221444 0.260765 0.195710
O O10 0.228051 0.240157 0.296397
O O11 0.000000 0.168807 0.245460
O O12 0.227195 0.000000 0.240171
O O13 0.500000 0.205654 0.859878
O O14 0.305517 0.000000 0.863196
O O15 0.500000 0.776061 0.659555
O O16 0.672892 0.000000 0.654962
#
# Coordination Sequence:
#
# PCOD9556945 Si02
#       5
#     8   8   8   8   8
#     4   8  13  21  33  50  75 109 147 185 229 286
#     4  11  24  40  58  81 107 136 172 212 254 302
#     4   9  16  26  42  65  95 131 167 203 247 298
#     4  10  20  34  53  78 107 138 173 212 254 302
#     4   9  15  22  34  56  87 119 151 193 245 295
#
# _framework density 18.027791000000001
#
# number of rings (size 3 to 8) (size 9 to 14) (size 15 to 20)
#    0.000    2.600    0.000    3.600    0.000   10.000 
#    0.000    0.000    0.000    0.000    0.000    1.400 
#    0.000    8.400    0.000    0.000    0.000    0.000 
#
# Total GULP energy -223106.238411 kJ/mol
# GULP energy per Si atom -5577.655960 kJ/mol
# Density = 1.798676 g / cm^3
# Si number density = 18.027791 Si / 1000 Ang^3
#
#
#
# Elastic Constant Matrix: (Units=GPa)
#
#
# Indices 1 2 3 4 5 6 
#
# 1 70.6523 52.9070 72.7724 0.0000 0.0000 0.0000
# 2 52.9070 70.6525 72.7724 0.0000 0.0000 0.0000
# 3 72.7724 72.7724 200.3185 0.0000 0.0000 0.0000
# 4 0.0000 0.0000 0.0000 -13.3132 0.0000 0.0000
# 5 0.0000 0.0000 0.0000 0.0000 -13.3132 0.0000
# 6 0.0000 0.0000 0.0000 0.0000 0.0000 13.3515
#
#
#
# Elastic Compliance Matrix: (Units=1/GPa)
#
#
# Indices 1 2 3 4 5 6 
#
# 1 0.035250 -0.021103 -0.005139 0.000000 0.000000 0.000000
# 2 -0.021103 0.035250 -0.005139 0.000000 0.000000 0.000000
# 3 -0.005139 -0.005139 0.008726 0.000000 0.000000 0.000000
# 4 0.000000 0.000000 0.000000 -0.075113 0.000000 0.000000
# 5 0.000000 0.000000 0.000000 0.000000 -0.075114 0.000000
# 6 0.000000 0.000000 0.000000 0.000000 0.000000 0.074898
#
#
# Mechanical properties :
#
#
# Convention : Reuss Voigt Hill
#
# Bulk Modulus (GPa) = 60.74297 82.05856 71.40077
# Shear Modulus (GPa) = 69.30224 6.88979 38.09601
#
# Velocity S-wave (km/s) = 6.20688 1.95705 4.60192
# Velocity P-wave (km/s) = 9.22683 7.12203 8.24190
#
# Compressibility (1/GPa) = 0.01646281
#
# Stress axis : x y z
#
# Youngs Moduli (GPa) = 28.36885 28.36894 114.59746
#
# Poissons Ratio (x) = 0.59866 0.58897
# Poissons Ratio (y) = 0.59866 0.58897
# Poissons Ratio (z) = 0.14580 0.14580
#
# Static dielectric constant tensor:
#      x y z
#    x 1.600850 0.000000 0.000000 
#    y 0.000000 1.600850 0.000000 
#    z 0.000000 0.000000 1.606730 
# 
# From -- ./inp_files/5067.got.cif
#   From: 2010.05.17/outbox.cif.g08.bks.cpg/sg115_3_cif.got.tgz:5067.got - 2010.05.20 11:07:42.
