data_PCOD9556369
_publ_section_title
;
Structure prediction by ZEFSAII (Michael W. Deem and Ramdas Pophale) SiO2 
 PCOD9556369
Probable space group: P -4 21 C
;
_chemical_formula_sum "Si O2"
_cell_formula_units_Z 28
_cell_length_a 7.830172
_cell_length_b 7.830172
_cell_length_c 19.033223
_cell_angle_alpha 90.000000
_cell_angle_beta 90.000000
_cell_angle_gamma 90.000000
_cell_volume 1166.957233
_symmetry_space_group_name_H-M "P -4 21 C"
_symmetry_group_IT_number 114
_symmetry_cell_setting 'tetragonal'
loop_
_space_group_symop_operation_xyz
x,y,z
y,-x,-z
-x,-y,z
-y,x,-z
1/2+x,1/2-y,1/2-z
1/2-x,1/2+y,1/2-z
1/2-y,1/2-x,1/2+z
1/2+y,1/2+x,1/2+z
loop_
_atom_site_type_symbol
_atom_site_label
_atom_site_fract_x
_atom_site_fract_y
_atom_site_fract_z
Si Si1 0.173346 0.602766 0.765743
Si Si2 0.500000 0.500000 0.842673
Si Si3 0.775608 0.100496 0.462366
Si Si4 0.441411 0.690352 0.364876
O O1 0.332383 0.502029 0.797655
O O2 0.215742 0.585757 0.682502
O O3 0.173075 0.774974 0.812767
O O4 0.000000 0.500000 0.776967
O O5 0.490482 0.662880 0.891658
O O6 0.614891 0.208767 0.435714
O O7 0.939642 0.221415 0.483806
O O8 0.500000 0.500000 0.382271
#
# Coordination Sequence:
#
# PCOD9556369 Si02
#       4
#     8   4   8   8
#     4  11  22  36  62 110 157 189 225 307 394 462
#     4   8  17  36  62 102 150 181 244 290 372 462
#     4   8  17  38  71 109 136 199 254 302 368 446
#     4  11  22  40  67 116 152 189 247 311 383 470
#
# _framework density 23.994021
#
# number of rings (size 3 to 8) (size 9 to 14) (size 15 to 20)
#    0.000    2.571    1.429    1.714    4.000    0.000 
#    0.000    0.000    0.000   15.429   55.714    0.000 
#    0.000    0.000    0.000    0.000    0.000    0.000 
#
# Total GULP energy -156087.767614 kJ/mol
# GULP energy per Si atom -5574.563129 kJ/mol
# Density = 2.393941 g / cm^3
# Si number density = 23.994021 Si / 1000 Ang^3
#
#
#
# Elastic Constant Matrix: (Units=GPa)
#
#
# Indices 1 2 3 4 5 6 
#
# 1 104.8872 33.7968 46.8704 0.0000 0.0000 0.0000
# 2 33.7968 104.8872 46.8704 0.0000 0.0000 0.0000
# 3 46.8704 46.8704 92.8992 0.0000 0.0000 0.0000
# 4 0.0000 0.0000 0.0000 39.8677 0.0000 0.0000
# 5 0.0000 0.0000 0.0000 0.0000 39.8677 0.0000
# 6 0.0000 0.0000 0.0000 0.0000 0.0000 53.8979
#
#
#
# Elastic Compliance Matrix: (Units=1/GPa)
#
#
# Indices 1 2 3 4 5 6 
#
# 1 0.012504 -0.001562 -0.005521 0.000000 0.000000 0.000000
# 2 -0.001562 0.012504 -0.005521 0.000000 0.000000 0.000000
# 3 -0.005521 -0.005521 0.016335 0.000000 0.000000 0.000000
# 4 0.000000 0.000000 0.000000 0.025083 0.000000 0.000000
# 5 0.000000 0.000000 0.000000 0.000000 0.025083 0.000000
# 6 0.000000 0.000000 0.000000 0.000000 0.000000 0.018554
#
#
# Mechanical properties :
#
#
# Convention : Reuss Voigt Hill
#
# Bulk Modulus (GPa) = 61.97020 61.97211 61.97115
# Shear Modulus (GPa) = 35.54939 38.40241 36.97590
#
# Velocity S-wave (km/s) = 3.85332 4.00496 3.92988
# Velocity P-wave (km/s) = 6.75876 6.87536 6.81731
#
# Compressibility (1/GPa) = 0.01613679
#
# Stress axis : x y z
#
# Youngs Moduli (GPa) = 79.97175 79.97175 61.21804
#
# Poissons Ratio (x) = 0.12493 0.33797
# Poissons Ratio (y) = 0.12493 0.33797
# Poissons Ratio (z) = 0.44150 0.44150
#
# Static dielectric constant tensor:
#      x y z
#    x 1.958000 0.000000 0.000000 
#    y 0.000000 1.958000 0.000000 
#    z 0.000000 0.000000 1.966070 
# 
# From -- ./inp_files/2442.got.cif
#   From: 2010.05.17/outbox.cif.g08.bks.cpg/sg114_2_cif.got.tgz:2442.got - 2010.05.20 11:04:54.
