data_PCOD9556611
_publ_section_title
;
Structure prediction by ZEFSAII (Michael W. Deem and Ramdas Pophale) SiO2 
 PCOD9556611
Probable space group: P -4 M 2
;
_chemical_formula_sum "Si O2"
_cell_formula_units_Z 56
_cell_length_a 15.171126
_cell_length_b 15.171126
_cell_length_c 12.822585
_cell_angle_alpha 90.000000
_cell_angle_beta 90.000000
_cell_angle_gamma 90.000000
_cell_volume 2951.285453
_symmetry_space_group_name_H-M "P -4 M 2"
_symmetry_group_IT_number 115
_symmetry_cell_setting 'tetragonal'
loop_
_space_group_symop_operation_xyz
x,y,z
y,-x,-z
-x,-y,z
-y,x,-z
y,x,-z
-y,-x,-z
-x,y,z
x,-y,z
loop_
_atom_site_type_symbol
_atom_site_label
_atom_site_fract_x
_atom_site_fract_y
_atom_site_fract_z
Si Si1 0.606972 0.095435 0.938737
Si Si2 0.094784 0.897878 0.374186
Si Si3 0.893632 0.287958 0.640368
Si Si4 0.394714 0.225813 0.766705
Si Si5 0.599768 0.853619 0.158451
Si Si6 0.401708 0.353187 0.119693
Si Si7 0.606298 0.895039 0.570821
O O1 0.500000 0.104920 0.946678
O O2 0.642137 0.171797 0.865560
O O3 0.624372 0.000000 0.891098
O O4 0.639080 0.099208 0.057088
O O5 0.097728 0.902273 0.500000
O O6 0.188706 0.857459 0.345750
O O7 0.000000 0.856735 0.344903
O O8 0.093205 0.000000 0.337568
O O9 0.864655 0.345513 0.737696
O O10 0.872375 0.336894 0.531948
O O11 0.000000 0.281570 0.640397
O O12 0.500000 0.214645 0.767181
O O13 0.379035 0.327655 0.795618
O O14 0.367708 0.173703 0.662109
O O15 0.500000 0.885869 0.177746
O O16 0.595501 0.752220 0.124544
O O17 0.500000 0.386809 0.144751
O O18 0.380164 0.380164 0.000000
O O19 0.500000 0.886620 0.551624
O O20 0.620584 0.000000 0.596132
#
# Coordination Sequence:
#
# PCOD9556611 Si02
#       7
#     8   8   8   8   8   8   8
#     4   9  16  28  49  75 105 140 173 213 270 331
#     4   8  15  29  48  70 100 138 181 229 268 301
#     4  10  19  31  52  83 115 148 186 223 270 333
#     4  10  19  33  52  77 106 139 185 231 275 329
#     4  10  20  33  50  77 110 143 180 225 280 337
#     4  11  22  37  55  77 105 140 185 242 298 343
#     4   9  18  32  51  79 118 157 186 220 274 342
#
# _framework density 18.974782000000001
#
# number of rings (size 3 to 8) (size 9 to 14) (size 15 to 20)
#    0.000    2.429    1.429    2.143    0.000    5.286 
#    0.000    0.000    0.000    0.857    0.000    1.000 
#    0.000   10.286    0.000    8.857    0.000    0.000 
#
# Total GULP energy -311924.225189 kJ/mol
# GULP energy per Si atom -5570.075450 kJ/mol
# Density = 1.893159 g / cm^3
# Si number density = 18.974782 Si / 1000 Ang^3
#
#
#
# Elastic Constant Matrix: (Units=GPa)
#
#
# Indices 1 2 3 4 5 6 
#
# 1 90.4891 24.1879 52.1876 0.0000 0.0000 0.0000
# 2 24.1879 90.4894 52.1877 0.0000 0.0000 0.0000
# 3 52.1876 52.1877 104.6731 0.0000 0.0000 0.0000
# 4 0.0000 0.0000 0.0000 14.4425 0.0000 0.0000
# 5 0.0000 0.0000 0.0000 0.0000 14.4428 0.0000
# 6 0.0000 0.0000 0.0000 0.0000 0.0000 -185.7666
#
#
#
# Elastic Compliance Matrix: (Units=1/GPa)
#
#
# Indices 1 2 3 4 5 6 
#
# 1 0.015524 0.000441 -0.007960 0.000000 0.000000 0.000000
# 2 0.000441 0.015524 -0.007960 0.000000 0.000000 0.000000
# 3 -0.007960 -0.007960 0.017491 0.000000 0.000000 0.000000
# 4 0.000000 0.000000 0.000000 0.069240 0.000000 0.000000
# 5 0.000000 0.000000 0.000000 0.000000 0.069238 0.000000
# 6 0.000000 0.000000 0.000000 0.000000 0.000000 -0.005383
#
#
# Mechanical properties :
#
#
# Convention : Reuss Voigt Hill
#
# Bulk Modulus (GPa) = 56.87824 60.30866 58.59345
# Shear Modulus (GPa) = 22.88850 -20.90369 0.99241
#
# Velocity S-wave (km/s) = 3.47689 -3.32272 0.72398
# Velocity P-wave (km/s) = 6.79405 4.13908 5.62544
#
# Compressibility (1/GPa) = 0.01758142
#
# Stress axis : x y z
#
# Youngs Moduli (GPa) = 64.41752 64.41774 57.17362
#
# Poissons Ratio (x) = -0.02841 0.45508
# Poissons Ratio (y) = -0.02841 0.45508
# Poissons Ratio (z) = 0.51274 0.51274
#
# Static dielectric constant tensor:
#      x y z
#    x 1.716000 0.000000 0.000000 
#    y 0.000000 1.716000 0.000000 
#    z 0.000000 0.000000 1.644430 
# 
# From -- ./inp_files/3099.got.cif
#   From: 2010.05.17/outbox.cif.g08.bks.cpg/sg115_2_cif.got.tgz:3099.got - 2010.05.20 11:07:42.
