data_PCOD9556646
_publ_section_title
;
Structure prediction by ZEFSAII (Michael W. Deem and Ramdas Pophale) SiO2 
 PCOD9556646
Probable space group: P -4 M 2
;
_chemical_formula_sum "Si O2"
_cell_formula_units_Z 33
_cell_length_a 11.595464
_cell_length_b 11.595464
_cell_length_c 14.475356
_cell_angle_alpha 90.000000
_cell_angle_beta 90.000000
_cell_angle_gamma 90.000000
_cell_volume 1946.280884
_symmetry_space_group_name_H-M "P -4 M 2"
_symmetry_group_IT_number 115
_symmetry_cell_setting 'tetragonal'
loop_
_space_group_symop_operation_xyz
x,y,z
y,-x,-z
-x,-y,z
-y,x,-z
y,x,-z
-y,-x,-z
-x,y,z
x,-y,z
loop_
_atom_site_type_symbol
_atom_site_label
_atom_site_fract_x
_atom_site_fract_y
_atom_site_fract_z
Si Si1 0.136336 0.268432 0.927095
Si Si2 0.500000 0.862193 0.302759
Si Si3 0.267080 0.864224 0.422877
Si Si4 0.874124 0.137074 0.242004
Si Si5 0.500000 0.500000 0.000000
Si Si6 0.256136 0.500000 0.900679
O O1 0.180121 0.221297 0.828564
O O2 0.199253 0.387282 0.945317
O O3 0.000000 0.287028 0.925222
O O4 0.171593 0.171593 0.000000
O O5 0.387122 0.843829 0.367510
O O6 0.500000 0.785138 0.208594
O O7 0.500000 0.000000 0.275405
O O8 0.227880 0.772121 0.500000
O O9 0.167890 0.853088 0.345768
O O10 0.268890 0.000000 0.454336
O O11 0.000000 0.188466 0.226626
O O12 0.881138 0.000000 0.222867
O O13 0.389114 0.500000 0.931596
#
# Coordination Sequence:
#
# PCOD9556646 Si02
#       6
#     8   4   8   8   1   4
#     4  11  21  34  57  85 118 152 189 238 292 356
#     4  10  20  38  63  85 110 149 196 237 284 351
#     4  10  19  32  54  83 114 148 186 233 283 341
#     4   9  17  29  48  79 116 148 176 217 283 353
#     4  12  28  44  64  84 110 152 208 264 284 332
#     4  12  22  42  60  81 109 156 209 246 288 331
#
# _framework density 16.955416
#
# number of rings (size 3 to 8) (size 9 to 14) (size 15 to 20)
#    0.000    1.697    3.636    2.545    0.000    2.424 
#    0.000    1.212    0.000    0.000    0.000    5.091 
#    0.000    0.000    0.000    0.000    0.000    0.000 
#
# Total GULP energy -183737.689327 kJ/mol
# GULP energy per Si atom -5567.808767 kJ/mol
# Density = 1.691682 g / cm^3
# Si number density = 16.955416 Si / 1000 Ang^3
#
#
#
# Elastic Constant Matrix: (Units=GPa)
#
#
# Indices 1 2 3 4 5 6 
#
# 1 88.2516 38.8104 22.8930 0.0000 0.0000 0.0000
# 2 38.8104 88.2522 22.8933 0.0000 0.0000 0.0000
# 3 22.8930 22.8933 55.0342 0.0000 0.0000 0.0000
# 4 0.0000 0.0000 0.0000 22.7157 0.0000 0.0000
# 5 0.0000 0.0000 0.0000 0.0000 22.7156 0.0000
# 6 0.0000 0.0000 0.0000 0.0000 0.0000 21.7323
#
#
#
# Elastic Compliance Matrix: (Units=1/GPa)
#
#
# Indices 1 2 3 4 5 6 
#
# 1 0.014742 -0.005484 -0.003851 0.000000 0.000000 0.000000
# 2 -0.005484 0.014742 -0.003851 0.000000 0.000000 0.000000
# 3 -0.003851 -0.003851 0.021374 0.000000 0.000000 0.000000
# 4 0.000000 0.000000 0.000000 0.044022 0.000000 0.000000
# 5 0.000000 0.000000 0.000000 0.000000 0.044023 0.000000
# 6 0.000000 0.000000 0.000000 0.000000 0.000000 0.046014
#
#
# Mechanical properties :
#
#
# Convention : Reuss Voigt Hill
#
# Bulk Modulus (GPa) = 40.83990 44.52571 42.68281
# Shear Modulus (GPa) = 22.78401 23.22880 23.00641
#
# Velocity S-wave (km/s) = 3.66971 3.70536 3.68758
# Velocity P-wave (km/s) = 6.48804 6.68010 6.58477
#
# Compressibility (1/GPa) = 0.02448586
#
# Stress axis : x y z
#
# Youngs Moduli (GPa) = 67.83372 67.83398 46.78473
#
# Poissons Ratio (x) = 0.37200 0.18017
# Poissons Ratio (y) = 0.37200 0.18018
# Poissons Ratio (z) = 0.26123 0.26124
#
# Static dielectric constant tensor:
#      x y z
#    x 1.579190 0.000000 0.000000 
#    y 0.000000 1.579190 0.000000 
#    z 0.000000 0.000000 1.605590 
# 
# From -- ./inp_files/2596.got.cif
#   From: 2010.05.17/outbox.cif.g08.bks.cpg/sg115_2_cif.got.tgz:2596.got - 2010.05.20 11:07:42.
