data_PCOD9556386
_publ_section_title
;
Structure prediction by ZEFSAII (Michael W. Deem and Ramdas Pophale) SiO2 
 PCOD9556386
Probable space group: P -4 21 C
;
_chemical_formula_sum "Si O2"
_cell_formula_units_Z 42
_cell_length_a 8.834342
_cell_length_b 8.834342
_cell_length_c 25.100269
_cell_angle_alpha 90.000000
_cell_angle_beta 90.000000
_cell_angle_gamma 90.000000
_cell_volume 1958.965518
_symmetry_space_group_name_H-M "P -4 21 C"
_symmetry_group_IT_number 114
_symmetry_cell_setting 'tetragonal'
loop_
_space_group_symop_operation_xyz
x,y,z
y,-x,-z
-x,-y,z
-y,x,-z
1/2+x,1/2-y,1/2-z
1/2-x,1/2+y,1/2-z
1/2-y,1/2-x,1/2+z
1/2+y,1/2+x,1/2+z
loop_
_atom_site_type_symbol
_atom_site_label
_atom_site_fract_x
_atom_site_fract_y
_atom_site_fract_z
Si Si1 0.073474 0.244712 0.768415
Si Si2 0.066088 0.211609 0.205449
Si Si3 0.931689 0.832727 0.079667
Si Si4 0.210312 0.595534 0.947815
Si Si5 0.000000 0.500000 0.037603
Si Si6 0.500000 0.000000 0.145832
Si Si7 0.000000 0.000000 0.500000
O O1 0.133907 0.350953 0.721241
O O2 0.044032 0.358086 0.817569
O O3 0.917832 0.153689 0.760951
O O4 0.194032 0.110851 0.780868
O O5 0.085994 0.172570 0.143620
O O6 0.770395 0.834523 0.050694
O O7 0.002716 0.665014 0.066635
O O8 0.000000 0.000000 0.067452
O O9 0.141378 0.534610 0.892789
O O10 0.384945 0.577622 0.959025
O O11 0.137612 0.503543 0.996232
#
# Coordination Sequence:
#
# PCOD9556386 Si02
#       7
#     8   8   8   8   4   4   2
#     4  11  23  44  70 100 141 179 239 296 363 442
#     4  11  24  45  68 104 137 188 238 299 373 440
#     4  12  25  49  75 108 150 196 253 312 376 451
#     4  11  25  46  69 106 148 191 245 305 376 439
#     4  11  28  41  76 112 136 199 252 299 376 452
#     4  11  22  45  72 100 136 193 238 293 370 448
#     4  12  24  48  68 100 156 180 244 316 356 456
#
# _framework density 21.439886000000001
#
# number of rings (size 3 to 8) (size 9 to 14) (size 15 to 20)
#    0.000    0.762    5.714    1.143    2.667    3.810 
#    3.429    0.000    0.000    0.000    0.000    0.000 
#    0.000    0.000    0.000    0.000    0.000    0.000 
#
# Total GULP energy -234222.125803 kJ/mol
# GULP energy per Si atom -5576.717281 kJ/mol
# Density = 2.139109 g / cm^3
# Si number density = 21.439886 Si / 1000 Ang^3
#
#
#
# Elastic Constant Matrix: (Units=GPa)
#
#
# Indices 1 2 3 4 5 6 
#
# 1 134.4382 53.4258 41.9567 0.0000 0.0000 0.0000
# 2 53.4258 134.4382 41.9567 0.0000 0.0000 0.0000
# 3 41.9567 41.9567 60.2547 0.0000 0.0000 0.0000
# 4 0.0000 0.0000 0.0000 -43.0014 0.0000 0.0000
# 5 0.0000 0.0000 0.0000 0.0000 -43.0014 0.0000
# 6 0.0000 0.0000 0.0000 0.0000 0.0000 45.1145
#
#
#
# Elastic Compliance Matrix: (Units=1/GPa)
#
#
# Indices 1 2 3 4 5 6 
#
# 1 0.010035 -0.002309 -0.005380 0.000000 0.000000 0.000000
# 2 -0.002309 0.010035 -0.005380 0.000000 0.000000 0.000000
# 3 -0.005380 -0.005380 0.024088 0.000000 0.000000 0.000000
# 4 0.000000 0.000000 0.000000 -0.023255 0.000000 0.000000
# 5 0.000000 0.000000 0.000000 0.000000 -0.023255 0.000000
# 6 0.000000 0.000000 0.000000 0.000000 0.000000 0.022166
#
#
# Mechanical properties :
#
#
# Convention : Reuss Voigt Hill
#
# Bulk Modulus (GPa) = 55.49021 67.08993 61.29007
# Shear Modulus (GPa) = 96.23216 4.60849 50.42033
#
# Velocity S-wave (km/s) = 6.70687 1.46771 4.85470
# Velocity P-wave (km/s) = 9.26898 5.85083 7.75069
#
# Compressibility (1/GPa) = 0.01802120
#
# Stress axis : x y z
#
# Youngs Moduli (GPa) = 99.65233 99.65233 41.51392
#
# Poissons Ratio (x) = 0.23009 0.22334
# Poissons Ratio (y) = 0.23009 0.22334
# Poissons Ratio (z) = 0.53611 0.53611
#
# Static dielectric constant tensor:
#      x y z
#    x 1.827250 0.000000 0.000000 
#    y 0.000000 1.827250 0.000000 
#    z 0.000000 0.000000 1.735420 
# 
# From -- ./inp_files/3702.got.cif
#   From: 2010.05.17/outbox.cif.g08.bks.cpg/sg114_2_cif.got.tgz:3702.got - 2010.05.20 11:04:54.
