data_PCOD9556685
_publ_section_title
;
Structure prediction by ZEFSAII (Michael W. Deem and Ramdas Pophale) SiO2 
 PCOD9556685
Probable space group: P -4 M 2
;
_chemical_formula_sum "Si O2"
_cell_formula_units_Z 36
_cell_length_a 12.139812
_cell_length_b 12.139812
_cell_length_c 14.695683
_cell_angle_alpha 90.000000
_cell_angle_beta 90.000000
_cell_angle_gamma 90.000000
_cell_volume 2165.776802
_symmetry_space_group_name_H-M "P -4 M 2"
_symmetry_group_IT_number 115
_symmetry_cell_setting 'tetragonal'
loop_
_space_group_symop_operation_xyz
x,y,z
y,-x,-z
-x,-y,z
-y,x,-z
y,x,-z
-y,-x,-z
-x,y,z
x,-y,z
loop_
_atom_site_type_symbol
_atom_site_label
_atom_site_fract_x
_atom_site_fract_y
_atom_site_fract_z
Si Si1 0.745074 0.714908 0.896244
Si Si2 0.263469 0.129438 0.573940
Si Si3 0.128079 0.128207 0.760163
Si Si4 0.760660 0.500000 0.137397
Si Si5 0.500000 0.870705 0.058465
Si Si6 0.500000 0.868164 0.662241
O O1 0.797755 0.801581 0.828005
O O2 0.615670 0.697248 0.874786
O O3 0.814349 0.604270 0.895343
O O4 0.755296 0.755296 0.000000
O O5 0.211496 0.211496 0.500000
O O6 0.183162 0.135562 0.661148
O O7 0.387385 0.158503 0.607573
O O8 0.264196 0.000000 0.543573
O O9 0.000000 0.163105 0.759336
O O10 0.131576 0.000000 0.787448
O O11 0.815188 0.500000 0.237145
O O12 0.843404 0.500000 0.050259
O O13 0.500000 0.000000 0.070563
O O14 0.500000 0.000000 0.675260
#
# Coordination Sequence:
#
# PCOD9556685 Si02
#       6
#     8   8   8   4   4   4
#     4  10  21  35  54  80 111 151 193 236 282 330
#     4  10  20  35  57  83 112 143 182 233 287 346
#     4  10  20  33  52  80 113 148 184 227 285 350
#     4  10  19  35  58  81 109 148 196 244 277 325
#     4  10  21  35  54  81 117 155 191 234 283 332
#     4  10  19  34  60  86 106 141 193 238 278 331
#
# _framework density 16.622212000000001
#
# number of rings (size 3 to 8) (size 9 to 14) (size 15 to 20)
#    0.000    2.000    2.222    1.667    0.000    6.000 
#    0.000    4.444    0.000    1.667    0.000    0.000 
#    0.000    0.000    0.000    0.000    0.000    0.000 
#
# Total GULP energy -200682.975233 kJ/mol
# GULP energy per Si atom -5574.527090 kJ/mol
# Density = 1.658438 g / cm^3
# Si number density = 16.622212 Si / 1000 Ang^3
#
#
#
# Elastic Constant Matrix: (Units=GPa)
#
#
# Indices 1 2 3 4 5 6 
#
# 1 114.9028 59.2420 45.7273 0.0000 0.0000 0.0000
# 2 59.2420 114.9028 45.7273 0.0000 0.0000 0.0000
# 3 45.7273 45.7273 79.3041 0.0000 0.0000 0.0000
# 4 0.0000 0.0000 0.0000 73.7153 0.0000 0.0000
# 5 0.0000 0.0000 0.0000 0.0000 73.7153 0.0000
# 6 0.0000 0.0000 0.0000 0.0000 0.0000 23.1887
#
#
#
# Elastic Compliance Matrix: (Units=1/GPa)
#
#
# Indices 1 2 3 4 5 6 
#
# 1 0.013101 -0.004865 -0.004749 0.000000 0.000000 0.000000
# 2 -0.004865 0.013101 -0.004749 0.000000 0.000000 0.000000
# 3 -0.004749 -0.004749 0.018087 0.000000 0.000000 0.000000
# 4 0.000000 0.000000 0.000000 0.013566 0.000000 0.000000
# 5 0.000000 0.000000 0.000000 0.000000 0.013566 0.000000
# 6 0.000000 0.000000 0.000000 0.000000 0.000000 0.043124
#
#
# Mechanical properties :
#
#
# Convention : Reuss Voigt Hill
#
# Bulk Modulus (GPa) = 64.25639 67.83364 66.04502
# Shear Modulus (GPa) = 33.67939 44.68471 39.18205
#
# Velocity S-wave (km/s) = 4.50618 5.19046 4.86038
# Velocity P-wave (km/s) = 8.11265 8.76463 8.44494
#
# Compressibility (1/GPa) = 0.01556265
#
# Stress axis : x y z
#
# Youngs Moduli (GPa) = 76.32884 76.32884 55.28972
#
# Poissons Ratio (x) = 0.37132 0.26258
# Poissons Ratio (y) = 0.37132 0.26258
# Poissons Ratio (z) = 0.36250 0.36250
#
# Static dielectric constant tensor:
#      x y z
#    x -1.875810 0.000000 0.000000 
#    y 0.000000 -1.875810 0.000000 
#    z 0.000000 0.000000 1.537890 
# 
# From -- ./inp_files/2664.got.cif
#   From: 2010.05.17/outbox.cif.g08.bks.cpg/sg115_2_cif.got.tgz:2664.got - 2010.05.20 11:07:42.
