data_PCOD9556805
_publ_section_title
;
Structure prediction by ZEFSAII (Michael W. Deem and Ramdas Pophale) SiO2 
 PCOD9556805
Probable space group: P -4 M 2
;
_chemical_formula_sum "Si O2"
_cell_formula_units_Z 32
_cell_length_a 9.018562
_cell_length_b 9.018562
_cell_length_c 21.862629
_cell_angle_alpha 90.000000
_cell_angle_beta 90.000000
_cell_angle_gamma 90.000000
_cell_volume 1778.185136
_symmetry_space_group_name_H-M "P -4 M 2"
_symmetry_group_IT_number 115
_symmetry_cell_setting 'tetragonal'
loop_
_space_group_symop_operation_xyz
x,y,z
y,-x,-z
-x,-y,z
-y,x,-z
y,x,-z
-y,-x,-z
-x,y,z
x,-y,z
loop_
_atom_site_type_symbol
_atom_site_label
_atom_site_fract_x
_atom_site_fract_y
_atom_site_fract_z
Si Si1 0.827197 0.819103 0.301201
Si Si2 0.180733 0.825093 0.434219
Si Si3 0.323839 0.824678 0.941174
Si Si4 0.674195 0.178211 0.175899
O O1 0.772477 0.764684 0.367944
O O2 0.735526 0.772988 0.242032
O O3 0.000000 0.777839 0.293654
O O4 0.822845 0.000000 0.303467
O O5 0.234736 0.765265 0.500000
O O6 0.000000 0.817105 0.434211
O O7 0.218318 0.000000 0.434409
O O8 0.500000 0.800716 0.941270
O O9 0.254460 0.759702 0.879401
O O10 0.295136 0.000000 0.944434
O O11 0.253135 0.746865 0.000000
O O12 0.500000 0.209044 0.171113
O O13 0.694980 0.000000 0.171604
#
# Coordination Sequence:
#
# PCOD9556805 Si02
#       4
#     8   8   8   8
#     4   8  13  22  38  61  90 124 161 203 250 294
#     4   7   9  14  27  51  83 116 152 197 247 294
#     4  11  24  40  58  80 103 128 160 197 238 286
#     4  10  20  33  50  74 103 134 168 204 242 287
#
# _framework density 17.995877
#
# number of rings (size 3 to 8) (size 9 to 14) (size 15 to 20)
#    0.000    3.000    0.000    4.500    0.000    6.500 
#    0.000    0.000    0.000    0.000    0.000    1.750 
#    0.000   10.000    0.000    0.000    0.000    0.000 
#
# Total GULP energy -178209.742873 kJ/mol
# GULP energy per Si atom -5569.054465 kJ/mol
# Density = 1.795492 g / cm^3
# Si number density = 17.995877 Si / 1000 Ang^3
#
#
#
# Elastic Constant Matrix: (Units=GPa)
#
#
# Indices 1 2 3 4 5 6 
#
# 1 32.0342 43.3542 52.1086 0.0000 0.0000 0.0000
# 2 43.3542 32.0344 52.1086 0.0000 0.0000 0.0000
# 3 52.1086 52.1086 199.9598 0.0000 0.0000 0.0000
# 4 0.0000 0.0000 0.0000 -12.0505 0.0000 0.0000
# 5 0.0000 0.0000 0.0000 0.0000 -12.0505 0.0000
# 6 0.0000 0.0000 0.0000 0.0000 0.0000 14.1308
#
#
#
# Elastic Compliance Matrix: (Units=1/GPa)
#
#
# Indices 1 2 3 4 5 6 
#
# 1 -0.033803 0.054537 -0.005403 0.000000 0.000000 0.000000
# 2 0.054537 -0.033803 -0.005403 0.000000 0.000000 0.000000
# 3 -0.005403 -0.005403 0.007817 0.000000 0.000000 0.000000
# 4 0.000000 0.000000 0.000000 -0.082984 0.000000 0.000000
# 5 0.000000 0.000000 0.000000 0.000000 -0.082984 0.000000
# 6 0.000000 0.000000 0.000000 0.000000 0.000000 0.070767
#
#
# Mechanical properties :
#
#
# Convention : Reuss Voigt Hill
#
# Bulk Modulus (GPa) = 36.13719 62.13013 49.13366
# Shear Modulus (GPa) = -21.43833 5.76977 -7.83428
#
# Velocity S-wave (km/s) = -3.45525 1.79252 -2.08874
# Velocity P-wave (km/s) = 2.05086 6.23568 4.64165
#
# Compressibility (1/GPa) = 0.02767233
#
# Stress axis : x y z
#
# Youngs Moduli (GPa) = -29.58306 -29.58334 127.92480
#
# Poissons Ratio (x) = 1.61339 0.69120
# Poissons Ratio (y) = 1.61337 0.69120
# Poissons Ratio (z) = -0.15984 -0.15985
#
# Static dielectric constant tensor:
#      x y z
#    x 1.594910 0.000000 0.000000 
#    y 0.000000 1.594910 0.000000 
#    z 0.000000 0.000000 1.654110 
# 
# From -- ./inp_files/4583.got.cif
#   From: 2010.05.17/outbox.cif.g08.bks.cpg/sg115_3_cif.got.tgz:4583.got - 2010.05.20 11:07:42.
