data_PCOD9556786
_publ_section_title
;
Structure prediction by ZEFSAII (Michael W. Deem and Ramdas Pophale) SiO2 
 PCOD9556786
Probable space group: P -4 M 2
;
_chemical_formula_sum "Si O2"
_cell_formula_units_Z 44
_cell_length_a 9.238139
_cell_length_b 9.238139
_cell_length_c 29.464552
_cell_angle_alpha 90.000000
_cell_angle_beta 90.000000
_cell_angle_gamma 90.000000
_cell_volume 2514.599513
_symmetry_space_group_name_H-M "P -4 M 2"
_symmetry_group_IT_number 115
_symmetry_cell_setting 'tetragonal'
loop_
_space_group_symop_operation_xyz
x,y,z
y,-x,-z
-x,-y,z
-y,x,-z
y,x,-z
-y,-x,-z
-x,y,z
x,-y,z
loop_
_atom_site_type_symbol
_atom_site_label
_atom_site_fract_x
_atom_site_fract_y
_atom_site_fract_z
Si Si1 0.176333 0.166516 0.865884
Si Si2 0.672217 0.327783 0.500000
Si Si3 0.671569 0.173325 0.041724
Si Si4 0.172512 0.328213 0.408161
Si Si5 0.176648 0.666814 0.775454
Si Si6 0.170947 0.173439 0.315864
O O1 0.217994 0.253255 0.911035
O O2 0.224663 0.245167 0.819835
O O3 0.000000 0.166164 0.864944
O O4 0.224082 0.000000 0.867646
O O5 0.500000 0.303455 0.495539
O O6 0.722293 0.249961 0.545909
O O7 0.500000 0.199232 0.043778
O O8 0.694015 0.000000 0.036147
O O9 0.744028 0.255973 0.000000
O O10 0.199653 0.500000 0.403250
O O11 0.219951 0.247715 0.362453
O O12 0.000000 0.306993 0.412870
O O13 0.221840 0.500000 0.777712
O O14 0.221820 0.741981 0.728557
O O15 0.000000 0.669225 0.775728
O O16 0.000000 0.204835 0.309471
O O17 0.185901 0.000000 0.320117
#
# Coordination Sequence:
#
# PCOD9556786 Si02
#       6
#     8   4   8   8   8   8
#     4   9  16  27  46  71  98 128 161 199 243 289
#     4   9  18  32  48  65  86 114 148 185 226 274
#     4  10  20  33  50  73 100 130 165 204 246 293
#     4   9  18  32  48  66  90 120 152 187 229 276
#     4   9  16  26  42  67  98 127 156 194 239 283
#     4   9  17  29  45  66  92 121 153 189 230 276
#
# _framework density 17.497817000000001
#
# number of rings (size 3 to 8) (size 9 to 14) (size 15 to 20)
#    0.000    2.818    0.000    1.636    0.000    6.909 
#    0.000    0.000    0.000    1.091    0.000    2.545 
#    0.000    0.000    0.000    0.000    0.000    0.000 
#
# Total GULP energy -245315.518170 kJ/mol
# GULP energy per Si atom -5575.352686 kJ/mol
# Density = 1.745799 g / cm^3
# Si number density = 17.497817 Si / 1000 Ang^3
#
#
#
# Elastic Constant Matrix: (Units=GPa)
#
#
# Indices 1 2 3 4 5 6 
#
# 1 52.8281 41.7033 77.7712 0.0000 0.0000 0.0000
# 2 41.7033 52.8292 77.7706 0.0000 0.0000 0.0000
# 3 77.7712 77.7706 226.8550 0.0000 0.0000 0.0000
# 4 0.0000 0.0000 0.0000 -19.9734 0.0000 0.0000
# 5 0.0000 0.0000 0.0000 0.0000 -19.9677 0.0000
# 6 0.0000 0.0000 0.0000 0.0000 0.0000 13.4037
#
#
#
# Elastic Compliance Matrix: (Units=1/GPa)
#
#
# Indices 1 2 3 4 5 6 
#
# 1 0.057077 -0.032809 -0.008320 0.000000 0.000000 0.000000
# 2 -0.032809 0.057074 -0.008318 0.000000 0.000000 0.000000
# 3 -0.008320 -0.008318 0.010112 0.000000 0.000000 0.000000
# 4 0.000000 0.000000 0.000000 -0.050067 0.000000 0.000000
# 5 0.000000 0.000000 0.000000 0.000000 -0.050081 0.000000
# 6 0.000000 0.000000 0.000000 0.000000 0.000000 0.074606
#
#
# Mechanical properties :
#
#
# Convention : Reuss Voigt Hill
#
# Bulk Modulus (GPa) = 39.41847 80.77805 60.09826
# Shear Modulus (GPa) = 24.26329 3.71034 13.98682
#
# Velocity S-wave (km/s) = 3.72781 1.45776 2.83034
# Velocity P-wave (km/s) = 6.41134 7.00702 6.71579
#
# Compressibility (1/GPa) = 0.02536882
#
# Stress axis : x y z
#
# Youngs Moduli (GPa) = 17.52007 17.52117 98.89163
#
# Poissons Ratio (x) = 0.57485 0.82277
# Poissons Ratio (y) = 0.57481 0.82262
# Poissons Ratio (z) = 0.14577 0.14575
#
# Static dielectric constant tensor:
#      x y z
#    x 1.583990 0.000000 0.000000 
#    y 0.000000 1.583990 0.000000 
#    z 0.000000 0.000000 1.576030 
# 
# From -- ./inp_files/5774.got.cif
#   From: 2010.05.17/outbox.cif.g08.bks.cpg/sg115_3_cif.got.tgz:5774.got - 2010.05.20 11:07:42.
