data_PCOD9556326
_publ_section_title
;
Structure prediction by ZEFSAII (Michael W. Deem and Ramdas Pophale) SiO2 
 PCOD9556326
Probable space group: P -4 21 C
;
_chemical_formula_sum "Si O2"
_cell_formula_units_Z 46
_cell_length_a 13.579069
_cell_length_b 13.579069
_cell_length_c 10.896688
_cell_angle_alpha 90.000000
_cell_angle_beta 90.000000
_cell_angle_gamma 90.000000
_cell_volume 2009.252449
_symmetry_space_group_name_H-M "P -4 21 C"
_symmetry_group_IT_number 114
_symmetry_cell_setting 'tetragonal'
loop_
_space_group_symop_operation_xyz
x,y,z
y,-x,-z
-x,-y,z
-y,x,-z
1/2+x,1/2-y,1/2-z
1/2-x,1/2+y,1/2-z
1/2-y,1/2-x,1/2+z
1/2+y,1/2+x,1/2+z
loop_
_atom_site_type_symbol
_atom_site_label
_atom_site_fract_x
_atom_site_fract_y
_atom_site_fract_z
Si Si1 0.354469 0.878470 0.498470
Si Si2 0.500000 0.500000 0.000000
Si Si3 0.525598 0.822862 0.679209
Si Si4 0.824482 0.044685 0.386581
Si Si5 0.340193 0.659779 0.438284
Si Si6 0.000000 0.500000 0.178412
Si Si7 0.888525 0.961028 0.815079
O O1 0.316602 0.773281 0.452634
O O2 0.251137 0.935494 0.497826
O O3 0.424167 0.855266 0.613318
O O4 0.430254 0.932716 0.405884
O O5 0.405263 0.534498 0.072461
O O6 0.497453 0.747026 0.784497
O O7 0.599376 0.757701 0.598595
O O8 0.563354 0.924787 0.737980
O O9 0.894648 0.121839 0.308889
O O10 0.374309 0.610424 0.567070
O O11 0.435069 0.663387 0.346536
O O12 0.000000 0.000000 0.815792
#
# Coordination Sequence:
#
# PCOD9556326 Si02
#       7
#     8   2   8   8   8   4   8
#     4  11  24  45  67 101 137 189 244 282 355 442
#     4  12  24  52  68 106 148 176 224 304 368 422
#     4  11  22  47  70  98 139 186 238 287 354 426
#     4  11  24  43  68  99 141 180 221 289 365 417
#     4  12  20  37  75 104 132 183 244 297 341 430
#     4  10  26  46  70  92 150 194 220 306 370 418
#     4  12  17  37  69 102 136 178 225 291 354 397
#
# _framework density 22.894086999999999
#
# number of rings (size 3 to 8) (size 9 to 14) (size 15 to 20)
#    0.000    0.696    7.826    0.522    0.000    1.391 
#   21.913    0.000    0.000    0.000    0.000    0.000 
#    0.000    0.000    0.000    0.000    0.000    0.000 
#
# Total GULP energy -256191.834935 kJ/mol
# GULP energy per Si atom -5569.387716 kJ/mol
# Density = 2.284198 g / cm^3
# Si number density = 22.894087 Si / 1000 Ang^3
#
#
#
# Elastic Constant Matrix: (Units=GPa)
#
#
# Indices 1 2 3 4 5 6 
#
# 1 110.4813 22.7557 24.0939 0.0000 0.0000 0.0000
# 2 22.7557 110.4813 24.0939 0.0000 0.0000 0.0000
# 3 24.0939 24.0939 52.2869 0.0000 0.0000 0.0000
# 4 0.0000 0.0000 0.0000 -28.9009 0.0000 0.0000
# 5 0.0000 0.0000 0.0000 0.0000 -28.9009 0.0000
# 6 0.0000 0.0000 0.0000 0.0000 0.0000 32.3017
#
#
#
# Elastic Compliance Matrix: (Units=1/GPa)
#
#
# Indices 1 2 3 4 5 6 
#
# 1 0.010203 -0.001196 -0.004150 0.000000 0.000000 0.000000
# 2 -0.001196 0.010203 -0.004150 0.000000 0.000000 0.000000
# 3 -0.004150 -0.004150 0.022950 0.000000 0.000000 0.000000
# 4 0.000000 0.000000 0.000000 -0.034601 0.000000 0.000000
# 5 0.000000 0.000000 0.000000 0.000000 -0.034601 0.000000
# 6 0.000000 0.000000 0.000000 0.000000 0.000000 0.030958
#
#
# Mechanical properties :
#
#
# Convention : Reuss Voigt Hill
#
# Bulk Modulus (GPa) = 41.04717 46.12627 43.58672
# Shear Modulus (GPa) = 155.15409 8.38704 81.77057
#
# Velocity S-wave (km/s) = 8.24121 1.91608 5.98284
# Velocity P-wave (km/s) = 10.41752 5.00865 8.17347
#
# Compressibility (1/GPa) = 0.02436222
#
# Stress axis : x y z
#
# Youngs Moduli (GPa) = 98.01234 98.01234 43.57284
#
# Poissons Ratio (x) = 0.11726 0.18083
# Poissons Ratio (y) = 0.11726 0.18083
# Poissons Ratio (z) = 0.40677 0.40677
#
# Static dielectric constant tensor:
#      x y z
#    x 2.018820 0.000000 0.000000 
#    y 0.000000 2.018820 0.000000 
#    z 0.000000 0.000000 1.995390 
# 
# From -- ./inp_files/1617.got.cif
#   From: 2010.05.17/outbox.cif.g08.bks.cpg/sg114_1_cif.got.tgz:1617.got - 2010.05.20 11:04:54.
