data_PCOD9556578
_publ_section_title
;
Structure prediction by ZEFSAII (Michael W. Deem and Ramdas Pophale) SiO2 
 PCOD9556578
Probable space group: P -4 M 2
;
_chemical_formula_sum "Si O2"
_cell_formula_units_Z 36
_cell_length_a 18.632145
_cell_length_b 18.632145
_cell_length_c 7.659918
_cell_angle_alpha 90.000000
_cell_angle_beta 90.000000
_cell_angle_gamma 90.000000
_cell_volume 2659.192830
_symmetry_space_group_name_H-M "P -4 M 2"
_symmetry_group_IT_number 115
_symmetry_cell_setting 'tetragonal'
loop_
_space_group_symop_operation_xyz
x,y,z
y,-x,-z
-x,-y,z
-y,x,-z
y,x,-z
-y,-x,-z
-x,y,z
x,-y,z
loop_
_atom_site_type_symbol
_atom_site_label
_atom_site_fract_x
_atom_site_fract_y
_atom_site_fract_z
Si Si1 0.847016 0.082955 0.348889
Si Si2 0.693314 0.086676 0.911530
Si Si3 0.693099 0.086908 0.503142
Si Si4 0.840295 0.159706 0.000000
Si Si5 0.418451 0.086763 0.211067
O O1 0.904113 0.095887 0.500000
O O2 0.770488 0.109424 0.426788
O O3 0.838572 0.000000 0.304571
O O4 0.869110 0.125059 0.177171
O O5 0.684086 0.104798 0.707026
O O6 0.757851 0.134713 0.987507
O O7 0.709561 0.000000 0.925399
O O8 0.623892 0.100628 0.031084
O O9 0.630140 0.112207 0.373935
O O10 0.693173 0.000000 0.496592
O O11 0.500000 0.113805 0.212928
O O12 0.421724 0.000000 0.225708
#
# Coordination Sequence:
#
# PCOD9556578 Si02
#       5
#     8   8   8   4   8
#     4  11  22  34  47  62  81 109 148 194 237 272
#     4  10  19  30  45  65  86 111 146 184 223 267
#     4   9  17  30  45  60  80 106 136 174 224 274
#     4  12  20  30  50  65  82 116 150 185 228 274
#     4   9  17  29  45  65  86 105 132 177 227 272
#
# _framework density 13.537941999999999
#
# number of rings (size 3 to 8) (size 9 to 14) (size 15 to 20)
#    0.000    2.000    4.444    0.667    0.000    2.000 
#    0.000    4.444    0.000    3.000    0.000    0.000 
#    0.000    0.000    0.000    0.000    0.000    0.556 
#
# Total GULP energy -200497.446174 kJ/mol
# GULP energy per Si atom -5569.373505 kJ/mol
# Density = 1.350713 g / cm^3
# Si number density = 13.537942 Si / 1000 Ang^3
#
#
#
# Elastic Constant Matrix: (Units=GPa)
#
#
# Indices 1 2 3 4 5 6 
#
# 1 23.8257 21.6911 5.5282 0.0000 0.0000 0.0000
# 2 21.6911 23.8338 5.5309 0.0000 0.0000 0.0000
# 3 5.5282 5.5309 76.0860 0.0000 0.0000 0.0000
# 4 0.0000 0.0000 0.0000 15.1697 0.0000 0.0000
# 5 0.0000 0.0000 0.0000 0.0000 15.1693 0.0000
# 6 0.0000 0.0000 0.0000 0.0000 0.0000 3.2716
#
#
#
# Elastic Compliance Matrix: (Units=1/GPa)
#
#
# Indices 1 2 3 4 5 6 
#
# 1 0.245012 -0.222608 -0.001620 0.000000 0.000000 0.000000
# 2 -0.222608 0.244930 -0.001630 0.000000 0.000000 0.000000
# 3 -0.001620 -0.001630 0.013379 0.000000 0.000000 0.000000
# 4 0.000000 0.000000 0.000000 0.065921 0.000000 0.000000
# 5 0.000000 0.000000 0.000000 0.000000 0.065923 0.000000
# 6 0.000000 0.000000 0.000000 0.000000 0.000000 0.305660
#
#
# Mechanical properties :
#
#
# Convention : Reuss Voigt Hill
#
# Bulk Modulus (GPa) = 19.37834 21.02733 20.20283
# Shear Modulus (GPa) = 3.54675 12.78848 8.16761
#
# Velocity S-wave (km/s) = 1.62035 3.07683 2.45891
# Velocity P-wave (km/s) = 4.22444 5.30928 4.79762
#
# Compressibility (1/GPa) = 0.05160400
#
# Stress axis : x y z
#
# Youngs Moduli (GPa) = 4.08144 4.08279 74.74265
#
# Poissons Ratio (x) = 0.90886 0.12108
# Poissons Ratio (y) = 0.90856 0.12186
# Poissons Ratio (z) = 0.00661 0.00666
#
# Static dielectric constant tensor:
#      x y z
#    x 1.435810 0.000000 0.000000 
#    y 0.000000 1.435810 0.000000 
#    z 0.000000 0.000000 1.469610 
# 
# From -- ./inp_files/1503.got.cif
#   From: 2010.05.17/outbox.cif.g08.bks.cpg/sg115_1_cif.got.tgz:1503.got - 2010.05.20 11:07:42.
