data_PCOD9556414
_publ_section_title
;
Structure prediction by ZEFSAII (Michael W. Deem and Ramdas Pophale) SiO2 
 PCOD9556414
Probable space group: P -4 21 C
;
_chemical_formula_sum "Si O2"
_cell_formula_units_Z 34
_cell_length_a 11.440296
_cell_length_b 11.440296
_cell_length_c 10.399322
_cell_angle_alpha 90.000000
_cell_angle_beta 90.000000
_cell_angle_gamma 90.000000
_cell_volume 1361.067138
_symmetry_space_group_name_H-M "P -4 21 C"
_symmetry_group_IT_number 114
_symmetry_cell_setting 'tetragonal'
loop_
_space_group_symop_operation_xyz
x,y,z
y,-x,-z
-x,-y,z
-y,x,-z
1/2+x,1/2-y,1/2-z
1/2-x,1/2+y,1/2-z
1/2-y,1/2-x,1/2+z
1/2+y,1/2+x,1/2+z
loop_
_atom_site_type_symbol
_atom_site_label
_atom_site_fract_x
_atom_site_fract_y
_atom_site_fract_z
Si Si1 0.765555 0.612298 0.988878
Si Si2 0.436228 0.121235 0.812438
Si Si3 0.793241 0.039287 0.110776
Si Si4 0.500000 0.500000 0.500000
Si Si5 0.923225 0.190031 0.300686
O O1 0.861869 0.707449 0.947375
O O2 0.703646 0.550127 0.866414
O O3 0.826921 0.502109 0.062428
O O4 0.672129 0.671539 0.084948
O O5 0.465312 0.206105 0.696842
O O6 0.299393 0.098815 0.794550
O O7 0.500000 0.000000 0.788163
O O8 0.869953 0.949275 0.029174
O O9 0.894948 0.081351 0.210192
#
# Coordination Sequence:
#
# PCOD9556414 Si02
#       5
#     8   8   8   2   8
#     4  11  25  44  75 105 146 201 247 314 396 451
#     4  11  24  43  74 107 148 190 256 312 376 463
#     4  11  26  45  70 105 142 196 243 310 381 452
#     4  12  28  44  72 102 160 184 252 308 384 446
#     4  11  25  45  69 106 146 191 254 311 376 464
#
# _framework density 24.980395999999999
#
# number of rings (size 3 to 8) (size 9 to 14) (size 15 to 20)
#    0.000    0.941    2.353    2.824    6.588    6.118 
#    0.000    0.000    0.000    0.000    0.000    0.000 
#    0.000    0.000    0.000    0.000    0.000    0.000 
#
# Total GULP energy -189692.158478 kJ/mol
# GULP energy per Si atom -5579.181132 kJ/mol
# Density = 2.492354 g / cm^3
# Si number density = 24.980396 Si / 1000 Ang^3
#
#
#
# Elastic Constant Matrix: (Units=GPa)
#
#
# Indices 1 2 3 4 5 6 
#
# 1 121.4345 -2.2913 14.7637 0.0000 0.0000 0.0000
# 2 -2.2913 121.4345 14.7637 0.0000 0.0000 0.0000
# 3 14.7637 14.7637 47.8942 0.0000 0.0000 0.0000
# 4 0.0000 0.0000 0.0000 32.0157 0.0000 0.0000
# 5 0.0000 0.0000 0.0000 0.0000 32.0157 0.0000
# 6 0.0000 0.0000 0.0000 0.0000 0.0000 44.7435
#
#
#
# Elastic Compliance Matrix: (Units=1/GPa)
#
#
# Indices 1 2 3 4 5 6 
#
# 1 0.008585 0.000503 -0.002801 0.000000 0.000000 0.000000
# 2 0.000503 0.008585 -0.002801 0.000000 0.000000 0.000000
# 3 -0.002801 -0.002801 0.022606 0.000000 0.000000 0.000000
# 4 0.000000 0.000000 0.000000 0.031235 0.000000 0.000000
# 5 0.000000 0.000000 0.000000 0.000000 0.031235 0.000000
# 6 0.000000 0.000000 0.000000 0.000000 0.000000 0.022350
#
#
# Mechanical properties :
#
#
# Convention : Reuss Voigt Hill
#
# Bulk Modulus (GPa) = 33.81090 38.35947 36.08519
# Shear Modulus (GPa) = 34.56525 39.32345 36.94435
#
# Velocity S-wave (km/s) = 3.72384 3.97189 3.84986
# Velocity P-wave (km/s) = 5.66160 6.03521 5.85138
#
# Compressibility (1/GPa) = 0.02957626
#
# Stress axis : x y z
#
# Youngs Moduli (GPa) = 116.48293 116.48293 44.23534
#
# Poissons Ratio (x) = -0.05854 0.12392
# Poissons Ratio (y) = -0.05854 0.12392
# Poissons Ratio (z) = 0.32630 0.32630
#
# Static dielectric constant tensor:
#      x y z
#    x 1.818640 0.000000 0.000000 
#    y 0.000000 1.818640 0.000000 
#    z 0.000000 0.000000 2.072170 
# 
# From -- ./inp_files/1399.got.cif
#   From: 2010.05.17/outbox.cif.g08.bks.cpg/sg114_1_cif.got.tgz:1399.got - 2010.05.20 11:04:54.
