data_PCOD9556480
_publ_section_title
;
Structure prediction by ZEFSAII (Michael W. Deem and Ramdas Pophale) SiO2 
 PCOD9556480
Probable space group: P -4 21 C
;
_chemical_formula_sum "Si O2"
_cell_formula_units_Z 44
_cell_length_a 7.943706
_cell_length_b 7.943706
_cell_length_c 27.622348
_cell_angle_alpha 90.000000
_cell_angle_beta 90.000000
_cell_angle_gamma 90.000000
_cell_volume 1743.038248
_symmetry_space_group_name_H-M "P -4 21 C"
_symmetry_group_IT_number 114
_symmetry_cell_setting 'tetragonal'
loop_
_space_group_symop_operation_xyz
x,y,z
y,-x,-z
-x,-y,z
-y,x,-z
1/2+x,1/2-y,1/2-z
1/2-x,1/2+y,1/2-z
1/2-y,1/2-x,1/2+z
1/2+y,1/2+x,1/2+z
loop_
_atom_site_type_symbol
_atom_site_label
_atom_site_fract_x
_atom_site_fract_y
_atom_site_fract_z
Si Si1 0.058094 0.804452 0.854138
Si Si2 0.500000 0.000000 0.417361
Si Si3 0.000000 0.000000 0.000000
Si Si4 0.236685 0.753921 0.448360
Si Si5 0.500000 0.500000 0.818655
Si Si6 0.213054 0.697643 0.153073
Si Si7 0.000000 0.000000 0.500000
Si Si8 0.385009 0.166934 0.235222
O O1 0.182031 0.728231 0.893756
O O2 0.129382 0.771356 0.800526
O O3 0.878267 0.711657 0.858699
O O4 0.000000 0.000000 0.859641
O O5 0.357328 0.916457 0.448536
O O6 0.565025 0.851920 0.382626
O O7 0.896471 0.153338 0.973854
O O8 0.066101 0.837026 0.469188
O O9 0.547738 0.656038 0.851441
O O10 0.336380 0.535983 0.786380
O O11 0.158228 0.696174 0.208995
O O12 0.500000 0.000000 0.233161
#
# Coordination Sequence:
#
# PCOD9556480 Si02
#       8
#     8   4   2   8   4   8   2   8
#     4  12  26  49  78 114 158 213 281 336 405 501
#     4  12  24  46  78 118 164 210 272 338 408 502
#     4  12  24  56  86 120 154 212 276 336 438 560
#     4  12  27  53  86 124 161 209 270 351 439 536
#     4  12  28  43  67 102 154 219 294 345 403 457
#     4  12  26  45  73 112 163 226 277 335 397 482
#     4  12  32  58  88 128 170 200 268 368 476 538
#     4  12  27  47  69 112 167 227 287 339 402 477
#
# _framework density 25.243278
#
# number of rings (size 3 to 8) (size 9 to 14) (size 15 to 20)
#    0.000    0.000    5.455    3.273    5.091    2.909 
#    3.273    0.000    0.000    0.000    0.000    0.000 
#    0.000    0.000    0.000    0.000    0.000    0.000 
#
# Total GULP energy -246309.720136 kJ/mol
# GULP energy per Si atom -5597.948185 kJ/mol
# Density = 2.518582 g / cm^3
# Si number density = 25.243278 Si / 1000 Ang^3
#
#
#
# Elastic Constant Matrix: (Units=GPa)
#
#
# Indices 1 2 3 4 5 6 
#
# 1 128.4110 35.2700 37.3187 0.0000 0.0000 0.0000
# 2 35.2700 128.4110 37.3187 0.0000 0.0000 0.0000
# 3 37.3187 37.3187 74.0595 0.0000 0.0000 0.0000
# 4 0.0000 0.0000 0.0000 37.8548 0.0000 0.0000
# 5 0.0000 0.0000 0.0000 0.0000 37.8548 0.0000
# 6 0.0000 0.0000 0.0000 0.0000 0.0000 53.1181
#
#
#
# Elastic Compliance Matrix: (Units=1/GPa)
#
#
# Indices 1 2 3 4 5 6 
#
# 1 0.009334 -0.001402 -0.003997 0.000000 0.000000 0.000000
# 2 -0.001402 0.009334 -0.003997 0.000000 0.000000 0.000000
# 3 -0.003997 -0.003997 0.017531 0.000000 0.000000 0.000000
# 4 0.000000 0.000000 0.000000 0.026417 0.000000 0.000000
# 5 0.000000 0.000000 0.000000 0.000000 0.026417 0.000000
# 6 0.000000 0.000000 0.000000 0.000000 0.000000 0.018826
#
#
# Mechanical properties :
#
#
# Convention : Reuss Voigt Hill
#
# Bulk Modulus (GPa) = 57.44808 61.18848 59.31828
# Shear Modulus (GPa) = 37.74915 40.49714 39.12315
#
# Velocity S-wave (km/s) = 3.87125 4.00968 3.94108
# Velocity P-wave (km/s) = 6.54135 6.76231 6.65275
#
# Compressibility (1/GPa) = 0.01740702
#
# Stress axis : x y z
#
# Youngs Moduli (GPa) = 107.13263 107.13263 57.04239
#
# Poissons Ratio (x) = 0.15022 0.22800
# Poissons Ratio (y) = 0.15022 0.22800
# Poissons Ratio (z) = 0.42821 0.42821
#
# Static dielectric constant tensor:
#      x y z
#    x 2.060130 0.000000 0.000000 
#    y 0.000000 2.060130 0.000000 
#    z 0.000000 0.000000 1.973440 
# 
# From -- ./inp_files/3892.got.cif
#   From: 2010.05.17/outbox.cif.g08.bks.cpg/sg114_2_cif.got.tgz:3892.got - 2010.05.20 11:04:54.
