data_PCOD9556248
_publ_section_title
;
Structure prediction by ZEFSAII (Michael W. Deem and Ramdas Pophale) SiO2 
 PCOD9556248
Probable space group: P -4 21 C
;
_chemical_formula_sum "Si O2"
_cell_formula_units_Z 56
_cell_length_a 10.668658
_cell_length_b 10.668658
_cell_length_c 19.171098
_cell_angle_alpha 90.000000
_cell_angle_beta 90.000000
_cell_angle_gamma 90.000000
_cell_volume 2182.059426
_symmetry_space_group_name_H-M "P -4 21 C"
_symmetry_group_IT_number 114
_symmetry_cell_setting 'tetragonal'
loop_
_space_group_symop_operation_xyz
x,y,z
y,-x,-z
-x,-y,z
-y,x,-z
1/2+x,1/2-y,1/2-z
1/2-x,1/2+y,1/2-z
1/2-y,1/2-x,1/2+z
1/2+y,1/2+x,1/2+z
loop_
_atom_site_type_symbol
_atom_site_label
_atom_site_fract_x
_atom_site_fract_y
_atom_site_fract_z
Si Si1 0.470087 0.853407 0.590479
Si Si2 0.181710 0.077265 0.486308
Si Si3 0.990373 0.800587 0.665632
Si Si4 0.279618 0.232971 0.112672
Si Si5 0.516930 0.152151 0.428206
Si Si6 0.621788 0.247309 0.199656
Si Si7 0.667402 0.884354 0.789376
O O1 0.470137 0.808368 0.509798
O O2 0.338846 0.852473 0.631779
O O3 0.586959 0.789387 0.632130
O O4 0.500000 0.000000 0.587793
O O5 0.231223 0.034252 0.413113
O O6 0.267741 0.157714 0.535606
O O7 0.051580 0.148166 0.475229
O O8 0.101652 0.893374 0.689814
O O9 0.025057 0.673039 0.708084
O O10 0.849887 0.846818 0.651565
O O11 0.142378 0.289268 0.105214
O O12 0.261916 0.247476 0.267077
O O13 0.418006 0.200349 0.370037
O O14 0.500000 0.000000 0.428499
O O15 0.506089 0.191083 0.242779
#
# Coordination Sequence:
#
# PCOD9556248 Si02
#       7
#     8   8   8   8   8   8   8
#     4  11  27  43  76 122 170 210 275 348 430 491
#     4   9  18  32  62 109 153 187 253 332 400 474
#     4   9  20  41  75 105 151 204 281 329 402 484
#     4  11  22  39  73 113 158 210 262 338 420 489
#     4  11  22  43  76 118 154 213 275 345 418 491
#     4  10  24  49  80 112 161 220 277 344 409 510
#     4  10  23  46  82 110 155 217 279 331 408 494
#
# _framework density 25.663830000000001
#
# number of rings (size 3 to 8) (size 9 to 14) (size 15 to 20)
#    0.857    1.000    1.429    1.714   10.000    1.714 
#    0.000    0.714    3.143    0.000    0.000    0.000 
#    0.000    0.000    0.000    0.000    0.000    0.000 
#
# Total GULP energy -312279.348740 kJ/mol
# GULP energy per Si atom -5576.416942 kJ/mol
# Density = 2.560542 g / cm^3
# Si number density = 25.663830 Si / 1000 Ang^3
#
#
#
# Elastic Constant Matrix: (Units=GPa)
#
#
# Indices 1 2 3 4 5 6 
#
# 1 129.7614 27.5531 41.4789 0.0000 0.0000 0.0000
# 2 27.5531 129.7614 41.4789 0.0000 0.0000 0.0000
# 3 41.4789 41.4789 113.3886 0.0000 0.0000 0.0000
# 4 0.0000 0.0000 0.0000 42.0451 0.0000 0.0000
# 5 0.0000 0.0000 0.0000 0.0000 42.0451 0.0000
# 6 0.0000 0.0000 0.0000 0.0000 0.0000 29.1935
#
#
#
# Elastic Compliance Matrix: (Units=1/GPa)
#
#
# Indices 1 2 3 4 5 6 
#
# 1 0.008830 -0.000954 -0.002881 0.000000 0.000000 0.000000
# 2 -0.000954 0.008830 -0.002881 0.000000 0.000000 0.000000
# 3 -0.002881 -0.002881 0.010927 0.000000 0.000000 0.000000
# 4 0.000000 0.000000 0.000000 0.023784 0.000000 0.000000
# 5 0.000000 0.000000 0.000000 0.000000 0.023784 0.000000
# 6 0.000000 0.000000 0.000000 0.000000 0.000000 0.034254
#
#
# Mechanical properties :
#
#
# Convention : Reuss Voigt Hill
#
# Bulk Modulus (GPa) = 65.98647 65.99257 65.98952
# Shear Modulus (GPa) = 38.79176 40.15010 39.47093
#
# Velocity S-wave (km/s) = 3.89206 3.95962 3.92599
# Velocity P-wave (km/s) = 6.77977 6.83190 6.80588
#
# Compressibility (1/GPa) = 0.01515462
#
# Stress axis : x y z
#
# Youngs Moduli (GPa) = 113.25048 113.25048 91.51524
#
# Poissons Ratio (x) = 0.10804 0.26367
# Poissons Ratio (y) = 0.10804 0.26367
# Poissons Ratio (z) = 0.32629 0.32629
#
# Static dielectric constant tensor:
#      x y z
#    x 2.079060 0.000000 0.000000 
#    y 0.000000 2.079060 0.000000 
#    z 0.000000 0.000000 2.181350 
# 
# From -- ./inp_files/2243.got.cif
#   From: 2010.05.17/outbox.cif.g08.bks.cpg/sg114_2_cif.got.tgz:2243.got - 2010.05.20 11:04:54.
