data_PCOD9556855
_publ_section_title
;
Structure prediction by ZEFSAII (Michael W. Deem and Ramdas Pophale) SiO2 
 PCOD9556855
Probable space group: P -4 M 2
;
_chemical_formula_sum "Si O2"
_cell_formula_units_Z 40
_cell_length_a 9.197592
_cell_length_b 9.197592
_cell_length_c 26.647483
_cell_angle_alpha 90.000000
_cell_angle_beta 90.000000
_cell_angle_gamma 90.000000
_cell_volume 2254.262440
_symmetry_space_group_name_H-M "P -4 M 2"
_symmetry_group_IT_number 115
_symmetry_cell_setting 'tetragonal'
loop_
_space_group_symop_operation_xyz
x,y,z
y,-x,-z
-x,-y,z
-y,x,-z
y,x,-z
-y,-x,-z
-x,y,z
x,-y,z
loop_
_atom_site_type_symbol
_atom_site_label
_atom_site_fract_x
_atom_site_fract_y
_atom_site_fract_z
Si Si1 0.666677 0.822834 0.654982
Si Si2 0.673353 0.172171 0.953729
Si Si3 0.168371 0.177399 0.555343
Si Si4 0.328340 0.673725 0.150362
Si Si5 0.172517 0.173424 0.756951
O O1 0.500000 0.776011 0.659032
O O2 0.738780 0.773856 0.602885
O O3 0.756664 0.779951 0.704150
O O4 0.668636 0.000000 0.653874
O O5 0.500000 0.195100 0.961123
O O6 0.714498 0.249829 0.901627
O O7 0.699443 0.000000 0.950173
O O8 0.758749 0.241252 0.000000
O O9 0.222175 0.222175 0.500000
O O10 0.000000 0.221094 0.561643
O O11 0.169669 0.000000 0.554445
O O12 0.500000 0.703030 0.146913
O O13 0.308334 0.500000 0.157250
O O14 0.257456 0.756112 0.196943
O O15 0.000000 0.195746 0.755501
O O16 0.199508 0.000000 0.762943
#
# Coordination Sequence:
#
# PCOD9556855 Si02
#       5
#     8   8   8   8   8
#     4   9  16  26  43  68  97 128 163 205 252 302
#     4  10  21  37  58  83 110 141 176 213 254 301
#     4   8  13  22  38  61  89 121 158 200 245 295
#     4  10  21  37  57  79 104 137 175 213 255 305
#     4  10  20  33  51  76 105 136 171 213 259 305
#
# _framework density 17.744161999999999
#
# number of rings (size 3 to 8) (size 9 to 14) (size 15 to 20)
#    0.000    2.600    0.000    3.000    0.000    6.800 
#    0.000    0.000    0.000    1.200    0.000    2.800 
#    0.000    0.000    0.000    0.000    0.000    0.000 
#
# Total GULP energy -223138.597605 kJ/mol
# GULP energy per Si atom -5578.464940 kJ/mol
# Density = 1.770378 g / cm^3
# Si number density = 17.744162 Si / 1000 Ang^3
#
#
#
# Elastic Constant Matrix: (Units=GPa)
#
#
# Indices 1 2 3 4 5 6 
#
# 1 63.6338 55.6953 86.9715 0.0000 0.0000 0.0000
# 2 55.6953 63.6335 86.9728 0.0000 0.0000 0.0000
# 3 86.9715 86.9728 217.7446 0.0000 0.0000 0.0000
# 4 0.0000 0.0000 0.0000 -304.4500 0.0000 0.0000
# 5 0.0000 0.0000 0.0000 0.0000 -304.3175 0.0000
# 6 0.0000 0.0000 0.0000 0.0000 0.0000 19.6045
#
#
#
# Elastic Compliance Matrix: (Units=1/GPa)
#
#
# Indices 1 2 3 4 5 6 
#
# 1 0.073014 -0.052956 -0.008011 0.000000 0.000000 0.000000
# 2 -0.052956 0.073017 -0.008013 0.000000 0.000000 0.000000
# 3 -0.008011 -0.008013 0.010993 0.000000 0.000000 0.000000
# 4 0.000000 0.000000 0.000000 -0.003285 0.000000 0.000000
# 5 0.000000 0.000000 0.000000 0.000000 -0.003286 0.000000
# 6 0.000000 0.000000 0.000000 0.000000 0.000000 0.051009
#
#
# Mechanical properties :
#
#
# Convention : Reuss Voigt Hill
#
# Bulk Modulus (GPa) = 52.45713 89.36567 70.91140
# Shear Modulus (GPa) = 14.46021 -110.14111 -47.84045
#
# Velocity S-wave (km/s) = 2.85779 -7.88711 -5.19805
# Velocity P-wave (km/s) = 6.36526 5.69818 2.00590
#
# Compressibility (1/GPa) = 0.01906319
#
# Stress axis : x y z
#
# Youngs Moduli (GPa) = 13.69606 13.69548 90.96642
#
# Poissons Ratio (x) = 0.72525 0.72875
# Poissons Ratio (y) = 0.72529 0.72893
# Poissons Ratio (z) = 0.10972 0.10974
#
# Static dielectric constant tensor:
#      x y z
#    x 1.592940 0.000000 0.000000 
#    y 0.000000 1.592940 0.000000 
#    z 0.000000 0.000000 1.587240 
# 
# From -- ./inp_files/5127.got.cif
#   From: 2010.05.17/outbox.cif.g08.bks.cpg/sg115_3_cif.got.tgz:5127.got - 2010.05.20 11:07:42.
