data_PCOD9556572
_publ_section_title
;
Structure prediction by ZEFSAII (Michael W. Deem and Ramdas Pophale) SiO2 
 PCOD9556572
Probable space group: P -4 M 2
;
_chemical_formula_sum "Si O2"
_cell_formula_units_Z 40
_cell_length_a 19.164726
_cell_length_b 19.164726
_cell_length_c 5.531410
_cell_angle_alpha 90.000000
_cell_angle_beta 90.000000
_cell_angle_gamma 90.000000
_cell_volume 2031.613451
_symmetry_space_group_name_H-M "P -4 M 2"
_symmetry_group_IT_number 115
_symmetry_cell_setting 'tetragonal'
loop_
_space_group_symop_operation_xyz
x,y,z
y,-x,-z
-x,-y,z
-y,x,-z
y,x,-z
-y,-x,-z
-x,y,z
x,-y,z
loop_
_atom_site_type_symbol
_atom_site_label
_atom_site_fract_x
_atom_site_fract_y
_atom_site_fract_z
Si Si1 0.290406 0.078528 0.750000
Si Si2 0.108472 0.129518 0.250000
Si Si3 0.724794 0.373489 0.750000
Si Si4 0.422904 0.302822 0.750000
Si Si5 0.151634 0.277477 0.750000
O O1 0.205891 0.075677 0.750000
O O2 0.306169 0.117332 0.497362
O O3 0.318294 0.000000 0.750000
O O4 0.306169 0.117332 0.002638
O O5 0.092224 0.092224 0.500000
O O6 0.193466 0.142256 0.250000
O O7 0.092224 0.092224 0.000000
O O8 0.739218 0.413174 0.500091
O O9 0.642426 0.355753 0.750000
O O10 0.768317 0.301756 0.750000
O O11 0.739218 0.413174 0.999909
O O12 0.500000 0.334852 0.750000
#
# Coordination Sequence:
#
# PCOD9556572 Si02
#       5
#     8   8   8   8   8
#     4  10  19  29  44  70 112 136 161 218 271 305
#     4   8  16  25  42  62  94 124 165 199 240 305
#     4  10  21  33  58  74 105 149 173 215 277 302
#     4  10  21  34  52  81 112 137 179 225 263 304
#     4  10  19  31  50  75  99 138 181 204 259 330
#
# _framework density 19.688787000000001
#
# number of rings (size 3 to 8) (size 9 to 14) (size 15 to 20)
#    0.000    2.400    0.000    2.400   16.800    0.000 
#    0.000    0.000    0.000   28.800    0.000    0.000 
#    0.000  250.400    0.000    0.000    0.000    0.000 
#
# Total GULP energy -222736.433960 kJ/mol
# GULP energy per Si atom -5568.410849 kJ/mol
# Density = 1.964397 g / cm^3
# Si number density = 19.688787 Si / 1000 Ang^3
#
#
#
# Elastic Constant Matrix: (Units=GPa)
#
#
# Indices 1 2 3 4 5 6 
#
# 1 40.9892 46.3339 24.3883 0.0000 0.0000 0.0000
# 2 46.3339 40.9892 24.3883 0.0000 0.0000 0.0000
# 3 24.3883 24.3883 229.0426 0.0000 0.0000 0.0000
# 4 0.0000 0.0000 0.0000 20.2688 0.0000 0.0000
# 5 0.0000 0.0000 0.0000 0.0000 20.2688 0.0000
# 6 0.0000 0.0000 0.0000 0.0000 0.0000 -10.7532
#
#
#
# Elastic Compliance Matrix: (Units=1/GPa)
#
#
# Indices 1 2 3 4 5 6 
#
# 1 -0.087463 0.099638 -0.001296 0.000000 0.000000 0.000000
# 2 0.099638 -0.087463 -0.001296 0.000000 0.000000 0.000000
# 3 -0.001296 -0.001296 0.004642 0.000000 0.000000 0.000000
# 4 0.000000 0.000000 0.000000 0.049337 0.000000 0.000000
# 5 0.000000 0.000000 0.000000 0.000000 0.049337 0.000000
# 6 0.000000 0.000000 0.000000 0.000000 0.000000 -0.092995
#
#
# Mechanical properties :
#
#
# Convention : Reuss Voigt Hill
#
# Bulk Modulus (GPa) = 42.00270 55.69356 48.84813
# Shear Modulus (GPa) = -14.25478 20.35093 3.04807
#
# Velocity S-wave (km/s) = -2.69365 3.21850 1.24559
# Velocity P-wave (km/s) = 3.42130 6.49307 5.18967
#
# Compressibility (1/GPa) = 0.02380799
#
# Stress axis : x y z
#
# Youngs Moduli (GPa) = -11.43347 -11.43347 215.41991
#
# Poissons Ratio (x) = 1.13921 0.27929
# Poissons Ratio (y) = 1.13921 0.27929
# Poissons Ratio (z) = -0.01482 -0.01482
#
# Static dielectric constant tensor:
#      x y z
#    x 1.681730 0.000000 0.000000 
#    y 0.000000 1.681730 0.000000 
#    z 0.000000 0.000000 1.832020 
# 
# From -- ./inp_files/525.got.cif
#   From: 2010.05.17/outbox.cif.g08.bks.cpg/sg115_1_cif.got.tgz:525.got - 2010.05.20 11:07:42.
