data_PCOD9556423
_publ_section_title
;
Structure prediction by ZEFSAII (Michael W. Deem and Ramdas Pophale) SiO2 
 PCOD9556423
Probable space group: P -4 21 C
;
_chemical_formula_sum "Si O2"
_cell_formula_units_Z 42
_cell_length_a 13.010339
_cell_length_b 13.010339
_cell_length_c 9.760599
_cell_angle_alpha 90.000000
_cell_angle_beta 90.000000
_cell_angle_gamma 90.000000
_cell_volume 1652.166060
_symmetry_space_group_name_H-M "P -4 21 C"
_symmetry_group_IT_number 114
_symmetry_cell_setting 'tetragonal'
loop_
_space_group_symop_operation_xyz
x,y,z
y,-x,-z
-x,-y,z
-y,x,-z
1/2+x,1/2-y,1/2-z
1/2-x,1/2+y,1/2-z
1/2-y,1/2-x,1/2+z
1/2+y,1/2+x,1/2+z
loop_
_atom_site_type_symbol
_atom_site_label
_atom_site_fract_x
_atom_site_fract_y
_atom_site_fract_z
Si Si1 0.000000 0.000000 0.500000
Si Si2 0.894999 0.449612 0.096883
Si Si3 0.166060 0.958526 0.975430
Si Si4 0.710392 0.607815 0.069660
Si Si5 0.821596 0.771140 0.258564
Si Si6 0.437221 0.184505 0.632544
O O1 0.059099 0.094719 0.578237
O O2 0.906721 0.437261 0.259327
O O3 0.000000 0.500000 0.043851
O O4 0.797184 0.520485 0.075217
O O5 0.882403 0.348297 0.006979
O O6 0.218098 0.925845 0.832223
O O7 0.072669 0.884115 0.020836
O O8 0.260042 0.959881 0.082782
O O9 0.726715 0.656313 0.918625
O O10 0.746367 0.688178 0.186400
O O11 0.767712 0.877296 0.220026
#
# Coordination Sequence:
#
# PCOD9556423 Si02
#       6
#     2   8   8   8   8   8
#     4  12  28  60  84 126 168 244 280 362 420 524
#     4  12  28  46  76 111 154 211 267 338 418 499
#     4   9  21  42  73 110 153 206 270 338 412 498
#     4  12  29  50  80 117 163 214 287 343 429 499
#     4  11  25  47  75 114 155 208 267 352 411 503
#     4  11  24  46  69 106 149 202 261 333 415 491
#
# _framework density 25.421174000000001
#
# number of rings (size 3 to 8) (size 9 to 14) (size 15 to 20)
#    0.000    0.952    0.000    5.143   10.667    4.571 
#    3.429    0.000    0.000    1.143    0.000    0.000 
#    0.000    0.000    0.000    0.000    0.000    0.000 
#
# Total GULP energy -234732.236644 kJ/mol
# GULP energy per Si atom -5588.862777 kJ/mol
# Density = 2.536331 g / cm^3
# Si number density = 25.421174 Si / 1000 Ang^3
#
#
#
# Elastic Constant Matrix: (Units=GPa)
#
#
# Indices 1 2 3 4 5 6 
#
# 1 89.8936 23.4599 46.0077 0.0000 0.0000 0.0000
# 2 23.4599 89.8936 46.0077 0.0000 0.0000 0.0000
# 3 46.0077 46.0077 168.7259 0.0000 0.0000 0.0000
# 4 0.0000 0.0000 0.0000 35.3576 0.0000 0.0000
# 5 0.0000 0.0000 0.0000 0.0000 35.3576 0.0000
# 6 0.0000 0.0000 0.0000 0.0000 0.0000 43.4675
#
#
#
# Elastic Compliance Matrix: (Units=1/GPa)
#
#
# Indices 1 2 3 4 5 6 
#
# 1 0.013191 -0.001861 -0.003089 0.000000 0.000000 0.000000
# 2 -0.001861 0.013191 -0.003089 0.000000 0.000000 0.000000
# 3 -0.003089 -0.003089 0.007612 0.000000 0.000000 0.000000
# 4 0.000000 0.000000 0.000000 0.028282 0.000000 0.000000
# 5 0.000000 0.000000 0.000000 0.000000 0.028282 0.000000
# 6 0.000000 0.000000 0.000000 0.000000 0.000000 0.023006
#
#
# Mechanical properties :
#
#
# Convention : Reuss Voigt Hill
#
# Bulk Modulus (GPa) = 55.82335 64.38484 60.10409
# Shear Modulus (GPa) = 36.86880 38.37241 37.62061
#
# Velocity S-wave (km/s) = 3.81244 3.88940 3.85111
# Velocity P-wave (km/s) = 6.43324 6.74923 6.59313
#
# Compressibility (1/GPa) = 0.01791365
#
# Stress axis : x y z
#
# Youngs Moduli (GPa) = 75.80816 75.80816 131.37890
#
# Poissons Ratio (x) = 0.14111 0.40588
# Poissons Ratio (y) = 0.14111 0.40588
# Poissons Ratio (z) = 0.23420 0.23420
#
# Static dielectric constant tensor:
#      x y z
#    x 2.080060 0.000000 0.000000 
#    y 0.000000 2.080060 0.000000 
#    z 0.000000 0.000000 2.045640 
# 
# From -- ./inp_files/809.got.cif
#   From: 2010.05.17/outbox.cif.g08.bks.cpg/sg114_1_cif.got.tgz:809.got - 2010.05.20 11:04:54.
