data_PCOD9556975
_publ_section_title
;
Structure prediction by ZEFSAII (Michael W. Deem and Ramdas Pophale) SiO2 
 PCOD9556975
Probable space group: P -4 M 2
;
_chemical_formula_sum "Si O2"
_cell_formula_units_Z 44
_cell_length_a 9.152561
_cell_length_b 9.152561
_cell_length_c 29.596908
_cell_angle_alpha 90.000000
_cell_angle_beta 90.000000
_cell_angle_gamma 90.000000
_cell_volume 2479.314422
_symmetry_space_group_name_H-M "P -4 M 2"
_symmetry_group_IT_number 115
_symmetry_cell_setting 'tetragonal'
loop_
_space_group_symop_operation_xyz
x,y,z
y,-x,-z
-x,-y,z
-y,x,-z
y,x,-z
-y,-x,-z
-x,y,z
x,-y,z
loop_
_atom_site_type_symbol
_atom_site_label
_atom_site_fract_x
_atom_site_fract_y
_atom_site_fract_z
Si Si1 0.672882 0.324542 0.584874
Si Si2 0.826273 0.826273 0.500000
Si Si3 0.821866 0.169452 0.950587
Si Si4 0.832169 0.322027 0.677378
Si Si5 0.678385 0.668336 0.231939
Si Si6 0.171831 0.324712 0.859284
O O1 0.500000 0.295748 0.584423
O O2 0.693106 0.500000 0.579755
O O3 0.751974 0.243429 0.544037
O O4 0.742379 0.280118 0.632857
O O5 0.000000 0.800524 0.501202
O O6 0.775140 0.256856 0.906395
O O7 0.000000 0.173814 0.951992
O O8 0.779292 0.000000 0.945960
O O9 0.774106 0.225895 0.000000
O O10 0.832265 0.500000 0.678332
O O11 0.756941 0.273156 0.723859
O O12 0.000000 0.273940 0.674558
O O13 0.500000 0.671869 0.231975
O O14 0.723028 0.500000 0.234724
O O15 0.725535 0.741511 0.184990
O O16 0.182998 0.500000 0.862069
O O17 0.000000 0.288465 0.853756
#
# Coordination Sequence:
#
# PCOD9556975 Si02
#       6
#     8   4   8   8   8   8
#     4  10  20  34  54  80 106 131 163 205 252 298
#     4  11  24  39  54  74 102 137 174 207 242 290
#     4   8  14  26  44  63  83 111 147 184 224 274
#     4   9  16  27  46  72 100 129 162 201 243 286
#     4   9  16  26  41  63  93 126 157 191 234 283
#     4   9  16  26  42  64  87 111 144 187 231 274
#
# _framework density 17.746842999999998
#
# number of rings (size 3 to 8) (size 9 to 14) (size 15 to 20)
#    0.000    2.818    0.000    2.727    0.000    7.273 
#    0.000    0.909    0.000    2.727    0.000    2.545 
#    0.000    0.000    0.000    0.000    0.000    0.000 
#
# Total GULP energy -245279.565720 kJ/mol
# GULP energy per Si atom -5574.535585 kJ/mol
# Density = 1.770645 g / cm^3
# Si number density = 17.746843 Si / 1000 Ang^3
#
#
#
# Elastic Constant Matrix: (Units=GPa)
#
#
# Indices 1 2 3 4 5 6 
#
# 1 57.5399 44.3875 73.2562 0.0000 0.0000 0.0000
# 2 44.3875 57.5398 73.2561 0.0000 0.0000 0.0000
# 3 73.2562 73.2561 218.7155 0.0000 0.0000 0.0000
# 4 0.0000 0.0000 0.0000 40.6736 0.0000 0.0000
# 5 0.0000 0.0000 0.0000 0.0000 40.6734 0.0000
# 6 0.0000 0.0000 0.0000 0.0000 0.0000 13.1243
#
#
#
# Elastic Compliance Matrix: (Units=1/GPa)
#
#
# Indices 1 2 3 4 5 6 
#
# 1 0.047476 -0.028556 -0.006337 0.000000 0.000000 0.000000
# 2 -0.028556 0.047476 -0.006337 0.000000 0.000000 0.000000
# 3 -0.006337 -0.006337 0.008817 0.000000 0.000000 0.000000
# 4 0.000000 0.000000 0.000000 0.024586 0.000000 0.000000
# 5 0.000000 0.000000 0.000000 0.000000 0.024586 0.000000
# 6 0.000000 0.000000 0.000000 0.000000 0.000000 0.076195
#
#
# Mechanical properties :
#
#
# Convention : Reuss Voigt Hill
#
# Bulk Modulus (GPa) = 46.92884 79.51052 63.21968
# Shear Modulus (GPa) = 15.68881 28.42061 22.05471
#
# Velocity S-wave (km/s) = 2.97650 4.00615 3.52908
# Velocity P-wave (km/s) = 6.18980 8.14241 7.23230
#
# Compressibility (1/GPa) = 0.02130886
#
# Stress axis : x y z
#
# Youngs Moduli (GPa) = 21.06337 21.06329 113.41568
#
# Poissons Ratio (x) = 0.60149 0.71871
# Poissons Ratio (y) = 0.60149 0.71871
# Poissons Ratio (z) = 0.13348 0.13348
#
# Static dielectric constant tensor:
#      x y z
#    x 1.596610 0.000000 0.000000 
#    y 0.000000 1.596610 0.000000 
#    z 0.000000 0.000000 1.599190 
# 
# From -- ./inp_files/5738.got.cif
#   From: 2010.05.17/outbox.cif.g08.bks.cpg/sg115_3_cif.got.tgz:5738.got - 2010.05.20 11:07:42.
