data_PCOD9556104
_publ_section_title
;
Structure prediction by ZEFSAII (Michael W. Deem and Ramdas Pophale) SiO2 
 PCOD9556104
Probable space group: P -4 21 C
;
_chemical_formula_sum "Si O2"
_cell_formula_units_Z 24
_cell_length_a 12.879962
_cell_length_b 12.879962
_cell_length_c 5.433012
_cell_angle_alpha 90.000000
_cell_angle_beta 90.000000
_cell_angle_gamma 90.000000
_cell_volume 901.300948
_symmetry_space_group_name_H-M "P -4 21 C"
_symmetry_group_IT_number 114
_symmetry_cell_setting 'tetragonal'
loop_
_space_group_symop_operation_xyz
x,y,z
y,-x,-z
-x,-y,z
-y,x,-z
1/2+x,1/2-y,1/2-z
1/2-x,1/2+y,1/2-z
1/2-y,1/2-x,1/2+z
1/2+y,1/2+x,1/2+z
loop_
_atom_site_type_symbol
_atom_site_label
_atom_site_fract_x
_atom_site_fract_y
_atom_site_fract_z
Si Si1 0.865519 0.405892 0.530315
Si Si2 0.513521 0.345288 0.413451
Si Si3 0.241632 0.818873 0.581615
O O1 0.936312 0.408756 0.293953
O O2 0.763626 0.473639 0.489558
O O3 0.830944 0.284220 0.562650
O O4 0.409709 0.414438 0.397858
O O5 0.581375 0.323690 0.170182
O O6 0.298209 0.817104 0.318090
#
# Coordination Sequence:
#
# PCOD9556104 Si02
#       3
#     8   8   8
#     4  10  21  43  63  93 141 188 210 287 368 398
#     4  11  22  40  72 111 132 175 252 296 324 417
#     4  10  21  43  63  93 141 188 210 287 368 398
#
# _framework density 26.628174000000001
#
# number of rings (size 3 to 8) (size 9 to 14) (size 15 to 20)
#    0.000    1.667    6.667    0.000    0.000    2.667 
#    0.000    0.000    0.000    6.000    0.000    0.000 
#    0.000    0.000    0.000    0.000    0.000    0.000 
#
# Total GULP energy -134236.636189 kJ/mol
# GULP energy per Si atom -5593.193175 kJ/mol
# Density = 2.656757 g / cm^3
# Si number density = 26.628174 Si / 1000 Ang^3
#
#
#
# Elastic Constant Matrix: (Units=GPa)
#
#
# Indices 1 2 3 4 5 6 
#
# 1 98.8640 89.0014 51.0959 0.0000 0.0000 0.0000
# 2 89.0014 98.8640 51.0959 0.0000 0.0000 0.0000
# 3 51.0959 51.0959 223.8689 0.0000 0.0000 0.0000
# 4 0.0000 0.0000 0.0000 -4.9648 0.0000 0.0000
# 5 0.0000 0.0000 0.0000 0.0000 -4.9648 0.0000
# 6 0.0000 0.0000 0.0000 0.0000 0.0000 48.8813
#
#
#
# Elastic Compliance Matrix: (Units=1/GPa)
#
#
# Indices 1 2 3 4 5 6 
#
# 1 0.053736 -0.047658 -0.001387 0.000000 0.000000 0.000000
# 2 -0.047658 0.053736 -0.001387 0.000000 0.000000 0.000000
# 3 -0.001387 -0.001387 0.005100 0.000000 0.000000 0.000000
# 4 0.000000 0.000000 0.000000 -0.201420 0.000000 0.000000
# 5 0.000000 0.000000 0.000000 0.000000 -0.201420 0.000000
# 6 0.000000 0.000000 0.000000 0.000000 0.000000 0.020458
#
#
# Mechanical properties :
#
#
# Convention : Reuss Voigt Hill
#
# Bulk Modulus (GPa) = 85.42199 89.33147 87.37673
# Shear Modulus (GPa) = -30.29491 23.15061 -3.57215
#
# Velocity S-wave (km/s) = -3.37664 2.95176 -1.15948
# Velocity P-wave (km/s) = 4.11666 6.72590 5.57605
#
# Compressibility (1/GPa) = 0.01170659
#
# Stress axis : x y z
#
# Youngs Moduli (GPa) = 18.60965 18.60965 196.07464
#
# Poissons Ratio (x) = 0.88690 0.27198
# Poissons Ratio (y) = 0.88690 0.27198
# Poissons Ratio (z) = 0.02581 0.02581
#
# Static dielectric constant tensor:
#      x y z
#    x 2.105990 0.000000 0.000000 
#    y 0.000000 2.105990 0.000000 
#    z 0.000000 0.000000 2.122250 
# 
# From -- ./inp_files/68.got.cif
#   From: 2010.05.17/outbox.cif.g08.bks.cpg/sg114_1_cif.got.tgz:68.got - 2010.05.20 11:04:54.
