data_PCOD9556066
_publ_section_title
;
Structure prediction by ZEFSAII (Michael W. Deem and Ramdas Pophale) SiO2 
 PCOD9556066
Probable space group: P -4 21 C
;
_chemical_formula_sum "Si O2"
_cell_formula_units_Z 32
_cell_length_a 7.808119
_cell_length_b 7.808119
_cell_length_c 19.882536
_cell_angle_alpha 90.000000
_cell_angle_beta 90.000000
_cell_angle_gamma 90.000000
_cell_volume 1212.173051
_symmetry_space_group_name_H-M "P -4 21 C"
_symmetry_group_IT_number 114
_symmetry_cell_setting 'tetragonal'
loop_
_space_group_symop_operation_xyz
x,y,z
y,-x,-z
-x,-y,z
-y,x,-z
1/2+x,1/2-y,1/2-z
1/2-x,1/2+y,1/2-z
1/2-y,1/2-x,1/2+z
1/2+y,1/2+x,1/2+z
loop_
_atom_site_type_symbol
_atom_site_label
_atom_site_fract_x
_atom_site_fract_y
_atom_site_fract_z
Si Si1 0.707951 0.494868 0.734231
Si Si2 0.341697 0.871415 0.969184
Si Si3 0.789489 0.307172 0.853796
Si Si4 0.183462 0.833846 0.101781
O O1 0.500000 0.500000 0.738809
O O2 0.784309 0.473417 0.808190
O O3 0.770864 0.671385 0.702419
O O4 0.753425 0.363190 0.672942
O O5 0.337070 0.718867 0.915674
O O6 0.500000 0.000000 0.969324
O O7 0.195340 0.004749 0.940727
O O8 0.315394 0.791598 0.042511
O O9 0.977162 0.250505 0.877723
#
# Coordination Sequence:
#
# PCOD9556066 Si02
#       4
#     8   8   8   8
#     4   9  21  37  62  97 132 170 217 284 327 398
#     4  11  22  37  67  98 125 173 227 280 327 407
#     4  10  21  39  67  93 132 183 218 272 333 414
#     4  10  21  41  67  90 133 175 228 267 331 417
#
# _framework density 26.398868
#
# number of rings (size 3 to 8) (size 9 to 14) (size 15 to 20)
#    0.000    2.000    2.500    2.250    0.000   10.000 
#    0.000    0.000    0.000    0.000    0.000    0.000 
#    0.000    0.000    0.000    0.000    0.000    0.000 
#
# Total GULP energy -178478.484664 kJ/mol
# GULP energy per Si atom -5577.452646 kJ/mol
# Density = 2.633878 g / cm^3
# Si number density = 26.398868 Si / 1000 Ang^3
#
#
#
# Elastic Constant Matrix: (Units=GPa)
#
#
# Indices 1 2 3 4 5 6 
#
# 1 63.2049 4.3848 25.9416 0.0000 0.0000 0.0000
# 2 4.3848 63.2049 25.9416 0.0000 0.0000 0.0000
# 3 25.9416 25.9416 187.1814 0.0000 0.0000 0.0000
# 4 0.0000 0.0000 0.0000 26.8282 0.0000 0.0000
# 5 0.0000 0.0000 0.0000 0.0000 26.8282 0.0000
# 6 0.0000 0.0000 0.0000 0.0000 0.0000 17.4182
#
#
#
# Elastic Compliance Matrix: (Units=1/GPa)
#
#
# Indices 1 2 3 4 5 6 
#
# 1 0.016779 -0.000222 -0.002295 0.000000 0.000000 0.000000
# 2 -0.000222 0.016779 -0.002295 0.000000 0.000000 0.000000
# 3 -0.002295 -0.002295 0.005978 0.000000 0.000000 0.000000
# 4 0.000000 0.000000 0.000000 0.037274 0.000000 0.000000
# 5 0.000000 0.000000 0.000000 0.000000 0.037274 0.000000
# 6 0.000000 0.000000 0.000000 0.000000 0.000000 0.057411
#
#
# Mechanical properties :
#
#
# Convention : Reuss Voigt Hill
#
# Bulk Modulus (GPa) = 33.43009 47.34745 40.38877
# Shear Modulus (GPa) = 26.16576 31.36980 28.76778
#
# Velocity S-wave (km/s) = 3.15170 3.45091 3.30470
# Velocity P-wave (km/s) = 5.09266 5.81831 5.46754
#
# Compressibility (1/GPa) = 0.02991317
#
# Stress axis : x y z
#
# Youngs Moduli (GPa) = 59.59912 59.59912 167.26803
#
# Poissons Ratio (x) = 0.01324 0.38381
# Poissons Ratio (y) = 0.01324 0.38381
# Poissons Ratio (z) = 0.13676 0.13676
#
# Static dielectric constant tensor:
#      x y z
#    x 2.195990 0.000000 0.000000 
#    y 0.000000 2.195990 0.000000 
#    z 0.000000 0.000000 2.091970 
# 
# From -- ./inp_files/2827.got.cif
#   From: 2010.05.17/outbox.cif.g08.bks.cpg/sg114_2_cif.got.tgz:2827.got - 2010.05.20 11:04:54.
