data_PCOD9556825
_publ_section_title
;
Structure prediction by ZEFSAII (Michael W. Deem and Ramdas Pophale) SiO2 
 PCOD9556825
Probable space group: P -4 M 2
;
_chemical_formula_sum "Si O2"
_cell_formula_units_Z 48
_cell_length_a 9.228574
_cell_length_b 9.228574
_cell_length_c 32.329600
_cell_angle_alpha 90.000000
_cell_angle_beta 90.000000
_cell_angle_gamma 90.000000
_cell_volume 2753.401402
_symmetry_space_group_name_H-M "P -4 M 2"
_symmetry_group_IT_number 115
_symmetry_cell_setting 'tetragonal'
loop_
_space_group_symop_operation_xyz
x,y,z
y,-x,-z
-x,-y,z
-y,x,-z
y,x,-z
-y,-x,-z
-x,y,z
x,-y,z
loop_
_atom_site_type_symbol
_atom_site_label
_atom_site_fract_x
_atom_site_fract_y
_atom_site_fract_z
Si Si1 0.672841 0.828379 0.462101
Si Si2 0.825261 0.830622 0.300778
Si Si3 0.323115 0.668007 0.954848
Si Si4 0.323253 0.832817 0.873030
Si Si5 0.670180 0.673768 0.623487
Si Si6 0.667715 0.823376 0.782272
O O1 0.758725 0.758725 0.500000
O O2 0.500000 0.806234 0.468412
O O3 0.713129 0.750371 0.419176
O O4 0.699325 0.000000 0.459153
O O5 0.752891 0.743468 0.337993
O O6 0.779675 0.763826 0.256617
O O7 0.000000 0.817053 0.303510
O O8 0.788272 0.000000 0.303278
O O9 0.500000 0.673678 0.955743
O O10 0.282232 0.500000 0.951482
O O11 0.273949 0.750186 0.913898
O O12 0.275307 0.724694 0.000000
O O13 0.500000 0.829856 0.872617
O O14 0.280515 0.774086 0.827748
O O15 0.278778 0.000000 0.876062
O O16 0.500000 0.708848 0.620873
O O17 0.684217 0.500000 0.628614
O O18 0.500000 0.779369 0.776054
O O19 0.668218 0.000000 0.784019
#
# Coordination Sequence:
#
# PCOD9556825 Si02
#       6
#     8   8   8   8   8   8
#     4  10  21  37  57  80 106 137 171 206 245 288
#     4  10  20  33  51  75 101 130 164 201 244 294
#     4   8  13  21  34  54  80 107 135 173 223 273
#     4   8  13  22  38  58  78 105 144 185 223 267
#     4  10  21  37  57  79 103 134 171 208 247 291
#     4   8  14  26  44  65  89 117 151 193 236 277
#
# _framework density 17.432984999999999
#
# number of rings (size 3 to 8) (size 9 to 14) (size 15 to 20)
#    0.000    3.000    0.000    3.000    0.000    3.667 
#    0.000    0.833    0.000    4.000    0.000    0.000 
#    0.000    0.000    0.000    0.000    0.000    0.000 
#
# Total GULP energy -267435.529931 kJ/mol
# GULP energy per Si atom -5571.573540 kJ/mol
# Density = 1.739331 g / cm^3
# Si number density = 17.432985 Si / 1000 Ang^3
#
#
#
# Elastic Constant Matrix: (Units=GPa)
#
#
# Indices 1 2 3 4 5 6 
#
# 1 51.3628 37.3599 74.0440 0.0000 0.0000 0.0000
# 2 37.3599 51.3626 74.0440 0.0000 0.0000 0.0000
# 3 74.0440 74.0440 218.2463 0.0000 0.0000 0.0000
# 4 0.0000 0.0000 0.0000 60.8691 0.0000 0.0000
# 5 0.0000 0.0000 0.0000 0.0000 60.8681 0.0000
# 6 0.0000 0.0000 0.0000 0.0000 0.0000 17.3084
#
#
#
# Elastic Compliance Matrix: (Units=1/GPa)
#
#
# Indices 1 2 3 4 5 6 
#
# 1 0.048700 -0.022714 -0.008816 0.000000 0.000000 0.000000
# 2 -0.022714 0.048701 -0.008817 0.000000 0.000000 0.000000
# 3 -0.008816 -0.008817 0.010564 0.000000 0.000000 0.000000
# 4 0.000000 0.000000 0.000000 0.016429 0.000000 0.000000
# 5 0.000000 0.000000 0.000000 0.000000 0.016429 0.000000
# 6 0.000000 0.000000 0.000000 0.000000 0.000000 0.057776
#
#
# Mechanical properties :
#
#
# Convention : Reuss Voigt Hill
#
# Bulk Modulus (GPa) = 36.66776 76.87417 56.77097
# Shear Modulus (GPa) = 17.33808 36.84403 27.09105
#
# Velocity S-wave (km/s) = 3.15708 4.60223 3.94637
# Velocity P-wave (km/s) = 5.86249 8.51078 7.30760
#
# Compressibility (1/GPa) = 0.02727192
#
# Stress axis : x y z
#
# Youngs Moduli (GPa) = 20.53372 20.53363 94.65848
#
# Poissons Ratio (x) = 0.46639 0.83455
# Poissons Ratio (y) = 0.46640 0.83456
# Poissons Ratio (z) = 0.18103 0.18104
#
# Static dielectric constant tensor:
#      x y z
#    x 1.583390 0.000000 0.000000 
#    y 0.000000 1.583390 0.000000 
#    z 0.000000 0.000000 1.599190 
# 
# From -- ./inp_files/5910.got.cif
#   From: 2010.05.17/outbox.cif.g08.bks.cpg/sg115_3_cif.got.tgz:5910.got - 2010.05.20 11:07:42.
