data_PCOD9556205
_publ_section_title
;
Structure prediction by ZEFSAII (Michael W. Deem and Ramdas Pophale) SiO2 
 PCOD9556205
Probable space group: P -4 21 C
;
_chemical_formula_sum "Si O2"
_cell_formula_units_Z 40
_cell_length_a 8.252779
_cell_length_b 8.252779
_cell_length_c 26.975885
_cell_angle_alpha 90.000000
_cell_angle_beta 90.000000
_cell_angle_gamma 90.000000
_cell_volume 1837.283320
_symmetry_space_group_name_H-M "P -4 21 C"
_symmetry_group_IT_number 114
_symmetry_cell_setting 'tetragonal'
loop_
_space_group_symop_operation_xyz
x,y,z
y,-x,-z
-x,-y,z
-y,x,-z
1/2+x,1/2-y,1/2-z
1/2-x,1/2+y,1/2-z
1/2-y,1/2-x,1/2+z
1/2+y,1/2+x,1/2+z
loop_
_atom_site_type_symbol
_atom_site_label
_atom_site_fract_x
_atom_site_fract_y
_atom_site_fract_z
Si Si1 0.701763 0.188940 0.325957
Si Si2 0.500000 0.000000 0.567468
Si Si3 0.925660 0.258613 0.509460
Si Si4 0.672519 0.046187 0.659836
Si Si5 0.588208 0.671734 0.764936
Si Si6 0.500000 0.000000 0.403186
O O1 0.679297 0.342301 0.290139
O O2 0.883192 0.219947 0.347302
O O3 0.703983 0.039460 0.287315
O O4 0.576413 0.140467 0.368429
O O5 0.392055 0.111355 0.532445
O O6 0.385263 0.901122 0.605427
O O7 0.808559 0.105443 0.504315
O O8 0.936756 0.354568 0.561319
O O9 0.767336 0.167190 0.694770
O O10 0.500000 0.000000 0.684181
O O11 0.500000 0.500000 0.767887
#
# Coordination Sequence:
#
# PCOD9556205 Si02
#       6
#     8   4   8   8   8   4
#     4  11  23  40  61  96 135 172 227 271 337 394
#     4   9  20  37  64  88 124 153 212 277 322 376
#     4  10  22  44  69  94 128 168 221 277 343 401
#     4   9  20  38  63  91 120 175 226 259 328 396
#     4  10  23  38  62  90 131 179 218 272 322 389
#     4  11  26  37  70 102 130 165 224 285 328 412
#
# _framework density 21.771273999999998
#
# number of rings (size 3 to 8) (size 9 to 14) (size 15 to 20)
#    0.600    1.400    0.000    2.400    9.800    0.000 
#    3.600    0.000    0.000    5.400    0.000    0.000 
#    0.000    0.000    0.000    0.000    0.000    0.000 
#
# Total GULP energy -222964.967493 kJ/mol
# GULP energy per Si atom -5574.124187 kJ/mol
# Density = 2.172172 g / cm^3
# Si number density = 21.771274 Si / 1000 Ang^3
#
#
#
# Elastic Constant Matrix: (Units=GPa)
#
#
# Indices 1 2 3 4 5 6 
#
# 1 77.7994 21.2295 40.3510 0.0000 0.0000 0.0000
# 2 21.2295 77.7994 40.3510 0.0000 0.0000 0.0000
# 3 40.3510 40.3510 139.8022 0.0000 0.0000 0.0000
# 4 0.0000 0.0000 0.0000 19.6518 0.0000 0.0000
# 5 0.0000 0.0000 0.0000 0.0000 19.6518 0.0000
# 6 0.0000 0.0000 0.0000 0.0000 0.0000 19.1284
#
#
#
# Elastic Compliance Matrix: (Units=1/GPa)
#
#
# Indices 1 2 3 4 5 6 
#
# 1 0.015441 -0.002237 -0.003811 0.000000 0.000000 0.000000
# 2 -0.002237 0.015441 -0.003811 0.000000 0.000000 0.000000
# 3 -0.003811 -0.003811 0.009353 0.000000 0.000000 0.000000
# 4 0.000000 0.000000 0.000000 0.050886 0.000000 0.000000
# 5 0.000000 0.000000 0.000000 0.000000 0.050886 0.000000
# 6 0.000000 0.000000 0.000000 0.000000 0.000000 0.052278
#
#
# Mechanical properties :
#
#
# Convention : Reuss Voigt Hill
#
# Bulk Modulus (GPa) = 48.74138 55.47377 52.10757
# Shear Modulus (GPa) = 22.64081 24.58438 23.61259
#
# Velocity S-wave (km/s) = 3.22831 3.36402 3.29686
# Velocity P-wave (km/s) = 6.02764 6.37373 6.20310
#
# Compressibility (1/GPa) = 0.02051645
#
# Stress axis : x y z
#
# Youngs Moduli (GPa) = 64.76474 64.76474 106.91889
#
# Poissons Ratio (x) = 0.14486 0.40747
# Poissons Ratio (y) = 0.14486 0.40747
# Poissons Ratio (z) = 0.24682 0.24682
#
# Static dielectric constant tensor:
#      x y z
#    x 1.832420 0.000000 0.000000 
#    y 0.000000 1.832420 0.000000 
#    z 0.000000 0.000000 1.830170 
# 
# From -- ./inp_files/3678.got.cif
#   From: 2010.05.17/outbox.cif.g08.bks.cpg/sg114_2_cif.got.tgz:3678.got - 2010.05.20 11:04:54.
