data_PCOD9556926
_publ_section_title
;
Structure prediction by ZEFSAII (Michael W. Deem and Ramdas Pophale) SiO2 
 PCOD9556926
Probable space group: P -4 M 2
;
_chemical_formula_sum "Si O2"
_cell_formula_units_Z 44
_cell_length_a 9.017466
_cell_length_b 9.017466
_cell_length_c 29.886053
_cell_angle_alpha 90.000000
_cell_angle_beta 90.000000
_cell_angle_gamma 90.000000
_cell_volume 2430.175227
_symmetry_space_group_name_H-M "P -4 M 2"
_symmetry_group_IT_number 115
_symmetry_cell_setting 'tetragonal'
loop_
_space_group_symop_operation_xyz
x,y,z
y,-x,-z
-x,-y,z
-y,x,-z
y,x,-z
-y,-x,-z
-x,y,z
x,-y,z
loop_
_atom_site_type_symbol
_atom_site_label
_atom_site_fract_x
_atom_site_fract_y
_atom_site_fract_z
Si Si1 0.181171 0.173362 0.354549
Si Si2 0.824622 0.180568 0.451870
Si Si3 0.176193 0.823808 0.000000
Si Si4 0.821833 0.825394 0.172090
Si Si5 0.180728 0.669962 0.263941
Si Si6 0.324221 0.676191 0.913659
O O1 0.234763 0.228684 0.403387
O O2 0.231465 0.262487 0.311129
O O3 0.000000 0.179524 0.355641
O O4 0.219961 0.000000 0.349619
O O5 0.765105 0.234896 0.500000
O O6 0.000000 0.216257 0.452051
O O7 0.814981 0.000000 0.451781
O O8 0.245836 0.751480 0.955922
O O9 0.000000 0.797988 0.000589
O O10 0.774885 0.763502 0.220521
O O11 0.743087 0.740282 0.131968
O O12 0.000000 0.804523 0.168190
O O13 0.791502 0.000000 0.169076
O O14 0.227170 0.500000 0.259083
O O15 0.000000 0.673155 0.264974
O O16 0.500000 0.703521 0.915959
O O17 0.299068 0.500000 0.914969
#
# Coordination Sequence:
#
# PCOD9556926 Si02
#       6
#     8   8   4   8   8   8
#     4   8  12  18  29  46  71 104 141 182 229 282
#     4   7   9  13  22  38  62  93 128 168 219 277
#     4  11  24  41  62  88 114 141 176 213 248 290
#     4  10  20  34  53  76 101 132 172 213 252 298
#     4   9  16  25  38  58  86 120 156 195 242 294
#     4  11  24  40  58  82 111 141 173 209 251 298
#
# _framework density 18.105689999999999
#
# number of rings (size 3 to 8) (size 9 to 14) (size 15 to 20)
#    0.000    2.818    0.000    4.364    0.000    8.727 
#    0.000    0.000    0.000    0.000    0.000    0.000 
#    0.000    1.455    0.000   10.182    0.000   10.000 
#
# Total GULP energy -245179.778797 kJ/mol
# GULP energy per Si atom -5572.267700 kJ/mol
# Density = 1.806448 g / cm^3
# Si number density = 18.105690 Si / 1000 Ang^3
#
#
#
# Elastic Constant Matrix: (Units=GPa)
#
#
# Indices 1 2 3 4 5 6 
#
# 1 48.9292 50.6007 61.0863 0.0000 0.0000 0.0000
# 2 50.6007 48.9292 61.0861 0.0000 0.0000 0.0000
# 3 61.0863 61.0861 201.5562 0.0000 0.0000 0.0000
# 4 0.0000 0.0000 0.0000 -15.6802 0.0000 0.0000
# 5 0.0000 0.0000 0.0000 0.0000 -15.6793 0.0000
# 6 0.0000 0.0000 0.0000 0.0000 0.0000 15.4513
#
#
#
# Elastic Compliance Matrix: (Units=1/GPa)
#
#
# Indices 1 2 3 4 5 6 
#
# 1 -0.291138 0.307137 -0.004848 0.000000 0.000000 0.000000
# 2 0.307137 -0.291138 -0.004849 0.000000 0.000000 0.000000
# 3 -0.004848 -0.004849 0.007901 0.000000 0.000000 0.000000
# 4 0.000000 0.000000 0.000000 -0.063775 0.000000 0.000000
# 5 0.000000 0.000000 0.000000 0.000000 -0.063778 0.000000
# 6 0.000000 0.000000 0.000000 0.000000 0.000000 0.064719
#
#
# Mechanical properties :
#
#
# Convention : Reuss Voigt Hill
#
# Bulk Modulus (GPa) = 48.77251 71.66232 60.21741
# Shear Modulus (GPa) = -4.08079 5.26114 0.59017
#
# Velocity S-wave (km/s) = -1.50292 1.70649 0.57155
# Velocity P-wave (km/s) = 4.89739 6.59915 5.81090
#
# Compressibility (1/GPa) = 0.02050335
#
# Stress axis : x y z
#
# Youngs Moduli (GPa) = -3.43479 -3.43480 126.57321
#
# Poissons Ratio (x) = 1.05496 0.61369
# Poissons Ratio (y) = 1.05495 0.61381
# Poissons Ratio (z) = -0.01665 -0.01666
#
# Static dielectric constant tensor:
#      x y z
#    x 1.601970 0.000000 0.000000 
#    y 0.000000 1.601970 0.000000 
#    z 0.000000 0.000000 1.641950 
# 
# From -- ./inp_files/5708.got.cif
#   From: 2010.05.17/outbox.cif.g08.bks.cpg/sg115_3_cif.got.tgz:5708.got - 2010.05.20 11:07:42.
