data_PCOD9556942
_publ_section_title
;
Structure prediction by ZEFSAII (Michael W. Deem and Ramdas Pophale) SiO2 
 PCOD9556942
Probable space group: P -4 M 2
;
_chemical_formula_sum "Si O2"
_cell_formula_units_Z 48
_cell_length_a 9.182323
_cell_length_b 9.182323
_cell_length_c 31.815650
_cell_angle_alpha 90.000000
_cell_angle_beta 90.000000
_cell_angle_gamma 90.000000
_cell_volume 2682.538301
_symmetry_space_group_name_H-M "P -4 M 2"
_symmetry_group_IT_number 115
_symmetry_cell_setting 'tetragonal'
loop_
_space_group_symop_operation_xyz
x,y,z
y,-x,-z
-x,-y,z
-y,x,-z
y,x,-z
-y,-x,-z
-x,y,z
x,-y,z
loop_
_atom_site_type_symbol
_atom_site_label
_atom_site_fract_x
_atom_site_fract_y
_atom_site_fract_z
Si Si1 0.672940 0.826369 0.209772
Si Si2 0.325017 0.670646 0.625925
Si Si3 0.674503 0.172318 0.039109
Si Si4 0.172424 0.326176 0.461062
Si Si5 0.332475 0.677295 0.875428
Si Si6 0.170593 0.824805 0.296224
O O1 0.500000 0.799344 0.215873
O O2 0.722896 0.743531 0.167919
O O3 0.758477 0.782506 0.251642
O O4 0.691038 0.000000 0.203530
O O5 0.500000 0.683200 0.630246
O O6 0.287735 0.500000 0.624004
O O7 0.283772 0.749703 0.582478
O O8 0.249530 0.746259 0.665399
O O9 0.500000 0.195047 0.034786
O O10 0.722166 0.245680 0.082940
O O11 0.701065 0.000000 0.040421
O O12 0.754408 0.245592 0.000000
O O13 0.241663 0.241663 0.500000
O O14 0.195120 0.500000 0.466969
O O15 0.000000 0.299796 0.458123
O O16 0.500000 0.724173 0.877407
O O17 0.330029 0.500000 0.875117
O O18 0.000000 0.787773 0.297220
O O19 0.184584 0.000000 0.299796
#
# Coordination Sequence:
#
# PCOD9556942 Si02
#       6
#     8   8   8   8   8   8
#     4   9  17  31  51  74 102 137 176 217 262 314
#     4  10  21  37  58  82 107 139 180 224 268 314
#     4  10  20  34  53  77 105 138 176 217 262 313
#     4  10  21  37  57  81 109 142 179 219 265 316
#     4   9  17  30  51  78 104 132 171 219 266 311
#     4  10  21  36  54  78 109 144 180 218 263 315
#
# _framework density 17.8935
#
# number of rings (size 3 to 8) (size 9 to 14) (size 15 to 20)
#    0.000    2.333    0.000    2.500    0.000    7.333 
#    0.000    2.500    0.000    3.000    0.000    0.000 
#    0.000    0.000    0.000    0.000    0.000    0.000 
#
# Total GULP energy -267966.694773 kJ/mol
# GULP energy per Si atom -5582.639474 kJ/mol
# Density = 1.785277 g / cm^3
# Si number density = 17.893500 Si / 1000 Ang^3
#
#
#
# Elastic Constant Matrix: (Units=GPa)
#
#
# Indices 1 2 3 4 5 6 
#
# 1 76.7529 65.7041 97.7894 0.0000 0.0000 0.0000
# 2 65.7041 76.7523 97.7897 0.0000 0.0000 0.0000
# 3 97.7894 97.7897 229.6958 0.0000 0.0000 0.0000
# 4 0.0000 0.0000 0.0000 265.7074 0.0000 0.0000
# 5 0.0000 0.0000 0.0000 0.0000 265.6563 0.0000
# 6 0.0000 0.0000 0.0000 0.0000 0.0000 22.8675
#
#
#
# Elastic Compliance Matrix: (Units=1/GPa)
#
#
# Indices 1 2 3 4 5 6 
#
# 1 0.053701 -0.036808 -0.007192 0.000000 0.000000 0.000000
# 2 -0.036808 0.053703 -0.007193 0.000000 0.000000 0.000000
# 3 -0.007192 -0.007193 0.010478 0.000000 0.000000 0.000000
# 4 0.000000 0.000000 0.000000 0.003764 0.000000 0.000000
# 5 0.000000 0.000000 0.000000 0.000000 0.003764 0.000000
# 6 0.000000 0.000000 0.000000 0.000000 0.000000 0.043730
#
#
# Mechanical properties :
#
#
# Convention : Reuss Voigt Hill
#
# Bulk Modulus (GPa) = 64.53132 100.64082 82.58607
# Shear Modulus (GPa) = 18.07069 118.97410 68.52240
#
# Velocity S-wave (km/s) = 3.18134 8.16299 6.19497
# Velocity P-wave (km/s) = 7.04535 12.05041 9.87040
#
# Compressibility (1/GPa) = 0.01549635
#
# Stress axis : x y z
#
# Youngs Moduli (GPa) = 18.62146 18.62101 95.44033
#
# Poissons Ratio (x) = 0.68540 0.68642
# Poissons Ratio (y) = 0.68542 0.68648
# Poissons Ratio (z) = 0.13393 0.13394
#
# Static dielectric constant tensor:
#      x y z
#    x 1.598440 0.000000 0.000000 
#    y 0.000000 1.598440 0.000000 
#    z 0.000000 0.000000 1.576240 
# 
# From -- ./inp_files/5996.got.cif
#   From: 2010.05.17/outbox.cif.g08.bks.cpg/sg115_3_cif.got.tgz:5996.got - 2010.05.20 11:07:42.
