data_PCOD9556340
_publ_section_title
;
Structure prediction by ZEFSAII (Michael W. Deem and Ramdas Pophale) SiO2 
 PCOD9556340
Probable space group: P -4 21 C
;
_chemical_formula_sum "Si O2"
_cell_formula_units_Z 32
_cell_length_a 12.445350
_cell_length_b 12.445350
_cell_length_c 9.393910
_cell_angle_alpha 90.000000
_cell_angle_beta 90.000000
_cell_angle_gamma 90.000000
_cell_volume 1454.992064
_symmetry_space_group_name_H-M "P -4 21 C"
_symmetry_group_IT_number 114
_symmetry_cell_setting 'tetragonal'
loop_
_space_group_symop_operation_xyz
x,y,z
y,-x,-z
-x,-y,z
-y,x,-z
1/2+x,1/2-y,1/2-z
1/2-x,1/2+y,1/2-z
1/2-y,1/2-x,1/2+z
1/2+y,1/2+x,1/2+z
loop_
_atom_site_type_symbol
_atom_site_label
_atom_site_fract_x
_atom_site_fract_y
_atom_site_fract_z
Si Si1 0.101362 0.564963 0.373933
Si Si2 0.281043 0.161348 0.398299
Si Si3 0.584429 0.285182 0.528571
Si Si4 0.591303 0.427587 0.253803
O O1 0.086868 0.659689 0.487322
O O2 0.162695 0.627250 0.248983
O O3 0.170291 0.472949 0.456313
O O4 0.000000 0.500000 0.317779
O O5 0.289135 0.287439 0.440865
O O6 0.159486 0.129836 0.366941
O O7 0.562580 0.338860 0.374824
O O8 0.517636 0.348291 0.649179
O O9 0.500000 0.500000 0.187847
#
# Coordination Sequence:
#
# PCOD9556340 Si02
#       4
#     8   8   8   8
#     4  11  25  44  68 101 143 188 228 297 361 416
#     4  11  23  42  69 107 132 185 247 283 348 435
#     4  11  20  41  70  95 135 187 235 274 354 440
#     4  11  20  39  73  99 134 190 236 281 355 428
#
# _framework density 21.993247
#
# number of rings (size 3 to 8) (size 9 to 14) (size 15 to 20)
#    0.000    1.000    7.500    0.750    0.000    8.000 
#    0.000    0.000    0.000    1.500    0.000    0.000 
#    0.000    0.000    0.000    0.000    0.000    0.000 
#
# Total GULP energy -178522.811204 kJ/mol
# GULP energy per Si atom -5578.837850 kJ/mol
# Density = 2.194319 g / cm^3
# Si number density = 21.993247 Si / 1000 Ang^3
#
#
#
# Elastic Constant Matrix: (Units=GPa)
#
#
# Indices 1 2 3 4 5 6 
#
# 1 35.3861 22.3613 10.7454 0.0000 0.0000 0.0000
# 2 22.3613 35.3861 10.7454 0.0000 0.0000 0.0000
# 3 10.7454 10.7454 60.3615 0.0000 0.0000 0.0000
# 4 0.0000 0.0000 0.0000 26.8462 0.0000 0.0000
# 5 0.0000 0.0000 0.0000 0.0000 26.8462 0.0000
# 6 0.0000 0.0000 0.0000 0.0000 0.0000 27.5021
#
#
#
# Elastic Compliance Matrix: (Units=1/GPa)
#
#
# Indices 1 2 3 4 5 6 
#
# 1 0.047661 -0.029116 -0.003301 0.000000 0.000000 0.000000
# 2 -0.029116 0.047661 -0.003301 0.000000 0.000000 0.000000
# 3 -0.003301 -0.003301 0.017742 0.000000 0.000000 0.000000
# 4 0.000000 0.000000 0.000000 0.037249 0.000000 0.000000
# 5 0.000000 0.000000 0.000000 0.000000 0.037249 0.000000
# 6 0.000000 0.000000 0.000000 0.000000 0.000000 0.036361
#
#
# Mechanical properties :
#
#
# Convention : Reuss Voigt Hill
#
# Bulk Modulus (GPa) = 24.02258 24.31531 24.16895
# Shear Modulus (GPa) = 16.16886 22.05770 19.11328
#
# Velocity S-wave (km/s) = 2.71435 3.17034 2.95117
# Velocity P-wave (km/s) = 4.55741 4.94785 4.75664
#
# Compressibility (1/GPa) = 0.04162749
#
# Stress axis : x y z
#
# Youngs Moduli (GPa) = 20.98147 20.98147 56.36255
#
# Poissons Ratio (x) = 0.61089 0.18608
# Poissons Ratio (y) = 0.61089 0.18608
# Poissons Ratio (z) = 0.06927 0.06927
#
# Static dielectric constant tensor:
#      x y z
#    x 1.858780 0.000000 0.000000 
#    y 0.000000 1.858780 0.000000 
#    z 0.000000 0.000000 1.785070 
# 
# From -- ./inp_files/1363.got.cif
#   From: 2010.05.17/outbox.cif.g08.bks.cpg/sg114_1_cif.got.tgz:1363.got - 2010.05.20 11:04:54.
