data_PCOD9556230
_publ_section_title
;
Structure prediction by ZEFSAII (Michael W. Deem and Ramdas Pophale) SiO2 
 PCOD9556230
Probable space group: P -4 21 C
;
_chemical_formula_sum "Si O2"
_cell_formula_units_Z 60
_cell_length_a 11.555179
_cell_length_b 11.555179
_cell_length_c 21.685688
_cell_angle_alpha 90.000000
_cell_angle_beta 90.000000
_cell_angle_gamma 90.000000
_cell_volume 2895.519940
_symmetry_space_group_name_H-M "P -4 21 C"
_symmetry_group_IT_number 114
_symmetry_cell_setting 'tetragonal'
loop_
_space_group_symop_operation_xyz
x,y,z
y,-x,-z
-x,-y,z
-y,x,-z
1/2+x,1/2-y,1/2-z
1/2-x,1/2+y,1/2-z
1/2-y,1/2-x,1/2+z
1/2+y,1/2+x,1/2+z
loop_
_atom_site_type_symbol
_atom_site_label
_atom_site_fract_x
_atom_site_fract_y
_atom_site_fract_z
Si Si1 0.500000 0.000000 0.230739
Si Si2 0.366440 0.237218 0.036051
Si Si3 0.637105 0.496837 0.715725
Si Si4 0.656921 0.162548 0.319914
Si Si5 0.930199 0.677095 0.544257
Si Si6 0.502687 0.226261 0.514413
Si Si7 0.267277 0.087003 0.672270
Si Si8 0.114551 0.081591 0.906185
O O1 0.591695 0.076323 0.271685
O O2 0.429836 0.097822 0.191646
O O3 0.283420 0.345422 0.028870
O O4 0.436581 0.248934 0.099854
O O5 0.291593 0.121408 0.044933
O O6 0.443003 0.213967 0.976110
O O7 0.500000 0.500000 0.724838
O O8 0.711635 0.594959 0.680840
O O9 0.696253 0.493925 0.781761
O O10 0.653934 0.396491 0.664008
O O11 0.648561 0.094783 0.384784
O O12 0.789949 0.203950 0.313158
O O13 0.889292 0.569631 0.503031
O O14 0.579983 0.302428 0.559272
O O15 0.481525 0.294491 0.450528
O O16 0.000000 0.000000 0.904278
#
# Coordination Sequence:
#
# PCOD9556230 Si02
#       8
#     4   8   8   8   8   8   8   8
#     4  10  24  44  68  96 132 180 224 280 344 414
#     4  11  26  43  65  92 130 177 219 272 332 392
#     4  10  23  41  67  98 127 174 222 272 344 398
#     4  10  23  43  68  96 135 170 229 285 341 401
#     4  11  24  44  64  95 130 172 220 275 327 398
#     4  12  20  37  63  99 131 158 208 267 338 389
#     4  10  25  46  62  95 133 179 225 278 331 408
#     4  11  19  33  63  99 133 157 190 271 338 398
#
# _framework density 20.721668999999999
#
# number of rings (size 3 to 8) (size 9 to 14) (size 15 to 20)
#    0.000    1.333    4.000    0.400   11.200    0.267 
#    7.200    0.000    0.000    0.000    0.000    0.000 
#    0.000    0.000    0.000    0.000    0.000    0.000 
#
# Total GULP energy -334421.995737 kJ/mol
# GULP energy per Si atom -5573.699929 kJ/mol
# Density = 2.067451 g / cm^3
# Si number density = 20.721669 Si / 1000 Ang^3
#
#
#
# Elastic Constant Matrix: (Units=GPa)
#
#
# Indices 1 2 3 4 5 6 
#
# 1 57.7429 -1.3662 4.4064 0.0000 0.0000 0.0000
# 2 -1.3662 57.7429 4.4064 0.0000 0.0000 0.0000
# 3 4.4064 4.4064 64.0052 0.0000 0.0000 0.0000
# 4 0.0000 0.0000 0.0000 12.0713 0.0000 0.0000
# 5 0.0000 0.0000 0.0000 0.0000 12.0713 0.0000
# 6 0.0000 0.0000 0.0000 0.0000 0.0000 24.6039
#
#
#
# Elastic Compliance Matrix: (Units=1/GPa)
#
#
# Indices 1 2 3 4 5 6 
#
# 1 0.017424 0.000506 -0.001234 0.000000 0.000000 0.000000
# 2 0.000506 0.017424 -0.001234 0.000000 0.000000 0.000000
# 3 -0.001234 -0.001234 0.015794 0.000000 0.000000 0.000000
# 4 0.000000 0.000000 0.000000 0.082841 0.000000 0.000000
# 5 0.000000 0.000000 0.000000 0.000000 0.082841 0.000000
# 6 0.000000 0.000000 0.000000 0.000000 0.000000 0.040644
#
#
# Mechanical properties :
#
#
# Convention : Reuss Voigt Hill
#
# Bulk Modulus (GPa) = 21.40524 21.59825 21.50174
# Shear Modulus (GPa) = 18.08545 21.21895 19.65220
#
# Velocity S-wave (km/s) = 2.95749 3.20347 3.08293
# Velocity P-wave (km/s) = 4.69198 4.91209 4.80329
#
# Compressibility (1/GPa) = 0.04671753
#
# Stress axis : x y z
#
# Youngs Moduli (GPa) = 57.39106 57.39106 63.31644
#
# Poissons Ratio (x) = -0.02907 0.07816
# Poissons Ratio (y) = -0.02907 0.07816
# Poissons Ratio (z) = 0.07084 0.07084
#
# Static dielectric constant tensor:
#      x y z
#    x 1.799620 0.000000 0.000000 
#    y 0.000000 1.799620 0.000000 
#    z 0.000000 0.000000 1.791490 
# 
# From -- ./inp_files/3234.got.cif
#   From: 2010.05.17/outbox.cif.g08.bks.cpg/sg114_2_cif.got.tgz:3234.got - 2010.05.20 11:04:54.
