data_PCOD9556181
_publ_section_title
;
Structure prediction by ZEFSAII (Michael W. Deem and Ramdas Pophale) SiO2 
 PCOD9556181
Probable space group: P -4 21 C
;
_chemical_formula_sum "Si O2"
_cell_formula_units_Z 34
_cell_length_a 12.890457
_cell_length_b 12.890457
_cell_length_c 10.031327
_cell_angle_alpha 90.000000
_cell_angle_beta 90.000000
_cell_angle_gamma 90.000000
_cell_volume 1666.844233
_symmetry_space_group_name_H-M "P -4 21 C"
_symmetry_group_IT_number 114
_symmetry_cell_setting 'tetragonal'
loop_
_space_group_symop_operation_xyz
x,y,z
y,-x,-z
-x,-y,z
-y,x,-z
1/2+x,1/2-y,1/2-z
1/2-x,1/2+y,1/2-z
1/2-y,1/2-x,1/2+z
1/2+y,1/2+x,1/2+z
loop_
_atom_site_type_symbol
_atom_site_label
_atom_site_fract_x
_atom_site_fract_y
_atom_site_fract_z
Si Si1 0.049686 0.138003 0.441532
Si Si2 0.670030 0.162656 0.141450
Si Si3 0.474202 0.879309 0.393648
Si Si4 0.500000 0.500000 0.500000
Si Si5 0.087392 0.817909 0.182066
O O1 0.128554 0.233674 0.434090
O O2 0.969374 0.115707 0.563985
O O3 0.968924 0.162774 0.322874
O O4 0.608390 0.148909 0.278911
O O5 0.790560 0.164676 0.176508
O O6 0.644774 0.070828 0.039107
O O7 0.567034 0.799776 0.364852
O O8 0.500000 0.000000 0.383920
O O9 0.531475 0.599745 0.413972
#
# Coordination Sequence:
#
# PCOD9556181 Si02
#       5
#     8   8   8   2   8
#     4  10  22  42  67 102 133 182 233 288 346 428
#     4  11  24  45  68 104 138 184 235 290 363 424
#     4  11  25  46  68 101 139 186 231 292 359 427
#     4  12  20  44  66  96 128 176 236 278 356 412
#     4  11  24  43  71  98 140 182 232 300 353 432
#
# _framework density 20.397825999999998
#
# number of rings (size 3 to 8) (size 9 to 14) (size 15 to 20)
#    0.000    1.176    2.353    3.529    3.294    0.000 
#    8.471    0.000    0.000    0.000    0.000    0.000 
#    0.000    0.000    0.000    0.000    0.000    0.000 
#
# Total GULP energy -189825.182835 kJ/mol
# GULP energy per Si atom -5583.093613 kJ/mol
# Density = 2.035140 g / cm^3
# Si number density = 20.397826 Si / 1000 Ang^3
#
#
#
# Elastic Constant Matrix: (Units=GPa)
#
#
# Indices 1 2 3 4 5 6 
#
# 1 108.7773 16.2573 8.5220 0.0000 0.0000 0.0000
# 2 16.2573 108.7773 8.5220 0.0000 0.0000 0.0000
# 3 8.5220 8.5220 32.5919 0.0000 0.0000 0.0000
# 4 0.0000 0.0000 0.0000 21.7833 0.0000 0.0000
# 5 0.0000 0.0000 0.0000 0.0000 21.7833 0.0000
# 6 0.0000 0.0000 0.0000 0.0000 0.0000 30.9391
#
#
#
# Elastic Compliance Matrix: (Units=1/GPa)
#
#
# Indices 1 2 3 4 5 6 
#
# 1 0.009551 -0.001258 -0.002169 0.000000 0.000000 0.000000
# 2 -0.001258 0.009551 -0.002169 0.000000 0.000000 0.000000
# 3 -0.002169 -0.002169 0.031816 0.000000 0.000000 0.000000
# 4 0.000000 0.000000 0.000000 0.045907 0.000000 0.000000
# 5 0.000000 0.000000 0.000000 0.000000 0.045907 0.000000
# 6 0.000000 0.000000 0.000000 0.000000 0.000000 0.032322
#
#
# Mechanical properties :
#
#
# Convention : Reuss Voigt Hill
#
# Bulk Modulus (GPa) = 25.17043 35.19435 30.18239
# Shear Modulus (GPa) = 25.06447 29.35749 27.21098
#
# Velocity S-wave (km/s) = 3.50920 3.79786 3.65638
# Velocity P-wave (km/s) = 5.36525 6.04343 5.71441
#
# Compressibility (1/GPa) = 0.03972916
#
# Stress axis : x y z
#
# Youngs Moduli (GPa) = 104.70190 104.70190 31.43028
#
# Poissons Ratio (x) = 0.13167 0.06816
# Poissons Ratio (y) = 0.13167 0.06816
# Poissons Ratio (z) = 0.22705 0.22705
#
# Static dielectric constant tensor:
#      x y z
#    x 1.726450 0.000000 0.000000 
#    y 0.000000 1.726450 0.000000 
#    z 0.000000 0.000000 1.731100 
# 
# From -- ./inp_files/1436.got.cif
#   From: 2010.05.17/outbox.cif.g08.bks.cpg/sg114_1_cif.got.tgz:1436.got - 2010.05.20 11:04:54.
