data_PCOD9556998
_publ_section_title
;
Structure prediction by ZEFSAII (Michael W. Deem and Ramdas Pophale) SiO2 
 PCOD9556998
Probable space group: P -4 M 2
;
_chemical_formula_sum "Si O2"
_cell_formula_units_Z 32
_cell_length_a 9.036562
_cell_length_b 9.036562
_cell_length_c 21.236946
_cell_angle_alpha 90.000000
_cell_angle_beta 90.000000
_cell_angle_gamma 90.000000
_cell_volume 1734.197389
_symmetry_space_group_name_H-M "P -4 M 2"
_symmetry_group_IT_number 115
_symmetry_cell_setting 'tetragonal'
loop_
_space_group_symop_operation_xyz
x,y,z
y,-x,-z
-x,-y,z
-y,x,-z
y,x,-z
-y,-x,-z
-x,y,z
x,-y,z
loop_
_atom_site_type_symbol
_atom_site_label
_atom_site_fract_x
_atom_site_fract_y
_atom_site_fract_z
Si Si1 0.825716 0.677744 0.802029
Si Si2 0.670971 0.319837 0.930871
Si Si3 0.675643 0.175893 0.681958
Si Si4 0.823891 0.323968 0.560762
O O1 0.803381 0.500000 0.796373
O O2 0.766034 0.724099 0.870657
O O3 0.738414 0.758243 0.746663
O O4 0.000000 0.706925 0.796468
O O5 0.500000 0.272908 0.922504
O O6 0.670488 0.500000 0.933251
O O7 0.726991 0.273010 0.000000
O O8 0.500000 0.202290 0.677968
O O9 0.755892 0.253725 0.623557
O O10 0.701347 0.000000 0.679397
O O11 0.749241 0.250760 0.500000
O O12 0.797888 0.500000 0.560345
O O13 0.000000 0.298831 0.559204
#
# Coordination Sequence:
#
# PCOD9556998 Si02
#       4
#     8   8   8   8
#     4  10  20  34  54  81 111 144 183 226 275 331
#     4   8  14  27  49  75 103 139 183 228 273 322
#     4  11  24  40  58  82 111 145 187 231 275 325
#     4  11  24  41  62  89 118 148 184 224 268 321
#
# _framework density 18.452338999999998
#
# number of rings (size 3 to 8) (size 9 to 14) (size 15 to 20)
#    0.000    2.000    0.000    4.500    0.000   11.500 
#    0.000    1.250    0.000    4.500    0.000    0.000 
#    0.000    0.000    0.000    0.000    0.000    0.000 
#
# Total GULP energy -178746.649925 kJ/mol
# GULP energy per Si atom -5585.832810 kJ/mol
# Density = 1.841034 g / cm^3
# Si number density = 18.452339 Si / 1000 Ang^3
#
#
#
# Elastic Constant Matrix: (Units=GPa)
#
#
# Indices 1 2 3 4 5 6 
#
# 1 90.1494 86.6268 84.0454 0.0000 0.0000 0.0000
# 2 86.6268 90.1485 84.0449 0.0000 0.0000 0.0000
# 3 84.0454 84.0449 197.5116 0.0000 0.0000 0.0000
# 4 0.0000 0.0000 0.0000 -332.8838 0.0000 0.0000
# 5 0.0000 0.0000 0.0000 0.0000 -333.0019 0.0000
# 6 0.0000 0.0000 0.0000 0.0000 0.0000 23.6379
#
#
#
# Elastic Compliance Matrix: (Units=1/GPa)
#
#
# Indices 1 2 3 4 5 6 
#
# 1 0.146708 -0.137207 -0.004043 0.000000 0.000000 0.000000
# 2 -0.137207 0.146709 -0.004043 0.000000 0.000000 0.000000
# 3 -0.004043 -0.004043 0.008504 0.000000 0.000000 0.000000
# 4 0.000000 0.000000 0.000000 -0.003004 0.000000 0.000000
# 5 0.000000 0.000000 0.000000 0.000000 -0.003003 0.000000
# 6 0.000000 0.000000 0.000000 0.000000 0.000000 0.042305
#
#
# Mechanical properties :
#
#
# Convention : Reuss Voigt Hill
#
# Bulk Modulus (GPa) = 88.22779 98.58262 93.40520
# Shear Modulus (GPa) = 7.90411 -120.24339 -56.16964
#
# Velocity S-wave (km/s) = 2.07191 -8.08120 -5.52327
# Velocity P-wave (km/s) = 7.32403 5.79075 3.17085
#
# Compressibility (1/GPa) = 0.01133430
#
# Stress axis : x y z
#
# Youngs Moduli (GPa) = 6.81628 6.81621 117.59589
#
# Poissons Ratio (x) = 0.93523 0.47544
# Poissons Ratio (y) = 0.93524 0.47543
# Poissons Ratio (z) = 0.02756 0.02756
#
# Static dielectric constant tensor:
#      x y z
#    x 1.617670 0.000000 0.000000 
#    y 0.000000 1.617670 0.000000 
#    z 0.000000 0.000000 1.617120 
# 
# From -- ./inp_files/4585.got.cif
#   From: 2010.05.17/outbox.cif.g08.bks.cpg/sg115_3_cif.got.tgz:4585.got - 2010.05.20 11:07:42.
