data_PCOD9556160
_publ_section_title
;
Structure prediction by ZEFSAII (Michael W. Deem and Ramdas Pophale) SiO2 
 PCOD9556160
Probable space group: P -4 21 C
;
_chemical_formula_sum "Si O2"
_cell_formula_units_Z 48
_cell_length_a 11.481443
_cell_length_b 11.481443
_cell_length_c 17.365269
_cell_angle_alpha 90.000000
_cell_angle_beta 90.000000
_cell_angle_gamma 90.000000
_cell_volume 2289.151117
_symmetry_space_group_name_H-M "P -4 21 C"
_symmetry_group_IT_number 114
_symmetry_cell_setting 'tetragonal'
loop_
_space_group_symop_operation_xyz
x,y,z
y,-x,-z
-x,-y,z
-y,x,-z
1/2+x,1/2-y,1/2-z
1/2-x,1/2+y,1/2-z
1/2-y,1/2-x,1/2+z
1/2+y,1/2+x,1/2+z
loop_
_atom_site_type_symbol
_atom_site_label
_atom_site_fract_x
_atom_site_fract_y
_atom_site_fract_z
Si Si1 0.803384 0.165864 0.336113
Si Si2 0.404739 0.647734 0.663418
Si Si3 0.599336 0.322995 0.381691
Si Si4 0.818320 0.594278 0.461550
Si Si5 0.161649 0.586107 0.949879
Si Si6 0.534797 0.649376 0.959798
O O1 0.839110 0.116885 0.253738
O O2 0.676639 0.228611 0.335087
O O3 0.882298 0.270411 0.371539
O O4 0.815218 0.055748 0.394577
O O5 0.329843 0.537377 0.635728
O O6 0.542381 0.632927 0.639755
O O7 0.365103 0.760946 0.617408
O O8 0.614733 0.272853 0.468707
O O9 0.843881 0.456448 0.455376
O O10 0.949635 0.641557 0.467144
O O11 0.246880 0.620420 0.019434
O O12 0.615898 0.535555 0.959907
#
# Coordination Sequence:
#
# PCOD9556160 Si02
#       6
#     8   8   8   8   8   8
#     4  11  23  45  65 102 143 179 237 295 366 426
#     4  11  26  41  71  99 142 191 231 305 360 448
#     4  11  24  47  67 103 138 190 248 286 365 443
#     4  11  22  44  70 101 136 181 242 294 350 424
#     4  10  22  40  70 101 135 179 234 295 350 421
#     4   9  19  37  66  99 129 173 222 283 341 421
#
# _framework density 20.96847
#
# number of rings (size 3 to 8) (size 9 to 14) (size 15 to 20)
#    0.000    1.500    3.333    1.000    2.333    6.667 
#    3.000    0.000    0.000    0.000    0.000    0.000 
#    0.000    0.000    0.000    0.000    0.000    0.000 
#
# Total GULP energy -267205.867645 kJ/mol
# GULP energy per Si atom -5566.788909 kJ/mol
# Density = 2.092074 g / cm^3
# Si number density = 20.968470 Si / 1000 Ang^3
#
#
#
# Elastic Constant Matrix: (Units=GPa)
#
#
# Indices 1 2 3 4 5 6 
#
# 1 106.4232 24.7068 38.9666 0.0000 0.0000 0.0000
# 2 24.7068 106.4232 38.9666 0.0000 0.0000 0.0000
# 3 38.9666 38.9666 111.2886 0.0000 0.0000 0.0000
# 4 0.0000 0.0000 0.0000 7.6490 0.0000 0.0000
# 5 0.0000 0.0000 0.0000 0.0000 7.6490 0.0000
# 6 0.0000 0.0000 0.0000 0.0000 0.0000 31.0476
#
#
#
# Elastic Compliance Matrix: (Units=1/GPa)
#
#
# Indices 1 2 3 4 5 6 
#
# 1 0.010934 -0.001304 -0.003372 0.000000 0.000000 0.000000
# 2 -0.001304 0.010934 -0.003372 0.000000 0.000000 0.000000
# 3 -0.003372 -0.003372 0.011347 0.000000 0.000000 0.000000
# 4 0.000000 0.000000 0.000000 0.130736 0.000000 0.000000
# 5 0.000000 0.000000 0.000000 0.000000 0.130736 0.000000
# 6 0.000000 0.000000 0.000000 0.000000 0.000000 0.032209
#
#
# Mechanical properties :
#
#
# Convention : Reuss Voigt Hill
#
# Bulk Modulus (GPa) = 58.41305 58.82390 58.61847
# Shear Modulus (GPa) = 14.33913 24.03546 19.18730
#
# Velocity S-wave (km/s) = 2.61788 3.38933 3.02827
# Velocity P-wave (km/s) = 6.08734 6.59023 6.34377
#
# Compressibility (1/GPa) = 0.01711946
#
# Stress axis : x y z
#
# Youngs Moduli (GPa) = 91.46030 91.46030 88.12996
#
# Poissons Ratio (x) = 0.11924 0.29716
# Poissons Ratio (y) = 0.11924 0.29716
# Poissons Ratio (z) = 0.30839 0.30839
#
# Static dielectric constant tensor:
#      x y z
#    x 1.892520 0.000000 0.000000 
#    y 0.000000 1.892520 0.000000 
#    z 0.000000 0.000000 1.728500 
# 
# From -- ./inp_files/2648.got.cif
#   From: 2010.05.17/outbox.cif.g08.bks.cpg/sg114_2_cif.got.tgz:2648.got - 2010.05.20 11:04:54.
