data_PCOD9556793
_publ_section_title
;
Structure prediction by ZEFSAII (Michael W. Deem and Ramdas Pophale) SiO2 
 PCOD9556793
Probable space group: P -4 M 2
;
_chemical_formula_sum "Si O2"
_cell_formula_units_Z 48
_cell_length_a 9.328543
_cell_length_b 9.328543
_cell_length_c 32.084625
_cell_angle_alpha 90.000000
_cell_angle_beta 90.000000
_cell_angle_gamma 90.000000
_cell_volume 2792.059077
_symmetry_space_group_name_H-M "P -4 M 2"
_symmetry_group_IT_number 115
_symmetry_cell_setting 'tetragonal'
loop_
_space_group_symop_operation_xyz
x,y,z
y,-x,-z
-x,-y,z
-y,x,-z
y,x,-z
-y,-x,-z
-x,y,z
x,-y,z
loop_
_atom_site_type_symbol
_atom_site_label
_atom_site_fract_x
_atom_site_fract_y
_atom_site_fract_z
Si Si1 0.674394 0.665261 0.045995
Si Si2 0.167908 0.172577 0.379541
Si Si3 0.327548 0.831300 0.129045
Si Si4 0.668678 0.672151 0.546781
Si Si5 0.174360 0.165196 0.286747
Si Si6 0.827478 0.668566 0.203932
O O1 0.500000 0.663441 0.044670
O O2 0.721078 0.500000 0.052031
O O3 0.717195 0.761770 0.084932
O O4 0.718325 0.718325 0.000000
O O5 0.254767 0.243693 0.416608
O O6 0.219833 0.213754 0.332961
O O7 0.000000 0.211391 0.383256
O O8 0.177316 0.000000 0.381561
O O9 0.500000 0.813517 0.132810
O O10 0.249813 0.750668 0.166588
O O11 0.295783 0.000000 0.129972
O O12 0.715601 0.715601 0.500000
O O13 0.500000 0.706754 0.551040
O O14 0.682065 0.500000 0.548965
O O15 0.217624 0.263556 0.248237
O O16 0.000000 0.164170 0.287958
O O17 0.219747 0.000000 0.280020
O O18 0.795308 0.500000 0.202489
O O19 0.000000 0.686096 0.200321
#
# Coordination Sequence:
#
# PCOD9556793 Si02
#       6
#     8   8   8   8   8   8
#     4   8  14  27  48  70  92 123 162 201 241 284
#     4   9  18  32  51  76 101 124 156 199 244 291
#     4  10  20  33  50  73 101 133 166 199 240 290
#     4   9  19  35  51  68  95 131 167 201 239 285
#     4   8  15  30  50  70  96 129 160 194 241 293
#     4  10  20  33  51  75  99 126 164 206 245 287
#
# _framework density 17.191613
#
# number of rings (size 3 to 8) (size 9 to 14) (size 15 to 20)
#    0.000    3.000    0.000    3.000    0.000    4.000 
#    0.000    5.833    0.000    4.000    0.000    0.000 
#    0.000    0.000    0.000    0.000    0.000    0.000 
#
# Total GULP energy -267485.155840 kJ/mol
# GULP energy per Si atom -5572.607413 kJ/mol
# Density = 1.715248 g / cm^3
# Si number density = 17.191613 Si / 1000 Ang^3
#
#
#
# Elastic Constant Matrix: (Units=GPa)
#
#
# Indices 1 2 3 4 5 6 
#
# 1 48.4052 36.1105 71.4356 0.0000 0.0000 0.0000
# 2 36.1105 48.4052 71.4356 0.0000 0.0000 0.0000
# 3 71.4356 71.4356 207.1899 0.0000 0.0000 0.0000
# 4 0.0000 0.0000 0.0000 33.6843 0.0000 0.0000
# 5 0.0000 0.0000 0.0000 0.0000 33.6843 0.0000
# 6 0.0000 0.0000 0.0000 0.0000 0.0000 24.4434
#
#
#
# Elastic Compliance Matrix: (Units=1/GPa)
#
#
# Indices 1 2 3 4 5 6 
#
# 1 0.054850 -0.026486 -0.009779 0.000000 0.000000 0.000000
# 2 -0.026486 0.054850 -0.009779 0.000000 0.000000 0.000000
# 3 -0.009779 -0.009779 0.011570 0.000000 0.000000 0.000000
# 4 0.000000 0.000000 0.000000 0.029687 0.000000 0.000000
# 5 0.000000 0.000000 0.000000 0.000000 0.029687 0.000000
# 6 0.000000 0.000000 0.000000 0.000000 0.000000 0.040911
#
#
# Mechanical properties :
#
#
# Convention : Reuss Voigt Hill
#
# Bulk Modulus (GPa) = 34.26987 73.55152 53.91069
# Shear Modulus (GPa) = 15.46208 26.69698 21.07953
#
# Velocity S-wave (km/s) = 3.00225 3.94497 3.50544
# Velocity P-wave (km/s) = 5.65644 7.97663 6.91455
#
# Compressibility (1/GPa) = 0.02918016
#
# Stress axis : x y z
#
# Youngs Moduli (GPa) = 18.23158 18.23158 86.43048
#
# Poissons Ratio (x) = 0.48288 0.84523
# Poissons Ratio (y) = 0.48288 0.84523
# Poissons Ratio (z) = 0.17829 0.17829
#
# Static dielectric constant tensor:
#      x y z
#    x 1.570940 0.000000 0.000000 
#    y 0.000000 1.570940 0.000000 
#    z 0.000000 0.000000 1.585020 
# 
# From -- ./inp_files/6090.got.cif
#   From: 2010.05.17/outbox.cif.g08.bks.cpg/sg115_4_cif.got.tgz:6090.got - 2010.05.20 11:07:42.
