data_PCOD9556376
_publ_section_title
;
Structure prediction by ZEFSAII (Michael W. Deem and Ramdas Pophale) SiO2 
 PCOD9556376
Probable space group: P -4 21 C
;
_chemical_formula_sum "Si O2"
_cell_formula_units_Z 32
_cell_length_a 9.765494
_cell_length_b 9.765494
_cell_length_c 17.252609
_cell_angle_alpha 90.000000
_cell_angle_beta 90.000000
_cell_angle_gamma 90.000000
_cell_volume 1645.292867
_symmetry_space_group_name_H-M "P -4 21 C"
_symmetry_group_IT_number 114
_symmetry_cell_setting 'tetragonal'
loop_
_space_group_symop_operation_xyz
x,y,z
y,-x,-z
-x,-y,z
-y,x,-z
1/2+x,1/2-y,1/2-z
1/2-x,1/2+y,1/2-z
1/2-y,1/2-x,1/2+z
1/2+y,1/2+x,1/2+z
loop_
_atom_site_type_symbol
_atom_site_label
_atom_site_fract_x
_atom_site_fract_y
_atom_site_fract_z
Si Si1 0.000000 0.835056 0.879006
Si Si2 0.500000 0.664674 0.803199
Si Si3 0.159761 0.759429 0.416145
Si Si4 0.159761 0.240571 0.416145
O O1 0.000000 0.800866 0.786904
O O2 0.131544 0.760855 0.914294
O O3 0.868456 0.760855 0.914294
O O4 0.000000 0.000000 0.888834
O O5 0.500000 0.500000 0.808324
O O6 0.365624 0.708362 0.850159
O O7 0.634376 0.708362 0.850159
O O8 0.170020 0.829981 0.500000
O O9 0.000000 0.721699 0.402174
#
# Coordination Sequence:
#
# PCOD9556376 Si02
#       4
#     8   8   8   8
#     4  11  25  41  61  93 134 163 195 258 318 365
#     4   9  20  41  67  93 120 163 215 256 300 361
#     4  11  22  40  67  92 122 164 213 254 302 365
#     4  11  22  40  67  92 122 164 213 254 302 365
#
# _framework density 19.449425000000002
#
# number of rings (size 3 to 8) (size 9 to 14) (size 15 to 20)
#    0.000    1.500    2.500    2.250    3.500    0.000 
#    0.000    3.750    0.000    0.000    0.000    0.000 
#    0.000    0.000    0.000    0.000    0.000    0.000 
#
# Total GULP energy -178708.745691 kJ/mol
# GULP energy per Si atom -5584.648303 kJ/mol
# Density = 1.940516 g / cm^3
# Si number density = 19.449425 Si / 1000 Ang^3
#
#
#
# Elastic Constant Matrix: (Units=GPa)
#
#
# Indices 1 2 3 4 5 6 
#
# 1 109.8943 52.3756 18.1885 0.0000 0.0000 0.0000
# 2 52.3756 109.8943 18.1885 0.0000 0.0000 0.0000
# 3 18.1885 18.1885 66.2228 0.0000 0.0000 0.0000
# 4 0.0000 0.0000 0.0000 31.6835 0.0000 0.0000
# 5 0.0000 0.0000 0.0000 0.0000 31.6835 0.0000
# 6 0.0000 0.0000 0.0000 0.0000 0.0000 5.4744
#
#
#
# Elastic Compliance Matrix: (Units=1/GPa)
#
#
# Indices 1 2 3 4 5 6 
#
# 1 0.011976 -0.005409 -0.001804 0.000000 0.000000 0.000000
# 2 -0.005409 0.011976 -0.001804 0.000000 0.000000 0.000000
# 3 -0.001804 -0.001804 0.016091 0.000000 0.000000 0.000000
# 4 0.000000 0.000000 0.000000 0.031562 0.000000 0.000000
# 5 0.000000 0.000000 0.000000 0.000000 0.031562 0.000000
# 6 0.000000 0.000000 0.000000 0.000000 0.000000 0.182667
#
#
# Mechanical properties :
#
#
# Convention : Reuss Voigt Hill
#
# Bulk Modulus (GPa) = 45.43278 51.50186 48.46732
# Shear Modulus (GPa) = 16.06654 26.91888 21.49271
#
# Velocity S-wave (km/s) = 2.87726 3.72431 3.32785
# Velocity P-wave (km/s) = 5.86927 6.71054 6.30395
#
# Compressibility (1/GPa) = 0.02201054
#
# Stress axis : x y z
#
# Youngs Moduli (GPa) = 83.49846 83.49846 62.14538
#
# Poissons Ratio (x) = 0.45167 0.11209
# Poissons Ratio (y) = 0.45167 0.11209
# Poissons Ratio (z) = 0.15060 0.15060
#
# Static dielectric constant tensor:
#      x y z
#    x 1.662590 0.000000 0.000000 
#    y 0.000000 1.662590 0.000000 
#    z 0.000000 0.000000 1.702310 
# 
# From -- ./inp_files/2846.got.cif
#   From: 2010.05.17/outbox.cif.g08.bks.cpg/sg114_2_cif.got.tgz:2846.got - 2010.05.20 11:04:54.
