data_PCOD9556532
_publ_section_title
;
Structure prediction by ZEFSAII (Michael W. Deem and Ramdas Pophale) SiO2 
 PCOD9556532
Probable space group: P -4 M 2
;
_chemical_formula_sum "Si O2"
_cell_formula_units_Z 56
_cell_length_a 25.147037
_cell_length_b 25.147037
_cell_length_c 5.134542
_cell_angle_alpha 90.000000
_cell_angle_beta 90.000000
_cell_angle_gamma 90.000000
_cell_volume 3246.948141
_symmetry_space_group_name_H-M "P -4 M 2"
_symmetry_group_IT_number 115
_symmetry_cell_setting 'tetragonal'
loop_
_space_group_symop_operation_xyz
x,y,z
y,-x,-z
-x,-y,z
-y,x,-z
y,x,-z
-y,-x,-z
-x,y,z
x,-y,z
loop_
_atom_site_type_symbol
_atom_site_label
_atom_site_fract_x
_atom_site_fract_y
_atom_site_fract_z
Si Si1 0.168627 0.613941 0.196208
Si Si2 0.062162 0.888131 0.252797
Si Si3 0.614058 0.904694 0.303419
Si Si4 0.774310 0.885799 0.675457
Si Si5 0.500000 0.834124 0.694865
Si Si6 0.728677 0.940006 0.174355
Si Si7 0.094183 0.500000 0.804763
Si Si8 0.228070 0.723562 0.255200
O O1 0.120954 0.617242 0.409753
O O2 0.193803 0.555833 0.245978
O O3 0.206636 0.663658 0.238967
O O4 0.143186 0.615810 0.908938
O O5 0.075955 0.924046 0.500000
O O6 0.097176 0.834604 0.272522
O O7 0.000000 0.873921 0.245494
O O8 0.079772 0.920229 0.000000
O O9 0.666448 0.938042 0.244488
O O10 0.556821 0.932189 0.256300
O O11 0.758215 0.903278 0.385011
O O12 0.760500 0.824431 0.716233
O O13 0.739067 0.917859 0.886595
O O14 0.500000 0.856253 0.400673
O O15 0.500000 0.884026 0.899835
O O16 0.749135 0.000000 0.195367
O O17 0.265038 0.734963 0.500000
O O18 0.258890 0.741111 0.000000
#
# Coordination Sequence:
#
# PCOD9556532 Si02
#       8
#     8   8   8   8   4   8   4   8
#     4  10  18  33  51  74 104 135 178 210 254 295
#     4  12  26  45  66  86 106 128 160 203 255 319
#     4  10  17  33  48  74  98 134 170 216 253 300
#     4  12  24  42  57  80 106 137 166 201 252 315
#     4   8  16  28  50  72  95 136 176 217 240 292
#     4  12  22  35  56  77 101 135 174 213 256 303
#     4   8  16  26  49  68  98 128 170 212 258 289
#     4  12  22  34  54  80 109 139 168 208 255 304
#
# _framework density 17.246966
#
# number of rings (size 3 to 8) (size 9 to 14) (size 15 to 20)
#    0.000    1.143    2.857    5.143    0.000    0.857 
#    0.000    0.357    0.000    0.000    0.000    8.000 
#    0.000    0.000    0.000    0.000    0.000    2.143 
#
# Total GULP energy -312903.685009 kJ/mol
# GULP energy per Si atom -5587.565804 kJ/mol
# Density = 1.720771 g / cm^3
# Si number density = 17.246966 Si / 1000 Ang^3
#
#
#
# Elastic Constant Matrix: (Units=GPa)
#
#
# Indices 1 2 3 4 5 6 
#
# 1 75.7372 12.1702 16.0081 0.0000 0.0000 0.0000
# 2 12.1702 75.7332 16.0095 0.0000 0.0000 0.0000
# 3 16.0081 16.0095 77.4561 0.0000 0.0000 0.0000
# 4 0.0000 0.0000 0.0000 26.7872 0.0000 0.0000
# 5 0.0000 0.0000 0.0000 0.0000 26.7876 0.0000
# 6 0.0000 0.0000 0.0000 0.0000 0.0000 -6.9121
#
#
#
# Elastic Compliance Matrix: (Units=1/GPa)
#
#
# Indices 1 2 3 4 5 6 
#
# 1 0.014016 -0.001715 -0.002542 0.000000 0.000000 0.000000
# 2 -0.001715 0.014017 -0.002543 0.000000 0.000000 0.000000
# 3 -0.002542 -0.002543 0.013962 0.000000 0.000000 0.000000
# 4 0.000000 0.000000 0.000000 0.037331 0.000000 0.000000
# 5 0.000000 0.000000 0.000000 0.000000 0.037331 0.000000
# 6 0.000000 0.000000 0.000000 0.000000 0.000000 -0.144674
#
#
# Mechanical properties :
#
#
# Convention : Reuss Voigt Hill
#
# Bulk Modulus (GPa) = 35.21737 35.25579 35.23658
# Shear Modulus (GPa) = -1009.78136 21.64845 -494.06646
#
# Velocity S-wave (km/s) = -24.22302 3.54673 -16.94366
# Velocity P-wave (km/s) = 27.60209 6.10397 19.03440
#
# Compressibility (1/GPa) = 0.02839508
#
# Stress axis : x y z
#
# Youngs Moduli (GPa) = 71.34449 71.34001 71.62529
#
# Poissons Ratio (x) = 0.12235 0.18210
# Poissons Ratio (y) = 0.12235 0.18213
# Poissons Ratio (z) = 0.18138 0.18141
#
# Static dielectric constant tensor:
#      x y z
#    x 1.588300 0.000000 0.000000 
#    y 0.000000 1.588300 0.000000 
#    z 0.000000 0.000000 1.583360 
# 
# From -- ./inp_files/792.got.cif
#   From: 2010.05.17/outbox.cif.g08.bks.cpg/sg115_1_cif.got.tgz:792.got - 2010.05.20 11:07:42.
