data_PCOD9556282
_publ_section_title
;
Structure prediction by ZEFSAII (Michael W. Deem and Ramdas Pophale) SiO2 
 PCOD9556282
Probable space group: P -4 21 C
;
_chemical_formula_sum "Si O2"
_cell_formula_units_Z 28
_cell_length_a 8.961898
_cell_length_b 8.961898
_cell_length_c 13.790102
_cell_angle_alpha 90.000000
_cell_angle_beta 90.000000
_cell_angle_gamma 90.000000
_cell_volume 1107.560534
_symmetry_space_group_name_H-M "P -4 21 C"
_symmetry_group_IT_number 114
_symmetry_cell_setting 'tetragonal'
loop_
_space_group_symop_operation_xyz
x,y,z
y,-x,-z
-x,-y,z
-y,x,-z
1/2+x,1/2-y,1/2-z
1/2-x,1/2+y,1/2-z
1/2-y,1/2-x,1/2+z
1/2+y,1/2+x,1/2+z
loop_
_atom_site_type_symbol
_atom_site_label
_atom_site_fract_x
_atom_site_fract_y
_atom_site_fract_z
Si Si1 0.516020 0.829840 0.007406
Si Si2 0.000000 0.000000 0.500000
Si Si3 0.356722 0.896518 0.200952
Si Si4 0.315309 0.657463 0.365465
Si Si5 0.000000 0.000000 0.000000
O O1 0.500810 0.669440 0.953185
O O2 0.396163 0.827706 0.096010
O O3 0.672500 0.825179 0.065134
O O4 0.500000 0.000000 0.964093
O O5 0.332449 0.780624 0.285134
O O6 0.500000 0.000000 0.223821
O O7 0.214459 0.001318 0.188175
O O8 0.456850 0.638877 0.433876
#
# Coordination Sequence:
#
# PCOD9556282 Si02
#       5
#     8   2   8   8   2
#     4   9  24  45  63 104 139 179 260 296 359 470
#     4  12  24  42  80  96 148 210 216 316 400 422
#     4   9  22  45  68  95 135 184 255 295 358 478
#     4  10  24  44  68 103 137 189 235 316 378 455
#     4  12  28  38  72 108 152 174 240 324 416 414
#
# _framework density 25.280785000000002
#
# number of rings (size 3 to 8) (size 9 to 14) (size 15 to 20)
#    0.000    2.857    0.000    0.000   20.000    0.000 
#    5.143    0.000    0.000    0.000    0.000    0.000 
#    0.000    0.000    0.000    0.000    0.000    0.000 
#
# Total GULP energy -156274.518632 kJ/mol
# GULP energy per Si atom -5581.232808 kJ/mol
# Density = 2.522324 g / cm^3
# Si number density = 25.280785 Si / 1000 Ang^3
#
#
#
# Elastic Constant Matrix: (Units=GPa)
#
#
# Indices 1 2 3 4 5 6 
#
# 1 149.5251 25.4673 43.5392 0.0000 0.0000 0.0000
# 2 25.4673 149.5251 43.5392 0.0000 0.0000 0.0000
# 3 43.5392 43.5392 80.2452 0.0000 0.0000 0.0000
# 4 0.0000 0.0000 0.0000 17.1117 0.0000 0.0000
# 5 0.0000 0.0000 0.0000 0.0000 17.1117 0.0000
# 6 0.0000 0.0000 0.0000 0.0000 0.0000 21.2411
#
#
#
# Elastic Compliance Matrix: (Units=1/GPa)
#
#
# Indices 1 2 3 4 5 6 
#
# 1 0.007944 -0.000116 -0.004247 0.000000 0.000000 0.000000
# 2 -0.000116 0.007944 -0.004247 0.000000 0.000000 0.000000
# 3 -0.004247 -0.004247 0.017071 0.000000 0.000000 0.000000
# 4 0.000000 0.000000 0.000000 0.058440 0.000000 0.000000
# 5 0.000000 0.000000 0.000000 0.000000 0.058440 0.000000
# 6 0.000000 0.000000 0.000000 0.000000 0.000000 0.047079
#
#
# Mechanical properties :
#
#
# Convention : Reuss Voigt Hill
#
# Bulk Modulus (GPa) = 63.54200 67.15408 65.34804
# Shear Modulus (GPa) = 22.79096 28.87620 25.83358
#
# Velocity S-wave (km/s) = 3.00578 3.38334 3.20013
# Velocity P-wave (km/s) = 6.10208 6.47175 6.28963
#
# Compressibility (1/GPa) = 0.01573762
#
# Stress axis : x y z
#
# Youngs Moduli (GPa) = 125.87471 125.87471 58.57959
#
# Poissons Ratio (x) = 0.01465 0.24881
# Poissons Ratio (y) = 0.01465 0.24881
# Poissons Ratio (z) = 0.53463 0.53463
#
# Static dielectric constant tensor:
#      x y z
#    x 2.063610 0.000000 0.000000 
#    y 0.000000 2.063610 0.000000 
#    z 0.000000 0.000000 1.934960 
# 
# From -- ./inp_files/2457.got.cif
#   From: 2010.05.17/outbox.cif.g08.bks.cpg/sg114_2_cif.got.tgz:2457.got - 2010.05.20 11:04:54.
