data_PCOD9556405
_publ_section_title
;
Structure prediction by ZEFSAII (Michael W. Deem and Ramdas Pophale) SiO2 
 PCOD9556405
Probable space group: P -4 21 C
;
_chemical_formula_sum "Si O2"
_cell_formula_units_Z 40
_cell_length_a 9.497153
_cell_length_b 9.497153
_cell_length_c 23.180936
_cell_angle_alpha 90.000000
_cell_angle_beta 90.000000
_cell_angle_gamma 90.000000
_cell_volume 2090.825736
_symmetry_space_group_name_H-M "P -4 21 C"
_symmetry_group_IT_number 114
_symmetry_cell_setting 'tetragonal'
loop_
_space_group_symop_operation_xyz
x,y,z
y,-x,-z
-x,-y,z
-y,x,-z
1/2+x,1/2-y,1/2-z
1/2-x,1/2+y,1/2-z
1/2-y,1/2-x,1/2+z
1/2+y,1/2+x,1/2+z
loop_
_atom_site_type_symbol
_atom_site_label
_atom_site_fract_x
_atom_site_fract_y
_atom_site_fract_z
Si Si1 0.000000 0.000000 0.000000
Si Si2 0.613780 0.236930 0.567014
Si Si3 0.000000 0.500000 0.515487
Si Si4 0.916921 0.146628 0.714148
Si Si5 0.221569 0.059756 0.418192
Si Si6 0.500000 0.500000 0.000000
Si Si7 0.349573 0.922174 0.197694
O O1 0.890542 0.083707 0.040775
O O2 0.777708 0.193145 0.565285
O O3 0.573995 0.220733 0.634139
O O4 0.528516 0.130154 0.526774
O O5 0.027252 0.626749 0.558421
O O6 0.953191 0.197406 0.649353
O O7 0.744501 0.137069 0.716331
O O8 0.985940 0.255593 0.758710
O O9 0.000000 0.000000 0.723117
O O10 0.120962 0.959884 0.455520
O O11 0.500000 0.000000 0.194149
#
# Coordination Sequence:
#
# PCOD9556405 Si02
#       7
#     2   8   4   8   8   2   8
#     4  12  24  44  62 100 136 172 220 258 336 400
#     4  11  24  42  67  97 135 170 215 272 331 395
#     4  12  22  42  64  98 132 168 214 264 334 388
#     4  11  25  47  68  99 131 177 228 278 338 401
#     4  11  24  40  67  99 131 170 218 272 325 395
#     4  12  20  40  66  96 128 164 208 274 324 384
#     4  11  25  47  70  97 133 175 227 281 338 399
#
# _framework density 19.131198000000001
#
# number of rings (size 3 to 8) (size 9 to 14) (size 15 to 20)
#    0.000    0.800    6.000    1.200    2.800    0.000 
#   10.800    0.000    0.000    0.000    0.000    0.000 
#    0.000    0.000    0.000    0.000    0.000    0.000 
#
# Total GULP energy -223228.132922 kJ/mol
# GULP energy per Si atom -5580.703323 kJ/mol
# Density = 1.908766 g / cm^3
# Si number density = 19.131198 Si / 1000 Ang^3
#
#
#
# Elastic Constant Matrix: (Units=GPa)
#
#
# Indices 1 2 3 4 5 6 
#
# 1 112.1255 -19.0627 52.1432 0.0000 0.0000 0.0000
# 2 -19.0627 112.1255 52.1432 0.0000 0.0000 0.0000
# 3 52.1432 52.1432 128.0202 0.0000 0.0000 0.0000
# 4 0.0000 0.0000 0.0000 33.2960 0.0000 0.0000
# 5 0.0000 0.0000 0.0000 0.0000 33.2960 0.0000
# 6 0.0000 0.0000 0.0000 0.0000 0.0000 33.5005
#
#
#
# Elastic Compliance Matrix: (Units=1/GPa)
#
#
# Indices 1 2 3 4 5 6 
#
# 1 0.013695 0.006073 -0.008052 0.000000 0.000000 0.000000
# 2 0.006073 0.013695 -0.008052 0.000000 0.000000 0.000000
# 3 -0.008052 -0.008052 0.014370 0.000000 0.000000 0.000000
# 4 0.000000 0.000000 0.000000 0.030034 0.000000 0.000000
# 5 0.000000 0.000000 0.000000 0.000000 0.030034 0.000000
# 6 0.000000 0.000000 0.000000 0.000000 0.000000 0.029850
#
#
# Mechanical properties :
#
#
# Convention : Reuss Voigt Hill
#
# Bulk Modulus (GPa) = 46.08321 58.07987 52.08154
# Shear Modulus (GPa) = 31.45189 37.82167 34.63678
#
# Velocity S-wave (km/s) = 4.05904 4.45113 4.25960
# Velocity P-wave (km/s) = 6.79029 7.53932 7.17459
#
# Compressibility (1/GPa) = 0.02169988
#
# Stress axis : x y z
#
# Youngs Moduli (GPa) = 73.01726 73.01726 69.58834
#
# Poissons Ratio (x) = -0.44342 0.56030
# Poissons Ratio (y) = -0.44342 0.56030
# Poissons Ratio (z) = 0.58791 0.58791
#
# Static dielectric constant tensor:
#      x y z
#    x 1.668880 0.000000 0.000000 
#    y 0.000000 1.668880 0.000000 
#    z 0.000000 0.000000 1.619690 
# 
# From -- ./inp_files/3457.got.cif
#   From: 2010.05.17/outbox.cif.g08.bks.cpg/sg114_2_cif.got.tgz:3457.got - 2010.05.20 11:04:54.
