data_PCOD9556065
_publ_section_title
;
Structure prediction by ZEFSAII (Michael W. Deem and Ramdas Pophale) SiO2 
 PCOD9556065
Probable space group: P -4 21 C
;
_chemical_formula_sum "Si O2"
_cell_formula_units_Z 48
_cell_length_a 8.157160
_cell_length_b 8.157160
_cell_length_c 31.206092
_cell_angle_alpha 90.000000
_cell_angle_beta 90.000000
_cell_angle_gamma 90.000000
_cell_volume 2076.430246
_symmetry_space_group_name_H-M "P -4 21 C"
_symmetry_group_IT_number 114
_symmetry_cell_setting 'tetragonal'
loop_
_space_group_symop_operation_xyz
x,y,z
y,-x,-z
-x,-y,z
-y,x,-z
1/2+x,1/2-y,1/2-z
1/2-x,1/2+y,1/2-z
1/2-y,1/2-x,1/2+z
1/2+y,1/2+x,1/2+z
loop_
_atom_site_type_symbol
_atom_site_label
_atom_site_fract_x
_atom_site_fract_y
_atom_site_fract_z
Si Si1 0.308835 0.305578 0.496587
Si Si2 0.734379 0.287982 0.683054
Si Si3 0.197847 0.293041 0.086962
Si Si4 0.178462 0.910758 0.764138
Si Si5 0.322167 0.176759 0.408148
Si Si6 0.099279 0.671290 0.834260
O O1 0.276994 0.496688 0.504788
O O2 0.257596 0.226160 0.541343
O O3 0.241234 0.259310 0.449882
O O4 0.753268 0.145000 0.718209
O O5 0.777237 0.458386 0.706745
O O6 0.824576 0.247487 0.639351
O O7 0.550031 0.300968 0.665219
O O8 0.178742 0.485953 0.082271
O O9 0.302133 0.219699 0.126037
O O10 0.005775 0.244925 0.095393
O O11 0.179873 0.738003 0.790409
O O12 0.000000 0.000000 0.757845
O O13 0.000000 0.500000 0.835200
#
# Coordination Sequence:
#
# PCOD9556065 Si02
#       6
#     8   8   8   8   8   8
#     4   9  18  36  65  95 122 163 221 274 333 406
#     4  11  22  41  66  93 131 176 224 278 335 407
#     4  10  21  40  63  99 130 167 223 274 343 406
#     4  10  23  41  64  98 136 174 227 284 342 409
#     4  10  21  39  67  92 132 175 213 282 340 408
#     4  11  23  41  64  95 128 177 225 279 328 402
#
# _framework density 23.116599000000001
#
# number of rings (size 3 to 8) (size 9 to 14) (size 15 to 20)
#    0.000    1.833    1.667    2.000    0.000    5.333 
#   12.000    0.000    0.000    0.000    0.000    0.000 
#    0.000    0.000    0.000    0.000    0.000    0.000 
#
# Total GULP energy -267344.462489 kJ/mol
# GULP energy per Si atom -5569.676302 kJ/mol
# Density = 2.306398 g / cm^3
# Si number density = 23.116599 Si / 1000 Ang^3
#
#
#
# Elastic Constant Matrix: (Units=GPa)
#
#
# Indices 1 2 3 4 5 6 
#
# 1 79.8813 -7.3293 39.0233 0.0000 0.0000 0.0000
# 2 -7.3293 79.8813 39.0233 0.0000 0.0000 0.0000
# 3 39.0233 39.0233 184.6416 0.0000 0.0000 0.0000
# 4 0.0000 0.0000 0.0000 2.7695 0.0000 0.0000
# 5 0.0000 0.0000 0.0000 0.0000 2.7695 0.0000
# 6 0.0000 0.0000 0.0000 0.0000 0.0000 22.7814
#
#
#
# Elastic Compliance Matrix: (Units=1/GPa)
#
#
# Indices 1 2 3 4 5 6 
#
# 1 0.014653 0.003186 -0.003770 0.000000 0.000000 0.000000
# 2 0.003186 0.014653 -0.003770 0.000000 0.000000 0.000000
# 3 -0.003770 -0.003770 0.007010 0.000000 0.000000 0.000000
# 4 0.000000 0.000000 0.000000 0.361072 0.000000 0.000000
# 5 0.000000 0.000000 0.000000 0.000000 0.361072 0.000000
# 6 0.000000 0.000000 0.000000 0.000000 0.000000 0.043895
#
#
# Mechanical properties :
#
#
# Convention : Reuss Voigt Hill
#
# Bulk Modulus (GPa) = 36.22318 53.98210 45.10264
# Shear Modulus (GPa) = 6.09559 23.90989 15.00274
#
# Velocity S-wave (km/s) = 1.62561 3.21957 2.55032
# Velocity P-wave (km/s) = 4.38489 6.10112 5.31276
#
# Compressibility (1/GPa) = 0.02760663
#
# Stress axis : x y z
#
# Youngs Moduli (GPa) = 68.24672 68.24672 142.66285
#
# Poissons Ratio (x) = -0.21745 0.53787
# Poissons Ratio (y) = -0.21745 0.53787
# Poissons Ratio (z) = 0.25730 0.25730
#
# Static dielectric constant tensor:
#      x y z
#    x 2.090490 0.000000 0.000000 
#    y 0.000000 2.090490 0.000000 
#    z 0.000000 0.000000 1.968560 
# 
# From -- ./inp_files/3985.got.cif
#   From: 2010.05.17/outbox.cif.g08.bks.cpg/sg114_2_cif.got.tgz:3985.got - 2010.05.20 11:04:54.
