data_PCOD9556600
_publ_section_title
;
Structure prediction by ZEFSAII (Michael W. Deem and Ramdas Pophale) SiO2 
 PCOD9556600
Probable space group: P -4 M 2
;
_chemical_formula_sum "Si O2"
_cell_formula_units_Z 40
_cell_length_a 15.799413
_cell_length_b 15.799413
_cell_length_c 8.620389
_cell_angle_alpha 90.000000
_cell_angle_beta 90.000000
_cell_angle_gamma 90.000000
_cell_volume 2151.834012
_symmetry_space_group_name_H-M "P -4 M 2"
_symmetry_group_IT_number 115
_symmetry_cell_setting 'tetragonal'
loop_
_space_group_symop_operation_xyz
x,y,z
y,-x,-z
-x,-y,z
-y,x,-z
y,x,-z
-y,-x,-z
-x,y,z
x,-y,z
loop_
_atom_site_type_symbol
_atom_site_label
_atom_site_fract_x
_atom_site_fract_y
_atom_site_fract_z
Si Si1 0.796166 0.710283 0.145933
Si Si2 0.097773 0.633547 0.575335
Si Si3 0.724647 0.402359 0.411331
Si Si4 0.595158 0.100197 0.069979
Si Si5 0.806538 0.093551 0.615755
O O1 0.740648 0.649171 0.253157
O O2 0.838372 0.782964 0.252458
O O3 0.746905 0.746905 0.000000
O O4 0.867880 0.651989 0.069627
O O5 0.181989 0.595599 0.494600
O O6 0.116521 0.632554 0.758720
O O7 0.093568 0.725203 0.497431
O O8 0.000000 0.598202 0.555963
O O9 0.655185 0.344816 0.500000
O O10 0.698117 0.500000 0.391975
O O11 0.500000 0.136516 0.063319
O O12 0.589191 0.000000 0.056972
O O13 0.881224 0.118777 0.500000
O O14 0.817668 0.000000 0.682880
#
# Coordination Sequence:
#
# PCOD9556600 Si02
#       5
#     8   8   8   8   8
#     4  11  21  36  55  80 111 143 179 228 289 347
#     4   9  18  34  58  86 114 145 183 229 284 343
#     4  11  23  39  59  82 110 149 196 241 285 339
#     4  10  19  31  50  79 113 142 168 208 268 335
#     4  10  20  35  55  78 106 144 189 233 278 334
#
# _framework density 18.588794
#
# number of rings (size 3 to 8) (size 9 to 14) (size 15 to 20)
#    0.000    1.800    0.000    6.600    0.000    2.400 
#    0.000    2.000    0.000    0.000    0.000    0.000 
#    0.000    0.000    0.000    0.000    0.000    0.000 
#
# Total GULP energy -222889.237268 kJ/mol
# GULP energy per Si atom -5572.230932 kJ/mol
# Density = 1.854649 g / cm^3
# Si number density = 18.588794 Si / 1000 Ang^3
#
#
#
# Elastic Constant Matrix: (Units=GPa)
#
#
# Indices 1 2 3 4 5 6 
#
# 1 68.0689 48.8235 39.7179 0.0000 0.0000 0.0000
# 2 48.8235 68.0722 39.7195 0.0000 0.0000 0.0000
# 3 39.7179 39.7195 108.5550 0.0000 0.0000 0.0000
# 4 0.0000 0.0000 0.0000 4.6906 0.0000 0.0000
# 5 0.0000 0.0000 0.0000 0.0000 4.6938 0.0000
# 6 0.0000 0.0000 0.0000 0.0000 0.0000 -6.0167
#
#
#
# Elastic Compliance Matrix: (Units=1/GPa)
#
#
# Indices 1 2 3 4 5 6 
#
# 1 0.031672 -0.020285 -0.004166 0.000000 0.000000 0.000000
# 2 -0.020285 0.031670 -0.004166 0.000000 0.000000 0.000000
# 3 -0.004166 -0.004166 0.012260 0.000000 0.000000 0.000000
# 4 0.000000 0.000000 0.000000 0.213192 0.000000 0.000000
# 5 0.000000 0.000000 0.000000 0.000000 0.213049 0.000000
# 6 0.000000 0.000000 0.000000 0.000000 0.000000 -0.166205
#
#
# Mechanical properties :
#
#
# Convention : Reuss Voigt Hill
#
# Bulk Modulus (GPa) = 54.44139 55.69086 55.06612
# Shear Modulus (GPa) = 12.53148 8.43588 10.48368
#
# Velocity S-wave (km/s) = 2.59924 2.13261 2.37740
# Velocity P-wave (km/s) = 6.19345 6.00736 6.10112
#
# Compressibility (1/GPa) = 0.01836838
#
# Stress axis : x y z
#
# Youngs Moduli (GPa) = 31.57412 31.57536 81.56343
#
# Poissons Ratio (x) = 0.64051 0.33977
# Poissons Ratio (y) = 0.64048 0.33980
# Poissons Ratio (z) = 0.13153 0.13154
#
# Static dielectric constant tensor:
#      x y z
#    x 1.675160 0.000000 0.000000 
#    y 0.000000 1.675160 0.000000 
#    z 0.000000 0.000000 1.621420 
# 
# From -- ./inp_files/1576.got.cif
#   From: 2010.05.17/outbox.cif.g08.bks.cpg/sg115_1_cif.got.tgz:1576.got - 2010.05.20 11:07:42.
