data_PCOD9556262
_publ_section_title
;
Structure prediction by ZEFSAII (Michael W. Deem and Ramdas Pophale) SiO2 
 PCOD9556262
Probable space group: P -4 21 C
;
_chemical_formula_sum "Si O2"
_cell_formula_units_Z 58
_cell_length_a 16.086681
_cell_length_b 16.086681
_cell_length_c 9.759740
_cell_angle_alpha 90.000000
_cell_angle_beta 90.000000
_cell_angle_gamma 90.000000
_cell_volume 2525.638259
_symmetry_space_group_name_H-M "P -4 21 C"
_symmetry_group_IT_number 114
_symmetry_cell_setting 'tetragonal'
loop_
_space_group_symop_operation_xyz
x,y,z
y,-x,-z
-x,-y,z
-y,x,-z
1/2+x,1/2-y,1/2-z
1/2-x,1/2+y,1/2-z
1/2-y,1/2-x,1/2+z
1/2+y,1/2+x,1/2+z
loop_
_atom_site_type_symbol
_atom_site_label
_atom_site_fract_x
_atom_site_fract_y
_atom_site_fract_z
Si Si1 0.325546 0.555498 0.405657
Si Si2 0.255616 0.032472 0.510388
Si Si3 0.156063 0.364383 0.759995
Si Si4 0.814787 0.227109 0.681995
Si Si5 0.691616 0.584397 0.187938
Si Si6 0.092150 0.770221 0.206571
Si Si7 0.577197 0.061573 0.478225
Si Si8 0.500000 0.500000 0.500000
O O1 0.296790 0.635866 0.320486
O O2 0.296539 0.479039 0.313538
O O3 0.286404 0.556647 0.556513
O O4 0.425525 0.546269 0.419196
O O5 0.231987 0.121195 0.444800
O O6 0.268471 0.037378 0.672733
O O7 0.187934 0.968701 0.450098
O O8 0.342876 0.998187 0.451046
O O9 0.244448 0.343890 0.829692
O O10 0.139593 0.274409 0.690052
O O11 0.132987 0.426275 0.636909
O O12 0.094035 0.391561 0.879858
O O13 0.777587 0.320103 0.692267
O O14 0.614132 0.640217 0.227239
O O15 0.500000 0.000000 0.481395
#
# Coordination Sequence:
#
# PCOD9556262 Si02
#       8
#     8   8   8   8   8   8   8   2
#     4  11  23  43  67  96 138 173 228 284 338 411
#     4  10  24  42  64  98 135 173 224 281 343 399
#     4  10  24  41  70  94 133 180 230 272 348 400
#     4  10  24  42  68  97 133 175 230 287 333 397
#     4   9  22  44  60  94 135 172 216 294 327 400
#     4  11  22  41  70  95 129 176 233 273 338 401
#     4  11  25  44  66  99 141 178 225 280 348 413
#     4  12  24  40  60  98 132 180 216 262 360 392
#
# _framework density 22.964492
#
# number of rings (size 3 to 8) (size 9 to 14) (size 15 to 20)
#    0.000    1.655    1.379    1.241    9.655    7.724 
#    2.483    0.000    0.000    0.828    0.000    0.000 
#    0.000    0.000    0.000    0.000    0.000    0.000 
#
# Total GULP energy -323995.894527 kJ/mol
# GULP energy per Si atom -5586.136113 kJ/mol
# Density = 2.291222 g / cm^3
# Si number density = 22.964492 Si / 1000 Ang^3
#
#
#
# Elastic Constant Matrix: (Units=GPa)
#
#
# Indices 1 2 3 4 5 6 
#
# 1 66.4619 8.7278 15.2126 0.0000 0.0000 0.0000
# 2 8.7278 66.4619 15.2126 0.0000 0.0000 0.0000
# 3 15.2126 15.2126 145.8671 0.0000 0.0000 0.0000
# 4 0.0000 0.0000 0.0000 21.8978 0.0000 0.0000
# 5 0.0000 0.0000 0.0000 0.0000 21.8978 0.0000
# 6 0.0000 0.0000 0.0000 0.0000 0.0000 45.5313
#
#
#
# Elastic Compliance Matrix: (Units=1/GPa)
#
#
# Indices 1 2 3 4 5 6 
#
# 1 0.015603 -0.001718 -0.001448 0.000000 0.000000 0.000000
# 2 -0.001718 0.015603 -0.001448 0.000000 0.000000 0.000000
# 3 -0.001448 -0.001448 0.007158 0.000000 0.000000 0.000000
# 4 0.000000 0.000000 0.000000 0.045667 0.000000 0.000000
# 5 0.000000 0.000000 0.000000 0.000000 0.045667 0.000000
# 6 0.000000 0.000000 0.000000 0.000000 0.000000 0.021963
#
#
# Mechanical properties :
#
#
# Convention : Reuss Voigt Hill
#
# Bulk Modulus (GPa) = 34.32134 39.67742 36.99938
# Shear Modulus (GPa) = 29.30827 33.84123 31.57475
#
# Velocity S-wave (km/s) = 3.57633 3.84296 3.71204
# Velocity P-wave (km/s) = 5.65963 6.08328 5.87527
#
# Compressibility (1/GPa) = 0.02913639
#
# Stress axis : x y z
#
# Youngs Moduli (GPa) = 64.08924 64.08924 139.71147
#
# Poissons Ratio (x) = 0.11008 0.20232
# Poissons Ratio (y) = 0.11008 0.20232
# Poissons Ratio (z) = 0.09281 0.09281
#
# Static dielectric constant tensor:
#      x y z
#    x 1.903100 0.000000 0.000000 
#    y 0.000000 1.903100 0.000000 
#    z 0.000000 0.000000 1.844410 
# 
# From -- ./inp_files/1046.got.cif
#   From: 2010.05.17/outbox.cif.g08.bks.cpg/sg114_1_cif.got.tgz:1046.got - 2010.05.20 11:04:54.
