data_PCOD9556432
_publ_section_title
;
Structure prediction by ZEFSAII (Michael W. Deem and Ramdas Pophale) SiO2 
 PCOD9556432
Probable space group: P -4 21 C
;
_chemical_formula_sum "Si O2"
_cell_formula_units_Z 40
_cell_length_a 8.546088
_cell_length_b 8.546088
_cell_length_c 23.683288
_cell_angle_alpha 90.000000
_cell_angle_beta 90.000000
_cell_angle_gamma 90.000000
_cell_volume 1729.723625
_symmetry_space_group_name_H-M "P -4 21 C"
_symmetry_group_IT_number 114
_symmetry_cell_setting 'tetragonal'
loop_
_space_group_symop_operation_xyz
x,y,z
y,-x,-z
-x,-y,z
-y,x,-z
1/2+x,1/2-y,1/2-z
1/2-x,1/2+y,1/2-z
1/2-y,1/2-x,1/2+z
1/2+y,1/2+x,1/2+z
loop_
_atom_site_type_symbol
_atom_site_label
_atom_site_fract_x
_atom_site_fract_y
_atom_site_fract_z
Si Si1 0.813620 0.173102 0.880371
Si Si2 0.369708 0.383311 0.810794
Si Si3 0.860845 0.384819 0.773547
Si Si4 0.681414 0.683092 0.398823
Si Si5 0.679954 0.683630 0.008981
O O1 0.804271 0.272699 0.823684
O O2 0.995939 0.187456 0.897801
O O3 0.772648 0.990247 0.875574
O O4 0.712009 0.247919 0.929890
O O5 0.500000 0.500000 0.835106
O O6 0.282416 0.495675 0.765379
O O7 0.417742 0.227698 0.776614
O O8 0.257884 0.316105 0.859580
O O9 0.000000 0.500000 0.790827
O O10 0.704330 0.744112 0.462136
O O11 0.709911 0.505554 0.990385
#
# Coordination Sequence:
#
# PCOD9556432 Si02
#       5
#     8   8   8   8   8
#     4  11  25  46  74 101 143 191 245 295 364 441
#     4  12  27  44  73 107 149 190 250 305 370 438
#     4  12  25  47  72 103 143 194 240 302 367 438
#     4  11  25  46  72 105 142 191 244 297 363 440
#     4  11  26  45  71 106 145 185 236 298 367 436
#
# _framework density 23.125080000000001
#
# number of rings (size 3 to 8) (size 9 to 14) (size 15 to 20)
#    0.000    0.600    2.000    4.800    8.400    4.000 
#    0.000    0.000    0.000    0.000    0.000    0.000 
#    0.000    0.000    0.000    0.000    0.000    0.000 
#
# Total GULP energy -223902.062464 kJ/mol
# GULP energy per Si atom -5597.551562 kJ/mol
# Density = 2.307245 g / cm^3
# Si number density = 23.125080 Si / 1000 Ang^3
#
#
#
# Elastic Constant Matrix: (Units=GPa)
#
#
# Indices 1 2 3 4 5 6 
#
# 1 78.7676 47.2135 -2.5320 0.0000 0.0000 0.0000
# 2 47.2135 78.7676 -2.5320 0.0000 0.0000 0.0000
# 3 -2.5320 -2.5320 45.2077 0.0000 0.0000 0.0000
# 4 0.0000 0.0000 0.0000 30.7347 0.0000 0.0000
# 5 0.0000 0.0000 0.0000 0.0000 30.7347 0.0000
# 6 0.0000 0.0000 0.0000 0.0000 0.0000 44.0799
#
#
#
# Elastic Compliance Matrix: (Units=1/GPa)
#
#
# Indices 1 2 3 4 5 6 
#
# 1 0.019824 -0.011868 0.000446 0.000000 0.000000 0.000000
# 2 -0.011868 0.019824 0.000446 0.000000 0.000000 0.000000
# 3 0.000446 0.000446 0.022170 0.000000 0.000000 0.000000
# 4 0.000000 0.000000 0.000000 0.032537 0.000000 0.000000
# 5 0.000000 0.000000 0.000000 0.000000 0.032537 0.000000
# 6 0.000000 0.000000 0.000000 0.000000 0.000000 0.022686
#
#
# Mechanical properties :
#
#
# Convention : Reuss Voigt Hill
#
# Bulk Modulus (GPa) = 25.08559 31.89356 28.48957
# Shear Modulus (GPa) = 27.05367 31.81608 29.43488
#
# Velocity S-wave (km/s) = 3.42407 3.71324 3.57158
# Velocity P-wave (km/s) = 5.14817 5.67502 5.41800
#
# Compressibility (1/GPa) = 0.03986353
#
# Stress axis : x y z
#
# Youngs Moduli (GPa) = 50.44496 50.44496 45.10596
#
# Poissons Ratio (x) = 0.59868 -0.02010
# Poissons Ratio (y) = 0.59868 -0.02010
# Poissons Ratio (z) = -0.02248 -0.02248
#
# Static dielectric constant tensor:
#      x y z
#    x 1.872690 0.000000 0.000000 
#    y 0.000000 1.872690 0.000000 
#    z 0.000000 0.000000 1.816700 
# 
# From -- ./inp_files/3345.got.cif
#   From: 2010.05.17/outbox.cif.g08.bks.cpg/sg114_2_cif.got.tgz:3345.got - 2010.05.20 11:04:54.
