data_PCOD9556291
_publ_section_title
;
Structure prediction by ZEFSAII (Michael W. Deem and Ramdas Pophale) SiO2 
 PCOD9556291
Probable space group: P -4 21 C
;
_chemical_formula_sum "Si O2"
_cell_formula_units_Z 60
_cell_length_a 17.458011
_cell_length_b 17.458011
_cell_length_c 9.353590
_cell_angle_alpha 90.000000
_cell_angle_beta 90.000000
_cell_angle_gamma 90.000000
_cell_volume 2850.807252
_symmetry_space_group_name_H-M "P -4 21 C"
_symmetry_group_IT_number 114
_symmetry_cell_setting 'tetragonal'
loop_
_space_group_symop_operation_xyz
x,y,z
y,-x,-z
-x,-y,z
-y,x,-z
1/2+x,1/2-y,1/2-z
1/2-x,1/2+y,1/2-z
1/2-y,1/2-x,1/2+z
1/2+y,1/2+x,1/2+z
loop_
_atom_site_type_symbol
_atom_site_label
_atom_site_fract_x
_atom_site_fract_y
_atom_site_fract_z
Si Si1 0.246878 0.980647 0.779817
Si Si2 0.589012 0.148058 0.528324
Si Si3 0.120755 0.719844 0.622367
Si Si4 0.399246 0.137853 0.152500
Si Si5 0.860128 0.772435 0.462941
Si Si6 0.999796 0.124452 0.990918
Si Si7 0.000000 0.500000 0.897466
Si Si8 0.233113 0.959071 0.267721
O O1 0.213313 0.921222 0.664398
O O2 0.293157 0.046486 0.699680
O O3 0.304759 0.938006 0.889508
O O4 0.182877 0.016437 0.881676
O O5 0.680519 0.149209 0.535998
O O6 0.560640 0.191707 0.672374
O O7 0.553853 0.062410 0.522595
O O8 0.142883 0.682299 0.772179
O O9 0.115729 0.647986 0.515003
O O10 0.180104 0.783425 0.568931
O O11 0.036025 0.753051 0.642186
O O12 0.445528 0.060118 0.184177
O O13 0.894138 0.789952 0.619487
O O14 0.024200 0.169115 0.849705
O O15 0.928353 0.070337 0.961841
#
# Coordination Sequence:
#
# PCOD9556291 Si02
#       8
#     8   8   8   8   8   8   4   8
#     4  11  24  43  68 102 136 185 233 288 356 429
#     4  11  24  42  71 103 140 191 234 295 365 435
#     4  12  28  46  66 108 145 191 241 304 368 439
#     4  12  27  44  71 102 144 187 238 294 368 437
#     4  12  26  43  70 103 145 188 242 300 366 437
#     4  10  24  45  73  99 131 181 236 290 354 422
#     4  12  22  46  72 102 144 184 248 292 362 452
#     4  11  24  47  67 102 141 187 234 302 361 433
#
# _framework density 21.046671
#
# number of rings (size 3 to 8) (size 9 to 14) (size 15 to 20)
#    0.000    0.667    4.000    2.400    7.467    3.200 
#    0.000    0.000    0.000    1.600    0.000    0.000 
#    0.000    0.000    0.000    0.000    0.000    0.000 
#
# Total GULP energy -335600.787163 kJ/mol
# GULP energy per Si atom -5593.346453 kJ/mol
# Density = 2.099877 g / cm^3
# Si number density = 21.046671 Si / 1000 Ang^3
#
#
#
# Elastic Constant Matrix: (Units=GPa)
#
#
# Indices 1 2 3 4 5 6 
#
# 1 58.6338 6.7012 8.6194 0.0000 0.0000 0.0000
# 2 6.7012 58.6338 8.6194 0.0000 0.0000 0.0000
# 3 8.6194 8.6194 66.5412 0.0000 0.0000 0.0000
# 4 0.0000 0.0000 0.0000 24.2684 0.0000 0.0000
# 5 0.0000 0.0000 0.0000 0.0000 24.2684 0.0000
# 6 0.0000 0.0000 0.0000 0.0000 0.0000 20.0396
#
#
#
# Elastic Compliance Matrix: (Units=1/GPa)
#
#
# Indices 1 2 3 4 5 6 
#
# 1 0.017552 -0.001704 -0.002053 0.000000 0.000000 0.000000
# 2 -0.001704 0.017552 -0.002053 0.000000 0.000000 0.000000
# 3 -0.002053 -0.002053 0.015560 0.000000 0.000000 0.000000
# 4 0.000000 0.000000 0.000000 0.041206 0.000000 0.000000
# 5 0.000000 0.000000 0.000000 0.000000 0.041206 0.000000
# 6 0.000000 0.000000 0.000000 0.000000 0.000000 0.049901
#
#
# Mechanical properties :
#
#
# Convention : Reuss Voigt Hill
#
# Bulk Modulus (GPa) = 25.61233 25.74319 25.67776
# Shear Modulus (GPa) = 24.08361 24.37321 24.22841
#
# Velocity S-wave (km/s) = 3.38641 3.40671 3.39658
# Velocity P-wave (km/s) = 5.24272 5.26615 5.25445
#
# Compressibility (1/GPa) = 0.03904370
#
# Stress axis : x y z
#
# Youngs Moduli (GPa) = 56.97502 56.97502 64.26694
#
# Poissons Ratio (x) = 0.09710 0.13193
# Poissons Ratio (y) = 0.09710 0.13193
# Poissons Ratio (z) = 0.11696 0.11696
#
# Static dielectric constant tensor:
#      x y z
#    x 1.733750 0.000000 0.000000 
#    y 0.000000 1.733750 0.000000 
#    z 0.000000 0.000000 1.762950 
# 
# From -- ./inp_files/1018.got.cif
#   From: 2010.05.17/outbox.cif.g08.bks.cpg/sg114_1_cif.got.tgz:1018.got - 2010.05.20 11:04:54.
