data_PCOD9556469
_publ_section_title
;
Structure prediction by ZEFSAII (Michael W. Deem and Ramdas Pophale) SiO2 
 PCOD9556469
Probable space group: P -4 21 C
;
_chemical_formula_sum "Si O2"
_cell_formula_units_Z 48
_cell_length_a 8.622052
_cell_length_b 8.622052
_cell_length_c 29.271422
_cell_angle_alpha 90.000000
_cell_angle_beta 90.000000
_cell_angle_gamma 90.000000
_cell_volume 2176.031092
_symmetry_space_group_name_H-M "P -4 21 C"
_symmetry_group_IT_number 114
_symmetry_cell_setting 'tetragonal'
loop_
_space_group_symop_operation_xyz
x,y,z
y,-x,-z
-x,-y,z
-y,x,-z
1/2+x,1/2-y,1/2-z
1/2-x,1/2+y,1/2-z
1/2-y,1/2-x,1/2+z
1/2+y,1/2+x,1/2+z
loop_
_atom_site_type_symbol
_atom_site_label
_atom_site_fract_x
_atom_site_fract_y
_atom_site_fract_z
Si Si1 0.170861 0.569984 0.861238
Si Si2 0.734055 0.361872 0.139097
Si Si3 0.121757 0.764262 0.052632
Si Si4 0.780139 0.656597 0.203759
Si Si5 0.918746 0.156281 0.206652
Si Si6 0.726081 0.379367 0.447158
O O1 0.308850 0.444103 0.859729
O O2 0.203145 0.694721 0.822069
O O3 0.175157 0.652090 0.910209
O O4 0.000000 0.500000 0.855224
O O5 0.803348 0.354721 0.088194
O O6 0.772521 0.515495 0.167822
O O7 0.818216 0.223911 0.166167
O O8 0.938331 0.792843 0.060020
O O9 0.196668 0.935806 0.059017
O O10 0.144408 0.722825 0.999522
O O11 0.682829 0.619912 0.248878
O O12 0.950720 0.713966 0.217066
O O13 0.000000 0.000000 0.191471
#
# Coordination Sequence:
#
# PCOD9556469 Si02
#       6
#     8   8   8   8   8   8
#     4  12  23  41  67  99 138 185 230 282 353 429
#     4  12  25  43  69 104 145 180 233 294 361 428
#     4   9  19  40  68 101 139 182 235 295 335 408
#     4  12  27  47  69 102 136 181 230 301 363 426
#     4  12  26  46  71  99 135 183 236 285 356 432
#     4   9  19  39  68 102 137 182 242 283 338 410
#
# _framework density 22.058508
#
# number of rings (size 3 to 8) (size 9 to 14) (size 15 to 20)
#    0.000    1.000    1.667    7.000    2.333    1.333 
#    3.000    1.667    0.000    0.000    0.000    0.000 
#    0.000    0.000    0.000    0.000    0.000    0.000 
#
# Total GULP energy -268838.255099 kJ/mol
# GULP energy per Si atom -5600.796981 kJ/mol
# Density = 2.200830 g / cm^3
# Si number density = 22.058508 Si / 1000 Ang^3
#
#
#
# Elastic Constant Matrix: (Units=GPa)
#
#
# Indices 1 2 3 4 5 6 
#
# 1 55.4099 5.6014 17.9612 0.0000 0.0000 0.0000
# 2 5.6014 55.4099 17.9612 0.0000 0.0000 0.0000
# 3 17.9612 17.9612 77.2297 0.0000 0.0000 0.0000
# 4 0.0000 0.0000 0.0000 31.7200 0.0000 0.0000
# 5 0.0000 0.0000 0.0000 0.0000 31.7200 0.0000
# 6 0.0000 0.0000 0.0000 0.0000 0.0000 24.8498
#
#
#
# Elastic Compliance Matrix: (Units=1/GPa)
#
#
# Indices 1 2 3 4 5 6 
#
# 1 0.019534 -0.000543 -0.004417 0.000000 0.000000 0.000000
# 2 -0.000543 0.019534 -0.004417 0.000000 0.000000 0.000000
# 3 -0.004417 -0.004417 0.015003 0.000000 0.000000 0.000000
# 4 0.000000 0.000000 0.000000 0.031526 0.000000 0.000000
# 5 0.000000 0.000000 0.000000 0.000000 0.031526 0.000000
# 6 0.000000 0.000000 0.000000 0.000000 0.000000 0.040242
#
#
# Mechanical properties :
#
#
# Convention : Reuss Voigt Hill
#
# Bulk Modulus (GPa) = 28.31436 30.12191 29.21813
# Shear Modulus (GPa) = 26.61142 27.42635 27.01888
#
# Velocity S-wave (km/s) = 3.47710 3.52994 3.50362
# Velocity P-wave (km/s) = 5.38369 5.50446 5.44441
#
# Compressibility (1/GPa) = 0.03531776
#
# Stress axis : x y z
#
# Youngs Moduli (GPa) = 51.19313 51.19313 66.65440
#
# Poissons Ratio (x) = 0.02780 0.29439
# Poissons Ratio (y) = 0.02780 0.29439
# Poissons Ratio (z) = 0.22610 0.22610
#
# Static dielectric constant tensor:
#      x y z
#    x 1.826060 0.000000 0.000000 
#    y 0.000000 1.826060 0.000000 
#    z 0.000000 0.000000 1.764310 
# 
# From -- ./inp_files/3989.got.cif
#   From: 2010.05.17/outbox.cif.g08.bks.cpg/sg114_2_cif.got.tgz:3989.got - 2010.05.20 11:04:54.
