data_PCOD9556163
_publ_section_title
;
Structure prediction by ZEFSAII (Michael W. Deem and Ramdas Pophale) SiO2 
 PCOD9556163
Probable space group: P -4 21 C
;
_chemical_formula_sum "Si O2"
_cell_formula_units_Z 48
_cell_length_a 9.075249
_cell_length_b 9.075249
_cell_length_c 28.496316
_cell_angle_alpha 90.000000
_cell_angle_beta 90.000000
_cell_angle_gamma 90.000000
_cell_volume 2346.960701
_symmetry_space_group_name_H-M "P -4 21 C"
_symmetry_group_IT_number 114
_symmetry_cell_setting 'tetragonal'
loop_
_space_group_symop_operation_xyz
x,y,z
y,-x,-z
-x,-y,z
-y,x,-z
1/2+x,1/2-y,1/2-z
1/2-x,1/2+y,1/2-z
1/2-y,1/2-x,1/2+z
1/2+y,1/2+x,1/2+z
loop_
_atom_site_type_symbol
_atom_site_label
_atom_site_fract_x
_atom_site_fract_y
_atom_site_fract_z
Si Si1 0.403567 0.724733 0.738724
Si Si2 0.429915 0.710773 0.287119
Si Si3 0.877437 0.803474 0.441985
Si Si4 0.424175 0.843781 0.639602
Si Si5 0.092522 0.138113 0.108660
Si Si6 0.368741 0.725922 0.949048
O O1 0.570859 0.668726 0.730722
O O2 0.304728 0.578314 0.742716
O O3 0.358717 0.837266 0.779350
O O4 0.361233 0.805450 0.690390
O O5 0.476798 0.688994 0.341557
O O6 0.830635 0.694831 0.401259
O O7 0.850939 0.749656 0.495144
O O8 0.055966 0.819970 0.438804
O O9 0.788891 0.957486 0.437632
O O10 0.556923 0.737346 0.626598
O O11 0.500000 0.000000 0.641319
O O12 0.149895 0.273507 0.077389
O O13 0.000000 0.000000 0.087303
#
# Coordination Sequence:
#
# PCOD9556163 Si02
#       6
#     8   8   8   8   8   8
#     4  10  23  39  60  86 119 158 201 255 305 371
#     4  10  22  41  59  86 120 156 205 253 310 374
#     4   9  19  38  62  93 120 159 220 257 306 374
#     4  11  21  38  62  89 121 162 206 246 312 386
#     4  11  21  42  60  86 132 166 198 261 322 374
#     4   9  19  38  64  88 124 165 205 268 308 364
#
# _framework density 20.451981
#
# number of rings (size 3 to 8) (size 9 to 14) (size 15 to 20)
#    0.000    2.000    5.000    1.000    4.667    1.333 
#    3.000    4.167    0.000    0.000    0.000    0.000 
#    0.000    0.000    0.000    0.000    0.000    0.000 
#
# Total GULP energy -267521.504687 kJ/mol
# GULP energy per Si atom -5573.364681 kJ/mol
# Density = 2.040543 g / cm^3
# Si number density = 20.451981 Si / 1000 Ang^3
#
#
#
# Elastic Constant Matrix: (Units=GPa)
#
#
# Indices 1 2 3 4 5 6 
#
# 1 47.3057 15.8900 15.4190 0.0000 0.0000 0.0000
# 2 15.8900 47.3057 15.4190 0.0000 0.0000 0.0000
# 3 15.4190 15.4190 48.4475 0.0000 0.0000 0.0000
# 4 0.0000 0.0000 0.0000 29.3790 0.0000 0.0000
# 5 0.0000 0.0000 0.0000 0.0000 29.3790 0.0000
# 6 0.0000 0.0000 0.0000 0.0000 0.0000 40.8286
#
#
#
# Elastic Compliance Matrix: (Units=1/GPa)
#
#
# Indices 1 2 3 4 5 6 
#
# 1 0.025282 -0.006549 -0.005962 0.000000 0.000000 0.000000
# 2 -0.006549 0.025282 -0.005962 0.000000 0.000000 0.000000
# 3 -0.005962 -0.005962 0.024436 0.000000 0.000000 0.000000
# 4 0.000000 0.000000 0.000000 0.034038 0.000000 0.000000
# 5 0.000000 0.000000 0.000000 0.000000 0.034038 0.000000
# 6 0.000000 0.000000 0.000000 0.000000 0.000000 0.024493
#
#
# Mechanical properties :
#
#
# Convention : Reuss Voigt Hill
#
# Bulk Modulus (GPa) = 26.27840 26.27942 26.27891
# Shear Modulus (GPa) = 23.02028 26.33938 24.67983
#
# Velocity S-wave (km/s) = 3.35860 3.59258 3.47756
# Velocity P-wave (km/s) = 5.28365 5.48507 5.38531
#
# Compressibility (1/GPa) = 0.03805407
#
# Stress axis : x y z
#
# Youngs Moduli (GPa) = 39.55347 39.55347 40.92346
#
# Poissons Ratio (x) = 0.25904 0.24399
# Poissons Ratio (y) = 0.25904 0.24399
# Poissons Ratio (z) = 0.23582 0.23582
#
# Static dielectric constant tensor:
#      x y z
#    x 1.714330 0.000000 0.000000 
#    y 0.000000 1.714330 0.000000 
#    z 0.000000 0.000000 1.727350 
# 
# From -- ./inp_files/3950.got.cif
#   From: 2010.05.17/outbox.cif.g08.bks.cpg/sg114_2_cif.got.tgz:3950.got - 2010.05.20 11:04:54.
