data_PCOD9556311
_publ_section_title
;
Structure prediction by ZEFSAII (Michael W. Deem and Ramdas Pophale) SiO2 
 PCOD9556311
Probable space group: P -4 21 C
;
_chemical_formula_sum "Si O2"
_cell_formula_units_Z 32
_cell_length_a 8.980474
_cell_length_b 8.980474
_cell_length_c 13.632334
_cell_angle_alpha 90.000000
_cell_angle_beta 90.000000
_cell_angle_gamma 90.000000
_cell_volume 1099.432922
_symmetry_space_group_name_H-M "P -4 21 C"
_symmetry_group_IT_number 114
_symmetry_cell_setting 'tetragonal'
loop_
_space_group_symop_operation_xyz
x,y,z
y,-x,-z
-x,-y,z
-y,x,-z
1/2+x,1/2-y,1/2-z
1/2-x,1/2+y,1/2-z
1/2-y,1/2-x,1/2+z
1/2+y,1/2+x,1/2+z
loop_
_atom_site_type_symbol
_atom_site_label
_atom_site_fract_x
_atom_site_fract_y
_atom_site_fract_z
Si Si1 0.278255 0.522492 0.625358
Si Si2 0.707872 0.018992 0.075228
Si Si3 0.268400 0.791522 0.250058
Si Si4 0.108467 0.824707 0.441568
O O1 0.803124 0.349040 0.686553
O O2 0.184340 0.445095 0.539895
O O3 0.310636 0.391004 0.699865
O O4 0.414348 0.623147 0.585710
O O5 0.649969 0.096895 0.173736
O O6 0.659551 0.847319 0.064669
O O7 0.169003 0.873734 0.334170
O O8 0.432692 0.668729 0.029319
#
# Coordination Sequence:
#
# PCOD9556311 Si02
#       4
#     8   8   8   8
#     4  10  24  51  82 134 178 241 317 396 480 580
#     4  10  25  50  88 126 186 243 326 392 482 592
#     4  10  26  50  86 129 187 245 316 406 480 584
#     4  11  27  55  88 133 190 254 317 403 491 583
#
# _framework density 29.105913000000001
#
# number of rings (size 3 to 8) (size 9 to 14) (size 15 to 20)
#    1.500    0.250    0.000    1.500    3.500    5.500 
#   13.500   18.750    0.000    0.000    0.000    0.000 
#    0.000    0.000    0.000    0.000    0.000    0.000 
#
# Total GULP energy -178200.833673 kJ/mol
# GULP energy per Si atom -5568.776052 kJ/mol
# Density = 2.903967 g / cm^3
# Si number density = 29.105913 Si / 1000 Ang^3
#
#
#
# Elastic Constant Matrix: (Units=GPa)
#
#
# Indices 1 2 3 4 5 6 
#
# 1 120.8155 20.3477 78.1310 0.0000 0.0000 0.0000
# 2 20.3477 120.8155 78.1310 0.0000 0.0000 0.0000
# 3 78.1310 78.1310 210.5795 0.0000 0.0000 0.0000
# 4 0.0000 0.0000 0.0000 61.0303 0.0000 0.0000
# 5 0.0000 0.0000 0.0000 0.0000 61.0303 0.0000
# 6 0.0000 0.0000 0.0000 0.0000 0.0000 51.7662
#
#
#
# Elastic Compliance Matrix: (Units=1/GPa)
#
#
# Indices 1 2 3 4 5 6 
#
# 1 0.010987 0.001034 -0.004460 0.000000 0.000000 0.000000
# 2 0.001034 0.010987 -0.004460 0.000000 0.000000 0.000000
# 3 -0.004460 -0.004460 0.008059 0.000000 0.000000 0.000000
# 4 0.000000 0.000000 0.000000 0.016385 0.000000 0.000000
# 5 0.000000 0.000000 0.000000 0.000000 0.016385 0.000000
# 6 0.000000 0.000000 0.000000 0.000000 0.000000 0.019318
#
#
# Mechanical properties :
#
#
# Convention : Reuss Voigt Hill
#
# Bulk Modulus (GPa) = 70.12527 89.49221 79.80874
# Shear Modulus (GPa) = 48.71011 53.13874 50.92443
#
# Velocity S-wave (km/s) = 4.09534 4.27746 4.18739
# Velocity P-wave (km/s) = 6.81967 7.43030 7.13152
#
# Compressibility (1/GPa) = 0.01426019
#
# Stress axis : x y z
#
# Youngs Moduli (GPa) = 91.01349 91.01349 124.09157
#
# Poissons Ratio (x) = -0.09410 0.55348
# Poissons Ratio (y) = -0.09410 0.55348
# Poissons Ratio (z) = 0.40594 0.40594
#
# Static dielectric constant tensor:
#      x y z
#    x 2.367940 0.000000 0.000000 
#    y 0.000000 2.367940 0.000000 
#    z 0.000000 0.000000 2.393880 
# 
# From -- ./inp_files/1359.got.cif
#   From: 2010.05.17/outbox.cif.g08.bks.cpg/sg114_1_cif.got.tgz:1359.got - 2010.05.20 11:04:54.
