data_PCOD9556579
_publ_section_title
;
Structure prediction by ZEFSAII (Michael W. Deem and Ramdas Pophale) SiO2 
 PCOD9556579
Probable space group: P -4 M 2
;
_chemical_formula_sum "Si O2"
_cell_formula_units_Z 48
_cell_length_a 13.732286
_cell_length_b 13.732286
_cell_length_c 15.648161
_cell_angle_alpha 90.000000
_cell_angle_beta 90.000000
_cell_angle_gamma 90.000000
_cell_volume 2950.862582
_symmetry_space_group_name_H-M "P -4 M 2"
_symmetry_group_IT_number 115
_symmetry_cell_setting 'tetragonal'
loop_
_space_group_symop_operation_xyz
x,y,z
y,-x,-z
-x,-y,z
-y,x,-z
y,x,-z
-y,-x,-z
-x,y,z
x,-y,z
loop_
_atom_site_type_symbol
_atom_site_label
_atom_site_fract_x
_atom_site_fract_y
_atom_site_fract_z
Si Si1 0.613665 0.115513 0.171395
Si Si2 0.275483 0.116155 0.652690
Si Si3 0.884487 0.386335 0.171397
Si Si4 0.616190 0.228769 0.999999
Si Si5 0.116156 0.724515 0.652691
Si Si6 0.777860 0.615767 0.500000
O O1 0.500000 0.139389 0.189654
O O2 0.678786 0.135976 0.254020
O O3 0.618152 0.000000 0.154663
O O4 0.644363 0.171401 0.086015
O O5 0.321214 0.135976 0.745978
O O6 0.174180 0.174181 0.643810
O O7 0.347944 0.161009 0.582118
O O8 0.265637 0.000000 0.641684
O O9 0.860612 0.500000 0.189657
O O10 0.828598 0.355636 0.086018
O O11 0.000000 0.381848 0.154664
O O12 0.500000 0.236252 0.999998
O O13 0.668126 0.331875 0.000000
O O14 0.161011 0.652054 0.582120
O O15 0.000000 0.734360 0.641685
O O16 0.676896 0.676896 0.500000
O O17 0.764359 0.500000 0.499999
#
# Coordination Sequence:
#
# PCOD9556579 Si02
#       6
#     8   8   8   8   8   8
#     4   9  17  30  49  71  92 117 154 199 243 284
#     4  10  20  33  50  73 100 130 163 198 237 282
#     4   9  17  30  49  71  92 117 154 199 243 284
#     4  10  19  30  45  65  92 124 155 191 234 281
#     4  10  20  33  50  73 100 130 163 198 237 282
#     4  10  21  36  54  76 100 126 159 198 240 286
#
# _framework density 16.266428999999999
#
# number of rings (size 3 to 8) (size 9 to 14) (size 15 to 20)
#    0.000    2.333    0.000    3.000    0.000    5.333 
#    0.000    0.000    0.000    3.000    0.000    4.667 
#    0.000   12.000    0.000    0.000    0.000    0.000 
#
# Total GULP energy -267681.595401 kJ/mol
# GULP energy per Si atom -5576.699904 kJ/mol
# Density = 1.622941 g / cm^3
# Si number density = 16.266429 Si / 1000 Ang^3
#
#
#
# Elastic Constant Matrix: (Units=GPa)
#
#
# Indices 1 2 3 4 5 6 
#
# 1 93.6446 62.1192 59.9065 0.0000 0.0000 0.0000
# 2 62.1192 93.6380 59.9047 0.0000 0.0000 0.0000
# 3 59.9065 59.9047 123.6249 0.0000 0.0000 0.0000
# 4 0.0000 0.0000 0.0000 20.6199 0.0000 0.0000
# 5 0.0000 0.0000 0.0000 0.0000 20.6200 0.0000
# 6 0.0000 0.0000 0.0000 0.0000 0.0000 19.8216
#
#
#
# Elastic Compliance Matrix: (Units=1/GPa)
#
#
# Indices 1 2 3 4 5 6 
#
# 1 0.020979 -0.010744 -0.004960 0.000000 0.000000 0.000000
# 2 -0.010744 0.020980 -0.004960 0.000000 0.000000 0.000000
# 3 -0.004960 -0.004960 0.012896 0.000000 0.000000 0.000000
# 4 0.000000 0.000000 0.000000 0.048497 0.000000 0.000000
# 5 0.000000 0.000000 0.000000 0.000000 0.048497 0.000000
# 6 0.000000 0.000000 0.000000 0.000000 0.000000 0.050450
#
#
# Mechanical properties :
#
#
# Convention : Reuss Voigt Hill
#
# Bulk Modulus (GPa) = 73.92540 74.97426 74.44983
# Shear Modulus (GPa) = 20.15036 20.81077 20.48057
#
# Velocity S-wave (km/s) = 3.52343 3.58071 3.55219
# Velocity P-wave (km/s) = 7.88023 7.95530 7.91785
#
# Compressibility (1/GPa) = 0.01352715
#
# Stress axis : x y z
#
# Youngs Moduli (GPa) = 47.66753 47.66399 77.54546
#
# Poissons Ratio (x) = 0.51212 0.38459
# Poissons Ratio (y) = 0.51215 0.38461
# Poissons Ratio (z) = 0.23641 0.23640
#
# Static dielectric constant tensor:
#      x y z
#    x 1.521670 0.000000 0.000000 
#    y 0.000000 1.521670 0.000000 
#    z 0.000000 0.000000 1.544380 
# 
# From -- ./inp_files/2981.got.cif
#   From: 2010.05.17/outbox.cif.g08.bks.cpg/sg115_2_cif.got.tgz:2981.got - 2010.05.20 11:07:42.
