data_PCOD9556020
_publ_section_title
;
Structure prediction by ZEFSAII (Michael W. Deem and Ramdas Pophale) SiO2 
 PCOD9556020
Probable space group: P -4 21 C
;
_chemical_formula_sum "Si O2"
_cell_formula_units_Z 48
_cell_length_a 13.065026
_cell_length_b 13.065026
_cell_length_c 13.369046
_cell_angle_alpha 90.000000
_cell_angle_beta 90.000000
_cell_angle_gamma 90.000000
_cell_volume 2282.028029
_symmetry_space_group_name_H-M "P -4 21 C"
_symmetry_group_IT_number 114
_symmetry_cell_setting 'tetragonal'
loop_
_space_group_symop_operation_xyz
x,y,z
y,-x,-z
-x,-y,z
-y,x,-z
1/2+x,1/2-y,1/2-z
1/2-x,1/2+y,1/2-z
1/2-y,1/2-x,1/2+z
1/2+y,1/2+x,1/2+z
loop_
_atom_site_type_symbol
_atom_site_label
_atom_site_fract_x
_atom_site_fract_y
_atom_site_fract_z
Si Si1 0.000000 0.000000 0.799101
Si Si2 0.202798 0.739029 0.455954
Si Si3 0.795451 0.419598 0.615889
Si Si4 0.476493 0.288805 0.582877
Si Si5 0.153775 0.371785 0.927584
Si Si6 0.979674 0.207021 0.319960
Si Si7 0.000000 0.500000 0.535774
O O1 0.903262 0.999860 0.725576
O O2 0.004947 0.897294 0.866689
O O3 0.242179 0.637340 0.396273
O O4 0.290629 0.821533 0.476521
O O5 0.099267 0.521496 0.599705
O O6 0.101947 0.788080 0.409871
O O7 0.712967 0.472152 0.539533
O O8 0.812169 0.308713 0.567136
O O9 0.764167 0.424295 0.728508
O O10 0.568359 0.209839 0.609436
O O11 0.235876 0.415708 0.850219
O O12 0.027814 0.406481 0.464146
#
# Coordination Sequence:
#
# PCOD9556020 Si02
#       7
#     4   8   8   8   8   8   4
#     4  12  28  43  65 106 140 190 237 304 357 444
#     4  10  24  45  68  99 144 181 232 300 361 421
#     4   9  22  44  69 104 130 186 232 299 350 425
#     4   9  24  45  66  97 143 179 232 303 359 410
#     4  11  22  46  72  96 141 189 230 296 360 432
#     4  12  26  45  71 104 143 188 250 287 368 441
#     4  10  20  44  72 100 134 176 226 300 352 398
#
# _framework density 21.033923000000001
#
# number of rings (size 3 to 8) (size 9 to 14) (size 15 to 20)
#    1.000    0.667    1.667    1.000    4.667    6.667 
#    3.000    0.000    0.000    0.000    0.000    0.000 
#    0.000    0.000    0.000    0.000    0.000    0.000 
#
# Total GULP energy -267687.371967 kJ/mol
# GULP energy per Si atom -5576.820249 kJ/mol
# Density = 2.098605 g / cm^3
# Si number density = 21.033923 Si / 1000 Ang^3
#
#
#
# Elastic Constant Matrix: (Units=GPa)
#
#
# Indices 1 2 3 4 5 6 
#
# 1 100.3905 57.1013 45.8545 0.0000 0.0000 0.0000
# 2 57.1013 100.3905 45.8545 0.0000 0.0000 0.0000
# 3 45.8545 45.8545 64.3988 0.0000 0.0000 0.0000
# 4 0.0000 0.0000 0.0000 21.2491 0.0000 0.0000
# 5 0.0000 0.0000 0.0000 0.0000 21.2491 0.0000
# 6 0.0000 0.0000 0.0000 0.0000 0.0000 33.1052
#
#
#
# Elastic Compliance Matrix: (Units=1/GPa)
#
#
# Indices 1 2 3 4 5 6 
#
# 1 0.016974 -0.006127 -0.007724 0.000000 0.000000 0.000000
# 2 -0.006127 0.016974 -0.007724 0.000000 0.000000 0.000000
# 3 -0.007724 -0.007724 0.026527 0.000000 0.000000 0.000000
# 4 0.000000 0.000000 0.000000 0.047061 0.000000 0.000000
# 5 0.000000 0.000000 0.000000 0.000000 0.047061 0.000000
# 6 0.000000 0.000000 0.000000 0.000000 0.000000 0.030207
#
#
# Mechanical properties :
#
#
# Convention : Reuss Voigt Hill
#
# Bulk Modulus (GPa) = 57.71298 62.53339 60.12319
# Shear Modulus (GPa) = 21.39257 22.87865 22.13561
#
# Velocity S-wave (km/s) = 3.19258 3.30161 3.24755
# Velocity P-wave (km/s) = 6.40997 6.65797 6.53514
#
# Compressibility (1/GPa) = 0.01732712
#
# Stress axis : x y z
#
# Youngs Moduli (GPa) = 58.91457 58.91457 37.69725
#
# Poissons Ratio (x) = 0.36095 0.29116
# Poissons Ratio (y) = 0.36095 0.29116
# Poissons Ratio (z) = 0.45503 0.45503
#
# Static dielectric constant tensor:
#      x y z
#    x 1.812780 0.000000 0.000000 
#    y 0.000000 1.812780 0.000000 
#    z 0.000000 0.000000 1.733690 
# 
# From -- ./inp_files/2223.got.cif
#   From: 2010.05.17/outbox.cif.g08.bks.cpg/sg114_2_cif.got.tgz:2223.got - 2010.05.20 11:04:54.
