data_PCOD9556022
_publ_section_title
;
Structure prediction by ZEFSAII (Michael W. Deem and Ramdas Pophale) SiO2 
 PCOD9556022
Probable space group: P -4 21 C
;
_chemical_formula_sum "Si O2"
_cell_formula_units_Z 40
_cell_length_a 13.598159
_cell_length_b 13.598159
_cell_length_c 8.816743
_cell_angle_alpha 90.000000
_cell_angle_beta 90.000000
_cell_angle_gamma 90.000000
_cell_volume 1630.303315
_symmetry_space_group_name_H-M "P -4 21 C"
_symmetry_group_IT_number 114
_symmetry_cell_setting 'tetragonal'
loop_
_space_group_symop_operation_xyz
x,y,z
y,-x,-z
-x,-y,z
-y,x,-z
1/2+x,1/2-y,1/2-z
1/2-x,1/2+y,1/2-z
1/2-y,1/2-x,1/2+z
1/2+y,1/2+x,1/2+z
loop_
_atom_site_type_symbol
_atom_site_label
_atom_site_fract_x
_atom_site_fract_y
_atom_site_fract_z
Si Si1 0.347758 0.991053 0.130191
Si Si2 0.155807 0.022318 0.752152
Si Si3 0.000000 0.000000 0.000000
Si Si4 0.730189 0.165171 0.725579
Si Si5 0.500000 0.500000 0.000000
Si Si6 0.758210 0.824965 0.974911
Si Si7 0.000000 0.500000 0.624369
O O1 0.313656 0.885084 0.193175
O O2 0.284085 0.080614 0.065173
O O3 0.414004 0.034954 0.265290
O O4 0.415355 0.963876 0.986337
O O5 0.085238 0.038610 0.610161
O O6 0.242463 0.949097 0.703363
O O7 0.191471 0.120856 0.831732
O O8 0.088675 0.973747 0.886746
O O9 0.763460 0.186369 0.896072
O O10 0.794954 0.235094 0.614188
#
# Coordination Sequence:
#
# PCOD9556022 Si02
#       7
#     8   8   2   8   2   8   4
#     4  11  24  46  74 114 156 210 277 336 414 499
#     4  11  24  49  73 114 159 212 275 341 423 490
#     4  10  20  46  80 102 160 218 264 350 416 490
#     4  12  27  47  80 119 161 222 279 340 426 501
#     4  10  28  46  76 114 160 218 272 362 412 530
#     4  12  26  46  76 114 161 212 267 349 401 500
#     4  10  22  46  72 100 154 210 260 348 402 470
#
# _framework density 24.535312000000001
#
# number of rings (size 3 to 8) (size 9 to 14) (size 15 to 20)
#    0.000    0.800    2.000    4.800    2.800    1.600 
#    3.600    0.000    0.000    0.000    0.000    0.000 
#    0.000    0.000    0.000    0.000    0.000    0.000 
#
# Total GULP energy -223341.315073 kJ/mol
# GULP energy per Si atom -5583.532877 kJ/mol
# Density = 2.447947 g / cm^3
# Si number density = 24.535312 Si / 1000 Ang^3
#
#
#
# Elastic Constant Matrix: (Units=GPa)
#
#
# Indices 1 2 3 4 5 6 
#
# 1 114.3634 48.9930 53.1822 0.0000 0.0000 0.0000
# 2 48.9930 114.3634 53.1822 0.0000 0.0000 0.0000
# 3 53.1822 53.1822 129.1767 0.0000 0.0000 0.0000
# 4 0.0000 0.0000 0.0000 39.2704 0.0000 0.0000
# 5 0.0000 0.0000 0.0000 0.0000 39.2704 0.0000
# 6 0.0000 0.0000 0.0000 0.0000 0.0000 34.6071
#
#
#
# Elastic Compliance Matrix: (Units=1/GPa)
#
#
# Indices 1 2 3 4 5 6 
#
# 1 0.011831 -0.003467 -0.003443 0.000000 0.000000 0.000000
# 2 -0.003467 0.011831 -0.003443 0.000000 0.000000 0.000000
# 3 -0.003443 -0.003443 0.010577 0.000000 0.000000 0.000000
# 4 0.000000 0.000000 0.000000 0.025464 0.000000 0.000000
# 5 0.000000 0.000000 0.000000 0.000000 0.025464 0.000000
# 6 0.000000 0.000000 0.000000 0.000000 0.000000 0.028896
#
#
# Mechanical properties :
#
#
# Convention : Reuss Voigt Hill
#
# Bulk Modulus (GPa) = 73.90694 74.29091 74.09893
# Shear Modulus (GPa) = 35.89902 36.13265 36.01583
#
# Velocity S-wave (km/s) = 3.82927 3.84171 3.83550
# Velocity P-wave (km/s) = 7.05260 7.07271 7.06266
#
# Compressibility (1/GPa) = 0.01353053
#
# Stress axis : x y z
#
# Youngs Moduli (GPa) = 84.52713 84.52713 94.54876
#
# Poissons Ratio (x) = 0.29305 0.32556
# Poissons Ratio (y) = 0.29305 0.32556
# Poissons Ratio (z) = 0.29105 0.29105
#
# Static dielectric constant tensor:
#      x y z
#    x 2.038840 0.000000 0.000000 
#    y 0.000000 2.038840 0.000000 
#    z 0.000000 0.000000 1.907640 
# 
# From -- ./inp_files/842.got.cif
#   From: 2010.05.17/outbox.cif.g08.bks.cpg/sg114_1_cif.got.tgz:842.got - 2010.05.20 11:04:54.
