data_PCOD9556148
_publ_section_title
;
Structure prediction by ZEFSAII (Michael W. Deem and Ramdas Pophale) SiO2 
 PCOD9556148
Probable space group: P -4 21 C
;
_chemical_formula_sum "Si O2"
_cell_formula_units_Z 36
_cell_length_a 9.383028
_cell_length_b 9.383028
_cell_length_c 17.896037
_cell_angle_alpha 90.000000
_cell_angle_beta 90.000000
_cell_angle_gamma 90.000000
_cell_volume 1575.588831
_symmetry_space_group_name_H-M "P -4 21 C"
_symmetry_group_IT_number 114
_symmetry_cell_setting 'tetragonal'
loop_
_space_group_symop_operation_xyz
x,y,z
y,-x,-z
-x,-y,z
-y,x,-z
1/2+x,1/2-y,1/2-z
1/2-x,1/2+y,1/2-z
1/2-y,1/2-x,1/2+z
1/2+y,1/2+x,1/2+z
loop_
_atom_site_type_symbol
_atom_site_label
_atom_site_fract_x
_atom_site_fract_y
_atom_site_fract_z
Si Si1 0.097295 0.302154 0.081604
Si Si2 0.500000 0.000000 0.689971
Si Si3 0.023341 0.248893 0.698475
Si Si4 0.034411 0.704933 0.925803
Si Si5 0.334367 0.291371 0.319482
O O1 0.206493 0.414539 0.118352
O O2 0.977007 0.268005 0.142580
O O3 0.178044 0.155189 0.064447
O O4 0.020954 0.346426 0.005357
O O5 0.556994 0.118135 0.745837
O O6 0.403208 0.085005 0.630518
O O7 0.148193 0.758486 0.696790
O O8 0.117421 0.134746 0.744062
O O9 0.899124 0.768437 0.880782
#
# Coordination Sequence:
#
# PCOD9556148 Si02
#       5
#     8   4   8   8   8
#     4  12  23  41  67  98 132 178 231 279 343 410
#     4  10  22  40  58  94 128 168 212 270 340 392
#     4  11  23  43  68  95 133 176 226 282 348 410
#     4  11  25  39  65  96 136 175 223 279 339 410
#     4  11  23  42  63  97 128 173 226 278 342 401
#
# _framework density 22.848600000000001
#
# number of rings (size 3 to 8) (size 9 to 14) (size 15 to 20)
#    0.000    0.889    4.444    3.333    3.111    0.000 
#    0.000    0.000    0.000    0.000    0.000    6.222 
#    0.000    0.000    0.000    0.000    0.000    0.000 
#
# Total GULP energy -200847.779810 kJ/mol
# GULP energy per Si atom -5579.104995 kJ/mol
# Density = 2.279660 g / cm^3
# Si number density = 22.848600 Si / 1000 Ang^3
#
#
#
# Elastic Constant Matrix: (Units=GPa)
#
#
# Indices 1 2 3 4 5 6 
#
# 1 86.4597 20.1188 28.7333 0.0000 0.0000 0.0000
# 2 20.1188 86.4597 28.7333 0.0000 0.0000 0.0000
# 3 28.7333 28.7333 115.6720 0.0000 0.0000 0.0000
# 4 0.0000 0.0000 0.0000 33.0390 0.0000 0.0000
# 5 0.0000 0.0000 0.0000 0.0000 33.0390 0.0000
# 6 0.0000 0.0000 0.0000 0.0000 0.0000 16.7725
#
#
#
# Elastic Compliance Matrix: (Units=1/GPa)
#
#
# Indices 1 2 3 4 5 6 
#
# 1 0.012954 -0.002120 -0.002691 0.000000 0.000000 0.000000
# 2 -0.002120 0.012954 -0.002691 0.000000 0.000000 0.000000
# 3 -0.002691 -0.002691 0.009982 0.000000 0.000000 0.000000
# 4 0.000000 0.000000 0.000000 0.030267 0.000000 0.000000
# 5 0.000000 0.000000 0.000000 0.000000 0.030267 0.000000
# 6 0.000000 0.000000 0.000000 0.000000 0.000000 0.059621
#
#
# Mechanical properties :
#
#
# Convention : Reuss Voigt Hill
#
# Bulk Modulus (GPa) = 47.88097 49.30692 48.59394
# Shear Modulus (GPa) = 28.08807 30.63717 29.36262
#
# Velocity S-wave (km/s) = 3.50996 3.66577 3.58871
# Velocity P-wave (km/s) = 6.11782 6.28839 6.20369
#
# Compressibility (1/GPa) = 0.02088513
#
# Stress axis : x y z
#
# Youngs Moduli (GPa) = 77.19775 77.19775 100.17907
#
# Poissons Ratio (x) = 0.16365 0.26960
# Poissons Ratio (y) = 0.16365 0.26960
# Poissons Ratio (z) = 0.20775 0.20775
#
# Static dielectric constant tensor:
#      x y z
#    x 1.982760 0.000000 0.000000 
#    y 0.000000 1.982760 0.000000 
#    z 0.000000 0.000000 1.845230 
# 
# From -- ./inp_files/2517.got.cif
#   From: 2010.05.17/outbox.cif.g08.bks.cpg/sg114_2_cif.got.tgz:2517.got - 2010.05.20 11:04:54.
