data_PCOD9556560
_publ_section_title
;
Structure prediction by ZEFSAII (Michael W. Deem and Ramdas Pophale) SiO2 
 PCOD9556560
Probable space group: P -4 M 2
;
_chemical_formula_sum "Si O2"
_cell_formula_units_Z 37
_cell_length_a 13.927200
_cell_length_b 13.927200
_cell_length_c 9.935217
_cell_angle_alpha 90.000000
_cell_angle_beta 90.000000
_cell_angle_gamma 90.000000
_cell_volume 1927.103241
_symmetry_space_group_name_H-M "P -4 M 2"
_symmetry_group_IT_number 115
_symmetry_cell_setting 'tetragonal'
loop_
_space_group_symop_operation_xyz
x,y,z
y,-x,-z
-x,-y,z
-y,x,-z
y,x,-z
-y,-x,-z
-x,y,z
x,-y,z
loop_
_atom_site_type_symbol
_atom_site_label
_atom_site_fract_x
_atom_site_fract_y
_atom_site_fract_z
Si Si1 0.101583 0.500000 0.892410
Si Si2 0.321913 0.274894 0.747105
Si Si3 0.612004 0.387997 0.500000
Si Si4 0.500000 0.500000 0.000000
Si Si5 0.703313 0.500000 0.052334
Si Si6 0.389401 0.890040 0.553104
Si Si7 0.892534 0.698653 0.734820
O O1 0.102662 0.406095 0.801096
O O2 0.000000 0.500000 0.970475
O O3 0.195976 0.500000 0.979587
O O4 0.329092 0.356651 0.631243
O O5 0.402717 0.298778 0.857908
O O6 0.357661 0.180480 0.669861
O O7 0.210060 0.260907 0.786753
O O8 0.500000 0.372915 0.530305
O O9 0.500000 0.388602 0.048126
O O10 0.500000 0.868199 0.513711
O O11 0.319407 0.882479 0.424938
O O12 0.387072 0.000000 0.598555
O O13 0.000000 0.743084 0.759323
#
# Coordination Sequence:
#
# PCOD9556560 Si02
#       7
#     4   8   4   1   4   8   8
#     4  10  22  41  60  78 104 149 203 249 274 314
#     4  12  22  34  57  84 116 149 182 232 285 342
#     4  11  22  32  48  82 118 155 182 208 260 347
#     4  12  28  44  44  74 120 164 188 216 262 372
#     4  12  26  39  54  79 113 157 187 225 296 338
#     4  10  18  32  54  86 116 142 183 234 288 330
#     4  10  20  35  58  78 106 151 195 235 269 322
#
# _framework density 19.199801999999998
#
# number of rings (size 3 to 8) (size 9 to 14) (size 15 to 20)
#    0.000    1.189    5.405    1.297    3.027    0.865 
#    0.000    0.000    0.000    0.649    0.000    3.027 
#    0.000    1.730    0.000    0.000    0.000    0.000 
#
# Total GULP energy -206171.216326 kJ/mol
# GULP energy per Si atom -5572.195036 kJ/mol
# Density = 1.915610 g / cm^3
# Si number density = 19.199802 Si / 1000 Ang^3
#
#
#
# Elastic Constant Matrix: (Units=GPa)
#
#
# Indices 1 2 3 4 5 6 
#
# 1 124.3539 1.1270 15.3107 0.0000 0.0000 0.0000
# 2 1.1270 124.3544 15.3107 0.0000 0.0000 0.0000
# 3 15.3107 15.3107 32.8926 0.0000 0.0000 0.0000
# 4 0.0000 0.0000 0.0000 14.6830 0.0000 0.0000
# 5 0.0000 0.0000 0.0000 0.0000 14.6828 0.0000
# 6 0.0000 0.0000 0.0000 0.0000 0.0000 -9.9504
#
#
#
# Elastic Compliance Matrix: (Units=1/GPa)
#
#
# Indices 1 2 3 4 5 6 
#
# 1 0.008553 0.000438 -0.004185 0.000000 0.000000 0.000000
# 2 0.000438 0.008553 -0.004185 0.000000 0.000000 0.000000
# 3 -0.004185 -0.004185 0.034298 0.000000 0.000000 0.000000
# 4 0.000000 0.000000 0.000000 0.068106 0.000000 0.000000
# 5 0.000000 0.000000 0.000000 0.000000 0.068107 0.000000
# 6 0.000000 0.000000 0.000000 0.000000 0.000000 -0.100498
#
#
# Mechanical properties :
#
#
# Convention : Reuss Voigt Hill
#
# Bulk Modulus (GPa) = 28.13772 38.34419 33.24095
# Shear Modulus (GPa) = 43.54308 20.53991 32.04149
#
# Velocity S-wave (km/s) = 4.76741 3.27433 4.08958
# Velocity P-wave (km/s) = 6.70755 5.85743 6.29685
#
# Compressibility (1/GPa) = 0.03553948
#
# Stress axis : x y z
#
# Youngs Moduli (GPa) = 116.92012 116.92057 29.15633
#
# Poissons Ratio (x) = -0.05118 0.12202
# Poissons Ratio (y) = -0.05118 0.12202
# Poissons Ratio (z) = 0.48930 0.48930
#
# Static dielectric constant tensor:
#      x y z
#    x 1.714890 0.000000 0.000000 
#    y 0.000000 1.714890 0.000000 
#    z 0.000000 0.000000 1.697360 
# 
# From -- ./inp_files/1551.got.cif
#   From: 2010.05.17/outbox.cif.g08.bks.cpg/sg115_1_cif.got.tgz:1551.got - 2010.05.20 11:07:42.
