data_PCOD9556590
_publ_section_title
;
Structure prediction by ZEFSAII (Michael W. Deem and Ramdas Pophale) SiO2 
 PCOD9556590
Probable space group: P -4 M 2
;
_chemical_formula_sum "Si O2"
_cell_formula_units_Z 37
_cell_length_a 7.712318
_cell_length_b 7.712318
_cell_length_c 31.211531
_cell_angle_alpha 90.000000
_cell_angle_beta 90.000000
_cell_angle_gamma 90.000000
_cell_volume 1856.457149
_symmetry_space_group_name_H-M "P -4 M 2"
_symmetry_group_IT_number 115
_symmetry_cell_setting 'tetragonal'
loop_
_space_group_symop_operation_xyz
x,y,z
y,-x,-z
-x,-y,z
-y,x,-z
y,x,-z
-y,-x,-z
-x,y,z
x,-y,z
loop_
_atom_site_type_symbol
_atom_site_label
_atom_site_fract_x
_atom_site_fract_y
_atom_site_fract_z
Si Si1 0.690741 0.000000 0.567156
Si Si2 0.790216 0.701708 0.631887
Si Si3 0.791334 0.000000 0.790703
Si Si4 0.302805 0.211744 0.270708
Si Si5 0.000000 0.000000 0.500000
Si Si6 0.000000 0.291757 0.109548
Si Si7 0.302122 0.711801 0.048013
O O1 0.714525 0.833187 0.597678
O O2 0.500000 0.000000 0.547926
O O3 0.834521 0.000000 0.530759
O O4 0.744964 0.500000 0.624439
O O5 0.737960 0.746384 0.680744
O O6 0.000000 0.715383 0.629788
O O7 0.727851 0.168489 0.764896
O O8 0.748602 0.000000 0.840505
O O9 0.000000 0.000000 0.787373
O O10 0.500000 0.267662 0.262583
O O11 0.303032 0.000000 0.270540
O O12 0.829992 0.228260 0.084276
O O13 0.000000 0.500000 0.105441
O O14 0.500000 0.770644 0.054593
O O15 0.305706 0.500000 0.048131
O O16 0.241689 0.758311 0.000000
#
# Coordination Sequence:
#
# PCOD9556590 Si02
#       7
#     4   8   4   8   1   4   8
#     4  12  25  41  65  91 121 162 201 249 307 356
#     4   9  17  35  65  94 118 149 200 257 302 346
#     4  10  19  31  46  70 112 146 177 216 263 324
#     4   8  15  29  53  81 108 148 190 225 271 328
#     4  12  28  48  60  88 128 168 212 244 292 372
#     4  10  20  33  49  71  98 133 174 213 263 330
#     4   8  15  31  53  71  89 119 163 216 272 327
#
# _framework density 19.930437000000001
#
# number of rings (size 3 to 8) (size 9 to 14) (size 15 to 20)
#    0.000    2.811    1.081    2.595    0.000    3.892 
#    1.946    2.162    0.000    1.297    0.000    0.000 
#    0.000    0.000    0.000    0.000    0.000    0.000 
#
# Total GULP energy -206571.550573 kJ/mol
# GULP energy per Si atom -5583.014880 kJ/mol
# Density = 1.988507 g / cm^3
# Si number density = 19.930437 Si / 1000 Ang^3
#
#
#
# Elastic Constant Matrix: (Units=GPa)
#
#
# Indices 1 2 3 4 5 6 
#
# 1 81.3636 36.2507 72.5970 0.0000 0.0000 0.0000
# 2 36.2507 81.3635 72.5970 0.0000 0.0000 0.0000
# 3 72.5970 72.5970 171.4445 0.0000 0.0000 0.0000
# 4 0.0000 0.0000 0.0000 -39.9079 0.0000 0.0000
# 5 0.0000 0.0000 0.0000 0.0000 -39.9082 0.0000
# 6 0.0000 0.0000 0.0000 0.0000 0.0000 4.1960
#
#
#
# Elastic Compliance Matrix: (Units=1/GPa)
#
#
# Indices 1 2 3 4 5 6 
#
# 1 0.019991 -0.002176 -0.007544 0.000000 0.000000 0.000000
# 2 -0.002176 0.019991 -0.007544 0.000000 0.000000 0.000000
# 3 -0.007544 -0.007544 0.012221 0.000000 0.000000 0.000000
# 4 0.000000 0.000000 0.000000 -0.025058 0.000000 0.000000
# 5 0.000000 0.000000 0.000000 0.000000 -0.025058 0.000000
# 6 0.000000 0.000000 0.000000 0.000000 0.000000 0.238324
#
#
# Mechanical properties :
#
#
# Convention : Reuss Voigt Hill
#
# Bulk Modulus (GPa) = 56.57144 77.45121 67.01132
# Shear Modulus (GPa) = 17.80438 -4.94223 6.43108
#
# Velocity S-wave (km/s) = 2.99210 -1.57643 1.79827
# Velocity P-wave (km/s) = 6.35476 5.96922 6.16500
#
# Compressibility (1/GPa) = 0.01767676
#
# Stress axis : x y z
#
# Youngs Moduli (GPa) = 50.02312 50.02311 81.82398
#
# Poissons Ratio (x) = 0.10884 0.61725
# Poissons Ratio (y) = 0.10884 0.61725
# Poissons Ratio (z) = 0.37735 0.37735
#
# Static dielectric constant tensor:
#      x y z
#    x 1.733340 0.000000 0.000000 
#    y 0.000000 1.733340 0.000000 
#    z 0.000000 0.000000 1.656640 
# 
# From -- ./inp_files/5229.got.cif
#   From: 2010.05.17/outbox.cif.g08.bks.cpg/sg115_3_cif.got.tgz:5229.got - 2010.05.20 11:07:42.
