data_PCOD9556595
_publ_section_title
;
Structure prediction by ZEFSAII (Michael W. Deem and Ramdas Pophale) SiO2 
 PCOD9556595
Probable space group: P -4 M 2
;
_chemical_formula_sum "Si O2"
_cell_formula_units_Z 48
_cell_length_a 7.891782
_cell_length_b 7.891782
_cell_length_c 36.402151
_cell_angle_alpha 90.000000
_cell_angle_beta 90.000000
_cell_angle_gamma 90.000000
_cell_volume 2267.134087
_symmetry_space_group_name_H-M "P -4 M 2"
_symmetry_group_IT_number 115
_symmetry_cell_setting 'tetragonal'
loop_
_space_group_symop_operation_xyz
x,y,z
y,-x,-z
-x,-y,z
-y,x,-z
y,x,-z
-y,-x,-z
-x,y,z
x,-y,z
loop_
_atom_site_type_symbol
_atom_site_label
_atom_site_fract_x
_atom_site_fract_y
_atom_site_fract_z
Si Si1 0.203398 0.703737 0.617811
Si Si2 0.292928 0.314712 0.883481
Si Si3 0.694797 0.802954 0.960893
Si Si4 0.297803 0.808634 0.460296
Si Si5 0.707944 0.000000 0.834401
Si Si6 0.000000 0.701742 0.249287
Si Si7 0.304721 0.204234 0.302194
O O1 0.226086 0.500000 0.619684
O O2 0.271444 0.765751 0.578233
O O3 0.266430 0.761374 0.657671
O O4 0.000000 0.734887 0.616094
O O5 0.500000 0.305044 0.885401
O O6 0.246355 0.500000 0.869637
O O7 0.232932 0.291864 0.925493
O O8 0.236869 0.165033 0.857006
O O9 0.500000 0.747213 0.966472
O O10 0.693624 0.000000 0.950452
O O11 0.782083 0.782083 0.000000
O O12 0.269832 0.730169 0.500000
O O13 0.500000 0.817347 0.455591
O O14 0.229981 0.000000 0.462632
O O15 0.767359 0.000000 0.792463
O O16 0.500000 0.000000 0.834206
O O17 0.831091 0.753202 0.271265
O O18 0.000000 0.500000 0.247266
O O19 0.500000 0.263032 0.295745
O O20 0.313144 0.000000 0.304887
#
# Coordination Sequence:
#
# PCOD9556595 Si02
#       7
#     8   8   8   8   4   4   8
#     4   7  12  27  51  72  90 123 172 219 259 304
#     4   9  16  29  51  75 102 140 186 232 273 323
#     4  10  19  31  49  75 107 138 176 227 274 322
#     4   9  17  30  47  68  96 128 164 207 254 307
#     4   9  18  33  49  73 111 149 183 221 279 349
#     4  11  23  35  53  85 123 151 177 229 297 363
#     4   9  18  36  61  82 103 140 191 238 279 335
#
# _framework density 21.172104999999998
#
# number of rings (size 3 to 8) (size 9 to 14) (size 15 to 20)
#    0.000    3.000    0.833    2.750    0.000    2.333 
#    1.500    2.500    0.000    5.000    0.000    2.333 
#    0.000    0.000    0.000    0.000    0.000    0.000 
#
# Total GULP energy -267452.956692 kJ/mol
# GULP energy per Si atom -5571.936598 kJ/mol
# Density = 2.112392 g / cm^3
# Si number density = 21.172105 Si / 1000 Ang^3
#
#
#
# Elastic Constant Matrix: (Units=GPa)
#
#
# Indices 1 2 3 4 5 6 
#
# 1 56.5926 12.4539 46.4741 0.0000 0.0000 0.0000
# 2 12.4539 56.5929 46.4744 0.0000 0.0000 0.0000
# 3 46.4741 46.4744 199.5606 0.0000 0.0000 0.0000
# 4 0.0000 0.0000 0.0000 20.8636 0.0000 0.0000
# 5 0.0000 0.0000 0.0000 0.0000 20.8636 0.0000
# 6 0.0000 0.0000 0.0000 0.0000 0.0000 12.8871
#
#
#
# Elastic Compliance Matrix: (Units=1/GPa)
#
#
# Indices 1 2 3 4 5 6 
#
# 1 0.021876 -0.000780 -0.004913 0.000000 0.000000 0.000000
# 2 -0.000780 0.021876 -0.004913 0.000000 0.000000 0.000000
# 3 -0.004913 -0.004913 0.007299 0.000000 0.000000 0.000000
# 4 0.000000 0.000000 0.000000 0.047930 0.000000 0.000000
# 5 0.000000 0.000000 0.000000 0.000000 0.047930 0.000000
# 6 0.000000 0.000000 0.000000 0.000000 0.000000 0.077597
#
#
# Mechanical properties :
#
#
# Convention : Reuss Voigt Hill
#
# Bulk Modulus (GPa) = 33.51140 58.17232 45.84186
# Shear Modulus (GPa) = 19.55666 24.74579 22.15123
#
# Velocity S-wave (km/s) = 3.04254 3.42247 3.23808
# Velocity P-wave (km/s) = 5.31085 6.56912 5.97321
#
# Compressibility (1/GPa) = 0.02984060
#
# Stress axis : x y z
#
# Youngs Moduli (GPa) = 45.71153 45.71168 136.99846
#
# Poissons Ratio (x) = 0.03563 0.67308
# Poissons Ratio (y) = 0.03563 0.67309
# Poissons Ratio (z) = 0.22458 0.22459
#
# Static dielectric constant tensor:
#      x y z
#    x 1.789190 0.000000 0.000000 
#    y 0.000000 1.789190 0.000000 
#    z 0.000000 0.000000 1.794770 
# 
# From -- ./inp_files/6238.got.cif
#   From: 2010.05.17/outbox.cif.g08.bks.cpg/sg115_4_cif.got.tgz:6238.got - 2010.05.20 11:07:42.
