data_PCOD9556309
_publ_section_title
;
Structure prediction by ZEFSAII (Michael W. Deem and Ramdas Pophale) SiO2 
 PCOD9556309
Probable space group: P -4 21 C
;
_chemical_formula_sum "Si O2"
_cell_formula_units_Z 26
_cell_length_a 10.912640
_cell_length_b 10.912640
_cell_length_c 9.256537
_cell_angle_alpha 90.000000
_cell_angle_beta 90.000000
_cell_angle_gamma 90.000000
_cell_volume 1102.321297
_symmetry_space_group_name_H-M "P -4 21 C"
_symmetry_group_IT_number 114
_symmetry_cell_setting 'tetragonal'
loop_
_space_group_symop_operation_xyz
x,y,z
y,-x,-z
-x,-y,z
-y,x,-z
1/2+x,1/2-y,1/2-z
1/2-x,1/2+y,1/2-z
1/2-y,1/2-x,1/2+z
1/2+y,1/2+x,1/2+z
loop_
_atom_site_type_symbol
_atom_site_label
_atom_site_fract_x
_atom_site_fract_y
_atom_site_fract_z
Si Si1 0.608948 0.906897 0.591584
Si Si2 0.714883 0.459316 0.176936
Si Si3 0.500000 0.500000 0.500000
Si Si4 0.338731 0.541859 0.763559
O O1 0.563154 0.782183 0.668996
O O2 0.695579 0.960567 0.717905
O O3 0.500000 0.000000 0.562321
O O4 0.698253 0.913682 0.452233
O O5 0.665413 0.599857 0.170422
O O6 0.610620 0.584782 0.829490
O O7 0.389293 0.538435 0.602362
#
# Coordination Sequence:
#
# PCOD9556309 Si02
#       4
#     8   8   2   8
#     4  12  26  44  74 112 150 195 257 320 377 443
#     4  10  25  48  74 105 153 201 249 310 385 453
#     4   8  20  44  82 108 140 204 258 296 392 464
#     4  10  24  49  77 105 152 207 248 311 397 453
#
# _framework density 23.586590000000001
#
# number of rings (size 3 to 8) (size 9 to 14) (size 15 to 20)
#    0.000    1.846    0.000    2.769   12.923    4.923 
#    5.538    0.000    0.000    0.000    0.000    0.000 
#    0.000    0.000    0.000    0.000    0.000    0.000 
#
# Total GULP energy -145126.235887 kJ/mol
# GULP energy per Si atom -5581.778303 kJ/mol
# Density = 2.353291 g / cm^3
# Si number density = 23.586590 Si / 1000 Ang^3
#
#
#
# Elastic Constant Matrix: (Units=GPa)
#
#
# Indices 1 2 3 4 5 6 
#
# 1 119.2254 40.1803 48.2120 0.0000 0.0000 0.0000
# 2 40.1803 119.2254 48.2120 0.0000 0.0000 0.0000
# 3 48.2120 48.2120 162.2566 0.0000 0.0000 0.0000
# 4 0.0000 0.0000 0.0000 44.1377 0.0000 0.0000
# 5 0.0000 0.0000 0.0000 0.0000 44.1377 0.0000
# 6 0.0000 0.0000 0.0000 0.0000 0.0000 28.8214
#
#
#
# Elastic Compliance Matrix: (Units=1/GPa)
#
#
# Indices 1 2 3 4 5 6 
#
# 1 0.010149 -0.002502 -0.002272 0.000000 0.000000 0.000000
# 2 -0.002502 0.010149 -0.002272 0.000000 0.000000 0.000000
# 3 -0.002272 -0.002272 0.007514 0.000000 0.000000 0.000000
# 4 0.000000 0.000000 0.000000 0.022656 0.000000 0.000000
# 5 0.000000 0.000000 0.000000 0.000000 0.022656 0.000000
# 6 0.000000 0.000000 0.000000 0.000000 0.000000 0.034696
#
#
# Mechanical properties :
#
#
# Convention : Reuss Voigt Hill
#
# Bulk Modulus (GPa) = 72.88888 74.87955 73.88422
# Shear Modulus (GPa) = 39.52956 41.02625 40.27791
#
# Velocity S-wave (km/s) = 4.09826 4.17512 4.13687
# Velocity P-wave (km/s) = 7.30507 7.42009 7.36281
#
# Compressibility (1/GPa) = 0.01371951
#
# Stress axis : x y z
#
# Youngs Moduli (GPa) = 98.52744 98.52744 133.09336
#
# Poissons Ratio (x) = 0.24647 0.30245
# Poissons Ratio (y) = 0.24647 0.30245
# Poissons Ratio (z) = 0.22390 0.22390
#
# Static dielectric constant tensor:
#      x y z
#    x 1.894250 0.000000 0.000000 
#    y 0.000000 1.894250 0.000000 
#    z 0.000000 0.000000 2.010270 
# 
# From -- ./inp_files/519.got.cif
#   From: 2010.05.17/outbox.cif.g08.bks.cpg/sg114_1_cif.got.tgz:519.got - 2010.05.20 11:04:54.
