data_PCOD9556030
_publ_section_title
;
Structure prediction by ZEFSAII (Michael W. Deem and Ramdas Pophale) SiO2 
 PCOD9556030
Probable space group: P -4 21 C
;
_chemical_formula_sum "Si O2"
_cell_formula_units_Z 60
_cell_length_a 12.189711
_cell_length_b 12.189711
_cell_length_c 18.599734
_cell_angle_alpha 90.000000
_cell_angle_beta 90.000000
_cell_angle_gamma 90.000000
_cell_volume 2763.716885
_symmetry_space_group_name_H-M "P -4 21 C"
_symmetry_group_IT_number 114
_symmetry_cell_setting 'tetragonal'
loop_
_space_group_symop_operation_xyz
x,y,z
y,-x,-z
-x,-y,z
-y,x,-z
1/2+x,1/2-y,1/2-z
1/2-x,1/2+y,1/2-z
1/2-y,1/2-x,1/2+z
1/2+y,1/2+x,1/2+z
loop_
_atom_site_type_symbol
_atom_site_label
_atom_site_fract_x
_atom_site_fract_y
_atom_site_fract_z
Si Si1 0.454155 0.739641 0.045383
Si Si2 0.424659 0.336750 0.489783
Si Si3 0.132118 0.618693 0.748930
Si Si4 0.773470 0.084709 0.389583
Si Si5 0.500000 0.500000 0.892622
Si Si6 0.761414 0.767833 0.867457
Si Si7 0.665767 0.824935 0.095835
Si Si8 0.622103 0.127700 0.754607
O O1 0.480071 0.612413 0.064053
O O2 0.332539 0.752076 0.077025
O O3 0.534680 0.826229 0.084726
O O4 0.479313 0.758965 0.961425
O O5 0.365061 0.447302 0.518049
O O6 0.367576 0.309812 0.413861
O O7 0.404518 0.238190 0.546832
O O8 0.156952 0.682662 0.675163
O O9 0.173982 0.683343 0.818659
O O10 0.176924 0.493287 0.745314
O O11 0.004306 0.612189 0.764577
O O12 0.883125 0.029345 0.355080
O O13 0.805006 0.201137 0.425080
O O14 0.679818 0.112508 0.333530
O O15 0.828986 0.713985 0.801717
#
# Coordination Sequence:
#
# PCOD9556030 Si02
#       8
#     8   8   8   8   4   8   8   8
#     4  11  22  39  68 101 139 175 225 286 342 411
#     4  11  27  49  71  97 134 182 239 293 346 421
#     4  11  25  42  66  95 141 179 220 283 349 411
#     4  11  21  39  65  99 134 173 222 283 343 407
#     4  10  21  36  64 102 138 170 223 286 345 398
#     4  12  24  43  71 100 133 184 232 279 347 423
#     4  11  22  43  70  97 134 179 223 287 347 409
#     4  11  25  44  62  98 140 177 224 283 347 414
#
# _framework density 21.709894999999999
#
# number of rings (size 3 to 8) (size 9 to 14) (size 15 to 20)
#    0.000    0.933    4.000    3.600    3.733    0.000 
#    0.000    2.667    0.000    0.000    0.000    0.000 
#    0.000    0.000    0.000    0.000    0.000    0.000 
#
# Total GULP energy -334490.810713 kJ/mol
# GULP energy per Si atom -5574.846845 kJ/mol
# Density = 2.166048 g / cm^3
# Si number density = 21.709895 Si / 1000 Ang^3
#
#
#
# Elastic Constant Matrix: (Units=GPa)
#
#
# Indices 1 2 3 4 5 6 
#
# 1 62.6343 9.5814 24.1920 0.0000 0.0000 0.0000
# 2 9.5814 62.6343 24.1920 0.0000 0.0000 0.0000
# 3 24.1920 24.1920 99.2180 0.0000 0.0000 0.0000
# 4 0.0000 0.0000 0.0000 20.4953 0.0000 0.0000
# 5 0.0000 0.0000 0.0000 0.0000 20.4953 0.0000
# 6 0.0000 0.0000 0.0000 0.0000 0.0000 30.6881
#
#
#
# Elastic Compliance Matrix: (Units=1/GPa)
#
#
# Indices 1 2 3 4 5 6 
#
# 1 0.017700 -0.001149 -0.004036 0.000000 0.000000 0.000000
# 2 -0.001149 0.017700 -0.004036 0.000000 0.000000 0.000000
# 3 -0.004036 -0.004036 0.012047 0.000000 0.000000 0.000000
# 4 0.000000 0.000000 0.000000 0.048792 0.000000 0.000000
# 5 0.000000 0.000000 0.000000 0.000000 0.048792 0.000000
# 6 0.000000 0.000000 0.000000 0.000000 0.000000 0.032586
#
#
# Mechanical properties :
#
#
# Convention : Reuss Voigt Hill
#
# Bulk Modulus (GPa) = 34.47470 37.82413 36.14941
# Shear Modulus (GPa) = 24.30422 25.43717 24.87070
#
# Velocity S-wave (km/s) = 3.34952 3.42670 3.38833
# Velocity P-wave (km/s) = 5.55637 5.75471 5.65641
#
# Compressibility (1/GPa) = 0.02900678
#
# Stress axis : x y z
#
# Youngs Moduli (GPa) = 56.49658 56.49658 83.00955
#
# Poissons Ratio (x) = 0.06491 0.33500
# Poissons Ratio (y) = 0.06491 0.33500
# Poissons Ratio (z) = 0.22800 0.22800
#
# Static dielectric constant tensor:
#      x y z
#    x 1.870580 0.000000 0.000000 
#    y 0.000000 1.870580 0.000000 
#    z 0.000000 0.000000 1.772940 
# 
# From -- ./inp_files/3232.got.cif
#   From: 2010.05.17/outbox.cif.g08.bks.cpg/sg114_2_cif.got.tgz:3232.got - 2010.05.20 11:04:54.
