data_PCOD9556906
_publ_section_title
;
Structure prediction by ZEFSAII (Michael W. Deem and Ramdas Pophale) SiO2 
 PCOD9556906
Probable space group: P -4 M 2
;
_chemical_formula_sum "Si O2"
_cell_formula_units_Z 44
_cell_length_a 7.964950
_cell_length_b 7.964950
_cell_length_c 33.457837
_cell_angle_alpha 90.000000
_cell_angle_beta 90.000000
_cell_angle_gamma 90.000000
_cell_volume 2122.579516
_symmetry_space_group_name_H-M "P -4 M 2"
_symmetry_group_IT_number 115
_symmetry_cell_setting 'tetragonal'
loop_
_space_group_symop_operation_xyz
x,y,z
y,-x,-z
-x,-y,z
-y,x,-z
y,x,-z
-y,-x,-z
-x,y,z
x,-y,z
loop_
_atom_site_type_symbol
_atom_site_label
_atom_site_fract_x
_atom_site_fract_y
_atom_site_fract_z
Si Si1 0.698182 0.682835 0.701078
Si Si2 0.292753 0.000000 0.650972
Si Si3 0.299469 0.310688 0.041987
Si Si4 0.796745 0.801580 0.213038
Si Si5 0.000000 0.702194 0.440261
Si Si6 0.799990 0.810895 0.872742
Si Si7 0.700015 0.700015 0.500000
O O1 0.500000 0.675762 0.692337
O O2 0.772316 0.500000 0.692317
O O3 0.716897 0.722516 0.747966
O O4 0.766312 0.835989 0.674991
O O5 0.235986 0.000000 0.605158
O O6 0.500000 0.000000 0.651625
O O7 0.500000 0.317600 0.035991
O O8 0.232661 0.500000 0.046117
O O9 0.271962 0.227662 0.084612
O O10 0.233897 0.233897 0.000000
O O11 0.736237 0.737711 0.169418
O O12 0.000000 0.783090 0.213265
O O13 0.759042 0.000000 0.216610
O O14 0.830119 0.744481 0.464551
O O15 0.000000 0.500000 0.437897
O O16 0.000000 0.820881 0.867135
O O17 0.732161 0.000000 0.876032
O O18 0.722082 0.500000 0.509542
#
# Coordination Sequence:
#
# PCOD9556906 Si02
#       7
#     8   4   8   8   4   8   4
#     4  10  20  33  53  81 109 142 186 230 274 329
#     4   9  18  34  54  80 114 149 185 229 280 329
#     4   9  19  35  51  68  95 129 162 202 254 310
#     4   9  18  34  54  72  99 139 176 215 267 325
#     4   9  18  33  57  85 114 151 191 236 289 339
#     4   9  19  34  51  74  99 126 165 209 254 309
#     4   9  18  33  56  86 116 151 198 245 292 348
#
# _framework density 20.729495
#
# number of rings (size 3 to 8) (size 9 to 14) (size 15 to 20)
#    0.000    2.818    0.909    1.636    0.000    4.182 
#    0.000   11.818    4.000    0.000    0.000    0.000 
#    0.000    0.000    0.000    0.000    0.000    0.000 
#
# Total GULP energy -245111.477986 kJ/mol
# GULP energy per Si atom -5570.715409 kJ/mol
# Density = 2.068231 g / cm^3
# Si number density = 20.729495 Si / 1000 Ang^3
#
#
#
# Elastic Constant Matrix: (Units=GPa)
#
#
# Indices 1 2 3 4 5 6 
#
# 1 53.0251 20.1922 49.3263 0.0000 0.0000 0.0000
# 2 20.1922 53.0251 49.3263 0.0000 0.0000 0.0000
# 3 49.3263 49.3263 192.6222 0.0000 0.0000 0.0000
# 4 0.0000 0.0000 0.0000 16.4809 0.0000 0.0000
# 5 0.0000 0.0000 0.0000 0.0000 16.4809 0.0000
# 6 0.0000 0.0000 0.0000 0.0000 0.0000 11.7658
#
#
#
# Elastic Compliance Matrix: (Units=1/GPa)
#
#
# Indices 1 2 3 4 5 6 
#
# 1 0.025655 -0.004802 -0.005340 0.000000 0.000000 0.000000
# 2 -0.004802 0.025655 -0.005340 0.000000 0.000000 0.000000
# 3 -0.005340 -0.005340 0.007926 0.000000 0.000000 0.000000
# 4 0.000000 0.000000 0.000000 0.060676 0.000000 0.000000
# 5 0.000000 0.000000 0.000000 0.000000 0.060676 0.000000
# 6 0.000000 0.000000 0.000000 0.000000 0.000000 0.084992
#
#
# Mechanical properties :
#
#
# Convention : Reuss Voigt Hill
#
# Bulk Modulus (GPa) = 35.37004 59.59578 47.48291
# Shear Modulus (GPa) = 16.34148 20.93403 18.63776
#
# Velocity S-wave (km/s) = 2.81075 3.18129 3.00174
# Velocity P-wave (km/s) = 5.25675 6.50429 5.91351
#
# Compressibility (1/GPa) = 0.02827251
#
# Stress axis : x y z
#
# Youngs Moduli (GPa) = 38.97850 38.97850 126.16024
#
# Poissons Ratio (x) = 0.18718 0.67370
# Poissons Ratio (y) = 0.18718 0.67370
# Poissons Ratio (z) = 0.20815 0.20815
#
# Static dielectric constant tensor:
#      x y z
#    x 1.751820 0.000000 0.000000 
#    y 0.000000 1.751820 0.000000 
#    z 0.000000 0.000000 1.755970 
# 
# From -- ./inp_files/5875.got.cif
#   From: 2010.05.17/outbox.cif.g08.bks.cpg/sg115_3_cif.got.tgz:5875.got - 2010.05.20 11:07:42.
