data_PCOD9556216
_publ_section_title
;
Structure prediction by ZEFSAII (Michael W. Deem and Ramdas Pophale) SiO2 
 PCOD9556216
Probable space group: P -4 21 C
;
_chemical_formula_sum "Si O2"
_cell_formula_units_Z 60
_cell_length_a 17.851948
_cell_length_b 17.851948
_cell_length_c 8.843364
_cell_angle_alpha 90.000000
_cell_angle_beta 90.000000
_cell_angle_gamma 90.000000
_cell_volume 2818.309779
_symmetry_space_group_name_H-M "P -4 21 C"
_symmetry_group_IT_number 114
_symmetry_cell_setting 'tetragonal'
loop_
_space_group_symop_operation_xyz
x,y,z
y,-x,-z
-x,-y,z
-y,x,-z
1/2+x,1/2-y,1/2-z
1/2-x,1/2+y,1/2-z
1/2-y,1/2-x,1/2+z
1/2+y,1/2+x,1/2+z
loop_
_atom_site_type_symbol
_atom_site_label
_atom_site_fract_x
_atom_site_fract_y
_atom_site_fract_z
Si Si1 0.644464 0.964100 0.510238
Si Si2 0.609398 0.105352 0.669348
Si Si3 0.759355 0.871835 0.331716
Si Si4 0.810028 0.236796 0.001194
Si Si5 0.051626 0.885732 0.499623
Si Si6 0.000000 0.500000 0.138012
Si Si7 0.058601 0.758806 0.241467
Si Si8 0.220073 0.408198 0.572424
O O1 0.696656 0.932261 0.379540
O O2 0.558129 0.952837 0.464623
O O3 0.681389 0.932275 0.663119
O O4 0.649708 0.052569 0.544369
O O5 0.552632 0.051281 0.758754
O O6 0.571066 0.169213 0.571873
O O7 0.670288 0.128750 0.792851
O O8 0.747294 0.844609 0.162554
O O9 0.747725 0.800753 0.443923
O O10 0.839882 0.909266 0.364066
O O11 0.774339 0.155387 0.986897
O O12 0.874112 0.235745 0.126194
O O13 0.056465 0.827381 0.359793
O O14 0.964484 0.906192 0.528119
O O15 0.981261 0.754888 0.148779
#
# Coordination Sequence:
#
# PCOD9556216 Si02
#       8
#     8   8   8   8   8   4   8   8
#     4  10  24  43  63  98 137 180 221 280 333 415
#     4  11  24  40  66  98 137 184 224 279 335 435
#     4  11  25  42  71 101 139 189 230 294 351 424
#     4  12  26  45  67  99 140 182 237 292 350 428
#     4  10  22  46  76 104 136 181 238 303 361 415
#     4  12  24  40  68 102 138 180 226 268 340 422
#     4  10  25  46  69 101 138 180 241 291 354 430
#     4  11  25  45  67  97 139 185 231 289 352 410
#
# _framework density 21.289358
#
# number of rings (size 3 to 8) (size 9 to 14) (size 15 to 20)
#    0.000    1.200    1.333    3.600    7.467    3.200 
#    2.400    0.000    0.000    1.600    0.000    0.000 
#    0.000    0.000    0.000    0.000    0.000    0.000 
#
# Total GULP energy -335432.570536 kJ/mol
# GULP energy per Si atom -5590.542842 kJ/mol
# Density = 2.124090 g / cm^3
# Si number density = 21.289358 Si / 1000 Ang^3
#
#
#
# Elastic Constant Matrix: (Units=GPa)
#
#
# Indices 1 2 3 4 5 6 
#
# 1 102.3512 58.0304 57.5913 0.0000 0.0000 0.0000
# 2 58.0304 102.3512 57.5913 0.0000 0.0000 0.0000
# 3 57.5913 57.5913 116.9254 0.0000 0.0000 0.0000
# 4 0.0000 0.0000 0.0000 35.4543 0.0000 0.0000
# 5 0.0000 0.0000 0.0000 0.0000 35.4543 0.0000
# 6 0.0000 0.0000 0.0000 0.0000 0.0000 32.3893
#
#
#
# Elastic Compliance Matrix: (Units=1/GPa)
#
#
# Indices 1 2 3 4 5 6 
#
# 1 0.016105 -0.006457 -0.004752 0.000000 0.000000 0.000000
# 2 -0.006457 0.016105 -0.004752 0.000000 0.000000 0.000000
# 3 -0.004752 -0.004752 0.013234 0.000000 0.000000 0.000000
# 4 0.000000 0.000000 0.000000 0.028205 0.000000 0.000000
# 5 0.000000 0.000000 0.000000 0.000000 0.028205 0.000000
# 6 0.000000 0.000000 0.000000 0.000000 0.000000 0.030874
#
#
# Mechanical properties :
#
#
# Convention : Reuss Voigt Hill
#
# Bulk Modulus (GPa) = 73.95722 74.22817 74.09269
# Shear Modulus (GPa) = 29.55786 30.55390 30.05588
#
# Velocity S-wave (km/s) = 3.73015 3.79248 3.76144
# Velocity P-wave (km/s) = 7.30524 7.35657 7.33095
#
# Compressibility (1/GPa) = 0.01352133
#
# Stress axis : x y z
#
# Youngs Moduli (GPa) = 62.09107 62.09107 75.56463
#
# Poissons Ratio (x) = 0.40095 0.35909
# Poissons Ratio (y) = 0.40095 0.35909
# Poissons Ratio (z) = 0.29506 0.29506
#
# Static dielectric constant tensor:
#      x y z
#    x 1.790040 0.000000 0.000000 
#    y 0.000000 1.790040 0.000000 
#    z 0.000000 0.000000 1.797830 
# 
# From -- ./inp_files/1036.got.cif
#   From: 2010.05.17/outbox.cif.g08.bks.cpg/sg114_1_cif.got.tgz:1036.got - 2010.05.20 11:04:54.
