data_PCOD9556581
_publ_section_title
;
Structure prediction by ZEFSAII (Michael W. Deem and Ramdas Pophale) SiO2 
 PCOD9556581
Probable space group: P -4 M 2
;
_chemical_formula_sum "Si O2"
_cell_formula_units_Z 64
_cell_length_a 13.806268
_cell_length_b 13.806268
_cell_length_c 20.857336
_cell_angle_alpha 90.000000
_cell_angle_beta 90.000000
_cell_angle_gamma 90.000000
_cell_volume 3975.680140
_symmetry_space_group_name_H-M "P -4 M 2"
_symmetry_group_IT_number 115
_symmetry_cell_setting 'tetragonal'
loop_
_space_group_symop_operation_xyz
x,y,z
y,-x,-z
-x,-y,z
-y,x,-z
y,x,-z
-y,-x,-z
-x,y,z
x,-y,z
loop_
_atom_site_type_symbol
_atom_site_label
_atom_site_fract_x
_atom_site_fract_y
_atom_site_fract_z
Si Si1 0.615556 0.776928 0.500000
Si Si2 0.115480 0.725499 0.613132
Si Si3 0.615609 0.228736 0.126107
Si Si4 0.387084 0.885751 0.255420
Si Si5 0.228735 0.384391 0.126107
Si Si6 0.725499 0.115480 0.613132
Si Si7 0.387084 0.885751 0.744580
Si Si8 0.889644 0.382181 1.000000
O O1 0.676034 0.676034 0.500000
O O2 0.500000 0.764365 0.500000
O O3 0.652586 0.837976 0.438670
O O4 0.652586 0.837976 0.561330
O O5 0.132743 0.680001 0.683420
O O6 0.173942 0.826058 0.606858
O O7 0.000000 0.735411 0.603404
O O8 0.500000 0.239822 0.123311
O O9 0.639243 0.174239 0.192360
O O10 0.670031 0.329969 0.124146
O O11 0.646634 0.165882 0.064520
O O12 0.500000 0.864881 0.271549
O O13 0.381389 0.000000 0.240106
O O14 0.239821 0.500000 0.123311
O O15 0.174239 0.360757 0.192360
O O16 0.165882 0.353366 0.064520
O O17 0.680001 0.132743 0.683420
O O18 0.735411 0.000000 0.603404
O O19 0.500000 0.864881 0.728451
O O20 0.381389 0.000000 0.759893
O O21 0.892123 0.500000 1.000000
O O22 0.000000 0.347712 1.000000
#
# Coordination Sequence:
#
# PCOD9556581 Si02
#       8
#     8   8   8   8   8   8   8   8
#     4  10  21  36  54  76 100 126 159 198 240 288
#     4  10  20  33  50  73 100 130 164 201 241 286
#     4  10  19  30  45  66  94 125 154 186 225 273
#     4   9  17  30  49  71  93 120 157 201 244 280
#     4  10  19  30  45  66  94 125 154 186 225 273
#     4  10  20  33  50  73 100 130 164 201 241 286
#     4   9  17  30  49  71  93 120 157 201 244 280
#     4   9  17  30  47  65  85 111 147 191 233 268
#
# _framework density 16.097875999999999
#
# number of rings (size 3 to 8) (size 9 to 14) (size 15 to 20)
#    0.000    2.375    0.000    3.000    0.000    5.625 
#    0.000    0.000    0.000    4.500    0.000    3.500 
#    0.000   19.000    0.000    0.000    0.000    0.000 
#
# Total GULP energy -356852.351668 kJ/mol
# GULP energy per Si atom -5575.817995 kJ/mol
# Density = 1.606124 g / cm^3
# Si number density = 16.097876 Si / 1000 Ang^3
#
#
#
# Elastic Constant Matrix: (Units=GPa)
#
#
# Indices 1 2 3 4 5 6 
#
# 1 90.3480 60.1105 59.5062 0.0000 0.0000 0.0000
# 2 60.1105 90.3480 59.5062 0.0000 0.0000 0.0000
# 3 59.5062 59.5062 115.9482 0.0000 0.0000 0.0000
# 4 0.0000 0.0000 0.0000 17.5223 0.0000 0.0000
# 5 0.0000 0.0000 0.0000 0.0000 17.5223 0.0000
# 6 0.0000 0.0000 0.0000 0.0000 0.0000 18.5593
#
#
#
# Elastic Compliance Matrix: (Units=1/GPa)
#
#
# Indices 1 2 3 4 5 6 
#
# 1 0.022130 -0.010942 -0.005742 0.000000 0.000000 0.000000
# 2 -0.010942 0.022130 -0.005742 0.000000 0.000000 0.000000
# 3 -0.005742 -0.005742 0.014518 0.000000 0.000000 0.000000
# 4 0.000000 0.000000 0.000000 0.057070 0.000000 0.000000
# 5 0.000000 0.000000 0.000000 0.000000 0.057070 0.000000
# 6 0.000000 0.000000 0.000000 0.000000 0.000000 0.053881
#
#
# Mechanical properties :
#
#
# Convention : Reuss Voigt Hill
#
# Bulk Modulus (GPa) = 71.80356 72.76554 72.28455
# Shear Modulus (GPa) = 18.09675 18.55554 18.32615
#
# Velocity S-wave (km/s) = 3.35650 3.39878 3.37771
# Velocity P-wave (km/s) = 7.72804 7.79117 7.75967
#
# Compressibility (1/GPa) = 0.01392689
#
# Stress axis : x y z
#
# Youngs Moduli (GPa) = 45.18781 45.18781 68.87890
#
# Poissons Ratio (x) = 0.49443 0.39550
# Poissons Ratio (y) = 0.49443 0.39550
# Poissons Ratio (z) = 0.25947 0.25947
#
# Static dielectric constant tensor:
#      x y z
#    x 1.518430 0.000000 0.000000 
#    y 0.000000 1.518430 0.000000 
#    z 0.000000 0.000000 1.539480 
# 
# From -- ./inp_files/5410.got.cif
#   From: 2010.05.17/outbox.cif.g08.bks.cpg/sg115_3_cif.got.tgz:5410.got - 2010.05.20 11:07:42.
