data_PCOD9556129
_publ_section_title
;
Structure prediction by ZEFSAII (Michael W. Deem and Ramdas Pophale) SiO2 
 PCOD9556129
Probable space group: P -4 21 C
;
_chemical_formula_sum "Si O2"
_cell_formula_units_Z 40
_cell_length_a 9.303801
_cell_length_b 9.303801
_cell_length_c 20.680610
_cell_angle_alpha 90.000000
_cell_angle_beta 90.000000
_cell_angle_gamma 90.000000
_cell_volume 1790.128348
_symmetry_space_group_name_H-M "P -4 21 C"
_symmetry_group_IT_number 114
_symmetry_cell_setting 'tetragonal'
loop_
_space_group_symop_operation_xyz
x,y,z
y,-x,-z
-x,-y,z
-y,x,-z
1/2+x,1/2-y,1/2-z
1/2-x,1/2+y,1/2-z
1/2-y,1/2-x,1/2+z
1/2+y,1/2+x,1/2+z
loop_
_atom_site_type_symbol
_atom_site_label
_atom_site_fract_x
_atom_site_fract_y
_atom_site_fract_z
Si Si1 0.744042 0.165608 0.873020
Si Si2 0.540696 0.163767 0.979616
Si Si3 0.056876 0.762195 0.291821
Si Si4 0.000000 0.000000 0.808612
Si Si5 0.500000 0.000000 0.792173
Si Si6 0.364930 0.392106 0.901633
O O1 0.698389 0.163337 0.946991
O O2 0.737717 0.325617 0.847014
O O3 0.894097 0.095266 0.852386
O O4 0.612086 0.086593 0.836133
O O5 0.430413 0.243182 0.929521
O O6 0.500000 0.000000 0.991594
O O7 0.551105 0.255655 0.044375
O O8 0.079251 0.889680 0.240241
O O9 0.076399 0.612000 0.255519
O O10 0.906343 0.792296 0.330373
O O11 0.500000 0.500000 0.899352
#
# Coordination Sequence:
#
# PCOD9556129 Si02
#       6
#     8   8   8   4   4   8
#     4  11  21  41  64  94 144 184 223 287 357 424
#     4  12  24  43  69 100 134 178 230 294 354 410
#     4  11  21  40  68 101 131 180 235 288 343 425
#     4  10  22  38  62 103 143 178 224 292 364 422
#     4  10  24  38  60 106 136 176 226 278 356 420
#     4  12  22  45  75  97 128 178 241 289 337 422
#
# _framework density 22.344764999999999
#
# number of rings (size 3 to 8) (size 9 to 14) (size 15 to 20)
#    0.000    0.800    6.000    1.200    1.400    1.600 
#    3.600    0.000    0.000    0.000    0.000    0.000 
#    0.000    0.000    0.000    0.000    0.000    0.000 
#
# Total GULP energy -223483.262196 kJ/mol
# GULP energy per Si atom -5587.081555 kJ/mol
# Density = 2.229391 g / cm^3
# Si number density = 22.344765 Si / 1000 Ang^3
#
#
#
# Elastic Constant Matrix: (Units=GPa)
#
#
# Indices 1 2 3 4 5 6 
#
# 1 115.4145 16.5392 14.4996 0.0000 0.0000 0.0000
# 2 16.5392 115.4145 14.4996 0.0000 0.0000 0.0000
# 3 14.4996 14.4996 54.5382 0.0000 0.0000 0.0000
# 4 0.0000 0.0000 0.0000 66.8396 0.0000 0.0000
# 5 0.0000 0.0000 0.0000 0.0000 66.8396 0.0000
# 6 0.0000 0.0000 0.0000 0.0000 0.0000 22.7582
#
#
#
# Elastic Compliance Matrix: (Units=1/GPa)
#
#
# Indices 1 2 3 4 5 6 
#
# 1 0.009081 -0.001033 -0.002140 0.000000 0.000000 0.000000
# 2 -0.001033 0.009081 -0.002140 0.000000 0.000000 0.000000
# 3 -0.002140 -0.002140 0.019474 0.000000 0.000000 0.000000
# 4 0.000000 0.000000 0.000000 0.014961 0.000000 0.000000
# 5 0.000000 0.000000 0.000000 0.000000 0.014961 0.000000
# 6 0.000000 0.000000 0.000000 0.000000 0.000000 0.043940
#
#
# Mechanical properties :
#
#
# Convention : Reuss Voigt Hill
#
# Bulk Modulus (GPa) = 37.02113 41.82712 39.42412
# Shear Modulus (GPa) = 38.13103 47.27607 42.70355
#
# Velocity S-wave (km/s) = 4.13544 4.60472 4.37638
# Velocity P-wave (km/s) = 6.27747 6.85791 6.57410
#
# Compressibility (1/GPa) = 0.02701160
#
# Stress axis : x y z
#
# Youngs Moduli (GPa) = 110.11739 110.11739 51.35162
#
# Poissons Ratio (x) = 0.11370 0.10988
# Poissons Ratio (y) = 0.11370 0.10988
# Poissons Ratio (z) = 0.23563 0.23563
#
# Static dielectric constant tensor:
#      x y z
#    x 1.824740 0.000000 0.000000 
#    y 0.000000 1.824740 0.000000 
#    z 0.000000 0.000000 1.840110 
# 
# From -- ./inp_files/3446.got.cif
#   From: 2010.05.17/outbox.cif.g08.bks.cpg/sg114_2_cif.got.tgz:3446.got - 2010.05.20 11:04:54.
