data_PCOD9556493
_publ_section_title
;
Structure prediction by ZEFSAII (Michael W. Deem and Ramdas Pophale) SiO2 
 PCOD9556493
Probable space group: P -4 21 C
;
_chemical_formula_sum "Si O2"
_cell_formula_units_Z 16
_cell_length_a 8.674557
_cell_length_b 8.674557
_cell_length_c 8.040354
_cell_angle_alpha 90.000000
_cell_angle_beta 90.000000
_cell_angle_gamma 90.000000
_cell_volume 605.020069
_symmetry_space_group_name_H-M "P -4 21 C"
_symmetry_group_IT_number 114
_symmetry_cell_setting 'tetragonal'
loop_
_space_group_symop_operation_xyz
x,y,z
y,-x,-z
-x,-y,z
-y,x,-z
1/2+x,1/2-y,1/2-z
1/2-x,1/2+y,1/2-z
1/2-y,1/2-x,1/2+z
1/2+y,1/2+x,1/2+z
loop_
_atom_site_type_symbol
_atom_site_label
_atom_site_fract_x
_atom_site_fract_y
_atom_site_fract_z
Si Si1 0.564295 0.168010 0.958764
Si Si2 0.872549 0.121924 0.772034
O O1 0.744159 0.161682 0.907478
O O2 0.465921 0.235482 0.805433
O O3 0.500000 0.000000 0.995438
O O4 0.549014 0.278545 0.116931
O O5 0.000000 0.000000 0.824832
#
# Coordination Sequence:
#
# PCOD9556493 Si02
#       2
#     8   8
#     4  12  26  46  78 111 151 202 253 316 389 452
#     4  12  26  52  74 109 156 200 257 319 379 458
#
# _framework density 26.445401
#
# number of rings (size 3 to 8) (size 9 to 14) (size 15 to 20)
#    0.000    0.000    5.000    4.500    7.000    0.000 
#    0.000    2.500    0.000    0.000    0.000    0.000 
#    0.000    0.000    0.000    0.000    0.000    0.000 
#
# Total GULP energy -90054.159582 kJ/mol
# GULP energy per Si atom -5628.384974 kJ/mol
# Density = 2.638521 g / cm^3
# Si number density = 26.445401 Si / 1000 Ang^3
#
#
#
# Elastic Constant Matrix: (Units=GPa)
#
#
# Indices 1 2 3 4 5 6 
#
# 1 183.4934 66.0206 54.9366 0.0000 0.0000 0.0000
# 2 66.0206 183.4934 54.9366 0.0000 0.0000 0.0000
# 3 54.9366 54.9366 123.3149 0.0000 0.0000 0.0000
# 4 0.0000 0.0000 0.0000 30.8859 0.0000 0.0000
# 5 0.0000 0.0000 0.0000 0.0000 30.8859 0.0000
# 6 0.0000 0.0000 0.0000 0.0000 0.0000 67.2914
#
#
#
# Elastic Compliance Matrix: (Units=1/GPa)
#
#
# Indices 1 2 3 4 5 6 
#
# 1 0.006749 -0.001763 -0.002221 0.000000 0.000000 0.000000
# 2 -0.001763 0.006749 -0.002221 0.000000 0.000000 0.000000
# 3 -0.002221 -0.002221 0.010088 0.000000 0.000000 0.000000
# 4 0.000000 0.000000 0.000000 0.032377 0.000000 0.000000
# 5 0.000000 0.000000 0.000000 0.000000 0.032377 0.000000
# 6 0.000000 0.000000 0.000000 0.000000 0.000000 0.014861
#
#
# Mechanical properties :
#
#
# Convention : Reuss Voigt Hill
#
# Bulk Modulus (GPa) = 89.48251 93.56547 91.52399
# Shear Modulus (GPa) = 41.89749 46.77314 44.33531
#
# Velocity S-wave (km/s) = 3.98465 4.21012 4.09893
# Velocity P-wave (km/s) = 7.42159 7.68706 7.55549
#
# Compressibility (1/GPa) = 0.01117537
#
# Stress axis : x y z
#
# Youngs Moduli (GPa) = 148.16450 148.16450 99.12361
#
# Poissons Ratio (x) = 0.26127 0.22017
# Poissons Ratio (y) = 0.26127 0.22017
# Poissons Ratio (z) = 0.32910 0.32910
#
# Static dielectric constant tensor:
#      x y z
#    x 2.020830 0.000000 0.000000 
#    y 0.000000 2.020830 0.000000 
#    z 0.000000 0.000000 2.016030 
# 
# From -- ./inp_files/325.got.cif
#   From: 2010.05.17/outbox.cif.g08.bks.cpg/sg114_1_cif.got.tgz:325.got - 2010.05.20 11:04:54.
