data_PCOD9556671
_publ_section_title
;
Structure prediction by ZEFSAII (Michael W. Deem and Ramdas Pophale) SiO2 
 PCOD9556671
Probable space group: P -4 M 2
;
_chemical_formula_sum "Si O2"
_cell_formula_units_Z 56
_cell_length_a 14.634674
_cell_length_b 14.634674
_cell_length_c 13.092938
_cell_angle_alpha 90.000000
_cell_angle_beta 90.000000
_cell_angle_gamma 90.000000
_cell_volume 2804.162754
_symmetry_space_group_name_H-M "P -4 M 2"
_symmetry_group_IT_number 115
_symmetry_cell_setting 'tetragonal'
loop_
_space_group_symop_operation_xyz
x,y,z
y,-x,-z
-x,-y,z
-y,x,-z
y,x,-z
-y,-x,-z
-x,y,z
x,-y,z
loop_
_atom_site_type_symbol
_atom_site_label
_atom_site_fract_x
_atom_site_fract_y
_atom_site_fract_z
Si Si1 0.642442 0.896590 0.098802
Si Si2 0.106119 0.600726 0.667962
Si Si3 0.860223 0.898776 0.118877
Si Si4 0.389675 0.605962 0.787923
Si Si5 0.605304 0.217163 0.904330
Si Si6 0.724033 0.285275 0.617642
Si Si7 0.895458 0.274479 0.254055
O O1 0.598877 0.884987 0.209300
O O2 0.750683 0.891326 0.116929
O O3 0.621062 0.000000 0.061005
O O4 0.616521 0.820058 0.018112
O O5 0.131063 0.500000 0.627718
O O6 0.173252 0.678172 0.630521
O O7 0.000000 0.618390 0.645032
O O8 0.895793 0.823179 0.196428
O O9 0.886589 0.000000 0.152116
O O10 0.887375 0.887375 0.000000
O O11 0.500000 0.605568 0.774004
O O12 0.361843 0.500000 0.804565
O O13 0.367989 0.678177 0.878737
O O14 0.339076 0.652112 0.691328
O O15 0.500000 0.209973 0.875575
O O16 0.660902 0.148040 0.832850
O O17 0.700512 0.299489 0.500000
O O18 0.720822 0.180047 0.655942
O O19 0.000000 0.298012 0.281845
#
# Coordination Sequence:
#
# PCOD9556671 Si02
#       7
#     8   8   8   8   8   8   8
#     4  10  19  33  57  89 126 165 200 239 287 345
#     4  10  21  38  62  92 123 155 197 251 307 362
#     4  11  21  35  56  84 121 158 196 239 282 336
#     4   9  20  40  64  91 122 157 201 249 299 362
#     4  10  20  35  59  89 123 162 198 237 289 351
#     4  11  24  41  63  87 115 151 197 257 318 375
#     4  11  23  39  58  83 116 156 200 244 296 356
#
# _framework density 19.970309
#
# number of rings (size 3 to 8) (size 9 to 14) (size 15 to 20)
#    0.000    1.714    2.857    1.714    0.000    4.429 
#    0.000    0.714    0.000    0.857    0.000    3.000 
#    0.000    0.000    0.000    0.000    0.000    0.000 
#
# Total GULP energy -312756.597512 kJ/mol
# GULP energy per Si atom -5584.939241 kJ/mol
# Density = 1.992486 g / cm^3
# Si number density = 19.970309 Si / 1000 Ang^3
#
#
#
# Elastic Constant Matrix: (Units=GPa)
#
#
# Indices 1 2 3 4 5 6 
#
# 1 114.4057 33.5422 13.1293 0.0000 0.0000 0.0000
# 2 33.5422 114.4052 13.1292 0.0000 0.0000 0.0000
# 3 13.1293 13.1292 34.3737 0.0000 0.0000 0.0000
# 4 0.0000 0.0000 0.0000 6.1464 0.0000 0.0000
# 5 0.0000 0.0000 0.0000 0.0000 6.1469 0.0000
# 6 0.0000 0.0000 0.0000 0.0000 0.0000 -10.9959
#
#
#
# Elastic Compliance Matrix: (Units=1/GPa)
#
#
# Indices 1 2 3 4 5 6 
#
# 1 0.009809 -0.002558 -0.002769 0.000000 0.000000 0.000000
# 2 -0.002558 0.009809 -0.002769 0.000000 0.000000 0.000000
# 3 -0.002769 -0.002769 0.031208 0.000000 0.000000 0.000000
# 4 0.000000 0.000000 0.000000 0.162697 0.000000 0.000000
# 5 0.000000 0.000000 0.000000 0.000000 0.162684 0.000000
# 6 0.000000 0.000000 0.000000 0.000000 0.000000 -0.090943
#
#
# Mechanical properties :
#
#
# Convention : Reuss Voigt Hill
#
# Bulk Modulus (GPa) = 28.87568 42.53178 35.70373
# Shear Modulus (GPa) = 15.97442 13.81839 14.89641
#
# Velocity S-wave (km/s) = 2.83133 2.63334 2.73413
# Velocity P-wave (km/s) = 5.01790 5.53080 5.28058
#
# Compressibility (1/GPa) = 0.03463122
#
# Stress axis : x y z
#
# Youngs Moduli (GPa) = 101.95125 101.95091 32.04342
#
# Poissons Ratio (x) = 0.26078 0.08874
# Poissons Ratio (y) = 0.26079 0.08874
# Poissons Ratio (z) = 0.28235 0.28235
#
# Static dielectric constant tensor:
#      x y z
#    x 1.747350 0.000000 0.000000 
#    y 0.000000 1.747350 0.000000 
#    z 0.000000 0.000000 1.680340 
# 
# From -- ./inp_files/3083.got.cif
#   From: 2010.05.17/outbox.cif.g08.bks.cpg/sg115_2_cif.got.tgz:3083.got - 2010.05.20 11:07:42.
