data_PCOD9556504
_publ_section_title
;
Structure prediction by ZEFSAII (Michael W. Deem and Ramdas Pophale) SiO2 
 PCOD9556504
Probable space group: P -4 21 C
;
_chemical_formula_sum "Si O2"
_cell_formula_units_Z 48
_cell_length_a 15.135209
_cell_length_b 15.135209
_cell_length_c 8.323205
_cell_angle_alpha 90.000000
_cell_angle_beta 90.000000
_cell_angle_gamma 90.000000
_cell_volume 1906.634452
_symmetry_space_group_name_H-M "P -4 21 C"
_symmetry_group_IT_number 114
_symmetry_cell_setting 'tetragonal'
loop_
_space_group_symop_operation_xyz
x,y,z
y,-x,-z
-x,-y,z
-y,x,-z
1/2+x,1/2-y,1/2-z
1/2-x,1/2+y,1/2-z
1/2-y,1/2-x,1/2+z
1/2+y,1/2+x,1/2+z
loop_
_atom_site_type_symbol
_atom_site_label
_atom_site_fract_x
_atom_site_fract_y
_atom_site_fract_z
Si Si1 0.292812 0.152188 0.968973
Si Si2 0.159181 0.377352 0.655948
Si Si3 0.483603 0.645379 0.722565
Si Si4 0.805481 0.832334 0.647770
Si Si5 0.656356 0.597234 0.631999
Si Si6 0.012142 0.342128 0.843954
O O1 0.262651 0.138524 0.787382
O O2 0.336864 0.247966 0.988205
O O3 0.198629 0.156694 0.064129
O O4 0.352016 0.075318 0.048157
O O5 0.170502 0.271744 0.670832
O O6 0.250915 0.418411 0.721721
O O7 0.062993 0.405383 0.720258
O O8 0.166548 0.408165 0.472637
O O9 0.397494 0.619846 0.822362
O O10 0.571041 0.589087 0.741535
O O11 0.460259 0.644338 0.529928
O O12 0.502935 0.749493 0.747160
#
# Coordination Sequence:
#
# PCOD9556504 Si02
#       6
#     8   8   8   8   8   8
#     4   9  17  30  49  72  99 133 174 217 262 314
#     4   9  16  29  50  73  99 134 170 213 266 316
#     4   8  14  24  41  69 101 130 164 207 258 320
#     4   9  16  29  50  73  99 134 170 213 266 316
#     4   8  14  24  41  69 101 130 164 207 258 320
#     4   9  17  30  49  72  99 133 174 217 262 314
#
# _framework density 25.175250999999999
#
# number of rings (size 3 to 8) (size 9 to 14) (size 15 to 20)
#    0.000    3.333    0.000    3.000    0.000    0.333 
#    0.000    1.667    0.000    9.000    0.000    0.000 
#    0.000    0.000    0.000   46.000    0.000    0.000 
#
# Total GULP energy -267492.657138 kJ/mol
# GULP energy per Si atom -5572.763690 kJ/mol
# Density = 2.511795 g / cm^3
# Si number density = 25.175251 Si / 1000 Ang^3
#
#
#
# Elastic Constant Matrix: (Units=GPa)
#
#
# Indices 1 2 3 4 5 6 
#
# 1 92.7271 0.3893 17.9840 0.0000 0.0000 0.0000
# 2 0.3893 92.7271 17.9840 0.0000 0.0000 0.0000
# 3 17.9840 17.9840 21.9213 0.0000 0.0000 0.0000
# 4 0.0000 0.0000 0.0000 19.9553 0.0000 0.0000
# 5 0.0000 0.0000 0.0000 0.0000 19.9553 0.0000
# 6 0.0000 0.0000 0.0000 0.0000 0.0000 10.6009
#
#
#
# Elastic Compliance Matrix: (Units=1/GPa)
#
#
# Indices 1 2 3 4 5 6 
#
# 1 0.013275 0.002446 -0.012897 0.000000 0.000000 0.000000
# 2 0.002446 0.013275 -0.012897 0.000000 0.000000 0.000000
# 3 -0.012897 -0.012897 0.066780 0.000000 0.000000 0.000000
# 4 0.000000 0.000000 0.000000 0.050112 0.000000 0.000000
# 5 0.000000 0.000000 0.000000 0.000000 0.050112 0.000000
# 6 0.000000 0.000000 0.000000 0.000000 0.000000 0.094332
#
#
# Mechanical properties :
#
#
# Convention : Reuss Voigt Hill
#
# Bulk Modulus (GPa) = 21.44445 31.12108 26.28277
# Shear Modulus (GPa) = 14.28047 21.50353 17.89200
#
# Velocity S-wave (km/s) = 2.38427 2.92576 2.66878
# Velocity P-wave (km/s) = 4.01450 4.87873 4.46756
#
# Compressibility (1/GPa) = 0.04663210
#
# Stress axis : x y z
#
# Youngs Moduli (GPa) = 75.32696 75.32696 14.97465
#
# Poissons Ratio (x) = -0.18422 0.19313
# Poissons Ratio (y) = -0.18422 0.19313
# Poissons Ratio (z) = 0.97152 0.97152
#
# Static dielectric constant tensor:
#      x y z
#    x 2.053830 0.000000 0.000000 
#    y 0.000000 2.053830 0.000000 
#    z 0.000000 0.000000 2.003320 
# 
# From -- ./inp_files/916.got.cif
#   From: 2010.05.17/outbox.cif.g08.bks.cpg/sg114_1_cif.got.tgz:916.got - 2010.05.20 11:04:54.
