data_PCOD9556628
_publ_section_title
;
Structure prediction by ZEFSAII (Michael W. Deem and Ramdas Pophale) SiO2 
 PCOD9556628
Probable space group: P -4 M 2
;
_chemical_formula_sum "Si O2"
_cell_formula_units_Z 64
_cell_length_a 22.733081
_cell_length_b 22.733081
_cell_length_c 7.674800
_cell_angle_alpha 90.000000
_cell_angle_beta 90.000000
_cell_angle_gamma 90.000000
_cell_volume 3966.282700
_symmetry_space_group_name_H-M "P -4 M 2"
_symmetry_group_IT_number 115
_symmetry_cell_setting 'tetragonal'
loop_
_space_group_symop_operation_xyz
x,y,z
y,-x,-z
-x,-y,z
-y,x,-z
y,x,-z
-y,-x,-z
-x,y,z
x,-y,z
loop_
_atom_site_type_symbol
_atom_site_label
_atom_site_fract_x
_atom_site_fract_y
_atom_site_fract_z
Si Si1 0.431699 0.103330 0.295758
Si Si2 0.340614 0.566742 0.211109
Si Si3 0.776833 0.634042 0.303941
Si Si4 0.103330 0.431699 0.295754
Si Si5 0.634041 0.776833 0.303944
Si Si6 0.279597 0.813186 0.000002
Si Si7 0.342359 0.934855 0.000003
Si Si8 0.659385 0.566742 0.788888
O O1 0.500000 0.092814 0.249563
O O2 0.423925 0.087269 0.500002
O O3 0.415390 0.172511 0.278964
O O4 0.385561 0.072902 0.166758
O O5 0.337707 0.500000 0.272573
O O6 0.285815 0.604287 0.277221
O O7 0.400236 0.599763 0.261306
O O8 0.337295 0.566589 0.999998
O O9 0.827489 0.584610 0.278960
O O10 0.656713 0.782459 0.500001
O O11 0.788026 0.685136 0.166136
O O12 0.092814 0.500000 0.249558
O O13 0.072902 0.385561 0.166753
O O14 0.604286 0.714185 0.277225
O O15 0.685135 0.788025 0.166138
O O16 0.293869 0.882910 0.000004
O O17 0.214302 0.785699 0.000000
O O18 0.316689 0.000000 0.000002
O O19 0.662291 0.500000 0.727424
#
# Coordination Sequence:
#
# PCOD9556628 Si02
#       8
#     8   8   8   8   8   8   8   8
#     4   9  18  31  47  69  96 127 161 193 226 268
#     4  10  20  32  45  61  82 109 143 187 239 292
#     4  10  19  32  51  72  93 116 146 189 238 279
#     4   9  18  31  47  69  96 127 161 193 226 268
#     4  10  19  32  51  72  93 116 146 189 238 279
#     4  10  20  35  53  74  97 120 149 185 223 267
#     4  10  21  34  48  69  97 128 159 191 227 265
#     4  10  20  32  45  61  82 109 143 187 239 292
#
# _framework density 16.136015
#
# number of rings (size 3 to 8) (size 9 to 14) (size 15 to 20)
#    0.000    2.250    1.250    1.875    0.000    5.250 
#    0.000    2.500    0.000    0.000    0.000    1.750 
#    0.000    0.250    0.000    0.000    0.000    0.000 
#
# Total GULP energy -357177.173436 kJ/mol
# GULP energy per Si atom -5580.893335 kJ/mol
# Density = 1.609929 g / cm^3
# Si number density = 16.136015 Si / 1000 Ang^3
#
#
#
# Elastic Constant Matrix: (Units=GPa)
#
#
# Indices 1 2 3 4 5 6 
#
# 1 69.2270 50.7853 24.9323 0.0000 0.0000 0.0000
# 2 50.7853 69.2230 24.9318 0.0000 0.0000 0.0000
# 3 24.9323 24.9318 61.0694 0.0000 0.0000 0.0000
# 4 0.0000 0.0000 0.0000 4.7635 0.0000 0.0000
# 5 0.0000 0.0000 0.0000 0.0000 4.7625 0.0000
# 6 0.0000 0.0000 0.0000 0.0000 0.0000 7.4971
#
#
#
# Elastic Compliance Matrix: (Units=1/GPa)
#
#
# Indices 1 2 3 4 5 6 
#
# 1 0.032132 -0.022098 -0.004097 0.000000 0.000000 0.000000
# 2 -0.022098 0.032134 -0.004097 0.000000 0.000000 0.000000
# 3 -0.004097 -0.004097 0.019720 0.000000 0.000000 0.000000
# 4 0.000000 0.000000 0.000000 0.209932 0.000000 0.000000
# 5 0.000000 0.000000 0.000000 0.000000 0.209975 0.000000
# 6 0.000000 0.000000 0.000000 0.000000 0.000000 0.133385
#
#
# Mechanical properties :
#
#
# Convention : Reuss Voigt Hill
#
# Bulk Modulus (GPa) = 42.73068 44.53535 43.63302
# Shear Modulus (GPa) = 7.08556 9.99594 8.54075
#
# Velocity S-wave (km/s) = 2.09778 2.49164 2.30314
# Velocity P-wave (km/s) = 5.69268 5.99479 5.84569
#
# Compressibility (1/GPa) = 0.02340239
#
# Stress axis : x y z
#
# Youngs Moduli (GPa) = 31.12179 31.11987 50.71016
#
# Poissons Ratio (x) = 0.68769 0.20774
# Poissons Ratio (y) = 0.68773 0.20776
# Poissons Ratio (z) = 0.12749 0.12750
#
# Static dielectric constant tensor:
#      x y z
#    x 1.530790 0.000000 0.000000 
#    y 0.000000 1.530790 0.000000 
#    z 0.000000 0.000000 1.578190 
# 
# From -- ./inp_files/2140.got.cif
#   From: 2010.05.17/outbox.cif.g08.bks.cpg/sg115_2_cif.got.tgz:2140.got - 2010.05.20 11:07:42.
