data_PCOD9556095
_publ_section_title
;
Structure prediction by ZEFSAII (Michael W. Deem and Ramdas Pophale) SiO2 
 PCOD9556095
Probable space group: P -4 21 C
;
_chemical_formula_sum "Si O2"
_cell_formula_units_Z 46
_cell_length_a 11.664744
_cell_length_b 11.664744
_cell_length_c 14.244979
_cell_angle_alpha 90.000000
_cell_angle_beta 90.000000
_cell_angle_gamma 90.000000
_cell_volume 1938.260911
_symmetry_space_group_name_H-M "P -4 21 C"
_symmetry_group_IT_number 114
_symmetry_cell_setting 'tetragonal'
loop_
_space_group_symop_operation_xyz
x,y,z
y,-x,-z
-x,-y,z
-y,x,-z
1/2+x,1/2-y,1/2-z
1/2-x,1/2+y,1/2-z
1/2-y,1/2-x,1/2+z
1/2+y,1/2+x,1/2+z
loop_
_atom_site_type_symbol
_atom_site_label
_atom_site_fract_x
_atom_site_fract_y
_atom_site_fract_z
Si Si1 0.000000 0.000000 0.000000
Si Si2 0.688042 0.065069 0.673778
Si Si3 0.719396 0.806390 0.897392
Si Si4 0.500000 0.000000 0.533267
Si Si5 0.758154 0.437083 0.439360
Si Si6 0.073970 0.887013 0.238446
Si Si7 0.495667 0.807118 0.774810
O O1 0.980394 0.127738 0.953426
O O2 0.731754 0.186526 0.637574
O O3 0.614623 0.002021 0.595410
O O4 0.597690 0.093044 0.757754
O O5 0.799266 0.996254 0.699564
O O6 0.808346 0.896213 0.851252
O O7 0.593332 0.823944 0.852281
O O8 0.732564 0.815419 0.008988
O O9 0.499841 0.135840 0.502991
O O10 0.785726 0.447396 0.328816
O O11 0.189817 0.926609 0.289571
O O12 0.000000 0.000000 0.219407
#
# Coordination Sequence:
#
# PCOD9556095 Si02
#       7
#     2   8   8   4   8   8   8
#     4  12  24  44  76 112 144 186 244 312 396 444
#     4  10  21  42  66  93 142 181 236 298 360 433
#     4  11  24  41  67  99 135 185 234 299 371 434
#     4  10  22  46  64  98 140 188 234 300 362 436
#     4  11  25  41  69 100 142 181 239 302 367 441
#     4  11  21  38  65  99 135 177 231 292 356 445
#     4  10  23  43  65 104 138 188 240 297 366 440
#
# _framework density 23.732616
#
# number of rings (size 3 to 8) (size 9 to 14) (size 15 to 20)
#    0.000    1.391    1.739    5.217    4.870    1.391 
#    0.000    8.696    0.000    0.000    0.000    0.000 
#    0.000    0.000    0.000    0.000    0.000    0.000 
#
# Total GULP energy -256602.299967 kJ/mol
# GULP energy per Si atom -5578.310869 kJ/mol
# Density = 2.367860 g / cm^3
# Si number density = 23.732616 Si / 1000 Ang^3
#
#
#
# Elastic Constant Matrix: (Units=GPa)
#
#
# Indices 1 2 3 4 5 6 
#
# 1 118.9809 30.3977 35.2402 0.0000 0.0000 0.0000
# 2 30.3977 118.9809 35.2402 0.0000 0.0000 0.0000
# 3 35.2402 35.2402 62.5702 0.0000 0.0000 0.0000
# 4 0.0000 0.0000 0.0000 19.8279 0.0000 0.0000
# 5 0.0000 0.0000 0.0000 0.0000 19.8279 0.0000
# 6 0.0000 0.0000 0.0000 0.0000 0.0000 46.0772
#
#
#
# Elastic Compliance Matrix: (Units=1/GPa)
#
#
# Indices 1 2 3 4 5 6 
#
# 1 0.010203 -0.001086 -0.005135 0.000000 0.000000 0.000000
# 2 -0.001086 0.010203 -0.005135 0.000000 0.000000 0.000000
# 3 -0.005135 -0.005135 0.021766 0.000000 0.000000 0.000000
# 4 0.000000 0.000000 0.000000 0.050434 0.000000 0.000000
# 5 0.000000 0.000000 0.000000 0.000000 0.050434 0.000000
# 6 0.000000 0.000000 0.000000 0.000000 0.000000 0.021703
#
#
# Mechanical properties :
#
#
# Convention : Reuss Voigt Hill
#
# Bulk Modulus (GPa) = 51.38513 55.80981 53.59747
# Shear Modulus (GPa) = 25.78105 30.45687 28.11896
#
# Velocity S-wave (km/s) = 3.29950 3.58625 3.44586
# Velocity P-wave (km/s) = 6.01783 6.38086 6.20200
#
# Compressibility (1/GPa) = 0.01946088
#
# Stress axis : x y z
#
# Youngs Moduli (GPa) = 98.01051 98.01051 45.94298
#
# Poissons Ratio (x) = 0.10642 0.23591
# Poissons Ratio (y) = 0.10642 0.23591
# Poissons Ratio (z) = 0.50327 0.50327
#
# Static dielectric constant tensor:
#      x y z
#    x 1.946820 0.000000 0.000000 
#    y 0.000000 1.946820 0.000000 
#    z 0.000000 0.000000 1.990420 
# 
# From -- ./inp_files/2686.got.cif
#   From: 2010.05.17/outbox.cif.g08.bks.cpg/sg114_2_cif.got.tgz:2686.got - 2010.05.20 11:04:54.
