data_PCOD9556737
_publ_section_title
;
Structure prediction by ZEFSAII (Michael W. Deem and Ramdas Pophale) SiO2 
 PCOD9556737
Probable space group: P -4 M 2
;
_chemical_formula_sum "Si O2"
_cell_formula_units_Z 48
_cell_length_a 7.879955
_cell_length_b 7.879955
_cell_length_c 36.649302
_cell_angle_alpha 90.000000
_cell_angle_beta 90.000000
_cell_angle_gamma 90.000000
_cell_volume 2275.690426
_symmetry_space_group_name_H-M "P -4 M 2"
_symmetry_group_IT_number 115
_symmetry_cell_setting 'tetragonal'
loop_
_space_group_symop_operation_xyz
x,y,z
y,-x,-z
-x,-y,z
-y,x,-z
y,x,-z
-y,-x,-z
-x,y,z
x,-y,z
loop_
_atom_site_type_symbol
_atom_site_label
_atom_site_fract_x
_atom_site_fract_y
_atom_site_fract_z
Si Si1 0.292708 0.697819 0.960981
Si Si2 0.311410 0.701911 0.382544
Si Si3 0.203459 0.808530 0.461628
Si Si4 0.704905 0.000000 0.170962
Si Si5 0.291752 0.696012 0.119259
Si Si6 0.000000 0.204479 0.744542
Si Si7 0.692590 0.799336 0.696340
O O1 0.500000 0.700181 0.962014
O O2 0.240386 0.500000 0.960448
O O3 0.248759 0.768911 0.921280
O O4 0.231526 0.768475 0.000000
O O5 0.500000 0.774884 0.382722
O O6 0.319356 0.500000 0.378736
O O7 0.234676 0.730226 0.422328
O O8 0.221747 0.757878 0.345350
O O9 0.269116 0.730885 0.500000
O O10 0.000000 0.813785 0.466431
O O11 0.270327 0.000000 0.458795
O O12 0.762507 0.168618 0.149386
O O13 0.757808 0.000000 0.212828
O O14 0.500000 0.000000 0.169661
O O15 0.500000 0.695736 0.118146
O O16 0.241035 0.500000 0.126004
O O17 0.168665 0.271260 0.724224
O O18 0.000000 0.000000 0.739928
O O19 0.500000 0.728734 0.699985
O O20 0.679132 0.000000 0.702854
#
# Coordination Sequence:
#
# PCOD9556737 Si02
#       7
#     8   8   8   4   8   4   8
#     4   7   9  15  31  57  87 119 157 198 239 286
#     4  10  21  35  52  78 109 137 165 204 262 321
#     4   9  19  35  53  74 102 139 183 222 252 291
#     4  10  20  32  48  74 102 130 168 210 260 314
#     4   8  14  25  41  65  99 133 166 207 255 309
#     4  10  22  38  56  78 100 130 174 212 258 320
#     4   9  19  37  58  78 102 132 169 215 263 315
#
# _framework density 21.092502
#
# number of rings (size 3 to 8) (size 9 to 14) (size 15 to 20)
#    0.000    3.167    0.000    2.500    1.167    3.333 
#    0.000    2.500    0.000    0.000    2.167    0.000 
#    0.000    0.000    0.000    0.000    0.000    0.000 
#
# Total GULP energy -267286.360137 kJ/mol
# GULP energy per Si atom -5568.465836 kJ/mol
# Density = 2.104449 g / cm^3
# Si number density = 21.092502 Si / 1000 Ang^3
#
#
#
# Elastic Constant Matrix: (Units=GPa)
#
#
# Indices 1 2 3 4 5 6 
#
# 1 44.8451 19.5324 49.6074 0.0000 0.0000 0.0000
# 2 19.5324 44.8451 49.6074 0.0000 0.0000 0.0000
# 3 49.6074 49.6074 221.7507 0.0000 0.0000 0.0000
# 4 0.0000 0.0000 0.0000 4.9099 0.0000 0.0000
# 5 0.0000 0.0000 0.0000 0.0000 4.9099 0.0000
# 6 0.0000 0.0000 0.0000 0.0000 0.0000 2.9226
#
#
#
# Elastic Compliance Matrix: (Units=1/GPa)
#
#
# Indices 1 2 3 4 5 6 
#
# 1 0.031606 -0.007900 -0.005303 0.000000 0.000000 0.000000
# 2 -0.007900 0.031606 -0.005303 0.000000 0.000000 0.000000
# 3 -0.005303 -0.005303 0.006882 0.000000 0.000000 0.000000
# 4 0.000000 0.000000 0.000000 0.203669 0.000000 0.000000
# 5 0.000000 0.000000 0.000000 0.000000 0.203669 0.000000
# 6 0.000000 0.000000 0.000000 0.000000 0.000000 0.342157
#
#
# Mechanical properties :
#
#
# Convention : Reuss Voigt Hill
#
# Bulk Modulus (GPa) = 30.22777 60.99279 45.61028
# Shear Modulus (GPa) = 5.76282 15.39474 10.57878
#
# Velocity S-wave (km/s) = 1.65472 2.70454 2.24194
# Velocity P-wave (km/s) = 4.24417 6.22353 5.32660
#
# Compressibility (1/GPa) = 0.03308216
#
# Stress axis : x y z
#
# Youngs Moduli (GPa) = 31.63932 31.63930 145.29880
#
# Poissons Ratio (x) = 0.24994 0.77057
# Poissons Ratio (y) = 0.24994 0.77057
# Poissons Ratio (z) = 0.16779 0.16779
#
# Static dielectric constant tensor:
#      x y z
#    x 1.787860 0.000000 0.000000 
#    y 0.000000 1.787860 0.000000 
#    z 0.000000 0.000000 1.788580 
# 
# From -- ./inp_files/6242.got.cif
#   From: 2010.05.17/outbox.cif.g08.bks.cpg/sg115_4_cif.got.tgz:6242.got - 2010.05.20 11:07:42.
