data_PCOD9556057
_publ_section_title
;
Structure prediction by ZEFSAII (Michael W. Deem and Ramdas Pophale) SiO2 
 PCOD9556057
Probable space group: P -4 21 C
;
_chemical_formula_sum "Si O2"
_cell_formula_units_Z 52
_cell_length_a 14.584576
_cell_length_b 14.584576
_cell_length_c 12.527337
_cell_angle_alpha 90.000000
_cell_angle_beta 90.000000
_cell_angle_gamma 90.000000
_cell_volume 2664.688063
_symmetry_space_group_name_H-M "P -4 21 C"
_symmetry_group_IT_number 114
_symmetry_cell_setting 'tetragonal'
loop_
_space_group_symop_operation_xyz
x,y,z
y,-x,-z
-x,-y,z
-y,x,-z
1/2+x,1/2-y,1/2-z
1/2-x,1/2+y,1/2-z
1/2-y,1/2-x,1/2+z
1/2+y,1/2+x,1/2+z
loop_
_atom_site_type_symbol
_atom_site_label
_atom_site_fract_x
_atom_site_fract_y
_atom_site_fract_z
Si Si1 0.013792 0.319302 0.754400
Si Si2 0.684941 0.246072 0.880642
Si Si3 0.169779 0.431933 0.488928
Si Si4 0.166825 0.139957 0.237791
Si Si5 0.022767 0.131045 0.048954
Si Si6 0.114543 0.101461 0.481272
Si Si7 0.500000 0.000000 0.872503
O O1 0.091311 0.273269 0.681832
O O2 0.058670 0.349105 0.865109
O O3 0.937939 0.243113 0.776178
O O4 0.976849 0.410436 0.697162
O O5 0.767335 0.216584 0.802676
O O6 0.687040 0.172508 0.976624
O O7 0.679506 0.345747 0.934226
O O8 0.263166 0.484292 0.519313
O O9 0.086315 0.472184 0.556097
O O10 0.079439 0.123698 0.159310
O O11 0.136310 0.135425 0.361226
O O12 0.924285 0.082253 0.040409
O O13 0.008367 0.124302 0.509031
#
# Coordination Sequence:
#
# PCOD9556057 Si02
#       7
#     8   8   8   8   8   8   4
#     4  11  21  43  64  90 128 169 220 266 328 401
#     4  10  23  43  63  96 131 171 218 278 325 402
#     4  10  21  41  63  90 130 166 219 274 321 395
#     4  11  23  42  66  98 129 179 223 268 348 399
#     4  10  21  39  64  95 129 165 216 275 327 393
#     4  11  24  44  68  99 138 175 221 277 346 415
#     4  10  24  40  62  94 128 172 216 274 334 388
#
# _framework density 19.514478
#
# number of rings (size 3 to 8) (size 9 to 14) (size 15 to 20)
#    0.000    1.538    3.077    1.385    0.000    4.923 
#   13.846    0.000    0.000    0.000    0.000    0.000 
#    0.000    0.000    0.000    0.000    0.000    0.000 
#
# Total GULP energy -290332.565471 kJ/mol
# GULP energy per Si atom -5583.318567 kJ/mol
# Density = 1.947006 g / cm^3
# Si number density = 19.514478 Si / 1000 Ang^3
#
#
#
# Elastic Constant Matrix: (Units=GPa)
#
#
# Indices 1 2 3 4 5 6 
#
# 1 50.9786 50.2523 27.3904 0.0000 0.0000 0.0000
# 2 50.2523 50.9786 27.3904 0.0000 0.0000 0.0000
# 3 27.3904 27.3904 100.4959 0.0000 0.0000 0.0000
# 4 0.0000 0.0000 0.0000 25.4633 0.0000 0.0000
# 5 0.0000 0.0000 0.0000 0.0000 25.4633 0.0000
# 6 0.0000 0.0000 0.0000 0.0000 0.0000 24.5268
#
#
#
# Elastic Compliance Matrix: (Units=1/GPa)
#
#
# Indices 1 2 3 4 5 6 
#
# 1 0.694157 -0.682569 -0.003158 0.000000 0.000000 0.000000
# 2 -0.682569 0.694157 -0.003158 0.000000 0.000000 0.000000
# 3 -0.003158 -0.003158 0.011672 0.000000 0.000000 0.000000
# 4 0.000000 0.000000 0.000000 0.039272 0.000000 0.000000
# 5 0.000000 0.000000 0.000000 0.000000 0.039272 0.000000
# 6 0.000000 0.000000 0.000000 0.000000 0.000000 0.040772
#
#
# Mechanical properties :
#
#
# Convention : Reuss Voigt Hill
#
# Bulk Modulus (GPa) = 45.01594 45.83547 45.42571
# Shear Modulus (GPa) = 1.72148 21.58535 11.65342
#
# Velocity S-wave (km/s) = 0.94025 3.32945 2.44635
# Velocity P-wave (km/s) = 4.92918 6.19025 5.59536
#
# Compressibility (1/GPa) = 0.02221435
#
# Stress axis : x y z
#
# Youngs Moduli (GPa) = 1.44060 1.44060 85.67362
#
# Poissons Ratio (x) = 0.98331 0.27057
# Poissons Ratio (y) = 0.98331 0.27057
# Poissons Ratio (z) = 0.00455 0.00455
#
# Static dielectric constant tensor:
#      x y z
#    x 1.683480 0.000000 0.000000 
#    y 0.000000 1.683480 0.000000 
#    z 0.000000 0.000000 1.672620 
# 
# From -- ./inp_files/1760.got.cif
#   From: 2010.05.17/outbox.cif.g08.bks.cpg/sg114_1_cif.got.tgz:1760.got - 2010.05.20 11:04:54.
