data_PCOD9556870
_publ_section_title
;
Structure prediction by ZEFSAII (Michael W. Deem and Ramdas Pophale) SiO2 
 PCOD9556870
Probable space group: P -4 M 2
;
_chemical_formula_sum "Si O2"
_cell_formula_units_Z 44
_cell_length_a 9.188044
_cell_length_b 9.188044
_cell_length_c 29.605996
_cell_angle_alpha 90.000000
_cell_angle_beta 90.000000
_cell_angle_gamma 90.000000
_cell_volume 2499.342699
_symmetry_space_group_name_H-M "P -4 M 2"
_symmetry_group_IT_number 115
_symmetry_cell_setting 'tetragonal'
loop_
_space_group_symop_operation_xyz
x,y,z
y,-x,-z
-x,-y,z
-y,x,-z
y,x,-z
-y,-x,-z
-x,y,z
x,-y,z
loop_
_atom_site_type_symbol
_atom_site_label
_atom_site_fract_x
_atom_site_fract_y
_atom_site_fract_z
Si Si1 0.327526 0.826437 0.859112
Si Si2 0.177212 0.168095 0.049614
Si Si3 0.324768 0.673366 0.598853
Si Si4 0.829216 0.174675 0.317439
Si Si5 0.674382 0.674382 0.500000
Si Si6 0.671484 0.174362 0.224510
O O1 0.500000 0.804245 0.858579
O O2 0.261359 0.778682 0.907252
O O3 0.252557 0.743514 0.818008
O O4 0.299059 0.000000 0.854464
O O5 0.000000 0.168114 0.047964
O O6 0.223167 0.000000 0.055527
O O7 0.223181 0.223181 0.000000
O O8 0.500000 0.690131 0.600832
O O9 0.294800 0.500000 0.602386
O O10 0.250581 0.757321 0.639560
O O11 0.273275 0.726800 0.549009
O O12 0.749090 0.218656 0.271167
O O13 0.000000 0.208972 0.314482
O O14 0.813554 0.000000 0.321844
O O15 0.696660 0.500000 0.500369
O O16 0.500000 0.205262 0.227042
O O17 0.690408 0.000000 0.219563
#
# Coordination Sequence:
#
# PCOD9556870 Si02
#       6
#     8   8   8   8   4   8
#     4  10  20  33  51  77 107 136 165 201 249 300
#     4   8  14  27  49  74  99 132 174 213 245 282
#     4   9  17  31  53  78 102 131 168 208 248 291
#     4  10  21  36  53  74 101 132 165 204 252 302
#     4   7  12  26  48  73 100 130 166 205 242 285
#     4  10  21  37  56  75  95 126 170 213 252 298
#
# _framework density 17.604628999999999
#
# number of rings (size 3 to 8) (size 9 to 14) (size 15 to 20)
#    0.000    2.818    0.000    3.273    0.000    4.364 
#    0.000    1.818    0.000    7.636    0.000    0.000 
#    0.000    0.000    0.000    0.000    0.000    0.000 
#
# Total GULP energy -245259.839260 kJ/mol
# GULP energy per Si atom -5574.087256 kJ/mol
# Density = 1.756456 g / cm^3
# Si number density = 17.604629 Si / 1000 Ang^3
#
#
#
# Elastic Constant Matrix: (Units=GPa)
#
#
# Indices 1 2 3 4 5 6 
#
# 1 52.1690 48.9842 80.6329 0.0000 0.0000 0.0000
# 2 48.9842 52.1690 80.6329 0.0000 0.0000 0.0000
# 3 80.6329 80.6329 236.6154 0.0000 0.0000 0.0000
# 4 0.0000 0.0000 0.0000 36.5825 0.0000 0.0000
# 5 0.0000 0.0000 0.0000 0.0000 36.5825 0.0000
# 6 0.0000 0.0000 0.0000 0.0000 0.0000 22.7792
#
#
#
# Elastic Compliance Matrix: (Units=1/GPa)
#
#
# Indices 1 2 3 4 5 6 
#
# 1 0.167822 -0.146176 -0.007376 0.000000 0.000000 0.000000
# 2 -0.146176 0.167822 -0.007376 0.000000 0.000000 0.000000
# 3 -0.007376 -0.007376 0.009254 0.000000 0.000000 0.000000
# 4 0.000000 0.000000 0.000000 0.027335 0.000000 0.000000
# 5 0.000000 0.000000 0.000000 0.000000 0.027335 0.000000
# 6 0.000000 0.000000 0.000000 0.000000 0.000000 0.043900
#
#
# Mechanical properties :
#
#
# Convention : Reuss Voigt Hill
#
# Bulk Modulus (GPa) = 43.40275 84.60592 64.00433
# Shear Modulus (GPa) = 6.46824 27.90242 17.18533
#
# Velocity S-wave (km/s) = 1.91889 3.98546 3.12778
# Velocity P-wave (km/s) = 5.44217 8.32717 7.03417
#
# Compressibility (1/GPa) = 0.02304002
#
# Stress axis : x y z
#
# Youngs Moduli (GPa) = 5.95868 5.95868 108.06476
#
# Poissons Ratio (x) = 0.87102 0.79714
# Poissons Ratio (y) = 0.87102 0.79714
# Poissons Ratio (z) = 0.04395 0.04395
#
# Static dielectric constant tensor:
#      x y z
#    x 1.587090 0.000000 0.000000 
#    y 0.000000 1.587090 0.000000 
#    z 0.000000 0.000000 1.603830 
# 
# From -- ./inp_files/5753.got.cif
#   From: 2010.05.17/outbox.cif.g08.bks.cpg/sg115_3_cif.got.tgz:5753.got - 2010.05.20 11:07:42.
