data_PCOD9556131
_publ_section_title
;
Structure prediction by ZEFSAII (Michael W. Deem and Ramdas Pophale) SiO2 
 PCOD9556131
Probable space group: P -4 21 C
;
_chemical_formula_sum "Si O2"
_cell_formula_units_Z 40
_cell_length_a 18.021764
_cell_length_b 18.021764
_cell_length_c 5.095984
_cell_angle_alpha 90.000000
_cell_angle_beta 90.000000
_cell_angle_gamma 90.000000
_cell_volume 1655.093954
_symmetry_space_group_name_H-M "P -4 21 C"
_symmetry_group_IT_number 114
_symmetry_cell_setting 'tetragonal'
loop_
_space_group_symop_operation_xyz
x,y,z
y,-x,-z
-x,-y,z
-y,x,-z
1/2+x,1/2-y,1/2-z
1/2-x,1/2+y,1/2-z
1/2-y,1/2-x,1/2+z
1/2+y,1/2+x,1/2+z
loop_
_atom_site_type_symbol
_atom_site_label
_atom_site_fract_x
_atom_site_fract_y
_atom_site_fract_z
Si Si1 0.419317 0.300022 0.360017
Si Si2 0.178717 0.927475 0.019122
Si Si3 0.603437 0.459603 0.074464
Si Si4 0.095307 0.337540 0.808967
Si Si5 0.361709 0.071343 0.986536
O O1 0.380779 0.363525 0.542298
O O2 0.508792 0.287847 0.332064
O O3 0.393366 0.221041 0.467996
O O4 0.406760 0.337913 0.075918
O O5 0.140234 0.983843 0.223211
O O6 0.251035 0.888823 0.138879
O O7 0.523799 0.423488 0.142363
O O8 0.113321 0.356485 0.509717
O O9 0.010890 0.353839 0.895602
O O10 0.389565 0.082133 0.689509
#
# Coordination Sequence:
#
# PCOD9556131 Si02
#       5
#     8   8   8   8   8
#     4  10  22  38  63  94 135 177 219 268 322 391
#     4  10  22  38  63  94 135 177 219 268 322 391
#     4   9  18  34  60  94 131 176 226 268 317 388
#     4  11  26  45  70  98 128 167 219 278 338 397
#     4  11  26  45  70  98 128 167 219 278 338 397
#
# _framework density 24.167811
#
# number of rings (size 3 to 8) (size 9 to 14) (size 15 to 20)
#    0.000    1.800    0.000    2.400   11.200    6.000 
#    0.000    0.000    0.000    0.000    0.000    0.000 
#    0.000    0.000    0.000    0.000    0.000    0.000 
#
# Total GULP energy -222685.990284 kJ/mol
# GULP energy per Si atom -5567.149757 kJ/mol
# Density = 2.411280 g / cm^3
# Si number density = 24.167811 Si / 1000 Ang^3
#
#
#
# Elastic Constant Matrix: (Units=GPa)
#
#
# Indices 1 2 3 4 5 6 
#
# 1 73.2487 2.4233 -13.8191 0.0000 0.0000 0.0000
# 2 2.4233 73.2487 -13.8191 0.0000 0.0000 0.0000
# 3 -13.8191 -13.8191 51.3152 0.0000 0.0000 0.0000
# 4 0.0000 0.0000 0.0000 26.0677 0.0000 0.0000
# 5 0.0000 0.0000 0.0000 0.0000 26.0677 0.0000
# 6 0.0000 0.0000 0.0000 0.0000 0.0000 17.2311
#
#
#
# Elastic Compliance Matrix: (Units=1/GPa)
#
#
# Indices 1 2 3 4 5 6 
#
# 1 0.014388 0.000269 0.003947 0.000000 0.000000 0.000000
# 2 0.000269 0.014388 0.003947 0.000000 0.000000 0.000000
# 3 0.003947 0.003947 0.021613 0.000000 0.000000 0.000000
# 4 0.000000 0.000000 0.000000 0.038362 0.000000 0.000000
# 5 0.000000 0.000000 0.000000 0.000000 0.038362 0.000000
# 6 0.000000 0.000000 0.000000 0.000000 0.000000 0.058035
#
#
# Mechanical properties :
#
#
# Convention : Reuss Voigt Hill
#
# Bulk Modulus (GPa) = 14.98935 16.37590 15.68263
# Shear Modulus (GPa) = 26.16980 28.74177 27.45579
#
# Velocity S-wave (km/s) = 3.29422 3.45230 3.37419
# Velocity P-wave (km/s) = 4.54806 4.76254 4.65654
#
# Compressibility (1/GPa) = 0.06671401
#
# Stress axis : x y z
#
# Youngs Moduli (GPa) = 69.50302 69.50302 46.26800
#
# Poissons Ratio (x) = -0.01867 -0.18262
# Poissons Ratio (y) = -0.01867 -0.18262
# Poissons Ratio (z) = -0.27433 -0.27433
#
# Static dielectric constant tensor:
#      x y z
#    x 2.048650 0.000000 0.000000 
#    y 0.000000 2.048650 0.000000 
#    z 0.000000 0.000000 2.497880 
# 
# From -- ./inp_files/163.got.cif
#   From: 2010.05.17/outbox.cif.g08.bks.cpg/sg114_1_cif.got.tgz:163.got - 2010.05.20 11:04:54.
