data_PCOD9556316
_publ_section_title
;
Structure prediction by ZEFSAII (Michael W. Deem and Ramdas Pophale) SiO2 
 PCOD9556316
Probable space group: P -4 21 C
;
_chemical_formula_sum "Si O2"
_cell_formula_units_Z 36
_cell_length_a 8.913882
_cell_length_b 8.913882
_cell_length_c 22.174157
_cell_angle_alpha 90.000000
_cell_angle_beta 90.000000
_cell_angle_gamma 90.000000
_cell_volume 1761.898474
_symmetry_space_group_name_H-M "P -4 21 C"
_symmetry_group_IT_number 114
_symmetry_cell_setting 'tetragonal'
loop_
_space_group_symop_operation_xyz
x,y,z
y,-x,-z
-x,-y,z
-y,x,-z
1/2+x,1/2-y,1/2-z
1/2-x,1/2+y,1/2-z
1/2-y,1/2-x,1/2+z
1/2+y,1/2+x,1/2+z
loop_
_atom_site_type_symbol
_atom_site_label
_atom_site_fract_x
_atom_site_fract_y
_atom_site_fract_z
Si Si1 0.687011 0.854988 0.869264
Si Si2 0.178889 0.825593 0.830036
Si Si3 0.968392 0.664347 0.911004
Si Si4 0.000000 0.500000 0.028930
Si Si5 0.669923 0.524765 0.216373
O O1 0.822203 0.746402 0.887133
O O2 0.580059 0.883808 0.926773
O O3 0.584239 0.780098 0.819262
O O4 0.752241 0.012140 0.844576
O O5 0.307722 0.726188 0.797902
O O6 0.114285 0.759097 0.892323
O O7 0.036720 0.829031 0.784786
O O8 0.000000 0.500000 0.882591
O O9 0.947524 0.627734 0.981770
O O10 0.500000 0.500000 0.194438
#
# Coordination Sequence:
#
# PCOD9556316 Si02
#       5
#     8   8   8   4   8
#     4  12  24  48  68 103 143 187 239 295 362 434
#     4  12  24  45  70 105 138 190 233 303 362 439
#     4  10  25  43  71  98 139 178 245 285 358 415
#     4  10  26  44  70 104 136 192 236 300 348 430
#     4  12  25  41  71 100 144 179 236 294 371 433
#
# _framework density 20.432504999999999
#
# number of rings (size 3 to 8) (size 9 to 14) (size 15 to 20)
#    0.667    0.000    2.222    6.000    3.111    1.778 
#    0.000    0.000    0.000    0.000    0.000    0.000 
#    0.000    0.000    0.000    0.000    0.000    0.000 
#
# Total GULP energy -201015.939620 kJ/mol
# GULP energy per Si atom -5583.776101 kJ/mol
# Density = 2.038600 g / cm^3
# Si number density = 20.432505 Si / 1000 Ang^3
#
#
#
# Elastic Constant Matrix: (Units=GPa)
#
#
# Indices 1 2 3 4 5 6 
#
# 1 116.6473 49.2221 40.3329 0.0000 0.0000 0.0000
# 2 49.2221 116.6473 40.3329 0.0000 0.0000 0.0000
# 3 40.3329 40.3329 85.1170 0.0000 0.0000 0.0000
# 4 0.0000 0.0000 0.0000 39.9338 0.0000 0.0000
# 5 0.0000 0.0000 0.0000 0.0000 39.9338 0.0000
# 6 0.0000 0.0000 0.0000 0.0000 0.0000 55.7085
#
#
#
# Elastic Compliance Matrix: (Units=1/GPa)
#
#
# Indices 1 2 3 4 5 6 
#
# 1 0.011333 -0.003499 -0.003712 0.000000 0.000000 0.000000
# 2 -0.003499 0.011333 -0.003712 0.000000 0.000000 0.000000
# 3 -0.003712 -0.003712 0.015267 0.000000 0.000000 0.000000
# 4 0.000000 0.000000 0.000000 0.025041 0.000000 0.000000
# 5 0.000000 0.000000 0.000000 0.000000 0.025041 0.000000
# 6 0.000000 0.000000 0.000000 0.000000 0.000000 0.017951
#
#
# Mechanical properties :
#
#
# Convention : Reuss Voigt Hill
#
# Bulk Modulus (GPa) = 62.16577 64.24306 63.20442
# Shear Modulus (GPa) = 37.54497 39.68346 38.61421
#
# Velocity S-wave (km/s) = 4.29127 4.41179 4.35195
# Velocity P-wave (km/s) = 7.41919 7.58035 7.50020
#
# Compressibility (1/GPa) = 0.01608602
#
# Stress axis : x y z
#
# Youngs Moduli (GPa) = 88.24004 88.24004 65.50227
#
# Poissons Ratio (x) = 0.30871 0.24316
# Poissons Ratio (y) = 0.30871 0.24316
# Poissons Ratio (z) = 0.32757 0.32757
#
# Static dielectric constant tensor:
#      x y z
#    x 1.729220 0.000000 0.000000 
#    y 0.000000 1.729220 0.000000 
#    z 0.000000 0.000000 1.749290 
# 
# From -- ./inp_files/2961.got.cif
#   From: 2010.05.17/outbox.cif.g08.bks.cpg/sg114_2_cif.got.tgz:2961.got - 2010.05.20 11:04:54.
