data_PCOD9556553
_publ_section_title
;
Structure prediction by ZEFSAII (Michael W. Deem and Ramdas Pophale) SiO2 
 PCOD9556553
Probable space group: P -4 M 2
;
_chemical_formula_sum "Si O2"
_cell_formula_units_Z 64
_cell_length_a 14.490005
_cell_length_b 14.490005
_cell_length_c 20.729311
_cell_angle_alpha 90.000000
_cell_angle_beta 90.000000
_cell_angle_gamma 90.000000
_cell_volume 4352.331214
_symmetry_space_group_name_H-M "P -4 M 2"
_symmetry_group_IT_number 115
_symmetry_cell_setting 'tetragonal'
loop_
_space_group_symop_operation_xyz
x,y,z
y,-x,-z
-x,-y,z
-y,x,-z
y,x,-z
-y,-x,-z
-x,y,z
x,-y,z
loop_
_atom_site_type_symbol
_atom_site_label
_atom_site_fract_x
_atom_site_fract_y
_atom_site_fract_z
Si Si1 0.400350 0.323166 0.935691
Si Si2 0.389519 0.723580 0.181730
Si Si3 0.686617 0.842236 0.990964
Si Si4 0.393524 0.612016 0.428949
Si Si5 0.106279 0.605338 0.234257
Si Si6 0.297904 0.391088 0.297099
Si Si7 0.101326 0.774250 0.135930
Si Si8 0.287536 0.893239 0.135117
O O1 0.500000 0.343870 0.907348
O O2 0.324409 0.346994 0.882432
O O3 0.395457 0.217049 0.959618
O O4 0.382530 0.382530 0.000000
O O5 0.500000 0.718520 0.179809
O O6 0.349146 0.668775 0.242752
O O7 0.352960 0.828272 0.178041
O O8 0.731432 0.902887 0.935599
O O9 0.761076 0.761076 0.000000
O O10 0.675652 0.886339 0.060846
O O11 0.359183 0.640818 0.500000
O O12 0.500000 0.641989 0.419208
O O13 0.395078 0.500000 0.431665
O O14 0.331844 0.638006 0.367898
O O15 0.116592 0.500000 0.207745
O O16 0.187959 0.616756 0.285893
O O17 0.119811 0.686568 0.182340
O O18 0.000000 0.612421 0.257631
O O19 0.321587 0.500000 0.288703
O O20 0.185513 0.846415 0.138060
O O21 0.000000 0.813268 0.152228
O O22 0.284548 0.000000 0.153802
#
# Coordination Sequence:
#
# PCOD9556553 Si02
#       8
#     8   8   8   8   8   8   8   8
#     4  11  20  32  49  65  89 118 148 187 235 280
#     4  12  23  35  47  67  93 122 160 193 228 280
#     4   9  17  33  47  65  83 111 141 184 235 290
#     4   8  14  25  42  68 102 134 161 189 222 263
#     4   9  17  29  47  73 102 128 152 182 229 288
#     4  10  18  30  49  73 101 130 158 192 234 276
#     4  10  18  32  52  71  90 112 145 194 246 291
#     4  11  22  37  50  63  85 115 154 200 246 285
#
# _framework density 14.704764000000001
#
# number of rings (size 3 to 8) (size 9 to 14) (size 15 to 20)
#    0.000    2.000    5.000    1.875    0.000    4.125 
#    0.000    0.000    0.000    4.500    0.000    0.875 
#    0.000    3.000    0.000    0.000    0.000    0.125 
#
# Total GULP energy -356360.140896 kJ/mol
# GULP energy per Si atom -5568.127201 kJ/mol
# Density = 1.467130 g / cm^3
# Si number density = 14.704764 Si / 1000 Ang^3
#
#
#
# Elastic Constant Matrix: (Units=GPa)
#
#
# Indices 1 2 3 4 5 6 
#
# 1 85.4716 39.7700 36.2971 0.0000 0.0000 0.0000
# 2 39.7700 85.4715 36.2971 0.0000 0.0000 0.0000
# 3 36.2971 36.2971 96.4776 0.0000 0.0000 0.0000
# 4 0.0000 0.0000 0.0000 9.8590 0.0000 0.0000
# 5 0.0000 0.0000 0.0000 0.0000 9.8590 0.0000
# 6 0.0000 0.0000 0.0000 0.0000 0.0000 11.2438
#
#
#
# Elastic Compliance Matrix: (Units=1/GPa)
#
#
# Indices 1 2 3 4 5 6 
#
# 1 0.016046 -0.005835 -0.003842 0.000000 0.000000 0.000000
# 2 -0.005835 0.016046 -0.003842 0.000000 0.000000 0.000000
# 3 -0.003842 -0.003842 0.013256 0.000000 0.000000 0.000000
# 4 0.000000 0.000000 0.000000 0.101430 0.000000 0.000000
# 5 0.000000 0.000000 0.000000 0.000000 0.101430 0.000000
# 6 0.000000 0.000000 0.000000 0.000000 0.000000 0.088938
#
#
# Mechanical properties :
#
#
# Convention : Reuss Voigt Hill
#
# Bulk Modulus (GPa) = 54.61035 54.68324 54.64680
# Shear Modulus (GPa) = 13.50304 16.52946 15.01625
#
# Velocity S-wave (km/s) = 3.03360 3.35638 3.19906
# Velocity P-wave (km/s) = 7.03482 7.23108 7.13363
#
# Compressibility (1/GPa) = 0.01831155
#
# Stress axis : x y z
#
# Youngs Moduli (GPa) = 62.31997 62.31989 75.43855
#
# Poissons Ratio (x) = 0.36363 0.28982
# Poissons Ratio (y) = 0.36363 0.28982
# Poissons Ratio (z) = 0.23942 0.23942
#
# Static dielectric constant tensor:
#      x y z
#    x 1.524640 0.000000 0.000000 
#    y 0.000000 1.524640 0.000000 
#    z 0.000000 0.000000 1.478050 
# 
# From -- ./inp_files/4432.got.cif
#   From: 2010.05.17/outbox.cif.g08.bks.cpg/sg115_3_cif.got.tgz:4432.got - 2010.05.20 11:07:42.
