data_PCOD9556279
_publ_section_title
;
Structure prediction by ZEFSAII (Michael W. Deem and Ramdas Pophale) SiO2 
 PCOD9556279
Probable space group: P -4 21 C
;
_chemical_formula_sum "Si O2"
_cell_formula_units_Z 54
_cell_length_a 15.060554
_cell_length_b 15.060554
_cell_length_c 11.259787
_cell_angle_alpha 90.000000
_cell_angle_beta 90.000000
_cell_angle_gamma 90.000000
_cell_volume 2553.948116
_symmetry_space_group_name_H-M "P -4 21 C"
_symmetry_group_IT_number 114
_symmetry_cell_setting 'tetragonal'
loop_
_space_group_symop_operation_xyz
x,y,z
y,-x,-z
-x,-y,z
-y,x,-z
1/2+x,1/2-y,1/2-z
1/2-x,1/2+y,1/2-z
1/2-y,1/2-x,1/2+z
1/2+y,1/2+x,1/2+z
loop_
_atom_site_type_symbol
_atom_site_label
_atom_site_fract_x
_atom_site_fract_y
_atom_site_fract_z
Si Si1 0.287821 0.219617 0.999691
Si Si2 0.070933 0.168801 0.518248
Si Si3 0.000000 0.000000 0.000000
Si Si4 0.032255 0.676941 0.397405
Si Si5 0.500000 0.000000 0.984255
Si Si6 0.455378 0.188511 0.370690
Si Si7 0.666090 0.593749 0.566159
Si Si8 0.953861 0.083684 0.706446
O O1 0.312059 0.324194 0.001417
O O2 0.361548 0.175855 0.085693
O O3 0.186168 0.211394 0.034758
O O4 0.298695 0.150845 0.888924
O O5 0.053098 0.097875 0.412698
O O6 0.010933 0.252471 0.485211
O O7 0.034255 0.140548 0.648254
O O8 0.912783 0.064935 0.021591
O O9 0.989300 0.584305 0.431501
O O10 0.015968 0.703081 0.263856
O O11 0.588398 0.980801 0.908625
O O12 0.515690 0.260610 0.437824
O O13 0.617497 0.611610 0.694703
O O14 0.000000 0.000000 0.769600
#
# Coordination Sequence:
#
# PCOD9556279 Si02
#       8
#     8   8   2   8   4   8   8   8
#     4  11  26  42  65 101 139 172 227 285 345 418
#     4  12  22  43  66 101 136 173 225 294 339 412
#     4  12  24  44  68  94 140 176 224 280 348 422
#     4  11  23  41  67  94 129 179 228 275 344 410
#     4  10  24  44  62  92 134 182 224 286 340 416
#     4  11  24  43  67  94 136 179 229 286 341 418
#     4  12  25  44  67 101 135 182 224 284 350 416
#     4  12  22  39  70 100 132 171 225 283 349 399
#
# _framework density 21.143733999999998
#
# number of rings (size 3 to 8) (size 9 to 14) (size 15 to 20)
#    0.000    0.593    6.667    1.333    2.074    0.000 
#    0.000    2.963    0.000    0.000    0.000    0.000 
#    0.000    0.000    0.000    0.000    0.000    0.000 
#
# Total GULP energy -300700.688802 kJ/mol
# GULP energy per Si atom -5568.531274 kJ/mol
# Density = 2.109561 g / cm^3
# Si number density = 21.143734 Si / 1000 Ang^3
#
#
#
# Elastic Constant Matrix: (Units=GPa)
#
#
# Indices 1 2 3 4 5 6 
#
# 1 124.2903 5.3490 12.4651 0.0000 0.0000 0.0000
# 2 5.3490 124.2903 12.4651 0.0000 0.0000 0.0000
# 3 12.4651 12.4651 52.5043 0.0000 0.0000 0.0000
# 4 0.0000 0.0000 0.0000 20.0412 0.0000 0.0000
# 5 0.0000 0.0000 0.0000 0.0000 20.0412 0.0000
# 6 0.0000 0.0000 0.0000 0.0000 0.0000 45.1178
#
#
#
# Elastic Compliance Matrix: (Units=1/GPa)
#
#
# Indices 1 2 3 4 5 6 
#
# 1 0.008245 -0.000162 -0.001919 0.000000 0.000000 0.000000
# 2 -0.000162 0.008245 -0.001919 0.000000 0.000000 0.000000
# 3 -0.001919 -0.001919 0.019957 0.000000 0.000000 0.000000
# 4 0.000000 0.000000 0.000000 0.049897 0.000000 0.000000
# 5 0.000000 0.000000 0.000000 0.000000 0.049897 0.000000
# 6 0.000000 0.000000 0.000000 0.000000 0.000000 0.022164
#
#
# Mechanical properties :
#
#
# Convention : Reuss Voigt Hill
#
# Bulk Modulus (GPa) = 35.15317 40.18259 37.66788
# Shear Modulus (GPa) = 28.42702 35.09374 31.76038
#
# Velocity S-wave (km/s) = 3.67067 4.07845 3.87992
# Velocity P-wave (km/s) = 5.88447 6.42060 6.15837
#
# Compressibility (1/GPa) = 0.02844694
#
# Stress axis : x y z
#
# Youngs Moduli (GPa) = 121.28384 121.28384 50.10724
#
# Poissons Ratio (x) = 0.01970 0.09615
# Poissons Ratio (y) = 0.01970 0.09615
# Poissons Ratio (z) = 0.23274 0.23274
#
# Static dielectric constant tensor:
#      x y z
#    x 1.774890 0.000000 0.000000 
#    y 0.000000 1.774890 0.000000 
#    z 0.000000 0.000000 1.514920 
# 
# From -- ./inp_files/1775.got.cif
#   From: 2010.05.17/outbox.cif.g08.bks.cpg/sg114_1_cif.got.tgz:1775.got - 2010.05.20 11:04:54.
