data_PCOD9556264
_publ_section_title
;
Structure prediction by ZEFSAII (Michael W. Deem and Ramdas Pophale) SiO2 
 PCOD9556264
Probable space group: P -4 21 C
;
_chemical_formula_sum "Si O2"
_cell_formula_units_Z 28
_cell_length_a 10.182546
_cell_length_b 10.182546
_cell_length_c 13.393218
_cell_angle_alpha 90.000000
_cell_angle_beta 90.000000
_cell_angle_gamma 90.000000
_cell_volume 1388.665670
_symmetry_space_group_name_H-M "P -4 21 C"
_symmetry_group_IT_number 114
_symmetry_cell_setting 'tetragonal'
loop_
_space_group_symop_operation_xyz
x,y,z
y,-x,-z
-x,-y,z
-y,x,-z
1/2+x,1/2-y,1/2-z
1/2-x,1/2+y,1/2-z
1/2-y,1/2-x,1/2+z
1/2+y,1/2+x,1/2+z
loop_
_atom_site_type_symbol
_atom_site_label
_atom_site_fract_x
_atom_site_fract_y
_atom_site_fract_z
Si Si1 0.917120 0.270401 0.072948
Si Si2 0.159875 0.799936 0.859387
Si Si3 0.251183 0.389813 0.281202
Si Si4 0.000000 0.500000 0.705406
O O1 0.804211 0.181004 0.120911
O O2 0.056653 0.203333 0.101199
O O3 0.917966 0.407269 0.131606
O O4 0.893812 0.277805 0.955442
O O5 0.284244 0.728628 0.807951
O O6 0.036308 0.812437 0.783717
O O7 0.096074 0.415553 0.273593
#
# Coordination Sequence:
#
# PCOD9556264 Si02
#       4
#     8   8   8   4
#     4  11  22  42  68  94 131 175 228 264 337 407
#     4  11  23  40  69  94 131 180 219 276 330 405
#     4  11  22  42  63  98 130 166 225 272 327 391
#     4  10  24  42  64 100 132 172 212 286 334 386
#
# _framework density 20.163240999999999
#
# number of rings (size 3 to 8) (size 9 to 14) (size 15 to 20)
#    0.000    1.143    5.714    0.857    0.000    1.143 
#    0.000    0.000    0.000    0.000    0.000    0.000 
#    0.000    0.000    0.000    0.000    0.000    0.000 
#
# Total GULP energy -156111.010070 kJ/mol
# GULP energy per Si atom -5575.393217 kJ/mol
# Density = 2.011735 g / cm^3
# Si number density = 20.163241 Si / 1000 Ang^3
#
#
#
# Elastic Constant Matrix: (Units=GPa)
#
#
# Indices 1 2 3 4 5 6 
#
# 1 56.1452 -1.9767 36.4244 0.0000 0.0000 0.0000
# 2 -1.9767 56.1452 36.4244 0.0000 0.0000 0.0000
# 3 36.4244 36.4244 93.9321 0.0000 0.0000 0.0000
# 4 0.0000 0.0000 0.0000 30.8352 0.0000 0.0000
# 5 0.0000 0.0000 0.0000 0.0000 30.8352 0.0000
# 6 0.0000 0.0000 0.0000 0.0000 0.0000 37.6569
#
#
#
# Elastic Compliance Matrix: (Units=1/GPa)
#
#
# Indices 1 2 3 4 5 6 
#
# 1 0.027893 0.010688 -0.014961 0.000000 0.000000 0.000000
# 2 0.010688 0.027893 -0.014961 0.000000 0.000000 0.000000
# 3 -0.014961 -0.014961 0.022249 0.000000 0.000000 0.000000
# 4 0.000000 0.000000 0.000000 0.032430 0.000000 0.000000
# 5 0.000000 0.000000 0.000000 0.000000 0.032430 0.000000
# 6 0.000000 0.000000 0.000000 0.000000 0.000000 0.026556
#
#
# Mechanical properties :
#
#
# Convention : Reuss Voigt Hill
#
# Bulk Modulus (GPa) = 25.27308 38.66293 31.96801
# Shear Modulus (GPa) = 22.61347 28.88883 25.75115
#
# Velocity S-wave (km/s) = 3.35254 3.78927 3.57758
# Velocity P-wave (km/s) = 5.24857 6.19365 5.74059
#
# Compressibility (1/GPa) = 0.03956779
#
# Stress axis : x y z
#
# Youngs Moduli (GPa) = 35.85129 35.85129 44.94658
#
# Poissons Ratio (x) = -0.38317 0.67243
# Poissons Ratio (y) = -0.38317 0.67243
# Poissons Ratio (z) = 0.53636 0.53636
#
# Static dielectric constant tensor:
#      x y z
#    x 1.749910 0.000000 0.000000 
#    y 0.000000 1.749910 0.000000 
#    z 0.000000 0.000000 1.694670 
# 
# From -- ./inp_files/1277.got.cif
#   From: 2010.05.17/outbox.cif.g08.bks.cpg/sg114_1_cif.got.tgz:1277.got - 2010.05.20 11:04:54.
