data_PCOD9556883
_publ_section_title
;
Structure prediction by ZEFSAII (Michael W. Deem and Ramdas Pophale) SiO2 
 PCOD9556883
Probable space group: P -4 M 2
;
_chemical_formula_sum "Si O2"
_cell_formula_units_Z 40
_cell_length_a 9.237152
_cell_length_b 9.237152
_cell_length_c 26.585451
_cell_angle_alpha 90.000000
_cell_angle_beta 90.000000
_cell_angle_gamma 90.000000
_cell_volume 2268.402997
_symmetry_space_group_name_H-M "P -4 M 2"
_symmetry_group_IT_number 115
_symmetry_cell_setting 'tetragonal'
loop_
_space_group_symop_operation_xyz
x,y,z
y,-x,-z
-x,-y,z
-y,x,-z
y,x,-z
-y,-x,-z
-x,y,z
x,-y,z
loop_
_atom_site_type_symbol
_atom_site_label
_atom_site_fract_x
_atom_site_fract_y
_atom_site_fract_z
Si Si1 0.826064 0.669039 0.454845
Si Si2 0.833451 0.823900 0.148629
Si Si3 0.671648 0.173513 0.046326
Si Si4 0.325736 0.170890 0.658223
Si Si5 0.174103 0.329925 0.749851
O O1 0.757055 0.757055 0.500000
O O2 0.786501 0.500000 0.459809
O O3 0.783630 0.717672 0.398461
O O4 0.000000 0.678419 0.457024
O O5 0.747505 0.781078 0.098512
O O6 0.753624 0.778180 0.199666
O O7 0.000000 0.775291 0.147332
O O8 0.833764 0.000000 0.149041
O O9 0.500000 0.199526 0.048684
O O10 0.693773 0.000000 0.040270
O O11 0.744091 0.255910 0.000000
O O12 0.500000 0.184943 0.661394
O O13 0.249121 0.261663 0.701293
O O14 0.291806 0.000000 0.664270
O O15 0.206052 0.500000 0.754347
O O16 0.000000 0.313841 0.745480
#
# Coordination Sequence:
#
# PCOD9556883 Si02
#       5
#     8   8   8   8   8
#     4   9  19  35  53  74 101 132 168 211 257 305
#     4   9  17  31  53  78 103 134 172 212 254 302
#     4  10  20  34  53  77 105 136 170 210 255 302
#     4   9  19  36  54  72  99 136 174 211 253 303
#     4  10  20  33  51  78 109 137 168 210 258 305
#
# _framework density 17.633552000000002
#
# number of rings (size 3 to 8) (size 9 to 14) (size 15 to 20)
#    0.000    2.600    0.000    3.000    0.000    7.200 
#    0.000    7.000    0.000    6.000    0.000    0.000 
#    0.000    0.000    0.000    0.000    0.000    0.000 
#
# Total GULP energy -223145.314286 kJ/mol
# GULP energy per Si atom -5578.632857 kJ/mol
# Density = 1.759342 g / cm^3
# Si number density = 17.633552 Si / 1000 Ang^3
#
#
#
# Elastic Constant Matrix: (Units=GPa)
#
#
# Indices 1 2 3 4 5 6 
#
# 1 61.7928 47.7467 78.1983 0.0000 0.0000 0.0000
# 2 47.7467 61.7937 78.1977 0.0000 0.0000 0.0000
# 3 78.1983 78.1977 205.6691 0.0000 0.0000 0.0000
# 4 0.0000 0.0000 0.0000 -247.6279 0.0000 0.0000
# 5 0.0000 0.0000 0.0000 0.0000 -247.5496 0.0000
# 6 0.0000 0.0000 0.0000 0.0000 0.0000 24.7815
#
#
#
# Elastic Compliance Matrix: (Units=1/GPa)
#
#
# Indices 1 2 3 4 5 6 
#
# 1 0.045582 -0.025611 -0.007593 0.000000 0.000000 0.000000
# 2 -0.025611 0.045580 -0.007592 0.000000 0.000000 0.000000
# 3 -0.007593 -0.007592 0.010636 0.000000 0.000000 0.000000
# 4 0.000000 0.000000 0.000000 -0.004038 0.000000 0.000000
# 5 0.000000 0.000000 0.000000 0.000000 -0.004040 0.000000
# 6 0.000000 0.000000 0.000000 0.000000 0.000000 0.040353
#
#
# Mechanical properties :
#
#
# Convention : Reuss Voigt Hill
#
# Bulk Modulus (GPa) = 49.49453 81.94899 65.72176
# Shear Modulus (GPa) = 22.48207 -85.73834 -31.62813
#
# Velocity S-wave (km/s) = 3.57453 -6.98053 -4.23973
# Velocity P-wave (km/s) = 6.72054 4.28908 3.65852
#
# Compressibility (1/GPa) = 0.02020425
#
# Stress axis : x y z
#
# Youngs Moduli (GPa) = 21.93870 21.93958 94.02173
#
# Poissons Ratio (x) = 0.56190 0.71392
# Poissons Ratio (y) = 0.56187 0.71383
# Poissons Ratio (z) = 0.16658 0.16657
#
# Static dielectric constant tensor:
#      x y z
#    x 1.585690 0.000000 0.000000 
#    y 0.000000 1.585690 0.000000 
#    z 0.000000 0.000000 1.580680 
# 
# From -- ./inp_files/5060.got.cif
#   From: 2010.05.17/outbox.cif.g08.bks.cpg/sg115_3_cif.got.tgz:5060.got - 2010.05.20 11:07:42.
