data_PCOD9556780
_publ_section_title
;
Structure prediction by ZEFSAII (Michael W. Deem and Ramdas Pophale) SiO2 
 PCOD9556780
Probable space group: P -4 M 2
;
_chemical_formula_sum "Si O2"
_cell_formula_units_Z 48
_cell_length_a 9.373300
_cell_length_b 9.373300
_cell_length_c 31.982118
_cell_angle_alpha 90.000000
_cell_angle_beta 90.000000
_cell_angle_gamma 90.000000
_cell_volume 2809.909002
_symmetry_space_group_name_H-M "P -4 M 2"
_symmetry_group_IT_number 115
_symmetry_cell_setting 'tetragonal'
loop_
_space_group_symop_operation_xyz
x,y,z
y,-x,-z
-x,-y,z
-y,x,-z
y,x,-z
-y,-x,-z
-x,y,z
x,-y,z
loop_
_atom_site_type_symbol
_atom_site_label
_atom_site_fract_x
_atom_site_fract_y
_atom_site_fract_z
Si Si1 0.836497 0.173637 0.878560
Si Si2 0.331579 0.829013 0.463349
Si Si3 0.173921 0.335061 0.202628
Si Si4 0.671124 0.168324 0.369341
Si Si5 0.671565 0.167504 0.703856
Si Si6 0.829133 0.669395 0.037297
O O1 0.763398 0.222108 0.835463
O O2 0.743130 0.212559 0.918886
O O3 0.000000 0.221600 0.882409
O O4 0.837785 0.000000 0.877344
O O5 0.246350 0.753651 0.500000
O O6 0.500000 0.797337 0.467309
O O7 0.285464 0.786004 0.416353
O O8 0.315392 0.000000 0.466010
O O9 0.216834 0.500000 0.196040
O O10 0.217271 0.287855 0.249222
O O11 0.000000 0.334597 0.202876
O O12 0.500000 0.183735 0.366867
O O13 0.745938 0.255152 0.332890
O O14 0.703491 0.000000 0.365093
O O15 0.500000 0.178833 0.701387
O O16 0.708303 0.000000 0.700064
O O17 0.803508 0.500000 0.038686
O O18 0.000000 0.691238 0.031505
O O19 0.744269 0.744269 0.000000
#
# Coordination Sequence:
#
# PCOD9556780 Si02
#       6
#     8   8   8   8   8   8
#     4   9  16  26  44  71  99 126 159 200 243 286
#     4   9  19  35  52  71  96 125 158 198 243 291
#     4   8  14  26  43  65  97 131 159 193 240 290
#     4   9  19  35  51  68  95 130 164 198 240 290
#     4   9  18  31  48  73 102 130 163 203 243 284
#     4  10  20  33  50  72  98 129 163 199 242 290
#
# _framework density 17.082404
#
# number of rings (size 3 to 8) (size 9 to 14) (size 15 to 20)
#    0.000    3.000    0.000    3.000    0.000    6.000 
#    0.000    6.667    0.000    1.000    0.000    4.667 
#    0.000    0.000    0.000    0.000    0.000    0.000 
#
# Total GULP energy -267490.159391 kJ/mol
# GULP energy per Si atom -5572.711654 kJ/mol
# Density = 1.704352 g / cm^3
# Si number density = 17.082404 Si / 1000 Ang^3
#
#
#
# Elastic Constant Matrix: (Units=GPa)
#
#
# Indices 1 2 3 4 5 6 
#
# 1 42.9716 33.2637 67.4608 0.0000 0.0000 0.0000
# 2 33.2637 42.9688 67.4587 0.0000 0.0000 0.0000
# 3 67.4608 67.4587 194.2731 0.0000 0.0000 0.0000
# 4 0.0000 0.0000 0.0000 126.4756 0.0000 0.0000
# 5 0.0000 0.0000 0.0000 0.0000 126.4637 0.0000
# 6 0.0000 0.0000 0.0000 0.0000 0.0000 21.8704
#
#
#
# Elastic Compliance Matrix: (Units=1/GPa)
#
#
# Indices 1 2 3 4 5 6 
#
# 1 0.068525 -0.034496 -0.011817 0.000000 0.000000 0.000000
# 2 -0.034496 0.068530 -0.011818 0.000000 0.000000 0.000000
# 3 -0.011817 -0.011818 0.013354 0.000000 0.000000 0.000000
# 4 0.000000 0.000000 0.000000 0.007907 0.000000 0.000000
# 5 0.000000 0.000000 0.000000 0.000000 0.007907 0.000000
# 6 0.000000 0.000000 0.000000 0.000000 0.000000 0.045724
#
#
# Mechanical properties :
#
#
# Convention : Reuss Voigt Hill
#
# Bulk Modulus (GPa) = 29.28344 68.50887 48.89616
# Shear Modulus (GPa) = 14.72355 62.43062 38.57709
#
# Velocity S-wave (km/s) = 2.93902 6.05195 4.75731
# Velocity P-wave (km/s) = 5.35694 9.43540 7.67214
#
# Compressibility (1/GPa) = 0.03414899
#
# Stress axis : x y z
#
# Youngs Moduli (GPa) = 14.59311 14.59212 74.88201
#
# Poissons Ratio (x) = 0.50337 0.88489
# Poissons Ratio (y) = 0.50340 0.88493
# Poissons Ratio (z) = 0.17245 0.17244
#
# Static dielectric constant tensor:
#      x y z
#    x 1.561470 0.000000 0.000000 
#    y 0.000000 1.561470 0.000000 
#    z 0.000000 0.000000 1.575270 
# 
# From -- ./inp_files/6125.got.cif
#   From: 2010.05.17/outbox.cif.g08.bks.cpg/sg115_4_cif.got.tgz:6125.got - 2010.05.20 11:07:42.
