data_PCOD9556461
_publ_section_title
;
Structure prediction by ZEFSAII (Michael W. Deem and Ramdas Pophale) SiO2 
 PCOD9556461
Probable space group: P -4 21 C
;
_chemical_formula_sum "Si O2"
_cell_formula_units_Z 38
_cell_length_a 9.070663
_cell_length_b 9.070663
_cell_length_c 22.041087
_cell_angle_alpha 90.000000
_cell_angle_beta 90.000000
_cell_angle_gamma 90.000000
_cell_volume 1813.472912
_symmetry_space_group_name_H-M "P -4 21 C"
_symmetry_group_IT_number 114
_symmetry_cell_setting 'tetragonal'
loop_
_space_group_symop_operation_xyz
x,y,z
y,-x,-z
-x,-y,z
-y,x,-z
1/2+x,1/2-y,1/2-z
1/2-x,1/2+y,1/2-z
1/2-y,1/2-x,1/2+z
1/2+y,1/2+x,1/2+z
loop_
_atom_site_type_symbol
_atom_site_label
_atom_site_fract_x
_atom_site_fract_y
_atom_site_fract_z
Si Si1 0.999797 0.837544 0.205133
Si Si2 0.516473 0.763584 0.081521
Si Si3 0.500000 0.000000 0.985650
Si Si4 0.687337 0.114222 0.376242
Si Si5 0.000000 0.000000 0.500000
Si Si6 0.305507 0.300008 0.820164
O O1 0.913153 0.713066 0.167402
O O2 0.916672 0.850817 0.269064
O O3 0.167661 0.784848 0.209942
O O4 0.000000 0.000000 0.175756
O O5 0.659109 0.696791 0.113465
O O6 0.447326 0.632134 0.041561
O O7 0.389956 0.793622 0.130995
O O8 0.568528 0.886067 0.033903
O O9 0.595930 0.098660 0.939575
O O10 0.728455 0.952305 0.350175
#
# Coordination Sequence:
#
# PCOD9556461 Si02
#       6
#     8   8   4   8   2   8
#     4  12  27  44  71 105 143 179 238 299 367 425
#     4  12  24  43  73 100 135 185 243 291 351 427
#     4  12  26  44  72 104 140 188 242 296 352 420
#     4  12  25  48  70 101 145 192 235 293 363 435
#     4  12  20  40  76  92 128 180 244 272 338 440
#     4  12  24  48  73 103 139 192 237 297 362 443
#
# _framework density 20.954269
#
# number of rings (size 3 to 8) (size 9 to 14) (size 15 to 20)
#    0.000    0.000    6.316    3.789    2.947    0.000 
#    3.789    0.000    0.000    0.000    0.000    0.000 
#    0.000    0.000    0.000    0.000    0.000    0.000 
#
# Total GULP energy -212282.570342 kJ/mol
# GULP energy per Si atom -5586.383430 kJ/mol
# Density = 2.090658 g / cm^3
# Si number density = 20.954269 Si / 1000 Ang^3
#
#
#
# Elastic Constant Matrix: (Units=GPa)
#
#
# Indices 1 2 3 4 5 6 
#
# 1 95.7976 39.9346 38.3344 0.0000 0.0000 0.0000
# 2 39.9346 95.7976 38.3344 0.0000 0.0000 0.0000
# 3 38.3344 38.3344 75.7455 0.0000 0.0000 0.0000
# 4 0.0000 0.0000 0.0000 27.6235 0.0000 0.0000
# 5 0.0000 0.0000 0.0000 0.0000 27.6235 0.0000
# 6 0.0000 0.0000 0.0000 0.0000 0.0000 23.3746
#
#
#
# Elastic Compliance Matrix: (Units=1/GPa)
#
#
# Indices 1 2 3 4 5 6 
#
# 1 0.014109 -0.003792 -0.005221 0.000000 0.000000 0.000000
# 2 -0.003792 0.014109 -0.005221 0.000000 0.000000 0.000000
# 3 -0.005221 -0.005221 0.018487 0.000000 0.000000 0.000000
# 4 0.000000 0.000000 0.000000 0.036201 0.000000 0.000000
# 5 0.000000 0.000000 0.000000 0.000000 0.036201 0.000000
# 6 0.000000 0.000000 0.000000 0.000000 0.000000 0.042781
#
#
# Mechanical properties :
#
#
# Convention : Reuss Voigt Hill
#
# Bulk Modulus (GPa) = 54.83823 55.61638 55.22731
# Shear Modulus (GPa) = 25.45363 25.77349 25.61356
#
# Velocity S-wave (km/s) = 3.48907 3.51092 3.50001
# Velocity P-wave (km/s) = 6.51604 6.56009 6.53810
#
# Compressibility (1/GPa) = 0.01823545
#
# Stress axis : x y z
#
# Youngs Moduli (GPa) = 70.87777 70.87777 54.09222
#
# Poissons Ratio (x) = 0.26878 0.28243
# Poissons Ratio (y) = 0.26878 0.28243
# Poissons Ratio (z) = 0.37007 0.37007
#
# Static dielectric constant tensor:
#      x y z
#    x 1.756230 0.000000 0.000000 
#    y 0.000000 1.756230 0.000000 
#    z 0.000000 0.000000 1.772570 
# 
# From -- ./inp_files/3408.got.cif
#   From: 2010.05.17/outbox.cif.g08.bks.cpg/sg114_2_cif.got.tgz:3408.got - 2010.05.20 11:04:54.
