data_PCOD9556334
_publ_section_title
;
Structure prediction by ZEFSAII (Michael W. Deem and Ramdas Pophale) SiO2 
 PCOD9556334
Probable space group: P -4 21 C
;
_chemical_formula_sum "Si O2"
_cell_formula_units_Z 56
_cell_length_a 27.375195
_cell_length_b 27.375195
_cell_length_c 5.070387
_cell_angle_alpha 90.000000
_cell_angle_beta 90.000000
_cell_angle_gamma 90.000000
_cell_volume 3799.754616
_symmetry_space_group_name_H-M "P -4 21 C"
_symmetry_group_IT_number 114
_symmetry_cell_setting 'tetragonal'
loop_
_space_group_symop_operation_xyz
x,y,z
y,-x,-z
-x,-y,z
-y,x,-z
1/2+x,1/2-y,1/2-z
1/2-x,1/2+y,1/2-z
1/2-y,1/2-x,1/2+z
1/2+y,1/2+x,1/2+z
loop_
_atom_site_type_symbol
_atom_site_label
_atom_site_fract_x
_atom_site_fract_y
_atom_site_fract_z
Si Si1 0.228219 0.687894 0.985811
Si Si2 0.444646 0.338496 0.633767
Si Si3 0.838496 0.055354 0.133767
Si Si4 0.309224 0.387636 0.886130
Si Si5 0.612364 0.690776 0.113871
Si Si6 0.771781 0.687894 0.985811
Si Si7 0.945812 0.945812 0.000000
O O1 0.188298 0.704465 0.772898
O O2 0.257664 0.640218 0.896630
O O3 0.269463 0.730537 0.000000
O O4 0.500000 0.327643 0.550624
O O5 0.407446 0.323546 0.401214
O O6 0.442304 0.397381 0.676984
O O7 0.430914 0.311883 0.902498
O O8 0.823546 0.092553 0.901213
O O9 0.811883 0.069085 0.402498
O O10 0.897381 0.057696 0.176984
O O11 0.348882 0.348882 0.000000
O O12 0.257664 0.359782 0.896630
O O13 0.795536 0.688298 0.272898
O O14 0.000000 0.943227 0.128305
#
# Coordination Sequence:
#
# PCOD9556334 Si02
#       7
#     8   8   8   8   8   8   8
#     4   9  17  28  44  64  82 100 123 157 205 260
#     4  11  21  33  45  61  81 108 140 174 220 262
#     4  11  21  33  45  61  81 108 140 174 220 262
#     4  11  19  32  46  62  82 105 133 169 216 258
#     4  11  19  32  46  62  82 105 133 169 216 258
#     4   9  17  28  44  64  82 100 123 157 205 260
#     4   9  18  32  46  58  74  98 138 188 228 262
#
# _framework density 14.737793
#
# number of rings (size 3 to 8) (size 9 to 14) (size 15 to 20)
#    0.000    1.857    2.857    2.571    0.000    4.571 
#    0.000    1.429    0.000    6.857    0.000    0.000 
#    0.000    0.000    0.000    0.000    0.000    0.000 
#
# Total GULP energy -311993.419789 kJ/mol
# GULP energy per Si atom -5571.311068 kJ/mol
# Density = 1.470425 g / cm^3
# Si number density = 14.737793 Si / 1000 Ang^3
#
#
#
# Elastic Constant Matrix: (Units=GPa)
#
#
# Indices 1 2 3 4 5 6 
#
# 1 42.4300 33.8530 12.3416 0.0000 0.0000 0.0000
# 2 33.8530 42.4300 12.3416 0.0000 0.0000 0.0000
# 3 12.3416 12.3416 64.3535 0.0000 0.0000 0.0000
# 4 0.0000 0.0000 0.0000 15.1968 0.0000 0.0000
# 5 0.0000 0.0000 0.0000 0.0000 15.1968 0.0000
# 6 0.0000 0.0000 0.0000 0.0000 0.0000 23.3565
#
#
#
# Elastic Compliance Matrix: (Units=1/GPa)
#
#
# Indices 1 2 3 4 5 6 
#
# 1 0.065284 -0.051307 -0.002680 0.000000 0.000000 0.000000
# 2 -0.051307 0.065284 -0.002680 0.000000 0.000000 0.000000
# 3 -0.002680 -0.002680 0.016567 0.000000 0.000000 0.000000
# 4 0.000000 0.000000 0.000000 0.065803 0.000000 0.000000
# 5 0.000000 0.000000 0.000000 0.000000 0.065803 0.000000
# 6 0.000000 0.000000 0.000000 0.000000 0.000000 0.042815
#
#
# Mechanical properties :
#
#
# Convention : Reuss Voigt Hill
#
# Bulk Modulus (GPa) = 29.58709 29.58733 29.58721
# Shear Modulus (GPa) = 11.20677 16.79516 14.00097
#
# Velocity S-wave (km/s) = 2.76055 3.37946 3.08556
# Velocity P-wave (km/s) = 5.50273 5.94534 5.72831
#
# Compressibility (1/GPa) = 0.03379852
#
# Stress axis : x y z
#
# Youngs Moduli (GPa) = 15.31773 15.31773 60.36006
#
# Poissons Ratio (x) = 0.78591 0.16179
# Poissons Ratio (y) = 0.78591 0.16179
# Poissons Ratio (z) = 0.04106 0.04106
#
# Static dielectric constant tensor:
#      x y z
#    x 1.498700 0.000000 0.000000 
#    y 0.000000 1.498700 0.000000 
#    z 0.000000 0.000000 1.505660 
# 
# From -- ./inp_files/278.got.cif
#   From: 2010.05.17/outbox.cif.g08.bks.cpg/sg114_1_cif.got.tgz:278.got - 2010.05.20 11:04:54.
