data_PCOD9556275
_publ_section_title
;
Structure prediction by ZEFSAII (Michael W. Deem and Ramdas Pophale) SiO2 
 PCOD9556275
Probable space group: P -4 21 C
;
_chemical_formula_sum "Si O2"
_cell_formula_units_Z 34
_cell_length_a 8.585718
_cell_length_b 8.585718
_cell_length_c 20.985393
_cell_angle_alpha 90.000000
_cell_angle_beta 90.000000
_cell_angle_gamma 90.000000
_cell_volume 1546.928877
_symmetry_space_group_name_H-M "P -4 21 C"
_symmetry_group_IT_number 114
_symmetry_cell_setting 'tetragonal'
loop_
_space_group_symop_operation_xyz
x,y,z
y,-x,-z
-x,-y,z
-y,x,-z
1/2+x,1/2-y,1/2-z
1/2-x,1/2+y,1/2-z
1/2-y,1/2-x,1/2+z
1/2+y,1/2+x,1/2+z
loop_
_atom_site_type_symbol
_atom_site_label
_atom_site_fract_x
_atom_site_fract_y
_atom_site_fract_z
Si Si1 0.000000 0.500000 0.394035
Si Si2 0.300098 0.654600 0.402693
Si Si3 0.000000 0.000000 0.794145
Si Si4 0.500000 0.500000 0.500000
Si Si5 0.251250 0.890471 0.707601
Si Si6 0.823286 0.539364 0.171332
O O1 0.849418 0.435947 0.429428
O O2 0.955633 0.645362 0.349038
O O3 0.361422 0.554932 0.341068
O O4 0.435634 0.634975 0.454117
O O5 0.266771 0.828987 0.378583
O O6 0.146896 0.014468 0.747028
O O7 0.374078 0.834596 0.760519
O O8 0.120349 0.772030 0.680802
O O9 0.000000 0.500000 0.152688
#
# Coordination Sequence:
#
# PCOD9556275 Si02
#       6
#     4   8   4   2   8   8
#     4  12  24  38  64  98 136 170 210 274 334 412
#     4  10  24  43  66  94 120 173 231 283 342 390
#     4   9  20  35  62  88 132 173 216 245 314 408
#     4  10  24  52  76  84 124 176 236 310 348 390
#     4  11  22  35  58  98 144 183 203 259 323 405
#     4  11  24  37  62  99 141 184 221 259 321 415
#
# _framework density 21.979033999999999
#
# number of rings (size 3 to 8) (size 9 to 14) (size 15 to 20)
#    0.000    1.412    1.176    4.235   16.471    0.000 
#    2.118    0.000    0.000    0.000    0.000    0.000 
#    0.000    0.000    0.000    0.000    0.000    0.000 
#
# Total GULP energy -189806.814548 kJ/mol
# GULP energy per Si atom -5582.553369 kJ/mol
# Density = 2.192901 g / cm^3
# Si number density = 21.979034 Si / 1000 Ang^3
#
#
#
# Elastic Constant Matrix: (Units=GPa)
#
#
# Indices 1 2 3 4 5 6 
#
# 1 107.8512 36.9086 10.1417 0.0000 0.0000 0.0000
# 2 36.9086 107.8512 10.1417 0.0000 0.0000 0.0000
# 3 10.1417 10.1417 48.9412 0.0000 0.0000 0.0000
# 4 0.0000 0.0000 0.0000 12.7259 0.0000 0.0000
# 5 0.0000 0.0000 0.0000 0.0000 12.7259 0.0000
# 6 0.0000 0.0000 0.0000 0.0000 0.0000 58.1391
#
#
#
# Elastic Compliance Matrix: (Units=1/GPa)
#
#
# Indices 1 2 3 4 5 6 
#
# 1 0.010605 -0.003491 -0.001474 0.000000 0.000000 0.000000
# 2 -0.003491 0.010605 -0.001474 0.000000 0.000000 0.000000
# 3 -0.001474 -0.001474 0.021044 0.000000 0.000000 0.000000
# 4 0.000000 0.000000 0.000000 0.078580 0.000000 0.000000
# 5 0.000000 0.000000 0.000000 0.000000 0.078580 0.000000
# 6 0.000000 0.000000 0.000000 0.000000 0.000000 0.017200
#
#
# Mechanical properties :
#
#
# Convention : Reuss Voigt Hill
#
# Bulk Modulus (GPa) = 34.04179 42.11418 38.07798
# Shear Modulus (GPa) = 20.89566 30.54831 25.72199
#
# Velocity S-wave (km/s) = 3.08670 3.73216 3.42467
# Velocity P-wave (km/s) = 5.31277 6.14611 5.74457
#
# Compressibility (1/GPa) = 0.02937566
#
# Stress axis : x y z
#
# Youngs Moduli (GPa) = 94.29310 94.29310 47.52012
#
# Poissons Ratio (x) = 0.32915 0.07006
# Poissons Ratio (y) = 0.32915 0.07006
# Poissons Ratio (z) = 0.13902 0.13902
#
# Static dielectric constant tensor:
#      x y z
#    x 1.885290 0.000000 0.000000 
#    y 0.000000 1.885290 0.000000 
#    z 0.000000 0.000000 1.745540 
# 
# From -- ./inp_files/3022.got.cif
#   From: 2010.05.17/outbox.cif.g08.bks.cpg/sg114_2_cif.got.tgz:3022.got - 2010.05.20 11:04:54.
