data_PCOD9556861
_publ_section_title
;
Structure prediction by ZEFSAII (Michael W. Deem and Ramdas Pophale) SiO2 
 PCOD9556861
Probable space group: P -4 M 2
;
_chemical_formula_sum "Si O2"
_cell_formula_units_Z 48
_cell_length_a 9.168337
_cell_length_b 9.168337
_cell_length_c 31.821251
_cell_angle_alpha 90.000000
_cell_angle_beta 90.000000
_cell_angle_gamma 90.000000
_cell_volume 2674.843552
_symmetry_space_group_name_H-M "P -4 M 2"
_symmetry_group_IT_number 115
_symmetry_cell_setting 'tetragonal'
loop_
_space_group_symop_operation_xyz
x,y,z
y,-x,-z
-x,-y,z
-y,x,-z
y,x,-z
-y,-x,-z
-x,y,z
x,-y,z
loop_
_atom_site_type_symbol
_atom_site_label
_atom_site_fract_x
_atom_site_fract_y
_atom_site_fract_z
Si Si1 0.329763 0.824253 0.130838
Si Si2 0.822300 0.831462 0.953790
Si Si3 0.674450 0.172777 0.382139
Si Si4 0.672031 0.673794 0.704812
Si Si5 0.673511 0.826161 0.539563
Si Si6 0.171770 0.674565 0.208749
O O1 0.500000 0.787558 0.132677
O O2 0.261616 0.776596 0.086277
O O3 0.246593 0.753316 0.169714
O O4 0.315282 0.000000 0.133153
O O5 0.000000 0.831162 0.955088
O O6 0.776618 0.000000 0.948386
O O7 0.776566 0.776566 0.000000
O O8 0.500000 0.195686 0.388024
O O9 0.713268 0.236758 0.336441
O O10 0.760781 0.256212 0.418346
O O11 0.702072 0.000000 0.384160
O O12 0.500000 0.703964 0.697305
O O13 0.687158 0.500000 0.711667
O O14 0.718481 0.756729 0.746896
O O15 0.748755 0.748755 0.500000
O O16 0.500000 0.799162 0.539024
O O17 0.696920 0.000000 0.537401
O O18 0.192861 0.500000 0.204698
O O19 0.000000 0.704803 0.209159
#
# Coordination Sequence:
#
# PCOD9556861 Si02
#       6
#     8   8   8   8   8   8
#     4  10  20  33  51  76 105 137 173 213 259 312
#     4   8  14  27  48  71  96 130 171 213 257 306
#     4  10  21  37  58  85 115 145 179 219 264 317
#     4   9  18  34  55  77 105 143 182 219 262 313
#     4  11  24  40  59  84 113 146 185 227 270 317
#     4  10  21  36  54  77 105 138 177 220 265 313
#
# _framework density 17.944973999999998
#
# number of rings (size 3 to 8) (size 9 to 14) (size 15 to 20)
#    0.000    2.333    0.000    3.000    0.000    7.667 
#    0.000    4.167    0.000    3.000    0.000    0.000 
#    0.000    0.000    0.000    0.000    0.000    0.000 
#
# Total GULP energy -267946.334423 kJ/mol
# GULP energy per Si atom -5582.215300 kJ/mol
# Density = 1.790413 g / cm^3
# Si number density = 17.944974 Si / 1000 Ang^3
#
#
#
# Elastic Constant Matrix: (Units=GPa)
#
#
# Indices 1 2 3 4 5 6 
#
# 1 74.3353 65.2922 92.7375 0.0000 0.0000 0.0000
# 2 65.2922 74.3353 92.7375 0.0000 0.0000 0.0000
# 3 92.7375 92.7375 210.7870 0.0000 0.0000 0.0000
# 4 0.0000 0.0000 0.0000 36.9531 0.0000 0.0000
# 5 0.0000 0.0000 0.0000 0.0000 36.9531 0.0000
# 6 0.0000 0.0000 0.0000 0.0000 0.0000 24.2082
#
#
#
# Elastic Compliance Matrix: (Units=1/GPa)
#
#
# Indices 1 2 3 4 5 6 
#
# 1 0.063908 -0.046674 -0.007582 0.000000 0.000000 0.000000
# 2 -0.046674 0.063908 -0.007582 0.000000 0.000000 0.000000
# 3 -0.007582 -0.007582 0.011416 0.000000 0.000000 0.000000
# 4 0.000000 0.000000 0.000000 0.027061 0.000000 0.000000
# 5 0.000000 0.000000 0.000000 0.000000 0.027061 0.000000
# 6 0.000000 0.000000 0.000000 0.000000 0.000000 0.041308
#
#
# Mechanical properties :
#
#
# Convention : Reuss Voigt Hill
#
# Bulk Modulus (GPa) = 64.28947 95.66579 79.97763
# Shear Modulus (GPa) = 13.75423 26.86889 20.31156
#
# Velocity S-wave (km/s) = 2.77152 3.87369 3.36799
# Velocity P-wave (km/s) = 6.79304 8.56934 7.73237
#
# Compressibility (1/GPa) = 0.01555465
#
# Stress axis : x y z
#
# Youngs Moduli (GPa) = 15.64751 15.64751 87.59848
#
# Poissons Ratio (x) = 0.73034 0.66418
# Poissons Ratio (y) = 0.73034 0.66418
# Poissons Ratio (z) = 0.11864 0.11864
#
# Static dielectric constant tensor:
#      x y z
#    x 1.600450 0.000000 0.000000 
#    y 0.000000 1.600450 0.000000 
#    z 0.000000 0.000000 1.591600 
# 
# From -- ./inp_files/6028.got.cif
#   From: 2010.05.17/outbox.cif.g08.bks.cpg/sg115_4_cif.got.tgz:6028.got - 2010.05.20 11:07:42.
