data_PCOD9556527
_publ_section_title
;
Structure prediction by ZEFSAII (Michael W. Deem and Ramdas Pophale) SiO2 
 PCOD9556527
Probable space group: P -4 M 2
;
_chemical_formula_sum "Si O2"
_cell_formula_units_Z 48
_cell_length_a 13.923128
_cell_length_b 13.923128
_cell_length_c 16.821487
_cell_angle_alpha 90.000000
_cell_angle_beta 90.000000
_cell_angle_gamma 90.000000
_cell_volume 3260.904018
_symmetry_space_group_name_H-M "P -4 M 2"
_symmetry_group_IT_number 115
_symmetry_cell_setting 'tetragonal'
loop_
_space_group_symop_operation_xyz
x,y,z
y,-x,-z
-x,-y,z
-y,x,-z
y,x,-z
-y,-x,-z
-x,y,z
x,-y,z
loop_
_atom_site_type_symbol
_atom_site_label
_atom_site_fract_x
_atom_site_fract_y
_atom_site_fract_z
Si Si1 0.110973 0.203687 0.076850
Si Si2 0.206429 0.702216 0.826077
Si Si3 0.704613 0.386529 0.576265
Si Si4 0.109837 0.385954 0.673830
Si Si5 0.388082 0.614359 0.746780
Si Si6 0.391341 0.887843 0.023523
O O1 0.188600 0.189726 0.145987
O O2 0.000000 0.188255 0.098486
O O3 0.139056 0.139056 0.000000
O O4 0.124094 0.312640 0.044993
O O5 0.140513 0.671874 0.752008
O O6 0.314418 0.676044 0.799242
O O7 0.176822 0.638804 0.902171
O O8 0.671953 0.328048 0.500000
O O9 0.696884 0.500000 0.558196
O O10 0.812816 0.365502 0.605327
O O11 0.638990 0.368338 0.654249
O O12 0.119834 0.500000 0.692496
O O13 0.000000 0.367536 0.651762
O O14 0.500000 0.634049 0.761186
O O15 0.370466 0.500000 0.760820
O O16 0.500000 0.868121 0.998165
O O17 0.385569 0.000000 0.048801
#
# Coordination Sequence:
#
# PCOD9556527 Si02
#       6
#     8   8   8   8   8   8
#     4   9  19  32  44  61  83 108 141 182 224 261
#     4  10  17  27  44  63  84 111 142 175 213 257
#     4   9  16  26  43  66  90 116 142 167 198 239
#     4   9  17  29  46  69  91 108 134 175 217 251
#     4   9  17  27  40  63  93 119 141 167 202 246
#     4   9  16  27  44  63  81 103 135 176 218 257
#
# _framework density 14.719844
#
# number of rings (size 3 to 8) (size 9 to 14) (size 15 to 20)
#    0.000    2.833    0.000    3.500    0.000    3.667 
#    0.000    0.000    0.000    4.000    0.000    8.167 
#    0.000    0.000    0.000    0.000    0.000    0.000 
#
# Total GULP energy -267396.212062 kJ/mol
# GULP energy per Si atom -5570.754418 kJ/mol
# Density = 1.468634 g / cm^3
# Si number density = 14.719844 Si / 1000 Ang^3
#
#
#
# Elastic Constant Matrix: (Units=GPa)
#
#
# Indices 1 2 3 4 5 6 
#
# 1 74.0166 24.1989 31.5286 0.0000 0.0000 0.0000
# 2 24.1989 74.0143 31.5282 0.0000 0.0000 0.0000
# 3 31.5286 31.5282 60.9875 0.0000 0.0000 0.0000
# 4 0.0000 0.0000 0.0000 14.0649 0.0000 0.0000
# 5 0.0000 0.0000 0.0000 0.0000 14.0640 0.0000
# 6 0.0000 0.0000 0.0000 0.0000 0.0000 14.9121
#
#
#
# Elastic Compliance Matrix: (Units=1/GPa)
#
#
# Indices 1 2 3 4 5 6 
#
# 1 0.017657 -0.002417 -0.007879 0.000000 0.000000 0.000000
# 2 -0.002417 0.017657 -0.007879 0.000000 0.000000 0.000000
# 3 -0.007879 -0.007879 0.024543 0.000000 0.000000 0.000000
# 4 0.000000 0.000000 0.000000 0.071099 0.000000 0.000000
# 5 0.000000 0.000000 0.000000 0.000000 0.071104 0.000000
# 6 0.000000 0.000000 0.000000 0.000000 0.000000 0.067060
#
#
# Mechanical properties :
#
#
# Convention : Reuss Voigt Hill
#
# Bulk Modulus (GPa) = 42.53772 42.61443 42.57608
# Shear Modulus (GPa) = 15.95899 16.72571 16.34235
#
# Velocity S-wave (km/s) = 3.29626 3.37452 3.33562
# Velocity P-wave (km/s) = 6.59152 6.64803 6.61983
#
# Compressibility (1/GPa) = 0.02350854
#
# Stress axis : x y z
#
# Youngs Moduli (GPa) = 56.63599 56.63419 40.74524
#
# Poissons Ratio (x) = 0.13687 0.32101
# Poissons Ratio (y) = 0.13688 0.32102
# Poissons Ratio (z) = 0.44621 0.44620
#
# Static dielectric constant tensor:
#      x y z
#    x 1.494280 0.000000 0.000000 
#    y 0.000000 1.494280 0.000000 
#    z 0.000000 0.000000 1.460360 
# 
# From -- ./inp_files/3715.got.cif
#   From: 2010.05.17/outbox.cif.g08.bks.cpg/sg115_2_cif.got.tgz:3715.got - 2010.05.20 11:07:42.
