data_PCOD9556830
_publ_section_title
;
Structure prediction by ZEFSAII (Michael W. Deem and Ramdas Pophale) SiO2 
 PCOD9556830
Probable space group: P -4 M 2
;
_chemical_formula_sum "Si O2"
_cell_formula_units_Z 48
_cell_length_a 9.148965
_cell_length_b 9.148965
_cell_length_c 31.879746
_cell_angle_alpha 90.000000
_cell_angle_beta 90.000000
_cell_angle_gamma 90.000000
_cell_volume 2668.448250
_symmetry_space_group_name_H-M "P -4 M 2"
_symmetry_group_IT_number 115
_symmetry_cell_setting 'tetragonal'
loop_
_space_group_symop_operation_xyz
x,y,z
y,-x,-z
-x,-y,z
-y,x,-z
y,x,-z
-y,-x,-z
-x,y,z
x,-y,z
loop_
_atom_site_type_symbol
_atom_site_label
_atom_site_fract_x
_atom_site_fract_y
_atom_site_fract_z
Si Si1 0.674315 0.173988 0.039708
Si Si2 0.824799 0.673248 0.118506
Si Si3 0.675860 0.829130 0.461028
Si Si4 0.677826 0.330960 0.376775
Si Si5 0.325409 0.325546 0.283138
Si Si6 0.824394 0.169921 0.205292
O O1 0.500000 0.197330 0.037612
O O2 0.740229 0.245610 0.081509
O O3 0.701367 0.000000 0.039509
O O4 0.751561 0.248440 0.000000
O O5 0.796003 0.500000 0.117638
O O6 0.783404 0.741084 0.163465
O O7 0.000000 0.694215 0.112925
O O8 0.746464 0.746464 0.500000
O O9 0.500000 0.811895 0.463172
O O10 0.725795 0.762832 0.416473
O O11 0.710061 0.000000 0.462945
O O12 0.500000 0.328751 0.376167
O O13 0.721699 0.500000 0.382451
O O14 0.723507 0.281533 0.330222
O O15 0.500000 0.302790 0.280217
O O16 0.299587 0.500000 0.279253
O O17 0.246838 0.239789 0.246303
O O18 0.000000 0.178189 0.209082
O O19 0.783274 0.000000 0.200804
#
# Coordination Sequence:
#
# PCOD9556830 Si02
#       6
#     8   8   8   8   8   8
#     4  11  24  40  59  85 115 146 181 220 265 318
#     4  10  21  38  60  83 107 140 183 227 270 315
#     4  10  20  33  51  75 101 131 169 211 257 310
#     4   8  15  30  52  76 101 131 170 215 260 308
#     4   9  18  33  54  80 107 135 171 216 265 315
#     4  10  21  36  54  78 109 145 183 220 262 315
#
# _framework density 17.987983
#
# number of rings (size 3 to 8) (size 9 to 14) (size 15 to 20)
#    0.000    2.333    0.000    3.500    0.000    8.000 
#    0.000    2.500    0.000    1.000    0.000    0.000 
#    0.000    0.000    0.000    0.000    0.000    0.000 
#
# Total GULP energy -267922.442090 kJ/mol
# GULP energy per Si atom -5581.717544 kJ/mol
# Density = 1.794704 g / cm^3
# Si number density = 17.987983 Si / 1000 Ang^3
#
#
#
# Elastic Constant Matrix: (Units=GPa)
#
#
# Indices 1 2 3 4 5 6 
#
# 1 65.8745 61.4867 79.0836 0.0000 0.0000 0.0000
# 2 61.4867 65.8739 79.0837 0.0000 0.0000 0.0000
# 3 79.0836 79.0837 191.3478 0.0000 0.0000 0.0000
# 4 0.0000 0.0000 0.0000 110.8640 0.0000 0.0000
# 5 0.0000 0.0000 0.0000 0.0000 110.8561 0.0000
# 6 0.0000 0.0000 0.0000 0.0000 0.0000 26.2501
#
#
#
# Elastic Compliance Matrix: (Units=1/GPa)
#
#
# Indices 1 2 3 4 5 6 
#
# 1 0.122026 -0.105895 -0.006667 0.000000 0.000000 0.000000
# 2 -0.105895 0.122028 -0.006668 0.000000 0.000000 0.000000
# 3 -0.006667 -0.006668 0.010737 0.000000 0.000000 0.000000
# 4 0.000000 0.000000 0.000000 0.009020 0.000000 0.000000
# 5 0.000000 0.000000 0.000000 0.000000 0.009021 0.000000
# 6 0.000000 0.000000 0.000000 0.000000 0.000000 0.038095
#
#
# Mechanical properties :
#
#
# Convention : Reuss Voigt Hill
#
# Bulk Modulus (GPa) = 61.23101 84.71158 72.97129
# Shear Modulus (GPa) = 9.01178 56.49019 32.75098
#
# Velocity S-wave (km/s) = 2.24071 5.61004 4.27161
# Velocity P-wave (km/s) = 6.38813 9.44241 8.06124
#
# Compressibility (1/GPa) = 0.01633160
#
# Stress axis : x y z
#
# Youngs Moduli (GPa) = 8.19500 8.19484 93.13523
#
# Poissons Ratio (x) = 0.86780 0.62089
# Poissons Ratio (y) = 0.86781 0.62099
# Poissons Ratio (z) = 0.05463 0.05464
#
# Static dielectric constant tensor:
#      x y z
#    x 1.599880 0.000000 0.000000 
#    y 0.000000 1.599880 0.000000 
#    z 0.000000 0.000000 1.596400 
# 
# From -- ./inp_files/5970.got.cif
#   From: 2010.05.17/outbox.cif.g08.bks.cpg/sg115_3_cif.got.tgz:5970.got - 2010.05.20 11:07:42.
