data_PCOD9556010
_publ_section_title
;
Structure prediction by ZEFSAII (Michael W. Deem and Ramdas Pophale) SiO2 
 PCOD9556010
Probable space group: P -4 21 C
;
_chemical_formula_sum "Si O2"
_cell_formula_units_Z 50
_cell_length_a 9.028646
_cell_length_b 9.028646
_cell_length_c 28.682442
_cell_angle_alpha 90.000000
_cell_angle_beta 90.000000
_cell_angle_gamma 90.000000
_cell_volume 2338.090809
_symmetry_space_group_name_H-M "P -4 21 C"
_symmetry_group_IT_number 114
_symmetry_cell_setting 'tetragonal'
loop_
_space_group_symop_operation_xyz
x,y,z
y,-x,-z
-x,-y,z
-y,x,-z
1/2+x,1/2-y,1/2-z
1/2-x,1/2+y,1/2-z
1/2-y,1/2-x,1/2+z
1/2+y,1/2+x,1/2+z
loop_
_atom_site_type_symbol
_atom_site_label
_atom_site_fract_x
_atom_site_fract_y
_atom_site_fract_z
Si Si1 0.151735 0.543731 0.545085
Si Si2 0.500000 0.500000 0.000000
Si Si3 0.339878 0.506340 0.709488
Si Si4 0.865763 0.305018 0.643834
Si Si5 0.286048 0.339810 0.201022
Si Si6 0.217589 0.769561 0.466498
Si Si7 0.684098 0.487260 0.883558
O O1 0.108363 0.619228 0.593967
O O2 0.227644 0.660733 0.510707
O O3 0.227717 0.384309 0.553721
O O4 0.000000 0.500000 0.519620
O O5 0.655508 0.566463 0.019617
O O6 0.500000 0.500000 0.686413
O O7 0.231808 0.590155 0.675146
O O8 0.364386 0.603266 0.756050
O O9 0.265430 0.346781 0.717615
O O10 0.010633 0.272189 0.675520
O O11 0.781440 0.153987 0.630401
O O12 0.384947 0.274335 0.159764
O O13 0.091717 0.739449 0.427366
O O14 0.500000 0.500000 0.890343
#
# Coordination Sequence:
#
# PCOD9556010 Si02
#       7
#     8   2   8   8   8   8   8
#     4  12  25  43  70 101 138 187 241 293 363 438
#     4  12  20  40  68 100 124 176 236 292 336 400
#     4  12  24  42  67 104 141 179 229 291 359 422
#     4  11  24  46  72 102 137 189 240 289 353 435
#     4  11  23  43  71 101 137 186 231 290 352 431
#     4  12  24  42  68 101 136 181 231 300 356 423
#     4  10  20  41  71  99 127 176 240 288 337 414
#
# _framework density 21.384968000000001
#
# number of rings (size 3 to 8) (size 9 to 14) (size 15 to 20)
#    0.000    0.640    2.400    8.640    0.000    0.320 
#    5.760    2.400    0.000    0.000    0.000    0.000 
#    0.000    0.000    0.000    0.000    0.000    0.000 
#
# Total GULP energy -278790.672685 kJ/mol
# GULP energy per Si atom -5575.813454 kJ/mol
# Density = 2.133629 g / cm^3
# Si number density = 21.384968 Si / 1000 Ang^3
#
#
#
# Elastic Constant Matrix: (Units=GPa)
#
#
# Indices 1 2 3 4 5 6 
#
# 1 90.9471 32.7571 17.7393 0.0000 0.0000 0.0000
# 2 32.7571 90.9471 17.7393 0.0000 0.0000 0.0000
# 3 17.7393 17.7393 61.0312 0.0000 0.0000 0.0000
# 4 0.0000 0.0000 0.0000 27.1070 0.0000 0.0000
# 5 0.0000 0.0000 0.0000 0.0000 27.1070 0.0000
# 6 0.0000 0.0000 0.0000 0.0000 0.0000 12.8055
#
#
#
# Elastic Compliance Matrix: (Units=1/GPa)
#
#
# Indices 1 2 3 4 5 6 
#
# 1 0.013002 -0.004183 -0.002563 0.000000 0.000000 0.000000
# 2 -0.004183 0.013002 -0.002563 0.000000 0.000000 0.000000
# 3 -0.002563 -0.002563 0.017875 0.000000 0.000000 0.000000
# 4 0.000000 0.000000 0.000000 0.036891 0.000000 0.000000
# 5 0.000000 0.000000 0.000000 0.000000 0.036891 0.000000
# 6 0.000000 0.000000 0.000000 0.000000 0.000000 0.078091
#
#
# Mechanical properties :
#
#
# Convention : Reuss Voigt Hill
#
# Bulk Modulus (GPa) = 39.58858 42.15523 40.87191
# Shear Modulus (GPa) = 22.44249 25.04987 23.74618
#
# Velocity S-wave (km/s) = 3.24304 3.42625 3.33590
# Velocity P-wave (km/s) = 5.70750 5.95043 5.83023
#
# Compressibility (1/GPa) = 0.02525981
#
# Stress axis : x y z
#
# Youngs Moduli (GPa) = 76.91113 76.91113 55.94353
#
# Poissons Ratio (x) = 0.32172 0.14340
# Poissons Ratio (y) = 0.32172 0.14340
# Poissons Ratio (z) = 0.19715 0.19715
#
# Static dielectric constant tensor:
#      x y z
#    x 1.878040 0.000000 0.000000 
#    y 0.000000 1.878040 0.000000 
#    z 0.000000 0.000000 1.826320 
# 
# From -- ./inp_files/4021.got.cif
#   From: 2010.05.17/outbox.cif.g08.bks.cpg/sg114_3_cif.got.tgz:4021.got - 2010.05.20 11:04:54.
