data_PCOD9556598
_publ_section_title
;
Structure prediction by ZEFSAII (Michael W. Deem and Ramdas Pophale) SiO2 
 PCOD9556598
Probable space group: P -4 M 2
;
_chemical_formula_sum "Si O2"
_cell_formula_units_Z 40
_cell_length_a 8.015957
_cell_length_b 8.015957
_cell_length_c 30.057940
_cell_angle_alpha 90.000000
_cell_angle_beta 90.000000
_cell_angle_gamma 90.000000
_cell_volume 1931.389966
_symmetry_space_group_name_H-M "P -4 M 2"
_symmetry_group_IT_number 115
_symmetry_cell_setting 'tetragonal'
loop_
_space_group_symop_operation_xyz
x,y,z
y,-x,-z
-x,-y,z
-y,x,-z
y,x,-z
-y,-x,-z
-x,y,z
x,-y,z
loop_
_atom_site_type_symbol
_atom_site_label
_atom_site_fract_x
_atom_site_fract_y
_atom_site_fract_z
Si Si1 0.202078 0.688031 0.548534
Si Si2 0.296895 0.303824 0.951909
Si Si3 0.321807 0.800607 0.235898
Si Si4 0.203504 0.000000 0.608524
Si Si5 0.000000 0.794807 0.289027
Si Si6 0.187716 0.298525 0.144107
O O1 0.276610 0.723390 0.500000
O O2 0.244082 0.500000 0.563136
O O3 0.000000 0.698291 0.544562
O O4 0.256114 0.834012 0.582051
O O5 0.500000 0.289228 0.953073
O O6 0.258020 0.500000 0.949382
O O7 0.238823 0.224217 0.905934
O O8 0.237848 0.237848 0.000000
O O9 0.500000 0.733748 0.251446
O O10 0.302119 0.765807 0.183513
O O11 0.163716 0.735345 0.262882
O O12 0.322060 0.000000 0.241770
O O13 0.256918 0.000000 0.659677
O O14 0.000000 0.000000 0.608609
O O15 0.000000 0.000000 0.288144
O O16 0.200234 0.500000 0.143265
O O17 0.000000 0.250304 0.156155
#
# Coordination Sequence:
#
# PCOD9556598 Si02
#       6
#     8   8   8   4   4   8
#     4  10  19  32  55  84 114 151 192 235 286 343
#     4   8  14  26  44  65  91 124 162 209 265 323
#     4  10  20  34  54  77 104 142 185 230 283 340
#     4   9  18  32  55  83 117 152 189 239 286 334
#     4   9  18  34  53  79 113 147 182 234 288 332
#     4  10  19  31  50  75 101 133 176 222 272 332
#
# _framework density 20.710474000000001
#
# number of rings (size 3 to 8) (size 9 to 14) (size 15 to 20)
#    0.000    2.600    2.000    1.200    0.000    2.200 
#    0.000    5.000    0.000    6.000    0.000    2.800 
#    0.000    0.000    0.000    0.000    0.000    0.000 
#
# Total GULP energy -223181.537146 kJ/mol
# GULP energy per Si atom -5579.538429 kJ/mol
# Density = 2.066334 g / cm^3
# Si number density = 20.710474 Si / 1000 Ang^3
#
#
#
# Elastic Constant Matrix: (Units=GPa)
#
#
# Indices 1 2 3 4 5 6 
#
# 1 71.7046 29.2923 45.3511 0.0000 0.0000 0.0000
# 2 29.2923 71.7046 45.3511 0.0000 0.0000 0.0000
# 3 45.3511 45.3511 144.3300 0.0000 0.0000 0.0000
# 4 0.0000 0.0000 0.0000 24.3642 0.0000 0.0000
# 5 0.0000 0.0000 0.0000 0.0000 24.3642 0.0000
# 6 0.0000 0.0000 0.0000 0.0000 0.0000 7.8564
#
#
#
# Elastic Compliance Matrix: (Units=1/GPa)
#
#
# Indices 1 2 3 4 5 6 
#
# 1 0.018686 -0.004892 -0.004334 0.000000 0.000000 0.000000
# 2 -0.004892 0.018686 -0.004334 0.000000 0.000000 0.000000
# 3 -0.004334 -0.004334 0.009652 0.000000 0.000000 0.000000
# 4 0.000000 0.000000 0.000000 0.041044 0.000000 0.000000
# 5 0.000000 0.000000 0.000000 0.000000 0.041044 0.000000
# 6 0.000000 0.000000 0.000000 0.000000 0.000000 0.127285
#
#
# Mechanical properties :
#
#
# Convention : Reuss Voigt Hill
#
# Bulk Modulus (GPa) = 50.24400 58.63646 54.44023
# Shear Modulus (GPa) = 17.23231 22.49994 19.86613
#
# Velocity S-wave (km/s) = 2.88767 3.29964 3.10051
# Velocity P-wave (km/s) = 5.95240 6.54910 6.25787
#
# Compressibility (1/GPa) = 0.01990288
#
# Stress axis : x y z
#
# Youngs Moduli (GPa) = 53.51621 53.51621 103.60158
#
# Poissons Ratio (x) = 0.26181 0.44903
# Poissons Ratio (y) = 0.26181 0.44903
# Poissons Ratio (z) = 0.23195 0.23195
#
# Static dielectric constant tensor:
#      x y z
#    x 1.747790 0.000000 0.000000 
#    y 0.000000 1.747790 0.000000 
#    z 0.000000 0.000000 1.709510 
# 
# From -- ./inp_files/5576.got.cif
#   From: 2010.05.17/outbox.cif.g08.bks.cpg/sg115_3_cif.got.tgz:5576.got - 2010.05.20 11:07:42.
