data_PCOD9556339
_publ_section_title
;
Structure prediction by ZEFSAII (Michael W. Deem and Ramdas Pophale) SiO2 
 PCOD9556339
Probable space group: P -4 21 C
;
_chemical_formula_sum "Si O2"
_cell_formula_units_Z 40
_cell_length_a 8.354209
_cell_length_b 8.354209
_cell_length_c 24.263109
_cell_angle_alpha 90.000000
_cell_angle_beta 90.000000
_cell_angle_gamma 90.000000
_cell_volume 1693.390508
_symmetry_space_group_name_H-M "P -4 21 C"
_symmetry_group_IT_number 114
_symmetry_cell_setting 'tetragonal'
loop_
_space_group_symop_operation_xyz
x,y,z
y,-x,-z
-x,-y,z
-y,x,-z
1/2+x,1/2-y,1/2-z
1/2-x,1/2+y,1/2-z
1/2-y,1/2-x,1/2+z
1/2+y,1/2+x,1/2+z
loop_
_atom_site_type_symbol
_atom_site_label
_atom_site_fract_x
_atom_site_fract_y
_atom_site_fract_z
Si Si1 0.328254 0.073643 0.722417
Si Si2 0.826898 0.426752 0.580894
Si Si3 0.564743 0.323747 0.122324
Si Si4 0.567185 0.325880 0.322128
Si Si5 0.743798 0.408020 0.982069
O O1 0.311042 0.253729 0.700791
O O2 0.500000 0.000000 0.709875
O O3 0.209034 0.968459 0.685587
O O4 0.292597 0.044135 0.786312
O O5 0.807318 0.249372 0.606694
O O6 0.708575 0.544430 0.613065
O O7 0.826125 0.387127 0.515786
O O8 0.000000 0.500000 0.593194
O O9 0.500000 0.500000 0.109769
O O10 0.455520 0.219071 0.080650
O O11 0.500000 0.500000 0.310280
O O12 0.581304 0.302468 0.989795
#
# Coordination Sequence:
#
# PCOD9556339 Si02
#       5
#     8   8   8   8   8
#     4  12  26  45  71 101 135 184 227 284 355 424
#     4  11  22  38  66  99 136 181 228 286 342 400
#     4  11  20  39  69  99 135 179 235 282 338 413
#     4  12  26  46  67 100 142 175 231 287 351 423
#     4   9  17  36  64  95 129 175 232 277 326 407
#
# _framework density 23.621248000000001
#
# number of rings (size 3 to 8) (size 9 to 14) (size 15 to 20)
#    0.000    1.000    4.000    6.000    0.000    0.800 
#    0.000    0.000    0.000    0.000    0.000    0.000 
#    0.000    0.000    0.000    0.000    0.000    0.000 
#
# Total GULP energy -223653.449944 kJ/mol
# GULP energy per Si atom -5591.336249 kJ/mol
# Density = 2.356748 g / cm^3
# Si number density = 23.621248 Si / 1000 Ang^3
#
#
#
# Elastic Constant Matrix: (Units=GPa)
#
#
# Indices 1 2 3 4 5 6 
#
# 1 70.7973 15.0572 12.8965 0.0000 0.0000 0.0000
# 2 15.0572 70.7973 12.8965 0.0000 0.0000 0.0000
# 3 12.8965 12.8965 108.5266 0.0000 0.0000 0.0000
# 4 0.0000 0.0000 0.0000 37.3069 0.0000 0.0000
# 5 0.0000 0.0000 0.0000 0.0000 37.3069 0.0000
# 6 0.0000 0.0000 0.0000 0.0000 0.0000 25.9587
#
#
#
# Elastic Compliance Matrix: (Units=1/GPa)
#
#
# Indices 1 2 3 4 5 6 
#
# 1 0.015010 -0.002931 -0.001435 0.000000 0.000000 0.000000
# 2 -0.002931 0.015010 -0.001435 0.000000 0.000000 0.000000
# 3 -0.001435 -0.001435 0.009555 0.000000 0.000000 0.000000
# 4 0.000000 0.000000 0.000000 0.026805 0.000000 0.000000
# 5 0.000000 0.000000 0.000000 0.000000 0.026805 0.000000
# 6 0.000000 0.000000 0.000000 0.000000 0.000000 0.038523
#
#
# Mechanical properties :
#
#
# Convention : Reuss Voigt Hill
#
# Bulk Modulus (GPa) = 35.75043 36.86907 36.30975
# Shear Modulus (GPa) = 32.75817 34.06591 33.41204
#
# Velocity S-wave (km/s) = 3.72803 3.80171 3.76505
# Velocity P-wave (km/s) = 5.80505 5.90872 5.85712
#
# Compressibility (1/GPa) = 0.02797170
#
# Stress axis : x y z
#
# Youngs Moduli (GPa) = 66.62389 66.62389 104.65217
#
# Poissons Ratio (x) = 0.19526 0.15021
# Poissons Ratio (y) = 0.19526 0.15021
# Poissons Ratio (z) = 0.09563 0.09563
#
# Static dielectric constant tensor:
#      x y z
#    x 1.817890 0.000000 0.000000 
#    y 0.000000 1.817890 0.000000 
#    z 0.000000 0.000000 1.893050 
# 
# From -- ./inp_files/3640.got.cif
#   From: 2010.05.17/outbox.cif.g08.bks.cpg/sg114_2_cif.got.tgz:3640.got - 2010.05.20 11:04:54.
