data_PCOD9556190
_publ_section_title
;
Structure prediction by ZEFSAII (Michael W. Deem and Ramdas Pophale) SiO2 
 PCOD9556190
Probable space group: P -4 21 C
;
_chemical_formula_sum "Si O2"
_cell_formula_units_Z 48
_cell_length_a 8.480482
_cell_length_b 8.480482
_cell_length_c 32.555547
_cell_angle_alpha 90.000000
_cell_angle_beta 90.000000
_cell_angle_gamma 90.000000
_cell_volume 2341.348547
_symmetry_space_group_name_H-M "P -4 21 C"
_symmetry_group_IT_number 114
_symmetry_cell_setting 'tetragonal'
loop_
_space_group_symop_operation_xyz
x,y,z
y,-x,-z
-x,-y,z
-y,x,-z
1/2+x,1/2-y,1/2-z
1/2-x,1/2+y,1/2-z
1/2-y,1/2-x,1/2+z
1/2+y,1/2+x,1/2+z
loop_
_atom_site_type_symbol
_atom_site_label
_atom_site_fract_x
_atom_site_fract_y
_atom_site_fract_z
Si Si1 0.088528 0.759352 0.511018
Si Si2 0.000000 0.000000 0.124761
Si Si3 0.236120 0.160919 0.185712
Si Si4 0.392158 0.848496 0.744173
Si Si5 0.725638 0.239023 0.592097
Si Si6 0.500000 0.000000 0.546612
Si Si7 0.817865 0.049909 0.670650
O O1 0.141746 0.732852 0.557685
O O2 0.906184 0.812321 0.507191
O O3 0.108622 0.605558 0.483216
O O4 0.886150 0.111606 0.098867
O O5 0.103705 0.115715 0.153401
O O6 0.211699 0.314422 0.214205
O O7 0.401133 0.200134 0.163237
O O8 0.245835 0.010164 0.216255
O O9 0.245549 0.888508 0.714343
O O10 0.500000 0.000000 0.753433
O O11 0.793502 0.179560 0.635446
O O12 0.618047 0.099455 0.574145
O O13 0.000000 0.000000 0.671617
#
# Coordination Sequence:
#
# PCOD9556190 Si02
#       7
#     8   4   8   8   8   4   8
#     4   9  21  42  69  97 124 166 219 262 316 400
#     4  12  26  40  63  98 144 170 210 278 339 386
#     4  11  24  42  65  93 134 176 226 273 329 389
#     4  10  23  40  67  92 128 178 228 275 325 388
#     4  11  24  43  66  98 132 172 211 273 328 392
#     4  10  22  42  72  92 128 170 216 256 332 398
#     4  11  24  42  66  96 126 177 221 274 329 385
#
# _framework density 20.501007000000001
#
# number of rings (size 3 to 8) (size 9 to 14) (size 15 to 20)
#    0.000    1.500    1.667    2.000   11.667    4.000 
#    3.000    0.000    0.000    0.000    0.000    0.000 
#    0.000    0.000    0.000    0.000    0.000    0.000 
#
# Total GULP energy -268163.370807 kJ/mol
# GULP energy per Si atom -5586.736892 kJ/mol
# Density = 2.045435 g / cm^3
# Si number density = 20.501007 Si / 1000 Ang^3
#
#
#
# Elastic Constant Matrix: (Units=GPa)
#
#
# Indices 1 2 3 4 5 6 
#
# 1 70.5471 6.9393 35.8218 0.0000 0.0000 0.0000
# 2 6.9393 70.5471 35.8218 0.0000 0.0000 0.0000
# 3 35.8218 35.8218 66.1084 0.0000 0.0000 0.0000
# 4 0.0000 0.0000 0.0000 8.6309 0.0000 0.0000
# 5 0.0000 0.0000 0.0000 0.0000 8.6309 0.0000
# 6 0.0000 0.0000 0.0000 0.0000 0.0000 22.6241
#
#
#
# Elastic Compliance Matrix: (Units=1/GPa)
#
#
# Indices 1 2 3 4 5 6 
#
# 1 0.020792 0.005071 -0.014014 0.000000 0.000000 0.000000
# 2 0.005071 0.020792 -0.014014 0.000000 0.000000 0.000000
# 3 -0.014014 -0.014014 0.030314 0.000000 0.000000 0.000000
# 4 0.000000 0.000000 0.000000 0.115863 0.000000 0.000000
# 5 0.000000 0.000000 0.000000 0.000000 0.115863 0.000000
# 6 0.000000 0.000000 0.000000 0.000000 0.000000 0.044201
#
#
# Mechanical properties :
#
#
# Convention : Reuss Voigt Hill
#
# Bulk Modulus (GPa) = 38.48621 40.48538 39.48580
# Shear Modulus (GPa) = 12.42539 16.55181 14.48860
#
# Velocity S-wave (km/s) = 2.46455 2.84450 2.66132
# Velocity P-wave (km/s) = 5.18771 5.52984 5.36150
#
# Compressibility (1/GPa) = 0.02598333
#
# Stress axis : x y z
#
# Youngs Moduli (GPa) = 48.09515 48.09515 32.98786
#
# Poissons Ratio (x) = -0.24388 0.46230
# Poissons Ratio (y) = -0.24388 0.46230
# Poissons Ratio (z) = 0.67401 0.67401
#
# Static dielectric constant tensor:
#      x y z
#    x 1.781850 0.000000 0.000000 
#    y 0.000000 1.781850 0.000000 
#    z 0.000000 0.000000 1.709720 
# 
# From -- ./inp_files/4022.got.cif
#   From: 2010.05.17/outbox.cif.g08.bks.cpg/sg114_3_cif.got.tgz:4022.got - 2010.05.20 11:04:54.
