data_PCOD9556570
_publ_section_title
;
Structure prediction by ZEFSAII (Michael W. Deem and Ramdas Pophale) SiO2 
 PCOD9556570
Probable space group: P -4 M 2
;
_chemical_formula_sum "Si O2"
_cell_formula_units_Z 48
_cell_length_a 14.253190
_cell_length_b 14.253190
_cell_length_c 16.049916
_cell_angle_alpha 90.000000
_cell_angle_beta 90.000000
_cell_angle_gamma 90.000000
_cell_volume 3260.595409
_symmetry_space_group_name_H-M "P -4 M 2"
_symmetry_group_IT_number 115
_symmetry_cell_setting 'tetragonal'
loop_
_space_group_symop_operation_xyz
x,y,z
y,-x,-z
-x,-y,z
-y,x,-z
y,x,-z
-y,-x,-z
-x,y,z
x,-y,z
loop_
_atom_site_type_symbol
_atom_site_label
_atom_site_fract_x
_atom_site_fract_y
_atom_site_fract_z
Si Si1 0.199520 0.887660 0.583175
Si Si2 0.217264 0.887233 0.257790
Si Si3 0.112796 0.395021 0.491649
Si Si4 0.793920 0.390498 0.673863
Si Si5 0.885947 0.107938 0.908276
Si Si6 0.614025 0.393529 0.405569
O O1 0.145436 0.854565 0.500000
O O2 0.156101 0.838316 0.663713
O O3 0.308630 0.861168 0.567494
O O4 0.192631 0.000000 0.591207
O O5 0.322459 0.848873 0.265201
O O6 0.169161 0.858888 0.171023
O O7 0.215357 0.000000 0.264604
O O8 0.138026 0.500000 0.462022
O O9 0.157905 0.382472 0.582616
O O10 0.000000 0.391379 0.501600
O O11 0.796700 0.500000 0.697253
O O12 0.686380 0.359069 0.659357
O O13 0.000000 0.106471 0.910949
O O14 0.855164 0.000000 0.896872
O O15 0.856825 0.143176 0.000000
O O16 0.637654 0.362347 0.500000
O O17 0.500000 0.395707 0.405772
O O18 0.646430 0.500000 0.390728
#
# Coordination Sequence:
#
# PCOD9556570 Si02
#       6
#     8   8   8   8   8   8
#     4  11  21  31  42  60  89 123 154 183 221 267
#     4  11  21  31  45  67  92 119 152 188 224 270
#     4   9  18  32  45  56  79 120 162 192 216 253
#     4  10  19  29  43  62  87 119 153 191 227 263
#     4   8  15  30  51  72  92 113 140 179 228 277
#     4   8  15  27  41  58  80 109 149 195 236 265
#
# _framework density 14.721238
#
# number of rings (size 3 to 8) (size 9 to 14) (size 15 to 20)
#    0.000    2.500    1.667    2.500    2.333    2.833 
#    0.000    0.000    0.000    0.000    0.000    2.333 
#    0.000    5.333    0.000    0.000    0.000    0.000 
#
# Total GULP energy -267604.699261 kJ/mol
# GULP energy per Si atom -5575.097901 kJ/mol
# Density = 1.468773 g / cm^3
# Si number density = 14.721238 Si / 1000 Ang^3
#
#
#
# Elastic Constant Matrix: (Units=GPa)
#
#
# Indices 1 2 3 4 5 6 
#
# 1 75.1439 32.3911 42.1074 0.0000 0.0000 0.0000
# 2 32.3911 75.1426 42.1070 0.0000 0.0000 0.0000
# 3 42.1074 42.1070 96.3654 0.0000 0.0000 0.0000
# 4 0.0000 0.0000 0.0000 8.1212 0.0000 0.0000
# 5 0.0000 0.0000 0.0000 0.0000 8.1209 0.0000
# 6 0.0000 0.0000 0.0000 0.0000 0.0000 14.2222
#
#
#
# Elastic Compliance Matrix: (Units=1/GPa)
#
#
# Indices 1 2 3 4 5 6 
#
# 1 0.018764 -0.004627 -0.006177 0.000000 0.000000 0.000000
# 2 -0.004627 0.018764 -0.006177 0.000000 0.000000 0.000000
# 3 -0.006177 -0.006177 0.015775 0.000000 0.000000 0.000000
# 4 0.000000 0.000000 0.000000 0.123135 0.000000 0.000000
# 5 0.000000 0.000000 0.000000 0.000000 0.123140 0.000000
# 6 0.000000 0.000000 0.000000 0.000000 0.000000 0.070313
#
#
# Mechanical properties :
#
#
# Convention : Reuss Voigt Hill
#
# Bulk Modulus (GPa) = 51.70468 53.31810 52.51139
# Shear Modulus (GPa) = 12.18622 14.76261 13.47441
#
# Velocity S-wave (km/s) = 2.88027 3.17015 3.02868
# Velocity P-wave (km/s) = 6.80147 7.04961 6.92665
#
# Compressibility (1/GPa) = 0.01934061
#
# Stress axis : x y z
#
# Youngs Moduli (GPa) = 53.29465 53.29361 63.38962
#
# Poissons Ratio (x) = 0.24658 0.39157
# Poissons Ratio (y) = 0.24659 0.39157
# Poissons Ratio (z) = 0.32921 0.32921
#
# Static dielectric constant tensor:
#      x y z
#    x 1.523300 0.000000 0.000000 
#    y 0.000000 1.523300 0.000000 
#    z 0.000000 0.000000 1.452260 
# 
# From -- ./inp_files/3712.got.cif
#   From: 2010.05.17/outbox.cif.g08.bks.cpg/sg115_2_cif.got.tgz:3712.got - 2010.05.20 11:07:42.
