data_PCOD9556721
_publ_section_title
;
Structure prediction by ZEFSAII (Michael W. Deem and Ramdas Pophale) SiO2 
 PCOD9556721
Probable space group: P -4 M 2
;
_chemical_formula_sum "Si O2"
_cell_formula_units_Z 29
_cell_length_a 12.021288
_cell_length_b 12.021288
_cell_length_c 12.418960
_cell_angle_alpha 90.000000
_cell_angle_beta 90.000000
_cell_angle_gamma 90.000000
_cell_volume 1794.680864
_symmetry_space_group_name_H-M "P -4 M 2"
_symmetry_group_IT_number 115
_symmetry_cell_setting 'tetragonal'
loop_
_space_group_symop_operation_xyz
x,y,z
y,-x,-z
-x,-y,z
-y,x,-z
y,x,-z
-y,-x,-z
-x,y,z
x,-y,z
loop_
_atom_site_type_symbol
_atom_site_label
_atom_site_fract_x
_atom_site_fract_y
_atom_site_fract_z
Si Si1 0.500000 0.500000 0.000000
Si Si2 0.331957 0.500000 0.183358
Si Si3 0.633018 0.633018 0.500000
Si Si4 0.739676 0.627247 0.722629
Si Si5 0.500000 0.129418 0.946594
Si Si6 0.724121 0.867681 0.080750
O O1 0.500000 0.610885 0.932084
O O2 0.371583 0.612434 0.237044
O O3 0.201638 0.500000 0.161075
O O4 0.645563 0.500000 0.472670
O O5 0.718601 0.655920 0.597511
O O6 0.783313 0.500000 0.730619
O O7 0.808324 0.707190 0.802949
O O8 0.500000 0.000000 0.920221
O O9 0.391599 0.153287 0.017774
O O10 0.739544 0.000000 0.093967
O O11 0.815504 0.815504 0.000000
#
# Coordination Sequence:
#
# PCOD9556721 Si02
#       6
#     1   4   4   8   4   8
#     4  12  20  20  40  78 104 124 172 212 250 324
#     4  12  18  28  46  74 104 140 171 211 263 320
#     4   9  18  30  46  76 112 143 178 212 260 317
#     4  11  19  31  50  77 110 142 174 217 263 319
#     4  10  20  32  47  72 105 134 166 211 262 318
#     4  11  22  35  53  77 106 141 178 217 266 319
#
# _framework density 16.158863
#
# number of rings (size 3 to 8) (size 9 to 14) (size 15 to 20)
#    0.000    1.241    6.897    1.655    0.000    0.276 
#    0.000    0.000    0.000    3.310    0.000    0.000 
#    0.000    0.000    0.000    0.000    0.000    0.000 
#
# Total GULP energy -161538.524357 kJ/mol
# GULP energy per Si atom -5570.293943 kJ/mol
# Density = 1.612208 g / cm^3
# Si number density = 16.158863 Si / 1000 Ang^3
#
#
#
# Elastic Constant Matrix: (Units=GPa)
#
#
# Indices 1 2 3 4 5 6 
#
# 1 62.1701 23.0507 37.8651 0.0000 0.0000 0.0000
# 2 23.0507 62.1701 37.8651 0.0000 0.0000 0.0000
# 3 37.8651 37.8651 100.9413 0.0000 0.0000 0.0000
# 4 0.0000 0.0000 0.0000 11.3686 0.0000 0.0000
# 5 0.0000 0.0000 0.0000 0.0000 11.3686 0.0000
# 6 0.0000 0.0000 0.0000 0.0000 0.0000 14.9522
#
#
#
# Elastic Compliance Matrix: (Units=1/GPa)
#
#
# Indices 1 2 3 4 5 6 
#
# 1 0.021582 -0.003981 -0.006603 0.000000 0.000000 0.000000
# 2 -0.003981 0.021582 -0.006603 0.000000 0.000000 0.000000
# 3 -0.006603 -0.006603 0.014860 0.000000 0.000000 0.000000
# 4 0.000000 0.000000 0.000000 0.087962 0.000000 0.000000
# 5 0.000000 0.000000 0.000000 0.000000 0.087962 0.000000
# 6 0.000000 0.000000 0.000000 0.000000 0.000000 0.066880
#
#
# Mechanical properties :
#
#
# Convention : Reuss Voigt Hill
#
# Bulk Modulus (GPa) = 42.27838 46.98258 44.63048
# Shear Modulus (GPa) = 14.57368 15.97124 15.27246
#
# Velocity S-wave (km/s) = 3.00642 3.14728 3.07766
# Velocity P-wave (km/s) = 6.18647 6.50736 6.34894
#
# Compressibility (1/GPa) = 0.02365275
#
# Stress axis : x y z
#
# Youngs Moduli (GPa) = 46.33444 46.33444 67.29302
#
# Poissons Ratio (x) = 0.18444 0.44432
# Poissons Ratio (y) = 0.18444 0.44432
# Poissons Ratio (z) = 0.30593 0.30593
#
# Static dielectric constant tensor:
#      x y z
#    x 1.616940 0.000000 0.000000 
#    y 0.000000 1.616940 0.000000 
#    z 0.000000 0.000000 1.591520 
# 
# From -- ./inp_files/2466.got.cif
#   From: 2010.05.17/outbox.cif.g08.bks.cpg/sg115_2_cif.got.tgz:2466.got - 2010.05.20 11:07:42.
