data_PCOD9556321
_publ_section_title
;
Structure prediction by ZEFSAII (Michael W. Deem and Ramdas Pophale) SiO2 
 PCOD9556321
Probable space group: P -4 21 C
;
_chemical_formula_sum "Si O2"
_cell_formula_units_Z 34
_cell_length_a 8.566359
_cell_length_b 8.566359
_cell_length_c 19.432916
_cell_angle_alpha 90.000000
_cell_angle_beta 90.000000
_cell_angle_gamma 90.000000
_cell_volume 1426.036085
_symmetry_space_group_name_H-M "P -4 21 C"
_symmetry_group_IT_number 114
_symmetry_cell_setting 'tetragonal'
loop_
_space_group_symop_operation_xyz
x,y,z
y,-x,-z
-x,-y,z
-y,x,-z
1/2+x,1/2-y,1/2-z
1/2-x,1/2+y,1/2-z
1/2-y,1/2-x,1/2+z
1/2+y,1/2+x,1/2+z
loop_
_atom_site_type_symbol
_atom_site_label
_atom_site_fract_x
_atom_site_fract_y
_atom_site_fract_z
Si Si1 0.250963 0.914631 0.907844
Si Si2 0.759697 0.736617 0.849304
Si Si3 0.751772 0.066001 0.515802
Si Si4 0.557748 0.180795 0.786144
Si Si5 0.000000 0.000000 0.000000
O O1 0.298338 0.819159 0.840137
O O2 0.239117 0.095016 0.886065
O O3 0.386124 0.879806 0.962271
O O4 0.092995 0.883319 0.950132
O O5 0.789518 0.604365 0.905844
O O6 0.586350 0.721408 0.816552
O O7 0.882373 0.734114 0.787521
O O8 0.894894 0.182417 0.496583
O O9 0.500000 0.000000 0.782644
#
# Coordination Sequence:
#
# PCOD9556321 Si02
#       5
#     8   8   8   8   2
#     4  11  24  44  71 104 145 181 241 293 359 415
#     4  11  24  47  72 103 141 192 237 298 356 423
#     4  11  24  45  72 102 144 189 235 292 360 426
#     4  10  25  47  69 104 148 190 236 299 359 432
#     4  12  24  40  76 116 136 192 238 316 348 428
#
# _framework density 23.842312
#
# number of rings (size 3 to 8) (size 9 to 14) (size 15 to 20)
#    0.000    1.176    4.706    0.000    3.294    3.765 
#    4.235    0.000    0.000    0.000    0.000    0.000 
#    0.000    0.000    0.000    0.000    0.000    0.000 
#
# Total GULP energy -190348.045107 kJ/mol
# GULP energy per Si atom -5598.471915 kJ/mol
# Density = 2.378805 g / cm^3
# Si number density = 23.842312 Si / 1000 Ang^3
#
#
#
# Elastic Constant Matrix: (Units=GPa)
#
#
# Indices 1 2 3 4 5 6 
#
# 1 49.8827 16.7230 37.4507 0.0000 0.0000 0.0000
# 2 16.7230 49.8827 37.4507 0.0000 0.0000 0.0000
# 3 37.4507 37.4507 176.0397 0.0000 0.0000 0.0000
# 4 0.0000 0.0000 0.0000 28.1245 0.0000 0.0000
# 5 0.0000 0.0000 0.0000 0.0000 28.1245 0.0000
# 6 0.0000 0.0000 0.0000 0.0000 0.0000 28.4025
#
#
#
# Elastic Compliance Matrix: (Units=1/GPa)
#
#
# Indices 1 2 3 4 5 6 
#
# 1 0.024946 -0.005211 -0.004198 0.000000 0.000000 0.000000
# 2 -0.005211 0.024946 -0.004198 0.000000 0.000000 0.000000
# 3 -0.004198 -0.004198 0.007467 0.000000 0.000000 0.000000
# 4 0.000000 0.000000 0.000000 0.035556 0.000000 0.000000
# 5 0.000000 0.000000 0.000000 0.000000 0.035556 0.000000
# 6 0.000000 0.000000 0.000000 0.000000 0.000000 0.035208
#
#
# Mechanical properties :
#
#
# Convention : Reuss Voigt Hill
#
# Bulk Modulus (GPa) = 33.17485 51.00598 42.09042
# Shear Modulus (GPa) = 24.88264 29.20899 27.04581
#
# Velocity S-wave (km/s) = 3.23404 3.50393 3.37168
# Velocity P-wave (km/s) = 5.28108 6.14894 5.73146
#
# Compressibility (1/GPa) = 0.03014331
#
# Stress axis : x y z
#
# Youngs Moduli (GPa) = 40.08643 40.08643 133.92442
#
# Poissons Ratio (x) = 0.20889 0.56228
# Poissons Ratio (y) = 0.20889 0.56228
# Poissons Ratio (z) = 0.16830 0.16830
#
# Static dielectric constant tensor:
#      x y z
#    x 1.925770 0.000000 0.000000 
#    y 0.000000 1.925770 0.000000 
#    z 0.000000 0.000000 1.880170 
# 
# From -- ./inp_files/2916.got.cif
#   From: 2010.05.17/outbox.cif.g08.bks.cpg/sg114_2_cif.got.tgz:2916.got - 2010.05.20 11:04:54.
