data_PCOD9556448
_publ_section_title
;
Structure prediction by ZEFSAII (Michael W. Deem and Ramdas Pophale) SiO2 
 PCOD9556448
Probable space group: P -4 21 C
;
_chemical_formula_sum "Si O2"
_cell_formula_units_Z 28
_cell_length_a 10.794673
_cell_length_b 10.794673
_cell_length_c 10.281322
_cell_angle_alpha 90.000000
_cell_angle_beta 90.000000
_cell_angle_gamma 90.000000
_cell_volume 1198.030688
_symmetry_space_group_name_H-M "P -4 21 C"
_symmetry_group_IT_number 114
_symmetry_cell_setting 'tetragonal'
loop_
_space_group_symop_operation_xyz
x,y,z
y,-x,-z
-x,-y,z
-y,x,-z
1/2+x,1/2-y,1/2-z
1/2-x,1/2+y,1/2-z
1/2-y,1/2-x,1/2+z
1/2+y,1/2+x,1/2+z
loop_
_atom_site_type_symbol
_atom_site_label
_atom_site_fract_x
_atom_site_fract_y
_atom_site_fract_z
Si Si1 0.088348 0.139427 0.073617
Si Si2 0.791049 0.625691 0.980520
Si Si3 0.573058 0.739440 0.822622
Si Si4 0.500000 0.000000 0.696838
O O1 0.132249 0.279284 0.068547
O O2 0.299193 0.290704 0.894347
O O3 0.941829 0.135495 0.049953
O O4 0.576224 0.649106 0.698663
O O5 0.887242 0.548989 0.892796
O O6 0.715001 0.535295 0.074035
O O7 0.550557 0.881282 0.776815
#
# Coordination Sequence:
#
# PCOD9556448 Si02
#       4
#     8   8   8   4
#     4  11  26  49  77 112 159 213 268 339 412 488
#     4  12  28  49  81 121 160 220 273 345 417 502
#     4  12  28  48  81 115 165 208 282 334 417 499
#     4  12  26  54  80 118 168 220 274 346 430 502
#
# _framework density 23.371689
#
# number of rings (size 3 to 8) (size 9 to 14) (size 15 to 20)
#    0.000    0.286    2.857    4.286    8.000    5.143 
#    0.000    0.000    0.000    0.000    0.000    0.000 
#    0.000    0.000    0.000    0.000    0.000    0.000 
#
# Total GULP energy -156691.232677 kJ/mol
# GULP energy per Si atom -5596.115453 kJ/mol
# Density = 2.331849 g / cm^3
# Si number density = 23.371689 Si / 1000 Ang^3
#
#
#
# Elastic Constant Matrix: (Units=GPa)
#
#
# Indices 1 2 3 4 5 6 
#
# 1 103.3365 41.6317 56.1876 0.0000 0.0000 0.0000
# 2 41.6317 103.3365 56.1876 0.0000 0.0000 0.0000
# 3 56.1876 56.1876 110.6279 0.0000 0.0000 0.0000
# 4 0.0000 0.0000 0.0000 39.2377 0.0000 0.0000
# 5 0.0000 0.0000 0.0000 0.0000 39.2377 0.0000
# 6 0.0000 0.0000 0.0000 0.0000 0.0000 49.3720
#
#
#
# Elastic Compliance Matrix: (Units=1/GPa)
#
#
# Indices 1 2 3 4 5 6 
#
# 1 0.013792 -0.002414 -0.005779 0.000000 0.000000 0.000000
# 2 -0.002414 0.013792 -0.005779 0.000000 0.000000 0.000000
# 3 -0.005779 -0.005779 0.014909 0.000000 0.000000 0.000000
# 4 0.000000 0.000000 0.000000 0.025486 0.000000 0.000000
# 5 0.000000 0.000000 0.000000 0.000000 0.025486 0.000000
# 6 0.000000 0.000000 0.000000 0.000000 0.000000 0.020254
#
#
# Mechanical properties :
#
#
# Convention : Reuss Voigt Hill
#
# Bulk Modulus (GPa) = 68.72969 69.47942 69.10455
# Shear Modulus (GPa) = 34.12699 36.45573 35.29136
#
# Velocity S-wave (km/s) = 3.82538 3.95375 3.89009
# Velocity P-wave (km/s) = 6.99875 7.11585 7.05754
#
# Compressibility (1/GPa) = 0.01454975
#
# Stress axis : x y z
#
# Youngs Moduli (GPa) = 72.50667 72.50667 67.07282
#
# Poissons Ratio (x) = 0.17506 0.38759
# Poissons Ratio (y) = 0.17506 0.38759
# Poissons Ratio (z) = 0.41899 0.41899
#
# Static dielectric constant tensor:
#      x y z
#    x 1.879850 0.000000 0.000000 
#    y 0.000000 1.879850 0.000000 
#    z 0.000000 0.000000 1.907390 
# 
# From -- ./inp_files/1278.got.cif
#   From: 2010.05.17/outbox.cif.g08.bks.cpg/sg114_1_cif.got.tgz:1278.got - 2010.05.20 11:04:54.
