data_PCOD9556662
_publ_section_title
;
Structure prediction by ZEFSAII (Michael W. Deem and Ramdas Pophale) SiO2 
 PCOD9556662
Probable space group: P -4 M 2
;
_chemical_formula_sum "Si O2"
_cell_formula_units_Z 48
_cell_length_a 16.862799
_cell_length_b 16.862799
_cell_length_c 10.037169
_cell_angle_alpha 90.000000
_cell_angle_beta 90.000000
_cell_angle_gamma 90.000000
_cell_volume 2854.109055
_symmetry_space_group_name_H-M "P -4 M 2"
_symmetry_group_IT_number 115
_symmetry_cell_setting 'tetragonal'
loop_
_space_group_symop_operation_xyz
x,y,z
y,-x,-z
-x,-y,z
-y,x,-z
y,x,-z
-y,-x,-z
-x,y,z
x,-y,z
loop_
_atom_site_type_symbol
_atom_site_label
_atom_site_fract_x
_atom_site_fract_y
_atom_site_fract_z
Si Si1 0.344031 0.588655 0.121982
Si Si2 0.595178 0.158866 0.485590
Si Si3 0.090753 0.405700 0.792175
Si Si4 0.905139 0.406035 0.226128
Si Si5 0.593358 0.670891 0.381250
Si Si6 0.806455 0.323614 0.007844
O O1 0.338095 0.500000 0.174252
O O2 0.364614 0.644715 0.245569
O O3 0.263465 0.616935 0.052823
O O4 0.405447 0.594554 0.000000
O O5 0.500000 0.164344 0.494223
O O6 0.611792 0.099211 0.364716
O O7 0.619055 0.131191 0.631545
O O8 0.623173 0.245212 0.438737
O O9 0.108505 0.500000 0.812040
O O10 0.000000 0.392892 0.836357
O O11 0.153444 0.352695 0.871527
O O12 0.883718 0.500000 0.197783
O O13 0.872779 0.344126 0.117858
O O14 0.000000 0.404397 0.232815
O O15 0.609200 0.609200 0.500000
O O16 0.500000 0.676901 0.352527
O O17 0.761811 0.238190 0.000000
#
# Coordination Sequence:
#
# PCOD9556662 Si02
#       6
#     8   8   8   8   8   8
#     4  11  22  34  47  63  88 128 178 228 267 295
#     4   9  18  32  49  72  98 122 156 206 264 315
#     4  10  19  33  54  77 101 130 167 212 260 315
#     4  10  19  33  55  79 101 128 166 212 259 312
#     4  11  22  34  48  66  93 133 177 219 258 297
#     4  11  22  34  48  70 100 134 168 207 260 312
#
# _framework density 16.817858000000001
#
# number of rings (size 3 to 8) (size 9 to 14) (size 15 to 20)
#    0.000    1.667    0.000    6.500    0.000    8.000 
#    0.000    0.000    0.000    0.000    0.000    0.000 
#    0.000    5.333    0.000    0.000    0.000   35.000 
#
# Total GULP energy -267726.962034 kJ/mol
# GULP energy per Si atom -5577.645042 kJ/mol
# Density = 1.677958 g / cm^3
# Si number density = 16.817858 Si / 1000 Ang^3
#
#
#
# Elastic Constant Matrix: (Units=GPa)
#
#
# Indices 1 2 3 4 5 6 
#
# 1 33.4825 26.4275 9.5746 0.0000 0.0000 0.0000
# 2 26.4275 33.4834 9.5742 0.0000 0.0000 0.0000
# 3 9.5746 9.5742 84.8282 0.0000 0.0000 0.0000
# 4 0.0000 0.0000 0.0000 2.5159 0.0000 0.0000
# 5 0.0000 0.0000 0.0000 0.0000 2.5257 0.0000
# 6 0.0000 0.0000 0.0000 0.0000 0.0000 21.8709
#
#
#
# Elastic Compliance Matrix: (Units=1/GPa)
#
#
# Indices 1 2 3 4 5 6 
#
# 1 0.079526 -0.062209 -0.001955 0.000000 0.000000 0.000000
# 2 -0.062209 0.079524 -0.001954 0.000000 0.000000 0.000000
# 3 -0.001955 -0.001954 0.012230 0.000000 0.000000 0.000000
# 4 0.000000 0.000000 0.000000 0.397479 0.000000 0.000000
# 5 0.000000 0.000000 0.000000 0.000000 0.395936 0.000000
# 6 0.000000 0.000000 0.000000 0.000000 0.000000 0.045723
#
#
# Mechanical properties :
#
#
# Convention : Reuss Voigt Hill
#
# Bulk Modulus (GPa) = 25.61184 26.99407 26.30295
# Shear Modulus (GPa) = 4.32651 12.46368 8.39509
#
# Velocity S-wave (km/s) = 1.60566 2.72526 2.23665
# Velocity P-wave (km/s) = 4.32430 5.09789 4.72694
#
# Compressibility (1/GPa) = 0.03904445
#
# Stress axis : x y z
#
# Youngs Moduli (GPa) = 12.57449 12.57488 81.76795
#
# Poissons Ratio (x) = 0.78227 0.15985
# Poissons Ratio (y) = 0.78224 0.15978
# Poissons Ratio (z) = 0.02458 0.02457
#
# Static dielectric constant tensor:
#      x y z
#    x 1.592930 0.000000 0.000000 
#    y 0.000000 1.592930 0.000000 
#    z 0.000000 0.000000 1.610970 
# 
# From -- ./inp_files/1838.got.cif
#   From: 2010.05.17/outbox.cif.g08.bks.cpg/sg115_1_cif.got.tgz:1838.got - 2010.05.20 11:07:42.
