data_PCOD9556400
_publ_section_title
;
Structure prediction by ZEFSAII (Michael W. Deem and Ramdas Pophale) SiO2 
 PCOD9556400
Probable space group: P -4 21 C
;
_chemical_formula_sum "Si O2"
_cell_formula_units_Z 34
_cell_length_a 11.236739
_cell_length_b 11.236739
_cell_length_c 12.251809
_cell_angle_alpha 90.000000
_cell_angle_beta 90.000000
_cell_angle_gamma 90.000000
_cell_volume 1546.966128
_symmetry_space_group_name_H-M "P -4 21 C"
_symmetry_group_IT_number 114
_symmetry_cell_setting 'tetragonal'
loop_
_space_group_symop_operation_xyz
x,y,z
y,-x,-z
-x,-y,z
-y,x,-z
1/2+x,1/2-y,1/2-z
1/2-x,1/2+y,1/2-z
1/2-y,1/2-x,1/2+z
1/2+y,1/2+x,1/2+z
loop_
_atom_site_type_symbol
_atom_site_label
_atom_site_fract_x
_atom_site_fract_y
_atom_site_fract_z
Si Si1 0.500000 0.500000 0.500000
Si Si2 0.195162 0.186061 0.562769
Si Si3 0.393232 0.079830 0.712649
Si Si4 0.560590 0.288304 0.354979
Si Si5 0.562504 0.679635 0.833712
O O1 0.490592 0.376847 0.434290
O O2 0.299830 0.110879 0.618877
O O3 0.232610 0.321991 0.588509
O O4 0.188410 0.151451 0.436421
O O5 0.068492 0.153928 0.618702
O O6 0.446145 0.197571 0.767230
O O7 0.500000 0.000000 0.670094
O O8 0.319677 0.014341 0.807306
O O9 0.595031 0.374852 0.254196
#
# Coordination Sequence:
#
# PCOD9556400 Si02
#       5
#     2   8   8   8   8
#     4  12  24  44  72 102 136 188 240 292 360 430
#     4  11  24  42  68 102 135 189 231 294 357 423
#     4  11  23  44  67  98 138 184 231 293 353 425
#     4  11  24  44  68 101 138 185 234 296 353 427
#     4  11  24  44  67 100 142 175 237 290 353 421
#
# _framework density 21.978504000000001
#
# number of rings (size 3 to 8) (size 9 to 14) (size 15 to 20)
#    0.000    0.941    2.353    4.235    0.000    5.176 
#   12.706    0.000    0.000    0.000    0.000    0.000 
#    0.000    0.000    0.000    0.000    0.000    0.000 
#
# Total GULP energy -190328.530816 kJ/mol
# GULP energy per Si atom -5597.897965 kJ/mol
# Density = 2.192848 g / cm^3
# Si number density = 21.978504 Si / 1000 Ang^3
#
#
#
# Elastic Constant Matrix: (Units=GPa)
#
#
# Indices 1 2 3 4 5 6 
#
# 1 36.4416 -18.3718 -6.1008 0.0000 0.0000 0.0000
# 2 -18.3718 36.4416 -6.1008 0.0000 0.0000 0.0000
# 3 -6.1008 -6.1008 66.9459 0.0000 0.0000 0.0000
# 4 0.0000 0.0000 0.0000 17.5144 0.0000 0.0000
# 5 0.0000 0.0000 0.0000 0.0000 17.5144 0.0000
# 6 0.0000 0.0000 0.0000 0.0000 0.0000 32.3818
#
#
#
# Elastic Compliance Matrix: (Units=1/GPa)
#
#
# Indices 1 2 3 4 5 6 
#
# 1 0.038607 0.020363 0.005374 0.000000 0.000000 0.000000
# 2 0.020363 0.038607 0.005374 0.000000 0.000000 0.000000
# 3 0.005374 0.005374 0.015917 0.000000 0.000000 0.000000
# 4 0.000000 0.000000 0.000000 0.057096 0.000000 0.000000
# 5 0.000000 0.000000 0.000000 0.000000 0.057096 0.000000
# 6 0.000000 0.000000 0.000000 0.000000 0.000000 0.030882
#
#
# Mechanical properties :
#
#
# Convention : Reuss Voigt Hill
#
# Bulk Modulus (GPa) = 6.43698 8.74247 7.58973
# Shear Modulus (GPa) = 21.95232 24.84226 23.39729
#
# Velocity S-wave (km/s) = 3.16382 3.36564 3.26629
# Velocity P-wave (km/s) = 4.03503 4.36918 4.20543
#
# Compressibility (1/GPa) = 0.15535232
#
# Stress axis : x y z
#
# Youngs Moduli (GPa) = 25.90218 25.90218 62.82637
#
# Poissons Ratio (x) = -0.52745 -0.33762
# Poissons Ratio (y) = -0.52745 -0.33762
# Poissons Ratio (z) = -0.13920 -0.13920
#
# Static dielectric constant tensor:
#      x y z
#    x 1.798380 0.000000 0.000000 
#    y 0.000000 1.798380 0.000000 
#    z 0.000000 0.000000 1.767500 
# 
# From -- ./inp_files/1398.got.cif
#   From: 2010.05.17/outbox.cif.g08.bks.cpg/sg114_1_cif.got.tgz:1398.got - 2010.05.20 11:04:54.
