data_PCOD9556720
_publ_section_title
;
Structure prediction by ZEFSAII (Michael W. Deem and Ramdas Pophale) SiO2 
 PCOD9556720
Probable space group: P -4 M 2
;
_chemical_formula_sum "Si O2"
_cell_formula_units_Z 48
_cell_length_a 9.402018
_cell_length_b 9.402018
_cell_length_c 31.915464
_cell_angle_alpha 90.000000
_cell_angle_beta 90.000000
_cell_angle_gamma 90.000000
_cell_volume 2821.261351
_symmetry_space_group_name_H-M "P -4 M 2"
_symmetry_group_IT_number 115
_symmetry_cell_setting 'tetragonal'
loop_
_space_group_symop_operation_xyz
x,y,z
y,-x,-z
-x,-y,z
-y,x,-z
y,x,-z
-y,-x,-z
-x,y,z
x,-y,z
loop_
_atom_site_type_symbol
_atom_site_label
_atom_site_fract_x
_atom_site_fract_y
_atom_site_fract_z
Si Si1 0.332333 0.829282 0.629130
Si Si2 0.831991 0.671092 0.702605
Si Si3 0.331588 0.330228 0.047995
Si Si4 0.163908 0.826958 0.546253
Si Si5 0.829080 0.167012 0.878994
Si Si6 0.172903 0.663335 0.796823
O O1 0.500000 0.800331 0.628489
O O2 0.256669 0.750634 0.667422
O O3 0.259633 0.784112 0.585356
O O4 0.312381 0.000000 0.633205
O O5 0.818282 0.500000 0.698967
O O6 0.784823 0.709441 0.750010
O O7 0.000000 0.705024 0.698163
O O8 0.500000 0.301823 0.053274
O O9 0.311141 0.500000 0.052654
O O10 0.243277 0.245877 0.082235
O O11 0.292852 0.292852 0.000000
O O12 0.216542 0.783459 0.500000
O O13 0.000000 0.780637 0.552290
O O14 0.162258 0.000000 0.544956
O O15 0.782140 0.238842 0.835269
O O16 0.000000 0.185164 0.882300
O O17 0.797989 0.000000 0.878725
O O18 0.218685 0.500000 0.803663
O O19 0.000000 0.662503 0.796213
#
# Coordination Sequence:
#
# PCOD9556720 Si02
#       6
#     8   8   8   8   8   8
#     4  10  20  32  47  71 103 134 161 193 240 295
#     4   9  18  33  53  75  96 123 165 210 245 283
#     4   9  19  36  55  73  95 128 171 211 243 282
#     4   8  14  27  48  70  91 121 164 208 244 281
#     4  10  20  32  49  77 108 132 157 195 245 297
#     4   8  15  30  51  72  95 126 165 205 242 284
#
# _framework density 17.013665
#
# number of rings (size 3 to 8) (size 9 to 14) (size 15 to 20)
#    0.000    3.000    0.000    3.000    0.000    4.000 
#    0.000    5.833    0.000    4.000    0.000    0.000 
#    0.000    0.000    0.000    0.000    0.000    0.000 
#
# Total GULP energy -267503.659493 kJ/mol
# GULP energy per Si atom -5572.992906 kJ/mol
# Density = 1.697494 g / cm^3
# Si number density = 17.013665 Si / 1000 Ang^3
#
#
#
# Elastic Constant Matrix: (Units=GPa)
#
#
# Indices 1 2 3 4 5 6 
#
# 1 57.1629 47.1253 87.3152 0.0000 0.0000 0.0000
# 2 47.1253 57.1631 87.3153 0.0000 0.0000 0.0000
# 3 87.3152 87.3153 214.8685 0.0000 0.0000 0.0000
# 4 0.0000 0.0000 0.0000 177.8619 0.0000 0.0000
# 5 0.0000 0.0000 0.0000 0.0000 177.8738 0.0000
# 6 0.0000 0.0000 0.0000 0.0000 0.0000 23.5739
#
#
#
# Elastic Compliance Matrix: (Units=1/GPa)
#
#
# Indices 1 2 3 4 5 6 
#
# 1 0.064817 -0.034808 -0.012194 0.000000 0.000000 0.000000
# 2 -0.034808 0.064816 -0.012194 0.000000 0.000000 0.000000
# 3 -0.012194 -0.012194 0.014565 0.000000 0.000000 0.000000
# 4 0.000000 0.000000 0.000000 0.005622 0.000000 0.000000
# 5 0.000000 0.000000 0.000000 0.000000 0.005622 0.000000
# 6 0.000000 0.000000 0.000000 0.000000 0.000000 0.042420
#
#
# Mechanical properties :
#
#
# Convention : Reuss Voigt Hill
#
# Bulk Modulus (GPa) = 38.75404 85.85623 62.30513
# Shear Modulus (GPa) = 15.39139 83.02448 49.20794
#
# Velocity S-wave (km/s) = 3.01100 6.99319 5.38381
# Velocity P-wave (km/s) = 5.90896 10.76006 8.68028
#
# Compressibility (1/GPa) = 0.02580376
#
# Stress axis : x y z
#
# Youngs Moduli (GPa) = 15.42813 15.42822 68.65931
#
# Poissons Ratio (x) = 0.53703 0.83725
# Poissons Ratio (y) = 0.53703 0.83725
# Poissons Ratio (z) = 0.18814 0.18813
#
# Static dielectric constant tensor:
#      x y z
#    x 1.561610 0.000000 0.000000 
#    y 0.000000 1.561610 0.000000 
#    z 0.000000 0.000000 1.574700 
# 
# From -- ./inp_files/5950.got.cif
#   From: 2010.05.17/outbox.cif.g08.bks.cpg/sg115_3_cif.got.tgz:5950.got - 2010.05.20 11:07:42.
