data_PCOD9556507
_publ_section_title
;
Structure prediction by ZEFSAII (Michael W. Deem and Ramdas Pophale) SiO2 
 PCOD9556507
Probable space group: P -4 21 C
;
_chemical_formula_sum "Si O2"
_cell_formula_units_Z 52
_cell_length_a 18.000000
_cell_length_b 18.000000
_cell_length_c 9.000000
_cell_angle_alpha 90.000000
_cell_angle_beta 90.000000
_cell_angle_gamma 90.000000
_cell_volume 2916.000000
_symmetry_space_group_name_H-M "P -4 21 C"
_symmetry_group_IT_number 114
_symmetry_cell_setting 'tetragonal'
loop_
_space_group_symop_operation_xyz
x,y,z
y,-x,-z
-x,-y,z
-y,x,-z
1/2+x,1/2-y,1/2-z
1/2-x,1/2+y,1/2-z
1/2-y,1/2-x,1/2+z
1/2+y,1/2+x,1/2+z
loop_
_atom_site_type_symbol
_atom_site_label
_atom_site_fract_x
_atom_site_fract_y
_atom_site_fract_z
Si Si1 0.519045 0.114294 0.427706
Si Si2 0.313771 0.669183 0.331623
Si Si3 0.754850 0.486615 0.375880
Si Si4 0.500000 0.000000 0.690124
Si Si5 0.184503 0.395443 0.190132
Si Si6 0.298691 0.773490 0.058899
Si Si7 0.953982 0.888825 0.011000
O O1 0.492684 0.195089 0.476077
O O2 0.477941 0.067677 0.299277
O O3 0.602041 0.117235 0.367329
O O4 0.518996 0.066109 0.578108
O O5 0.264556 0.597109 0.347404
O O6 0.300291 0.706589 0.173659
O O7 0.288401 0.727145 0.457901
O O8 0.398591 0.643550 0.364314
O O9 0.797387 0.522088 0.237749
O O10 0.678783 0.532397 0.398713
O O11 0.193106 0.345760 0.336959
O O12 0.234838 0.365379 0.057671
O O13 0.037241 0.914888 0.055477
#
# Coordination Sequence:
#
# PCOD9556507 Si02
#       7
#     8   8   8   4   8   8   8
#     4  11  20  35  53  79 109 154 193 237 276 342
#     4  10  21  36  56  86 117 148 186 234 303 342
#     4  11  20  34  59  83 113 148 195 238 292 353
#     4  10  22  34  50  76 118 148 196 236 280 318
#     4  11  18  36  61  79 102 149 201 230 275 343
#     4  10  20  36  59  81 113 147 189 243 280 347
#     4   9  18  35  59  86 110 141 191 248 294 345
#
# _framework density 17.832647000000001
#
# number of rings (size 3 to 8) (size 9 to 14) (size 15 to 20)
#    0.000    1.692    4.615    0.923    0.000    1.231 
#    0.000    1.538    6.769    0.000    0.000    0.000 
#    0.000    0.000    0.000    0.000    0.000    0.000 
#
# Total GULP energy -289556.520955 kJ/mol
# GULP energy per Si atom -5568.394634 kJ/mol
# Density = 1.779206 g / cm^3
# Si number density = 17.832647 Si / 1000 Ang^3
#
#
#
# Elastic Constant Matrix: (Units=GPa)
#
#
# Indices 1 2 3 4 5 6 
#
# 1 -4.2488 -36.8221 -11.9697 0.0000 0.0000 0.0000
# 2 -36.8221 -4.2488 -11.9697 0.0000 0.0000 0.0000
# 3 -11.9697 -11.9697 75.0482 0.0000 0.0000 0.0000
# 4 0.0000 0.0000 0.0000 7.5836 0.0000 0.0000
# 5 0.0000 0.0000 0.0000 0.0000 7.5836 0.0000
# 6 0.0000 0.0000 0.0000 0.0000 0.0000 20.0337
#
#
#
# Elastic Compliance Matrix: (Units=1/GPa)
#
#
# Indices 1 2 3 4 5 6 
#
# 1 0.004211 -0.026489 -0.003553 0.000000 0.000000 0.000000
# 2 -0.026489 0.004211 -0.003553 0.000000 0.000000 0.000000
# 3 -0.003553 -0.003553 0.012191 0.000000 0.000000 0.000000
# 4 0.000000 0.000000 0.000000 0.131863 0.000000 0.000000
# 5 0.000000 0.000000 0.000000 0.000000 0.131863 0.000000
# 6 0.000000 0.000000 0.000000 0.000000 0.000000 0.049916
#
#
# Mechanical properties :
#
#
# Convention : Reuss Voigt Hill
#
# Bulk Modulus (GPa) = -21.47069 -6.10804 -13.78937
# Shear Modulus (GPa) = 12.95605 15.52766 14.24186
#
# Velocity S-wave (km/s) = 2.69836 2.95404 2.82909
# Velocity P-wave (km/s) = 1.53560 2.86400 1.70945
#
# Compressibility (1/GPa) = -0.04657512
#
# Stress axis : x y z
#
# Youngs Moduli (GPa) = 237.44892 237.44892 82.02510
#
# Poissons Ratio (x) = 6.28968 0.29144
# Poissons Ratio (y) = 6.28968 0.29144
# Poissons Ratio (z) = 0.84367 0.84367
#
# Static dielectric constant tensor:
#      x y z
#    x 1.664800 0.000000 0.000000 
#    y 0.000000 1.664800 0.000000 
#    z 0.000000 0.000000 1.589410 
# 
# From -- ./inp_files/988.got.cif
#   From: 2010.05.17/outbox.ucp.g08.bks.cvg/sg114_1_cif.got.tgz:988.got - 2010.06.11 11:33:27.
