data_PCOD9556974
_publ_section_title
;
Structure prediction by ZEFSAII (Michael W. Deem and Ramdas Pophale) SiO2 
 PCOD9556974
Probable space group: P -4 M 2
;
_chemical_formula_sum "Si O2"
_cell_formula_units_Z 48
_cell_length_a 9.167168
_cell_length_b 9.167168
_cell_length_c 31.852573
_cell_angle_alpha 90.000000
_cell_angle_beta 90.000000
_cell_angle_gamma 90.000000
_cell_volume 2676.793694
_symmetry_space_group_name_H-M "P -4 M 2"
_symmetry_group_IT_number 115
_symmetry_cell_setting 'tetragonal'
loop_
_space_group_symop_operation_xyz
x,y,z
y,-x,-z
-x,-y,z
-y,x,-z
y,x,-z
-y,-x,-z
-x,y,z
x,-y,z
loop_
_atom_site_type_symbol
_atom_site_label
_atom_site_fract_x
_atom_site_fract_y
_atom_site_fract_z
Si Si1 0.326582 0.326582 0.000000
Si Si2 0.822331 0.167697 0.329587
Si Si3 0.174269 0.328104 0.833972
Si Si4 0.174903 0.327721 0.414251
Si Si5 0.326462 0.673539 0.500000
Si Si6 0.173846 0.326724 0.244004
Si Si7 0.825586 0.172778 0.921582
O O1 0.249128 0.259854 0.040817
O O2 0.301096 0.500000 0.997725
O O3 0.774482 0.242396 0.372911
O O4 0.778301 0.254937 0.287984
O O5 0.000000 0.170554 0.330200
O O6 0.775778 0.000000 0.327210
O O7 0.205134 0.500000 0.837851
O O8 0.257255 0.258671 0.794805
O O9 0.212791 0.245791 0.877097
O O10 0.000000 0.310257 0.827680
O O11 0.206950 0.500000 0.408974
O O12 0.247599 0.276930 0.457522
O O13 0.000000 0.312480 0.417671
O O14 0.500000 0.698021 0.495715
O O15 0.194701 0.500000 0.245647
O O16 0.000000 0.298385 0.238930
O O17 0.000000 0.192690 0.928017
O O18 0.796405 0.000000 0.920633
#
# Coordination Sequence:
#
# PCOD9556974 Si02
#       7
#     4   8   8   8   4   8   8
#     4  11  24  39  56  82 116 151 184 221 268 318
#     4   9  17  30  50  75 101 130 167 212 258 303
#     4  10  21  37  57  81 110 143 178 219 268 317
#     4   9  17  30  48  69  94 125 162 204 249 298
#     4   9  18  32  48  67  94 128 162 197 244 302
#     4  10  20  34  54  79 106 139 179 219 261 313
#     4  10  21  38  61  86 110 141 183 226 268 317
#
# _framework density 17.931901
#
# number of rings (size 3 to 8) (size 9 to 14) (size 15 to 20)
#    0.000    2.333    0.000    2.500    0.000    8.000 
#    0.000    0.833    0.000    3.000    0.000    0.000 
#    0.000    0.000    0.000    0.000    0.000    0.000 
#
# Total GULP energy -267950.384943 kJ/mol
# GULP energy per Si atom -5582.299686 kJ/mol
# Density = 1.789109 g / cm^3
# Si number density = 17.931901 Si / 1000 Ang^3
#
#
#
# Elastic Constant Matrix: (Units=GPa)
#
#
# Indices 1 2 3 4 5 6 
#
# 1 71.2137 64.9892 93.7102 0.0000 0.0000 0.0000
# 2 64.9892 71.2134 93.7103 0.0000 0.0000 0.0000
# 3 93.7102 93.7103 218.6329 0.0000 0.0000 0.0000
# 4 0.0000 0.0000 0.0000 222.5406 0.0000 0.0000
# 5 0.0000 0.0000 0.0000 0.0000 222.4765 0.0000
# 6 0.0000 0.0000 0.0000 0.0000 0.0000 22.5128
#
#
#
# Elastic Compliance Matrix: (Units=1/GPa)
#
#
# Indices 1 2 3 4 5 6 
#
# 1 0.089279 -0.071381 -0.007671 0.000000 0.000000 0.000000
# 2 -0.071381 0.089280 -0.007672 0.000000 0.000000 0.000000
# 3 -0.007671 -0.007672 0.011150 0.000000 0.000000 0.000000
# 4 0.000000 0.000000 0.000000 0.004494 0.000000 0.000000
# 5 0.000000 0.000000 0.000000 0.000000 0.004495 0.000000
# 6 0.000000 0.000000 0.000000 0.000000 0.000000 0.044419
#
#
# Mechanical properties :
#
#
# Convention : Reuss Voigt Hill
#
# Bulk Modulus (GPa) = 61.49794 96.20883 78.85339
# Shear Modulus (GPa) = 11.84872 100.74932 56.29902
#
# Velocity S-wave (km/s) = 2.57332 7.50376 5.60929
# Velocity P-wave (km/s) = 6.57260 11.35095 9.27478
#
# Compressibility (1/GPa) = 0.01626071
#
# Stress axis : x y z
#
# Youngs Moduli (GPa) = 11.20080 11.20070 89.68383
#
# Poissons Ratio (x) = 0.79952 0.68800
# Poissons Ratio (y) = 0.79953 0.68804
# Poissons Ratio (z) = 0.08593 0.08593
#
# Static dielectric constant tensor:
#      x y z
#    x 1.599620 0.000000 0.000000 
#    y 0.000000 1.599620 0.000000 
#    z 0.000000 0.000000 1.582980 
# 
# From -- ./inp_files/6141.got.cif
#   From: 2010.05.17/outbox.cif.g08.bks.cpg/sg115_4_cif.got.tgz:6141.got - 2010.05.20 11:07:42.
