data_PCOD9556536
_publ_section_title
;
Structure prediction by ZEFSAII (Michael W. Deem and Ramdas Pophale) SiO2 
 PCOD9556536
Probable space group: P -4 M 2
;
_chemical_formula_sum "Si O2"
_cell_formula_units_Z 56
_cell_length_a 15.389026
_cell_length_b 15.389026
_cell_length_c 14.343559
_cell_angle_alpha 90.000000
_cell_angle_beta 90.000000
_cell_angle_gamma 90.000000
_cell_volume 3396.872068
_symmetry_space_group_name_H-M "P -4 M 2"
_symmetry_group_IT_number 115
_symmetry_cell_setting 'tetragonal'
loop_
_space_group_symop_operation_xyz
x,y,z
y,-x,-z
-x,-y,z
-y,x,-z
y,x,-z
-y,-x,-z
-x,y,z
x,-y,z
loop_
_atom_site_type_symbol
_atom_site_label
_atom_site_fract_x
_atom_site_fract_y
_atom_site_fract_z
Si Si1 0.403645 0.868438 0.526504
Si Si2 0.594599 0.329925 0.585372
Si Si3 0.276846 0.906054 0.695358
Si Si4 0.905003 0.126877 0.608441
Si Si5 0.293615 0.720316 0.248521
Si Si6 0.399142 0.398278 0.888126
Si Si7 0.903255 0.674933 0.669426
O O1 0.500000 0.896807 0.555259
O O2 0.399612 0.764689 0.537838
O O3 0.332696 0.902093 0.599698
O O4 0.387875 0.891671 0.419147
O O5 0.605190 0.394811 0.500000
O O6 0.500000 0.339070 0.630428
O O7 0.670087 0.331552 0.661060
O O8 0.176316 0.907229 0.665439
O O9 0.289398 0.812295 0.746230
O O10 0.297499 0.000000 0.741486
O O11 0.895279 0.104721 0.500000
O O12 0.901299 0.230410 0.620905
O O13 0.000000 0.098171 0.641001
O O14 0.336102 0.669490 0.162559
O O15 0.322218 0.821022 0.261011
O O16 0.500000 0.377334 0.864265
O O17 0.384407 0.500000 0.862779
O O18 0.391611 0.391611 0.000000
O O19 0.000000 0.662138 0.710658
#
# Coordination Sequence:
#
# PCOD9556536 Si02
#       7
#     8   8   8   8   8   8   8
#     4  10  19  30  42  57  86 132 180 215 240 278
#     4  10  19  30  44  65  95 131 167 201 247 298
#     4  10  20  31  44  66  99 136 175 212 245 292
#     4  10  18  27  42  63  88 124 174 229 271 292
#     4  10  20  33  53  73 103 132 165 209 254 301
#     4   9  19  38  64  89 105 120 153 204 263 320
#     4  10  19  30  45  65  94 134 177 214 247 291
#
# _framework density 16.485754
#
# number of rings (size 3 to 8) (size 9 to 14) (size 15 to 20)
#    0.000    2.143    2.857    1.714    0.000    4.000 
#    0.000    0.000    0.000    0.857    0.000    2.000 
#    0.000    0.000    0.000    4.000    0.000    0.000 
#
# Total GULP energy -311926.905559 kJ/mol
# GULP energy per Si atom -5570.123314 kJ/mol
# Density = 1.644823 g / cm^3
# Si number density = 16.485754 Si / 1000 Ang^3
#
#
#
# Elastic Constant Matrix: (Units=GPa)
#
#
# Indices 1 2 3 4 5 6 
#
# 1 94.2713 45.6308 31.1845 0.0000 0.0000 0.0000
# 2 45.6308 94.2714 31.1841 0.0000 0.0000 0.0000
# 3 31.1845 31.1841 41.0973 0.0000 0.0000 0.0000
# 4 0.0000 0.0000 0.0000 -12.7766 0.0000 0.0000
# 5 0.0000 0.0000 0.0000 0.0000 -12.7768 0.0000
# 6 0.0000 0.0000 0.0000 0.0000 0.0000 0.4146
#
#
#
# Elastic Compliance Matrix: (Units=1/GPa)
#
#
# Indices 1 2 3 4 5 6 
#
# 1 0.015680 -0.004879 -0.008196 0.000000 0.000000 0.000000
# 2 -0.004879 0.015680 -0.008196 0.000000 0.000000 0.000000
# 3 -0.008196 -0.008196 0.036771 0.000000 0.000000 0.000000
# 4 0.000000 0.000000 0.000000 -0.078268 0.000000 0.000000
# 5 0.000000 0.000000 0.000000 0.000000 -0.078267 0.000000
# 6 0.000000 0.000000 0.000000 0.000000 0.000000 2.411987
#
#
# Mechanical properties :
#
#
# Convention : Reuss Voigt Hill
#
# Bulk Modulus (GPa) = 39.07861 49.51541 44.29701
# Shear Modulus (GPa) = 2.10557 3.08161 2.59359
#
# Velocity S-wave (km/s) = 1.13136 1.36869 1.25565
# Velocity P-wave (km/s) = 5.04605 5.70949 5.38799
#
# Compressibility (1/GPa) = 0.02558944
#
# Stress axis : x y z
#
# Youngs Moduli (GPa) = 63.77371 63.77432 27.19526
#
# Poissons Ratio (x) = 0.31113 0.22290
# Poissons Ratio (y) = 0.31113 0.22290
# Poissons Ratio (z) = 0.52272 0.52270
#
# Static dielectric constant tensor:
#      x y z
#    x 1.633570 0.000000 0.000000 
#    y 0.000000 1.633570 0.000000 
#    z 0.000000 0.000000 1.504720 
# 
# From -- ./inp_files/3822.got.cif
#   From: 2010.05.17/outbox.cif.g08.bks.cpg/sg115_2_cif.got.tgz:3822.got - 2010.05.20 11:07:42.
