data_PCOD9556784
_publ_section_title
;
Structure prediction by ZEFSAII (Michael W. Deem and Ramdas Pophale) SiO2 
 PCOD9556784
Probable space group: P -4 M 2
;
_chemical_formula_sum "Si O2"
_cell_formula_units_Z 56
_cell_length_a 13.692221
_cell_length_b 13.692221
_cell_length_c 18.457012
_cell_angle_alpha 90.000000
_cell_angle_beta 90.000000
_cell_angle_gamma 90.000000
_cell_volume 3460.263687
_symmetry_space_group_name_H-M "P -4 M 2"
_symmetry_group_IT_number 115
_symmetry_cell_setting 'tetragonal'
loop_
_space_group_symop_operation_xyz
x,y,z
y,-x,-z
-x,-y,z
-y,x,-z
y,x,-z
-y,-x,-z
-x,y,z
x,-y,z
loop_
_atom_site_type_symbol
_atom_site_label
_atom_site_fract_x
_atom_site_fract_y
_atom_site_fract_z
Si Si1 0.223940 0.615799 0.081497
Si Si2 0.383066 0.224524 0.369516
Si Si3 0.889984 0.381700 0.776002
Si Si4 0.618300 0.889984 0.776003
Si Si5 0.883954 0.279030 0.500000
Si Si6 0.224524 0.616934 0.369515
Si Si7 0.776059 0.615799 0.918502
O O1 0.241864 0.500000 0.089039
O O2 0.153445 0.647752 0.146409
O O3 0.323403 0.676597 0.087486
O O4 0.184128 0.632048 1.000000
O O5 0.500000 0.233364 0.375572
O O6 0.357156 0.179638 0.291042
O O7 0.340640 0.151901 0.430328
O O8 0.326894 0.326894 0.378812
O O9 0.894425 0.500000 0.776935
O O10 0.846554 0.352248 0.853590
O O11 0.000000 0.344959 0.765132
O O12 0.500000 0.894425 0.776935
O O13 0.642844 0.820362 0.708959
O O14 0.655041 0.000000 0.765132
O O15 0.821644 0.178357 0.500000
O O16 0.848099 0.340640 0.430327
O O17 0.000000 0.264887 0.499999
O O18 0.233364 0.500000 0.375571
O O19 0.758136 0.500000 0.910961
#
# Coordination Sequence:
#
# PCOD9556784 Si02
#       7
#     8   8   8   8   8   8   8
#     4   9  17  28  42  62  89 120 153 189 230 280
#     4  10  20  33  50  73 100 130 163 197 236 286
#     4   9  17  29  45  64  87 118 155 193 233 276
#     4   9  17  29  45  64  87 118 155 193 233 276
#     4  10  21  36  54  76 100 128 165 206 246 288
#     4  10  20  33  50  73 100 130 163 197 236 286
#     4   9  17  28  42  62  89 120 153 189 230 280
#
# _framework density 16.183738000000002
#
# number of rings (size 3 to 8) (size 9 to 14) (size 15 to 20)
#    0.000    2.571    0.000    2.143    0.000    3.571 
#    0.000    4.286    0.000    7.714    0.000    0.000 
#    0.000    5.143    0.000   12.571    0.000    1.143 
#
# Total GULP energy -311963.638744 kJ/mol
# GULP energy per Si atom -5570.779263 kJ/mol
# Density = 1.614690 g / cm^3
# Si number density = 16.183738 Si / 1000 Ang^3
#
#
#
# Elastic Constant Matrix: (Units=GPa)
#
#
# Indices 1 2 3 4 5 6 
#
# 1 84.5521 52.6510 43.5957 0.0000 0.0000 0.0000
# 2 52.6510 84.5499 43.5950 0.0000 0.0000 0.0000
# 3 43.5957 43.5950 114.2534 0.0000 0.0000 0.0000
# 4 0.0000 0.0000 0.0000 18.5011 0.0000 0.0000
# 5 0.0000 0.0000 0.0000 0.0000 18.5008 0.0000
# 6 0.0000 0.0000 0.0000 0.0000 0.0000 6.1920
#
#
#
# Elastic Compliance Matrix: (Units=1/GPa)
#
#
# Indices 1 2 3 4 5 6 
#
# 1 0.020485 -0.010863 -0.003671 0.000000 0.000000 0.000000
# 2 -0.010863 0.020485 -0.003671 0.000000 0.000000 0.000000
# 3 -0.003671 -0.003671 0.011554 0.000000 0.000000 0.000000
# 4 0.000000 0.000000 0.000000 0.054051 0.000000 0.000000
# 5 0.000000 0.000000 0.000000 0.000000 0.054052 0.000000
# 6 0.000000 0.000000 0.000000 0.000000 0.000000 0.161498
#
#
# Mechanical properties :
#
#
# Convention : Reuss Voigt Hill
#
# Bulk Modulus (GPa) = 62.06474 62.55987 62.31231
# Shear Modulus (GPa) = 13.73980 18.20637 15.97308
#
# Velocity S-wave (km/s) = 2.91690 3.35771 3.14504
# Velocity P-wave (km/s) = 7.05533 7.33295 7.19548
#
# Compressibility (1/GPa) = 0.01611221
#
# Stress axis : x y z
#
# Youngs Moduli (GPa) = 48.81738 48.81618 86.54890
#
# Poissons Ratio (x) = 0.53030 0.31775
# Poissons Ratio (y) = 0.53031 0.31775
# Poissons Ratio (z) = 0.17922 0.17922
#
# Static dielectric constant tensor:
#      x y z
#    x 1.521580 0.000000 0.000000 
#    y 0.000000 1.521580 0.000000 
#    z 0.000000 0.000000 1.567960 
# 
# From -- ./inp_files/4908.got.cif
#   From: 2010.05.17/outbox.cif.g08.bks.cpg/sg115_3_cif.got.tgz:4908.got - 2010.05.20 11:07:42.
