data_PCOD9556928
_publ_section_title
;
Structure prediction by ZEFSAII (Michael W. Deem and Ramdas Pophale) SiO2 
 PCOD9556928
Probable space group: P -4 M 2
;
_chemical_formula_sum "Si O2"
_cell_formula_units_Z 28
_cell_length_a 9.228363
_cell_length_b 9.228363
_cell_length_c 18.706446
_cell_angle_alpha 90.000000
_cell_angle_beta 90.000000
_cell_angle_gamma 90.000000
_cell_volume 1593.091143
_symmetry_space_group_name_H-M "P -4 M 2"
_symmetry_group_IT_number 115
_symmetry_cell_setting 'tetragonal'
loop_
_space_group_symop_operation_xyz
x,y,z
y,-x,-z
-x,-y,z
-y,x,-z
y,x,-z
-y,-x,-z
-x,y,z
x,-y,z
loop_
_atom_site_type_symbol
_atom_site_label
_atom_site_fract_x
_atom_site_fract_y
_atom_site_fract_z
Si Si1 0.173615 0.328407 0.565870
Si Si2 0.823550 0.833433 0.710920
Si Si3 0.671109 0.826261 0.145625
Si Si4 0.672293 0.327708 0.000000
O O1 0.254734 0.254734 0.500000
O O2 0.199948 0.500000 0.568122
O O3 0.219786 0.255034 0.640531
O O4 0.000000 0.305890 0.557907
O O5 0.776625 0.758291 0.784580
O O6 0.000000 0.831827 0.711889
O O7 0.776478 0.000000 0.706674
O O8 0.500000 0.794762 0.155581
O O9 0.719975 0.752656 0.072025
O O10 0.686111 0.000000 0.139307
O O11 0.500000 0.303628 0.991770
#
# Coordination Sequence:
#
# PCOD9556928 Si02
#       4
#     8   8   8   4
#     4  10  20  34  53  76 102 133 169 208 251 300
#     4   9  17  30  50  75 100 127 162 204 248 293
#     4   9  17  30  48  69  94 125 161 200 242 289
#     4   9  18  32  48  67  94 128 162 195 238 292
#
# _framework density 17.575893000000001
#
# number of rings (size 3 to 8) (size 9 to 14) (size 15 to 20)
#    0.000    2.714    0.000    1.714    0.000    6.286 
#    0.000    1.429    0.000    5.143    0.000    0.000 
#    0.000    0.000    0.000    0.000    0.000    0.000 
#
# Total GULP energy -156154.534872 kJ/mol
# GULP energy per Si atom -5576.947674 kJ/mol
# Density = 1.753589 g / cm^3
# Si number density = 17.575893 Si / 1000 Ang^3
#
#
#
# Elastic Constant Matrix: (Units=GPa)
#
#
# Indices 1 2 3 4 5 6 
#
# 1 55.6796 48.7756 82.4055 0.0000 0.0000 0.0000
# 2 48.7756 55.6800 82.4054 0.0000 0.0000 0.0000
# 3 82.4055 82.4054 227.4855 0.0000 0.0000 0.0000
# 4 0.0000 0.0000 0.0000 242.9784 0.0000 0.0000
# 5 0.0000 0.0000 0.0000 0.0000 243.1516 0.0000
# 6 0.0000 0.0000 0.0000 0.0000 0.0000 16.6691
#
#
#
# Elastic Compliance Matrix: (Units=1/GPa)
#
#
# Indices 1 2 3 4 5 6 
#
# 1 0.083593 -0.061248 -0.008095 0.000000 0.000000 0.000000
# 2 -0.061248 0.083592 -0.008094 0.000000 0.000000 0.000000
# 3 -0.008095 -0.008094 0.010260 0.000000 0.000000 0.000000
# 4 0.000000 0.000000 0.000000 0.004116 0.000000 0.000000
# 5 0.000000 0.000000 0.000000 0.000000 0.004113 0.000000
# 6 0.000000 0.000000 0.000000 0.000000 0.000000 0.059991
#
#
# Mechanical properties :
#
#
# Convention : Reuss Voigt Hill
#
# Bulk Modulus (GPa) = 44.30187 85.11313 64.70750
# Shear Modulus (GPa) = 12.25304 108.91038 60.58171
#
# Velocity S-wave (km/s) = 2.64323 7.88037 5.87737
# Velocity P-wave (km/s) = 5.88016 11.46000 9.10790
#
# Compressibility (1/GPa) = 0.02257241
#
# Stress axis : x y z
#
# Youngs Moduli (GPa) = 11.96266 11.96288 97.46529
#
# Poissons Ratio (x) = 0.73270 0.78894
# Poissons Ratio (y) = 0.73269 0.78887
# Poissons Ratio (z) = 0.09683 0.09683
#
# Static dielectric constant tensor:
#      x y z
#    x 1.588660 0.000000 0.000000 
#    y 0.000000 1.588650 0.000000 
#    z 0.000000 0.000000 1.575840 
# 
# From -- ./inp_files/4023.got.cif
#   From: 2010.05.17/outbox.cif.g08.bks.cpg/sg115_3_cif.got.tgz:4023.got - 2010.05.20 11:07:42.
