data_PCOD9556954
_publ_section_title
;
Structure prediction by ZEFSAII (Michael W. Deem and Ramdas Pophale) SiO2 
 PCOD9556954
Probable space group: P -4 M 2
;
_chemical_formula_sum "Si O2"
_cell_formula_units_Z 32
_cell_length_a 9.063316
_cell_length_b 9.063316
_cell_length_c 21.232736
_cell_angle_alpha 90.000000
_cell_angle_beta 90.000000
_cell_angle_gamma 90.000000
_cell_volume 1744.135431
_symmetry_space_group_name_H-M "P -4 M 2"
_symmetry_group_IT_number 115
_symmetry_cell_setting 'tetragonal'
loop_
_space_group_symop_operation_xyz
x,y,z
y,-x,-z
-x,-y,z
-y,x,-z
y,x,-z
-y,-x,-z
-x,y,z
x,-y,z
loop_
_atom_site_type_symbol
_atom_site_label
_atom_site_fract_x
_atom_site_fract_y
_atom_site_fract_z
Si Si1 0.824752 0.324312 0.060456
Si Si2 0.176645 0.674593 0.560019
Si Si3 0.325471 0.822677 0.180896
Si Si4 0.169838 0.179557 0.310597
O O1 0.800940 0.500000 0.058172
O O2 0.753926 0.257201 0.123328
O O3 0.000000 0.296587 0.059971
O O4 0.750778 0.249223 0.000000
O O5 0.256441 0.743560 0.500000
O O6 0.202386 0.500000 0.563931
O O7 0.226212 0.751898 0.624851
O O8 0.000000 0.698297 0.553599
O O9 0.500000 0.793586 0.180026
O O10 0.256060 0.775748 0.247673
O O11 0.304944 0.000000 0.174587
O O12 0.000000 0.227827 0.308629
O O13 0.171179 0.000000 0.310978
#
# Coordination Sequence:
#
# PCOD9556954 Si02
#       4
#     8   8   8   8
#     4  11  24  40  58  82 111 144 184 228 273 323
#     4  10  20  34  53  78 108 142 181 226 275 327
#     4  10  20  35  57  85 115 146 181 222 270 325
#     4   9  17  31  54  82 110 142 181 225 272 322
#
# _framework density 18.347197000000001
#
# number of rings (size 3 to 8) (size 9 to 14) (size 15 to 20)
#    0.000    2.000    0.000    3.750    0.000   11.000 
#    0.000    1.250    0.000    7.500    0.000    0.000 
#    0.000    0.000    0.000    0.000    0.000    0.000 
#
# Total GULP energy -178764.126941 kJ/mol
# GULP energy per Si atom -5586.378967 kJ/mol
# Density = 1.830544 g / cm^3
# Si number density = 18.347197 Si / 1000 Ang^3
#
#
#
# Elastic Constant Matrix: (Units=GPa)
#
#
# Indices 1 2 3 4 5 6 
#
# 1 95.1888 86.8501 100.3684 0.0000 0.0000 0.0000
# 2 86.8501 95.1884 100.3702 0.0000 0.0000 0.0000
# 3 100.3684 100.3702 234.1273 0.0000 0.0000 0.0000
# 4 0.0000 0.0000 0.0000 -73.5529 0.0000 0.0000
# 5 0.0000 0.0000 0.0000 0.0000 -73.5513 0.0000
# 6 0.0000 0.0000 0.0000 0.0000 0.0000 23.7144
#
#
#
# Elastic Compliance Matrix: (Units=1/GPa)
#
#
# Indices 1 2 3 4 5 6 
#
# 1 0.065171 -0.054754 -0.004465 0.000000 0.000000 0.000000
# 2 -0.054754 0.065173 -0.004467 0.000000 0.000000 0.000000
# 3 -0.004465 -0.004467 0.008101 0.000000 0.000000 0.000000
# 4 0.000000 0.000000 0.000000 -0.013596 0.000000 0.000000
# 5 0.000000 0.000000 0.000000 0.000000 -0.013596 0.000000
# 6 0.000000 0.000000 0.000000 0.000000 0.000000 0.042168
#
#
# Mechanical properties :
#
#
# Convention : Reuss Voigt Hill
#
# Bulk Modulus (GPa) = 90.31669 111.07577 100.69623
# Shear Modulus (GPa) = 17.57562 -15.55023 1.01270
#
# Velocity S-wave (km/s) = 3.09843 -2.91444 0.74375
# Velocity P-wave (km/s) = 7.88249 7.02476 7.46595
#
# Compressibility (1/GPa) = 0.01107215
#
# Stress axis : x y z
#
# Youngs Moduli (GPa) = 15.34427 15.34371 123.44769
#
# Poissons Ratio (x) = 0.84012 0.55124
# Poissons Ratio (y) = 0.84015 0.55148
# Poissons Ratio (z) = 0.06852 0.06855
#
# Static dielectric constant tensor:
#      x y z
#    x 1.612690 0.000000 0.000000 
#    y 0.000000 1.612690 0.000000 
#    z 0.000000 0.000000 1.594900 
# 
# From -- ./inp_files/4591.got.cif
#   From: 2010.05.17/outbox.cif.g08.bks.cpg/sg115_3_cif.got.tgz:4591.got - 2010.05.20 11:07:42.
