data_PCOD9556868
_publ_section_title
;
Structure prediction by ZEFSAII (Michael W. Deem and Ramdas Pophale) SiO2 
 PCOD9556868
Probable space group: P -4 M 2
;
_chemical_formula_sum "Si O2"
_cell_formula_units_Z 44
_cell_length_a 9.298278
_cell_length_b 9.298278
_cell_length_c 29.304217
_cell_angle_alpha 90.000000
_cell_angle_beta 90.000000
_cell_angle_gamma 90.000000
_cell_volume 2533.583225
_symmetry_space_group_name_H-M "P -4 M 2"
_symmetry_group_IT_number 115
_symmetry_cell_setting 'tetragonal'
loop_
_space_group_symop_operation_xyz
x,y,z
y,-x,-z
-x,-y,z
-y,x,-z
y,x,-z
-y,-x,-z
-x,y,z
x,-y,z
loop_
_atom_site_type_symbol
_atom_site_label
_atom_site_fract_x
_atom_site_fract_y
_atom_site_fract_z
Si Si1 0.168746 0.827049 0.366342
Si Si2 0.171178 0.171600 0.183220
Si Si3 0.828608 0.171393 0.000000
Si Si4 0.672372 0.330540 0.552171
Si Si5 0.824870 0.665450 0.725144
Si Si6 0.665536 0.824844 0.908444
O O1 0.238403 0.753045 0.410182
O O2 0.250318 0.779739 0.320287
O O3 0.000000 0.794419 0.362839
O O4 0.184292 0.000000 0.370125
O O5 0.255132 0.219406 0.228421
O O6 0.219541 0.252994 0.137609
O O7 0.000000 0.195178 0.189650
O O8 0.191688 0.000000 0.177159
O O9 0.746682 0.220019 0.954511
O O10 0.000000 0.193580 0.993959
O O11 0.709930 0.290071 0.500000
O O12 0.500000 0.314844 0.556666
O O13 0.705858 0.500000 0.558217
O O14 0.777985 0.500000 0.724054
O O15 0.000000 0.667022 0.725225
O O16 0.500000 0.779062 0.908366
O O17 0.668644 0.000000 0.908503
#
# Coordination Sequence:
#
# PCOD9556868 Si02
#       6
#     8   8   4   8   8   8
#     4  10  20  33  51  77 106 133 164 205 251 297
#     4   9  16  28  48  71  93 119 154 196 239 282
#     4   9  16  28  48  71  92 118 156 195 228 270
#     4   9  19  36  55  74  99 133 171 208 247 294
#     4   9  17  30  49  72  97 127 164 203 242 286
#     4   9  17  29  46  69  95 121 151 190 235 280
#
# _framework density 17.366707000000002
#
# number of rings (size 3 to 8) (size 9 to 14) (size 15 to 20)
#    0.000    2.818    0.000    2.182    0.000    6.545 
#    0.000    4.545    0.000    9.545    0.000    0.000 
#    0.000    0.000    0.000    0.000    0.000    0.000 
#
# Total GULP energy -245331.748267 kJ/mol
# GULP energy per Si atom -5575.721552 kJ/mol
# Density = 1.732718 g / cm^3
# Si number density = 17.366707 Si / 1000 Ang^3
#
#
#
# Elastic Constant Matrix: (Units=GPa)
#
#
# Indices 1 2 3 4 5 6 
#
# 1 60.5672 46.9002 85.3280 0.0000 0.0000 0.0000
# 2 46.9002 60.5669 85.3282 0.0000 0.0000 0.0000
# 3 85.3280 85.3282 217.3429 0.0000 0.0000 0.0000
# 4 0.0000 0.0000 0.0000 -19.0377 0.0000 0.0000
# 5 0.0000 0.0000 0.0000 0.0000 -19.0380 0.0000
# 6 0.0000 0.0000 0.0000 0.0000 0.0000 16.9739
#
#
#
# Elastic Compliance Matrix: (Units=1/GPa)
#
#
# Indices 1 2 3 4 5 6 
#
# 1 0.048940 -0.024229 -0.009701 0.000000 0.000000 0.000000
# 2 -0.024229 0.048941 -0.009702 0.000000 0.000000 0.000000
# 3 -0.009701 -0.009702 0.012218 0.000000 0.000000 0.000000
# 4 0.000000 0.000000 0.000000 -0.052527 0.000000 0.000000
# 5 0.000000 0.000000 0.000000 0.000000 -0.052526 0.000000
# 6 0.000000 0.000000 0.000000 0.000000 0.000000 0.058914
#
#
# Mechanical properties :
#
#
# Convention : Reuss Voigt Hill
#
# Bulk Modulus (GPa) = 43.79326 85.95440 64.87383
# Shear Modulus (GPa) = 31.47923 3.84102 17.66013
#
# Velocity S-wave (km/s) = 4.26211 1.48880 3.19234
# Velocity P-wave (km/s) = 7.03507 7.24959 7.14314
#
# Compressibility (1/GPa) = 0.02283456
#
# Stress axis : x y z
#
# Youngs Moduli (GPa) = 20.43321 20.43292 81.84324
#
# Poissons Ratio (x) = 0.49508 0.79398
# Poissons Ratio (y) = 0.49509 0.79400
# Poissons Ratio (z) = 0.19823 0.19823
#
# Static dielectric constant tensor:
#      x y z
#    x 1.576900 0.000000 0.000000 
#    y 0.000000 1.576900 0.000000 
#    z 0.000000 0.000000 1.569940 
# 
# From -- ./inp_files/5715.got.cif
#   From: 2010.05.17/outbox.cif.g08.bks.cpg/sg115_3_cif.got.tgz:5715.got - 2010.05.20 11:07:42.
