data_PCOD9556874
_publ_section_title
;
Structure prediction by ZEFSAII (Michael W. Deem and Ramdas Pophale) SiO2 
 PCOD9556874
Probable space group: P -4 M 2
;
_chemical_formula_sum "Si O2"
_cell_formula_units_Z 48
_cell_length_a 9.181214
_cell_length_b 9.181214
_cell_length_c 31.786876
_cell_angle_alpha 90.000000
_cell_angle_beta 90.000000
_cell_angle_gamma 90.000000
_cell_volume 2679.464875
_symmetry_space_group_name_H-M "P -4 M 2"
_symmetry_group_IT_number 115
_symmetry_cell_setting 'tetragonal'
loop_
_space_group_symop_operation_xyz
x,y,z
y,-x,-z
-x,-y,z
-y,x,-z
y,x,-z
-y,-x,-z
-x,y,z
x,-y,z
loop_
_atom_site_type_symbol
_atom_site_label
_atom_site_fract_x
_atom_site_fract_y
_atom_site_fract_z
Si Si1 0.167550 0.322603 0.709821
Si Si2 0.173682 0.673371 0.960460
Si Si3 0.326233 0.671767 0.795109
Si Si4 0.172594 0.325788 0.117764
Si Si5 0.174932 0.828361 0.452529
Si Si6 0.674872 0.670890 0.375133
O O1 0.171558 0.500000 0.709792
O O2 0.245121 0.277733 0.753015
O O3 0.249933 0.275262 0.667645
O O4 0.000000 0.276667 0.708897
O O5 0.200595 0.500000 0.960896
O O6 0.238961 0.744092 0.918383
O O7 0.000000 0.696622 0.962715
O O8 0.251445 0.748556 0.000000
O O9 0.500000 0.683461 0.788431
O O10 0.293385 0.500000 0.802136
O O11 0.287829 0.762404 0.836556
O O12 0.194932 0.500000 0.111611
O O13 0.000000 0.297857 0.115970
O O14 0.217235 0.782766 0.500000
O O15 0.251514 0.739513 0.415976
O O16 0.000000 0.813776 0.449658
O O17 0.209279 0.000000 0.447873
O O18 0.500000 0.689212 0.378289
O O19 0.706152 0.500000 0.372230
#
# Coordination Sequence:
#
# PCOD9556874 Si02
#       6
#     8   8   8   8   8   8
#     4   9  17  30  50  75 102 135 177 222 265 310
#     4  11  24  40  59  84 112 143 181 223 267 317
#     4   9  17  31  52  76 103 137 177 221 268 315
#     4  10  21  37  57  82 112 145 181 220 264 316
#     4   9  19  36  55  74  99 133 172 213 259 313
#     4  10  20  33  51  77 107 137 172 215 261 310
#
# _framework density 17.914024000000001
#
# number of rings (size 3 to 8) (size 9 to 14) (size 15 to 20)
#    0.000    2.333    0.000    3.000    0.000    9.000 
#    0.000    5.000    0.000    3.000    0.000    0.000 
#    0.000    0.000    0.000    0.000    0.000    0.000 
#
# Total GULP energy -267950.035956 kJ/mol
# GULP energy per Si atom -5582.292416 kJ/mol
# Density = 1.787325 g / cm^3
# Si number density = 17.914024 Si / 1000 Ang^3
#
#
#
# Elastic Constant Matrix: (Units=GPa)
#
#
# Indices 1 2 3 4 5 6 
#
# 1 78.2521 67.4271 96.2115 0.0000 0.0000 0.0000
# 2 67.4271 78.2518 96.2118 0.0000 0.0000 0.0000
# 3 96.2115 96.2118 213.2604 0.0000 0.0000 0.0000
# 4 0.0000 0.0000 0.0000 149.4987 0.0000 0.0000
# 5 0.0000 0.0000 0.0000 0.0000 149.5214 0.0000
# 6 0.0000 0.0000 0.0000 0.0000 0.0000 24.1397
#
#
#
# Elastic Compliance Matrix: (Units=1/GPa)
#
#
# Indices 1 2 3 4 5 6 
#
# 1 0.054683 -0.037696 -0.007663 0.000000 0.000000 0.000000
# 2 -0.037696 0.054684 -0.007664 0.000000 0.000000 0.000000
# 3 -0.007663 -0.007664 0.011604 0.000000 0.000000 0.000000
# 4 0.000000 0.000000 0.000000 0.006689 0.000000 0.000000
# 5 0.000000 0.000000 0.000000 0.000000 0.006688 0.000000
# 6 0.000000 0.000000 0.000000 0.000000 0.000000 0.041426
#
#
# Mechanical properties :
#
#
# Convention : Reuss Voigt Hill
#
# Bulk Modulus (GPa) = 67.00818 98.82944 82.91881
# Shear Modulus (GPa) = 17.43398 71.95953 44.69676
#
# Velocity S-wave (km/s) = 3.12300 6.34481 5.00049
# Velocity P-wave (km/s) = 7.10569 10.43858 8.92902
#
# Compressibility (1/GPa) = 0.01492355
#
# Stress axis : x y z
#
# Youngs Moduli (GPa) = 18.28713 18.28686 86.17713
#
# Poissons Ratio (x) = 0.68935 0.66041
# Poissons Ratio (y) = 0.68936 0.66046
# Poissons Ratio (z) = 0.14014 0.14015
#
# Static dielectric constant tensor:
#      x y z
#    x 1.597540 0.000000 0.000000 
#    y 0.000000 1.597540 0.000000 
#    z 0.000000 0.000000 1.586200 
# 
# From -- ./inp_files/6043.got.cif
#   From: 2010.05.17/outbox.cif.g08.bks.cpg/sg115_4_cif.got.tgz:6043.got - 2010.05.20 11:07:42.
