data_PCOD9556305
_publ_section_title
;
Structure prediction by ZEFSAII (Michael W. Deem and Ramdas Pophale) SiO2 
 PCOD9556305
Probable space group: P -4 21 C
;
_chemical_formula_sum "Si O2"
_cell_formula_units_Z 34
_cell_length_a 10.603608
_cell_length_b 10.603608
_cell_length_c 12.614265
_cell_angle_alpha 90.000000
_cell_angle_beta 90.000000
_cell_angle_gamma 90.000000
_cell_volume 1418.303840
_symmetry_space_group_name_H-M "P -4 21 C"
_symmetry_group_IT_number 114
_symmetry_cell_setting 'tetragonal'
loop_
_space_group_symop_operation_xyz
x,y,z
y,-x,-z
-x,-y,z
-y,x,-z
1/2+x,1/2-y,1/2-z
1/2-x,1/2+y,1/2-z
1/2-y,1/2-x,1/2+z
1/2+y,1/2+x,1/2+z
loop_
_atom_site_type_symbol
_atom_site_label
_atom_site_fract_x
_atom_site_fract_y
_atom_site_fract_z
Si Si1 0.600647 0.249609 0.504565
Si Si2 0.000000 0.000000 0.000000
Si Si3 0.163973 0.228168 0.229968
Si Si4 0.648536 0.615569 0.952497
Si Si5 0.644487 0.997710 0.196350
O O1 0.556590 0.379557 0.558519
O O2 0.587241 0.266766 0.379399
O O3 0.746908 0.218114 0.519018
O O4 0.520914 0.148115 0.569037
O O5 0.084610 0.176681 0.330101
O O6 0.202452 0.372600 0.255706
O O7 0.279635 0.129254 0.221399
O O8 0.663906 0.491338 0.024089
O O9 0.500000 0.000000 0.232638
#
# Coordination Sequence:
#
# PCOD9556305 Si02
#       5
#     8   2   8   8   8
#     4  11  25  45  69 110 146 199 257 317 392 466
#     4  12  24  40  64  96 150 184 244 324 360 468
#     4  11  25  47  78 114 153 210 261 322 416 468
#     4  10  24  47  75 110 151 194 257 323 387 481
#     4  11  27  51  77 116 158 206 269 336 401 489
#
# _framework density 23.972294999999999
#
# number of rings (size 3 to 8) (size 9 to 14) (size 15 to 20)
#    0.000    1.176    2.353    1.412    6.588    6.588 
#    0.000    0.000    0.000    0.000    0.000    0.000 
#    0.000    0.000    0.000    0.000    0.000    0.000 
#
# Total GULP energy -189900.742200 kJ/mol
# GULP energy per Si atom -5585.315947 kJ/mol
# Density = 2.391773 g / cm^3
# Si number density = 23.972295 Si / 1000 Ang^3
#
#
#
# Elastic Constant Matrix: (Units=GPa)
#
#
# Indices 1 2 3 4 5 6 
#
# 1 118.2138 56.5756 13.7583 0.0000 0.0000 0.0000
# 2 56.5756 118.2138 13.7583 0.0000 0.0000 0.0000
# 3 13.7583 13.7583 130.3737 0.0000 0.0000 0.0000
# 4 0.0000 0.0000 0.0000 27.8994 0.0000 0.0000
# 5 0.0000 0.0000 0.0000 0.0000 27.8994 0.0000
# 6 0.0000 0.0000 0.0000 0.0000 0.0000 41.8989
#
#
#
# Elastic Compliance Matrix: (Units=1/GPa)
#
#
# Indices 1 2 3 4 5 6 
#
# 1 0.011021 -0.005203 -0.000614 0.000000 0.000000 0.000000
# 2 -0.005203 0.011021 -0.000614 0.000000 0.000000 0.000000
# 3 -0.000614 -0.000614 0.007800 0.000000 0.000000 0.000000
# 4 0.000000 0.000000 0.000000 0.035843 0.000000 0.000000
# 5 0.000000 0.000000 0.000000 0.000000 0.035843 0.000000
# 6 0.000000 0.000000 0.000000 0.000000 0.000000 0.023867
#
#
# Mechanical properties :
#
#
# Convention : Reuss Voigt Hill
#
# Bulk Modulus (GPa) = 58.89397 59.44288 59.16842
# Shear Modulus (GPa) = 34.74248 38.38681 36.56464
#
# Velocity S-wave (km/s) = 3.81107 4.00596 3.90973
# Velocity P-wave (km/s) = 6.63223 6.80054 6.71691
#
# Compressibility (1/GPa) = 0.01697967
#
# Stress axis : x y z
#
# Youngs Moduli (GPa) = 90.73786 90.73786 128.20779
#
# Poissons Ratio (x) = 0.47210 0.07871
# Poissons Ratio (y) = 0.47210 0.07871
# Poissons Ratio (z) = 0.05571 0.05571
#
# Static dielectric constant tensor:
#      x y z
#    x 1.920750 0.000000 0.000000 
#    y 0.000000 1.920750 0.000000 
#    z 0.000000 0.000000 1.976420 
# 
# From -- ./inp_files/1447.got.cif
#   From: 2010.05.17/outbox.cif.g08.bks.cpg/sg114_1_cif.got.tgz:1447.got - 2010.05.20 11:04:54.
