data_PCOD9556816
_publ_section_title
;
Structure prediction by ZEFSAII (Michael W. Deem and Ramdas Pophale) SiO2 
 PCOD9556816
Probable space group: P -4 M 2
;
_chemical_formula_sum "Si O2"
_cell_formula_units_Z 40
_cell_length_a 8.024464
_cell_length_b 8.024464
_cell_length_c 30.262190
_cell_angle_alpha 90.000000
_cell_angle_beta 90.000000
_cell_angle_gamma 90.000000
_cell_volume 1948.643619
_symmetry_space_group_name_H-M "P -4 M 2"
_symmetry_group_IT_number 115
_symmetry_cell_setting 'tetragonal'
loop_
_space_group_symop_operation_xyz
x,y,z
y,-x,-z
-x,-y,z
-y,x,-z
y,x,-z
-y,-x,-z
-x,y,z
x,-y,z
loop_
_atom_site_type_symbol
_atom_site_label
_atom_site_fract_x
_atom_site_fract_y
_atom_site_fract_z
Si Si1 0.309801 0.702495 0.050578
Si Si2 0.194355 0.197751 0.360363
Si Si3 0.000000 0.704665 0.109909
Si Si4 0.695841 0.189980 0.453143
Si Si5 0.000000 0.698225 0.210721
Si Si6 0.681643 0.201266 0.267680
O O1 0.500000 0.761941 0.058827
O O2 0.315964 0.500000 0.052715
O O3 0.167244 0.758709 0.084231
O O4 0.259685 0.740316 0.000000
O O5 0.225168 0.268878 0.409173
O O6 0.291588 0.264250 0.317966
O O7 0.000000 0.209955 0.349565
O O8 0.237426 0.000000 0.364346
O O9 0.000000 0.500000 0.109423
O O10 0.000000 0.762422 0.160513
O O11 0.725212 0.274788 0.500000
O O12 0.500000 0.184197 0.444393
O O13 0.760222 0.000000 0.458064
O O14 0.835322 0.750012 0.237234
O O15 0.000000 0.500000 0.208316
O O16 0.500000 0.255635 0.251198
O O17 0.682884 0.000000 0.270119
#
# Coordination Sequence:
#
# PCOD9556816 Si02
#       6
#     8   8   4   8   4   8
#     4   8  14  27  50  77 104 141 190 238 284 341
#     4   9  16  30  56  84 104 130 179 238 288 338
#     4   9  18  31  51  79 113 153 193 237 289 347
#     4  10  20  33  50  75 105 135 172 219 273 335
#     4  11  23  37  55  85 123 159 195 243 301 362
#     4  10  20  37  62  85 110 151 200 248 297 354
#
# _framework density 20.527096
#
# number of rings (size 3 to 8) (size 9 to 14) (size 15 to 20)
#    0.000    2.600    1.000    2.100    0.000    4.800 
#    0.000    3.000    4.400    2.400    0.000    0.000 
#    0.000    0.000    0.000    0.000    0.000    0.000 
#
# Total GULP energy -223115.422301 kJ/mol
# GULP energy per Si atom -5577.885558 kJ/mol
# Density = 2.048038 g / cm^3
# Si number density = 20.527096 Si / 1000 Ang^3
#
#
#
# Elastic Constant Matrix: (Units=GPa)
#
#
# Indices 1 2 3 4 5 6 
#
# 1 63.8958 21.2749 55.1642 0.0000 0.0000 0.0000
# 2 21.2749 63.8956 55.1641 0.0000 0.0000 0.0000
# 3 55.1642 55.1641 156.7396 0.0000 0.0000 0.0000
# 4 0.0000 0.0000 0.0000 24.7726 0.0000 0.0000
# 5 0.0000 0.0000 0.0000 0.0000 24.7725 0.0000
# 6 0.0000 0.0000 0.0000 0.0000 0.0000 7.0397
#
#
#
# Elastic Compliance Matrix: (Units=1/GPa)
#
#
# Indices 1 2 3 4 5 6 
#
# 1 0.022521 -0.000942 -0.007595 0.000000 0.000000 0.000000
# 2 -0.000942 0.022521 -0.007595 0.000000 0.000000 0.000000
# 3 -0.007595 -0.007595 0.011726 0.000000 0.000000 0.000000
# 4 0.000000 0.000000 0.000000 0.040367 0.000000 0.000000
# 5 0.000000 0.000000 0.000000 0.000000 0.040367 0.000000
# 6 0.000000 0.000000 0.000000 0.000000 0.000000 0.142051
#
#
# Mechanical properties :
#
#
# Convention : Reuss Voigt Hill
#
# Bulk Modulus (GPa) = 40.80741 60.85971 50.83356
# Shear Modulus (GPa) = 15.62578 21.51216 18.56897
#
# Velocity S-wave (km/s) = 2.76203 3.24078 3.01093
# Velocity P-wave (km/s) = 5.48586 6.61183 6.07499
#
# Compressibility (1/GPa) = 0.02450535
#
# Stress axis : x y z
#
# Youngs Moduli (GPa) = 44.40311 44.40297 85.28113
#
# Poissons Ratio (x) = 0.04182 0.64769
# Poissons Ratio (y) = 0.04182 0.64769
# Poissons Ratio (z) = 0.33723 0.33723
#
# Static dielectric constant tensor:
#      x y z
#    x 1.756770 0.000000 0.000000 
#    y 0.000000 1.756770 0.000000 
#    z 0.000000 0.000000 1.743040 
# 
# From -- ./inp_files/5559.got.cif
#   From: 2010.05.17/outbox.cif.g08.bks.cpg/sg115_3_cif.got.tgz:5559.got - 2010.05.20 11:07:42.
