data_PCOD9556077
_publ_section_title
;
Structure prediction by ZEFSAII (Michael W. Deem and Ramdas Pophale) SiO2 
 PCOD9556077
Probable space group: P -4 21 C
;
_chemical_formula_sum "Si O2"
_cell_formula_units_Z 40
_cell_length_a 14.461037
_cell_length_b 14.461037
_cell_length_c 9.165315
_cell_angle_alpha 90.000000
_cell_angle_beta 90.000000
_cell_angle_gamma 90.000000
_cell_volume 1916.665256
_symmetry_space_group_name_H-M "P -4 21 C"
_symmetry_group_IT_number 114
_symmetry_cell_setting 'tetragonal'
loop_
_space_group_symop_operation_xyz
x,y,z
y,-x,-z
-x,-y,z
-y,x,-z
1/2+x,1/2-y,1/2-z
1/2-x,1/2+y,1/2-z
1/2-y,1/2-x,1/2+z
1/2+y,1/2+x,1/2+z
loop_
_atom_site_type_symbol
_atom_site_label
_atom_site_fract_x
_atom_site_fract_y
_atom_site_fract_z
Si Si1 0.128057 0.933442 0.972247
Si Si2 0.360396 0.198294 0.061565
Si Si3 0.985686 0.673562 0.973206
Si Si4 0.302994 0.299606 0.778543
Si Si5 0.647023 0.057841 0.693496
O O1 0.142380 0.868907 0.830868
O O2 0.225971 0.940531 0.053840
O O3 0.040658 0.896176 0.063068
O O4 0.286907 0.233469 0.182013
O O5 0.462654 0.182420 0.123786
O O6 0.322124 0.095691 0.027288
O O7 0.359159 0.257942 0.914248
O O8 0.949698 0.596558 0.863220
O O9 0.954260 0.644574 0.133820
O O10 0.220279 0.361450 0.840703
#
# Coordination Sequence:
#
# PCOD9556077 Si02
#       5
#     8   8   8   8   8
#     4  10  21  40  68 101 133 186 243 280 347 427
#     4  12  24  46  68 101 143 182 238 296 356 424
#     4  11  24  42  67 104 140 185 230 296 352 429
#     4  11  24  45  69 100 139 188 231 297 355 421
#     4  11  26  41  70 104 138 182 238 284 363 423
#
# _framework density 20.869581
#
# number of rings (size 3 to 8) (size 9 to 14) (size 15 to 20)
#    0.000    1.000    4.000    3.000    2.800    1.600 
#    0.000    8.000    0.000    0.000    0.000    0.000 
#    0.000    0.000    0.000    0.000    0.000    0.000 
#
# Total GULP energy -223497.712511 kJ/mol
# GULP energy per Si atom -5587.442813 kJ/mol
# Density = 2.082208 g / cm^3
# Si number density = 20.869581 Si / 1000 Ang^3
#
#
#
# Elastic Constant Matrix: (Units=GPa)
#
#
# Indices 1 2 3 4 5 6 
#
# 1 112.7598 28.5792 25.9340 0.0000 0.0000 0.0000
# 2 28.5792 112.7598 25.9340 0.0000 0.0000 0.0000
# 3 25.9340 25.9340 17.4220 0.0000 0.0000 0.0000
# 4 0.0000 0.0000 0.0000 25.3746 0.0000 0.0000
# 5 0.0000 0.0000 0.0000 0.0000 25.3746 0.0000
# 6 0.0000 0.0000 0.0000 0.0000 0.0000 35.7719
#
#
#
# Elastic Compliance Matrix: (Units=1/GPa)
#
#
# Indices 1 2 3 4 5 6 
#
# 1 0.013736 0.001857 -0.023212 0.000000 0.000000 0.000000
# 2 0.001857 0.013736 -0.023212 0.000000 0.000000 0.000000
# 3 -0.023212 -0.023212 0.126504 0.000000 0.000000 0.000000
# 4 0.000000 0.000000 0.000000 0.039409 0.000000 0.000000
# 5 0.000000 0.000000 0.000000 0.000000 0.039409 0.000000
# 6 0.000000 0.000000 0.000000 0.000000 0.000000 0.027955
#
#
# Mechanical properties :
#
#
# Convention : Reuss Voigt Hill
#
# Bulk Modulus (GPa) = 15.42186 44.87068 30.14627
# Shear Modulus (GPa) = 13.45900 28.13720 20.79810
#
# Velocity S-wave (km/s) = 2.54226 3.67582 3.16028
# Velocity P-wave (km/s) = 4.00289 6.28989 5.27190
#
# Compressibility (1/GPa) = 0.06484302
#
# Stress axis : x y z
#
# Youngs Moduli (GPa) = 72.79972 72.79972 7.90488
#
# Poissons Ratio (x) = -0.13520 0.18349
# Poissons Ratio (y) = -0.13520 0.18349
# Poissons Ratio (z) = 1.68982 1.68982
#
# Static dielectric constant tensor:
#      x y z
#    x 1.772110 0.000000 0.000000 
#    y 0.000000 1.772110 0.000000 
#    z 0.000000 0.000000 1.725960 
# 
# From -- ./inp_files/769.got.cif
#   From: 2010.05.17/outbox.cif.g08.bks.cpg/sg114_1_cif.got.tgz:769.got - 2010.05.20 11:04:54.
