data_PCOD9556878
_publ_section_title
;
Structure prediction by ZEFSAII (Michael W. Deem and Ramdas Pophale) SiO2 
 PCOD9556878
Probable space group: P -4 M 2
;
_chemical_formula_sum "Si O2"
_cell_formula_units_Z 48
_cell_length_a 9.182247
_cell_length_b 9.182247
_cell_length_c 31.784677
_cell_angle_alpha 90.000000
_cell_angle_beta 90.000000
_cell_angle_gamma 90.000000
_cell_volume 2679.882449
_symmetry_space_group_name_H-M "P -4 M 2"
_symmetry_group_IT_number 115
_symmetry_cell_setting 'tetragonal'
loop_
_space_group_symop_operation_xyz
x,y,z
y,-x,-z
-x,-y,z
-y,x,-z
y,x,-z
-y,-x,-z
-x,y,z
x,-y,z
loop_
_atom_site_type_symbol
_atom_site_label
_atom_site_fract_x
_atom_site_fract_y
_atom_site_fract_z
Si Si1 0.822649 0.831815 0.453664
Si Si2 0.325334 0.171041 0.291212
Si Si3 0.824365 0.670003 0.368995
Si Si4 0.827612 0.173637 0.126301
Si Si5 0.826421 0.672426 0.961100
Si Si6 0.673684 0.672465 0.204160
O O1 0.777453 0.777453 0.500000
O O2 0.777770 0.736804 0.413873
O O3 0.000000 0.832397 0.454950
O O4 0.776394 0.000000 0.447960
O O5 0.500000 0.186540 0.295949
O O6 0.247089 0.243267 0.330802
O O7 0.283585 0.250559 0.247839
O O8 0.291087 0.000000 0.288636
O O9 0.786897 0.500000 0.366442
O O10 0.000000 0.683481 0.366499
O O11 0.750147 0.214862 0.082578
O O12 0.758337 0.258584 0.165177
O O13 0.000000 0.200020 0.123392
O O14 0.804709 0.000000 0.132402
O O15 0.800465 0.500000 0.958056
O O16 0.000000 0.695648 0.967273
O O17 0.741099 0.741099 0.000000
O O18 0.500000 0.696087 0.198291
O O19 0.699364 0.500000 0.206970
#
# Coordination Sequence:
#
# PCOD9556878 Si02
#       6
#     8   8   8   8   8   8
#     4   8  14  27  48  71  96 131 175 219 260 303
#     4  10  21  37  57  79 103 136 178 220 263 313
#     4  10  20  33  51  77 108 140 173 212 261 314
#     4  10  21  37  58  83 110 142 180 221 265 313
#     4  10  21  37  58  83 111 145 184 225 269 316
#     4  10  21  37  57  80 107 140 176 216 265 318
#
# _framework density 17.911235000000001
#
# number of rings (size 3 to 8) (size 9 to 14) (size 15 to 20)
#    0.000    2.333    0.000    3.000    0.000    6.333 
#    0.000    0.833    0.000    3.000    0.000    0.000 
#    0.000    0.000    0.000    0.000    0.000    0.000 
#
# Total GULP energy -267963.190365 kJ/mol
# GULP energy per Si atom -5582.566466 kJ/mol
# Density = 1.787047 g / cm^3
# Si number density = 17.911235 Si / 1000 Ang^3
#
#
#
# Elastic Constant Matrix: (Units=GPa)
#
#
# Indices 1 2 3 4 5 6 
#
# 1 72.2457 62.4872 91.0914 0.0000 0.0000 0.0000
# 2 62.4872 72.2457 91.0914 0.0000 0.0000 0.0000
# 3 91.0914 91.0914 211.6516 0.0000 0.0000 0.0000
# 4 0.0000 0.0000 0.0000 166.7112 0.0000 0.0000
# 5 0.0000 0.0000 0.0000 0.0000 166.7112 0.0000
# 6 0.0000 0.0000 0.0000 0.0000 0.0000 26.0974
#
#
#
# Elastic Compliance Matrix: (Units=1/GPa)
#
#
# Indices 1 2 3 4 5 6 
#
# 1 0.060115 -0.042361 -0.007641 0.000000 0.000000 0.000000
# 2 -0.042361 0.060115 -0.007641 0.000000 0.000000 0.000000
# 3 -0.007641 -0.007641 0.011302 0.000000 0.000000 0.000000
# 4 0.000000 0.000000 0.000000 0.005998 0.000000 0.000000
# 5 0.000000 0.000000 0.000000 0.000000 0.005998 0.000000
# 6 0.000000 0.000000 0.000000 0.000000 0.000000 0.038318
#
#
# Mechanical properties :
#
#
# Convention : Reuss Voigt Hill
#
# Bulk Modulus (GPa) = 61.55379 93.94255 77.74817
# Shear Modulus (GPa) = 16.52633 79.33550 47.93091
#
# Velocity S-wave (km/s) = 3.04086 6.66257 5.17864
# Velocity P-wave (km/s) = 6.83884 10.57115 8.90278
#
# Compressibility (1/GPa) = 0.01624595
#
# Stress axis : x y z
#
# Youngs Moduli (GPa) = 16.63482 16.63482 88.48000
#
# Poissons Ratio (x) = 0.70466 0.67609
# Poissons Ratio (y) = 0.70466 0.67609
# Poissons Ratio (z) = 0.12711 0.12711
#
# Static dielectric constant tensor:
#      x y z
#    x 1.598220 0.000000 0.000000 
#    y 0.000000 1.598220 0.000000 
#    z 0.000000 0.000000 1.583900 
# 
# From -- ./inp_files/5962.got.cif
#   From: 2010.05.17/outbox.cif.g08.bks.cpg/sg115_3_cif.got.tgz:5962.got - 2010.05.20 11:07:42.
