data_PCOD9556155
_publ_section_title
;
Structure prediction by ZEFSAII (Michael W. Deem and Ramdas Pophale) SiO2 
 PCOD9556155
Probable space group: P -4 21 C
;
_chemical_formula_sum "Si O2"
_cell_formula_units_Z 60
_cell_length_a 11.504225
_cell_length_b 11.504225
_cell_length_c 19.373235
_cell_angle_alpha 90.000000
_cell_angle_beta 90.000000
_cell_angle_gamma 90.000000
_cell_volume 2563.993269
_symmetry_space_group_name_H-M "P -4 21 C"
_symmetry_group_IT_number 114
_symmetry_cell_setting 'tetragonal'
loop_
_space_group_symop_operation_xyz
x,y,z
y,-x,-z
-x,-y,z
-y,x,-z
1/2+x,1/2-y,1/2-z
1/2-x,1/2+y,1/2-z
1/2-y,1/2-x,1/2+z
1/2+y,1/2+x,1/2+z
loop_
_atom_site_type_symbol
_atom_site_label
_atom_site_fract_x
_atom_site_fract_y
_atom_site_fract_z
Si Si1 0.832826 0.180857 0.048746
Si Si2 0.328447 0.313222 0.198280
Si Si3 0.879586 0.438277 0.349484
Si Si4 0.000000 0.000000 0.883907
Si Si5 0.627009 0.036835 0.366496
Si Si6 0.448063 0.358153 0.737542
Si Si7 0.033206 0.340464 0.006745
Si Si8 0.198362 0.758351 0.667375
O O1 0.763964 0.127265 0.986288
O O2 0.735141 0.217713 0.103533
O O3 0.910073 0.074374 0.074282
O O4 0.917380 0.288374 0.040418
O O5 0.378635 0.204692 0.153101
O O6 0.203267 0.357735 0.166637
O O7 0.387022 0.436955 0.218175
O O8 0.319901 0.258553 0.274868
O O9 0.772146 0.466868 0.296601
O O10 0.860974 0.490711 0.427493
O O11 0.000000 0.500000 0.326809
O O12 0.921143 0.069486 0.830365
O O13 0.597191 0.063722 0.446923
O O14 0.500000 0.000000 0.336649
O O15 0.706409 0.924051 0.356644
O O16 0.339018 0.367884 0.788294
#
# Coordination Sequence:
#
# PCOD9556155 Si02
#       8
#     8   8   8   4   8   8   8   8
#     4  12  24  40  63  97 138 188 233 300 373 441
#     4  10  22  43  64  99 136 182 229 306 365 435
#     4  11  24  44  66 100 145 187 242 296 362 447
#     4  12  22  43  62 100 136 179 226 296 382 444
#     4  11  23  41  70 102 137 188 247 297 369 441
#     4  10  23  43  65 100 137 179 242 294 375 446
#     4  12  24  42  63 100 138 187 240 297 358 444
#     4  10  22  40  64  94 137 176 235 291 364 444
#
# _framework density 23.400995999999999
#
# number of rings (size 3 to 8) (size 9 to 14) (size 15 to 20)
#    0.000    1.067    4.000    2.000    3.733    4.800 
#    7.200    0.000    0.000    0.000    0.000    0.000 
#    0.000    0.000    0.000    0.000    0.000    0.000 
#
# Total GULP energy -334203.484005 kJ/mol
# GULP energy per Si atom -5570.058067 kJ/mol
# Density = 2.334773 g / cm^3
# Si number density = 23.400996 Si / 1000 Ang^3
#
#
#
# Elastic Constant Matrix: (Units=GPa)
#
#
# Indices 1 2 3 4 5 6 
#
# 1 94.1327 6.6538 20.5340 0.0000 0.0000 0.0000
# 2 6.6538 94.1327 20.5340 0.0000 0.0000 0.0000
# 3 20.5340 20.5340 91.4182 0.0000 0.0000 0.0000
# 4 0.0000 0.0000 0.0000 15.7541 0.0000 0.0000
# 5 0.0000 0.0000 0.0000 0.0000 15.7541 0.0000
# 6 0.0000 0.0000 0.0000 0.0000 0.0000 43.7046
#
#
#
# Elastic Compliance Matrix: (Units=1/GPa)
#
#
# Indices 1 2 3 4 5 6 
#
# 1 0.011176 -0.000255 -0.002453 0.000000 0.000000 0.000000
# 2 -0.000255 0.011176 -0.002453 0.000000 0.000000 0.000000
# 3 -0.002453 -0.002453 0.012041 0.000000 0.000000 0.000000
# 4 0.000000 0.000000 0.000000 0.063476 0.000000 0.000000
# 5 0.000000 0.000000 0.000000 0.000000 0.063476 0.000000
# 6 0.000000 0.000000 0.000000 0.000000 0.000000 0.022881
#
#
# Mechanical properties :
#
#
# Convention : Reuss Voigt Hill
#
# Bulk Modulus (GPa) = 41.54331 41.68081 41.61206
# Shear Modulus (GPa) = 24.68259 30.50668 27.59463
#
# Velocity S-wave (km/s) = 3.25124 3.61452 3.43768
# Velocity P-wave (km/s) = 5.64672 5.93885 5.79462
#
# Compressibility (1/GPa) = 0.02407127
#
# Stress axis : x y z
#
# Youngs Moduli (GPa) = 89.47389 89.47389 83.05115
#
# Poissons Ratio (x) = 0.02281 0.20374
# Poissons Ratio (y) = 0.02281 0.20374
# Poissons Ratio (z) = 0.21949 0.21949
#
# Static dielectric constant tensor:
#      x y z
#    x 2.006930 0.000000 0.000000 
#    y 0.000000 2.006930 0.000000 
#    z 0.000000 0.000000 1.906450 
# 
# From -- ./inp_files/3214.got.cif
#   From: 2010.05.17/outbox.cif.g08.bks.cpg/sg114_2_cif.got.tgz:3214.got - 2010.05.20 11:04:54.
