data_PCOD9556451
_publ_section_title
;
Structure prediction by ZEFSAII (Michael W. Deem and Ramdas Pophale) SiO2 
 PCOD9556451
Probable space group: P -4 21 C
;
_chemical_formula_sum "Si O2"
_cell_formula_units_Z 26
_cell_length_a 10.015063
_cell_length_b 10.015063
_cell_length_c 10.984846
_cell_angle_alpha 90.000000
_cell_angle_beta 90.000000
_cell_angle_gamma 90.000000
_cell_volume 1101.796387
_symmetry_space_group_name_H-M "P -4 21 C"
_symmetry_group_IT_number 114
_symmetry_cell_setting 'tetragonal'
loop_
_space_group_symop_operation_xyz
x,y,z
y,-x,-z
-x,-y,z
-y,x,-z
1/2+x,1/2-y,1/2-z
1/2-x,1/2+y,1/2-z
1/2-y,1/2-x,1/2+z
1/2+y,1/2+x,1/2+z
loop_
_atom_site_type_symbol
_atom_site_label
_atom_site_fract_x
_atom_site_fract_y
_atom_site_fract_z
Si Si1 0.650992 0.982424 0.172381
Si Si2 0.000000 0.000000 0.500000
Si Si3 0.793298 0.016200 0.949940
Si Si4 0.129234 0.823733 0.293068
O O1 0.681716 0.825903 0.189804
O O2 0.500000 0.000000 0.216083
O O3 0.756597 0.076519 0.242390
O O4 0.659666 0.024682 0.029097
O O5 0.932686 0.110805 0.413302
O O6 0.805502 0.986858 0.808302
O O7 0.863765 0.886556 0.009266
#
# Coordination Sequence:
#
# PCOD9556451 Si02
#       4
#     8   2   8   8
#     4  11  27  46  78 112 157 204 265 325 401 481
#     4  12  28  48  82 108 160 204 272 338 408 468
#     4   9  20  44  73  97 142 198 248 306 383 459
#     4  11  27  48  74 114 155 203 263 330 395 481
#
# _framework density 23.597823999999999
#
# number of rings (size 3 to 8) (size 9 to 14) (size 15 to 20)
#    0.000    1.538    0.000    3.692   12.923    3.692 
#    0.000    0.000    0.000    0.000    0.000    0.000 
#    0.000    0.000    0.000    0.000    0.000    0.000 
#
# Total GULP energy -145308.703313 kJ/mol
# GULP energy per Si atom -5588.796281 kJ/mol
# Density = 2.354411 g / cm^3
# Si number density = 23.597824 Si / 1000 Ang^3
#
#
#
# Elastic Constant Matrix: (Units=GPa)
#
#
# Indices 1 2 3 4 5 6 
#
# 1 116.3695 37.2548 37.0519 0.0000 0.0000 0.0000
# 2 37.2548 116.3695 37.0519 0.0000 0.0000 0.0000
# 3 37.0519 37.0519 148.7369 0.0000 0.0000 0.0000
# 4 0.0000 0.0000 0.0000 20.8868 0.0000 0.0000
# 5 0.0000 0.0000 0.0000 0.0000 20.8868 0.0000
# 6 0.0000 0.0000 0.0000 0.0000 0.0000 21.1440
#
#
#
# Elastic Compliance Matrix: (Units=1/GPa)
#
#
# Indices 1 2 3 4 5 6 
#
# 1 0.010019 -0.002621 -0.001843 0.000000 0.000000 0.000000
# 2 -0.002621 0.010019 -0.001843 0.000000 0.000000 0.000000
# 3 -0.001843 -0.001843 0.007642 0.000000 0.000000 0.000000
# 4 0.000000 0.000000 0.000000 0.047877 0.000000 0.000000
# 5 0.000000 0.000000 0.000000 0.000000 0.047877 0.000000
# 6 0.000000 0.000000 0.000000 0.000000 0.000000 0.047295
#
#
# Mechanical properties :
#
#
# Convention : Reuss Voigt Hill
#
# Bulk Modulus (GPa) = 66.37351 67.13253 66.75302
# Shear Modulus (GPa) = 26.54427 30.59132 28.56780
#
# Velocity S-wave (km/s) = 3.35753 3.60441 3.48316
# Velocity P-wave (km/s) = 6.57410 6.76999 6.67276
#
# Compressibility (1/GPa) = 0.01506625
#
# Stress axis : x y z
#
# Youngs Moduli (GPa) = 99.80893 99.80893 130.86414
#
# Poissons Ratio (x) = 0.26157 0.24119
# Poissons Ratio (y) = 0.26157 0.24119
# Poissons Ratio (z) = 0.18395 0.18395
#
# Static dielectric constant tensor:
#      x y z
#    x 1.970030 0.000000 0.000000 
#    y 0.000000 1.970030 0.000000 
#    z 0.000000 0.000000 1.959640 
# 
# From -- ./inp_files/487.got.cif
#   From: 2010.05.17/outbox.cif.g08.bks.cpg/sg114_1_cif.got.tgz:487.got - 2010.05.20 11:04:54.
