data_PCOD9556608
_publ_section_title
;
Structure prediction by ZEFSAII (Michael W. Deem and Ramdas Pophale) SiO2 
 PCOD9556608
Probable space group: P -4 M 2
;
_chemical_formula_sum "Si O2"
_cell_formula_units_Z 56
_cell_length_a 14.133749
_cell_length_b 14.133749
_cell_length_c 13.871657
_cell_angle_alpha 90.000000
_cell_angle_beta 90.000000
_cell_angle_gamma 90.000000
_cell_volume 2771.041886
_symmetry_space_group_name_H-M "P -4 M 2"
_symmetry_group_IT_number 115
_symmetry_cell_setting 'tetragonal'
loop_
_space_group_symop_operation_xyz
x,y,z
y,-x,-z
-x,-y,z
-y,x,-z
y,x,-z
-y,-x,-z
-x,y,z
x,-y,z
loop_
_atom_site_type_symbol
_atom_site_label
_atom_site_fract_x
_atom_site_fract_y
_atom_site_fract_z
Si Si1 0.211910 0.613367 0.756290
Si Si2 0.890161 0.737443 0.899909
Si Si3 0.605843 0.113805 0.926717
Si Si4 0.109874 0.611700 0.562647
Si Si5 0.113068 0.232504 0.203812
Si Si6 0.390516 0.614221 0.887734
Si Si7 0.887807 0.773946 0.422061
O O1 0.206178 0.500000 0.767108
O O2 0.127917 0.663816 0.813831
O O3 0.187726 0.634083 0.644721
O O4 0.309911 0.644266 0.810028
O O5 0.834710 0.830931 0.869015
O O6 0.000000 0.759023 0.914144
O O7 0.853834 0.678150 0.991288
O O8 0.500000 0.151520 0.936384
O O9 0.659107 0.132183 0.826854
O O10 0.599886 0.000000 0.937145
O O11 0.112781 0.500000 0.545840
O O12 0.129585 0.670378 0.466271
O O13 0.000000 0.634762 0.592468
O O14 0.145652 0.214157 0.312687
O O15 0.000000 0.217857 0.196070
O O16 0.500000 0.644695 0.868789
O O17 0.392026 0.500000 0.883500
O O18 0.364569 0.635432 0.000000
O O19 0.843448 0.843448 0.500000
O O20 0.000000 0.788636 0.418871
#
# Coordination Sequence:
#
# PCOD9556608 Si02
#       7
#     8   8   8   8   8   8   8
#     4  10  19  31  51  79 109 143 185 234 291 353
#     4  11  22  36  56  83 118 155 190 232 284 343
#     4   9  19  37  60  86 116 147 182 229 282 338
#     4   9  18  33  54  80 107 137 180 234 290 346
#     4  10  22  39  59  84 114 153 199 241 287 345
#     4   8  15  29  48  72 106 146 185 227 277 337
#     4  10  21  37  57  81 111 148 191 242 294 340
#
# _framework density 20.209004
#
# number of rings (size 3 to 8) (size 9 to 14) (size 15 to 20)
#    0.000    2.429    0.000    2.571    0.000    5.286 
#    0.000    6.429    0.000    5.143    0.000    0.000 
#    0.000    1.143    0.000    0.000    0.000    0.571 
#
# Total GULP energy -312313.315480 kJ/mol
# GULP energy per Si atom -5577.023491 kJ/mol
# Density = 2.016301 g / cm^3
# Si number density = 20.209004 Si / 1000 Ang^3
#
#
#
# Elastic Constant Matrix: (Units=GPa)
#
#
# Indices 1 2 3 4 5 6 
#
# 1 82.2087 50.3569 38.9145 0.0000 0.0000 0.0000
# 2 50.3569 82.2090 38.9147 0.0000 0.0000 0.0000
# 3 38.9145 38.9147 72.3834 0.0000 0.0000 0.0000
# 4 0.0000 0.0000 0.0000 23.5193 0.0000 0.0000
# 5 0.0000 0.0000 0.0000 0.0000 23.5193 0.0000
# 6 0.0000 0.0000 0.0000 0.0000 0.0000 4.7849
#
#
#
# Elastic Compliance Matrix: (Units=1/GPa)
#
#
# Indices 1 2 3 4 5 6 
#
# 1 0.021209 -0.010186 -0.005926 0.000000 0.000000 0.000000
# 2 -0.010186 0.021209 -0.005926 0.000000 0.000000 0.000000
# 3 -0.005926 -0.005926 0.020187 0.000000 0.000000 0.000000
# 4 0.000000 0.000000 0.000000 0.042518 0.000000 0.000000
# 5 0.000000 0.000000 0.000000 0.000000 0.042518 0.000000
# 6 0.000000 0.000000 0.000000 0.000000 0.000000 0.208989
#
#
# Mechanical properties :
#
#
# Convention : Reuss Voigt Hill
#
# Bulk Modulus (GPa) = 53.97094 54.79703 54.38398
# Shear Modulus (GPa) = 12.28855 17.60571 14.94713
#
# Velocity S-wave (km/s) = 2.46859 2.95478 2.72256
# Velocity P-wave (km/s) = 5.90674 6.23017 6.07061
#
# Compressibility (1/GPa) = 0.01852849
#
# Stress axis : x y z
#
# Youngs Moduli (GPa) = 47.15003 47.15013 49.53673
#
# Poissons Ratio (x) = 0.48029 0.29355
# Poissons Ratio (y) = 0.48029 0.29355
# Poissons Ratio (z) = 0.27940 0.27941
#
# Static dielectric constant tensor:
#      x y z
#    x 1.743300 0.000000 0.000000 
#    y 0.000000 1.743300 0.000000 
#    z 0.000000 0.000000 1.720340 
# 
# From -- ./inp_files/3094.got.cif
#   From: 2010.05.17/outbox.cif.g08.bks.cpg/sg115_2_cif.got.tgz:3094.got - 2010.05.20 11:07:42.
