data_PCOD9556618
_publ_section_title
;
Structure prediction by ZEFSAII (Michael W. Deem and Ramdas Pophale) SiO2 
 PCOD9556618
Probable space group: P -4 M 2
;
_chemical_formula_sum "Si O2"
_cell_formula_units_Z 48
_cell_length_a 17.528762
_cell_length_b 17.528762
_cell_length_c 10.087288
_cell_angle_alpha 90.000000
_cell_angle_beta 90.000000
_cell_angle_gamma 90.000000
_cell_volume 3099.394865
_symmetry_space_group_name_H-M "P -4 M 2"
_symmetry_group_IT_number 115
_symmetry_cell_setting 'tetragonal'
loop_
_space_group_symop_operation_xyz
x,y,z
y,-x,-z
-x,-y,z
-y,x,-z
y,x,-z
-y,-x,-z
-x,y,z
x,-y,z
loop_
_atom_site_type_symbol
_atom_site_label
_atom_site_fract_x
_atom_site_fract_y
_atom_site_fract_z
Si Si1 0.089615 0.407941 0.698662
Si Si2 0.911999 0.865989 0.142160
Si Si3 0.082616 0.830858 0.606129
Si Si4 0.185226 0.304493 0.514028
Si Si5 0.307404 0.910882 0.754715
Si Si6 0.092216 0.587213 0.999211
O O1 0.089448 0.500000 0.696079
O O2 0.154039 0.375645 0.599928
O O3 0.000000 0.384753 0.670798
O O4 0.109673 0.384330 0.850350
O O5 0.866806 0.914328 0.249954
O O6 0.910369 0.779515 0.194880
O O7 0.000000 0.890261 0.132950
O O8 0.874157 0.874157 0.000000
O O9 0.104855 0.895146 0.500000
O O10 0.143961 0.765063 0.590770
O O11 0.000000 0.799413 0.572700
O O12 0.272515 0.272515 0.500000
O O13 0.144597 0.312933 0.371069
O O14 0.360482 0.885214 0.877268
O O15 0.326147 0.000000 0.720558
O O16 0.119781 0.500000 0.014078
O O17 0.000000 0.584972 0.002368
#
# Coordination Sequence:
#
# PCOD9556618 Si02
#       6
#     8   8   8   8   8   8
#     4   9  18  33  53  75  96 123 162 204 247 294
#     4  11  23  35  44  60  82 114 163 213 255 293
#     4  11  21  33  47  61  83 118 160 207 252 291
#     4  11  21  33  47  69  98 126 159 195 239 297
#     4  10  19  32  46  62  88 118 154 198 245 294
#     4   8  16  30  49  72  93 117 154 201 250 298
#
# _framework density 15.486893
#
# number of rings (size 3 to 8) (size 9 to 14) (size 15 to 20)
#    0.000    2.000    3.333    3.500    2.333    2.667 
#    0.000    1.667    0.000    0.000    0.000    0.000 
#    0.000    0.333    0.000    0.000    0.000    4.000 
#
# Total GULP energy -267357.180894 kJ/mol
# GULP energy per Si atom -5569.941269 kJ/mol
# Density = 1.545164 g / cm^3
# Si number density = 15.486893 Si / 1000 Ang^3
#
#
#
# Elastic Constant Matrix: (Units=GPa)
#
#
# Indices 1 2 3 4 5 6 
#
# 1 36.1829 8.0545 21.6734 0.0000 0.0000 0.0000
# 2 8.0545 36.1831 21.6751 0.0000 0.0000 0.0000
# 3 21.6734 21.6751 110.8498 0.0000 0.0000 0.0000
# 4 0.0000 0.0000 0.0000 23.3003 0.0000 0.0000
# 5 0.0000 0.0000 0.0000 0.0000 23.3003 0.0000
# 6 0.0000 0.0000 0.0000 0.0000 0.0000 16.7190
#
#
#
# Elastic Compliance Matrix: (Units=1/GPa)
#
#
# Indices 1 2 3 4 5 6 
#
# 1 0.031757 -0.003794 -0.005467 0.000000 0.000000 0.000000
# 2 -0.003794 0.031757 -0.005468 0.000000 0.000000 0.000000
# 3 -0.005467 -0.005468 0.011159 0.000000 0.000000 0.000000
# 4 0.000000 0.000000 0.000000 0.042918 0.000000 0.000000
# 5 0.000000 0.000000 0.000000 0.000000 0.042918 0.000000
# 6 0.000000 0.000000 0.000000 0.000000 0.000000 0.059812
#
#
# Mechanical properties :
#
#
# Convention : Reuss Voigt Hill
#
# Bulk Modulus (GPa) = 22.11655 31.78020 26.94838
# Shear Modulus (GPa) = 18.87851 21.45143 20.16497
#
# Velocity S-wave (km/s) = 3.49520 3.72578 3.61233
# Velocity P-wave (km/s) = 5.53177 6.25091 5.90230
#
# Compressibility (1/GPa) = 0.04521500
#
# Stress axis : x y z
#
# Youngs Moduli (GPa) = 31.48931 31.48883 89.61117
#
# Poissons Ratio (x) = 0.11947 0.48992
# Poissons Ratio (y) = 0.11948 0.48998
# Poissons Ratio (z) = 0.17216 0.17218
#
# Static dielectric constant tensor:
#      x y z
#    x 1.533510 0.000000 0.000000 
#    y 0.000000 1.533510 0.000000 
#    z 0.000000 0.000000 1.539190 
# 
# From -- ./inp_files/1827.got.cif
#   From: 2010.05.17/outbox.cif.g08.bks.cpg/sg115_1_cif.got.tgz:1827.got - 2010.05.20 11:07:42.
