data_PCOD9556329
_publ_section_title
;
Structure prediction by ZEFSAII (Michael W. Deem and Ramdas Pophale) SiO2 
 PCOD9556329
Probable space group: P -4 21 C
;
_chemical_formula_sum "Si O2"
_cell_formula_units_Z 38
_cell_length_a 10.461247
_cell_length_b 10.461247
_cell_length_c 12.427438
_cell_angle_alpha 90.000000
_cell_angle_beta 90.000000
_cell_angle_gamma 90.000000
_cell_volume 1360.030092
_symmetry_space_group_name_H-M "P -4 21 C"
_symmetry_group_IT_number 114
_symmetry_cell_setting 'tetragonal'
loop_
_space_group_symop_operation_xyz
x,y,z
y,-x,-z
-x,-y,z
-y,x,-z
1/2+x,1/2-y,1/2-z
1/2-x,1/2+y,1/2-z
1/2-y,1/2-x,1/2+z
1/2+y,1/2+x,1/2+z
loop_
_atom_site_type_symbol
_atom_site_label
_atom_site_fract_x
_atom_site_fract_y
_atom_site_fract_z
Si Si1 0.554507 0.299956 0.646977
Si Si2 0.500000 0.500000 0.500000
Si Si3 0.729479 0.819794 0.420979
Si Si4 0.500000 0.000000 0.892565
Si Si5 0.898236 0.115861 0.377100
Si Si6 0.318465 0.917725 0.706684
O O1 0.457791 0.391148 0.587457
O O2 0.686498 0.344889 0.589197
O O3 0.567057 0.319666 0.774158
O O4 0.567078 0.146880 0.635183
O O5 0.629762 0.933957 0.437118
O O6 0.811487 0.794750 0.309928
O O7 0.827643 0.162458 0.485569
O O8 0.383032 0.948517 0.818680
O O9 0.959513 0.247623 0.336203
O O10 0.000000 0.000000 0.392430
#
# Coordination Sequence:
#
# PCOD9556329 Si02
#       6
#     8   2   8   4   8   8
#     4  10  26  47  72 114 154 207 271 334 416 501
#     4  12  24  48  80 108 158 220 264 348 420 502
#     4  10  28  48  76 119 156 216 275 345 429 500
#     4  12  24  54  78 112 178 212 280 358 422 524
#     4  12  26  51  81 115 160 211 276 346 416 508
#     4  10  26  47  75 115 148 220 266 339 417 504
#
# _framework density 27.940560000000001
#
# number of rings (size 3 to 8) (size 9 to 14) (size 15 to 20)
#    1.263    0.000    3.158    0.000    5.895    5.895 
#    3.789    0.000    0.000    0.000    0.000    0.000 
#    0.000    0.000    0.000    0.000    0.000    0.000 
#
# Total GULP energy -211554.221645 kJ/mol
# GULP energy per Si atom -5567.216359 kJ/mol
# Density = 2.787697 g / cm^3
# Si number density = 27.940560 Si / 1000 Ang^3
#
#
#
# Elastic Constant Matrix: (Units=GPa)
#
#
# Indices 1 2 3 4 5 6 
#
# 1 82.2201 39.2328 59.9582 0.0000 0.0000 0.0000
# 2 39.2328 82.2201 59.9582 0.0000 0.0000 0.0000
# 3 59.9582 59.9582 125.1416 0.0000 0.0000 0.0000
# 4 0.0000 0.0000 0.0000 51.9679 0.0000 0.0000
# 5 0.0000 0.0000 0.0000 0.0000 51.9679 0.0000
# 6 0.0000 0.0000 0.0000 0.0000 0.0000 62.6128
#
#
#
# Elastic Compliance Matrix: (Units=1/GPa)
#
#
# Indices 1 2 3 4 5 6 
#
# 1 0.019444 -0.003819 -0.007487 0.000000 0.000000 0.000000
# 2 -0.003819 0.019444 -0.007487 0.000000 0.000000 0.000000
# 3 -0.007487 -0.007487 0.015165 0.000000 0.000000 0.000000
# 4 0.000000 0.000000 0.000000 0.019243 0.000000 0.000000
# 5 0.000000 0.000000 0.000000 0.000000 0.019243 0.000000
# 6 0.000000 0.000000 0.000000 0.000000 0.000000 0.015971
#
#
# Mechanical properties :
#
#
# Convention : Reuss Voigt Hill
#
# Bulk Modulus (GPa) = 60.71750 67.54224 64.12987
# Shear Modulus (GPa) = 32.98533 42.00524 37.49529
#
# Velocity S-wave (km/s) = 3.43965 3.88155 3.66726
# Velocity P-wave (km/s) = 6.12805 6.65692 6.39795
#
# Compressibility (1/GPa) = 0.01646972
#
# Stress axis : x y z
#
# Youngs Moduli (GPa) = 51.42965 51.42965 65.94193
#
# Poissons Ratio (x) = 0.19639 0.49367
# Poissons Ratio (y) = 0.19639 0.49367
# Poissons Ratio (z) = 0.38503 0.38503
#
# Static dielectric constant tensor:
#      x y z
#    x 2.275190 0.000000 0.000000 
#    y 0.000000 2.275190 0.000000 
#    z 0.000000 0.000000 2.165530 
# 
# From -- ./inp_files/2530.got.cif
#   From: 2010.05.17/outbox.cif.g08.bks.cpg/sg114_2_cif.got.tgz:2530.got - 2010.05.20 11:04:54.
