data_PCOD9556015
_publ_section_title
;
Structure prediction by ZEFSAII (Michael W. Deem and Ramdas Pophale) SiO2 
 PCOD9556015
Probable space group: P -4 21 C
;
_chemical_formula_sum "Si O2"
_cell_formula_units_Z 42
_cell_length_a 10.924866
_cell_length_b 10.924866
_cell_length_c 14.175876
_cell_angle_alpha 90.000000
_cell_angle_beta 90.000000
_cell_angle_gamma 90.000000
_cell_volume 1691.929035
_symmetry_space_group_name_H-M "P -4 21 C"
_symmetry_group_IT_number 114
_symmetry_cell_setting 'tetragonal'
loop_
_space_group_symop_operation_xyz
x,y,z
y,-x,-z
-x,-y,z
-y,x,-z
1/2+x,1/2-y,1/2-z
1/2-x,1/2+y,1/2-z
1/2-y,1/2-x,1/2+z
1/2+y,1/2+x,1/2+z
loop_
_atom_site_type_symbol
_atom_site_label
_atom_site_fract_x
_atom_site_fract_y
_atom_site_fract_z
Si Si1 0.500000 0.500000 0.000000
Si Si2 0.445390 0.814631 0.698200
Si Si3 0.803849 0.818453 0.461600
Si Si4 0.557947 0.809644 0.141128
Si Si5 0.406220 0.885165 0.406638
Si Si6 0.893935 0.206666 0.165153
O O1 0.592767 0.582432 0.939281
O O2 0.579998 0.855709 0.673836
O O3 0.420181 0.837019 0.809091
O O4 0.420475 0.679604 0.657241
O O5 0.360201 0.920462 0.651365
O O6 0.728773 0.895035 0.539840
O O7 0.846777 0.698657 0.520190
O O8 0.206279 0.715691 0.626084
O O9 0.576871 0.713575 0.224521
O O10 0.489553 0.764021 0.387627
O O11 0.500000 0.000000 0.428518
#
# Coordination Sequence:
#
# PCOD9556015 Si02
#       6
#     2   8   8   8   8   8
#     4  12  28  44  68 112 136 174 236 300 340 412
#     4  10  20  42  68  98 132 179 231 276 348 410
#     4  12  26  44  70 103 142 176 233 286 350 409
#     4  10  22  42  68  97 134 179 227 283 340 414
#     4  11  22  43  70  96 139 180 230 288 340 418
#     4  11  23  41  67 100 135 181 228 280 345 414
#
# _framework density 24.823734999999999
#
# number of rings (size 3 to 8) (size 9 to 14) (size 15 to 20)
#    0.000    1.143    5.714    2.286    2.667    0.000 
#    0.000    0.952    0.000    0.000    0.000    0.000 
#    0.000    0.000    0.000    0.000    0.000    0.000 
#
# Total GULP energy -234647.015792 kJ/mol
# GULP energy per Si atom -5586.833709 kJ/mol
# Density = 2.476724 g / cm^3
# Si number density = 24.823735 Si / 1000 Ang^3
#
#
#
# Elastic Constant Matrix: (Units=GPa)
#
#
# Indices 1 2 3 4 5 6 
#
# 1 58.6395 30.8994 2.7368 0.0000 0.0000 0.0000
# 2 30.8994 58.6395 2.7368 0.0000 0.0000 0.0000
# 3 2.7368 2.7368 74.1668 0.0000 0.0000 0.0000
# 4 0.0000 0.0000 0.0000 19.8834 0.0000 0.0000
# 5 0.0000 0.0000 0.0000 0.0000 19.8834 0.0000
# 6 0.0000 0.0000 0.0000 0.0000 0.0000 49.6956
#
#
#
# Elastic Compliance Matrix: (Units=1/GPa)
#
#
# Indices 1 2 3 4 5 6 
#
# 1 0.023621 -0.012428 -0.000413 0.000000 0.000000 0.000000
# 2 -0.012428 0.023621 -0.000413 0.000000 0.000000 0.000000
# 3 -0.000413 -0.000413 0.013514 0.000000 0.000000 0.000000
# 4 0.000000 0.000000 0.000000 0.050293 0.000000 0.000000
# 5 0.000000 0.000000 0.000000 0.000000 0.050293 0.000000
# 6 0.000000 0.000000 0.000000 0.000000 0.000000 0.020122
#
#
# Mechanical properties :
#
#
# Convention : Reuss Voigt Hill
#
# Bulk Modulus (GPa) = 29.19830 29.35465 29.27647
# Shear Modulus (GPa) = 22.79061 28.23067 25.51064
#
# Velocity S-wave (km/s) = 3.03330 3.37596 3.20921
# Velocity P-wave (km/s) = 4.90466 5.20068 5.05484
#
# Compressibility (1/GPa) = 0.03424856
#
# Stress axis : x y z
#
# Youngs Moduli (GPa) = 42.33488 42.33488 73.99950
#
# Poissons Ratio (x) = 0.52612 0.03057
# Poissons Ratio (y) = 0.52612 0.03057
# Poissons Ratio (z) = 0.01749 0.01749
#
# Static dielectric constant tensor:
#      x y z
#    x 2.031280 0.000000 0.000000 
#    y 0.000000 2.031280 0.000000 
#    z 0.000000 0.000000 2.031600 
# 
# From -- ./inp_files/2556.got.cif
#   From: 2010.05.17/outbox.cif.g08.bks.cpg/sg114_2_cif.got.tgz:2556.got - 2010.05.20 11:04:54.
