data_PCOD9556690
_publ_section_title
;
Structure prediction by ZEFSAII (Michael W. Deem and Ramdas Pophale) SiO2 
 PCOD9556690
Probable space group: P -4 M 2
;
_chemical_formula_sum "Si O2"
_cell_formula_units_Z 48
_cell_length_a 13.544400
_cell_length_b 13.544400
_cell_length_c 16.477800
_cell_angle_alpha 90.000000
_cell_angle_beta 90.000000
_cell_angle_gamma 90.000000
_cell_volume 3022.865120
_symmetry_space_group_name_H-M "P -4 M 2"
_symmetry_group_IT_number 115
_symmetry_cell_setting 'tetragonal'
loop_
_space_group_symop_operation_xyz
x,y,z
y,-x,-z
-x,-y,z
-y,x,-z
y,x,-z
-y,-x,-z
-x,y,z
x,-y,z
loop_
_atom_site_type_symbol
_atom_site_label
_atom_site_fract_x
_atom_site_fract_y
_atom_site_fract_z
Si Si1 0.116798 0.616022 0.672509
Si Si2 0.883202 0.616023 0.327490
Si Si3 0.115325 0.719005 0.500000
Si Si4 0.883096 0.883096 0.905246
Si Si5 0.749831 0.749831 0.789158
Si Si6 0.383297 0.616703 0.094903
O O1 0.140531 0.500000 0.678281
O O2 0.132316 0.654740 0.580817
O O3 0.182175 0.680903 0.732765
O O4 0.000000 0.628022 0.690699
O O5 0.859470 0.500000 0.321719
O O6 0.867684 0.654740 0.419182
O O7 0.817825 0.680903 0.267235
O O8 0.000000 0.628023 0.309300
O O9 0.187806 0.812195 0.500000
O O10 0.000000 0.749458 0.500000
O O11 0.818371 0.818371 0.845273
O O12 0.000000 0.865520 0.892596
O O13 0.865520 0.000000 0.892596
O O14 0.861323 0.861323 0.000000
O O15 0.682270 0.682270 0.846561
O O16 0.500000 0.634528 0.108142
O O17 0.365470 0.500000 0.108141
O O18 0.362374 0.637627 0.000000
#
# Coordination Sequence:
#
# PCOD9556690 Si02
#       6
#     8   8   8   8   8   8
#     4  10  21  35  52  75 104 136 170 208 250 302
#     4  10  21  35  52  75 104 136 170 208 250 302
#     4  10  19  36  55  76 102 138 173 202 246 302
#     4   9  19  35  52  72 102 139 172 202 247 311
#     4  12  19  31  54  80 102 126 170 217 259 288
#     4   9  19  35  52  72 100 133 168 206 253 307
#
# _framework density 15.878973999999999
#
# number of rings (size 3 to 8) (size 9 to 14) (size 15 to 20)
#    0.000    2.000    1.667    4.000    0.000    2.167 
#    0.000    0.000    0.000    0.000    0.000   15.167 
#    0.000    0.000    0.000    0.000    0.000    0.000 
#
# Total GULP energy -267869.624299 kJ/mol
# GULP energy per Si atom -5580.617173 kJ/mol
# Density = 1.584283 g / cm^3
# Si number density = 15.878974 Si / 1000 Ang^3
#
#
#
# Elastic Constant Matrix: (Units=GPa)
#
#
# Indices 1 2 3 4 5 6 
#
# 1 119.5560 102.9195 103.4052 0.0000 0.0000 0.0000
# 2 102.9195 119.5540 103.4063 0.0000 0.0000 0.0000
# 3 103.4052 103.4063 151.0988 0.0000 0.0000 0.0000
# 4 0.0000 0.0000 0.0000 30.0150 0.0000 0.0000
# 5 0.0000 0.0000 0.0000 0.0000 30.0150 0.0000
# 6 0.0000 0.0000 0.0000 0.0000 0.0000 34.1796
#
#
#
# Elastic Compliance Matrix: (Units=1/GPa)
#
#
# Indices 1 2 3 4 5 6 
#
# 1 0.036232 -0.023879 -0.008454 0.000000 0.000000 0.000000
# 2 -0.023879 0.036235 -0.008456 0.000000 0.000000 0.000000
# 3 -0.008454 -0.008456 0.018191 0.000000 0.000000 0.000000
# 4 0.000000 0.000000 0.000000 0.033317 0.000000 0.000000
# 5 0.000000 0.000000 0.000000 0.000000 0.033317 0.000000
# 6 0.000000 0.000000 0.000000 0.000000 0.000000 0.029257
#
#
# Mechanical properties :
#
#
# Convention : Reuss Voigt Hill
#
# Bulk Modulus (GPa) = 110.13266 112.18566 111.15916
# Shear Modulus (GPa) = 18.43980 24.20711 21.32345
#
# Velocity S-wave (km/s) = 3.41144 3.90869 3.66850
# Velocity P-wave (km/s) = 9.22092 9.54852 9.38615
#
# Compressibility (1/GPa) = 0.00907996
#
# Stress axis : x y z
#
# Youngs Moduli (GPa) = 27.59975 27.59778 54.97316
#
# Poissons Ratio (x) = 0.65900 0.46474
# Poissons Ratio (y) = 0.65905 0.46486
# Poissons Ratio (z) = 0.23333 0.23337
#
# Static dielectric constant tensor:
#      x y z
#    x 1.503500 0.000000 0.000000 
#    y 0.000000 1.503500 0.000000 
#    z 0.000000 0.000000 1.509400 
# 
# From -- ./inp_files/4277.got.cif
#   From: 2010.05.17/outbox.cif.g08.bks.cpg/sg115_3_cif.got.tgz:4277.got - 2010.05.20 11:07:42.
