data_PCOD9556767
_publ_section_title
;
Structure prediction by ZEFSAII (Michael W. Deem and Ramdas Pophale) SiO2 
 PCOD9556767
Probable space group: P -4 M 2
;
_chemical_formula_sum "Si O2"
_cell_formula_units_Z 37
_cell_length_a 7.980914
_cell_length_b 7.980914
_cell_length_c 27.711275
_cell_angle_alpha 90.000000
_cell_angle_beta 90.000000
_cell_angle_gamma 90.000000
_cell_volume 1765.069336
_symmetry_space_group_name_H-M "P -4 M 2"
_symmetry_group_IT_number 115
_symmetry_cell_setting 'tetragonal'
loop_
_space_group_symop_operation_xyz
x,y,z
y,-x,-z
-x,-y,z
-y,x,-z
y,x,-z
-y,-x,-z
-x,y,z
x,-y,z
loop_
_atom_site_type_symbol
_atom_site_label
_atom_site_fract_x
_atom_site_fract_y
_atom_site_fract_z
Si Si1 0.693553 0.302425 0.152841
Si Si2 0.302814 0.196620 0.254601
Si Si3 0.703848 0.683316 0.356334
Si Si4 0.310491 0.802569 0.051590
Si Si5 0.000000 0.000000 0.500000
Si Si6 0.000000 0.703901 0.576682
O O1 0.500000 0.236160 0.149248
O O2 0.686739 0.500000 0.160141
O O3 0.771109 0.228036 0.201564
O O4 0.771119 0.268903 0.100346
O O5 0.500000 0.247384 0.250485
O O6 0.233146 0.288302 0.301620
O O7 0.298113 0.000000 0.265262
O O8 0.500000 0.685386 0.353382
O O9 0.756141 0.500000 0.373984
O O10 0.745133 0.836376 0.391139
O O11 0.500000 0.732339 0.048072
O O12 0.318354 0.000000 0.059039
O O13 0.229163 0.770838 0.000000
O O14 0.170146 0.000000 0.468201
O O15 0.000000 0.500000 0.566739
#
# Coordination Sequence:
#
# PCOD9556767 Si02
#       6
#     8   8   8   8   1   4
#     4   9  16  25  40  67 102 136 174 224 281 339
#     4   9  14  22  40  72 114 152 186 231 283 341
#     4   9  16  29  53  84 119 159 200 245 300 357
#     4  10  20  33  48  67  91 125 170 222 279 340
#     4  12  28  44  68  96 124 172 212 256 314 360
#     4  10  22  42  62  90 126 160 208 259 303 358
#
# _framework density 20.962351000000002
#
# number of rings (size 3 to 8) (size 9 to 14) (size 15 to 20)
#    0.000    2.595    1.081    1.946    0.000    7.351 
#    0.000    0.000    0.000    0.000    2.811    0.000 
#    0.000    0.000    0.000    0.000    0.000    0.000 
#
# Total GULP energy -206247.293116 kJ/mol
# GULP energy per Si atom -5574.251165 kJ/mol
# Density = 2.091464 g / cm^3
# Si number density = 20.962351 Si / 1000 Ang^3
#
#
#
# Elastic Constant Matrix: (Units=GPa)
#
#
# Indices 1 2 3 4 5 6 
#
# 1 65.2811 14.0074 47.8343 0.0000 0.0000 0.0000
# 2 14.0074 65.2809 47.8338 0.0000 0.0000 0.0000
# 3 47.8343 47.8338 148.4998 0.0000 0.0000 0.0000
# 4 0.0000 0.0000 0.0000 15.6962 0.0000 0.0000
# 5 0.0000 0.0000 0.0000 0.0000 15.6965 0.0000
# 6 0.0000 0.0000 0.0000 0.0000 0.0000 3.3119
#
#
#
# Elastic Compliance Matrix: (Units=1/GPa)
#
#
# Indices 1 2 3 4 5 6 
#
# 1 0.020067 0.000564 -0.006645 0.000000 0.000000 0.000000
# 2 0.000564 0.020067 -0.006645 0.000000 0.000000 0.000000
# 3 -0.006645 -0.006645 0.011015 0.000000 0.000000 0.000000
# 4 0.000000 0.000000 0.000000 0.063709 0.000000 0.000000
# 5 0.000000 0.000000 0.000000 0.000000 0.063709 0.000000
# 6 0.000000 0.000000 0.000000 0.000000 0.000000 0.301937
#
#
# Mechanical properties :
#
#
# Convention : Reuss Voigt Hill
#
# Bulk Modulus (GPa) = 38.91891 55.37920 47.14905
# Shear Modulus (GPa) = 9.71774 18.23335 13.97555
#
# Velocity S-wave (km/s) = 2.15543 2.95246 2.58485
# Velocity P-wave (km/s) = 4.98005 6.17240 5.60800
#
# Compressibility (1/GPa) = 0.02569445
#
# Stress axis : x y z
#
# Youngs Moduli (GPa) = 49.83348 49.83365 90.78401
#
# Poissons Ratio (x) = -0.02808 0.60330
# Poissons Ratio (y) = -0.02808 0.60329
# Poissons Ratio (z) = 0.33116 0.33116
#
# Static dielectric constant tensor:
#      x y z
#    x 1.755870 0.000000 0.000000 
#    y 0.000000 1.755870 0.000000 
#    z 0.000000 0.000000 1.783290 
# 
# From -- ./inp_files/5147.got.cif
#   From: 2010.05.17/outbox.cif.g08.bks.cpg/sg115_3_cif.got.tgz:5147.got - 2010.05.20 11:07:42.
