data_PCOD9556957
_publ_section_title
;
Structure prediction by ZEFSAII (Michael W. Deem and Ramdas Pophale) SiO2 
 PCOD9556957
Probable space group: P -4 M 2
;
_chemical_formula_sum "Si O2"
_cell_formula_units_Z 37
_cell_length_a 8.398537
_cell_length_b 8.398537
_cell_length_c 27.221538
_cell_angle_alpha 90.000000
_cell_angle_beta 90.000000
_cell_angle_gamma 90.000000
_cell_volume 1920.082718
_symmetry_space_group_name_H-M "P -4 M 2"
_symmetry_group_IT_number 115
_symmetry_cell_setting 'tetragonal'
loop_
_space_group_symop_operation_xyz
x,y,z
y,-x,-z
-x,-y,z
-y,x,-z
y,x,-z
-y,-x,-z
-x,y,z
x,-y,z
loop_
_atom_site_type_symbol
_atom_site_label
_atom_site_fract_x
_atom_site_fract_y
_atom_site_fract_z
Si Si1 0.681184 0.190936 0.550090
Si Si2 0.823678 0.192127 0.142131
Si Si3 0.500000 0.321026 0.095940
Si Si4 0.191394 0.319079 0.757083
Si Si5 0.500000 0.500000 0.000000
Si Si6 0.816596 0.692192 0.344215
O O1 0.768417 0.231583 0.500000
O O2 0.500000 0.250510 0.545276
O O3 0.749408 0.247761 0.602651
O O4 0.675897 0.000000 0.554944
O O5 0.665563 0.242209 0.112554
O O6 0.794475 0.244845 0.198626
O O7 0.000000 0.247161 0.125333
O O8 0.825641 0.000000 0.141835
O O9 0.500000 0.500000 0.117495
O O10 0.500000 0.351294 0.037201
O O11 0.234271 0.500000 0.770550
O O12 0.257116 0.277050 0.703816
O O13 0.000000 0.309270 0.754508
O O14 0.817516 0.500000 0.347267
O O15 0.000000 0.746258 0.338297
#
# Coordination Sequence:
#
# PCOD9556957 Si02
#       6
#     8   8   4   8   1   8
#     4   9  19  35  52  70  95 130 174 227 285 346
#     4  10  20  37  63  92 125 168 213 257 310 372
#     4  10  21  41  64  90 129 167 208 257 308 356
#     4  10  20  34  53  80 115 153 190 236 293 352
#     4   8  24  44  64  92 128 176 204 244 310 344
#     4   9  19  35  51  70 102 139 178 229 287 349
#
# _framework density 19.270004
#
# number of rings (size 3 to 8) (size 9 to 14) (size 15 to 20)
#    0.324    2.162    1.081    2.270    0.000    5.189 
#    0.000    8.649    0.000    1.297    0.000    0.000 
#    0.000    0.000    0.000    0.000    0.000    0.000 
#
# Total GULP energy -206096.019030 kJ/mol
# GULP energy per Si atom -5570.162676 kJ/mol
# Density = 1.922614 g / cm^3
# Si number density = 19.270004 Si / 1000 Ang^3
#
#
#
# Elastic Constant Matrix: (Units=GPa)
#
#
# Indices 1 2 3 4 5 6 
#
# 1 58.8717 28.1583 35.6008 0.0000 0.0000 0.0000
# 2 28.1583 58.8717 35.6008 0.0000 0.0000 0.0000
# 3 35.6008 35.6008 131.4730 0.0000 0.0000 0.0000
# 4 0.0000 0.0000 0.0000 48.3686 0.0000 0.0000
# 5 0.0000 0.0000 0.0000 0.0000 48.3686 0.0000
# 6 0.0000 0.0000 0.0000 0.0000 0.0000 24.7711
#
#
#
# Elastic Compliance Matrix: (Units=1/GPa)
#
#
# Indices 1 2 3 4 5 6 
#
# 1 0.023660 -0.008899 -0.003997 0.000000 0.000000 0.000000
# 2 -0.008899 0.023660 -0.003997 0.000000 0.000000 0.000000
# 3 -0.003997 -0.003997 0.009771 0.000000 0.000000 0.000000
# 4 0.000000 0.000000 0.000000 0.020675 0.000000 0.000000
# 5 0.000000 0.000000 0.000000 0.000000 0.020675 0.000000
# 6 0.000000 0.000000 0.000000 0.000000 0.000000 0.040370
#
#
# Mechanical properties :
#
#
# Convention : Reuss Voigt Hill
#
# Bulk Modulus (GPa) = 42.91147 49.77065 46.34106
# Shear Modulus (GPa) = 27.72190 34.29209 31.00699
#
# Velocity S-wave (km/s) = 3.79701 4.22306 4.01569
# Velocity P-wave (km/s) = 6.44515 7.04720 6.75289
#
# Compressibility (1/GPa) = 0.02330379
#
# Stress axis : x y z
#
# Youngs Moduli (GPa) = 42.26607 42.26607 102.34709
#
# Poissons Ratio (x) = 0.37614 0.40906
# Poissons Ratio (y) = 0.37614 0.40906
# Poissons Ratio (z) = 0.16893 0.16893
#
# Static dielectric constant tensor:
#      x y z
#    x 1.665490 0.000000 0.000000 
#    y 0.000000 1.665490 0.000000 
#    z 0.000000 0.000000 1.681670 
# 
# From -- ./inp_files/5155.got.cif
#   From: 2010.05.17/outbox.cif.g08.bks.cpg/sg115_3_cif.got.tgz:5155.got - 2010.05.20 11:07:42.
