data_PCOD9556676
_publ_section_title
;
Structure prediction by ZEFSAII (Michael W. Deem and Ramdas Pophale) SiO2 
 PCOD9556676
Probable space group: P -4 M 2
;
_chemical_formula_sum "Si O2"
_cell_formula_units_Z 40
_cell_length_a 13.998390
_cell_length_b 13.998390
_cell_length_c 9.556773
_cell_angle_alpha 90.000000
_cell_angle_beta 90.000000
_cell_angle_gamma 90.000000
_cell_volume 1872.696713
_symmetry_space_group_name_H-M "P -4 M 2"
_symmetry_group_IT_number 115
_symmetry_cell_setting 'tetragonal'
loop_
_space_group_symop_operation_xyz
x,y,z
y,-x,-z
-x,-y,z
-y,x,-z
y,x,-z
-y,-x,-z
-x,y,z
x,-y,z
loop_
_atom_site_type_symbol
_atom_site_label
_atom_site_fract_x
_atom_site_fract_y
_atom_site_fract_z
Si Si1 0.690048 0.396410 0.862636
Si Si2 0.687099 0.192066 0.719595
Si Si3 0.355610 0.107448 0.009905
Si Si4 0.104079 0.786639 0.761200
Si Si5 0.606835 0.891533 0.445289
O O1 0.664560 0.500000 0.803086
O O2 0.681893 0.303496 0.764358
O O3 0.627214 0.372787 0.000000
O O4 0.799386 0.399673 0.917776
O O5 0.642771 0.130604 0.845831
O O6 0.799067 0.162246 0.716598
O O7 0.637923 0.174977 0.572402
O O8 0.391854 0.000000 0.038250
O O9 0.249069 0.108726 0.078104
O O10 0.107743 0.687377 0.673099
O O11 0.000000 0.831381 0.735342
O O12 0.500000 0.868706 0.393841
O O13 0.604826 0.000000 0.501051
#
# Coordination Sequence:
#
# PCOD9556676 Si02
#       5
#     8   8   8   8   8
#     4   9  19  33  49  74 107 141 176 214 262 320
#     4  10  19  34  55  81 108 137 176 223 270 312
#     4   9  18  33  55  80 104 130 166 217 269 314
#     4   9  18  33  52  75 105 140 173 206 256 321
#     4  10  21  36  54  78 108 141 179 226 276 318
#
# _framework density 21.359570999999999
#
# number of rings (size 3 to 8) (size 9 to 14) (size 15 to 20)
#    0.000    2.600    0.000    3.000    0.000    7.000 
#    0.000    4.000    0.000    2.400    0.000   19.600 
#    0.000    0.000    0.000    0.000    0.000    0.000 
#
# Total GULP energy -223000.984254 kJ/mol
# GULP energy per Si atom -5575.024606 kJ/mol
# Density = 2.131096 g / cm^3
# Si number density = 21.359571 Si / 1000 Ang^3
#
#
#
# Elastic Constant Matrix: (Units=GPa)
#
#
# Indices 1 2 3 4 5 6 
#
# 1 63.7710 10.2759 11.4525 0.0000 0.0000 0.0000
# 2 10.2759 63.7697 11.4523 0.0000 0.0000 0.0000
# 3 11.4525 11.4523 65.7025 0.0000 0.0000 0.0000
# 4 0.0000 0.0000 0.0000 10.5464 0.0000 0.0000
# 5 0.0000 0.0000 0.0000 0.0000 10.5461 0.0000
# 6 0.0000 0.0000 0.0000 0.0000 0.0000 -0.7082
#
#
#
# Elastic Compliance Matrix: (Units=1/GPa)
#
#
# Indices 1 2 3 4 5 6 
#
# 1 0.016484 -0.002209 -0.002488 0.000000 0.000000 0.000000
# 2 -0.002209 0.016484 -0.002488 0.000000 0.000000 0.000000
# 3 -0.002488 -0.002488 0.016088 0.000000 0.000000 0.000000
# 4 0.000000 0.000000 0.000000 0.094819 0.000000 0.000000
# 5 0.000000 0.000000 0.000000 0.000000 0.094822 0.000000
# 6 0.000000 0.000000 0.000000 0.000000 0.000000 -1.412049
#
#
# Mechanical properties :
#
#
# Convention : Reuss Voigt Hill
#
# Bulk Modulus (GPa) = 28.83150 28.84496 28.83823
# Shear Modulus (GPa) = -4.35761 14.74768 5.19504
#
# Velocity S-wave (km/s) = -1.42988 2.63049 1.56124
# Velocity P-wave (km/s) = 3.28655 4.77072 4.09641
#
# Compressibility (1/GPa) = 0.03468428
#
# Stress axis : x y z
#
# Youngs Moduli (GPa) = 60.66496 60.66383 62.15994
#
# Poissons Ratio (x) = 0.13403 0.15467
# Poissons Ratio (y) = 0.13403 0.15466
# Poissons Ratio (z) = 0.15095 0.15094
#
# Static dielectric constant tensor:
#      x y z
#    x 1.808440 0.000000 0.000000 
#    y 0.000000 1.808440 0.000000 
#    z 0.000000 0.000000 1.772620 
# 
# From -- ./inp_files/1606.got.cif
#   From: 2010.05.17/outbox.cif.g08.bks.cpg/sg115_1_cif.got.tgz:1606.got - 2010.05.20 11:07:42.
