data_PCOD9556144
_publ_section_title
;
Structure prediction by ZEFSAII (Michael W. Deem and Ramdas Pophale) SiO2 
 PCOD9556144
Probable space group: P -4 21 C
;
_chemical_formula_sum "Si O2"
_cell_formula_units_Z 34
_cell_length_a 10.693784
_cell_length_b 10.693784
_cell_length_c 16.762835
_cell_angle_alpha 90.000000
_cell_angle_beta 90.000000
_cell_angle_gamma 90.000000
_cell_volume 1916.947794
_symmetry_space_group_name_H-M "P -4 21 C"
_symmetry_group_IT_number 114
_symmetry_cell_setting 'tetragonal'
loop_
_space_group_symop_operation_xyz
x,y,z
y,-x,-z
-x,-y,z
-y,x,-z
1/2+x,1/2-y,1/2-z
1/2-x,1/2+y,1/2-z
1/2-y,1/2-x,1/2+z
1/2+y,1/2+x,1/2+z
loop_
_atom_site_type_symbol
_atom_site_label
_atom_site_fract_x
_atom_site_fract_y
_atom_site_fract_z
Si Si1 0.000001 0.769182 0.623989
Si Si2 0.350105 0.500004 0.307276
Si Si3 0.765028 0.850029 0.913196
Si Si4 0.500000 0.500000 0.000000
Si Si5 0.850043 0.765017 0.086807
O O1 0.999998 0.816932 0.714707
O O2 0.127236 0.691962 0.611936
O O3 0.872779 0.691940 0.611937
O O4 0.999991 0.880447 0.558686
O O5 0.500000 0.500000 0.313648
O O6 0.305930 0.374283 0.352535
O O7 0.305939 0.625734 0.352528
O O8 0.770723 0.999993 0.917504
O O9 0.796099 0.796091 0.000002
#
# Coordination Sequence:
#
# PCOD9556144 Si02
#       5
#     8   8   8   2   8
#     4  12  23  42  59  91 127 161 202 259 318 357
#     4  10  22  39  66  92 120 159 214 253 308 378
#     4  11  22  39  66  92 121 163 211 257 308 371
#     4  12  24  36  60  84 114 172 192 240 312 400
#     4  11  22  39  66  92 121 163 211 257 308 371
#
# _framework density 17.736530999999999
#
# number of rings (size 3 to 8) (size 9 to 14) (size 15 to 20)
#    0.000    0.941    5.882    2.118    0.000    0.000 
#    0.000    0.000    5.176    0.000    0.000    0.000 
#    0.000    0.000    0.000    0.000    0.000    0.000 
#
# Total GULP energy -189872.114502 kJ/mol
# GULP energy per Si atom -5584.473956 kJ/mol
# Density = 1.769616 g / cm^3
# Si number density = 17.736531 Si / 1000 Ang^3
#
#
#
# Elastic Constant Matrix: (Units=GPa)
#
#
# Indices 1 2 3 4 5 6 
#
# 1 94.4016 65.9110 55.9405 0.0000 0.0000 0.0000
# 2 65.9110 94.4016 55.9405 0.0000 0.0000 0.0000
# 3 55.9405 55.9405 161.2662 0.0000 0.0000 0.0000
# 4 0.0000 0.0000 0.0000 10.8691 0.0000 0.0000
# 5 0.0000 0.0000 0.0000 0.0000 10.8691 0.0000
# 6 0.0000 0.0000 0.0000 0.0000 0.0000 30.8123
#
#
#
# Elastic Compliance Matrix: (Units=1/GPa)
#
#
# Indices 1 2 3 4 5 6 
#
# 1 0.021665 -0.013435 -0.002855 0.000000 0.000000 0.000000
# 2 -0.013435 0.021665 -0.002855 0.000000 0.000000 0.000000
# 3 -0.002855 -0.002855 0.008182 0.000000 0.000000 0.000000
# 4 0.000000 0.000000 0.000000 0.092004 0.000000 0.000000
# 5 0.000000 0.000000 0.000000 0.000000 0.092004 0.000000
# 6 0.000000 0.000000 0.000000 0.000000 0.000000 0.032455
#
#
# Mechanical properties :
#
#
# Convention : Reuss Voigt Hill
#
# Bulk Modulus (GPa) = 75.62955 78.40596 77.01776
# Shear Modulus (GPa) = 16.09426 21.99527 19.04477
#
# Velocity S-wave (km/s) = 3.01559 3.52534 3.28038
# Velocity P-wave (km/s) = 7.40663 7.80209 7.60693
#
# Compressibility (1/GPa) = 0.01322234
#
# Stress axis : x y z
#
# Youngs Moduli (GPa) = 46.15788 46.15788 122.22573
#
# Poissons Ratio (x) = 0.62011 0.34895
# Poissons Ratio (y) = 0.62011 0.34895
# Poissons Ratio (z) = 0.13178 0.13178
#
# Static dielectric constant tensor:
#      x y z
#    x 1.591130 0.000000 0.000000 
#    y 0.000000 1.591130 0.000000 
#    z 0.000000 0.000000 1.581850 
# 
# From -- ./inp_files/1445.got.cif
#   From: 2010.05.17/outbox.cif.g08.bks.cpg/sg114_1_cif.got.tgz:1445.got - 2010.05.20 11:04:54.
