data_PCOD9556485
_publ_section_title
;
Structure prediction by ZEFSAII (Michael W. Deem and Ramdas Pophale) SiO2 
 PCOD9556485
Probable space group: P -4 21 C
;
_chemical_formula_sum "Si O2"
_cell_formula_units_Z 42
_cell_length_a 14.673066
_cell_length_b 14.673066
_cell_length_c 8.446089
_cell_angle_alpha 90.000000
_cell_angle_beta 90.000000
_cell_angle_gamma 90.000000
_cell_volume 1818.433382
_symmetry_space_group_name_H-M "P -4 21 C"
_symmetry_group_IT_number 114
_symmetry_cell_setting 'tetragonal'
loop_
_space_group_symop_operation_xyz
x,y,z
y,-x,-z
-x,-y,z
-y,x,-z
1/2+x,1/2-y,1/2-z
1/2-x,1/2+y,1/2-z
1/2-y,1/2-x,1/2+z
1/2+y,1/2+x,1/2+z
loop_
_atom_site_type_symbol
_atom_site_label
_atom_site_fract_x
_atom_site_fract_y
_atom_site_fract_z
Si Si1 0.000000 0.000000 0.000000
Si Si2 0.399116 0.990566 0.569831
Si Si3 0.083335 0.307587 0.132455
Si Si4 0.005216 0.191238 0.849878
Si Si5 0.634447 0.791543 0.879006
Si Si6 0.294746 0.301789 0.179760
O O1 0.978570 0.088386 0.893437
O O2 0.326116 0.967979 0.704275
O O3 0.404972 0.904166 0.455354
O O4 0.500000 0.000000 0.641435
O O5 0.369005 0.077513 0.469309
O O6 0.187160 0.278906 0.166604
O O7 0.033246 0.240993 0.012310
O O8 0.096596 0.192475 0.742799
O O9 0.928241 0.247452 0.756936
O O10 0.727235 0.829550 0.804972
O O11 0.660015 0.716779 0.010998
#
# Coordination Sequence:
#
# PCOD9556485 Si02
#       6
#     2   8   8   8   8   8
#     4  12  32  48  82 108 160 208 270 316 372 476
#     4  12  27  43  76 120 154 196 254 330 389 476
#     4  12  24  51  76 105 160 204 248 320 409 456
#     4  12  28  53  74 114 152 212 259 325 384 461
#     4  12  29  46  79 114 152 203 263 315 396 471
#     4  12  26  50  78 111 152 207 261 322 390 471
#
# _framework density 23.096803000000001
#
# number of rings (size 3 to 8) (size 9 to 14) (size 15 to 20)
#    0.000    0.000    5.714    1.714   10.667    1.524 
#    0.000    0.000    0.000    0.000    0.000    0.000 
#    0.000    0.000    0.000    0.000    0.000    0.000 
#
# Total GULP energy -235650.533809 kJ/mol
# GULP energy per Si atom -5610.726995 kJ/mol
# Density = 2.304423 g / cm^3
# Si number density = 23.096803 Si / 1000 Ang^3
#
#
#
# Elastic Constant Matrix: (Units=GPa)
#
#
# Indices 1 2 3 4 5 6 
#
# 1 94.1310 -4.5947 11.9531 0.0000 0.0000 0.0000
# 2 -4.5947 94.1310 11.9531 0.0000 0.0000 0.0000
# 3 11.9531 11.9531 76.2949 0.0000 0.0000 0.0000
# 4 0.0000 0.0000 0.0000 44.2273 0.0000 0.0000
# 5 0.0000 0.0000 0.0000 0.0000 44.2273 0.0000
# 6 0.0000 0.0000 0.0000 0.0000 0.0000 30.4535
#
#
#
# Elastic Compliance Matrix: (Units=1/GPa)
#
#
# Indices 1 2 3 4 5 6 
#
# 1 0.010893 0.000764 -0.001826 0.000000 0.000000 0.000000
# 2 0.000764 0.010893 -0.001826 0.000000 0.000000 0.000000
# 3 -0.001826 -0.001826 0.013679 0.000000 0.000000 0.000000
# 4 0.000000 0.000000 0.000000 0.022610 0.000000 0.000000
# 5 0.000000 0.000000 0.000000 0.000000 0.022610 0.000000
# 6 0.000000 0.000000 0.000000 0.000000 0.000000 0.032837
#
#
# Mechanical properties :
#
#
# Convention : Reuss Voigt Hill
#
# Bulk Modulus (GPa) = 33.68475 33.68665 33.68570
# Shear Modulus (GPa) = 38.70099 40.13131 39.41615
#
# Velocity S-wave (km/s) = 4.09785 4.17289 4.13554
# Velocity P-wave (km/s) = 6.08323 6.15093 6.11717
#
# Compressibility (1/GPa) = 0.02968702
#
# Stress axis : x y z
#
# Youngs Moduli (GPa) = 91.80497 91.80497 73.10344
#
# Poissons Ratio (x) = -0.07010 0.13350
# Poissons Ratio (y) = -0.07010 0.13350
# Poissons Ratio (z) = 0.16765 0.16765
#
# Static dielectric constant tensor:
#      x y z
#    x 1.870380 0.000000 0.000000 
#    y 0.000000 1.870380 0.000000 
#    z 0.000000 0.000000 1.835630 
# 
# From -- ./inp_files/825.got.cif
#   From: 2010.05.17/outbox.cif.g08.bks.cpg/sg114_1_cif.got.tgz:825.got - 2010.05.20 11:04:54.
