data_PCOD9556668
_publ_section_title
;
Structure prediction by ZEFSAII (Michael W. Deem and Ramdas Pophale) SiO2 
 PCOD9556668
Probable space group: P -4 M 2
;
_chemical_formula_sum "Si O2"
_cell_formula_units_Z 33
_cell_length_a 8.176187
_cell_length_b 8.176187
_cell_length_c 24.282014
_cell_angle_alpha 90.000000
_cell_angle_beta 90.000000
_cell_angle_gamma 90.000000
_cell_volume 1623.253458
_symmetry_space_group_name_H-M "P -4 M 2"
_symmetry_group_IT_number 115
_symmetry_cell_setting 'tetragonal'
loop_
_space_group_symop_operation_xyz
x,y,z
y,-x,-z
-x,-y,z
-y,x,-z
y,x,-z
-y,-x,-z
-x,y,z
x,-y,z
loop_
_atom_site_type_symbol
_atom_site_label
_atom_site_fract_x
_atom_site_fract_y
_atom_site_fract_z
Si Si1 0.305122 0.305122 0.500000
Si Si2 0.500000 0.800498 0.084162
Si Si3 0.198734 0.179356 0.843098
Si Si4 0.500000 0.500000 0.000000
Si Si5 0.191106 0.311799 0.730037
Si Si6 0.303986 0.182000 0.617247
O O1 0.277973 0.500000 0.502435
O O2 0.239495 0.234629 0.557414
O O3 0.335961 0.763703 0.119552
O O4 0.500000 0.000000 0.071812
O O5 0.500000 0.669172 0.035003
O O6 0.260139 0.206880 0.780540
O O7 0.000000 0.178319 0.839996
O O8 0.251235 0.000000 0.863584
O O9 0.203775 0.500000 0.747621
O O10 0.265172 0.290740 0.669848
O O11 0.000000 0.270891 0.724031
O O12 0.500000 0.180251 0.611815
O O13 0.244999 0.000000 0.630213
#
# Coordination Sequence:
#
# PCOD9556668 Si02
#       6
#     4   4   8   1   8   8
#     4   9  18  34  52  65  90 138 190 235 294 359
#     4  10  22  44  66  92 134 170 209 263 304 359
#     4   9  17  34  62  90 120 162 205 249 308 367
#     4  12  28  44  68 104 132 172 224 250 308 364
#     4  10  19  33  55  83 114 149 192 242 297 356
#     4  10  21  35  50  74 107 141 184 239 296 361
#
# _framework density 20.329540000000001
#
# number of rings (size 3 to 8) (size 9 to 14) (size 15 to 20)
#    0.000    2.303    1.212    1.455    0.000    4.848 
#    2.182    2.424    0.000    0.000    0.000    0.000 
#    0.000    0.000    0.000    0.000    0.000    0.000 
#
# Total GULP energy -183953.403573 kJ/mol
# GULP energy per Si atom -5574.345563 kJ/mol
# Density = 2.028327 g / cm^3
# Si number density = 20.329540 Si / 1000 Ang^3
#
#
#
# Elastic Constant Matrix: (Units=GPa)
#
#
# Indices 1 2 3 4 5 6 
#
# 1 29.9934 51.5875 45.6289 0.0000 0.0000 0.0000
# 2 51.5875 29.9934 45.6289 0.0000 0.0000 0.0000
# 3 45.6289 45.6289 122.9628 0.0000 0.0000 0.0000
# 4 0.0000 0.0000 0.0000 60.8123 0.0000 0.0000
# 5 0.0000 0.0000 0.0000 0.0000 60.8123 0.0000
# 6 0.0000 0.0000 0.0000 0.0000 0.0000 11.3915
#
#
#
# Elastic Compliance Matrix: (Units=1/GPa)
#
#
# Indices 1 2 3 4 5 6 
#
# 1 -0.012676 0.033633 -0.007777 0.000000 0.000000 0.000000
# 2 0.033633 -0.012676 -0.007777 0.000000 0.000000 0.000000
# 3 -0.007777 -0.007777 0.013904 0.000000 0.000000 0.000000
# 4 0.000000 0.000000 0.000000 0.016444 0.000000 0.000000
# 5 0.000000 0.000000 0.000000 0.000000 0.016444 0.000000
# 6 0.000000 0.000000 0.000000 0.000000 0.000000 0.087785
#
#
# Mechanical properties :
#
#
# Convention : Reuss Voigt Hill
#
# Bulk Modulus (GPa) = 40.46755 52.07115 46.26935
# Shear Modulus (GPa) = 61.49847 29.27684 45.38766
#
# Velocity S-wave (km/s) = 5.50604 3.79900 4.73016
# Velocity P-wave (km/s) = 7.76987 6.70167 7.25546
#
# Compressibility (1/GPa) = 0.02471116
#
# Stress axis : x y z
#
# Youngs Moduli (GPa) = -78.88904 -78.88904 71.92157
#
# Poissons Ratio (x) = 2.65327 0.55931
# Poissons Ratio (y) = 2.65327 0.55931
# Poissons Ratio (z) = -0.61349 -0.61349
#
# Static dielectric constant tensor:
#      x y z
#    x 1.693120 0.000000 0.000000 
#    y 0.000000 1.693120 0.000000 
#    z 0.000000 0.000000 1.749820 
# 
# From -- ./inp_files/4689.got.cif
#   From: 2010.05.17/outbox.cif.g08.bks.cpg/sg115_3_cif.got.tgz:4689.got - 2010.05.20 11:07:42.
