data_PCOD9556495
_publ_section_title
;
Structure prediction by ZEFSAII (Michael W. Deem and Ramdas Pophale) SiO2 
 PCOD9556495
Probable space group: P -4 21 C
;
_chemical_formula_sum "Si O2"
_cell_formula_units_Z 42
_cell_length_a 14.141808
_cell_length_b 14.141808
_cell_length_c 9.055924
_cell_angle_alpha 90.000000
_cell_angle_beta 90.000000
_cell_angle_gamma 90.000000
_cell_volume 1811.100883
_symmetry_space_group_name_H-M "P -4 21 C"
_symmetry_group_IT_number 114
_symmetry_cell_setting 'tetragonal'
loop_
_space_group_symop_operation_xyz
x,y,z
y,-x,-z
-x,-y,z
-y,x,-z
1/2+x,1/2-y,1/2-z
1/2-x,1/2+y,1/2-z
1/2-y,1/2-x,1/2+z
1/2+y,1/2+x,1/2+z
loop_
_atom_site_type_symbol
_atom_site_label
_atom_site_fract_x
_atom_site_fract_y
_atom_site_fract_z
Si Si1 0.500000 0.500000 0.500000
Si Si2 0.455222 0.300628 0.329074
Si Si3 0.455675 0.211016 0.791375
Si Si4 0.100535 0.556102 0.503016
Si Si5 0.305061 0.361107 0.823102
Si Si6 0.168431 0.235888 0.662131
O O1 0.472670 0.400055 0.417076
O O2 0.472331 0.200743 0.416190
O O3 0.527382 0.310519 0.192425
O O4 0.350446 0.295840 0.262202
O O5 0.443421 0.130950 0.667117
O O6 0.423047 0.160638 0.940736
O O7 0.396079 0.305110 0.766499
O O8 0.562009 0.242784 0.796449
O O9 0.000000 0.500000 0.524755
O O10 0.226371 0.326925 0.709220
O O11 0.283014 0.329176 0.988461
#
# Coordination Sequence:
#
# PCOD9556495 Si02
#       6
#     2   8   8   8   8   8
#     4  12  28  48  86 124 152 216 262 336 396 488
#     4  12  26  49  78 112 159 200 266 322 398 478
#     4  12  27  47  76 108 155 200 257 320 393 469
#     4  12  27  47  75 112 155 205 256 320 392 472
#     4  12  27  48  76 109 153 201 256 319 394 467
#     4  12  28  47  77 111 152 203 261 323 394 469
#
# _framework density 23.190314999999998
#
# number of rings (size 3 to 8) (size 9 to 14) (size 15 to 20)
#    0.000    0.000    1.905    7.429   10.667    0.000 
#    0.000    1.905    0.000    0.000    0.000    0.000 
#    0.000    0.000    0.000    0.000    0.000    0.000 
#
# Total GULP energy -234937.738797 kJ/mol
# GULP energy per Si atom -5593.755686 kJ/mol
# Density = 2.313753 g / cm^3
# Si number density = 23.190315 Si / 1000 Ang^3
#
#
#
# Elastic Constant Matrix: (Units=GPa)
#
#
# Indices 1 2 3 4 5 6 
#
# 1 124.7047 2.8512 18.2001 0.0000 0.0000 0.0000
# 2 2.8512 124.7047 18.2001 0.0000 0.0000 0.0000
# 3 18.2001 18.2001 93.3498 0.0000 0.0000 0.0000
# 4 0.0000 0.0000 0.0000 85.6925 0.0000 0.0000
# 5 0.0000 0.0000 0.0000 0.0000 85.6925 0.0000
# 6 0.0000 0.0000 0.0000 0.0000 0.0000 30.5776
#
#
#
# Elastic Compliance Matrix: (Units=1/GPa)
#
#
# Indices 1 2 3 4 5 6 
#
# 1 0.008254 0.000047 -0.001619 0.000000 0.000000 0.000000
# 2 0.000047 0.008254 -0.001619 0.000000 0.000000 0.000000
# 3 -0.001619 -0.001619 0.011344 0.000000 0.000000 0.000000
# 4 0.000000 0.000000 0.000000 0.011670 0.000000 0.000000
# 5 0.000000 0.000000 0.000000 0.000000 0.011670 0.000000
# 6 0.000000 0.000000 0.000000 0.000000 0.000000 0.032704
#
#
# Mechanical properties :
#
#
# Convention : Reuss Voigt Hill
#
# Bulk Modulus (GPa) = 46.57111 46.80690 46.68900
# Shear Modulus (GPa) = 51.31825 60.62636 55.97230
#
# Velocity S-wave (km/s) = 4.70927 5.11857 4.91818
# Velocity P-wave (km/s) = 7.04949 7.42702 7.24072
#
# Compressibility (1/GPa) = 0.02147254
#
# Stress axis : x y z
#
# Youngs Moduli (GPa) = 121.15226 121.15226 88.15609
#
# Poissons Ratio (x) = -0.00575 0.14268
# Poissons Ratio (y) = -0.00575 0.14268
# Poissons Ratio (z) = 0.19609 0.19609
#
# Static dielectric constant tensor:
#      x y z
#    x 1.769620 0.000000 0.000000 
#    y 0.000000 1.769620 0.000000 
#    z 0.000000 0.000000 1.872390 
# 
# From -- ./inp_files/806.got.cif
#   From: 2010.05.17/outbox.cif.g08.bks.cpg/sg114_1_cif.got.tgz:806.got - 2010.05.20 11:04:54.
