data_PCOD9556003
_publ_section_title
;
Structure prediction by ZEFSAII (Michael W. Deem and Ramdas Pophale) SiO2 
 PCOD9556003
Probable space group: P -4 21 C
;
_chemical_formula_sum "Si O2"
_cell_formula_units_Z 60
_cell_length_a 18.230451
_cell_length_b 18.230451
_cell_length_c 9.395155
_cell_angle_alpha 90.000000
_cell_angle_beta 90.000000
_cell_angle_gamma 90.000000
_cell_volume 3122.473598
_symmetry_space_group_name_H-M "P -4 21 C"
_symmetry_group_IT_number 114
_symmetry_cell_setting 'tetragonal'
loop_
_space_group_symop_operation_xyz
x,y,z
y,-x,-z
-x,-y,z
-y,x,-z
1/2+x,1/2-y,1/2-z
1/2-x,1/2+y,1/2-z
1/2-y,1/2-x,1/2+z
1/2+y,1/2+x,1/2+z
loop_
_atom_site_type_symbol
_atom_site_label
_atom_site_fract_x
_atom_site_fract_y
_atom_site_fract_z
Si Si1 0.804805 0.823525 0.575889
Si Si2 0.446390 0.090792 0.161977
Si Si3 0.628515 0.249734 0.670362
Si Si4 0.748508 0.130491 0.676379
Si Si5 0.780280 0.463415 0.293600
Si Si6 0.207337 0.179918 0.080637
Si Si7 0.969000 0.255955 0.450081
Si Si8 0.000000 0.500000 0.090582
O O1 0.863384 0.780907 0.670729
O O2 0.820424 0.804679 0.413434
O O3 0.729095 0.780209 0.606277
O O4 0.806433 0.910471 0.589377
O O5 0.366694 0.052951 0.176252
O O6 0.436355 0.175533 0.137176
O O7 0.493407 0.067899 0.300460
O O8 0.490669 0.065694 0.020920
O O9 0.670226 0.171275 0.660936
O O10 0.542898 0.239797 0.642499
O O11 0.677180 0.307306 0.578507
O O12 0.778891 0.142062 0.833731
O O13 0.751417 0.050041 0.612060
O O14 0.730136 0.400522 0.366776
O O15 0.769202 0.465387 0.121054
#
# Coordination Sequence:
#
# PCOD9556003 Si02
#       8
#     8   8   8   8   8   8   8   4
#     4  10  20  41  62  89 126 166 211 259 315 380
#     4  11  24  38  60  89 131 175 206 250 309 392
#     4  10  24  39  63  93 128 165 206 267 322 380
#     4  10  22  39  62  94 126 164 207 261 322 379
#     4  12  23  40  66  93 125 169 218 263 319 375
#     4  10  22  41  63  90 126 163 216 265 311 381
#     4  12  23  38  68  93 123 170 217 261 317 383
#     4  10  24  38  48  84 138 170 194 248 306 380
#
# _framework density 19.215534999999999
#
# number of rings (size 3 to 8) (size 9 to 14) (size 15 to 20)
#    0.000    1.333    5.333    0.000    3.733    3.200 
#    0.000    0.000    0.000    4.800    0.000    0.000 
#    0.000    0.000    0.000    0.000    0.000    0.000 
#
# Total GULP energy -334223.972040 kJ/mol
# GULP energy per Si atom -5570.399534 kJ/mol
# Density = 1.917180 g / cm^3
# Si number density = 19.215535 Si / 1000 Ang^3
#
#
#
# Elastic Constant Matrix: (Units=GPa)
#
#
# Indices 1 2 3 4 5 6 
#
# 1 2.6157 127.5551 2.9163 0.0000 0.0000 0.0000
# 2 127.5551 2.6157 2.9163 0.0000 0.0000 0.0000
# 3 2.9163 2.9163 50.8646 0.0000 0.0000 0.0000
# 4 0.0000 0.0000 0.0000 19.1026 0.0000 0.0000
# 5 0.0000 0.0000 0.0000 0.0000 19.1026 0.0000
# 6 0.0000 0.0000 0.0000 0.0000 0.0000 17.5708
#
#
#
# Elastic Compliance Matrix: (Units=1/GPa)
#
#
# Indices 1 2 3 4 5 6 
#
# 1 -0.000151 0.007853 -0.000442 0.000000 0.000000 0.000000
# 2 0.007853 -0.000151 -0.000442 0.000000 0.000000 0.000000
# 3 -0.000442 -0.000442 0.019711 0.000000 0.000000 0.000000
# 4 0.000000 0.000000 0.000000 0.052349 0.000000 0.000000
# 5 0.000000 0.000000 0.000000 0.000000 0.052349 0.000000
# 6 0.000000 0.000000 0.000000 0.000000 0.000000 0.056913
#
#
# Mechanical properties :
#
#
# Convention : Reuss Voigt Hill
#
# Bulk Modulus (GPa) = 29.98650 35.87458 32.93054
# Shear Modulus (GPa) = 28.05899 6.00240 17.03069
#
# Velocity S-wave (km/s) = 3.82543 1.76932 2.98031
# Velocity P-wave (km/s) = 5.92884 4.78373 5.38680
#
# Compressibility (1/GPa) = 0.03334834
#
# Stress axis : x y z
#
# Youngs Moduli (GPa) = -6625.24709 -6625.24709 50.73390
#
# Poissons Ratio (x) = 52.02767 0.02240
# Poissons Ratio (y) = 52.02767 0.02240
# Poissons Ratio (z) = -2.92564 -2.92564
#
# Static dielectric constant tensor:
#      x y z
#    x 1.702820 0.000000 0.000000 
#    y 0.000000 1.702820 0.000000 
#    z 0.000000 0.000000 1.675450 
# 
# From -- ./inp_files/1012.got.cif
#   From: 2010.05.17/outbox.cif.g08.bks.cpg/sg114_1_cif.got.tgz:1012.got - 2010.05.20 11:04:54.
