data_PCOD9556266
_publ_section_title
;
Structure prediction by ZEFSAII (Michael W. Deem and Ramdas Pophale) SiO2 
 PCOD9556266
Probable space group: P -4 21 C
;
_chemical_formula_sum "Si O2"
_cell_formula_units_Z 40
_cell_length_a 8.833452
_cell_length_b 8.833452
_cell_length_c 21.825272
_cell_angle_alpha 90.000000
_cell_angle_beta 90.000000
_cell_angle_gamma 90.000000
_cell_volume 1703.023229
_symmetry_space_group_name_H-M "P -4 21 C"
_symmetry_group_IT_number 114
_symmetry_cell_setting 'tetragonal'
loop_
_space_group_symop_operation_xyz
x,y,z
y,-x,-z
-x,-y,z
-y,x,-z
1/2+x,1/2-y,1/2-z
1/2-x,1/2+y,1/2-z
1/2-y,1/2-x,1/2+z
1/2+y,1/2+x,1/2+z
loop_
_atom_site_type_symbol
_atom_site_label
_atom_site_fract_x
_atom_site_fract_y
_atom_site_fract_z
Si Si1 0.421403 0.286274 0.473105
Si Si2 0.753518 0.309721 0.841790
Si Si3 0.585186 0.707016 0.025633
Si Si4 0.418256 0.838083 0.242132
Si Si5 0.069959 0.160533 0.845389
O O1 0.328407 0.405645 0.515349
O O2 0.369584 0.126329 0.498236
O O3 0.379584 0.330452 0.404241
O O4 0.679680 0.356907 0.905680
O O5 0.745122 0.453398 0.795213
O O6 0.699869 0.156503 0.807780
O O7 0.927282 0.269763 0.859210
O O8 0.669004 0.589945 0.980329
O O9 0.266768 0.838540 0.200610
O O10 0.500000 0.000000 0.247947
O O11 0.000000 0.000000 0.822266
#
# Coordination Sequence:
#
# PCOD9556266 Si02
#       5
#     8   8   8   8   8
#     4  11  20  39  65  98 127 168 223 267 333 409
#     4  11  22  46  65  95 138 175 235 285 347 423
#     4  11  25  45  62  97 136 180 221 274 347 405
#     4  10  24  42  65  98 131 181 229 286 357 410
#     4  11  20  39  66  97 131 167 223 283 341 414
#
# _framework density 23.487644
#
# number of rings (size 3 to 8) (size 9 to 14) (size 15 to 20)
#    0.000    1.200    4.000    2.400    0.000    0.800 
#   32.400    0.000    0.000    0.000    0.000    0.000 
#    0.000    0.000    0.000    0.000    0.000    0.000 
#
# Total GULP energy -223330.230909 kJ/mol
# GULP energy per Si atom -5583.255773 kJ/mol
# Density = 2.343418 g / cm^3
# Si number density = 23.487644 Si / 1000 Ang^3
#
#
#
# Elastic Constant Matrix: (Units=GPa)
#
#
# Indices 1 2 3 4 5 6 
#
# 1 59.8182 39.0630 37.1900 0.0000 0.0000 0.0000
# 2 39.0630 59.8182 37.1900 0.0000 0.0000 0.0000
# 3 37.1900 37.1900 127.1596 0.0000 0.0000 0.0000
# 4 0.0000 0.0000 0.0000 29.6977 0.0000 0.0000
# 5 0.0000 0.0000 0.0000 0.0000 29.6977 0.0000
# 6 0.0000 0.0000 0.0000 0.0000 0.0000 42.6302
#
#
#
# Elastic Compliance Matrix: (Units=1/GPa)
#
#
# Indices 1 2 3 4 5 6 
#
# 1 0.030573 -0.017608 -0.003792 0.000000 0.000000 0.000000
# 2 -0.017608 0.030573 -0.003792 0.000000 0.000000 0.000000
# 3 -0.003792 -0.003792 0.010082 0.000000 0.000000 0.000000
# 4 0.000000 0.000000 0.000000 0.033673 0.000000 0.000000
# 5 0.000000 0.000000 0.000000 0.000000 0.033673 0.000000
# 6 0.000000 0.000000 0.000000 0.000000 0.000000 0.023458
#
#
# Mechanical properties :
#
#
# Convention : Reuss Voigt Hill
#
# Bulk Modulus (GPa) = 47.97241 52.63131 50.30186
# Shear Modulus (GPa) = 22.79331 29.29533 26.04432
#
# Velocity S-wave (km/s) = 3.11857 3.53550 3.33356
# Velocity P-wave (km/s) = 5.78240 6.25484 6.02325
#
# Compressibility (1/GPa) = 0.02084531
#
# Stress axis : x y z
#
# Youngs Moduli (GPa) = 32.70854 32.70854 99.18473
#
# Poissons Ratio (x) = 0.57592 0.37611
# Poissons Ratio (y) = 0.57592 0.37611
# Poissons Ratio (z) = 0.12403 0.12403
#
# Static dielectric constant tensor:
#      x y z
#    x 1.888100 0.000000 0.000000 
#    y 0.000000 1.888100 0.000000 
#    z 0.000000 0.000000 1.907090 
# 
# From -- ./inp_files/3361.got.cif
#   From: 2010.05.17/outbox.cif.g08.bks.cpg/sg114_2_cif.got.tgz:3361.got - 2010.05.20 11:04:54.
