data_PCOD9556456
_publ_section_title
;
Structure prediction by ZEFSAII (Michael W. Deem and Ramdas Pophale) SiO2 
 PCOD9556456
Probable space group: P -4 21 C
;
_chemical_formula_sum "Si O2"
_cell_formula_units_Z 18
_cell_length_a 8.654661
_cell_length_b 8.654661
_cell_length_c 9.074361
_cell_angle_alpha 90.000000
_cell_angle_beta 90.000000
_cell_angle_gamma 90.000000
_cell_volume 679.698287
_symmetry_space_group_name_H-M "P -4 21 C"
_symmetry_group_IT_number 114
_symmetry_cell_setting 'tetragonal'
loop_
_space_group_symop_operation_xyz
x,y,z
y,-x,-z
-x,-y,z
-y,x,-z
1/2+x,1/2-y,1/2-z
1/2-x,1/2+y,1/2-z
1/2-y,1/2-x,1/2+z
1/2+y,1/2+x,1/2+z
loop_
_atom_site_type_symbol
_atom_site_label
_atom_site_fract_x
_atom_site_fract_y
_atom_site_fract_z
Si Si1 0.500000 0.500000 0.500000
Si Si2 0.584030 0.720446 0.984797
Si Si3 0.030643 0.683259 0.834561
O O1 0.460775 0.655768 0.598189
O O2 0.535118 0.811916 0.840596
O O3 0.667016 0.566870 0.927587
O O4 0.695947 0.798319 0.099644
O O5 0.000000 0.500000 0.878212
#
# Coordination Sequence:
#
# PCOD9556456 Si02
#       3
#     2   8   8
#     4  12  28  52  90 124 180 220 286 356 428 500
#     4  11  27  48  79 118 169 222 285 352 426 508
#     4  12  28  50  84 123 168 229 282 350 430 508
#
# _framework density 26.482340000000001
#
# number of rings (size 3 to 8) (size 9 to 14) (size 15 to 20)
#    0.000    0.444    0.000    6.667   18.667    0.000 
#    0.000    0.000    0.000    0.000    0.000    0.000 
#    0.000    0.000    0.000    0.000    0.000    0.000 
#
# Total GULP energy -100288.007121 kJ/mol
# GULP energy per Si atom -5571.555951 kJ/mol
# Density = 2.642206 g / cm^3
# Si number density = 26.482340 Si / 1000 Ang^3
#
#
#
# Elastic Constant Matrix: (Units=GPa)
#
#
# Indices 1 2 3 4 5 6 
#
# 1 104.5453 25.4101 39.6822 0.0000 0.0000 0.0000
# 2 25.4101 104.5453 39.6822 0.0000 0.0000 0.0000
# 3 39.6822 39.6822 135.1312 0.0000 0.0000 0.0000
# 4 0.0000 0.0000 0.0000 32.4933 0.0000 0.0000
# 5 0.0000 0.0000 0.0000 0.0000 32.4933 0.0000
# 6 0.0000 0.0000 0.0000 0.0000 0.0000 35.4429
#
#
#
# Elastic Compliance Matrix: (Units=1/GPa)
#
#
# Indices 1 2 3 4 5 6 
#
# 1 0.011007 -0.001630 -0.002753 0.000000 0.000000 0.000000
# 2 -0.001630 0.011007 -0.002753 0.000000 0.000000 0.000000
# 3 -0.002753 -0.002753 0.009017 0.000000 0.000000 0.000000
# 4 0.000000 0.000000 0.000000 0.030776 0.000000 0.000000
# 5 0.000000 0.000000 0.000000 0.000000 0.030776 0.000000
# 6 0.000000 0.000000 0.000000 0.000000 0.000000 0.028214
#
#
# Mechanical properties :
#
#
# Convention : Reuss Voigt Hill
#
# Bulk Modulus (GPa) = 59.67840 61.53010 60.60425
# Shear Modulus (GPa) = 35.54782 36.04904 35.79843
#
# Velocity S-wave (km/s) = 3.66775 3.69351 3.68065
# Velocity P-wave (km/s) = 6.36558 6.44005 6.40292
#
# Compressibility (1/GPa) = 0.01675648
#
# Stress axis : x y z
#
# Youngs Moduli (GPa) = 90.85496 90.85496 110.89718
#
# Poissons Ratio (x) = 0.14810 0.30535
# Poissons Ratio (y) = 0.14810 0.30535
# Poissons Ratio (z) = 0.25017 0.25017
#
# Static dielectric constant tensor:
#      x y z
#    x 2.239580 0.000000 0.000000 
#    y 0.000000 2.239580 0.000000 
#    z 0.000000 0.000000 1.889490 
# 
# From -- ./inp_files/369.got.cif
#   From: 2010.05.17/outbox.cif.g08.bks.cpg/sg114_1_cif.got.tgz:369.got - 2010.05.20 11:04:54.
