data_PCOD9556486
_publ_section_title
;
Structure prediction by ZEFSAII (Michael W. Deem and Ramdas Pophale) SiO2 
 PCOD9556486
Probable space group: P -4 21 C
;
_chemical_formula_sum "Si O2"
_cell_formula_units_Z 22
_cell_length_a 8.409495
_cell_length_b 8.409495
_cell_length_c 13.118317
_cell_angle_alpha 90.000000
_cell_angle_beta 90.000000
_cell_angle_gamma 90.000000
_cell_volume 927.722212
_symmetry_space_group_name_H-M "P -4 21 C"
_symmetry_group_IT_number 114
_symmetry_cell_setting 'tetragonal'
loop_
_space_group_symop_operation_xyz
x,y,z
y,-x,-z
-x,-y,z
-y,x,-z
1/2+x,1/2-y,1/2-z
1/2-x,1/2+y,1/2-z
1/2-y,1/2-x,1/2+z
1/2+y,1/2+x,1/2+z
loop_
_atom_site_type_symbol
_atom_site_label
_atom_site_fract_x
_atom_site_fract_y
_atom_site_fract_z
Si Si1 0.263940 0.387573 0.648740
Si Si2 0.500000 0.500000 0.500000
Si Si3 0.817177 0.971520 0.629353
Si Si4 0.500000 0.000000 0.490725
O O1 0.421241 0.378727 0.579164
O O2 0.189652 0.215392 0.649368
O O3 0.293042 0.442063 0.762787
O O4 0.149387 0.505935 0.586483
O O5 0.664166 0.011929 0.556878
O O6 0.000000 0.000000 0.598480
#
# Coordination Sequence:
#
# PCOD9556486 Si02
#       4
#     8   2   8   4
#     4  12  29  51  78 117 161 208 276 338 417 499
#     4  12  24  52  76 108 162 208 256 344 408 492
#     4  12  31  51  81 118 164 216 275 343 422 499
#     4  12  30  50  82 118 162 216 272 340 414 504
#
# _framework density 23.713996000000002
#
# number of rings (size 3 to 8) (size 9 to 14) (size 15 to 20)
#    0.000    0.000    5.455    1.091   20.364    0.000 
#    0.000    0.000    0.000    0.000    0.000    0.000 
#    0.000    0.000    0.000    0.000    0.000    0.000 
#
# Total GULP energy -123044.457387 kJ/mol
# GULP energy per Si atom -5592.929881 kJ/mol
# Density = 2.366002 g / cm^3
# Si number density = 23.713996 Si / 1000 Ang^3
#
#
#
# Elastic Constant Matrix: (Units=GPa)
#
#
# Indices 1 2 3 4 5 6 
#
# 1 130.6820 37.1743 67.1835 0.0000 0.0000 0.0000
# 2 37.1743 130.6820 67.1835 0.0000 0.0000 0.0000
# 3 67.1835 67.1835 190.3301 0.0000 0.0000 0.0000
# 4 0.0000 0.0000 0.0000 56.7655 0.0000 0.0000
# 5 0.0000 0.0000 0.0000 0.0000 56.7655 0.0000
# 6 0.0000 0.0000 0.0000 0.0000 0.0000 40.7798
#
#
#
# Elastic Compliance Matrix: (Units=1/GPa)
#
#
# Indices 1 2 3 4 5 6 
#
# 1 0.009499 -0.001195 -0.002931 0.000000 0.000000 0.000000
# 2 -0.001195 0.009499 -0.002931 0.000000 0.000000 0.000000
# 3 -0.002931 -0.002931 0.007323 0.000000 0.000000 0.000000
# 4 0.000000 0.000000 0.000000 0.017616 0.000000 0.000000
# 5 0.000000 0.000000 0.000000 0.000000 0.017616 0.000000
# 6 0.000000 0.000000 0.000000 0.000000 0.000000 0.024522
#
#
# Mechanical properties :
#
#
# Convention : Reuss Voigt Hill
#
# Bulk Modulus (GPa) = 81.92382 88.30850 85.11616
# Shear Modulus (GPa) = 47.95714 49.53901 48.74808
#
# Velocity S-wave (km/s) = 4.50189 4.57554 4.53887
# Velocity P-wave (km/s) = 7.85139 8.07675 7.96487
#
# Compressibility (1/GPa) = 0.01220646
#
# Stress axis : x y z
#
# Youngs Moduli (GPa) = 105.27371 105.27371 136.55058
#
# Poissons Ratio (x) = 0.12583 0.40024
# Poissons Ratio (y) = 0.12583 0.40024
# Poissons Ratio (z) = 0.30857 0.30857
#
# Static dielectric constant tensor:
#      x y z
#    x 0.348510 0.000000 0.000000 
#    y 0.000000 0.348510 0.000000 
#    z 0.000000 0.000000 1.859420 
# 
# From -- ./inp_files/1208.got.cif
#   From: 2010.05.17/outbox.cif.g08.bks.cpg/sg114_1_cif.got.tgz:1208.got - 2010.05.20 11:04:54.
