data_PCOD9556238
_publ_section_title
;
Structure prediction by ZEFSAII (Michael W. Deem and Ramdas Pophale) SiO2 
 PCOD9556238
Probable space group: P -4 21 C
;
_chemical_formula_sum "Si O2"
_cell_formula_units_Z 36
_cell_length_a 8.422041
_cell_length_b 8.422041
_cell_length_c 23.056142
_cell_angle_alpha 90.000000
_cell_angle_beta 90.000000
_cell_angle_gamma 90.000000
_cell_volume 1635.390011
_symmetry_space_group_name_H-M "P -4 21 C"
_symmetry_group_IT_number 114
_symmetry_cell_setting 'tetragonal'
loop_
_space_group_symop_operation_xyz
x,y,z
y,-x,-z
-x,-y,z
-y,x,-z
1/2+x,1/2-y,1/2-z
1/2-x,1/2+y,1/2-z
1/2-y,1/2-x,1/2+z
1/2+y,1/2+x,1/2+z
loop_
_atom_site_type_symbol
_atom_site_label
_atom_site_fract_x
_atom_site_fract_y
_atom_site_fract_z
Si Si1 0.268948 0.243120 0.372481
Si Si2 0.500000 0.000000 0.932838
Si Si3 0.221782 0.223667 0.235546
Si Si4 0.500000 0.000000 0.749116
Si Si5 0.256839 0.416569 0.984320
Si Si6 0.500000 0.500000 0.339323
O O1 0.378375 0.098633 0.394015
O O2 0.224012 0.224498 0.305499
O O3 0.125779 0.261581 0.417173
O O4 0.378675 0.397942 0.376215
O O5 0.390857 0.896601 0.976059
O O6 0.145686 0.398480 0.221678
O O7 0.394493 0.143852 0.219899
O O8 0.098676 0.112191 0.203087
O O9 0.310444 0.598294 0.992013
#
# Coordination Sequence:
#
# PCOD9556238 Si02
#       6
#     8   4   8   4   8   4
#     4  11  24  42  68  95 130 190 222 284 364 409
#     4  10  23  43  68  96 132 170 233 299 348 424
#     4  12  24  44  67 103 145 185 237 287 344 429
#     4  12  23  45  70  96 154 184 239 301 338 416
#     4   9  21  44  67  97 127 167 231 293 347 427
#     4  12  26  42  63 106 143 182 236 286 344 440
#
# _framework density 22.013096999999998
#
# number of rings (size 3 to 8) (size 9 to 14) (size 15 to 20)
#    0.000    1.111    4.444    0.667    0.000    8.000 
#    4.000    0.000    0.000    0.000    0.000    0.000 
#    0.000    0.000    0.000    0.000    0.000    0.000 
#
# Total GULP energy -200657.276653 kJ/mol
# GULP energy per Si atom -5573.813240 kJ/mol
# Density = 2.196299 g / cm^3
# Si number density = 22.013097 Si / 1000 Ang^3
#
#
#
# Elastic Constant Matrix: (Units=GPa)
#
#
# Indices 1 2 3 4 5 6 
#
# 1 88.8012 30.6172 20.7871 0.0000 0.0000 0.0000
# 2 30.6172 88.8012 20.7871 0.0000 0.0000 0.0000
# 3 20.7871 20.7871 104.1764 0.0000 0.0000 0.0000
# 4 0.0000 0.0000 0.0000 14.2334 0.0000 0.0000
# 5 0.0000 0.0000 0.0000 0.0000 14.2334 0.0000
# 6 0.0000 0.0000 0.0000 0.0000 0.0000 34.2779
#
#
#
# Elastic Compliance Matrix: (Units=1/GPa)
#
#
# Indices 1 2 3 4 5 6 
#
# 1 0.013093 -0.004094 -0.001796 0.000000 0.000000 0.000000
# 2 -0.004094 0.013093 -0.001796 0.000000 0.000000 0.000000
# 3 -0.001796 -0.001796 0.010316 0.000000 0.000000 0.000000
# 4 0.000000 0.000000 0.000000 0.070257 0.000000 0.000000
# 5 0.000000 0.000000 0.000000 0.000000 0.070257 0.000000
# 6 0.000000 0.000000 0.000000 0.000000 0.000000 0.029173
#
#
# Mechanical properties :
#
#
# Convention : Reuss Voigt Hill
#
# Bulk Modulus (GPa) = 47.32335 47.35129 47.33732
# Shear Modulus (GPa) = 21.87192 26.52143 24.19667
#
# Velocity S-wave (km/s) = 3.15554 3.47479 3.31901
# Velocity P-wave (km/s) = 5.90094 6.13646 6.01985
#
# Compressibility (1/GPa) = 0.02113122
#
# Stress axis : x y z
#
# Youngs Moduli (GPa) = 76.37695 76.37695 96.93961
#
# Poissons Ratio (x) = 0.31268 0.17407
# Poissons Ratio (y) = 0.31268 0.17407
# Poissons Ratio (z) = 0.13715 0.13715
#
# Static dielectric constant tensor:
#      x y z
#    x 1.867680 0.000000 0.000000 
#    y 0.000000 1.867680 0.000000 
#    z 0.000000 0.000000 1.786630 
# 
# From -- ./inp_files/3000.got.cif
#   From: 2010.05.17/outbox.cif.g08.bks.cpg/sg114_2_cif.got.tgz:3000.got - 2010.05.20 11:04:54.
