data_PCOD9556534
_publ_section_title
;
Structure prediction by ZEFSAII (Michael W. Deem and Ramdas Pophale) SiO2 
 PCOD9556534
Probable space group: P -4 M 2
;
_chemical_formula_sum "Si O2"
_cell_formula_units_Z 48
_cell_length_a 24.785024
_cell_length_b 24.785024
_cell_length_c 5.475355
_cell_angle_alpha 90.000000
_cell_angle_beta 90.000000
_cell_angle_gamma 90.000000
_cell_volume 3363.496421
_symmetry_space_group_name_H-M "P -4 M 2"
_symmetry_group_IT_number 115
_symmetry_cell_setting 'tetragonal'
loop_
_space_group_symop_operation_xyz
x,y,z
y,-x,-z
-x,-y,z
-y,x,-z
y,x,-z
-y,-x,-z
-x,y,z
x,-y,z
loop_
_atom_site_type_symbol
_atom_site_label
_atom_site_fract_x
_atom_site_fract_y
_atom_site_fract_z
Si Si1 0.057721 0.224081 0.999999
Si Si2 0.092728 0.820770 0.499999
Si Si3 0.711080 0.843635 0.500001
Si Si4 0.065167 0.561568 0.000004
Si Si5 0.624614 0.935250 0.499996
Si Si6 0.732472 0.821842 0.000001
O O1 0.061355 0.189619 0.751506
O O2 0.112976 0.258298 1.000000
O O3 0.000000 0.254209 1.000000
O O4 0.061355 0.189619 0.248492
O O5 0.122381 0.877620 0.500000
O O6 0.138834 0.773987 0.499999
O O7 0.678059 0.899284 0.499999
O O8 0.702033 0.811239 0.251773
O O9 0.702033 0.811239 0.748228
O O10 0.085430 0.500000 0.000001
O O11 0.078864 0.592151 0.748168
O O12 0.000000 0.559056 0.000005
O O13 0.078864 0.592150 0.251842
O O14 0.635006 0.000000 0.499997
O O15 0.788510 0.788510 0.000000
#
# Coordination Sequence:
#
# PCOD9556534 Si02
#       6
#     8   8   8   8   8   8
#     4  10  18  27  41  60  75  87 109 137 161 190
#     4  10  19  32  44  55  77 103 120 133 163 221
#     4  10  18  27  41  57  75  97 119 149 179 204
#     4   9  17  30  44  55  73 104 134 151 168 208
#     4  10  19  28  40  61  82  98 120 153 190 216
#     4  10  19  31  43  55  76 104 125 138 168 228
#
# _framework density 14.270864
#
# number of rings (size 3 to 8) (size 9 to 14) (size 15 to 20)
#    0.000    2.167    0.000    7.000    0.000    7.333 
#    0.000    1.667    0.000    0.000    0.000    0.000 
#    0.000   65.000    0.000    0.000    0.000    0.000 
#
# Total GULP energy -267304.871717 kJ/mol
# GULP energy per Si atom -5568.851494 kJ/mol
# Density = 1.423838 g / cm^3
# Si number density = 14.270864 Si / 1000 Ang^3
#
#
#
# Elastic Constant Matrix: (Units=GPa)
#
#
# Indices 1 2 3 4 5 6 
#
# 1 34.5236 14.6257 18.3802 0.0000 0.0000 0.0000
# 2 14.6257 34.5177 18.3794 0.0000 0.0000 0.0000
# 3 18.3802 18.3794 159.4726 0.0000 0.0000 0.0000
# 4 0.0000 0.0000 0.0000 18.5725 0.0000 0.0000
# 5 0.0000 0.0000 0.0000 0.0000 18.5779 0.0000
# 6 0.0000 0.0000 0.0000 0.0000 0.0000 5.7813
#
#
#
# Elastic Compliance Matrix: (Units=1/GPa)
#
#
# Indices 1 2 3 4 5 6 
#
# 1 0.036262 -0.013999 -0.002566 0.000000 0.000000 0.000000
# 2 -0.013999 0.036269 -0.002567 0.000000 0.000000 0.000000
# 3 -0.002566 -0.002567 0.006862 0.000000 0.000000 0.000000
# 4 0.000000 0.000000 0.000000 0.053843 0.000000 0.000000
# 5 0.000000 0.000000 0.000000 0.000000 0.053827 0.000000
# 6 0.000000 0.000000 0.000000 0.000000 0.000000 0.172970
#
#
# Mechanical properties :
#
#
# Convention : Reuss Voigt Hill
#
# Bulk Modulus (GPa) = 24.31273 36.80940 30.56106
# Shear Modulus (GPa) = 12.13573 20.39492 16.26532
#
# Velocity S-wave (km/s) = 2.91930 3.78448 3.37969
# Velocity P-wave (km/s) = 5.33261 6.70416 6.05733
#
# Compressibility (1/GPa) = 0.04113071
#
# Stress axis : x y z
#
# Youngs Moduli (GPa) = 27.57686 27.57205 145.72519
#
# Poissons Ratio (x) = 0.38597 0.37395
# Poissons Ratio (y) = 0.38603 0.37402
# Poissons Ratio (z) = 0.07077 0.07077
#
# Static dielectric constant tensor:
#      x y z
#    x 1.462040 0.000000 0.000000 
#    y 0.000000 1.462040 0.000000 
#    z 0.000000 0.000000 1.603150 
# 
# From -- ./inp_files/750.got.cif
#   From: 2010.05.17/outbox.cif.g08.bks.cpg/sg115_1_cif.got.tgz:750.got - 2010.05.20 11:07:42.
