data_PCOD9556193
_publ_section_title
;
Structure prediction by ZEFSAII (Michael W. Deem and Ramdas Pophale) SiO2 
 PCOD9556193
Probable space group: P -4 21 C
;
_chemical_formula_sum "Si O2"
_cell_formula_units_Z 58
_cell_length_a 17.462902
_cell_length_b 17.462902
_cell_length_c 8.161438
_cell_angle_alpha 90.000000
_cell_angle_beta 90.000000
_cell_angle_gamma 90.000000
_cell_volume 2488.854564
_symmetry_space_group_name_H-M "P -4 21 C"
_symmetry_group_IT_number 114
_symmetry_cell_setting 'tetragonal'
loop_
_space_group_symop_operation_xyz
x,y,z
y,-x,-z
-x,-y,z
-y,x,-z
1/2+x,1/2-y,1/2-z
1/2-x,1/2+y,1/2-z
1/2-y,1/2-x,1/2+z
1/2+y,1/2+x,1/2+z
loop_
_atom_site_type_symbol
_atom_site_label
_atom_site_fract_x
_atom_site_fract_y
_atom_site_fract_z
Si Si1 0.547354 0.806818 0.021182
Si Si2 0.840367 0.795940 0.835272
Si Si3 0.500000 0.500000 0.000000
Si Si4 0.813152 0.560846 0.524631
Si Si5 0.203403 0.070545 0.039827
Si Si6 0.082131 0.458786 0.212976
Si Si7 0.669530 0.819109 0.734873
Si Si8 0.518276 0.334689 0.866136
O O1 0.491424 0.870308 0.943218
O O2 0.616354 0.805331 0.889779
O O3 0.512511 0.721703 0.008821
O O4 0.591486 0.829149 0.185596
O O5 0.862684 0.727879 0.958641
O O6 0.755542 0.792269 0.765564
O O7 0.902816 0.796326 0.692333
O O8 0.850004 0.877866 0.927066
O O9 0.422889 0.473463 0.090641
O O10 0.744719 0.500504 0.547534
O O11 0.866384 0.529264 0.374775
O O12 0.868686 0.572493 0.676931
O O13 0.269214 0.129816 0.094303
O O14 0.169392 0.037632 0.208100
O O15 0.000000 0.500000 0.224449
#
# Coordination Sequence:
#
# PCOD9556193 Si02
#       8
#     8   8   2   8   8   8   8   8
#     4  11  23  43  65  98 138 173 226 279 326 417
#     4  11  23  42  70  94 134 177 222 282 336 400
#     4  12  24  44  70  96 124 192 220 290 372 380
#     4  11  26  43  63 103 138 169 236 275 331 416
#     4  10  22  43  65  95 135 176 224 282 335 406
#     4  12  25  42  68  96 142 184 210 281 342 404
#     4  11  21  38  70  96 126 179 224 265 338 401
#     4  10  24  45  64  97 137 164 234 290 327 414
#
# _framework density 23.303891
#
# number of rings (size 3 to 8) (size 9 to 14) (size 15 to 20)
#    0.000    1.103    5.517    2.069    3.862    2.207 
#    4.966    0.000    0.000    0.000    0.000    0.000 
#    0.000    0.000    0.000    0.000    0.000    0.000 
#
# Total GULP energy -324588.064841 kJ/mol
# GULP energy per Si atom -5596.345946 kJ/mol
# Density = 2.325085 g / cm^3
# Si number density = 23.303891 Si / 1000 Ang^3
#
#
#
# Elastic Constant Matrix: (Units=GPa)
#
#
# Indices 1 2 3 4 5 6 
#
# 1 83.7631 7.8049 -1.2865 0.0000 0.0000 0.0000
# 2 7.8049 83.7631 -1.2865 0.0000 0.0000 0.0000
# 3 -1.2865 -1.2865 18.5719 0.0000 0.0000 0.0000
# 4 0.0000 0.0000 0.0000 16.1410 0.0000 0.0000
# 5 0.0000 0.0000 0.0000 0.0000 16.1410 0.0000
# 6 0.0000 0.0000 0.0000 0.0000 0.0000 46.2225
#
#
#
# Elastic Compliance Matrix: (Units=1/GPa)
#
#
# Indices 1 2 3 4 5 6 
#
# 1 0.012054 -0.001112 0.000758 0.000000 0.000000 0.000000
# 2 -0.001112 0.012054 0.000758 0.000000 0.000000 0.000000
# 3 0.000758 0.000758 0.053950 0.000000 0.000000 0.000000
# 4 0.000000 0.000000 0.000000 0.061954 0.000000 0.000000
# 5 0.000000 0.000000 0.000000 0.000000 0.061954 0.000000
# 6 0.000000 0.000000 0.000000 0.000000 0.000000 0.021634
#
#
# Mechanical properties :
#
#
# Convention : Reuss Voigt Hill
#
# Bulk Modulus (GPa) = 12.67974 21.84022 17.25998
# Shear Modulus (GPa) = 20.07393 27.75865 23.91629
#
# Velocity S-wave (km/s) = 2.93814 3.45506 3.20703
# Velocity P-wave (km/s) = 4.11863 5.03079 4.59739
#
# Compressibility (1/GPa) = 0.07886595
#
# Stress axis : x y z
#
# Youngs Moduli (GPa) = 82.96249 82.96249 18.53577
#
# Poissons Ratio (x) = 0.09221 -0.01405
# Poissons Ratio (y) = 0.09221 -0.01405
# Poissons Ratio (z) = -0.06288 -0.06288
#
# Static dielectric constant tensor:
#      x y z
#    x 1.865930 0.000000 0.000000 
#    y 0.000000 1.865930 0.000000 
#    z 0.000000 0.000000 1.950720 
# 
# From -- ./inp_files/1040.got.cif
#   From: 2010.05.17/outbox.cif.g08.bks.cpg/sg114_1_cif.got.tgz:1040.got - 2010.05.20 11:04:54.
