data_PCOD9556503
_publ_section_title
;
Structure prediction by ZEFSAII (Michael W. Deem and Ramdas Pophale) SiO2 
 PCOD9556503
Probable space group: P -4 21 C
;
_chemical_formula_sum "Si O2"
_cell_formula_units_Z 18
_cell_length_a 9.363938
_cell_length_b 9.363938
_cell_length_c 8.135134
_cell_angle_alpha 90.000000
_cell_angle_beta 90.000000
_cell_angle_gamma 90.000000
_cell_volume 713.315679
_symmetry_space_group_name_H-M "P -4 21 C"
_symmetry_group_IT_number 114
_symmetry_cell_setting 'tetragonal'
loop_
_space_group_symop_operation_xyz
x,y,z
y,-x,-z
-x,-y,z
-y,x,-z
1/2+x,1/2-y,1/2-z
1/2-x,1/2+y,1/2-z
1/2-y,1/2-x,1/2+z
1/2+y,1/2+x,1/2+z
loop_
_atom_site_type_symbol
_atom_site_label
_atom_site_fract_x
_atom_site_fract_y
_atom_site_fract_z
Si Si1 0.832655 0.503169 0.942846
Si Si2 0.500000 0.500000 0.500000
Si Si3 0.211048 0.850686 0.254750
O O1 0.810206 0.638659 0.824560
O O2 0.780290 0.364239 0.847476
O O3 0.000000 0.500000 0.984688
O O4 0.741949 0.531344 0.105903
O O5 0.607142 0.588345 0.384278
#
# Coordination Sequence:
#
# PCOD9556503 Si02
#       3
#     8   2   8
#     4  12  30  52  87 127 173 229 289 363 428 525
#     4  12  28  54  80 128 172 234 276 352 420 526
#     4  12  29  53  84 124 175 222 293 343 439 507
#
# _framework density 25.234272000000001
#
# number of rings (size 3 to 8) (size 9 to 14) (size 15 to 20)
#    0.000    0.000    0.000    6.667   24.889    0.000 
#    0.000    0.000    0.000    0.000    0.000    0.000 
#    0.000    0.000    0.000    0.000    0.000    0.000 
#
# Total GULP energy -101259.695806 kJ/mol
# GULP energy per Si atom -5625.538656 kJ/mol
# Density = 2.517684 g / cm^3
# Si number density = 25.234272 Si / 1000 Ang^3
#
#
#
# Elastic Constant Matrix: (Units=GPa)
#
#
# Indices 1 2 3 4 5 6 
#
# 1 99.9534 16.5776 32.1335 0.0000 0.0000 0.0000
# 2 16.5776 99.9534 32.1335 0.0000 0.0000 0.0000
# 3 32.1335 32.1335 133.3769 0.0000 0.0000 0.0000
# 4 0.0000 0.0000 0.0000 17.0379 0.0000 0.0000
# 5 0.0000 0.0000 0.0000 0.0000 17.0379 0.0000
# 6 0.0000 0.0000 0.0000 0.0000 0.0000 50.8516
#
#
#
# Elastic Compliance Matrix: (Units=1/GPa)
#
#
# Indices 1 2 3 4 5 6 
#
# 1 0.010945 -0.001049 -0.002384 0.000000 0.000000 0.000000
# 2 -0.001049 0.010945 -0.002384 0.000000 0.000000 0.000000
# 3 -0.002384 -0.002384 0.008646 0.000000 0.000000 0.000000
# 4 0.000000 0.000000 0.000000 0.058693 0.000000 0.000000
# 5 0.000000 0.000000 0.000000 0.000000 0.058693 0.000000
# 6 0.000000 0.000000 0.000000 0.000000 0.000000 0.019665
#
#
# Mechanical properties :
#
#
# Convention : Reuss Voigt Hill
#
# Bulk Modulus (GPa) = 52.90432 54.99698 53.95065
# Shear Modulus (GPa) = 26.95099 33.81476 30.38287
#
# Velocity S-wave (km/s) = 3.27162 3.66462 3.47368
# Velocity P-wave (km/s) = 5.93987 6.30458 6.12494
#
# Compressibility (1/GPa) = 0.01890205
#
# Stress axis : x y z
#
# Youngs Moduli (GPa) = 91.36504 91.36504 115.65519
#
# Poissons Ratio (x) = 0.09582 0.27575
# Poissons Ratio (y) = 0.09582 0.27575
# Poissons Ratio (z) = 0.21784 0.21784
#
# Static dielectric constant tensor:
#      x y z
#    x 1.949790 0.000000 0.000000 
#    y 0.000000 1.949790 0.000000 
#    z 0.000000 0.000000 1.949700 
# 
# From -- ./inp_files/337.got.cif
#   From: 2010.05.17/outbox.cif.g08.bks.cpg/sg114_1_cif.got.tgz:337.got - 2010.05.20 11:04:54.
