data_PCOD9556337
_publ_section_title
;
Structure prediction by ZEFSAII (Michael W. Deem and Ramdas Pophale) SiO2 
 PCOD9556337
Probable space group: P -4 21 C
;
_chemical_formula_sum "Si O2"
_cell_formula_units_Z 36
_cell_length_a 9.708142
_cell_length_b 9.708142
_cell_length_c 18.154743
_cell_angle_alpha 90.000000
_cell_angle_beta 90.000000
_cell_angle_gamma 90.000000
_cell_volume 1711.048601
_symmetry_space_group_name_H-M "P -4 21 C"
_symmetry_group_IT_number 114
_symmetry_cell_setting 'tetragonal'
loop_
_space_group_symop_operation_xyz
x,y,z
y,-x,-z
-x,-y,z
-y,x,-z
1/2+x,1/2-y,1/2-z
1/2-x,1/2+y,1/2-z
1/2-y,1/2-x,1/2+z
1/2+y,1/2+x,1/2+z
loop_
_atom_site_type_symbol
_atom_site_label
_atom_site_fract_x
_atom_site_fract_y
_atom_site_fract_z
Si Si1 0.915972 0.820501 0.373252
Si Si2 0.568677 0.176941 0.266707
Si Si3 0.042892 0.787971 0.754004
Si Si4 0.500000 0.500000 0.000000
Si Si5 0.374433 0.321836 0.374896
Si Si6 0.000000 0.000000 0.000000
O O1 0.991700 0.724942 0.312764
O O2 0.775669 0.738528 0.391737
O O3 0.990492 0.869119 0.446202
O O4 0.863180 0.952538 0.325329
O O5 0.642193 0.030561 0.259056
O O6 0.689345 0.296630 0.275673
O O7 0.466187 0.208873 0.332819
O O8 0.946788 0.855833 0.816093
O O9 0.446443 0.379619 0.447021
#
# Coordination Sequence:
#
# PCOD9556337 Si02
#       6
#     8   8   8   2   8   2
#     4   9  22  35  60  85 109 161 199 235 307 356
#     4   9  18  36  60  83 115 142 203 249 291 349
#     4   9  18  37  57  84 109 152 198 246 296 346
#     4  12  20  42  56  76 128 162 188 244 300 378
#     4  11  20  36  58  89 115 157 202 239 304 362
#     4  12  20  34  60  84 132 166 180 256 292 366
#
# _framework density 21.039729999999999
#
# number of rings (size 3 to 8) (size 9 to 14) (size 15 to 20)
#    1.333    0.889    2.222    1.333    0.000    2.667 
#    0.000    0.000    0.000    0.000    0.000    0.000 
#    0.000    0.000    0.000    0.000    0.000    0.000 
#
# Total GULP energy -200600.951219 kJ/mol
# GULP energy per Si atom -5572.248645 kJ/mol
# Density = 2.099184 g / cm^3
# Si number density = 21.039730 Si / 1000 Ang^3
#
#
#
# Elastic Constant Matrix: (Units=GPa)
#
#
# Indices 1 2 3 4 5 6 
#
# 1 69.1791 3.0945 23.1416 0.0000 0.0000 0.0000
# 2 3.0945 69.1791 23.1416 0.0000 0.0000 0.0000
# 3 23.1416 23.1416 120.7612 0.0000 0.0000 0.0000
# 4 0.0000 0.0000 0.0000 22.4747 0.0000 0.0000
# 5 0.0000 0.0000 0.0000 0.0000 22.4747 0.0000
# 6 0.0000 0.0000 0.0000 0.0000 0.0000 32.2804
#
#
#
# Elastic Compliance Matrix: (Units=1/GPa)
#
#
# Indices 1 2 3 4 5 6 
#
# 1 0.015452 0.000320 -0.003022 0.000000 0.000000 0.000000
# 2 0.000320 0.015452 -0.003022 0.000000 0.000000 0.000000
# 3 -0.003022 -0.003022 0.009439 0.000000 0.000000 0.000000
# 4 0.000000 0.000000 0.000000 0.044494 0.000000 0.000000
# 5 0.000000 0.000000 0.000000 0.000000 0.044494 0.000000
# 6 0.000000 0.000000 0.000000 0.000000 0.000000 0.030979
#
#
# Mechanical properties :
#
#
# Convention : Reuss Voigt Hill
#
# Bulk Modulus (GPa) = 34.61009 39.76386 37.18697
# Shear Modulus (GPa) = 27.56469 29.42874 28.49671
#
# Velocity S-wave (km/s) = 3.62349 3.74401 3.68424
# Velocity P-wave (km/s) = 5.83025 6.13438 5.98425
#
# Compressibility (1/GPa) = 0.02889331
#
# Stress axis : x y z
#
# Youngs Moduli (GPa) = 64.71666 64.71666 105.94154
#
# Poissons Ratio (x) = -0.02070 0.32019
# Poissons Ratio (y) = -0.02070 0.32019
# Poissons Ratio (z) = 0.19560 0.19560
#
# Static dielectric constant tensor:
#      x y z
#    x 1.851910 0.000000 0.000000 
#    y 0.000000 1.851910 0.000000 
#    z 0.000000 0.000000 1.725320 
# 
# From -- ./inp_files/2090.got.cif
#   From: 2010.05.17/outbox.cif.g08.bks.cpg/sg114_2_cif.got.tgz:2090.got - 2010.05.20 11:04:54.
