data_PCOD9556327
_publ_section_title
;
Structure prediction by ZEFSAII (Michael W. Deem and Ramdas Pophale) SiO2 
 PCOD9556327
Probable space group: P -4 21 C
;
_chemical_formula_sum "Si O2"
_cell_formula_units_Z 28
_cell_length_a 10.585885
_cell_length_b 10.585885
_cell_length_c 10.110169
_cell_angle_alpha 90.000000
_cell_angle_beta 90.000000
_cell_angle_gamma 90.000000
_cell_volume 1132.955256
_symmetry_space_group_name_H-M "P -4 21 C"
_symmetry_group_IT_number 114
_symmetry_cell_setting 'tetragonal'
loop_
_space_group_symop_operation_xyz
x,y,z
y,-x,-z
-x,-y,z
-y,x,-z
1/2+x,1/2-y,1/2-z
1/2-x,1/2+y,1/2-z
1/2-y,1/2-x,1/2+z
1/2+y,1/2+x,1/2+z
loop_
_atom_site_type_symbol
_atom_site_label
_atom_site_fract_x
_atom_site_fract_y
_atom_site_fract_z
Si Si1 0.000000 0.500000 0.729376
Si Si2 0.901600 0.749094 0.088219
Si Si3 0.614004 0.345310 0.942632
Si Si4 0.979716 0.216748 0.819987
O O1 0.875104 0.532267 0.645663
O O2 0.970538 0.368750 0.804440
O O3 0.769476 0.704336 0.023436
O O4 0.859199 0.849552 0.198495
O O5 0.983178 0.805225 0.970761
O O6 0.579645 0.332523 0.787475
O O7 0.479828 0.331629 0.016580
#
# Coordination Sequence:
#
# PCOD9556327 Si02
#       4
#     4   8   8   8
#     4  10  26  48  72 112 152 204 244 308 374 446
#     4  11  27  47  77 111 151 195 250 309 374 439
#     4  10  26  46  72 107 146 200 245 301 372 446
#     4  11  27  47  76 109 153 194 249 311 366 449
#
# _framework density 24.714129
#
# number of rings (size 3 to 8) (size 9 to 14) (size 15 to 20)
#    0.000    1.429    0.000    0.857   20.000    7.429 
#    0.000    0.000    0.000    0.000    0.000    0.000 
#    0.000    0.000    0.000    0.000    0.000    0.000 
#
# Total GULP energy -156892.898267 kJ/mol
# GULP energy per Si atom -5603.317795 kJ/mol
# Density = 2.465788 g / cm^3
# Si number density = 24.714129 Si / 1000 Ang^3
#
#
#
# Elastic Constant Matrix: (Units=GPa)
#
#
# Indices 1 2 3 4 5 6 
#
# 1 61.5533 39.4752 26.8379 0.0000 0.0000 0.0000
# 2 39.4752 61.5533 26.8379 0.0000 0.0000 0.0000
# 3 26.8379 26.8379 66.1653 0.0000 0.0000 0.0000
# 4 0.0000 0.0000 0.0000 39.6348 0.0000 0.0000
# 5 0.0000 0.0000 0.0000 0.0000 39.6348 0.0000
# 6 0.0000 0.0000 0.0000 0.0000 0.0000 58.6619
#
#
#
# Elastic Compliance Matrix: (Units=1/GPa)
#
#
# Indices 1 2 3 4 5 6 
#
# 1 0.028955 -0.016338 -0.005118 0.000000 0.000000 0.000000
# 2 -0.016338 0.028955 -0.005118 0.000000 0.000000 0.000000
# 3 -0.005118 -0.005118 0.019265 0.000000 0.000000 0.000000
# 4 0.000000 0.000000 0.000000 0.025230 0.000000 0.000000
# 5 0.000000 0.000000 0.000000 0.000000 0.025230 0.000000
# 6 0.000000 0.000000 0.000000 0.000000 0.000000 0.017047
#
#
# Mechanical properties :
#
#
# Convention : Reuss Voigt Hill
#
# Bulk Modulus (GPa) = 41.61686 41.73044 41.67365
# Shear Modulus (GPa) = 24.29057 33.99436 29.14246
#
# Velocity S-wave (km/s) = 3.13846 3.71280 3.43765
# Velocity P-wave (km/s) = 5.47806 5.94153 5.71449
#
# Compressibility (1/GPa) = 0.02402872
#
# Stress axis : x y z
#
# Youngs Moduli (GPa) = 34.53577 34.53577 51.90647
#
# Poissons Ratio (x) = 0.56425 0.26565
# Poissons Ratio (y) = 0.56425 0.26565
# Poissons Ratio (z) = 0.17675 0.17675
#
# Static dielectric constant tensor:
#      x y z
#    x 1.988460 0.000000 0.000000 
#    y 0.000000 1.988460 0.000000 
#    z 0.000000 0.000000 1.945610 
# 
# From -- ./inp_files/515.got.cif
#   From: 2010.05.17/outbox.cif.g08.bks.cpg/sg114_1_cif.got.tgz:515.got - 2010.05.20 11:04:54.
