data_PCOD9556857
_publ_section_title
;
Structure prediction by ZEFSAII (Michael W. Deem and Ramdas Pophale) SiO2 
 PCOD9556857
Probable space group: P -4 M 2
;
_chemical_formula_sum "Si O2"
_cell_formula_units_Z 28
_cell_length_a 9.274852
_cell_length_b 9.274852
_cell_length_c 18.636063
_cell_angle_alpha 90.000000
_cell_angle_beta 90.000000
_cell_angle_gamma 90.000000
_cell_volume 1603.127804
_symmetry_space_group_name_H-M "P -4 M 2"
_symmetry_group_IT_number 115
_symmetry_cell_setting 'tetragonal'
loop_
_space_group_symop_operation_xyz
x,y,z
y,-x,-z
-x,-y,z
-y,x,-z
y,x,-z
-y,-x,-z
-x,y,z
x,-y,z
loop_
_atom_site_type_symbol
_atom_site_label
_atom_site_fract_x
_atom_site_fract_y
_atom_site_fract_z
Si Si1 0.328978 0.671023 0.500000
Si Si2 0.327640 0.170646 0.777177
Si Si3 0.333646 0.324507 0.078968
Si Si4 0.829503 0.672182 0.646878
O O1 0.500000 0.693305 0.512670
O O2 0.286748 0.758301 0.429124
O O3 0.500000 0.196068 0.769663
O O4 0.281105 0.239298 0.853124
O O5 0.246140 0.245667 0.711844
O O6 0.303275 0.000000 0.777116
O O7 0.500000 0.278338 0.088763
O O8 0.334394 0.500000 0.076472
O O9 0.279528 0.279528 0.000000
O O10 0.806715 0.500000 0.655832
O O11 0.000000 0.699564 0.645874
#
# Coordination Sequence:
#
# PCOD9556857 Si02
#       4
#     4   8   8   8
#     4   9  18  34  56  79 102 130 166 209 254 299
#     4  10  20  33  51  76 105 137 172 209 251 300
#     4   8  14  27  49  74  98 128 169 215 258 298
#     4  10  21  36  54  77 104 134 169 208 251 300
#
# _framework density 17.465858000000001
#
# number of rings (size 3 to 8) (size 9 to 14) (size 15 to 20)
#    0.000    2.714    0.000    2.571    0.000    4.571 
#    0.000    4.286    0.000    5.143    0.000    0.000 
#    0.000    0.000    0.000    0.000    0.000    0.000 
#
# Total GULP energy -156158.619954 kJ/mol
# GULP energy per Si atom -5577.093570 kJ/mol
# Density = 1.742610 g / cm^3
# Si number density = 17.465858 Si / 1000 Ang^3
#
#
#
# Elastic Constant Matrix: (Units=GPa)
#
#
# Indices 1 2 3 4 5 6 
#
# 1 57.4659 56.6837 91.7411 0.0000 0.0000 0.0000
# 2 56.6837 57.4655 91.7412 0.0000 0.0000 0.0000
# 3 91.7411 91.7412 228.7826 0.0000 0.0000 0.0000
# 4 0.0000 0.0000 0.0000 -8.5255 0.0000 0.0000
# 5 0.0000 0.0000 0.0000 0.0000 -8.5261 0.0000
# 6 0.0000 0.0000 0.0000 0.0000 0.0000 18.3784
#
#
#
# Elastic Compliance Matrix: (Units=1/GPa)
#
#
# Indices 1 2 3 4 5 6 
#
# 1 0.651661 -0.627023 -0.009880 0.000000 0.000000 0.000000
# 2 -0.627023 0.651678 -0.009887 0.000000 0.000000 0.000000
# 3 -0.009880 -0.009887 0.012297 0.000000 0.000000 0.000000
# 4 0.000000 0.000000 0.000000 -0.117295 0.000000 0.000000
# 5 0.000000 0.000000 0.000000 0.000000 -0.117288 0.000000
# 6 0.000000 0.000000 0.000000 0.000000 0.000000 0.054412
#
#
# Mechanical properties :
#
#
# Convention : Reuss Voigt Hill
#
# Bulk Modulus (GPa) = 45.33588 91.56065 68.44827
# Shear Modulus (GPa) = 2.05221 7.16856 4.61039
#
# Velocity S-wave (km/s) = 1.08514 2.02811 1.62646
# Velocity P-wave (km/s) = 5.25198 7.61714 6.54232
#
# Compressibility (1/GPa) = 0.02205758
#
# Stress axis : x y z
#
# Youngs Moduli (GPa) = 1.53454 1.53450 81.31913
#
# Poissons Ratio (x) = 0.96217 0.80340
# Poissons Ratio (y) = 0.96219 0.80399
# Poissons Ratio (z) = 0.01516 0.01517
#
# Static dielectric constant tensor:
#      x y z
#    x 1.576730 0.000000 0.000000 
#    y 0.000000 1.576730 0.000000 
#    z 0.000000 0.000000 1.582300 
# 
# From -- ./inp_files/4018.got.cif
#   From: 2010.05.17/outbox.cif.g08.bks.cpg/sg115_3_cif.got.tgz:4018.got - 2010.05.20 11:07:42.
