data_PCOD9556462
_publ_section_title
;
Structure prediction by ZEFSAII (Michael W. Deem and Ramdas Pophale) SiO2 
 PCOD9556462
Probable space group: P -4 21 C
;
_chemical_formula_sum "Si O2"
_cell_formula_units_Z 42
_cell_length_a 14.386237
_cell_length_b 14.386237
_cell_length_c 7.566048
_cell_angle_alpha 90.000000
_cell_angle_beta 90.000000
_cell_angle_gamma 90.000000
_cell_volume 1565.898159
_symmetry_space_group_name_H-M "P -4 21 C"
_symmetry_group_IT_number 114
_symmetry_cell_setting 'tetragonal'
loop_
_space_group_symop_operation_xyz
x,y,z
y,-x,-z
-x,-y,z
-y,x,-z
1/2+x,1/2-y,1/2-z
1/2-x,1/2+y,1/2-z
1/2-y,1/2-x,1/2+z
1/2+y,1/2+x,1/2+z
loop_
_atom_site_type_symbol
_atom_site_label
_atom_site_fract_x
_atom_site_fract_y
_atom_site_fract_z
Si Si1 0.000000 0.000000 0.500000
Si Si2 0.899474 0.547595 0.993938
Si Si3 0.173032 0.774632 0.355759
Si Si4 0.518545 0.299961 0.211573
Si Si5 0.802706 0.877612 0.230698
Si Si6 0.560937 0.217773 0.685378
O O1 0.100142 0.990068 0.601464
O O2 0.801402 0.535341 0.883431
O O3 0.920384 0.657441 0.985967
O O4 0.000000 0.500000 0.962100
O O5 0.862363 0.519311 0.185415
O O6 0.144299 0.796498 0.557764
O O7 0.214485 0.672656 0.352296
O O8 0.246986 0.846171 0.278436
O O9 0.085694 0.785521 0.226181
O O10 0.604170 0.327762 0.333295
O O11 0.798604 0.985724 0.190426
#
# Coordination Sequence:
#
# PCOD9556462 Si02
#       6
#     2   8   8   8   8   8
#     4  12  20  40  84  96 130 176 260 288 318 404
#     4  12  24  42  65 100 143 176 226 275 349 411
#     4  12  22  43  68  98 133 176 224 281 335 403
#     4  12  21  42  67 100 131 175 230 289 330 405
#     4  12  24  43  66  97 136 173 228 277 341 402
#     4  12  24  44  66 102 133 181 224 282 340 409
#
# _framework density 26.821670000000001
#
# number of rings (size 3 to 8) (size 9 to 14) (size 15 to 20)
#    0.000    0.000    7.619    2.857    0.000    0.000 
#    0.000    0.000    0.000    0.000    0.000    0.000 
#    0.000    0.000    0.000    0.000    0.000    0.000 
#
# Total GULP energy -234701.047836 kJ/mol
# GULP energy per Si atom -5588.120187 kJ/mol
# Density = 2.676062 g / cm^3
# Si number density = 26.821670 Si / 1000 Ang^3
#
#
#
# Elastic Constant Matrix: (Units=GPa)
#
#
# Indices 1 2 3 4 5 6 
#
# 1 158.0732 25.5776 21.4536 0.0000 0.0000 0.0000
# 2 25.5776 158.0732 21.4536 0.0000 0.0000 0.0000
# 3 21.4536 21.4536 55.1209 0.0000 0.0000 0.0000
# 4 0.0000 0.0000 0.0000 24.4036 0.0000 0.0000
# 5 0.0000 0.0000 0.0000 0.0000 24.4036 0.0000
# 6 0.0000 0.0000 0.0000 0.0000 0.0000 64.7906
#
#
#
# Elastic Compliance Matrix: (Units=1/GPa)
#
#
# Indices 1 2 3 4 5 6 
#
# 1 0.006769 -0.000779 -0.002331 0.000000 0.000000 0.000000
# 2 -0.000779 0.006769 -0.002331 0.000000 0.000000 0.000000
# 3 -0.002331 -0.002331 0.019957 0.000000 0.000000 0.000000
# 4 0.000000 0.000000 0.000000 0.040978 0.000000 0.000000
# 5 0.000000 0.000000 0.000000 0.000000 0.040978 0.000000
# 6 0.000000 0.000000 0.000000 0.000000 0.000000 0.015434
#
#
# Mechanical properties :
#
#
# Convention : Reuss Voigt Hill
#
# Bulk Modulus (GPa) = 44.22610 56.47076 50.34843
# Shear Modulus (GPa) = 33.48895 42.90507 38.19701
#
# Velocity S-wave (km/s) = 3.53736 4.00389 3.77783
# Velocity P-wave (km/s) = 5.76269 6.51726 6.15156
#
# Compressibility (1/GPa) = 0.02261108
#
# Stress axis : x y z
#
# Youngs Moduli (GPa) = 147.74094 147.74094 50.10863
#
# Poissons Ratio (x) = 0.11506 0.11682
# Poissons Ratio (y) = 0.11506 0.11682
# Poissons Ratio (z) = 0.34443 0.34443
#
# Static dielectric constant tensor:
#      x y z
#    x 2.145780 0.000000 0.000000 
#    y 0.000000 2.145780 0.000000 
#    z 0.000000 0.000000 2.258610 
# 
# From -- ./inp_files/810.got.cif
#   From: 2010.05.17/outbox.cif.g08.bks.cpg/sg114_1_cif.got.tgz:810.got - 2010.05.20 11:04:54.
