data_PCOD9556762
_publ_section_title
;
Structure prediction by ZEFSAII (Michael W. Deem and Ramdas Pophale) SiO2 
 PCOD9556762
Probable space group: P -4 M 2
;
_chemical_formula_sum "Si O2"
_cell_formula_units_Z 40
_cell_length_a 7.950299
_cell_length_b 7.950299
_cell_length_c 30.517954
_cell_angle_alpha 90.000000
_cell_angle_beta 90.000000
_cell_angle_gamma 90.000000
_cell_volume 1928.956076
_symmetry_space_group_name_H-M "P -4 M 2"
_symmetry_group_IT_number 115
_symmetry_cell_setting 'tetragonal'
loop_
_space_group_symop_operation_xyz
x,y,z
y,-x,-z
-x,-y,z
-y,x,-z
y,x,-z
-y,-x,-z
-x,y,z
x,-y,z
loop_
_atom_site_type_symbol
_atom_site_label
_atom_site_fract_x
_atom_site_fract_y
_atom_site_fract_z
Si Si1 0.808484 0.808484 0.500000
Si Si2 0.197573 0.307678 0.315890
Si Si3 0.701157 0.701157 0.000000
Si Si4 0.000000 0.296629 0.842263
Si Si5 0.000000 0.202970 0.740994
Si Si6 0.690269 0.694557 0.591167
Si Si7 0.706074 0.695869 0.096229
O O1 0.774424 0.706988 0.543962
O O2 0.000000 0.782592 0.486311
O O3 0.267538 0.500000 0.313878
O O4 0.214410 0.241598 0.365882
O O5 0.000000 0.322408 0.306355
O O6 0.269179 0.168625 0.282974
O O7 0.762737 0.757320 0.047694
O O8 0.728767 0.500000 0.000568
O O9 0.000000 0.242169 0.792114
O O10 0.168914 0.239974 0.867705
O O11 0.000000 0.500000 0.843743
O O12 0.000000 0.000000 0.735531
O O13 0.500000 0.758284 0.584560
O O14 0.686231 0.500000 0.603573
O O15 0.500000 0.693982 0.095554
O O16 0.757169 0.500000 0.103295
#
# Coordination Sequence:
#
# PCOD9556762 Si02
#       7
#     4   8   4   4   4   8   8
#     4  11  24  37  52  78 112 151 188 217 252 314
#     4   9  19  37  59  80 103 137 182 229 275 329
#     4   7  10  20  42  68  93 128 170 206 251 312
#     4  10  20  32  50  78 106 136 178 228 272 323
#     4  10  22  38  56  76 104 144 180 222 276 335
#     4  10  21  37  57  82 111 139 171 221 280 328
#     4   8  14  26  46  73 104 138 175 219 272 326
#
# _framework density 20.736602000000001
#
# number of rings (size 3 to 8) (size 9 to 14) (size 15 to 20)
#    0.000    2.800    0.000    2.400    1.400    4.800 
#    0.000    0.000    2.200    0.000    0.000    0.000 
#    0.000    0.000    0.000    0.000    0.000    0.000 
#
# Total GULP energy -222861.074417 kJ/mol
# GULP energy per Si atom -5571.526860 kJ/mol
# Density = 2.068940 g / cm^3
# Si number density = 20.736602 Si / 1000 Ang^3
#
#
#
# Elastic Constant Matrix: (Units=GPa)
#
#
# Indices 1 2 3 4 5 6 
#
# 1 63.7214 7.3981 41.0783 0.0000 0.0000 0.0000
# 2 7.3981 63.7214 41.0783 0.0000 0.0000 0.0000
# 3 41.0783 41.0783 152.4135 0.0000 0.0000 0.0000
# 4 0.0000 0.0000 0.0000 33.7151 0.0000 0.0000
# 5 0.0000 0.0000 0.0000 0.0000 33.7151 0.0000
# 6 0.0000 0.0000 0.0000 0.0000 0.0000 5.9977
#
#
#
# Elastic Compliance Matrix: (Units=1/GPa)
#
#
# Indices 1 2 3 4 5 6 
#
# 1 0.019086 0.001332 -0.005503 0.000000 0.000000 0.000000
# 2 0.001332 0.019086 -0.005503 0.000000 0.000000 0.000000
# 3 -0.005503 -0.005503 0.009527 0.000000 0.000000 0.000000
# 4 0.000000 0.000000 0.000000 0.029660 0.000000 0.000000
# 5 0.000000 0.000000 0.000000 0.000000 0.029660 0.000000
# 6 0.000000 0.000000 0.000000 0.000000 0.000000 0.166731
#
#
# Mechanical properties :
#
#
# Convention : Reuss Voigt Hill
#
# Bulk Modulus (GPa) = 35.27195 50.99619 43.13407
# Shear Modulus (GPa) = 16.52618 27.37235 21.94926
#
# Velocity S-wave (km/s) = 2.82611 3.63712 3.25696
# Velocity P-wave (km/s) = 5.26266 6.50261 5.91522
#
# Compressibility (1/GPa) = 0.02835114
#
# Stress axis : x y z
#
# Youngs Moduli (GPa) = 52.39373 52.39373 104.96028
#
# Poissons Ratio (x) = -0.06977 0.57760
# Poissons Ratio (y) = -0.06977 0.57760
# Poissons Ratio (z) = 0.28832 0.28832
#
# Static dielectric constant tensor:
#      x y z
#    x 1.767750 0.000000 0.000000 
#    y 0.000000 1.767750 0.000000 
#    z 0.000000 0.000000 1.686570 
# 
# From -- ./inp_files/5586.got.cif
#   From: 2010.05.17/outbox.cif.g08.bks.cpg/sg115_3_cif.got.tgz:5586.got - 2010.05.20 11:07:42.
