data_PCOD9556647
_publ_section_title
;
Structure prediction by ZEFSAII (Michael W. Deem and Ramdas Pophale) SiO2 
 PCOD9556647
Probable space group: P -4 M 2
;
_chemical_formula_sum "Si O2"
_cell_formula_units_Z 32
_cell_length_a 7.696056
_cell_length_b 7.696056
_cell_length_c 25.579869
_cell_angle_alpha 90.000000
_cell_angle_beta 90.000000
_cell_angle_gamma 90.000000
_cell_volume 1515.077171
_symmetry_space_group_name_H-M "P -4 M 2"
_symmetry_group_IT_number 115
_symmetry_cell_setting 'tetragonal'
loop_
_space_group_symop_operation_xyz
x,y,z
y,-x,-z
-x,-y,z
-y,x,-z
y,x,-z
-y,-x,-z
-x,y,z
x,-y,z
loop_
_atom_site_type_symbol
_atom_site_label
_atom_site_fract_x
_atom_site_fract_y
_atom_site_fract_z
Si Si1 0.698324 0.792552 0.329813
Si Si2 0.290177 0.701750 0.555824
Si Si3 0.212795 0.000000 0.866176
Si Si4 0.213496 0.000000 0.746184
Si Si5 0.307542 0.789867 0.058833
O O1 0.500000 0.722440 0.326708
O O2 0.774311 0.759299 0.387884
O O3 0.829634 0.728317 0.285653
O O4 0.686662 0.000000 0.323938
O O5 0.226024 0.773977 0.500000
O O6 0.500000 0.703127 0.552787
O O7 0.231686 0.500000 0.558157
O O8 0.269346 0.000000 0.806270
O O9 0.269959 0.165964 0.899634
O O10 0.000000 0.000000 0.865529
O O11 0.000000 0.000000 0.745723
O O12 0.500000 0.735754 0.074364
O O13 0.300064 0.000000 0.057481
O O14 0.270323 0.729678 0.000000
#
# Coordination Sequence:
#
# PCOD9556647 Si02
#       5
#     8   8   4   4   8
#     4   9  17  30  48  68  96 133 173 220 268 317
#     4   8  14  27  47  68  91 121 160 209 265 322
#     4   9  18  32  53  79 111 144 181 230 266 314
#     4   9  18  32  49  73 105 141 178 217 264 312
#     4  10  19  32  55  83 111 145 182 225 281 333
#
# _framework density 21.121037999999999
#
# number of rings (size 3 to 8) (size 9 to 14) (size 15 to 20)
#    0.000    3.000    1.250    0.750    0.000    1.250 
#    2.250    5.625    0.000    3.000    0.000    3.500 
#    0.000    0.000    0.000    0.000    0.000    0.000 
#
# Total GULP energy -178492.985942 kJ/mol
# GULP energy per Si atom -5577.905811 kJ/mol
# Density = 2.107297 g / cm^3
# Si number density = 21.121038 Si / 1000 Ang^3
#
#
#
# Elastic Constant Matrix: (Units=GPa)
#
#
# Indices 1 2 3 4 5 6 
#
# 1 69.7991 28.5129 61.2484 0.0000 0.0000 0.0000
# 2 28.5129 69.7982 61.2496 0.0000 0.0000 0.0000
# 3 61.2484 61.2496 231.8981 0.0000 0.0000 0.0000
# 4 0.0000 0.0000 0.0000 27.5336 0.0000 0.0000
# 5 0.0000 0.0000 0.0000 0.0000 27.5339 0.0000
# 6 0.0000 0.0000 0.0000 0.0000 0.0000 1.4059
#
#
#
# Elastic Compliance Matrix: (Units=1/GPa)
#
#
# Indices 1 2 3 4 5 6 
#
# 1 0.019691 -0.004530 -0.004004 0.000000 0.000000 0.000000
# 2 -0.004530 0.019692 -0.004005 0.000000 0.000000 0.000000
# 3 -0.004004 -0.004005 0.006428 0.000000 0.000000 0.000000
# 4 0.000000 0.000000 0.000000 0.036319 0.000000 0.000000
# 5 0.000000 0.000000 0.000000 0.000000 0.036319 0.000000
# 6 0.000000 0.000000 0.000000 0.000000 0.000000 0.711264
#
#
# Mechanical properties :
#
#
# Convention : Reuss Voigt Hill
#
# Bulk Modulus (GPa) = 48.23340 74.83522 61.53431
# Shear Modulus (GPa) = 5.80248 25.99367 15.89807
#
# Velocity S-wave (km/s) = 1.65928 3.51194 2.74654
# Velocity P-wave (km/s) = 5.15337 7.20788 6.26541
#
# Compressibility (1/GPa) = 0.02073252
#
# Stress axis : x y z
#
# Youngs Moduli (GPa) = 50.78442 50.78293 155.58074
#
# Poissons Ratio (x) = 0.23005 0.62299
# Poissons Ratio (y) = 0.23006 0.62303
# Poissons Ratio (z) = 0.20335 0.20336
#
# Static dielectric constant tensor:
#      x y z
#    x 1.777910 0.000000 0.000000 
#    y 0.000000 1.777900 0.000000 
#    z 0.000000 0.000000 1.734030 
# 
# From -- ./inp_files/5028.got.cif
#   From: 2010.05.17/outbox.cif.g08.bks.cpg/sg115_3_cif.got.tgz:5028.got - 2010.05.20 11:07:42.
