data_PCOD9556171
_publ_section_title
;
Structure prediction by ZEFSAII (Michael W. Deem and Ramdas Pophale) SiO2 
 PCOD9556171
Probable space group: P -4 21 C
;
_chemical_formula_sum "Si O2"
_cell_formula_units_Z 32
_cell_length_a 7.874874
_cell_length_b 7.874874
_cell_length_c 22.734711
_cell_angle_alpha 90.000000
_cell_angle_beta 90.000000
_cell_angle_gamma 90.000000
_cell_volume 1409.862195
_symmetry_space_group_name_H-M "P -4 21 C"
_symmetry_group_IT_number 114
_symmetry_cell_setting 'tetragonal'
loop_
_space_group_symop_operation_xyz
x,y,z
y,-x,-z
-x,-y,z
-y,x,-z
1/2+x,1/2-y,1/2-z
1/2-x,1/2+y,1/2-z
1/2-y,1/2-x,1/2+z
1/2+y,1/2+x,1/2+z
loop_
_atom_site_type_symbol
_atom_site_label
_atom_site_fract_x
_atom_site_fract_y
_atom_site_fract_z
Si Si1 0.500000 0.000000 0.113429
Si Si2 0.826210 0.064116 0.830418
Si Si3 0.000000 0.500000 0.588636
Si Si4 0.172801 0.558631 0.780591
Si Si5 0.414677 0.230849 0.507313
O O1 0.447993 0.848182 0.159093
O O2 0.357833 0.073514 0.070520
O O3 0.835663 0.253778 0.805692
O O4 0.660039 0.050788 0.871019
O O5 0.810107 0.956146 0.769759
O O6 0.000000 0.000000 0.860736
O O7 0.090595 0.629595 0.542307
O O8 0.000000 0.500000 0.748792
O O9 0.295763 0.393915 0.505591
#
# Coordination Sequence:
#
# PCOD9556171 Si02
#       5
#     4   8   4   8   8
#     4   9  21  42  62  94 141 171 228 288 338 417
#     4  12  25  43  71 104 141 191 228 298 360 430
#     4  11  25  40  70 110 143 175 258 282 354 447
#     4  10  23  44  67  99 143 180 236 283 354 434
#     4  10  22  41  70  99 132 185 233 291 359 414
#
# _framework density 22.697255999999999
#
# number of rings (size 3 to 8) (size 9 to 14) (size 15 to 20)
#    0.750    0.750    1.250    3.000    7.000    0.000 
#    0.000    0.000    0.000    6.750    0.000    0.000 
#    0.000    0.000    0.000    0.000    0.000    0.000 
#
# Total GULP energy -178264.891085 kJ/mol
# GULP energy per Si atom -5570.777846 kJ/mol
# Density = 2.264560 g / cm^3
# Si number density = 22.697256 Si / 1000 Ang^3
#
#
#
# Elastic Constant Matrix: (Units=GPa)
#
#
# Indices 1 2 3 4 5 6 
#
# 1 103.8200 21.6635 39.9512 0.0000 0.0000 0.0000
# 2 21.6635 103.8200 39.9512 0.0000 0.0000 0.0000
# 3 39.9512 39.9512 152.9111 0.0000 0.0000 0.0000
# 4 0.0000 0.0000 0.0000 27.4366 0.0000 0.0000
# 5 0.0000 0.0000 0.0000 0.0000 27.4366 0.0000
# 6 0.0000 0.0000 0.0000 0.0000 0.0000 18.3455
#
#
#
# Elastic Compliance Matrix: (Units=1/GPa)
#
#
# Indices 1 2 3 4 5 6 
#
# 1 0.010866 -0.001306 -0.002498 0.000000 0.000000 0.000000
# 2 -0.001306 0.010866 -0.002498 0.000000 0.000000 0.000000
# 3 -0.002498 -0.002498 0.007845 0.000000 0.000000 0.000000
# 4 0.000000 0.000000 0.000000 0.036448 0.000000 0.000000
# 5 0.000000 0.000000 0.000000 0.000000 0.036448 0.000000
# 6 0.000000 0.000000 0.000000 0.000000 0.000000 0.054509
#
#
# Mechanical properties :
#
#
# Convention : Reuss Voigt Hill
#
# Bulk Modulus (GPa) = 58.91553 62.63142 60.77347
# Shear Modulus (GPa) = 28.53204 31.90942 30.22073
#
# Velocity S-wave (km/s) = 3.54936 3.75356 3.65289
# Velocity P-wave (km/s) = 6.54300 6.81468 6.68022
#
# Compressibility (1/GPa) = 0.01697345
#
# Stress axis : x y z
#
# Youngs Moduli (GPa) = 92.03251 92.03251 127.47201
#
# Poissons Ratio (x) = 0.12021 0.31838
# Poissons Ratio (y) = 0.12021 0.31838
# Poissons Ratio (z) = 0.22986 0.22986
#
# Static dielectric constant tensor:
#      x y z
#    x 1.930590 0.000000 0.000000 
#    y 0.000000 1.930590 0.000000 
#    z 0.000000 0.000000 1.912280 
# 
# From -- ./inp_files/3309.got.cif
#   From: 2010.05.17/outbox.cif.g08.bks.cpg/sg114_2_cif.got.tgz:3309.got - 2010.05.20 11:04:54.
