data_PCOD9556982
_publ_section_title
;
Structure prediction by ZEFSAII (Michael W. Deem and Ramdas Pophale) SiO2 
 PCOD9556982
Probable space group: P -4 M 2
;
_chemical_formula_sum "Si O2"
_cell_formula_units_Z 44
_cell_length_a 9.149774
_cell_length_b 9.149774
_cell_length_c 29.594324
_cell_angle_alpha 90.000000
_cell_angle_beta 90.000000
_cell_angle_gamma 90.000000
_cell_volume 2477.588396
_symmetry_space_group_name_H-M "P -4 M 2"
_symmetry_group_IT_number 115
_symmetry_cell_setting 'tetragonal'
loop_
_space_group_symop_operation_xyz
x,y,z
y,-x,-z
-x,-y,z
-y,x,-z
y,x,-z
-y,-x,-z
-x,y,z
x,-y,z
loop_
_atom_site_type_symbol
_atom_site_label
_atom_site_fract_x
_atom_site_fract_y
_atom_site_fract_z
Si Si1 0.326191 0.825878 0.542681
Si Si2 0.331165 0.322098 0.719021
Si Si3 0.673959 0.673959 0.000000
Si Si4 0.827443 0.675523 0.627266
Si Si5 0.678285 0.331007 0.818319
Si Si6 0.678314 0.831816 0.908616
O O1 0.249439 0.750562 0.500000
O O2 0.500000 0.799412 0.541162
O O3 0.258559 0.757661 0.587952
O O4 0.301923 0.000000 0.541380
O O5 0.500000 0.276195 0.712268
O O6 0.331890 0.500000 0.721069
O O7 0.234096 0.280090 0.676358
O O8 0.278135 0.273727 0.768692
O O9 0.750379 0.726028 0.045862
O O10 0.697568 0.500000 0.995579
O O11 0.805323 0.500000 0.622518
O O12 0.000000 0.703859 0.623901
O O13 0.500000 0.329559 0.817622
O O14 0.723088 0.500000 0.822968
O O15 0.727588 0.242637 0.862055
O O16 0.500000 0.824638 0.908334
O O17 0.721273 0.000000 0.909933
#
# Coordination Sequence:
#
# PCOD9556982 Si02
#       6
#     8   8   4   8   8   8
#     4  11  24  40  58  81 107 136 172 211 252 299
#     4   8  14  26  46  71  98 129 164 201 240 283
#     4   9  16  26  42  63  86 114 148 185 228 282
#     4  10  20  34  54  80 108 138 172 208 248 295
#     4   8  13  23  41  64  89 119 156 196 239 285
#     4   9  16  25  39  62  90 116 146 190 239 280
#
# _framework density 17.759205000000001
#
# number of rings (size 3 to 8) (size 9 to 14) (size 15 to 20)
#    0.000    2.818    0.000    3.273    0.000    6.909 
#    0.000    0.909    0.000    4.636    0.000    5.091 
#    0.000    0.000    0.000    0.000    0.000    0.000 
#
# Total GULP energy -245274.090325 kJ/mol
# GULP energy per Si atom -5574.411144 kJ/mol
# Density = 1.771878 g / cm^3
# Si number density = 17.759205 Si / 1000 Ang^3
#
#
#
# Elastic Constant Matrix: (Units=GPa)
#
#
# Indices 1 2 3 4 5 6 
#
# 1 57.6185 52.1103 76.3414 0.0000 0.0000 0.0000
# 2 52.1103 57.6175 76.3410 0.0000 0.0000 0.0000
# 3 76.3414 76.3410 218.7917 0.0000 0.0000 0.0000
# 4 0.0000 0.0000 0.0000 -9.1818 0.0000 0.0000
# 5 0.0000 0.0000 0.0000 0.0000 -9.1811 0.0000
# 6 0.0000 0.0000 0.0000 0.0000 0.0000 13.4824
#
#
#
# Elastic Compliance Matrix: (Units=1/GPa)
#
#
# Indices 1 2 3 4 5 6 
#
# 1 0.099639 -0.081926 -0.006180 0.000000 0.000000 0.000000
# 2 -0.081926 0.099641 -0.006181 0.000000 0.000000 0.000000
# 3 -0.006180 -0.006181 0.008884 0.000000 0.000000 0.000000
# 4 0.000000 0.000000 0.000000 -0.108911 0.000000 0.000000
# 5 0.000000 0.000000 0.000000 0.000000 -0.108919 0.000000
# 6 0.000000 0.000000 0.000000 0.000000 0.000000 0.074171
#
#
# Mechanical properties :
#
#
# Convention : Reuss Voigt Hill
#
# Bulk Modulus (GPa) = 51.05123 82.62369 66.83746
# Shear Modulus (GPa) = 19.25978 7.63955 13.44967
#
# Velocity S-wave (km/s) = 3.29674 2.07631 2.75496
# Velocity P-wave (km/s) = 6.58028 7.23696 6.91642
#
# Compressibility (1/GPa) = 0.01958817
#
# Stress axis : x y z
#
# Youngs Moduli (GPa) = 10.03627 10.03604 112.56609
#
# Poissons Ratio (x) = 0.82221 0.69570
# Poissons Ratio (y) = 0.82223 0.69576
# Poissons Ratio (z) = 0.06203 0.06203
#
# Static dielectric constant tensor:
#      x y z
#    x 1.587660 0.000000 0.000000 
#    y 0.000000 1.587660 0.000000 
#    z 0.000000 0.000000 1.611060 
# 
# From -- ./inp_files/5701.got.cif
#   From: 2010.05.17/outbox.cif.g08.bks.cpg/sg115_3_cif.got.tgz:5701.got - 2010.05.20 11:07:42.
