data_PCOD9556801
_publ_section_title
;
Structure prediction by ZEFSAII (Michael W. Deem and Ramdas Pophale) SiO2 
 PCOD9556801
Probable space group: P -4 M 2
;
_chemical_formula_sum "Si O2"
_cell_formula_units_Z 44
_cell_length_a 15.200821
_cell_length_b 15.200821
_cell_length_c 10.780290
_cell_angle_alpha 90.000000
_cell_angle_beta 90.000000
_cell_angle_gamma 90.000000
_cell_volume 2490.947268
_symmetry_space_group_name_H-M "P -4 M 2"
_symmetry_group_IT_number 115
_symmetry_cell_setting 'tetragonal'
loop_
_space_group_symop_operation_xyz
x,y,z
y,-x,-z
-x,-y,z
-y,x,-z
y,x,-z
-y,-x,-z
-x,y,z
x,-y,z
loop_
_atom_site_type_symbol
_atom_site_label
_atom_site_fract_x
_atom_site_fract_y
_atom_site_fract_z
Si Si1 0.900125 0.249779 0.374193
Si Si2 0.399023 0.896052 0.169582
Si Si3 0.226695 0.099059 0.328881
Si Si4 0.743776 0.599097 0.028235
Si Si5 0.603163 0.396838 0.500000
Si Si6 0.599553 0.235495 0.676930
O O1 0.903446 0.233240 0.522042
O O2 0.847931 0.171401 0.305184
O O3 0.841082 0.335464 0.360875
O O4 0.000000 0.258981 0.329461
O O5 0.500000 0.881423 0.215570
O O6 0.321093 0.877754 0.268030
O O7 0.385946 0.832110 0.052064
O O8 0.393141 0.000000 0.137461
O O9 0.203633 0.000000 0.286748
O O10 0.713019 0.500000 0.996704
O O11 0.671301 0.671301 0.000000
O O12 0.758833 0.602268 0.175021
O O13 0.500000 0.386129 0.464281
O O14 0.622505 0.328233 0.610662
O O15 0.500000 0.214866 0.638402
#
# Coordination Sequence:
#
# PCOD9556801 Si02
#       6
#     8   8   8   8   4   8
#     4  10  20  33  50  73 103 137 169 206 256 305
#     4   9  18  34  56  78 100 130 169 214 261 306
#     4   9  18  33  53  77 102 129 169 215 254 302
#     4  10  21  35  51  73 101 133 169 208 251 300
#     4   9  18  34  56  78 102 135 170 208 256 305
#     4  10  21  35  51  75 105 135 171 209 248 304
#
# _framework density 17.663962999999999
#
# number of rings (size 3 to 8) (size 9 to 14) (size 15 to 20)
#    0.000    2.455    0.000    2.182    0.000    3.091 
#    0.000   11.818    0.000    0.000    0.000    0.000 
#    0.000    4.364    0.000    0.000    0.000    0.000 
#
# Total GULP energy -245153.753739 kJ/mol
# GULP energy per Si atom -5571.676221 kJ/mol
# Density = 1.762376 g / cm^3
# Si number density = 17.663963 Si / 1000 Ang^3
#
#
#
# Elastic Constant Matrix: (Units=GPa)
#
#
# Indices 1 2 3 4 5 6 
#
# 1 116.3782 94.3495 35.2066 0.0000 0.0000 0.0000
# 2 94.3495 116.3793 35.2062 0.0000 0.0000 0.0000
# 3 35.2066 35.2062 42.1209 0.0000 0.0000 0.0000
# 4 0.0000 0.0000 0.0000 24.3113 0.0000 0.0000
# 5 0.0000 0.0000 0.0000 0.0000 24.3115 0.0000
# 6 0.0000 0.0000 0.0000 0.0000 0.0000 25.4584
#
#
#
# Elastic Compliance Matrix: (Units=1/GPa)
#
#
# Indices 1 2 3 4 5 6 
#
# 1 0.025990 -0.019405 -0.005504 0.000000 0.000000 0.000000
# 2 -0.019405 0.025989 -0.005503 0.000000 0.000000 0.000000
# 3 -0.005504 -0.005503 0.032941 0.000000 0.000000 0.000000
# 4 0.000000 0.000000 0.000000 0.041133 0.000000 0.000000
# 5 0.000000 0.000000 0.000000 0.000000 0.041133 0.000000
# 6 0.000000 0.000000 0.000000 0.000000 0.000000 0.039280
#
#
# Mechanical properties :
#
#
# Convention : Reuss Voigt Hill
#
# Bulk Modulus (GPa) = 41.50058 67.15588 54.32823
# Shear Modulus (GPa) = 18.16060 22.15731 20.15896
#
# Velocity S-wave (km/s) = 3.20990 3.54556 3.38190
# Velocity P-wave (km/s) = 6.10602 7.40692 6.78771
#
# Compressibility (1/GPa) = 0.02409605
#
# Stress axis : x y z
#
# Youngs Moduli (GPa) = 38.47704 38.47781 30.35705
#
# Poissons Ratio (x) = 0.74666 0.16708
# Poissons Ratio (y) = 0.74664 0.16706
# Poissons Ratio (z) = 0.21177 0.21175
#
# Static dielectric constant tensor:
#      x y z
#    x 1.615500 0.000000 0.000000 
#    y 0.000000 1.615500 0.000000 
#    z 0.000000 0.000000 1.605250 
# 
# From -- ./inp_files/2857.got.cif
#   From: 2010.05.17/outbox.cif.g08.bks.cpg/sg115_2_cif.got.tgz:2857.got - 2010.05.20 11:07:42.
