data_PCOD9556388
_publ_section_title
;
Structure prediction by ZEFSAII (Michael W. Deem and Ramdas Pophale) SiO2 
 PCOD9556388
Probable space group: P -4 21 C
;
_chemical_formula_sum "Si O2"
_cell_formula_units_Z 60
_cell_length_a 11.334442
_cell_length_b 11.334442
_cell_length_c 22.668325
_cell_angle_alpha 90.000000
_cell_angle_beta 90.000000
_cell_angle_gamma 90.000000
_cell_volume 2912.190089
_symmetry_space_group_name_H-M "P -4 21 C"
_symmetry_group_IT_number 114
_symmetry_cell_setting 'tetragonal'
loop_
_space_group_symop_operation_xyz
x,y,z
y,-x,-z
-x,-y,z
-y,x,-z
1/2+x,1/2-y,1/2-z
1/2-x,1/2+y,1/2-z
1/2-y,1/2-x,1/2+z
1/2+y,1/2+x,1/2+z
loop_
_atom_site_type_symbol
_atom_site_label
_atom_site_fract_x
_atom_site_fract_y
_atom_site_fract_z
Si Si1 0.262928 0.107667 0.809954
Si Si2 0.695331 0.494447 0.496184
Si Si3 0.001924 0.270414 0.310958
Si Si4 0.871118 0.312516 0.884673
Si Si5 0.815266 0.605487 0.607475
Si Si6 0.933682 0.728229 0.786812
Si Si7 0.500000 0.500000 0.843803
Si Si8 0.480781 0.242161 0.849072
O O1 0.298652 0.087867 0.742276
O O2 0.131299 0.154143 0.808332
O O3 0.346602 0.201872 0.842121
O O4 0.280323 0.983926 0.841160
O O5 0.605306 0.391458 0.518658
O O6 0.774572 0.443130 0.443179
O O7 0.778749 0.541967 0.547605
O O8 0.942886 0.318589 0.371437
O O9 0.120574 0.341479 0.296026
O O10 0.012293 0.127708 0.311440
O O11 0.761339 0.223338 0.883860
O O12 0.958689 0.289954 0.830523
O O13 0.949613 0.644721 0.614007
O O14 0.967575 0.739674 0.718022
O O15 0.502843 0.372369 0.874785
#
# Coordination Sequence:
#
# PCOD9556388 Si02
#       8
#     8   8   8   8   8   8   4   8
#     4  12  24  37  59  91 134 173 220 271 321 389
#     4   9  20  42  67  98 130 166 221 281 332 390
#     4  12  24  40  58  94 135 176 221 265 330 391
#     4  11  23  40  66  95 129 172 215 278 332 391
#     4  11  23  40  66  95 129 172 215 278 332 391
#     4  12  24  37  59  91 134 173 220 271 321 389
#     4  12  24  40  64  88 133 185 216 268 328 402
#     4  12  24  40  58  94 135 176 221 265 330 391
#
# _framework density 20.603048999999999
#
# number of rings (size 3 to 8) (size 9 to 14) (size 15 to 20)
#    0.000    0.667    6.667    1.600    1.867    1.600 
#    0.000    2.667    0.000    0.000    0.000    3.733 
#    0.000    0.000    0.000    0.000    0.000    0.000 
#
# Total GULP energy -334915.365284 kJ/mol
# GULP energy per Si atom -5581.922755 kJ/mol
# Density = 2.055616 g / cm^3
# Si number density = 20.603049 Si / 1000 Ang^3
#
#
#
# Elastic Constant Matrix: (Units=GPa)
#
#
# Indices 1 2 3 4 5 6 
#
# 1 44.6853 -2.9479 26.4162 0.0000 0.0000 0.0000
# 2 -2.9479 44.6853 26.4162 0.0000 0.0000 0.0000
# 3 26.4162 26.4162 54.2911 0.0000 0.0000 0.0000
# 4 0.0000 0.0000 0.0000 21.4749 0.0000 0.0000
# 5 0.0000 0.0000 0.0000 0.0000 21.4749 0.0000
# 6 0.0000 0.0000 0.0000 0.0000 0.0000 22.5392
#
#
#
# Elastic Compliance Matrix: (Units=1/GPa)
#
#
# Indices 1 2 3 4 5 6 
#
# 1 0.041686 0.020693 -0.030352 0.000000 0.000000 0.000000
# 2 0.020693 0.041686 -0.030352 0.000000 0.000000 0.000000
# 3 -0.030352 -0.030352 0.047955 0.000000 0.000000 0.000000
# 4 0.000000 0.000000 0.000000 0.046566 0.000000 0.000000
# 5 0.000000 0.000000 0.000000 0.000000 0.046566 0.000000
# 6 0.000000 0.000000 0.000000 0.000000 0.000000 0.044367
#
#
# Mechanical properties :
#
#
# Convention : Reuss Voigt Hill
#
# Bulk Modulus (GPa) = 19.49040 27.04787 23.26913
# Shear Modulus (GPa) = 13.66305 19.34963 16.50634
#
# Velocity S-wave (km/s) = 2.57798 3.06790 2.83355
# Velocity P-wave (km/s) = 4.28273 5.07010 4.69296
#
# Compressibility (1/GPa) = 0.05130732
#
# Stress axis : x y z
#
# Youngs Moduli (GPa) = 23.98859 23.98859 20.85273
#
# Poissons Ratio (x) = -0.49639 0.63291
# Poissons Ratio (y) = -0.49639 0.63291
# Poissons Ratio (z) = 0.72809 0.72809
#
# Static dielectric constant tensor:
#      x y z
#    x 1.755940 0.000000 0.000000 
#    y 0.000000 1.755940 0.000000 
#    z 0.000000 0.000000 1.701780 
# 
# From -- ./inp_files/3239.got.cif
#   From: 2010.05.17/outbox.cif.g08.bks.cpg/sg114_2_cif.got.tgz:3239.got - 2010.05.20 11:04:54.
