data_PCOD9556540
_publ_section_title
;
Structure prediction by ZEFSAII (Michael W. Deem and Ramdas Pophale) SiO2 
 PCOD9556540
Probable space group: P -4 M 2
;
_chemical_formula_sum "Si O2"
_cell_formula_units_Z 56
_cell_length_a 15.362833
_cell_length_b 15.362833
_cell_length_c 14.341978
_cell_angle_alpha 90.000000
_cell_angle_beta 90.000000
_cell_angle_gamma 90.000000
_cell_volume 3384.945427
_symmetry_space_group_name_H-M "P -4 M 2"
_symmetry_group_IT_number 115
_symmetry_cell_setting 'tetragonal'
loop_
_space_group_symop_operation_xyz
x,y,z
y,-x,-z
-x,-y,z
-y,x,-z
y,x,-z
-y,-x,-z
-x,y,z
x,-y,z
loop_
_atom_site_type_symbol
_atom_site_label
_atom_site_fract_x
_atom_site_fract_y
_atom_site_fract_z
Si Si1 0.637165 0.901417 0.993931
Si Si2 0.595375 0.374505 0.108581
Si Si3 0.174505 0.096275 0.078569
Si Si4 0.594654 0.180325 0.180559
Si Si5 0.783223 0.404860 0.183290
Si Si6 0.898740 0.101429 0.611905
Si Si7 0.210980 0.785114 0.749207
O O1 0.738453 0.887135 0.017987
O O2 0.597535 0.889090 0.097031
O O3 0.622981 0.000000 0.961063
O O4 0.606675 0.834741 0.914821
O O5 0.500000 0.403401 0.141978
O O6 0.598117 0.271064 0.123845
O O7 0.680522 0.407617 0.160316
O O8 0.603666 0.396335 0.000000
O O9 0.171227 0.166491 0.159865
O O10 0.180368 0.000000 0.120208
O O11 0.101666 0.101666 0.000000
O O12 0.500000 0.175172 0.228826
O O13 0.682590 0.183293 0.241990
O O14 0.808348 0.500000 0.223057
O O15 0.795832 0.315527 0.241592
O O16 0.891832 0.108169 0.500000
O O17 0.832840 0.166346 0.662699
O O18 0.000000 0.120049 0.636724
O O19 0.881611 0.000000 0.637278
#
# Coordination Sequence:
#
# PCOD9556540 Si02
#       7
#     8   8   8   8   8   8   8
#     4  10  19  30  42  57  87 134 180 213 239 278
#     4  10  18  28  43  63  89 124 172 229 272 292
#     4  10  19  31  46  66  95 130 165 201 249 299
#     4   9  18  30  45  66  96 134 175 213 247 290
#     4  11  21  31  45  66  97 137 177 211 245 294
#     4   9  19  38  64  89 105 120 153 204 263 320
#     4  10  20  33  53  73 103 132 165 209 254 301
#
# _framework density 16.543839999999999
#
# number of rings (size 3 to 8) (size 9 to 14) (size 15 to 20)
#    0.000    2.143    2.857    1.714    0.000    4.000 
#    0.000    0.000    0.000    0.857    0.000    2.000 
#    0.000    0.000    0.000    4.000    0.000    0.000 
#
# Total GULP energy -311828.800074 kJ/mol
# GULP energy per Si atom -5568.371430 kJ/mol
# Density = 1.650619 g / cm^3
# Si number density = 16.543840 Si / 1000 Ang^3
#
#
#
# Elastic Constant Matrix: (Units=GPa)
#
#
# Indices 1 2 3 4 5 6 
#
# 1 88.1636 38.7621 33.2075 0.0000 0.0000 0.0000
# 2 38.7621 88.1633 33.2071 0.0000 0.0000 0.0000
# 3 33.2075 33.2071 36.8896 0.0000 0.0000 0.0000
# 4 0.0000 0.0000 0.0000 1.3191 0.0000 0.0000
# 5 0.0000 0.0000 0.0000 0.0000 1.3157 0.0000
# 6 0.0000 0.0000 0.0000 0.0000 0.0000 5.8041
#
#
#
# Elastic Compliance Matrix: (Units=1/GPa)
#
#
# Indices 1 2 3 4 5 6 
#
# 1 0.017568 -0.002674 -0.013408 0.000000 0.000000 0.000000
# 2 -0.002674 0.017568 -0.013407 0.000000 0.000000 0.000000
# 3 -0.013408 -0.013407 0.051246 0.000000 0.000000 0.000000
# 4 0.000000 0.000000 0.000000 0.758118 0.000000 0.000000
# 5 0.000000 0.000000 0.000000 0.000000 0.760027 0.000000
# 6 0.000000 0.000000 0.000000 0.000000 0.000000 0.172292
#
#
# Mechanical properties :
#
#
# Convention : Reuss Voigt Hill
#
# Bulk Modulus (GPa) = 36.49009 47.06333 41.77671
# Shear Modulus (GPa) = 2.71013 8.89043 5.80028
#
# Velocity S-wave (km/s) = 1.28129 2.32067 1.87446
# Velocity P-wave (km/s) = 4.92884 5.97412 5.47647
#
# Compressibility (1/GPa) = 0.02740470
#
# Stress axis : x y z
#
# Youngs Moduli (GPa) = 56.92063 56.92109 19.51371
#
# Poissons Ratio (x) = 0.15221 0.26163
# Poissons Ratio (y) = 0.15221 0.26162
# Poissons Ratio (z) = 0.76317 0.76315
#
# Static dielectric constant tensor:
#      x y z
#    x 1.632090 0.000000 0.000000 
#    y 0.000000 1.632090 0.000000 
#    z 0.000000 0.000000 1.511350 
# 
# From -- ./inp_files/3864.got.cif
#   From: 2010.05.17/outbox.cif.g08.bks.cpg/sg115_2_cif.got.tgz:3864.got - 2010.05.20 11:07:42.
