data_PCOD9556973
_publ_section_title
;
Structure prediction by ZEFSAII (Michael W. Deem and Ramdas Pophale) SiO2 
 PCOD9556973
Probable space group: P -4 M 2
;
_chemical_formula_sum "Si O2"
_cell_formula_units_Z 48
_cell_length_a 9.205201
_cell_length_b 9.205201
_cell_length_c 31.741324
_cell_angle_alpha 90.000000
_cell_angle_beta 90.000000
_cell_angle_gamma 90.000000
_cell_volume 2689.624116
_symmetry_space_group_name_H-M "P -4 M 2"
_symmetry_group_IT_number 115
_symmetry_cell_setting 'tetragonal'
loop_
_space_group_symop_operation_xyz
x,y,z
y,-x,-z
-x,-y,z
-y,x,-z
y,x,-z
-y,-x,-z
-x,y,z
x,-y,z
loop_
_atom_site_type_symbol
_atom_site_label
_atom_site_fract_x
_atom_site_fract_y
_atom_site_fract_z
Si Si1 0.171716 0.174042 0.670713
Si Si2 0.826817 0.173184 0.500000
Si Si3 0.176887 0.332841 0.414736
Si Si4 0.171994 0.826375 0.922096
Si Si5 0.672644 0.327357 0.000000
Si Si6 0.672260 0.327043 0.251584
Si Si7 0.827401 0.671763 0.164838
O O1 0.247684 0.221914 0.627222
O O2 0.242164 0.253198 0.710400
O O3 0.000000 0.200734 0.668512
O O4 0.193824 0.000000 0.675040
O O5 0.744829 0.222520 0.542097
O O6 0.000000 0.195604 0.505449
O O7 0.223610 0.500000 0.413258
O O8 0.000000 0.330371 0.415003
O O9 0.238199 0.787445 0.876609
O O10 0.000000 0.798837 0.923299
O O11 0.194613 0.000000 0.927983
O O12 0.252440 0.741176 0.958996
O O13 0.500000 0.301823 0.998554
O O14 0.500000 0.303149 0.251306
O O15 0.699189 0.500000 0.256975
O O16 0.741102 0.284888 0.206658
O O17 0.801501 0.500000 0.157065
O O18 0.000000 0.690555 0.172337
#
# Coordination Sequence:
#
# PCOD9556973 Si02
#       7
#     8   4   8   8   4   8   8
#     4  10  20  34  54  79 105 136 177 222 265 311
#     4   9  16  28  48  73 100 128 162 207 256 306
#     4   9  17  30  50  75 101 131 169 212 258 310
#     4  10  21  37  58  84 112 141 176 220 268 316
#     4  11  24  39  56  80 110 145 184 223 264 314
#     4  10  21  36  54  78 109 143 177 216 264 316
#     4   9  18  34  56  80 108 144 182 218 259 311
#
# _framework density 17.846361000000002
#
# number of rings (size 3 to 8) (size 9 to 14) (size 15 to 20)
#    0.000    2.333    0.000    2.500    0.000    8.000 
#    0.000    4.167    0.000    3.250    0.000    0.000 
#    0.000    0.000    0.000    0.000    0.000    0.000 
#
# Total GULP energy -267968.873704 kJ/mol
# GULP energy per Si atom -5582.684869 kJ/mol
# Density = 1.780574 g / cm^3
# Si number density = 17.846361 Si / 1000 Ang^3
#
#
#
# Elastic Constant Matrix: (Units=GPa)
#
#
# Indices 1 2 3 4 5 6 
#
# 1 76.3956 71.3368 102.8930 0.0000 0.0000 0.0000
# 2 71.3368 76.3957 102.8931 0.0000 0.0000 0.0000
# 3 102.8930 102.8931 222.8335 0.0000 0.0000 0.0000
# 4 0.0000 0.0000 0.0000 259.4127 0.0000 0.0000
# 5 0.0000 0.0000 0.0000 0.0000 259.4016 0.0000
# 6 0.0000 0.0000 0.0000 0.0000 0.0000 21.6678
#
#
#
# Elastic Compliance Matrix: (Units=1/GPa)
#
#
# Indices 1 2 3 4 5 6 
#
# 1 0.108322 -0.089350 -0.008760 0.000000 0.000000 0.000000
# 2 -0.089350 0.108322 -0.008760 0.000000 0.000000 0.000000
# 3 -0.008760 -0.008760 0.012577 0.000000 0.000000 0.000000
# 4 0.000000 0.000000 0.000000 0.003855 0.000000 0.000000
# 5 0.000000 0.000000 0.000000 0.000000 0.003855 0.000000
# 6 0.000000 0.000000 0.000000 0.000000 0.000000 0.046151
#
#
# Mechanical properties :
#
#
# Convention : Reuss Voigt Hill
#
# Bulk Modulus (GPa) = 64.59854 103.31892 83.95873
# Shear Modulus (GPa) = 9.96050 114.66322 62.31186
#
# Velocity S-wave (km/s) = 2.36503 8.02432 5.91536
# Velocity P-wave (km/s) = 6.61313 11.99467 9.68518
#
# Compressibility (1/GPa) = 0.01548023
#
# Stress axis : x y z
#
# Youngs Moduli (GPa) = 9.23177 9.23176 79.50712
#
# Poissons Ratio (x) = 0.82486 0.69648
# Poissons Ratio (y) = 0.82486 0.69649
# Poissons Ratio (z) = 0.08087 0.08087
#
# Static dielectric constant tensor:
#      x y z
#    x 1.595380 0.000000 0.000000 
#    y 0.000000 1.595380 0.000000 
#    z 0.000000 0.000000 1.577630 
# 
# From -- ./inp_files/6229.got.cif
#   From: 2010.05.17/outbox.cif.g08.bks.cpg/sg115_4_cif.got.tgz:6229.got - 2010.05.20 11:07:42.
