data_PCOD9556871
_publ_section_title
;
Structure prediction by ZEFSAII (Michael W. Deem and Ramdas Pophale) SiO2 
 PCOD9556871
Probable space group: P -4 M 2
;
_chemical_formula_sum "Si O2"
_cell_formula_units_Z 40
_cell_length_a 9.303206
_cell_length_b 9.303206
_cell_length_c 26.439389
_cell_angle_alpha 90.000000
_cell_angle_beta 90.000000
_cell_angle_gamma 90.000000
_cell_volume 2288.319649
_symmetry_space_group_name_H-M "P -4 M 2"
_symmetry_group_IT_number 115
_symmetry_cell_setting 'tetragonal'
loop_
_space_group_symop_operation_xyz
x,y,z
y,-x,-z
-x,-y,z
-y,x,-z
y,x,-z
-y,-x,-z
-x,y,z
x,-y,z
loop_
_atom_site_type_symbol
_atom_site_label
_atom_site_fract_x
_atom_site_fract_y
_atom_site_fract_z
Si Si1 0.168669 0.827142 0.648056
Si Si2 0.327754 0.330573 0.442174
Si Si3 0.829365 0.829101 0.149268
Si Si4 0.665274 0.175014 0.749333
Si Si5 0.828725 0.670354 0.954484
O O1 0.238702 0.753139 0.599546
O O2 0.249639 0.779721 0.699199
O O3 0.000000 0.794608 0.651730
O O4 0.184388 0.000000 0.643894
O O5 0.290174 0.290174 0.500000
O O6 0.500000 0.314586 0.437162
O O7 0.294578 0.500000 0.435502
O O8 0.781147 0.743267 0.198910
O O9 0.743314 0.789216 0.098892
O O10 0.000000 0.803129 0.141329
O O11 0.811474 0.000000 0.158093
O O12 0.500000 0.221933 0.747750
O O13 0.666947 0.000000 0.749367
O O14 0.803534 0.500000 0.952835
O O15 0.000000 0.694468 0.961866
O O16 0.743152 0.743152 0.000000
#
# Coordination Sequence:
#
# PCOD9556871 Si02
#       5
#     8   8   8   8   8
#     4  10  20  33  51  77 107 136 169 211 256 302
#     4   9  19  36  55  74  99 133 172 212 255 306
#     4   9  17  31  52  75  99 129 167 212 259 305
#     4   9  17  30  50  75 101 132 172 214 255 301
#     4  10  21  36  54  77 105 137 173 212 255 305
#
# _framework density 17.480074999999999
#
# number of rings (size 3 to 8) (size 9 to 14) (size 15 to 20)
#    0.000    2.600    0.000    2.400    0.000    6.800 
#    0.000    6.000    0.000    3.600    0.000    0.000 
#    0.000    0.000    0.000    0.000    0.000    0.000 
#
# Total GULP energy -223167.975934 kJ/mol
# GULP energy per Si atom -5579.199398 kJ/mol
# Density = 1.744029 g / cm^3
# Si number density = 17.480075 Si / 1000 Ang^3
#
#
#
# Elastic Constant Matrix: (Units=GPa)
#
#
# Indices 1 2 3 4 5 6 
#
# 1 69.4077 57.7328 96.1452 0.0000 0.0000 0.0000
# 2 57.7328 69.4077 96.1452 0.0000 0.0000 0.0000
# 3 96.1452 96.1452 212.9209 0.0000 0.0000 0.0000
# 4 0.0000 0.0000 0.0000 -87.5168 0.0000 0.0000
# 5 0.0000 0.0000 0.0000 0.0000 -87.5168 0.0000
# 6 0.0000 0.0000 0.0000 0.0000 0.0000 22.4364
#
#
#
# Elastic Compliance Matrix: (Units=1/GPa)
#
#
# Indices 1 2 3 4 5 6 
#
# 1 0.055231 -0.030424 -0.011202 0.000000 0.000000 0.000000
# 2 -0.030424 0.055231 -0.011202 0.000000 0.000000 0.000000
# 3 -0.011202 -0.011202 0.014813 0.000000 0.000000 0.000000
# 4 0.000000 0.000000 0.000000 -0.011426 0.000000 0.000000
# 5 0.000000 0.000000 0.000000 0.000000 -0.011426 0.000000
# 6 0.000000 0.000000 0.000000 0.000000 0.000000 0.044570
#
#
# Mechanical properties :
#
#
# Convention : Reuss Voigt Hill
#
# Bulk Modulus (GPa) = 50.96794 94.64250 72.80522
# Shear Modulus (GPa) = 19.29118 -23.73858 -2.22370
#
# Velocity S-wave (km/s) = 3.32567 -3.68915 -1.12911
# Velocity P-wave (km/s) = 6.63082 6.00951 6.32779
#
# Compressibility (1/GPa) = 0.01962018
#
# Stress axis : x y z
#
# Youngs Moduli (GPa) = 18.10590 18.10590 67.50872
#
# Poissons Ratio (x) = 0.55085 0.75621
# Poissons Ratio (y) = 0.55085 0.75621
# Poissons Ratio (z) = 0.20282 0.20282
#
# Static dielectric constant tensor:
#      x y z
#    x 1.580850 0.000000 0.000000 
#    y 0.000000 1.580850 0.000000 
#    z 0.000000 0.000000 1.567280 
# 
# From -- ./inp_files/5098.got.cif
#   From: 2010.05.17/outbox.cif.g08.bks.cpg/sg115_3_cif.got.tgz:5098.got - 2010.05.20 11:07:42.
