data_PCOD9556858
_publ_section_title
;
Structure prediction by ZEFSAII (Michael W. Deem and Ramdas Pophale) SiO2 
 PCOD9556858
Probable space group: P -4 M 2
;
_chemical_formula_sum "Si O2"
_cell_formula_units_Z 40
_cell_length_a 9.266487
_cell_length_b 9.266487
_cell_length_c 26.536045
_cell_angle_alpha 90.000000
_cell_angle_beta 90.000000
_cell_angle_gamma 90.000000
_cell_volume 2278.591309
_symmetry_space_group_name_H-M "P -4 M 2"
_symmetry_group_IT_number 115
_symmetry_cell_setting 'tetragonal'
loop_
_space_group_symop_operation_xyz
x,y,z
y,-x,-z
-x,-y,z
-y,x,-z
y,x,-z
-y,-x,-z
-x,y,z
x,-y,z
loop_
_atom_site_type_symbol
_atom_site_label
_atom_site_fract_x
_atom_site_fract_y
_atom_site_fract_z
Si Si1 0.666522 0.675676 0.944440
Si Si2 0.172996 0.330086 0.247945
Si Si3 0.830969 0.673882 0.843680
Si Si4 0.828960 0.171352 0.649020
Si Si5 0.671012 0.171921 0.454264
O O1 0.500000 0.721981 0.937423
O O2 0.665476 0.500000 0.945971
O O3 0.761956 0.719767 0.897051
O O4 0.720160 0.720160 0.000000
O O5 0.204964 0.500000 0.247959
O O6 0.252603 0.252043 0.202221
O O7 0.214015 0.258760 0.301321
O O8 0.000000 0.311666 0.242438
O O9 0.815950 0.500000 0.840091
O O10 0.000000 0.709003 0.841856
O O11 0.786482 0.257557 0.599022
O O12 0.000000 0.194648 0.657927
O O13 0.807458 0.000000 0.640405
O O14 0.743724 0.256276 0.500000
O O15 0.500000 0.196428 0.453027
O O16 0.696440 0.000000 0.460925
#
# Coordination Sequence:
#
# PCOD9556858 Si02
#       5
#     8   8   8   8   8
#     4   8  14  27  48  71  96 130 171 212 253 299
#     4  10  21  36  54  77 104 135 172 213 258 307
#     4  10  20  33  51  76 105 137 172 210 254 305
#     4   9  18  34  55  76 101 136 175 213 254 303
#     4  10  21  36  55  80 109 140 174 212 254 302
#
# _framework density 17.554707000000001
#
# number of rings (size 3 to 8) (size 9 to 14) (size 15 to 20)
#    0.000    2.600    0.000    2.400    0.000    5.200 
#    0.000    5.000    0.000    3.600    0.000    0.000 
#    0.000    0.000    0.000    0.000    0.000    0.000 
#
# Total GULP energy -223158.292700 kJ/mol
# GULP energy per Si atom -5578.957317 kJ/mol
# Density = 1.751475 g / cm^3
# Si number density = 17.554707 Si / 1000 Ang^3
#
#
#
# Elastic Constant Matrix: (Units=GPa)
#
#
# Indices 1 2 3 4 5 6 
#
# 1 65.0559 54.8950 92.5970 0.0000 0.0000 0.0000
# 2 54.8950 65.0559 92.5970 0.0000 0.0000 0.0000
# 3 92.5970 92.5970 221.7098 0.0000 0.0000 0.0000
# 4 0.0000 0.0000 0.0000 35.6994 0.0000 0.0000
# 5 0.0000 0.0000 0.0000 0.0000 35.6994 0.0000
# 6 0.0000 0.0000 0.0000 0.0000 0.0000 22.1846
#
#
#
# Elastic Compliance Matrix: (Units=1/GPa)
#
#
# Indices 1 2 3 4 5 6 
#
# 1 0.060944 -0.037473 -0.009803 0.000000 0.000000 0.000000
# 2 -0.037473 0.060944 -0.009803 0.000000 0.000000 0.000000
# 3 -0.009803 -0.009803 0.012699 0.000000 0.000000 0.000000
# 4 0.000000 0.000000 0.000000 0.028012 0.000000 0.000000
# 5 0.000000 0.000000 0.000000 0.000000 0.028012 0.000000
# 6 0.000000 0.000000 0.000000 0.000000 0.000000 0.045076
#
#
# Mechanical properties :
#
#
# Convention : Reuss Voigt Hill
#
# Bulk Modulus (GPa) = 48.94690 92.44439 70.69565
# Shear Modulus (GPa) = 14.01922 26.16552 20.09237
#
# Velocity S-wave (km/s) = 2.82902 3.86490 3.38680
# Velocity P-wave (km/s) = 6.21403 8.52594 7.46009
#
# Compressibility (1/GPa) = 0.02043030
#
# Stress axis : x y z
#
# Youngs Moduli (GPa) = 16.40848 16.40848 78.74803
#
# Poissons Ratio (x) = 0.61487 0.77196
# Poissons Ratio (y) = 0.61487 0.77196
# Poissons Ratio (z) = 0.16085 0.16085
#
# Static dielectric constant tensor:
#      x y z
#    x 1.586160 0.000000 0.000000 
#    y 0.000000 1.586160 0.000000 
#    z 0.000000 0.000000 1.576890 
# 
# From -- ./inp_files/5091.got.cif
#   From: 2010.05.17/outbox.cif.g08.bks.cpg/sg115_3_cif.got.tgz:5091.got - 2010.05.20 11:07:42.
