data_PCOD9556725
_publ_section_title
;
Structure prediction by ZEFSAII (Michael W. Deem and Ramdas Pophale) SiO2 
 PCOD9556725
Probable space group: P -4 M 2
;
_chemical_formula_sum "Si O2"
_cell_formula_units_Z 48
_cell_length_a 9.248966
_cell_length_b 9.248966
_cell_length_c 32.371008
_cell_angle_alpha 90.000000
_cell_angle_beta 90.000000
_cell_angle_gamma 90.000000
_cell_volume 2769.125182
_symmetry_space_group_name_H-M "P -4 M 2"
_symmetry_group_IT_number 115
_symmetry_cell_setting 'tetragonal'
loop_
_space_group_symop_operation_xyz
x,y,z
y,-x,-z
-x,-y,z
-y,x,-z
y,x,-z
-y,-x,-z
-x,y,z
x,-y,z
loop_
_atom_site_type_symbol
_atom_site_label
_atom_site_fract_x
_atom_site_fract_y
_atom_site_fract_z
Si Si1 0.673378 0.326623 0.000000
Si Si2 0.671702 0.172176 0.583492
Si Si3 0.170223 0.173029 0.332607
Si Si4 0.325856 0.169711 0.827040
Si Si5 0.676225 0.668577 0.910158
Si Si6 0.327987 0.672014 0.500000
Si Si7 0.329811 0.826411 0.248511
O O1 0.726099 0.274108 0.955199
O O2 0.500000 0.304299 0.001337
O O3 0.500000 0.198534 0.587912
O O4 0.751467 0.219484 0.625197
O O5 0.722025 0.250169 0.541775
O O6 0.693680 0.000000 0.579114
O O7 0.258953 0.217171 0.292169
O O8 0.000000 0.207229 0.326417
O O9 0.182828 0.000000 0.337216
O O10 0.500000 0.185812 0.824068
O O11 0.278978 0.239529 0.870637
O O12 0.251643 0.251088 0.789182
O O13 0.291974 0.000000 0.825953
O O14 0.500000 0.670331 0.911345
O O15 0.718536 0.500000 0.905292
O O16 0.500000 0.696298 0.495928
O O17 0.500000 0.794324 0.248192
O O18 0.311488 0.000000 0.244554
#
# Coordination Sequence:
#
# PCOD9556725 Si02
#       7
#     4   8   8   8   8   4   8
#     4   7  10  18  36  62  88 117 154 194 238 283
#     4   9  18  32  49  70  96 125 157 193 232 275
#     4   9  18  33  51  70  94 124 156 192 237 287
#     4  10  20  32  48  72 100 130 164 200 240 288
#     4   8  13  23  41  65  92 121 156 199 242 282
#     4   9  18  32  48  67  94 126 156 187 228 276
#     4  10  21  36  53  73  97 126 162 203 246 293
#
# _framework density 17.333995999999999
#
# number of rings (size 3 to 8) (size 9 to 14) (size 15 to 20)
#    0.000    3.000    0.000    2.000    0.000    4.000 
#    0.000    1.667    0.000    1.000    0.000    4.667 
#    0.000    0.000    0.000    0.000    0.000    0.000 
#
# Total GULP energy -267430.156692 kJ/mol
# GULP energy per Si atom -5571.461598 kJ/mol
# Density = 1.729454 g / cm^3
# Si number density = 17.333996 Si / 1000 Ang^3
#
#
#
# Elastic Constant Matrix: (Units=GPa)
#
#
# Indices 1 2 3 4 5 6 
#
# 1 41.2172 36.4594 73.3867 0.0000 0.0000 0.0000
# 2 36.4594 41.2171 73.3867 0.0000 0.0000 0.0000
# 3 73.3867 73.3867 234.1137 0.0000 0.0000 0.0000
# 4 0.0000 0.0000 0.0000 199.2095 0.0000 0.0000
# 5 0.0000 0.0000 0.0000 0.0000 199.1769 0.0000
# 6 0.0000 0.0000 0.0000 0.0000 0.0000 17.4598
#
#
#
# Elastic Compliance Matrix: (Units=1/GPa)
#
#
# Indices 1 2 3 4 5 6 
#
# 1 0.120880 -0.089302 -0.009898 0.000000 0.000000 0.000000
# 2 -0.089302 0.120880 -0.009899 0.000000 0.000000 0.000000
# 3 -0.009898 -0.009899 0.010477 0.000000 0.000000 0.000000
# 4 0.000000 0.000000 0.000000 0.005020 0.000000 0.000000
# 5 0.000000 0.000000 0.000000 0.000000 0.005021 0.000000
# 6 0.000000 0.000000 0.000000 0.000000 0.000000 0.057274
#
#
# Mechanical properties :
#
#
# Convention : Reuss Voigt Hill
#
# Bulk Modulus (GPa) = 29.37872 75.89039 52.63455
# Shear Modulus (GPa) = 9.10586 92.05693 50.58139
#
# Velocity S-wave (km/s) = 2.29447 7.29541 5.40775
# Velocity P-wave (km/s) = 4.89947 10.71636 8.33202
#
# Compressibility (1/GPa) = 0.03403824
#
# Stress axis : x y z
#
# Youngs Moduli (GPa) = 8.27269 8.27265 95.44620
#
# Poissons Ratio (x) = 0.73877 0.94477
# Poissons Ratio (y) = 0.73877 0.94478
# Poissons Ratio (z) = 0.08189 0.08189
#
# Static dielectric constant tensor:
#      x y z
#    x 1.578340 0.000000 0.000000 
#    y 0.000000 1.578340 0.000000 
#    z 0.000000 0.000000 1.592110 
# 
# From -- ./inp_files/6140.got.cif
#   From: 2010.05.17/outbox.cif.g08.bks.cpg/sg115_4_cif.got.tgz:6140.got - 2010.05.20 11:07:42.
