data_PCOD9556519
_publ_section_title
;
Structure prediction by ZEFSAII (Michael W. Deem and Ramdas Pophale) SiO2 
 PCOD9556519
Probable space group: P -4 21 C
;
_chemical_formula_sum "Si O2"
_cell_formula_units_Z 44
_cell_length_a 9.000000
_cell_length_b 9.000000
_cell_length_c 30.000000
_cell_angle_alpha 90.000000
_cell_angle_beta 90.000000
_cell_angle_gamma 90.000000
_cell_volume 2430.000000
_symmetry_space_group_name_H-M "P -4 21 C"
_symmetry_group_IT_number 114
_symmetry_cell_setting 'tetragonal'
loop_
_space_group_symop_operation_xyz
x,y,z
y,-x,-z
-x,-y,z
-y,x,-z
1/2+x,1/2-y,1/2-z
1/2-x,1/2+y,1/2-z
1/2-y,1/2-x,1/2+z
1/2+y,1/2+x,1/2+z
loop_
_atom_site_type_symbol
_atom_site_label
_atom_site_fract_x
_atom_site_fract_y
_atom_site_fract_z
Si Si1 0.297560 0.857609 0.146335
Si Si2 0.494111 0.177615 0.387064
Si Si3 0.807171 0.826190 0.189651
Si Si4 0.520804 0.746636 0.492897
Si Si5 0.505896 0.324744 0.218023
Si Si6 0.500000 0.000000 0.067606
O O1 0.387473 0.763640 0.183553
O O2 0.157737 0.760583 0.128702
O O3 0.238502 0.008701 0.171275
O O4 0.405454 0.899360 0.103801
O O5 0.621458 0.247006 0.354324
O O6 0.504210 0.202195 0.441146
O O7 0.500000 0.000000 0.379658
O O8 0.657804 0.747448 0.209560
O O9 0.926046 0.819596 0.231133
O O10 0.655642 0.627854 0.493483
O O11 0.551296 0.872846 0.531124
O O12 0.500000 0.500000 0.206747
#
# Coordination Sequence:
#
# PCOD9556519 Si02
#       6
#     8   8   8   8   8   4
#     4  12  25  46  70 100 139 189 234 288 355 430
#     4  12  25  43  68 102 136 178 233 292 349 416
#     4  12  25  44  69 100 136 184 235 285 351 433
#     4  11  24  41  70  99 134 180 232 286 348 422
#     4  12  25  43  67 100 138 179 227 290 353 418
#     4  12  22  46  70 100 140 180 236 296 352 424
#
# _framework density 18.106995999999999
#
# number of rings (size 3 to 8) (size 9 to 14) (size 15 to 20)
#    0.000    0.182    4.545    6.000    2.545    1.455 
#    0.000    0.000    0.000    0.000    0.000    0.000 
#    0.000    0.000    0.000    0.000    0.000    0.000 
#
# Total GULP energy -245554.059633 kJ/mol
# GULP energy per Si atom -5580.774083 kJ/mol
# Density = 1.806578 g / cm^3
# Si number density = 18.106996 Si / 1000 Ang^3
#
#
#
# Elastic Constant Matrix: (Units=GPa)
#
#
# Indices 1 2 3 4 5 6 
#
# 1 144.0369 60.9142 60.5669 0.0000 0.0000 0.0000
# 2 60.9142 144.0369 60.5669 0.0000 0.0000 0.0000
# 3 60.5669 60.5669 179.9286 0.0000 0.0000 0.0000
# 4 0.0000 0.0000 0.0000 49.2271 0.0000 0.0000
# 5 0.0000 0.0000 0.0000 0.0000 49.2271 0.0000
# 6 0.0000 0.0000 0.0000 0.0000 0.0000 41.4341
#
#
#
# Elastic Compliance Matrix: (Units=1/GPa)
#
#
# Indices 1 2 3 4 5 6 
#
# 1 0.009061 -0.002970 -0.002050 0.000000 0.000000 0.000000
# 2 -0.002970 0.009061 -0.002050 0.000000 0.000000 0.000000
# 3 -0.002050 -0.002050 0.006938 0.000000 0.000000 0.000000
# 4 0.000000 0.000000 0.000000 0.020314 0.000000 0.000000
# 5 0.000000 0.000000 0.000000 0.000000 0.020314 0.000000
# 6 0.000000 0.000000 0.000000 0.000000 0.000000 0.024135
#
#
# Mechanical properties :
#
#
# Convention : Reuss Voigt Hill
#
# Bulk Modulus (GPa) = 91.58491 92.45537 92.02014
# Shear Modulus (GPa) = 46.46725 47.04128 46.75426
#
# Velocity S-wave (km/s) = 5.07132 5.10255 5.08696
# Velocity P-wave (km/s) = 9.21850 9.26748 9.24302
#
# Compressibility (1/GPa) = 0.01091883
#
# Stress axis : x y z
#
# Youngs Moduli (GPa) = 110.36644 110.36644 144.13124
#
# Poissons Ratio (x) = 0.32775 0.29552
# Poissons Ratio (y) = 0.32775 0.29552
# Poissons Ratio (z) = 0.22629 0.22629
#
# Static dielectric constant tensor:
#      x y z
#    x 1.633980 0.000000 0.000000 
#    y 0.000000 1.633980 0.000000 
#    z 0.000000 0.000000 1.616660 
# 
# From -- ./inp_files/3840.got.cif
#   From: 2010.05.17/outbox.ucp.g08.bks.cvg/sg114_2_cif.got.tgz:3840.got - 2010.06.11 11:33:27.
