data_PCOD9556908
_publ_section_title
;
Structure prediction by ZEFSAII (Michael W. Deem and Ramdas Pophale) SiO2 
 PCOD9556908
Probable space group: P -4 M 2
;
_chemical_formula_sum "Si O2"
_cell_formula_units_Z 56
_cell_length_a 15.078198
_cell_length_b 15.078198
_cell_length_c 12.976453
_cell_angle_alpha 90.000000
_cell_angle_beta 90.000000
_cell_angle_gamma 90.000000
_cell_volume 2950.223255
_symmetry_space_group_name_H-M "P -4 M 2"
_symmetry_group_IT_number 115
_symmetry_cell_setting 'tetragonal'
loop_
_space_group_symop_operation_xyz
x,y,z
y,-x,-z
-x,-y,z
-y,x,-z
y,x,-z
-y,-x,-z
-x,y,z
x,-y,z
loop_
_atom_site_type_symbol
_atom_site_label
_atom_site_fract_x
_atom_site_fract_y
_atom_site_fract_z
Si Si1 0.292530 0.892181 0.861388
Si Si2 0.102384 0.905324 0.124215
Si Si3 0.600724 0.209989 0.688846
Si Si4 0.893936 0.604482 0.927183
Si Si5 0.600506 0.362166 0.378825
Si Si6 0.397605 0.837907 0.293320
Si Si7 0.607725 0.902926 0.501760
O O1 0.190617 0.862861 0.846771
O O2 0.347501 0.835908 0.780179
O O3 0.298549 0.000000 0.846460
O O4 0.332990 0.875062 0.975037
O O5 0.000000 0.907980 0.160390
O O6 0.145596 0.000000 0.152801
O O7 0.097790 0.902211 0.000000
O O8 0.500000 0.178185 0.696532
O O9 0.599910 0.316115 0.683281
O O10 0.637556 0.172784 0.580073
O O11 0.871000 0.500000 0.949055
O O12 0.846449 0.637210 0.822447
O O13 0.000000 0.607167 0.909151
O O14 0.620565 0.379436 0.500000
O O15 0.500000 0.394749 0.359131
O O16 0.600868 0.259703 0.343127
O O17 0.500000 0.868007 0.279851
O O18 0.356214 0.894387 0.385909
O O19 0.500000 0.895124 0.492714
O O20 0.627612 0.000000 0.545081
#
# Coordination Sequence:
#
# PCOD9556908 Si02
#       7
#     8   8   8   8   8   8   8
#     4  10  20  33  53  85 123 159 191 223 273 342
#     4   8  15  30  52  77 107 143 186 235 274 310
#     4  11  22  35  52  80 114 148 189 235 290 350
#     4   9  17  30  50  79 118 158 190 224 273 341
#     4  11  22  38  58  80 107 142 192 254 307 351
#     4   9  17  31  51  77 106 141 187 233 276 328
#     4   9  16  28  49  76 108 144 177 217 274 336
#
# _framework density 18.981615000000001
#
# number of rings (size 3 to 8) (size 9 to 14) (size 15 to 20)
#    0.000    2.429    1.429    2.143    0.000    5.286 
#    0.000    0.000    0.000    0.857    0.000    1.000 
#    0.000    8.000    0.000    8.857    0.000    0.000 
#
# Total GULP energy -311805.703680 kJ/mol
# GULP energy per Si atom -5567.958994 kJ/mol
# Density = 1.893841 g / cm^3
# Si number density = 18.981615 Si / 1000 Ang^3
#
#
#
# Elastic Constant Matrix: (Units=GPa)
#
#
# Indices 1 2 3 4 5 6 
#
# 1 89.8584 25.1692 48.2202 0.0000 0.0000 0.0000
# 2 25.1692 89.8584 48.2199 0.0000 0.0000 0.0000
# 3 48.2202 48.2199 115.7941 0.0000 0.0000 0.0000
# 4 0.0000 0.0000 0.0000 19.0707 0.0000 0.0000
# 5 0.0000 0.0000 0.0000 0.0000 19.0706 0.0000
# 6 0.0000 0.0000 0.0000 0.0000 0.0000 12.8070
#
#
#
# Elastic Compliance Matrix: (Units=1/GPa)
#
#
# Indices 1 2 3 4 5 6 
#
# 1 0.014408 -0.001051 -0.005562 0.000000 0.000000 0.000000
# 2 -0.001051 0.014408 -0.005562 0.000000 0.000000 0.000000
# 3 -0.005562 -0.005562 0.013269 0.000000 0.000000 0.000000
# 4 0.000000 0.000000 0.000000 0.052436 0.000000 0.000000
# 5 0.000000 0.000000 0.000000 0.000000 0.052437 0.000000
# 6 0.000000 0.000000 0.000000 0.000000 0.000000 0.078082
#
#
# Mechanical properties :
#
#
# Convention : Reuss Voigt Hill
#
# Bulk Modulus (GPa) = 56.39014 59.85884 58.12449
# Shear Modulus (GPa) = 19.58472 21.78311 20.68391
#
# Velocity S-wave (km/s) = 3.21561 3.39129 3.30461
# Velocity P-wave (km/s) = 6.59993 6.85113 6.72671
#
# Compressibility (1/GPa) = 0.01773360
#
# Stress axis : x y z
#
# Youngs Moduli (GPa) = 69.40694 69.40715 75.36596
#
# Poissons Ratio (x) = 0.07293 0.41921
# Poissons Ratio (y) = 0.07293 0.41920
# Poissons Ratio (z) = 0.38606 0.38606
#
# Static dielectric constant tensor:
#      x y z
#    x 1.702800 0.000000 0.000000 
#    y 0.000000 1.702800 0.000000 
#    z 0.000000 0.000000 1.660150 
# 
# From -- ./inp_files/3055.got.cif
#   From: 2010.05.17/outbox.cif.g08.bks.cpg/sg115_2_cif.got.tgz:3055.got - 2010.05.20 11:07:42.
