data_PCOD9556297
_publ_section_title
;
Structure prediction by ZEFSAII (Michael W. Deem and Ramdas Pophale) SiO2 
 PCOD9556297
Probable space group: P -4 21 C
;
_chemical_formula_sum "Si O2"
_cell_formula_units_Z 32
_cell_length_a 7.686307
_cell_length_b 7.686307
_cell_length_c 19.678397
_cell_angle_alpha 90.000000
_cell_angle_beta 90.000000
_cell_angle_gamma 90.000000
_cell_volume 1162.586221
_symmetry_space_group_name_H-M "P -4 21 C"
_symmetry_group_IT_number 114
_symmetry_cell_setting 'tetragonal'
loop_
_space_group_symop_operation_xyz
x,y,z
y,-x,-z
-x,-y,z
-y,x,-z
1/2+x,1/2-y,1/2-z
1/2-x,1/2+y,1/2-z
1/2-y,1/2-x,1/2+z
1/2+y,1/2+x,1/2+z
loop_
_atom_site_type_symbol
_atom_site_label
_atom_site_fract_x
_atom_site_fract_y
_atom_site_fract_z
Si Si1 0.262817 0.338974 0.612613
Si Si2 0.865334 0.338622 0.023320
Si Si3 0.104138 0.677927 0.278062
Si Si4 0.800172 0.877350 0.350043
O O1 0.317086 0.210482 0.551969
O O2 0.285387 0.519102 0.572685
O O3 0.363153 0.279063 0.679165
O O4 0.066036 0.296290 0.639618
O O5 0.691656 0.337399 0.069452
O O6 0.000000 0.500000 0.019901
O O7 0.166624 0.717210 0.202061
O O8 0.000000 0.500000 0.277396
O O9 0.983530 0.820495 0.316155
#
# Coordination Sequence:
#
# PCOD9556297 Si02
#       4
#     8   8   8   8
#     4  11  25  46  74 110 152 204 252 320 397 470
#     4  10  24  46  71 110 154 195 257 324 380 479
#     4  12  25  45  75 110 152 201 257 326 385 470
#     4  11  25  47  76 108 156 201 255 320 395 474
#
# _framework density 27.524842
#
# number of rings (size 3 to 8) (size 9 to 14) (size 15 to 20)
#    0.000    1.000    0.000    6.750   10.500    0.500 
#    0.000    2.500    0.000    0.000    0.000    0.000 
#    0.000    0.000    0.000    0.000    0.000    0.000 
#
# Total GULP energy -178355.987091 kJ/mol
# GULP energy per Si atom -5573.624597 kJ/mol
# Density = 2.746219 g / cm^3
# Si number density = 27.524842 Si / 1000 Ang^3
#
#
#
# Elastic Constant Matrix: (Units=GPa)
#
#
# Indices 1 2 3 4 5 6 
#
# 1 77.8708 6.7237 22.3983 0.0000 0.0000 0.0000
# 2 6.7237 77.8708 22.3983 0.0000 0.0000 0.0000
# 3 22.3983 22.3983 178.6294 0.0000 0.0000 0.0000
# 4 0.0000 0.0000 0.0000 8.5731 0.0000 0.0000
# 5 0.0000 0.0000 0.0000 0.0000 8.5731 0.0000
# 6 0.0000 0.0000 0.0000 0.0000 0.0000 22.9875
#
#
#
# Elastic Compliance Matrix: (Units=1/GPa)
#
#
# Indices 1 2 3 4 5 6 
#
# 1 0.013359 -0.000697 -0.001588 0.000000 0.000000 0.000000
# 2 -0.000697 0.013359 -0.001588 0.000000 0.000000 0.000000
# 3 -0.001588 -0.001588 0.005996 0.000000 0.000000 0.000000
# 4 0.000000 0.000000 0.000000 0.116644 0.000000 0.000000
# 5 0.000000 0.000000 0.000000 0.000000 0.116644 0.000000
# 6 0.000000 0.000000 0.000000 0.000000 0.000000 0.043502
#
#
# Mechanical properties :
#
#
# Convention : Reuss Voigt Hill
#
# Bulk Modulus (GPa) = 40.04909 48.60129 44.32519
# Shear Modulus (GPa) = 15.35761 26.88344 21.12052
#
# Velocity S-wave (km/s) = 2.36467 3.12861 2.77307
# Velocity P-wave (km/s) = 4.69439 5.54495 5.13730
#
# Compressibility (1/GPa) = 0.02496936
#
# Stress axis : x y z
#
# Youngs Moduli (GPa) = 74.85802 74.85802 166.76845
#
# Poissons Ratio (x) = 0.05216 0.26477
# Poissons Ratio (y) = 0.05216 0.26477
# Poissons Ratio (z) = 0.11885 0.11885
#
# Static dielectric constant tensor:
#      x y z
#    x 2.391160 0.000000 0.000000 
#    y 0.000000 2.391160 0.000000 
#    z 0.000000 0.000000 2.136140 
# 
# From -- ./inp_files/2829.got.cif
#   From: 2010.05.17/outbox.cif.g08.bks.cpg/sg114_2_cif.got.tgz:2829.got - 2010.05.20 11:04:54.
