data_PCOD9556218
_publ_section_title
;
Structure prediction by ZEFSAII (Michael W. Deem and Ramdas Pophale) SiO2 
 PCOD9556218
Probable space group: P -4 21 C
;
_chemical_formula_sum "Si O2"
_cell_formula_units_Z 48
_cell_length_a 13.184583
_cell_length_b 13.184583
_cell_length_c 13.008828
_cell_angle_alpha 90.000000
_cell_angle_beta 90.000000
_cell_angle_gamma 90.000000
_cell_volume 2261.366575
_symmetry_space_group_name_H-M "P -4 21 C"
_symmetry_group_IT_number 114
_symmetry_cell_setting 'tetragonal'
loop_
_space_group_symop_operation_xyz
x,y,z
y,-x,-z
-x,-y,z
-y,x,-z
1/2+x,1/2-y,1/2-z
1/2-x,1/2+y,1/2-z
1/2-y,1/2-x,1/2+z
1/2+y,1/2+x,1/2+z
loop_
_atom_site_type_symbol
_atom_site_label
_atom_site_fract_x
_atom_site_fract_y
_atom_site_fract_z
Si Si1 0.749732 0.290382 0.677276
Si Si2 0.878945 0.326005 0.371884
Si Si3 0.719626 0.459123 0.072774
Si Si4 0.500000 0.000000 0.718731
Si Si5 0.000000 0.000000 0.000000
Si Si6 0.654203 0.332811 0.461091
Si Si7 0.149579 0.359472 0.163602
Si Si8 0.000000 0.000000 0.500000
O O1 0.767110 0.375665 0.763693
O O2 0.860795 0.255001 0.637804
O O3 0.681837 0.324798 0.581492
O O4 0.695815 0.199988 0.738747
O O5 0.936089 0.262649 0.458840
O O6 0.762838 0.343877 0.405754
O O7 0.928175 0.433901 0.352746
O O8 0.769198 0.562754 0.114217
O O9 0.598862 0.470103 0.065992
O O10 0.574505 0.059636 0.793061
O O11 0.923762 0.076374 0.941088
O O12 0.615730 0.224984 0.418329
#
# Coordination Sequence:
#
# PCOD9556218 Si02
#       8
#     8   8   8   4   2   8   8   2
#     4  10  22  48  70  97 148 181 233 306 360 432
#     4  10  24  46  70 103 139 186 240 310 354 432
#     4  11  24  46  70 107 145 189 242 303 370 432
#     4  12  26  42  78 100 130 190 252 294 376 428
#     4  12  28  40  70 100 136 202 216 276 382 428
#     4  10  26  47  66  98 147 182 235 302 360 438
#     4  11  26  46  70 106 140 189 242 305 359 435
#     4  12  24  40  74 104 132 202 228 288 382 436
#
# _framework density 21.226105
#
# number of rings (size 3 to 8) (size 9 to 14) (size 15 to 20)
#    0.000    1.333    1.667    3.000    9.333    0.667 
#    0.000    6.667    0.000    0.000    0.000    0.000 
#    0.000    0.000    0.000    0.000    0.000    0.000 
#
# Total GULP energy -268424.153233 kJ/mol
# GULP energy per Si atom -5592.169859 kJ/mol
# Density = 2.117779 g / cm^3
# Si number density = 21.226105 Si / 1000 Ang^3
#
#
#
# Elastic Constant Matrix: (Units=GPa)
#
#
# Indices 1 2 3 4 5 6 
#
# 1 84.1833 40.5493 38.0291 0.0000 0.0000 0.0000
# 2 40.5493 84.1833 38.0291 0.0000 0.0000 0.0000
# 3 38.0291 38.0291 127.4079 0.0000 0.0000 0.0000
# 4 0.0000 0.0000 0.0000 -10.0283 0.0000 0.0000
# 5 0.0000 0.0000 0.0000 0.0000 -10.0283 0.0000
# 6 0.0000 0.0000 0.0000 0.0000 0.0000 57.0014
#
#
#
# Elastic Compliance Matrix: (Units=1/GPa)
#
#
# Indices 1 2 3 4 5 6 
#
# 1 0.016359 -0.006558 -0.002925 0.000000 0.000000 0.000000
# 2 -0.006558 0.016359 -0.002925 0.000000 0.000000 0.000000
# 3 -0.002925 -0.002925 0.009595 0.000000 0.000000 0.000000
# 4 0.000000 0.000000 0.000000 -0.099717 0.000000 0.000000
# 5 0.000000 0.000000 0.000000 0.000000 -0.099717 0.000000
# 6 0.000000 0.000000 0.000000 0.000000 0.000000 0.017543
#
#
# Mechanical properties :
#
#
# Convention : Reuss Voigt Hill
#
# Bulk Modulus (GPa) = 57.15771 58.77660 57.96715
# Shear Modulus (GPa) = -45.90240 19.33341 -13.28450
#
# Velocity S-wave (km/s) = -4.65536 3.02127 -2.50443
# Velocity P-wave (km/s) = 1.38204 6.31836 4.35956
#
# Compressibility (1/GPa) = 0.01749545
#
# Stress axis : x y z
#
# Youngs Moduli (GPa) = 61.12673 61.12673 104.21894
#
# Poissons Ratio (x) = 0.40090 0.30488
# Poissons Ratio (y) = 0.40090 0.30488
# Poissons Ratio (z) = 0.17882 0.17882
#
# Static dielectric constant tensor:
#      x y z
#    x 1.844370 0.000000 0.000000 
#    y 0.000000 1.844370 0.000000 
#    z 0.000000 0.000000 1.758400 
# 
# From -- ./inp_files/1724.got.cif
#   From: 2010.05.17/outbox.cif.g08.bks.cpg/sg114_1_cif.got.tgz:1724.got - 2010.05.20 11:04:54.
