data_PCOD9556245
_publ_section_title
;
Structure prediction by ZEFSAII (Michael W. Deem and Ramdas Pophale) SiO2 
 PCOD9556245
Probable space group: P -4 21 C
;
_chemical_formula_sum "Si O2"
_cell_formula_units_Z 64
_cell_length_a 17.690762
_cell_length_b 17.690762
_cell_length_c 8.997514
_cell_angle_alpha 90.000000
_cell_angle_beta 90.000000
_cell_angle_gamma 90.000000
_cell_volume 2815.889515
_symmetry_space_group_name_H-M "P -4 21 C"
_symmetry_group_IT_number 114
_symmetry_cell_setting 'tetragonal'
loop_
_space_group_symop_operation_xyz
x,y,z
y,-x,-z
-x,-y,z
-y,x,-z
1/2+x,1/2-y,1/2-z
1/2-x,1/2+y,1/2-z
1/2-y,1/2-x,1/2+z
1/2+y,1/2+x,1/2+z
loop_
_atom_site_type_symbol
_atom_site_label
_atom_site_fract_x
_atom_site_fract_y
_atom_site_fract_z
Si Si1 0.258287 0.859701 0.204474
Si Si2 0.554021 0.394103 0.319391
Si Si3 0.241847 0.490438 0.756726
Si Si4 0.585849 0.827692 0.680377
Si Si5 0.646015 0.767049 0.375454
Si Si6 0.953981 0.891216 0.822388
Si Si7 0.182131 0.462500 0.077412
Si Si8 0.124431 0.452309 0.504744
O O1 0.181887 0.908323 0.216641
O O2 0.294153 0.878671 0.364678
O O3 0.223290 0.779270 0.154891
O O4 0.319668 0.897770 0.093626
O O5 0.568117 0.309927 0.267162
O O6 0.549810 0.393470 0.498033
O O7 0.612832 0.458447 0.276140
O O8 0.471612 0.422966 0.266487
O O9 0.271004 0.571355 0.696087
O O10 0.171087 0.470258 0.653717
O O11 0.219805 0.489029 0.926559
O O12 0.624919 0.778176 0.549178
O O13 0.653846 0.852962 0.786346
O O14 0.523593 0.797865 0.797020
O O15 0.531013 0.883794 0.585419
O O16 0.093217 0.450663 0.044969
#
# Coordination Sequence:
#
# PCOD9556245 Si02
#       8
#     8   8   8   8   8   8   8   8
#     4  11  22  40  65 101 142 181 238 289 360 421
#     4   9  17  31  60  91 131 183 231 276 333 411
#     4  11  20  40  65  97 138 177 235 289 352 413
#     4  10  24  47  70 101 140 177 235 296 364 425
#     4  11  24  43  73 104 140 183 235 307 351 428
#     4   9  17  33  56  93 131 180 234 276 332 416
#     4  11  25  45  64  99 142 184 232 293 350 430
#     4  10  23  45  69  94 135 187 233 290 353 436
#
# _framework density 22.728165000000001
#
# number of rings (size 3 to 8) (size 9 to 14) (size 15 to 20)
#    0.000    1.750    2.500    3.000    1.750    0.000 
#    2.250   10.625    0.000    1.500    0.000    0.000 
#    0.000    0.000    0.000    0.000    0.000    0.000 
#
# Total GULP energy -356837.958397 kJ/mol
# GULP energy per Si atom -5575.593100 kJ/mol
# Density = 2.267643 g / cm^3
# Si number density = 22.728165 Si / 1000 Ang^3
#
#
#
# Elastic Constant Matrix: (Units=GPa)
#
#
# Indices 1 2 3 4 5 6 
#
# 1 102.9171 -5.1148 21.9465 0.0000 0.0000 0.0000
# 2 -5.1148 102.9171 21.9465 0.0000 0.0000 0.0000
# 3 21.9465 21.9465 125.1991 0.0000 0.0000 0.0000
# 4 0.0000 0.0000 0.0000 14.4818 0.0000 0.0000
# 5 0.0000 0.0000 0.0000 0.0000 14.4818 0.0000
# 6 0.0000 0.0000 0.0000 0.0000 0.0000 36.1733
#
#
#
# Elastic Compliance Matrix: (Units=1/GPa)
#
#
# Indices 1 2 3 4 5 6 
#
# 1 0.010177 0.000921 -0.001945 0.000000 0.000000 0.000000
# 2 0.000921 0.010177 -0.001945 0.000000 0.000000 0.000000
# 3 -0.001945 -0.001945 0.008669 0.000000 0.000000 0.000000
# 4 0.000000 0.000000 0.000000 0.069052 0.000000 0.000000
# 5 0.000000 0.000000 0.000000 0.000000 0.069052 0.000000
# 6 0.000000 0.000000 0.000000 0.000000 0.000000 0.027645
#
#
# Mechanical properties :
#
#
# Convention : Reuss Voigt Hill
#
# Bulk Modulus (GPa) = 43.32120 45.39888 44.36004
# Shear Modulus (GPa) = 23.99145 32.51104 28.25124
#
# Velocity S-wave (km/s) = 3.25250 3.78620 3.52945
# Velocity P-wave (km/s) = 5.76255 6.25555 6.01410
#
# Compressibility (1/GPa) = 0.02308338
#
# Stress axis : x y z
#
# Youngs Moduli (GPa) = 98.25938 98.25938 115.34965
#
# Poissons Ratio (x) = -0.09046 0.22440
# Poissons Ratio (y) = -0.09046 0.22440
# Poissons Ratio (z) = 0.19115 0.19115
#
# Static dielectric constant tensor:
#      x y z
#    x 1.831680 0.000000 0.000000 
#    y 0.000000 1.831680 0.000000 
#    z 0.000000 0.000000 1.698140 
# 
# From -- ./inp_files/1115.got.cif
#   From: 2010.05.17/outbox.cif.g08.bks.cpg/sg114_1_cif.got.tgz:1115.got - 2010.05.20 11:04:54.
