data_PCOD9556526
_publ_section_title
;
Structure prediction by ZEFSAII (Michael W. Deem and Ramdas Pophale) SiO2 
 PCOD9556526
Probable space group: P -4 M 2
;
_chemical_formula_sum "Si O2"
_cell_formula_units_Z 26
_cell_length_a 11.627496
_cell_length_b 11.627496
_cell_length_c 8.830509
_cell_angle_alpha 90.000000
_cell_angle_beta 90.000000
_cell_angle_gamma 90.000000
_cell_volume 1193.873012
_symmetry_space_group_name_H-M "P -4 M 2"
_symmetry_group_IT_number 115
_symmetry_cell_setting 'tetragonal'
loop_
_space_group_symop_operation_xyz
x,y,z
y,-x,-z
-x,-y,z
-y,x,-z
y,x,-z
-y,-x,-z
-x,y,z
x,-y,z
loop_
_atom_site_type_symbol
_atom_site_label
_atom_site_fract_x
_atom_site_fract_y
_atom_site_fract_z
Si Si1 0.500000 0.000000 0.020536
Si Si2 0.000000 0.000000 0.000000
Si Si3 0.759994 0.740671 0.818797
Si Si4 0.000000 0.000000 0.500000
Si Si5 0.500000 0.000000 0.487433
Si Si6 0.000000 0.319801 0.246885
Si Si7 0.500000 0.209472 0.254795
Si Si8 0.805870 0.000000 0.250863
O O1 0.500000 0.880279 0.111925
O O2 0.393111 0.000000 0.906532
O O3 0.890091 0.000000 0.106071
O O4 0.714181 0.617779 0.756801
O O5 0.890652 0.728033 0.764835
O O6 0.736801 0.872091 0.760125
O O7 0.744402 0.744402 0.000000
O O8 0.000000 0.887757 0.604417
O O9 0.608292 0.000000 0.599836
O O10 0.500000 0.119411 0.394511
#
# Coordination Sequence:
#
# PCOD9556526 Si02
#       8
#     2   1   8   1   2   4   4   4
#     4  10  18  40  64  92 130 186 234 286 332 434
#     4  10  16  30  52  86 124 166 216 278 328 410
#     4  12  23  40  68 101 135 189 236 300 347 427
#     4  10  24  34  48  94 148 170 220 302 368 406
#     4  10  26  46  66 100 138 196 244 288 360 450
#     4  11  23  41  71  96 136 184 251 281 364 428
#     4  11  24  40  66 101 150 178 244 290 363 417
#     4  11  21  33  55  86 132 176 224 275 349 422
#
# _framework density 21.777858999999999
#
# number of rings (size 3 to 8) (size 9 to 14) (size 15 to 20)
#    0.000    0.923    4.615    4.615    0.000    6.154 
#    0.000    0.000    0.000    7.846    0.000    6.462 
#    0.000    0.000    0.000    0.000    0.000    0.000 
#
# Total GULP energy -144941.205340 kJ/mol
# GULP energy per Si atom -5574.661744 kJ/mol
# Density = 2.172829 g / cm^3
# Si number density = 21.777859 Si / 1000 Ang^3
#
#
#
# Elastic Constant Matrix: (Units=GPa)
#
#
# Indices 1 2 3 4 5 6 
#
# 1 124.0189 33.5917 27.4012 0.0000 0.0000 0.0000
# 2 33.5917 124.0189 27.4012 0.0000 0.0000 0.0000
# 3 27.4012 27.4012 112.7256 0.0000 0.0000 0.0000
# 4 0.0000 0.0000 0.0000 385.4458 0.0000 0.0000
# 5 0.0000 0.0000 0.0000 0.0000 385.4458 0.0000
# 6 0.0000 0.0000 0.0000 0.0000 0.0000 5.6124
#
#
#
# Elastic Compliance Matrix: (Units=1/GPa)
#
#
# Indices 1 2 3 4 5 6 
#
# 1 0.008995 -0.002064 -0.001685 0.000000 0.000000 0.000000
# 2 -0.002064 0.008995 -0.001685 0.000000 0.000000 0.000000
# 3 -0.001685 -0.001685 0.009690 0.000000 0.000000 0.000000
# 4 0.000000 0.000000 0.000000 0.002594 0.000000 0.000000
# 5 0.000000 0.000000 0.000000 0.000000 0.002594 0.000000
# 6 0.000000 0.000000 0.000000 0.000000 0.000000 0.178178
#
#
# Mechanical properties :
#
#
# Convention : Reuss Voigt Hill
#
# Bulk Modulus (GPa) = 59.47953 59.72794 59.60373
# Shear Modulus (GPa) = 21.97639 173.45877 97.71758
#
# Velocity S-wave (km/s) = 3.18011 8.93432 6.70579
# Velocity P-wave (km/s) = 6.39182 11.57216 9.34800
#
# Compressibility (1/GPa) = 0.01681251
#
# Stress axis : x y z
#
# Youngs Moduli (GPa) = 111.17823 111.17823 103.19797
#
# Poissons Ratio (x) = 0.22948 0.17385
# Poissons Ratio (y) = 0.22948 0.17385
# Poissons Ratio (z) = 0.18730 0.18730
#
# Static dielectric constant tensor:
#      x y z
#    x 1.724240 0.000000 0.000000 
#    y 0.000000 1.724240 0.000000 
#    z 0.000000 0.000000 1.771000 
# 
# From -- ./inp_files/1188.got.cif
#   From: 2010.05.17/outbox.cif.g08.bks.cpg/sg115_1_cif.got.tgz:1188.got - 2010.05.20 11:07:42.
