data_PCOD9556425
_publ_section_title
;
Structure prediction by ZEFSAII (Michael W. Deem and Ramdas Pophale) SiO2 
 PCOD9556425
Probable space group: P -4 21 C
;
_chemical_formula_sum "Si O2"
_cell_formula_units_Z 26
_cell_length_a 10.420765
_cell_length_b 10.420765
_cell_length_c 9.654143
_cell_angle_alpha 90.000000
_cell_angle_beta 90.000000
_cell_angle_gamma 90.000000
_cell_volume 1048.366010
_symmetry_space_group_name_H-M "P -4 21 C"
_symmetry_group_IT_number 114
_symmetry_cell_setting 'tetragonal'
loop_
_space_group_symop_operation_xyz
x,y,z
y,-x,-z
-x,-y,z
-y,x,-z
1/2+x,1/2-y,1/2-z
1/2-x,1/2+y,1/2-z
1/2-y,1/2-x,1/2+z
1/2+y,1/2+x,1/2+z
loop_
_atom_site_type_symbol
_atom_site_label
_atom_site_fract_x
_atom_site_fract_y
_atom_site_fract_z
Si Si1 0.000000 0.000000 0.500000
Si Si2 0.321944 0.430948 0.455101
Si Si3 0.733115 0.338244 0.000063
Si Si4 0.871376 0.418489 0.264960
O O1 0.104931 0.899549 0.555793
O O2 0.360846 0.540524 0.566396
O O3 0.230344 0.316118 0.502396
O O4 0.248866 0.503731 0.332595
O O5 0.838991 0.389388 0.107055
O O6 0.785149 0.377393 0.849796
O O7 0.000000 0.500000 0.280419
#
# Coordination Sequence:
#
# PCOD9556425 Si02
#       4
#     2   8   8   8
#     4  12  28  48  68 118 156 196 264 334 388 448
#     4   9  21  46  74 102 144 203 253 296 383 465
#     4  11  26  45  73 106 149 199 253 319 383 462
#     4  11  24  47  74 110 147 197 252 319 382 464
#
# _framework density 24.800497
#
# number of rings (size 3 to 8) (size 9 to 14) (size 15 to 20)
#    0.000    1.538    0.000    2.769    4.308    7.385 
#   27.692    0.000    0.000    0.000    0.000    0.000 
#    0.000    0.000    0.000    0.000    0.000    0.000 
#
# Total GULP energy -145111.506980 kJ/mol
# GULP energy per Si atom -5581.211807 kJ/mol
# Density = 2.474405 g / cm^3
# Si number density = 24.800497 Si / 1000 Ang^3
#
#
#
# Elastic Constant Matrix: (Units=GPa)
#
#
# Indices 1 2 3 4 5 6 
#
# 1 129.5461 58.9835 6.8719 0.0000 0.0000 0.0000
# 2 58.9835 129.5461 6.8719 0.0000 0.0000 0.0000
# 3 6.8719 6.8719 58.0421 0.0000 0.0000 0.0000
# 4 0.0000 0.0000 0.0000 16.7514 0.0000 0.0000
# 5 0.0000 0.0000 0.0000 0.0000 16.7514 0.0000
# 6 0.0000 0.0000 0.0000 0.0000 0.0000 54.9405
#
#
#
# Elastic Compliance Matrix: (Units=1/GPa)
#
#
# Indices 1 2 3 4 5 6 
#
# 1 0.009761 -0.004411 -0.000633 0.000000 0.000000 0.000000
# 2 -0.004411 0.009761 -0.000633 0.000000 0.000000 0.000000
# 3 -0.000633 -0.000633 0.017379 0.000000 0.000000 0.000000
# 4 0.000000 0.000000 0.000000 0.059696 0.000000 0.000000
# 5 0.000000 0.000000 0.000000 0.000000 0.059696 0.000000
# 6 0.000000 0.000000 0.000000 0.000000 0.000000 0.018201
#
#
# Mechanical properties :
#
#
# Convention : Reuss Voigt Hill
#
# Bulk Modulus (GPa) = 39.14536 51.39875 45.27205
# Shear Modulus (GPa) = 25.72468 33.98248 29.85358
#
# Velocity S-wave (km/s) = 3.22415 3.70568 3.47327
# Velocity P-wave (km/s) = 5.44781 6.25135 5.86336
#
# Compressibility (1/GPa) = 0.02554581
#
# Stress axis : x y z
#
# Youngs Moduli (GPa) = 102.44743 102.44743 57.54111
#
# Poissons Ratio (x) = 0.45187 0.03645
# Poissons Ratio (y) = 0.45187 0.03645
# Poissons Ratio (z) = 0.06490 0.06490
#
# Static dielectric constant tensor:
#      x y z
#    x 2.048370 0.000000 0.000000 
#    y 0.000000 2.048370 0.000000 
#    z 0.000000 0.000000 1.922490 
# 
# From -- ./inp_files/485.got.cif
#   From: 2010.05.17/outbox.cif.g08.bks.cpg/sg114_1_cif.got.tgz:485.got - 2010.05.20 11:04:54.
