data_PCOD9556236
_publ_section_title
;
Structure prediction by ZEFSAII (Michael W. Deem and Ramdas Pophale) SiO2 
 PCOD9556236
Probable space group: P -4 21 C
;
_chemical_formula_sum "Si O2"
_cell_formula_units_Z 24
_cell_length_a 10.050551
_cell_length_b 10.050551
_cell_length_c 9.560636
_cell_angle_alpha 90.000000
_cell_angle_beta 90.000000
_cell_angle_gamma 90.000000
_cell_volume 965.754025
_symmetry_space_group_name_H-M "P -4 21 C"
_symmetry_group_IT_number 114
_symmetry_cell_setting 'tetragonal'
loop_
_space_group_symop_operation_xyz
x,y,z
y,-x,-z
-x,-y,z
-y,x,-z
1/2+x,1/2-y,1/2-z
1/2-x,1/2+y,1/2-z
1/2-y,1/2-x,1/2+z
1/2+y,1/2+x,1/2+z
loop_
_atom_site_type_symbol
_atom_site_label
_atom_site_fract_x
_atom_site_fract_y
_atom_site_fract_z
Si Si1 0.829831 0.832167 0.834072
Si Si2 0.480663 0.308592 0.076996
Si Si3 0.705171 0.898621 0.124382
O O1 0.852533 0.963104 0.737986
O O2 0.703045 0.771100 0.752383
O O3 0.952802 0.732032 0.827701
O O4 0.798287 0.871574 0.991428
O O5 0.440722 0.153887 0.073455
O O6 0.360141 0.390127 0.000919
#
# Coordination Sequence:
#
# PCOD9556236 Si02
#       3
#     8   8   8
#     4  10  23  42  74 105 146 186 241 302 355 433
#     4   9  20  40  72  99 138 187 234 291 354 431
#     4  10  23  43  71 108 143 188 240 295 362 421
#
# _framework density 24.851047000000001
#
# number of rings (size 3 to 8) (size 9 to 14) (size 15 to 20)
#    2.000    0.333    0.000    2.000    0.000    8.667 
#    0.000    1.667    7.333    0.000    0.000    0.000 
#    0.000    0.000    0.000    0.000    0.000    0.000 
#
# Total GULP energy -133927.440213 kJ/mol
# GULP energy per Si atom -5580.310009 kJ/mol
# Density = 2.479448 g / cm^3
# Si number density = 24.851047 Si / 1000 Ang^3
#
#
#
# Elastic Constant Matrix: (Units=GPa)
#
#
# Indices 1 2 3 4 5 6 
#
# 1 57.0860 1.4447 17.4351 0.0000 0.0000 0.0000
# 2 1.4447 57.0860 17.4351 0.0000 0.0000 0.0000
# 3 17.4351 17.4351 140.8046 0.0000 0.0000 0.0000
# 4 0.0000 0.0000 0.0000 27.5249 0.0000 0.0000
# 5 0.0000 0.0000 0.0000 0.0000 27.5249 0.0000
# 6 0.0000 0.0000 0.0000 0.0000 0.0000 39.7088
#
#
#
# Elastic Compliance Matrix: (Units=1/GPa)
#
#
# Indices 1 2 3 4 5 6 
#
# 1 0.018209 0.000237 -0.002284 0.000000 0.000000 0.000000
# 2 0.000237 0.018209 -0.002284 0.000000 0.000000 0.000000
# 3 -0.002284 -0.002284 0.007668 0.000000 0.000000 0.000000
# 4 0.000000 0.000000 0.000000 0.036331 0.000000 0.000000
# 5 0.000000 0.000000 0.000000 0.000000 0.036331 0.000000
# 6 0.000000 0.000000 0.000000 0.000000 0.000000 0.025183
#
#
# Mechanical properties :
#
#
# Convention : Reuss Voigt Hill
#
# Bulk Modulus (GPa) = 28.23016 36.40069 32.31542
# Shear Modulus (GPa) = 30.78802 33.52918 32.15860
#
# Velocity S-wave (km/s) = 3.52362 3.67714 3.60120
# Velocity P-wave (km/s) = 5.28573 5.71907 5.50667
#
# Compressibility (1/GPa) = 0.03542311
#
# Stress axis : x y z
#
# Youngs Moduli (GPa) = 54.91780 54.91780 130.41751
#
# Poissons Ratio (x) = -0.01300 0.29788
# Poissons Ratio (y) = -0.01300 0.29788
# Poissons Ratio (z) = 0.12543 0.12543
#
# Static dielectric constant tensor:
#      x y z
#    x 2.061580 0.000000 0.000000 
#    y 0.000000 2.061580 0.000000 
#    z 0.000000 0.000000 1.936600 
# 
# From -- ./inp_files/473.got.cif
#   From: 2010.05.17/outbox.cif.g08.bks.cpg/sg114_1_cif.got.tgz:473.got - 2010.05.20 11:04:54.
