data_PCOD9556585
_publ_section_title
;
Structure prediction by ZEFSAII (Michael W. Deem and Ramdas Pophale) SiO2 
 PCOD9556585
Probable space group: P -4 M 2
;
_chemical_formula_sum "Si O2"
_cell_formula_units_Z 64
_cell_length_a 13.947175
_cell_length_b 13.947175
_cell_length_c 18.967211
_cell_angle_alpha 90.000000
_cell_angle_beta 90.000000
_cell_angle_gamma 90.000000
_cell_volume 3689.571882
_symmetry_space_group_name_H-M "P -4 M 2"
_symmetry_group_IT_number 115
_symmetry_cell_setting 'tetragonal'
loop_
_space_group_symop_operation_xyz
x,y,z
y,-x,-z
-x,-y,z
-y,x,-z
y,x,-z
-y,-x,-z
-x,y,z
x,-y,z
loop_
_atom_site_type_symbol
_atom_site_label
_atom_site_fract_x
_atom_site_fract_y
_atom_site_fract_z
Si Si1 0.254514 0.112971 0.041056
Si Si2 0.887122 0.113492 0.718712
Si Si3 0.240650 0.238787 0.824535
Si Si4 0.702046 0.388952 0.273890
Si Si5 0.887030 0.798184 0.432258
Si Si6 0.383484 0.389783 0.575944
Si Si7 0.389963 0.887802 0.911222
Si Si8 0.393606 0.109457 0.648138
O O1 0.272193 0.168634 0.114000
O O2 0.232926 0.000000 0.051390
O O3 0.167461 0.167461 0.000000
O O4 0.346417 0.120461 0.989860
O O5 0.822595 0.178480 0.769099
O O6 0.860620 0.134979 0.637453
O O7 0.000000 0.128407 0.731102
O O8 0.866116 0.000000 0.729969
O O9 0.306805 0.316057 0.783349
O O10 0.318505 0.171466 0.862716
O O11 0.673859 0.500000 0.257766
O O12 0.661173 0.361149 0.350746
O O13 0.816439 0.387995 0.288110
O O14 0.828399 0.828399 0.500000
O O15 0.871791 0.688974 0.407965
O O16 0.000000 0.811443 0.447733
O O17 0.349928 0.349928 0.500000
O O18 0.500000 0.389023 0.571283
O O19 0.352235 0.500000 0.581762
O O20 0.500000 0.855072 0.906565
O O21 0.386507 0.000000 0.892018
O O22 0.500000 0.121070 0.616876
O O23 0.382391 0.000000 0.672569
#
# Coordination Sequence:
#
# PCOD9556585 Si02
#       8
#     8   8   8   8   8   8   8   8
#     4   9  19  34  52  73 100 129 163 199 238 291
#     4  10  20  32  46  68  99 134 172 211 250 294
#     4  11  19  31  47  74 103 133 159 197 247 299
#     4  10  19  30  47  74 103 131 164 203 250 300
#     4  10  19  32  49  69  94 133 180 219 254 296
#     4   8  15  30  51  72  95 125 163 209 256 298
#     4   9  18  33  53  74  95 124 163 204 242 283
#     4   9  18  32  48  68  96 127 162 207 257 303
#
# _framework density 17.346184999999998
#
# number of rings (size 3 to 8) (size 9 to 14) (size 15 to 20)
#    0.000    2.500    1.250    1.875    0.000    2.250 
#    0.000    1.875    0.000    0.000    0.000    0.000 
#    0.000   17.250    0.000    0.000    0.000    0.000 
#
# Total GULP energy -356657.324083 kJ/mol
# GULP energy per Si atom -5572.770689 kJ/mol
# Density = 1.730670 g / cm^3
# Si number density = 17.346185 Si / 1000 Ang^3
#
#
#
# Elastic Constant Matrix: (Units=GPa)
#
#
# Indices 1 2 3 4 5 6 
#
# 1 60.5172 10.0295 26.1713 0.0000 0.0000 0.0000
# 2 10.0295 60.5172 26.1713 0.0000 0.0000 0.0000
# 3 26.1713 26.1713 91.8130 0.0000 0.0000 0.0000
# 4 0.0000 0.0000 0.0000 18.2945 0.0000 0.0000
# 5 0.0000 0.0000 0.0000 0.0000 18.2945 0.0000
# 6 0.0000 0.0000 0.0000 0.0000 0.0000 15.0875
#
#
#
# Elastic Compliance Matrix: (Units=1/GPa)
#
#
# Indices 1 2 3 4 5 6 
#
# 1 0.018892 -0.000915 -0.005124 0.000000 0.000000 0.000000
# 2 -0.000915 0.018892 -0.005124 0.000000 0.000000 0.000000
# 3 -0.005124 -0.005124 0.013813 0.000000 0.000000 0.000000
# 4 0.000000 0.000000 0.000000 0.054661 0.000000 0.000000
# 5 0.000000 0.000000 0.000000 0.000000 0.054661 0.000000
# 6 0.000000 0.000000 0.000000 0.000000 0.000000 0.066280
#
#
# Mechanical properties :
#
#
# Convention : Reuss Voigt Hill
#
# Bulk Modulus (GPa) = 34.16493 37.51016 35.83755
# Shear Modulus (GPa) = 19.28392 20.36699 19.82546
#
# Velocity S-wave (km/s) = 3.33785 3.43030 3.38439
# Velocity P-wave (km/s) = 5.88164 6.11234 5.99810
#
# Compressibility (1/GPa) = 0.02926978
#
# Stress axis : x y z
#
# Youngs Moduli (GPa) = 52.93272 52.93272 72.39510
#
# Poissons Ratio (x) = 0.04843 0.37098
# Poissons Ratio (y) = 0.04843 0.37098
# Poissons Ratio (z) = 0.27125 0.27125
#
# Static dielectric constant tensor:
#      x y z
#    x 1.607900 0.000000 0.000000 
#    y 0.000000 1.607900 0.000000 
#    z 0.000000 0.000000 1.604450 
# 
# From -- ./inp_files/4484.got.cif
#   From: 2010.05.17/outbox.cif.g08.bks.cpg/sg115_3_cif.got.tgz:4484.got - 2010.05.20 11:07:42.
