data_PCOD9556713
_publ_section_title
;
Structure prediction by ZEFSAII (Michael W. Deem and Ramdas Pophale) SiO2 
 PCOD9556713
Probable space group: P -4 M 2
;
_chemical_formula_sum "Si O2"
_cell_formula_units_Z 44
_cell_length_a 9.085029
_cell_length_b 9.085029
_cell_length_c 29.793100
_cell_angle_alpha 90.000000
_cell_angle_beta 90.000000
_cell_angle_gamma 90.000000
_cell_volume 2459.055497
_symmetry_space_group_name_H-M "P -4 M 2"
_symmetry_group_IT_number 115
_symmetry_cell_setting 'tetragonal'
loop_
_space_group_symop_operation_xyz
x,y,z
y,-x,-z
-x,-y,z
-y,x,-z
y,x,-z
-y,-x,-z
-x,y,z
x,-y,z
loop_
_atom_site_type_symbol
_atom_site_label
_atom_site_fract_x
_atom_site_fract_y
_atom_site_fract_z
Si Si1 0.179640 0.171486 0.354046
Si Si2 0.826476 0.179403 0.451731
Si Si3 0.174651 0.825350 0.000000
Si Si4 0.676533 0.827529 0.178409
Si Si5 0.177545 0.671319 0.262863
Si Si6 0.325948 0.676234 0.914789
O O1 0.233476 0.225520 0.403076
O O2 0.226075 0.263487 0.310888
O O3 0.000000 0.175469 0.355623
O O4 0.220736 0.000000 0.348375
O O5 0.767012 0.232989 0.500000
O O6 0.000000 0.217037 0.451838
O O7 0.818811 0.000000 0.451772
O O8 0.249611 0.757515 0.955990
O O9 0.000000 0.799178 0.998301
O O10 0.500000 0.811826 0.183055
O O11 0.753210 0.759415 0.221772
O O12 0.720500 0.744390 0.132780
O O13 0.710966 0.000000 0.174429
O O14 0.216454 0.500000 0.259504
O O15 0.000000 0.684176 0.260867
O O16 0.500000 0.704948 0.914620
O O17 0.304205 0.500000 0.919965
#
# Coordination Sequence:
#
# PCOD9556713 Si02
#       6
#     8   8   4   8   8   8
#     4   8  13  22  37  58  86 119 154 196 246 295
#     4   7   9  14  27  50  79 109 144 189 240 291
#     4  11  24  39  56  82 114 145 176 209 246 288
#     4  10  21  37  57  79 102 131 168 210 256 303
#     4  10  20  32  47  70 100 133 168 205 247 297
#     4  10  21  38  60  83 106 135 171 209 251 299
#
# _framework density 17.893051
#
# number of rings (size 3 to 8) (size 9 to 14) (size 15 to 20)
#    0.000    2.818    0.000    3.818    0.000    5.818 
#    0.000    0.000    0.000    0.000    0.000    1.273 
#    0.000    7.273    0.000    0.000    0.000    0.000 
#
# Total GULP energy -245203.706631 kJ/mol
# GULP energy per Si atom -5572.811514 kJ/mol
# Density = 1.785233 g / cm^3
# Si number density = 17.893051 Si / 1000 Ang^3
#
#
#
# Elastic Constant Matrix: (Units=GPa)
#
#
# Indices 1 2 3 4 5 6 
#
# 1 46.2717 44.6519 67.6198 0.0000 0.0000 0.0000
# 2 44.6519 46.2720 67.6198 0.0000 0.0000 0.0000
# 3 67.6198 67.6198 214.3687 0.0000 0.0000 0.0000
# 4 0.0000 0.0000 0.0000 -130.5659 0.0000 0.0000
# 5 0.0000 0.0000 0.0000 0.0000 -130.5211 0.0000
# 6 0.0000 0.0000 0.0000 0.0000 0.0000 19.4571
#
#
#
# Elastic Compliance Matrix: (Units=1/GPa)
#
#
# Indices 1 2 3 4 5 6 
#
# 1 0.319025 -0.298305 -0.006536 0.000000 0.000000 0.000000
# 2 -0.298305 0.319023 -0.006535 0.000000 0.000000 0.000000
# 3 -0.006536 -0.006535 0.008788 0.000000 0.000000 0.000000
# 4 0.000000 0.000000 0.000000 -0.007659 0.000000 0.000000
# 5 0.000000 0.000000 0.000000 0.000000 -0.007662 0.000000
# 6 0.000000 0.000000 0.000000 0.000000 0.000000 0.051395
#
#
# Mechanical properties :
#
#
# Convention : Reuss Voigt Hill
#
# Bulk Modulus (GPa) = 41.52120 74.07727 57.79924
# Shear Modulus (GPa) = 3.80607 -39.85792 -18.02593
#
# Velocity S-wave (km/s) = 1.46005 -4.72483 -3.17744
# Velocity P-wave (km/s) = 5.10861 3.42411 4.34871
#
# Compressibility (1/GPa) = 0.02408408
#
# Stress axis : x y z
#
# Youngs Moduli (GPa) = 3.13455 3.13457 113.79128
#
# Poissons Ratio (x) = 0.93506 0.74373
# Poissons Ratio (y) = 0.93505 0.74366
# Poissons Ratio (z) = 0.02049 0.02049
#
# Static dielectric constant tensor:
#      x y z
#    x 1.597210 0.000000 0.000000 
#    y 0.000000 1.597210 0.000000 
#    z 0.000000 0.000000 1.626330 
# 
# From -- ./inp_files/5709.got.cif
#   From: 2010.05.17/outbox.cif.g08.bks.cpg/sg115_3_cif.got.tgz:5709.got - 2010.05.20 11:07:42.
