data_PCOD9556958
_publ_section_title
;
Structure prediction by ZEFSAII (Michael W. Deem and Ramdas Pophale) SiO2 
 PCOD9556958
Probable space group: P -4 M 2
;
_chemical_formula_sum "Si O2"
_cell_formula_units_Z 44
_cell_length_a 9.128499
_cell_length_b 9.128499
_cell_length_c 29.680400
_cell_angle_alpha 90.000000
_cell_angle_beta 90.000000
_cell_angle_gamma 90.000000
_cell_volume 2473.252714
_symmetry_space_group_name_H-M "P -4 M 2"
_symmetry_group_IT_number 115
_symmetry_cell_setting 'tetragonal'
loop_
_space_group_symop_operation_xyz
x,y,z
y,-x,-z
-x,-y,z
-y,x,-z
y,x,-z
-y,-x,-z
-x,y,z
x,-y,z
loop_
_atom_site_type_symbol
_atom_site_label
_atom_site_fract_x
_atom_site_fract_y
_atom_site_fract_z
Si Si1 0.175483 0.824518 0.500000
Si Si2 0.178760 0.830248 0.049625
Si Si3 0.172767 0.824037 0.768450
Si Si4 0.178521 0.667830 0.139692
Si Si5 0.175771 0.824215 0.401282
Si Si6 0.674115 0.673520 0.316354
O O1 0.227934 0.772071 0.451081
O O2 0.000000 0.802059 0.500000
O O3 0.227850 0.737852 0.092548
O O4 0.000000 0.828574 0.048754
O O5 0.222442 0.000000 0.055147
O O6 0.224257 0.775744 0.000000
O O7 0.239959 0.778060 0.816492
O O8 0.252933 0.745635 0.727410
O O9 0.000000 0.794113 0.767258
O O10 0.192690 0.000000 0.764107
O O11 0.225483 0.500000 0.144001
O O12 0.000000 0.669899 0.138723
O O13 0.255842 0.744169 0.360849
O O14 0.000000 0.801075 0.398206
O O15 0.198841 0.000000 0.398197
O O16 0.500000 0.697595 0.316203
O O17 0.702488 0.500000 0.315695
#
# Coordination Sequence:
#
# PCOD9556958 Si02
#       6
#     4   8   8   8   8   8
#     4   7  12  26  50  79 106 128 156 201 250 291
#     4   8  13  22  38  61  89 121 157 196 236 279
#     4  10  20  34  54  78 100 125 163 210 256 302
#     4   9  16  26  43  69  99 127 156 196 246 295
#     4   9  17  32  56  82 104 129 165 207 249 293
#     4  11  24  38  50  69 101 138 171 204 247 298
#
# _framework density 17.790334999999999
#
# number of rings (size 3 to 8) (size 9 to 14) (size 15 to 20)
#    0.000    2.818    0.000    3.818    0.000    7.273 
#    0.000    0.909    0.000    5.455    0.000    2.545 
#    0.000    0.000    0.000    0.000    0.000    0.000 
#
# Total GULP energy -245241.925417 kJ/mol
# GULP energy per Si atom -5573.680123 kJ/mol
# Density = 1.774984 g / cm^3
# Si number density = 17.790335 Si / 1000 Ang^3
#
#
#
# Elastic Constant Matrix: (Units=GPa)
#
#
# Indices 1 2 3 4 5 6 
#
# 1 59.9852 49.6979 77.1597 0.0000 0.0000 0.0000
# 2 49.6979 59.9858 77.1599 0.0000 0.0000 0.0000
# 3 77.1597 77.1599 227.2475 0.0000 0.0000 0.0000
# 4 0.0000 0.0000 0.0000 -11.0250 0.0000 0.0000
# 5 0.0000 0.0000 0.0000 0.0000 -11.0248 0.0000
# 6 0.0000 0.0000 0.0000 0.0000 0.0000 18.5604
#
#
#
# Elastic Compliance Matrix: (Units=1/GPa)
#
#
# Indices 1 2 3 4 5 6 
#
# 1 0.057331 -0.039874 -0.005927 0.000000 0.000000 0.000000
# 2 -0.039874 0.057330 -0.005927 0.000000 0.000000 0.000000
# 3 -0.005927 -0.005927 0.008426 0.000000 0.000000 0.000000
# 4 0.000000 0.000000 0.000000 -0.090703 0.000000 0.000000
# 5 0.000000 0.000000 0.000000 0.000000 -0.090705 0.000000
# 6 0.000000 0.000000 0.000000 0.000000 0.000000 0.053878
#
#
# Mechanical properties :
#
#
# Convention : Reuss Voigt Hill
#
# Bulk Modulus (GPa) = 50.94328 83.91706 67.43017
# Shear Modulus (GPa) = 47.36793 8.84886 28.10839
#
# Velocity S-wave (km/s) = 5.16560 2.23266 3.97921
# Velocity P-wave (km/s) = 8.01720 7.34294 7.68747
#
# Compressibility (1/GPa) = 0.01962968
#
# Stress axis : x y z
#
# Youngs Moduli (GPa) = 17.44266 17.44289 118.68713
#
# Poissons Ratio (x) = 0.69552 0.70349
# Poissons Ratio (y) = 0.69551 0.70347
# Poissons Ratio (z) = 0.10339 0.10339
#
# Static dielectric constant tensor:
#      x y z
#    x 1.587230 0.000000 0.000000 
#    y 0.000000 1.587220 0.000000 
#    z 0.000000 0.000000 1.617150 
# 
# From -- ./inp_files/5676.got.cif
#   From: 2010.05.17/outbox.cif.g08.bks.cpg/sg115_3_cif.got.tgz:5676.got - 2010.05.20 11:07:42.
