data_PCOD9556759
_publ_section_title
;
Structure prediction by ZEFSAII (Michael W. Deem and Ramdas Pophale) SiO2 
 PCOD9556759
Probable space group: P -4 M 2
;
_chemical_formula_sum "Si O2"
_cell_formula_units_Z 40
_cell_length_a 9.247854
_cell_length_b 9.247854
_cell_length_c 26.559232
_cell_angle_alpha 90.000000
_cell_angle_beta 90.000000
_cell_angle_gamma 90.000000
_cell_volume 2271.419982
_symmetry_space_group_name_H-M "P -4 M 2"
_symmetry_group_IT_number 115
_symmetry_cell_setting 'tetragonal'
loop_
_space_group_symop_operation_xyz
x,y,z
y,-x,-z
-x,-y,z
-y,x,-z
y,x,-z
-y,-x,-z
-x,y,z
x,-y,z
loop_
_atom_site_type_symbol
_atom_site_label
_atom_site_fract_x
_atom_site_fract_y
_atom_site_fract_z
Si Si1 0.326181 0.827841 0.138595
Si Si2 0.672262 0.827655 0.953328
Si Si3 0.327404 0.671912 0.443298
Si Si4 0.175783 0.666058 0.747818
Si Si5 0.831194 0.173990 0.351963
O O1 0.500000 0.809499 0.133042
O O2 0.240843 0.738113 0.097242
O O3 0.287396 0.782743 0.195798
O O4 0.297203 0.000000 0.132759
O O5 0.500000 0.802930 0.956017
O O6 0.697396 0.000000 0.954853
O O7 0.750976 0.750976 0.000000
O O8 0.283307 0.716694 0.500000
O O9 0.500000 0.694020 0.439266
O O10 0.301039 0.500000 0.438810
O O11 0.247921 0.755700 0.399265
O O12 0.221959 0.500000 0.740234
O O13 0.223448 0.761923 0.700956
O O14 0.000000 0.666280 0.748116
O O15 0.000000 0.208718 0.353004
O O16 0.815002 0.000000 0.354530
#
# Coordination Sequence:
#
# PCOD9556759 Si02
#       5
#     8   8   8   8   8
#     4   9  18  34  57  83 107 133 171 216 257 301
#     4  11  24  39  55  78 107 138 174 214 256 306
#     4   9  19  36  55  73  95 128 172 217 259 307
#     4   8  15  30  52  76 103 137 175 211 248 296
#     4  10  20  32  49  77 109 137 168 208 254 305
#
# _framework density 17.610129000000001
#
# number of rings (size 3 to 8) (size 9 to 14) (size 15 to 20)
#    0.000    2.600    0.000    3.600    0.000    7.600 
#    0.000    6.000    0.000    1.200    0.000    0.000 
#    0.000    0.000    0.000    0.000    0.000    0.000 
#
# Total GULP energy -223129.383643 kJ/mol
# GULP energy per Si atom -5578.234591 kJ/mol
# Density = 1.757005 g / cm^3
# Si number density = 17.610129 Si / 1000 Ang^3
#
#
#
# Elastic Constant Matrix: (Units=GPa)
#
#
# Indices 1 2 3 4 5 6 
#
# 1 56.5113 51.0550 74.9651 0.0000 0.0000 0.0000
# 2 51.0550 56.5115 74.9652 0.0000 0.0000 0.0000
# 3 74.9651 74.9652 186.3187 0.0000 0.0000 0.0000
# 4 0.0000 0.0000 0.0000 35.6643 0.0000 0.0000
# 5 0.0000 0.0000 0.0000 0.0000 35.6644 0.0000
# 6 0.0000 0.0000 0.0000 0.0000 0.0000 27.6478
#
#
#
# Elastic Compliance Matrix: (Units=1/GPa)
#
#
# Indices 1 2 3 4 5 6 
#
# 1 0.102219 -0.081051 -0.008517 0.000000 0.000000 0.000000
# 2 -0.081051 0.102219 -0.008517 0.000000 0.000000 0.000000
# 3 -0.008517 -0.008517 0.012221 0.000000 0.000000 0.000000
# 4 0.000000 0.000000 0.000000 0.028039 0.000000 0.000000
# 5 0.000000 0.000000 0.000000 0.000000 0.028039 0.000000
# 6 0.000000 0.000000 0.000000 0.000000 0.000000 0.036169
#
#
# Mechanical properties :
#
#
# Convention : Reuss Voigt Hill
#
# Bulk Modulus (GPa) = 48.80738 77.92357 63.36547
# Shear Modulus (GPa) = 9.76744 26.35240 18.05992
#
# Velocity S-wave (km/s) = 2.35765 3.87257 3.20588
# Velocity P-wave (km/s) = 5.93187 8.02129 7.05437
#
# Compressibility (1/GPa) = 0.02048870
#
# Stress axis : x y z
#
# Youngs Moduli (GPa) = 9.78292 9.78295 81.82924
#
# Poissons Ratio (x) = 0.79292 0.69692
# Poissons Ratio (y) = 0.79292 0.69692
# Poissons Ratio (z) = 0.08332 0.08332
#
# Static dielectric constant tensor:
#      x y z
#    x 1.584080 0.000000 0.000000 
#    y 0.000000 1.584080 0.000000 
#    z 0.000000 0.000000 1.594560 
# 
# From -- ./inp_files/5109.got.cif
#   From: 2010.05.17/outbox.cif.g08.bks.cpg/sg115_3_cif.got.tgz:5109.got - 2010.05.20 11:07:42.
