data_PCOD9556992
_publ_section_title
;
Structure prediction by ZEFSAII (Michael W. Deem and Ramdas Pophale) SiO2 
 PCOD9556992
Probable space group: P -4 M 2
;
_chemical_formula_sum "Si O2"
_cell_formula_units_Z 44
_cell_length_a 9.112016
_cell_length_b 9.112016
_cell_length_c 29.117048
_cell_angle_alpha 90.000000
_cell_angle_beta 90.000000
_cell_angle_gamma 90.000000
_cell_volume 2417.554591
_symmetry_space_group_name_H-M "P -4 M 2"
_symmetry_group_IT_number 115
_symmetry_cell_setting 'tetragonal'
loop_
_space_group_symop_operation_xyz
x,y,z
y,-x,-z
-x,-y,z
-y,x,-z
y,x,-z
-y,-x,-z
-x,y,z
x,-y,z
loop_
_atom_site_type_symbol
_atom_site_label
_atom_site_fract_x
_atom_site_fract_y
_atom_site_fract_z
Si Si1 0.824087 0.673350 0.856106
Si Si2 0.830527 0.821347 0.050444
Si Si3 0.826972 0.675750 0.682922
Si Si4 0.174271 0.174271 0.500000
Si Si5 0.825025 0.326755 0.230436
Si Si6 0.324513 0.326404 0.413313
O O1 0.797438 0.500000 0.853394
O O2 0.777740 0.735834 0.905737
O O3 0.742563 0.755594 0.815196
O O4 0.000000 0.697455 0.851595
O O5 0.000000 0.774650 0.056578
O O6 0.831076 0.000000 0.048722
O O7 0.775030 0.775030 0.000000
O O8 0.810423 0.500000 0.689416
O O9 0.752913 0.757417 0.725343
O O10 0.749109 0.714653 0.634980
O O11 0.000000 0.708323 0.680600
O O12 0.240084 0.252196 0.455193
O O13 0.000000 0.200017 0.502801
O O14 0.792590 0.500000 0.232609
O O15 0.000000 0.307125 0.229659
O O16 0.500000 0.306918 0.420158
O O17 0.294781 0.500000 0.411471
#
# Coordination Sequence:
#
# PCOD9556992 Si02
#       6
#     8   8   8   4   8   8
#     4  10  20  34  54  80 108 140 179 221 268 322
#     4   8  14  27  49  75 103 138 179 221 265 314
#     4  10  21  38  61  87 113 143 180 222 271 327
#     4  11  24  39  56  82 116 153 192 233 276 320
#     4  11  24  39  55  78 108 143 183 225 271 322
#     4  10  21  38  61  87 114 147 186 226 272 326
#
# _framework density 18.200209000000001
#
# number of rings (size 3 to 8) (size 9 to 14) (size 15 to 20)
#    0.000    2.091    0.000    3.818    0.000    9.455 
#    0.000    0.909    0.000    3.273    0.000    0.000 
#    0.000    0.000    0.000    0.000    0.000    0.000 
#
# Total GULP energy -245755.778395 kJ/mol
# GULP energy per Si atom -5585.358600 kJ/mol
# Density = 1.815878 g / cm^3
# Si number density = 18.200209 Si / 1000 Ang^3
#
#
#
# Elastic Constant Matrix: (Units=GPa)
#
#
# Indices 1 2 3 4 5 6 
#
# 1 86.0234 80.1038 99.7267 0.0000 0.0000 0.0000
# 2 80.1038 86.0234 99.7267 0.0000 0.0000 0.0000
# 3 99.7267 99.7267 215.9327 0.0000 0.0000 0.0000
# 4 0.0000 0.0000 0.0000 45.4215 0.0000 0.0000
# 5 0.0000 0.0000 0.0000 0.0000 45.4215 0.0000
# 6 0.0000 0.0000 0.0000 0.0000 0.0000 26.2270
#
#
#
# Elastic Compliance Matrix: (Units=1/GPa)
#
#
# Indices 1 2 3 4 5 6 
#
# 1 0.091222 -0.077711 -0.006240 0.000000 0.000000 0.000000
# 2 -0.077711 0.091222 -0.006240 0.000000 0.000000 0.000000
# 3 -0.006240 -0.006240 0.010395 0.000000 0.000000 0.000000
# 4 0.000000 0.000000 0.000000 0.022016 0.000000 0.000000
# 5 0.000000 0.000000 0.000000 0.000000 0.022016 0.000000
# 6 0.000000 0.000000 0.000000 0.000000 0.000000 0.038129
#
#
# Mechanical properties :
#
#
# Convention : Reuss Voigt Hill
#
# Bulk Modulus (GPa) = 80.27424 105.23268 92.75346
# Shear Modulus (GPa) = 10.88059 30.64216 20.76138
#
# Velocity S-wave (km/s) = 2.44770 4.10764 3.38112
# Velocity P-wave (km/s) = 7.22429 8.96894 8.14347
#
# Compressibility (1/GPa) = 0.01245730
#
# Stress axis : x y z
#
# Youngs Moduli (GPa) = 10.96226 10.96226 96.20004
#
# Poissons Ratio (x) = 0.85188 0.60030
# Poissons Ratio (y) = 0.85188 0.60030
# Poissons Ratio (z) = 0.06841 0.06841
#
# Static dielectric constant tensor:
#      x y z
#    x 1.607260 0.000000 0.000000 
#    y 0.000000 1.607260 0.000000 
#    z 0.000000 0.000000 1.598940 
# 
# From -- ./inp_files/5797.got.cif
#   From: 2010.05.17/outbox.cif.g08.bks.cpg/sg115_3_cif.got.tgz:5797.got - 2010.05.20 11:07:42.
