data_PCOD9556365
_publ_section_title
;
Structure prediction by ZEFSAII (Michael W. Deem and Ramdas Pophale) SiO2 
 PCOD9556365
Probable space group: P -4 21 C
;
_chemical_formula_sum "Si O2"
_cell_formula_units_Z 32
_cell_length_a 11.439767
_cell_length_b 11.439767
_cell_length_c 10.934673
_cell_angle_alpha 90.000000
_cell_angle_beta 90.000000
_cell_angle_gamma 90.000000
_cell_volume 1431.001728
_symmetry_space_group_name_H-M "P -4 21 C"
_symmetry_group_IT_number 114
_symmetry_cell_setting 'tetragonal'
loop_
_space_group_symop_operation_xyz
x,y,z
y,-x,-z
-x,-y,z
-y,x,-z
1/2+x,1/2-y,1/2-z
1/2-x,1/2+y,1/2-z
1/2-y,1/2-x,1/2+z
1/2+y,1/2+x,1/2+z
loop_
_atom_site_type_symbol
_atom_site_label
_atom_site_fract_x
_atom_site_fract_y
_atom_site_fract_z
Si Si1 0.862151 0.124857 0.462583
Si Si2 0.381061 0.424358 0.310523
Si Si3 0.370151 0.056375 0.185406
Si Si4 0.203739 0.660402 0.566362
O O1 0.868594 0.143131 0.318696
O O2 0.864580 0.379711 0.445930
O O3 0.988080 0.155370 0.518421
O O4 0.500000 0.500000 0.301855
O O5 0.253676 0.484971 0.320211
O O6 0.398990 0.328780 0.415761
O O7 0.357461 0.130715 0.310378
O O8 0.500000 0.000000 0.192965
O O9 0.297194 0.727585 0.037751
#
# Coordination Sequence:
#
# PCOD9556365 Si02
#       4
#     8   8   8   8
#     4  11  21  45  78 110 152 210 262 315 406 497
#     4  12  27  48  79 113 157 205 270 334 401 480
#     4  12  29  48  73 111 156 204 257 330 396 474
#     4  12  27  46  76 111 155 206 266 324 402 479
#
# _framework density 22.361958000000001
#
# number of rings (size 3 to 8) (size 9 to 14) (size 15 to 20)
#    0.000    0.250    7.500    0.750    7.000    4.000 
#    0.000    0.000    0.000    0.000    0.000    0.000 
#    0.000    0.000    0.000    0.000    0.000    0.000 
#
# Total GULP energy -178539.369412 kJ/mol
# GULP energy per Si atom -5579.355294 kJ/mol
# Density = 2.231106 g / cm^3
# Si number density = 22.361958 Si / 1000 Ang^3
#
#
#
# Elastic Constant Matrix: (Units=GPa)
#
#
# Indices 1 2 3 4 5 6 
#
# 1 104.8653 61.4349 52.1107 0.0000 0.0000 0.0000
# 2 61.4349 104.8653 52.1107 0.0000 0.0000 0.0000
# 3 52.1107 52.1107 140.3095 0.0000 0.0000 0.0000
# 4 0.0000 0.0000 0.0000 35.3607 0.0000 0.0000
# 5 0.0000 0.0000 0.0000 0.0000 35.3607 0.0000
# 6 0.0000 0.0000 0.0000 0.0000 0.0000 12.0764
#
#
#
# Elastic Compliance Matrix: (Units=1/GPa)
#
#
# Indices 1 2 3 4 5 6 
#
# 1 0.015431 -0.007594 -0.002911 0.000000 0.000000 0.000000
# 2 -0.007594 0.015431 -0.002911 0.000000 0.000000 0.000000
# 3 -0.002911 -0.002911 0.009289 0.000000 0.000000 0.000000
# 4 0.000000 0.000000 0.000000 0.028280 0.000000 0.000000
# 5 0.000000 0.000000 0.000000 0.000000 0.028280 0.000000
# 6 0.000000 0.000000 0.000000 0.000000 0.000000 0.082806
#
#
# Mechanical properties :
#
#
# Convention : Reuss Voigt Hill
#
# Bulk Modulus (GPa) = 75.07012 75.70587 75.38799
# Shear Modulus (GPa) = 23.72031 28.85180 26.28605
#
# Velocity S-wave (km/s) = 3.26044 3.59586 3.43225
# Velocity P-wave (km/s) = 6.91500 7.15322 7.03512
#
# Compressibility (1/GPa) = 0.01332088
#
# Stress axis : x y z
#
# Youngs Moduli (GPa) = 64.80295 64.80295 107.65129
#
# Poissons Ratio (x) = 0.49211 0.31335
# Poissons Ratio (y) = 0.49211 0.31335
# Poissons Ratio (z) = 0.18863 0.18863
#
# Static dielectric constant tensor:
#      x y z
#    x 1.891590 0.000000 0.000000 
#    y 0.000000 1.891590 0.000000 
#    z 0.000000 0.000000 1.814480 
# 
# From -- ./inp_files/2010.got.cif
#   From: 2010.05.17/outbox.cif.g08.bks.cpg/sg114_2_cif.got.tgz:2010.got - 2010.05.20 11:04:54.
