data_PCOD9556125
_publ_section_title
;
Structure prediction by ZEFSAII (Michael W. Deem and Ramdas Pophale) SiO2 
 PCOD9556125
Probable space group: P -4 21 C
;
_chemical_formula_sum "Si O2"
_cell_formula_units_Z 40
_cell_length_a 6.921460
_cell_length_b 6.921460
_cell_length_c 28.454668
_cell_angle_alpha 90.000000
_cell_angle_beta 90.000000
_cell_angle_gamma 90.000000
_cell_volume 1363.166641
_symmetry_space_group_name_H-M "P -4 21 C"
_symmetry_group_IT_number 114
_symmetry_cell_setting 'tetragonal'
loop_
_space_group_symop_operation_xyz
x,y,z
y,-x,-z
-x,-y,z
-y,x,-z
1/2+x,1/2-y,1/2-z
1/2-x,1/2+y,1/2-z
1/2-y,1/2-x,1/2+z
1/2+y,1/2+x,1/2+z
loop_
_atom_site_type_symbol
_atom_site_label
_atom_site_fract_x
_atom_site_fract_y
_atom_site_fract_z
Si Si1 0.756444 0.819189 0.107159
Si Si2 0.691485 0.872082 0.309329
Si Si3 0.550045 0.772483 0.706274
Si Si4 0.709361 0.775193 0.405646
Si Si5 0.732205 0.811738 0.006014
O O1 0.657478 0.759042 0.057795
O O2 0.975897 0.744866 0.099779
O O3 0.722466 0.799116 0.163076
O O4 0.730389 0.052258 0.101055
O O5 0.654598 0.641144 0.307879
O O6 0.785828 0.893361 0.360914
O O7 0.500000 0.000000 0.308546
O O8 0.792865 0.897244 0.258931
O O9 0.500000 0.000000 0.710316
O O10 0.750469 0.860073 0.456870
O O11 0.954824 0.743936 0.999079
#
# Coordination Sequence:
#
# PCOD9556125 Si02
#       5
#     8   8   8   8   8
#     4   8  14  26  50  77 112 150 189 242 302 359
#     4  10  22  38  56  81 116 158 201 246 305 364
#     4  10  22  37  55  82 115 158 198 251 299 359
#     4   8  14  27  50  78 109 148 195 243 297 354
#     4   7  10  20  42  76 108 141 186 240 293 348
#
# _framework density 29.343439
#
# number of rings (size 3 to 8) (size 9 to 14) (size 15 to 20)
#    0.000    3.400    0.000    2.400    5.600    0.000 
#    0.000    1.000    0.000    0.000    0.000    0.000 
#    0.000    0.000   16.800    0.000    0.000    0.000 
#
# Total GULP energy -223457.417343 kJ/mol
# GULP energy per Si atom -5586.435434 kJ/mol
# Density = 2.927665 g / cm^3
# Si number density = 29.343439 Si / 1000 Ang^3
#
#
#
# Elastic Constant Matrix: (Units=GPa)
#
#
# Indices 1 2 3 4 5 6 
#
# 1 120.1497 20.6883 31.8427 0.0000 0.0000 0.0000
# 2 20.6883 120.1497 31.8427 0.0000 0.0000 0.0000
# 3 31.8427 31.8427 427.4408 0.0000 0.0000 0.0000
# 4 0.0000 0.0000 0.0000 18.4174 0.0000 0.0000
# 5 0.0000 0.0000 0.0000 0.0000 18.4174 0.0000
# 6 0.0000 0.0000 0.0000 0.0000 0.0000 21.8591
#
#
#
# Elastic Compliance Matrix: (Units=1/GPa)
#
#
# Indices 1 2 3 4 5 6 
#
# 1 0.008701 -0.001353 -0.000547 0.000000 0.000000 0.000000
# 2 -0.001353 0.008701 -0.000547 0.000000 0.000000 0.000000
# 3 -0.000547 -0.000547 0.002421 0.000000 0.000000 0.000000
# 4 0.000000 0.000000 0.000000 0.054296 0.000000 0.000000
# 5 0.000000 0.000000 0.000000 0.000000 0.054296 0.000000
# 6 0.000000 0.000000 0.000000 0.000000 0.000000 0.045748
#
#
# Mechanical properties :
#
#
# Convention : Reuss Voigt Hill
#
# Bulk Modulus (GPa) = 66.99153 92.94307 79.96730
# Shear Modulus (GPa) = 27.16873 50.62989 38.89931
#
# Velocity S-wave (km/s) = 3.04614 4.15833 3.64491
# Velocity P-wave (km/s) = 5.93731 7.40261 6.71008
#
# Compressibility (1/GPa) = 0.01492726
#
# Stress axis : x y z
#
# Youngs Moduli (GPa) = 114.92915 114.92915 413.04188
#
# Poissons Ratio (x) = 0.15551 0.22609
# Poissons Ratio (y) = 0.15551 0.22609
# Poissons Ratio (z) = 0.06291 0.06291
#
# Static dielectric constant tensor:
#      x y z
#    x 2.340100 0.000000 0.000000 
#    y 0.000000 2.340100 0.000000 
#    z 0.000000 0.000000 2.330750 
# 
# From -- ./inp_files/3654.got.cif
#   From: 2010.05.17/outbox.cif.g08.bks.cpg/sg114_2_cif.got.tgz:3654.got - 2010.05.20 11:04:54.
