data_PCOD9556965
_publ_section_title
;
Structure prediction by ZEFSAII (Michael W. Deem and Ramdas Pophale) SiO2 
 PCOD9556965
Probable space group: P -4 M 2
;
_chemical_formula_sum "Si O2"
_cell_formula_units_Z 28
_cell_length_a 9.142464
_cell_length_b 9.142464
_cell_length_c 18.761627
_cell_angle_alpha 90.000000
_cell_angle_beta 90.000000
_cell_angle_gamma 90.000000
_cell_volume 1568.183989
_symmetry_space_group_name_H-M "P -4 M 2"
_symmetry_group_IT_number 115
_symmetry_cell_setting 'tetragonal'
loop_
_space_group_symop_operation_xyz
x,y,z
y,-x,-z
-x,-y,z
-y,x,-z
y,x,-z
-y,-x,-z
-x,y,z
x,-y,z
loop_
_atom_site_type_symbol
_atom_site_label
_atom_site_fract_x
_atom_site_fract_y
_atom_site_fract_z
Si Si1 0.821521 0.169465 0.578571
Si Si2 0.827304 0.824323 0.133877
Si Si3 0.821795 0.332484 0.720801
Si Si4 0.673744 0.673744 0.000000
O O1 0.776344 0.223657 0.500000
O O2 0.772491 0.262468 0.646238
O O3 0.000000 0.170905 0.577270
O O4 0.777736 0.000000 0.587464
O O5 0.760662 0.779203 0.210099
O O6 0.746289 0.744506 0.069648
O O7 0.000000 0.794888 0.131700
O O8 0.807062 0.000000 0.126495
O O9 0.774471 0.500000 0.727900
O O10 0.000000 0.331043 0.719143
O O11 0.699714 0.500000 0.999057
#
# Coordination Sequence:
#
# PCOD9556965 Si02
#       4
#     8   8   8   4
#     4   8  13  22  38  61  89 122 162 207 251 294
#     4  10  20  34  54  79 104 131 167 210 253 298
#     4   9  16  26  43  69 100 131 163 203 251 299
#     4  11  24  39  54  74 102 135 168 203 248 302
#
# _framework density 17.855049000000001
#
# number of rings (size 3 to 8) (size 9 to 14) (size 15 to 20)
#    0.000    2.714    0.000    3.429    0.000    8.000 
#    0.000    0.000    0.000    1.714    0.000    4.000 
#    0.000    0.000    0.000    0.000    0.000    0.000 
#
# Total GULP energy -156135.597938 kJ/mol
# GULP energy per Si atom -5576.271355 kJ/mol
# Density = 1.781441 g / cm^3
# Si number density = 17.855049 Si / 1000 Ang^3
#
#
#
# Elastic Constant Matrix: (Units=GPa)
#
#
# Indices 1 2 3 4 5 6 
#
# 1 64.0808 53.1117 76.5623 0.0000 0.0000 0.0000
# 2 53.1117 64.0805 76.5622 0.0000 0.0000 0.0000
# 3 76.5623 76.5622 209.2730 0.0000 0.0000 0.0000
# 4 0.0000 0.0000 0.0000 -10.1093 0.0000 0.0000
# 5 0.0000 0.0000 0.0000 0.0000 -10.1093 0.0000
# 6 0.0000 0.0000 0.0000 0.0000 0.0000 15.7843
#
#
#
# Elastic Compliance Matrix: (Units=1/GPa)
#
#
# Indices 1 2 3 4 5 6 
#
# 1 0.053757 -0.037409 -0.005981 0.000000 0.000000 0.000000
# 2 -0.037409 0.053757 -0.005981 0.000000 0.000000 0.000000
# 3 -0.005981 -0.005981 0.009154 0.000000 0.000000 0.000000
# 4 0.000000 0.000000 0.000000 -0.098919 0.000000 0.000000
# 5 0.000000 0.000000 0.000000 0.000000 -0.098919 0.000000
# 6 0.000000 0.000000 0.000000 0.000000 0.000000 0.063354
#
#
# Mechanical properties :
#
#
# Convention : Reuss Voigt Hill
#
# Bulk Modulus (GPa) = 55.78312 83.32296 69.55304
# Shear Modulus (GPa) = 57.53627 7.85967 32.69797
#
# Velocity S-wave (km/s) = 5.68279 2.10035 4.28401
# Velocity P-wave (km/s) = 8.62373 7.25601 7.96927
#
# Compressibility (1/GPa) = 0.01792657
#
# Stress axis : x y z
#
# Youngs Moduli (GPa) = 18.60235 18.60225 109.23606
#
# Poissons Ratio (x) = 0.69590 0.65330
# Poissons Ratio (y) = 0.69590 0.65331
# Poissons Ratio (z) = 0.11125 0.11125
#
# Static dielectric constant tensor:
#      x y z
#    x 1.593360 0.000000 0.000000 
#    y 0.000000 1.593360 0.000000 
#    z 0.000000 0.000000 1.604110 
# 
# From -- ./inp_files/4012.got.cif
#   From: 2010.05.17/outbox.cif.g08.bks.cpg/sg115_3_cif.got.tgz:4012.got - 2010.05.20 11:07:42.
