data_PCOD9556817
_publ_section_title
;
Structure prediction by ZEFSAII (Michael W. Deem and Ramdas Pophale) SiO2 
 PCOD9556817
Probable space group: P -4 M 2
;
_chemical_formula_sum "Si O2"
_cell_formula_units_Z 37
_cell_length_a 8.007399
_cell_length_b 8.007399
_cell_length_c 27.953560
_cell_angle_alpha 90.000000
_cell_angle_beta 90.000000
_cell_angle_gamma 90.000000
_cell_volume 1792.338625
_symmetry_space_group_name_H-M "P -4 M 2"
_symmetry_group_IT_number 115
_symmetry_cell_setting 'tetragonal'
loop_
_space_group_symop_operation_xyz
x,y,z
y,-x,-z
-x,-y,z
-y,x,-z
y,x,-z
-y,-x,-z
-x,y,z
x,-y,z
loop_
_atom_site_type_symbol
_atom_site_label
_atom_site_fract_x
_atom_site_fract_y
_atom_site_fract_z
Si Si1 0.687679 0.303963 0.152413
Si Si2 0.000000 0.000000 0.500000
Si Si3 0.000000 0.294653 0.423741
Si Si4 0.799918 0.189620 0.050622
Si Si5 0.691822 0.697850 0.355524
Si Si6 0.197276 0.307648 0.747971
O O1 0.500000 0.230657 0.149462
O O2 0.677755 0.500000 0.160362
O O3 0.765731 0.276428 0.100646
O O4 0.772265 0.233833 0.200434
O O5 0.000000 0.170796 0.468809
O O6 0.833091 0.250326 0.393187
O O7 0.000000 0.500000 0.432188
O O8 0.000000 0.183857 0.044529
O O9 0.736502 0.000000 0.055754
O O10 0.736320 0.263681 0.000000
O O11 0.500000 0.767620 0.360063
O O12 0.676776 0.500000 0.361140
O O13 0.757554 0.730761 0.301665
O O14 0.262238 0.500000 0.751225
O O15 0.000000 0.312149 0.742173
#
# Coordination Sequence:
#
# PCOD9556817 Si02
#       6
#     8   1   4   8   8   8
#     4  10  20  33  50  75 108 140 175 224 279 340
#     4  12  28  44  68  96 132 172 212 264 306 352
#     4  10  24  44  64  96 132 166 214 261 307 362
#     4   9  19  36  54  70  93 129 176 228 281 339
#     4   9  18  36  62  89 122 162 202 250 305 359
#     4   9  17  30  52  82 112 147 189 230 280 345
#
# _framework density 20.643419000000002
#
# number of rings (size 3 to 8) (size 9 to 14) (size 15 to 20)
#    0.000    2.595    0.000    1.946    1.514    6.054 
#    1.946    3.243    0.000    0.000    0.000    0.000 
#    0.000    0.000    0.000    0.000    0.000    0.000 
#
# Total GULP energy -206034.570089 kJ/mol
# GULP energy per Si atom -5568.501894 kJ/mol
# Density = 2.059643 g / cm^3
# Si number density = 20.643419 Si / 1000 Ang^3
#
#
#
# Elastic Constant Matrix: (Units=GPa)
#
#
# Indices 1 2 3 4 5 6 
#
# 1 45.4595 18.5800 45.2032 0.0000 0.0000 0.0000
# 2 18.5800 45.4595 45.2032 0.0000 0.0000 0.0000
# 3 45.2032 45.2032 170.1183 0.0000 0.0000 0.0000
# 4 0.0000 0.0000 0.0000 30.6377 0.0000 0.0000
# 5 0.0000 0.0000 0.0000 0.0000 30.6378 0.0000
# 6 0.0000 0.0000 0.0000 0.0000 0.0000 13.1257
#
#
#
# Elastic Compliance Matrix: (Units=1/GPa)
#
#
# Indices 1 2 3 4 5 6 
#
# 1 0.031096 -0.006107 -0.006640 0.000000 0.000000 0.000000
# 2 -0.006107 0.031096 -0.006640 0.000000 0.000000 0.000000
# 3 -0.006640 -0.006640 0.009407 0.000000 0.000000 0.000000
# 4 0.000000 0.000000 0.000000 0.032640 0.000000 0.000000
# 5 0.000000 0.000000 0.000000 0.000000 0.032639 0.000000
# 6 0.000000 0.000000 0.000000 0.000000 0.000000 0.076187
#
#
# Mechanical properties :
#
#
# Convention : Reuss Voigt Hill
#
# Bulk Modulus (GPa) = 30.46421 53.22334 41.84378
# Shear Modulus (GPa) = 19.02727 25.01696 22.02211
#
# Velocity S-wave (km/s) = 3.03926 3.48496 3.26971
# Velocity P-wave (km/s) = 5.20630 6.48317 5.87950
#
# Compressibility (1/GPa) = 0.03282541
#
# Stress axis : x y z
#
# Youngs Moduli (GPa) = 32.15826 32.15823 106.30358
#
# Poissons Ratio (x) = 0.19639 0.70586
# Poissons Ratio (y) = 0.19639 0.70586
# Poissons Ratio (z) = 0.21353 0.21353
#
# Static dielectric constant tensor:
#      x y z
#    x 1.760770 0.000000 0.000000 
#    y 0.000000 1.760770 0.000000 
#    z 0.000000 0.000000 1.774940 
# 
# From -- ./inp_files/5149.got.cif
#   From: 2010.05.17/outbox.cif.g08.bks.cpg/sg115_3_cif.got.tgz:5149.got - 2010.05.20 11:07:42.
