data_PCOD9556682
_publ_section_title
;
Structure prediction by ZEFSAII (Michael W. Deem and Ramdas Pophale) SiO2 
 PCOD9556682
Probable space group: P -4 M 2
;
_chemical_formula_sum "Si O2"
_cell_formula_units_Z 37
_cell_length_a 8.401891
_cell_length_b 8.401891
_cell_length_c 26.373225
_cell_angle_alpha 90.000000
_cell_angle_beta 90.000000
_cell_angle_gamma 90.000000
_cell_volume 1861.732696
_symmetry_space_group_name_H-M "P -4 M 2"
_symmetry_group_IT_number 115
_symmetry_cell_setting 'tetragonal'
loop_
_space_group_symop_operation_xyz
x,y,z
y,-x,-z
-x,-y,z
-y,x,-z
y,x,-z
-y,-x,-z
-x,y,z
x,-y,z
loop_
_atom_site_type_symbol
_atom_site_label
_atom_site_fract_x
_atom_site_fract_y
_atom_site_fract_z
Si Si1 0.307316 0.675392 0.363469
Si Si2 0.000000 0.000000 0.500000
Si Si3 0.694744 0.000000 0.426462
Si Si4 0.817787 0.310303 0.947370
Si Si5 0.820765 0.691521 0.739179
Si Si6 0.321009 0.189792 0.842126
O O1 0.500000 0.668759 0.362536
O O2 0.251602 0.500000 0.381688
O O3 0.251801 0.705010 0.305579
O O4 0.273710 0.835822 0.395192
O O5 0.000000 0.831779 0.530730
O O6 0.500000 0.000000 0.438802
O O7 0.815304 0.500000 0.942835
O O8 0.737572 0.240570 0.897369
O O9 0.000000 0.254801 0.949111
O O10 0.736929 0.263072 0.000000
O O11 0.814342 0.500000 0.739575
O O12 0.781504 0.748594 0.795324
O O13 0.000000 0.739336 0.725452
O O14 0.500000 0.251075 0.834733
O O15 0.321547 0.000000 0.840315
#
# Coordination Sequence:
#
# PCOD9556682 Si02
#       6
#     8   1   4   8   8   8
#     4   9  17  34  63  93 124 168 214 260 321 381
#     4  12  28  44  68 104 132 180 228 264 338 376
#     4  10  22  44  66  94 136 172 220 277 317 382
#     4  11  24  41  61  84 108 141 188 241 299 365
#     4  10  19  34  58  88 121 158 202 253 307 369
#     4  11  24  39  54  80 117 154 197 247 298 362
#
# _framework density 19.87396
#
# number of rings (size 3 to 8) (size 9 to 14) (size 15 to 20)
#    0.000    1.730    1.081    3.243    0.000   10.811 
#    1.946    0.000    0.000    0.000    0.000    0.000 
#    0.000    0.000    0.000    0.000    0.000    0.000 
#
# Total GULP energy -206419.167928 kJ/mol
# GULP energy per Si atom -5578.896430 kJ/mol
# Density = 1.982873 g / cm^3
# Si number density = 19.873960 Si / 1000 Ang^3
#
#
#
# Elastic Constant Matrix: (Units=GPa)
#
#
# Indices 1 2 3 4 5 6 
#
# 1 96.7862 10.4111 40.6290 0.0000 0.0000 0.0000
# 2 10.4111 96.7904 40.6291 0.0000 0.0000 0.0000
# 3 40.6290 40.6291 106.8250 0.0000 0.0000 0.0000
# 4 0.0000 0.0000 0.0000 27.7219 0.0000 0.0000
# 5 0.0000 0.0000 0.0000 0.0000 27.7229 0.0000
# 6 0.0000 0.0000 0.0000 0.0000 0.0000 21.2716
#
#
#
# Elastic Compliance Matrix: (Units=1/GPa)
#
#
# Indices 1 2 3 4 5 6 
#
# 1 0.012342 0.000765 -0.004985 0.000000 0.000000 0.000000
# 2 0.000765 0.012342 -0.004985 0.000000 0.000000 0.000000
# 3 -0.004985 -0.004985 0.013153 0.000000 0.000000 0.000000
# 4 0.000000 0.000000 0.000000 0.036073 0.000000 0.000000
# 5 0.000000 0.000000 0.000000 0.000000 0.036071 0.000000
# 6 0.000000 0.000000 0.000000 0.000000 0.000000 0.047011
#
#
# Mechanical properties :
#
#
# Convention : Reuss Voigt Hill
#
# Bulk Modulus (GPa) = 51.47458 53.74888 52.61173
# Shear Modulus (GPa) = 27.49092 29.25877 28.37485
#
# Velocity S-wave (km/s) = 3.72326 3.84111 3.78264
# Velocity P-wave (km/s) = 6.66636 6.83928 6.75337
#
# Compressibility (1/GPa) = 0.01942706
#
# Stress axis : x y z
#
# Youngs Moduli (GPa) = 81.02119 81.02534 76.02782
#
# Poissons Ratio (x) = -0.06198 0.37901
# Poissons Ratio (y) = -0.06198 0.37900
# Poissons Ratio (z) = 0.40391 0.40391
#
# Static dielectric constant tensor:
#      x y z
#    x 1.725900 0.000000 0.000000 
#    y 0.000000 1.725900 0.000000 
#    z 0.000000 0.000000 1.363390 
# 
# From -- ./inp_files/5161.got.cif
#   From: 2010.05.17/outbox.cif.g08.bks.cpg/sg115_3_cif.got.tgz:5161.got - 2010.05.20 11:07:42.
