data_PCOD9556989
_publ_section_title
;
Structure prediction by ZEFSAII (Michael W. Deem and Ramdas Pophale) SiO2 
 PCOD9556989
Probable space group: P -4 M 2
;
_chemical_formula_sum "Si O2"
_cell_formula_units_Z 48
_cell_length_a 9.167892
_cell_length_b 9.167892
_cell_length_c 31.789877
_cell_angle_alpha 90.000000
_cell_angle_beta 90.000000
_cell_angle_gamma 90.000000
_cell_volume 2671.946910
_symmetry_space_group_name_H-M "P -4 M 2"
_symmetry_group_IT_number 115
_symmetry_cell_setting 'tetragonal'
loop_
_space_group_symop_operation_xyz
x,y,z
y,-x,-z
-x,-y,z
-y,x,-z
y,x,-z
-y,-x,-z
-x,y,z
x,-y,z
loop_
_atom_site_type_symbol
_atom_site_label
_atom_site_fract_x
_atom_site_fract_y
_atom_site_fract_z
Si Si1 0.674754 0.172525 0.211488
Si Si2 0.824463 0.170961 0.047575
Si Si3 0.327304 0.173880 0.709927
Si Si4 0.675328 0.828069 0.368560
Si Si5 0.674914 0.329811 0.124735
Si Si6 0.677497 0.668317 0.453708
O O1 0.500000 0.193134 0.216722
O O2 0.757036 0.251383 0.249288
O O3 0.716945 0.241583 0.166666
O O4 0.704042 0.000000 0.211876
O O5 0.750669 0.264305 0.083738
O O6 0.000000 0.181368 0.050301
O O7 0.785852 0.000000 0.052831
O O8 0.783620 0.216381 0.000000
O O9 0.500000 0.204142 0.710885
O O10 0.256651 0.245205 0.668671
O O11 0.305988 0.000000 0.709431
O O12 0.500000 0.807656 0.364512
O O13 0.720488 0.764478 0.413939
O O14 0.705124 0.000000 0.365890
O O15 0.500000 0.316732 0.120125
O O16 0.710834 0.500000 0.129987
O O17 0.722970 0.722970 0.500000
O O18 0.500000 0.666972 0.455210
O O19 0.724505 0.500000 0.447834
#
# Coordination Sequence:
#
# PCOD9556989 Si02
#       6
#     8   8   8   8   8   8
#     4  10  21  38  60  83 106 137 177 217 261 316
#     4   9  19  36  56  78 106 142 183 223 264 313
#     4  11  24  39  55  78 107 139 176 218 265 315
#     4  10  20  34  54  80 108 140 178 217 261 315
#     4  10  21  36  55  81 111 141 175 217 264 313
#     4   8  14  27  49  75 102 135 176 219 260 303
#
# _framework density 17.964427000000001
#
# number of rings (size 3 to 8) (size 9 to 14) (size 15 to 20)
#    0.000    2.333    0.000    3.500    0.000    8.000 
#    0.000    3.333    0.000    3.000    0.000    0.000 
#    0.000    0.000    0.000    0.000    0.000    0.000 
#
# Total GULP energy -267952.393680 kJ/mol
# GULP energy per Si atom -5582.341535 kJ/mol
# Density = 1.792354 g / cm^3
# Si number density = 17.964427 Si / 1000 Ang^3
#
#
#
# Elastic Constant Matrix: (Units=GPa)
#
#
# Indices 1 2 3 4 5 6 
#
# 1 80.2071 65.7996 89.9979 0.0000 0.0000 0.0000
# 2 65.7996 80.2069 89.9978 0.0000 0.0000 0.0000
# 3 89.9979 89.9978 204.1676 0.0000 0.0000 0.0000
# 4 0.0000 0.0000 0.0000 90.2128 0.0000 0.0000
# 5 0.0000 0.0000 0.0000 0.0000 90.2109 0.0000
# 6 0.0000 0.0000 0.0000 0.0000 0.0000 26.2883
#
#
#
# Elastic Compliance Matrix: (Units=1/GPa)
#
#
# Indices 1 2 3 4 5 6 
#
# 1 0.042205 -0.027204 -0.006612 0.000000 0.000000 0.000000
# 2 -0.027204 0.042205 -0.006612 0.000000 0.000000 0.000000
# 3 -0.006612 -0.006612 0.010727 0.000000 0.000000 0.000000
# 4 0.000000 0.000000 0.000000 0.011085 0.000000 0.000000
# 5 0.000000 0.000000 0.000000 0.000000 0.011085 0.000000
# 6 0.000000 0.000000 0.000000 0.000000 0.000000 0.038040
#
#
# Mechanical properties :
#
#
# Convention : Reuss Voigt Hill
#
# Bulk Modulus (GPa) = 70.03118 95.13027 82.58072
# Shear Modulus (GPa) = 20.75001 49.26150 35.00576
#
# Velocity S-wave (km/s) = 3.40231 5.24225 4.41910
# Velocity P-wave (km/s) = 7.38256 9.47161 8.49157
#
# Compressibility (1/GPa) = 0.01427935
#
# Stress axis : x y z
#
# Youngs Moduli (GPa) = 23.69407 23.69403 93.21895
#
# Poissons Ratio (x) = 0.64457 0.61640
# Poissons Ratio (y) = 0.64457 0.61640
# Poissons Ratio (z) = 0.15667 0.15667
#
# Static dielectric constant tensor:
#      x y z
#    x 1.598300 0.000000 0.000000 
#    y 0.000000 1.598300 0.000000 
#    z 0.000000 0.000000 1.595040 
# 
# From -- ./inp_files/5976.got.cif
#   From: 2010.05.17/outbox.cif.g08.bks.cpg/sg115_3_cif.got.tgz:5976.got - 2010.05.20 11:07:42.
