data_PCOD9556719
_publ_section_title
;
Structure prediction by ZEFSAII (Michael W. Deem and Ramdas Pophale) SiO2 
 PCOD9556719
Probable space group: P -4 M 2
;
_chemical_formula_sum "Si O2"
_cell_formula_units_Z 48
_cell_length_a 9.405402
_cell_length_b 9.405402
_cell_length_c 31.907197
_cell_angle_alpha 90.000000
_cell_angle_beta 90.000000
_cell_angle_gamma 90.000000
_cell_volume 2822.561276
_symmetry_space_group_name_H-M "P -4 M 2"
_symmetry_group_IT_number 115
_symmetry_cell_setting 'tetragonal'
loop_
_space_group_symop_operation_xyz
x,y,z
y,-x,-z
-x,-y,z
-y,x,-z
y,x,-z
-y,-x,-z
-x,y,z
x,-y,z
loop_
_atom_site_type_symbol
_atom_site_label
_atom_site_fract_x
_atom_site_fract_y
_atom_site_fract_z
Si Si1 0.668370 0.330316 0.048019
Si Si2 0.663899 0.673009 0.453678
Si Si3 0.336689 0.172822 0.203102
Si Si4 0.670262 0.169058 0.297488
Si Si5 0.829133 0.833041 0.879019
Si Si6 0.328916 0.833001 0.629029
O O1 0.500000 0.302054 0.053305
O O2 0.688962 0.500000 0.052709
O O3 0.756630 0.245813 0.082233
O O4 0.706993 0.293008 0.000000
O O5 0.716149 0.716149 0.500000
O O6 0.500000 0.719217 0.447584
O O7 0.662223 0.500000 0.454843
O O8 0.760133 0.716397 0.414722
O O9 0.500000 0.218195 0.196109
O O10 0.291685 0.215550 0.249986
O O11 0.238541 0.217925 0.164742
O O12 0.337154 0.000000 0.203668
O O13 0.500000 0.188755 0.302009
O O14 0.754055 0.254268 0.332551
O O15 0.698273 0.000000 0.301293
O O16 0.000000 0.814843 0.882311
O O17 0.798106 0.000000 0.878816
O O18 0.500000 0.816895 0.632376
O O19 0.295995 0.000000 0.629015
#
# Coordination Sequence:
#
# PCOD9556719 Si02
#       6
#     8   8   8   8   8   8
#     4   9  19  36  55  73  95 127 167 206 243 286
#     4   8  14  27  48  69  88 118 162 205 241 280
#     4   8  15  30  51  72  95 126 165 205 242 284
#     4   9  18  33  53  75  96 123 165 210 245 283
#     4  10  20  32  49  76 105 130 159 197 242 292
#     4  10  20  32  47  71 103 134 161 193 240 295
#
# _framework density 17.00583
#
# number of rings (size 3 to 8) (size 9 to 14) (size 15 to 20)
#    0.000    3.000    0.000    3.000    0.000    4.000 
#    0.000    5.833    0.000    4.000    0.000    0.000 
#    0.000    0.000    0.000    0.000    0.000    0.000 
#
# Total GULP energy -267500.262388 kJ/mol
# GULP energy per Si atom -5572.922133 kJ/mol
# Density = 1.696712 g / cm^3
# Si number density = 17.005830 Si / 1000 Ang^3
#
#
#
# Elastic Constant Matrix: (Units=GPa)
#
#
# Indices 1 2 3 4 5 6 
#
# 1 52.4074 46.9655 85.2022 0.0000 0.0000 0.0000
# 2 46.9655 52.4074 85.2023 0.0000 0.0000 0.0000
# 3 85.2022 85.2023 211.3685 0.0000 0.0000 0.0000
# 4 0.0000 0.0000 0.0000 82.7556 0.0000 0.0000
# 5 0.0000 0.0000 0.0000 0.0000 82.7587 0.0000
# 6 0.0000 0.0000 0.0000 0.0000 0.0000 23.8241
#
#
#
# Elastic Compliance Matrix: (Units=1/GPa)
#
#
# Indices 1 2 3 4 5 6 
#
# 1 0.108175 -0.075584 -0.013137 0.000000 0.000000 0.000000
# 2 -0.075584 0.108175 -0.013137 0.000000 0.000000 0.000000
# 3 -0.013137 -0.013137 0.015322 0.000000 0.000000 0.000000
# 4 0.000000 0.000000 0.000000 0.012084 0.000000 0.000000
# 5 0.000000 0.000000 0.000000 0.000000 0.012083 0.000000
# 6 0.000000 0.000000 0.000000 0.000000 0.000000 0.041974
#
#
# Mechanical properties :
#
#
# Convention : Reuss Voigt Hill
#
# Bulk Modulus (GPa) = 35.77178 83.43590 59.60384
# Shear Modulus (GPa) = 9.78759 44.45525 27.12142
#
# Velocity S-wave (km/s) = 2.40165 5.11839 3.99787
# Velocity P-wave (km/s) = 5.36388 9.17062 7.51237
#
# Compressibility (1/GPa) = 0.02795500
#
# Stress axis : x y z
#
# Youngs Moduli (GPa) = 9.24425 9.24424 65.26393
#
# Poissons Ratio (x) = 0.69872 0.85739
# Poissons Ratio (y) = 0.69872 0.85740
# Poissons Ratio (z) = 0.12144 0.12145
#
# Static dielectric constant tensor:
#      x y z
#    x 1.561710 0.000000 0.000000 
#    y 0.000000 1.561710 0.000000 
#    z 0.000000 0.000000 1.573810 
# 
# From -- ./inp_files/6029.got.cif
#   From: 2010.05.17/outbox.cif.g08.bks.cpg/sg115_4_cif.got.tgz:6029.got - 2010.05.20 11:07:42.
