data_PCOD9556697
_publ_section_title
;
Structure prediction by ZEFSAII (Michael W. Deem and Ramdas Pophale) SiO2 
 PCOD9556697
Probable space group: P -4 M 2
;
_chemical_formula_sum "Si O2"
_cell_formula_units_Z 40
_cell_length_a 15.174557
_cell_length_b 15.174557
_cell_length_c 8.702261
_cell_angle_alpha 90.000000
_cell_angle_beta 90.000000
_cell_angle_gamma 90.000000
_cell_volume 2003.845101
_symmetry_space_group_name_H-M "P -4 M 2"
_symmetry_group_IT_number 115
_symmetry_cell_setting 'tetragonal'
loop_
_space_group_symop_operation_xyz
x,y,z
y,-x,-z
-x,-y,z
-y,x,-z
y,x,-z
-y,-x,-z
-x,y,z
x,-y,z
loop_
_atom_site_type_symbol
_atom_site_label
_atom_site_fract_x
_atom_site_fract_y
_atom_site_fract_z
Si Si1 0.807045 0.731010 0.155600
Si Si2 0.102191 0.633648 0.610809
Si Si3 0.727919 0.397721 0.404580
Si Si4 0.594449 0.103730 0.039082
Si Si5 0.903915 0.160113 0.655070
O O1 0.747824 0.671822 0.268085
O O2 0.845525 0.818608 0.235937
O O3 0.757011 0.757011 0.000000
O O4 0.880295 0.666122 0.089705
O O5 0.179362 0.601209 0.499855
O O6 0.132118 0.615727 0.786662
O O7 0.098757 0.738906 0.597844
O O8 0.000000 0.602392 0.586768
O O9 0.649016 0.350985 0.500000
O O10 0.708498 0.500000 0.363665
O O11 0.500000 0.142234 0.992337
O O12 0.587583 0.000000 0.055470
O O13 0.895415 0.104586 0.500000
O O14 0.000000 0.145177 0.729852
#
# Coordination Sequence:
#
# PCOD9556697 Si02
#       5
#     8   8   8   8   8
#     4  12  22  39  62  92 129 167 208 254 329 386
#     4  10  19  38  67  95 125 163 209 262 321 379
#     4  12  24  42  65  94 126 164 212 261 315 377
#     4  10  21  36  57  90 130 170 209 258 320 381
#     4  11  22  41  66  89 123 170 222 267 318 382
#
# _framework density 19.961624
#
# number of rings (size 3 to 8) (size 9 to 14) (size 15 to 20)
#    0.000    1.000    6.000    1.200    0.000    3.200 
#    0.000    1.000    0.000    0.000    0.000    0.000 
#    0.000    0.000    0.000    0.000    0.000    0.000 
#
# Total GULP energy -222986.151221 kJ/mol
# GULP energy per Si atom -5574.653781 kJ/mol
# Density = 1.991619 g / cm^3
# Si number density = 19.961624 Si / 1000 Ang^3
#
#
#
# Elastic Constant Matrix: (Units=GPa)
#
#
# Indices 1 2 3 4 5 6 
#
# 1 119.2343 12.8574 44.2939 0.0000 0.0000 0.0000
# 2 12.8574 119.2341 44.2939 0.0000 0.0000 0.0000
# 3 44.2939 44.2939 96.1821 0.0000 0.0000 0.0000
# 4 0.0000 0.0000 0.0000 -228.6261 0.0000 0.0000
# 5 0.0000 0.0000 0.0000 0.0000 -227.8527 0.0000
# 6 0.0000 0.0000 0.0000 0.0000 0.0000 18.9286
#
#
#
# Elastic Compliance Matrix: (Units=1/GPa)
#
#
# Indices 1 2 3 4 5 6 
#
# 1 0.010177 0.000776 -0.005044 0.000000 0.000000 0.000000
# 2 0.000776 0.010177 -0.005044 0.000000 0.000000 0.000000
# 3 -0.005044 -0.005044 0.015043 0.000000 0.000000 0.000000
# 4 0.000000 0.000000 0.000000 -0.004374 0.000000 0.000000
# 5 0.000000 0.000000 0.000000 0.000000 -0.004389 0.000000
# 6 0.000000 0.000000 0.000000 0.000000 0.000000 0.052830
#
#
# Mechanical properties :
#
#
# Convention : Reuss Voigt Hill
#
# Bulk Modulus (GPa) = 59.62070 59.72677 59.67374
# Shear Modulus (GPa) = 48.22553 -71.96303 -11.86875
#
# Velocity S-wave (km/s) = 4.92053 -6.01074 -2.44104
# Velocity P-wave (km/s) = 7.88762 4.26453 4.69193
#
# Compressibility (1/GPa) = 0.01677270
#
# Stress axis : x y z
#
# Youngs Moduli (GPa) = 98.26074 98.26045 66.47624
#
# Poissons Ratio (x) = -0.07630 0.33533
# Poissons Ratio (y) = -0.07630 0.33533
# Poissons Ratio (z) = 0.49566 0.49566
#
# Static dielectric constant tensor:
#      x y z
#    x 1.922260 0.000000 0.000000 
#    y 0.000000 1.922690 0.000000 
#    z 0.000000 0.000000 1.729610 
# 
# From -- ./inp_files/1575.got.cif
#   From: 2010.05.17/outbox.cif.g08.bks.cpg/sg115_1_cif.got.tgz:1575.got - 2010.05.20 11:07:42.
