data_PCOD9556031
_publ_section_title
;
Structure prediction by ZEFSAII (Michael W. Deem and Ramdas Pophale) SiO2 
 PCOD9556031
Probable space group: P -4 21 C
;
_chemical_formula_sum "Si O2"
_cell_formula_units_Z 38
_cell_length_a 8.447109
_cell_length_b 8.447109
_cell_length_c 24.747094
_cell_angle_alpha 90.000000
_cell_angle_beta 90.000000
_cell_angle_gamma 90.000000
_cell_volume 1765.795495
_symmetry_space_group_name_H-M "P -4 21 C"
_symmetry_group_IT_number 114
_symmetry_cell_setting 'tetragonal'
loop_
_space_group_symop_operation_xyz
x,y,z
y,-x,-z
-x,-y,z
-y,x,-z
1/2+x,1/2-y,1/2-z
1/2-x,1/2+y,1/2-z
1/2-y,1/2-x,1/2+z
1/2+y,1/2+x,1/2+z
loop_
_atom_site_type_symbol
_atom_site_label
_atom_site_fract_x
_atom_site_fract_y
_atom_site_fract_z
Si Si1 0.624344 0.779548 0.744479
Si Si2 0.748173 0.578981 0.355489
Si Si3 0.581954 0.295707 0.401582
Si Si4 0.177798 0.991905 0.676456
Si Si5 0.000000 0.000000 0.000000
Si Si6 0.000000 0.500000 0.660261
O O1 0.471145 0.763125 0.706699
O O2 0.662928 0.611962 0.769051
O O3 0.588038 0.885556 0.796929
O O4 0.751151 0.849938 0.702549
O O5 0.728017 0.413075 0.387668
O O6 0.579016 0.654471 0.369599
O O7 0.895600 0.698892 0.361861
O O8 0.538232 0.347855 0.462496
O O9 0.597231 0.117555 0.379798
O O10 0.000000 0.000000 0.653616
#
# Coordination Sequence:
#
# PCOD9556031 Si02
#       6
#     8   8   8   8   2   4
#     4  12  24  36  53  87 138 177 213 254 316 394
#     4  10  21  37  54  92 124 173 212 258 305 391
#     4  10  23  40  73  90 125 164 234 271 342 400
#     4  12  25  35  54  82 135 187 226 256 306 379
#     4   8  20  48  68  88 112 156 220 308 316 394
#     4  12  22  36  64 100 124 174 210 266 334 420
#
# _framework density 21.520046000000001
#
# number of rings (size 3 to 8) (size 9 to 14) (size 15 to 20)
#    0.000    1.263    4.211    2.526    8.842    0.000 
#    0.000    0.000   18.526    0.000    0.000    0.000 
#    0.000    0.000    0.000    0.000    0.000    0.000 
#
# Total GULP energy -211715.656331 kJ/mol
# GULP energy per Si atom -5571.464640 kJ/mol
# Density = 2.147107 g / cm^3
# Si number density = 21.520046 Si / 1000 Ang^3
#
#
#
# Elastic Constant Matrix: (Units=GPa)
#
#
# Indices 1 2 3 4 5 6 
#
# 1 73.3444 26.0181 31.9220 0.0000 0.0000 0.0000
# 2 26.0181 73.3444 31.9220 0.0000 0.0000 0.0000
# 3 31.9220 31.9220 103.3281 0.0000 0.0000 0.0000
# 4 0.0000 0.0000 0.0000 -94.5256 0.0000 0.0000
# 5 0.0000 0.0000 0.0000 0.0000 -94.5256 0.0000
# 6 0.0000 0.0000 0.0000 0.0000 0.0000 47.6881
#
#
#
# Elastic Compliance Matrix: (Units=1/GPa)
#
#
# Indices 1 2 3 4 5 6 
#
# 1 0.016843 -0.004287 -0.003879 0.000000 0.000000 0.000000
# 2 -0.004287 0.016843 -0.003879 0.000000 0.000000 0.000000
# 3 -0.003879 -0.003879 0.012075 0.000000 0.000000 0.000000
# 4 0.000000 0.000000 0.000000 -0.010579 0.000000 0.000000
# 5 0.000000 0.000000 0.000000 0.000000 -0.010579 0.000000
# 6 0.000000 0.000000 0.000000 0.000000 0.000000 0.020970
#
#
# Mechanical properties :
#
#
# Convention : Reuss Voigt Hill
#
# Bulk Modulus (GPa) = 46.14407 47.74898 46.94652
# Shear Modulus (GPa) = 65.03080 -17.59563 23.71759
#
# Velocity S-wave (km/s) = 5.50312 -2.86254 3.32341
# Velocity P-wave (km/s) = 7.86562 3.36315 6.04892
#
# Compressibility (1/GPa) = 0.02167126
#
# Stress axis : x y z
#
# Youngs Moduli (GPa) = 59.37075 59.37075 82.81707
#
# Poissons Ratio (x) = 0.25450 0.32127
# Poissons Ratio (y) = 0.25450 0.32127
# Poissons Ratio (z) = 0.23031 0.23031
#
# Static dielectric constant tensor:
#      x y z
#    x 1.987830 0.000000 0.000000 
#    y 0.000000 1.987830 0.000000 
#    z 0.000000 0.000000 1.737120 
# 
# From -- ./inp_files/3442.got.cif
#   From: 2010.05.17/outbox.cif.g08.bks.cpg/sg114_2_cif.got.tgz:3442.got - 2010.05.20 11:04:54.
