data_PCOD9556558
_publ_section_title
;
Structure prediction by ZEFSAII (Michael W. Deem and Ramdas Pophale) SiO2 
 PCOD9556558
Probable space group: P -4 M 2
;
_chemical_formula_sum "Si O2"
_cell_formula_units_Z 33
_cell_length_a 11.650348
_cell_length_b 11.650348
_cell_length_c 15.687675
_cell_angle_alpha 90.000000
_cell_angle_beta 90.000000
_cell_angle_gamma 90.000000
_cell_volume 2129.297674
_symmetry_space_group_name_H-M "P -4 M 2"
_symmetry_group_IT_number 115
_symmetry_cell_setting 'tetragonal'
loop_
_space_group_symop_operation_xyz
x,y,z
y,-x,-z
-x,-y,z
-y,x,-z
y,x,-z
-y,-x,-z
-x,y,z
x,-y,z
loop_
_atom_site_type_symbol
_atom_site_label
_atom_site_fract_x
_atom_site_fract_y
_atom_site_fract_z
Si Si1 0.257954 0.000000 0.461539
Si Si2 0.754930 0.637852 0.266243
Si Si3 0.758829 0.364272 0.579078
Si Si4 0.632707 0.360573 0.094993
Si Si5 0.000000 0.362019 0.348852
Si Si6 0.000000 0.000000 0.500000
O O1 0.311630 0.114252 0.422678
O O2 0.292452 0.000000 0.562350
O O3 0.120899 0.000000 0.450767
O O4 0.742595 0.500000 0.270651
O O5 0.671726 0.694806 0.335115
O O6 0.715351 0.674734 0.172000
O O7 0.885103 0.663781 0.295322
O O8 0.691053 0.308948 0.500000
O O9 0.764239 0.500000 0.568575
O O10 0.500000 0.323394 0.109168
O O11 0.630215 0.500000 0.093654
O O12 0.672637 0.327363 0.000000
O O13 0.000000 0.500000 0.368536
#
# Coordination Sequence:
#
# PCOD9556558 Si02
#       6
#     4   8   8   8   4   1
#     4  12  22  38  52  71  97 134 179 218 255 293
#     4  10  19  31  49  73 100 131 171 211 251 310
#     4  12  23  34  50  72 103 136 167 209 257 304
#     4   8  14  26  45  69  96 124 157 204 260 314
#     4  10  18  32  48  67 100 135 168 212 258 296
#     4  12  20  36  60  68  84 128 186 220 232 288
#
# _framework density 15.498068
#
# number of rings (size 3 to 8) (size 9 to 14) (size 15 to 20)
#    0.000    1.697    3.636    3.273    0.000    2.667 
#    0.000    0.000    0.000    1.455    0.000    5.091 
#    0.000    0.000    0.000    0.000    0.000    0.000 
#
# Total GULP energy -184056.842954 kJ/mol
# GULP energy per Si atom -5577.480090 kJ/mol
# Density = 1.546279 g / cm^3
# Si number density = 15.498068 Si / 1000 Ang^3
#
#
#
# Elastic Constant Matrix: (Units=GPa)
#
#
# Indices 1 2 3 4 5 6 
#
# 1 63.5913 23.1511 11.6237 0.0000 0.0000 0.0000
# 2 23.1511 63.5939 11.6238 0.0000 0.0000 0.0000
# 3 11.6237 11.6238 98.0569 0.0000 0.0000 0.0000
# 4 0.0000 0.0000 0.0000 -4.5966 0.0000 0.0000
# 5 0.0000 0.0000 0.0000 0.0000 -4.6002 0.0000
# 6 0.0000 0.0000 0.0000 0.0000 0.0000 15.1909
#
#
#
# Elastic Compliance Matrix: (Units=1/GPa)
#
#
# Indices 1 2 3 4 5 6 
#
# 1 0.018317 -0.006410 -0.001411 0.000000 0.000000 0.000000
# 2 -0.006410 0.018316 -0.001411 0.000000 0.000000 0.000000
# 3 -0.001411 -0.001411 0.010533 0.000000 0.000000 0.000000
# 4 0.000000 0.000000 0.000000 -0.217554 0.000000 0.000000
# 5 0.000000 0.000000 0.000000 0.000000 -0.217381 0.000000
# 6 0.000000 0.000000 0.000000 0.000000 0.000000 0.065829
#
#
# Mechanical properties :
#
#
# Convention : Reuss Voigt Hill
#
# Bulk Modulus (GPa) = 34.84306 35.33769 35.09038
# Shear Modulus (GPa) = -17.01215 13.12173 -1.94521
#
# Velocity S-wave (km/s) = -3.31674 2.91291 -1.12154
# Velocity P-wave (km/s) = 2.80416 5.84502 4.58408
#
# Compressibility (1/GPa) = 0.02870012
#
# Stress axis : x y z
#
# Youngs Moduli (GPa) = 54.59361 54.59590 94.94174
#
# Poissons Ratio (x) = 0.34998 0.13400
# Poissons Ratio (y) = 0.34996 0.13400
# Poissons Ratio (z) = 0.07706 0.07706
#
# Static dielectric constant tensor:
#      x y z
#    x 1.512600 0.000000 0.000000 
#    y 0.000000 1.512600 0.000000 
#    z 0.000000 0.000000 1.516360 
# 
# From -- ./inp_files/3541.got.cif
#   From: 2010.05.17/outbox.cif.g08.bks.cpg/sg115_2_cif.got.tgz:3541.got - 2010.05.20 11:07:42.
