data_PCOD9556752
_publ_section_title
;
Structure prediction by ZEFSAII (Michael W. Deem and Ramdas Pophale) SiO2 
 PCOD9556752
Probable space group: P -4 M 2
;
_chemical_formula_sum "Si O2"
_cell_formula_units_Z 48
_cell_length_a 9.553014
_cell_length_b 9.553014
_cell_length_c 31.549124
_cell_angle_alpha 90.000000
_cell_angle_beta 90.000000
_cell_angle_gamma 90.000000
_cell_volume 2879.175469
_symmetry_space_group_name_H-M "P -4 M 2"
_symmetry_group_IT_number 115
_symmetry_cell_setting 'tetragonal'
loop_
_space_group_symop_operation_xyz
x,y,z
y,-x,-z
-x,-y,z
-y,x,-z
y,x,-z
-y,-x,-z
-x,y,z
x,-y,z
loop_
_atom_site_type_symbol
_atom_site_label
_atom_site_fract_x
_atom_site_fract_y
_atom_site_fract_z
Si Si1 0.331685 0.165101 0.296528
Si Si2 0.670066 0.339432 0.214393
Si Si3 0.834162 0.832951 0.951609
Si Si4 0.167400 0.665976 0.367649
Si Si5 0.834545 0.333565 0.465005
Si Si6 0.332087 0.334864 0.881011
O O1 0.500000 0.182931 0.300885
O O2 0.288040 0.237640 0.252257
O O3 0.253130 0.242876 0.334514
O O4 0.301888 0.000000 0.296196
O O5 0.500000 0.341585 0.213473
O O6 0.715568 0.500000 0.222375
O O7 0.713163 0.296179 0.166951
O O8 0.746827 0.751006 0.916775
O O9 0.000000 0.805229 0.946653
O O10 0.814039 0.000000 0.947326
O O11 0.794649 0.794649 0.000000
O O12 0.195364 0.500000 0.361607
O O13 0.203647 0.702388 0.416401
O O14 0.000000 0.685867 0.362603
O O15 0.748831 0.251169 0.500000
O O16 0.813363 0.500000 0.469811
O O17 0.000000 0.305981 0.469893
O O18 0.500000 0.321075 0.885127
O O19 0.298511 0.500000 0.884702
#
# Coordination Sequence:
#
# PCOD9556752 Si02
#       6
#     8   8   8   8   8   8
#     4  10  20  32  49  76 104 128 160 203 246 288
#     4   8  15  30  50  70  96 130 163 196 239 290
#     4   9  19  35  51  68  95 131 167 201 239 286
#     4   9  19  36  54  71  96 132 169 202 240 288
#     4   9  19  35  53  74 100 129 163 203 244 288
#     4   9  18  32  51  76 101 124 157 202 246 289
#
# _framework density 16.67144
#
# number of rings (size 3 to 8) (size 9 to 14) (size 15 to 20)
#    0.000    3.000    0.000    3.000    0.000    5.000 
#    0.000   10.000    0.000    1.000    0.000    0.000 
#    0.000    0.000    0.000    0.000    0.000    0.000 
#
# Total GULP energy -267530.026864 kJ/mol
# GULP energy per Si atom -5573.542226 kJ/mol
# Density = 1.663350 g / cm^3
# Si number density = 16.671440 Si / 1000 Ang^3
#
#
#
# Elastic Constant Matrix: (Units=GPa)
#
#
# Indices 1 2 3 4 5 6 
#
# 1 56.5723 51.7051 91.2999 0.0000 0.0000 0.0000
# 2 51.7051 56.5723 91.2999 0.0000 0.0000 0.0000
# 3 91.2999 91.2999 198.2989 0.0000 0.0000 0.0000
# 4 0.0000 0.0000 0.0000 331.5293 0.0000 0.0000
# 5 0.0000 0.0000 0.0000 0.0000 331.5293 0.0000
# 6 0.0000 0.0000 0.0000 0.0000 0.0000 30.9515
#
#
#
# Elastic Compliance Matrix: (Units=1/GPa)
#
#
# Indices 1 2 3 4 5 6 
#
# 1 0.123386 -0.082073 -0.019021 0.000000 0.000000 0.000000
# 2 -0.082073 0.123386 -0.019021 0.000000 0.000000 0.000000
# 3 -0.019021 -0.019021 0.022558 0.000000 0.000000 0.000000
# 4 0.000000 0.000000 0.000000 0.003016 0.000000 0.000000
# 5 0.000000 0.000000 0.000000 0.000000 0.003016 0.000000
# 6 0.000000 0.000000 0.000000 0.000000 0.000000 0.032309
#
#
# Mechanical properties :
#
#
# Convention : Reuss Voigt Hill
#
# Bulk Modulus (GPa) = 34.36496 86.67259 60.51878
# Shear Modulus (GPa) = 8.96697 143.94461 76.45579
#
# Velocity S-wave (km/s) = 2.32171 9.30212 6.77937
# Velocity P-wave (km/s) = 5.27683 12.94118 9.88228
#
# Compressibility (1/GPa) = 0.02909941
#
# Stress axis : x y z
#
# Youngs Moduli (GPa) = 8.10465 8.10465 44.33010
#
# Poissons Ratio (x) = 0.66518 0.84320
# Poissons Ratio (y) = 0.66518 0.84320
# Poissons Ratio (z) = 0.15416 0.15416
#
# Static dielectric constant tensor:
#      x y z
#    x 1.543560 0.000000 0.000000 
#    y 0.000000 1.543560 0.000000 
#    z 0.000000 0.000000 1.554590 
# 
# From -- ./inp_files/5977.got.cif
#   From: 2010.05.17/outbox.cif.g08.bks.cpg/sg115_3_cif.got.tgz:5977.got - 2010.05.20 11:07:42.
