data_PCOD9556648
_publ_section_title
;
Structure prediction by ZEFSAII (Michael W. Deem and Ramdas Pophale) SiO2 
 PCOD9556648
Probable space group: P -4 M 2
;
_chemical_formula_sum "Si O2"
_cell_formula_units_Z 40
_cell_length_a 8.054218
_cell_length_b 8.054218
_cell_length_c 30.438146
_cell_angle_alpha 90.000000
_cell_angle_beta 90.000000
_cell_angle_gamma 90.000000
_cell_volume 1974.535546
_symmetry_space_group_name_H-M "P -4 M 2"
_symmetry_group_IT_number 115
_symmetry_cell_setting 'tetragonal'
loop_
_space_group_symop_operation_xyz
x,y,z
y,-x,-z
-x,-y,z
-y,x,-z
y,x,-z
-y,-x,-z
-x,y,z
x,-y,z
loop_
_atom_site_type_symbol
_atom_site_label
_atom_site_fract_x
_atom_site_fract_y
_atom_site_fract_z
Si Si1 0.201129 0.687602 0.547741
Si Si2 0.204314 0.000000 0.707864
Si Si3 0.302037 0.815014 0.953944
Si Si4 0.310870 0.196540 0.235330
Si Si5 0.301233 0.309758 0.139494
Si Si6 0.202380 0.000000 0.606614
O O1 0.277015 0.722986 0.500000
O O2 0.242178 0.500000 0.562219
O O3 0.000000 0.697817 0.543561
O O4 0.254437 0.833965 0.580665
O O5 0.261734 0.833131 0.732838
O O6 0.255433 0.000000 0.657127
O O7 0.000000 0.000000 0.709224
O O8 0.500000 0.815484 0.947945
O O9 0.234520 0.749911 0.907447
O O10 0.238947 0.000000 0.960084
O O11 0.274138 0.725863 0.000000
O O12 0.500000 0.265118 0.240528
O O13 0.255772 0.221056 0.184716
O O14 0.322577 0.000000 0.243388
O O15 0.500000 0.314429 0.138380
O O16 0.239495 0.500000 0.142909
O O17 0.000000 0.000000 0.606570
#
# Coordination Sequence:
#
# PCOD9556648 Si02
#       6
#     8   4   8   8   8   4
#     4  10  19  32  55  83 112 151 194 239 292 345
#     4   9  18  32  51  79 111 147 184 228 284 326
#     4  10  21  35  51  73 100 130 165 208 259 320
#     4   9  18  32  51  75 104 139 182 229 274 330
#     4   9  18  33  53  75  98 128 169 215 264 320
#     4   9  18  32  53  81 117 150 189 243 284 338
#
# _framework density 20.257929000000001
#
# number of rings (size 3 to 8) (size 9 to 14) (size 15 to 20)
#    0.000    2.600    1.000    0.600    1.400    3.000 
#    0.000    6.000    0.000    2.400    0.000    2.800 
#    0.000    0.000    0.000    0.000    0.000    0.000 
#
# Total GULP energy -222938.310274 kJ/mol
# GULP energy per Si atom -5573.457757 kJ/mol
# Density = 2.021182 g / cm^3
# Si number density = 20.257929 Si / 1000 Ang^3
#
#
#
# Elastic Constant Matrix: (Units=GPa)
#
#
# Indices 1 2 3 4 5 6 
#
# 1 56.4813 31.7484 52.5726 0.0000 0.0000 0.0000
# 2 31.7484 56.4819 52.5742 0.0000 0.0000 0.0000
# 3 52.5726 52.5742 174.4240 0.0000 0.0000 0.0000
# 4 0.0000 0.0000 0.0000 33.0739 0.0000 0.0000
# 5 0.0000 0.0000 0.0000 0.0000 33.0732 0.0000
# 6 0.0000 0.0000 0.0000 0.0000 0.0000 7.6039
#
#
#
# Elastic Compliance Matrix: (Units=1/GPa)
#
#
# Indices 1 2 3 4 5 6 
#
# 1 0.029059 -0.011372 -0.005331 0.000000 0.000000 0.000000
# 2 -0.011372 0.029060 -0.005331 0.000000 0.000000 0.000000
# 3 -0.005331 -0.005331 0.008947 0.000000 0.000000 0.000000
# 4 0.000000 0.000000 0.000000 0.030235 0.000000 0.000000
# 5 0.000000 0.000000 0.000000 0.000000 0.030236 0.000000
# 6 0.000000 0.000000 0.000000 0.000000 0.000000 0.131511
#
#
# Mechanical properties :
#
#
# Convention : Reuss Voigt Hill
#
# Bulk Modulus (GPa) = 43.48405 62.35306 52.91856
# Shear Modulus (GPa) = 16.08840 24.78300 20.43570
#
# Velocity S-wave (km/s) = 2.82117 3.50147 3.17957
# Velocity P-wave (km/s) = 5.66779 6.86975 6.29751
#
# Compressibility (1/GPa) = 0.02299694
#
# Stress axis : x y z
#
# Youngs Moduli (GPa) = 34.41238 34.41202 111.77037
#
# Poissons Ratio (x) = 0.39134 0.59584
# Poissons Ratio (y) = 0.39134 0.59589
# Poissons Ratio (z) = 0.18345 0.18346
#
# Static dielectric constant tensor:
#      x y z
#    x 1.743050 0.000000 0.000000 
#    y 0.000000 1.743050 0.000000 
#    z 0.000000 0.000000 1.718480 
# 
# From -- ./inp_files/5507.got.cif
#   From: 2010.05.17/outbox.cif.g08.bks.cpg/sg115_3_cif.got.tgz:5507.got - 2010.05.20 11:07:42.
