data_PCOD9556953
_publ_section_title
;
Structure prediction by ZEFSAII (Michael W. Deem and Ramdas Pophale) SiO2 
 PCOD9556953
Probable space group: P -4 M 2
;
_chemical_formula_sum "Si O2"
_cell_formula_units_Z 44
_cell_length_a 9.120576
_cell_length_b 9.120576
_cell_length_c 29.110771
_cell_angle_alpha 90.000000
_cell_angle_beta 90.000000
_cell_angle_gamma 90.000000
_cell_volume 2421.576766
_symmetry_space_group_name_H-M "P -4 M 2"
_symmetry_group_IT_number 115
_symmetry_cell_setting 'tetragonal'
loop_
_space_group_symop_operation_xyz
x,y,z
y,-x,-z
-x,-y,z
-y,x,-z
y,x,-z
-y,-x,-z
-x,y,z
x,-y,z
loop_
_atom_site_type_symbol
_atom_site_label
_atom_site_fract_x
_atom_site_fract_y
_atom_site_fract_z
Si Si1 0.173899 0.173899 0.500000
Si Si2 0.668764 0.321594 0.137380
Si Si3 0.174301 0.673911 0.681650
Si Si4 0.175216 0.326428 0.404731
Si Si5 0.675643 0.826426 0.956689
Si Si6 0.323774 0.173303 0.768499
O O1 0.216472 0.261779 0.454436
O O2 0.000000 0.196594 0.508059
O O3 0.500000 0.273158 0.137914
O O4 0.669553 0.500000 0.137302
O O5 0.749702 0.276126 0.090733
O O6 0.752766 0.276781 0.183550
O O7 0.201382 0.500000 0.683919
O O8 0.245816 0.740362 0.635911
O O9 0.245222 0.751462 0.725720
O O10 0.000000 0.698771 0.680980
O O11 0.202035 0.500000 0.402966
O O12 0.000000 0.302240 0.398987
O O13 0.500000 0.803465 0.961585
O O14 0.701721 0.000000 0.954135
O O15 0.756060 0.756060 0.000000
O O16 0.500000 0.192667 0.763850
O O17 0.294371 0.000000 0.769422
#
# Coordination Sequence:
#
# PCOD9556953 Si02
#       6
#     4   8   8   8   8   8
#     4   9  18  34  56  81 112 150 186 221 266 321
#     4   9  17  31  54  82 110 141 177 219 268 321
#     4  11  24  39  55  78 109 145 185 228 272 319
#     4  10  21  37  58  84 112 143 181 224 270 322
#     4  10  20  34  53  78 108 142 181 224 269 318
#     4  10  20  35  57  84 112 142 178 221 270 325
#
# _framework density 18.169978
#
# number of rings (size 3 to 8) (size 9 to 14) (size 15 to 20)
#    0.000    2.091    0.000    3.273    0.000    9.818 
#    0.000    2.727    0.000    5.455    0.000    0.000 
#    0.000    0.000    0.000    0.000    0.000    0.000 
#
# Total GULP energy -245768.164282 kJ/mol
# GULP energy per Si atom -5585.640097 kJ/mol
# Density = 1.812862 g / cm^3
# Si number density = 18.169978 Si / 1000 Ang^3
#
#
#
# Elastic Constant Matrix: (Units=GPa)
#
#
# Indices 1 2 3 4 5 6 
#
# 1 90.7551 83.5290 105.1741 0.0000 0.0000 0.0000
# 2 83.5290 90.7551 105.1741 0.0000 0.0000 0.0000
# 3 105.1741 105.1741 225.8015 0.0000 0.0000 0.0000
# 4 0.0000 0.0000 0.0000 51.6169 0.0000 0.0000
# 5 0.0000 0.0000 0.0000 0.0000 51.6169 0.0000
# 6 0.0000 0.0000 0.0000 0.0000 0.0000 24.8397
#
#
#
# Elastic Compliance Matrix: (Units=1/GPa)
#
#
# Indices 1 2 3 4 5 6 
#
# 1 0.075746 -0.062641 -0.006104 0.000000 0.000000 0.000000
# 2 -0.062641 0.075746 -0.006104 0.000000 0.000000 0.000000
# 3 -0.006104 -0.006104 0.010115 0.000000 0.000000 0.000000
# 4 0.000000 0.000000 0.000000 0.019374 0.000000 0.000000
# 5 0.000000 0.000000 0.000000 0.000000 0.019374 0.000000
# 6 0.000000 0.000000 0.000000 0.000000 0.000000 0.040258
#
#
# Mechanical properties :
#
#
# Convention : Reuss Voigt Hill
#
# Bulk Modulus (GPa) = 83.97270 110.56290 97.26780
# Shear Modulus (GPa) = 12.68133 33.17697 22.92915
#
# Velocity S-wave (km/s) = 2.64470 4.27772 3.55621
# Velocity P-wave (km/s) = 7.45931 9.24012 8.39706
#
# Compressibility (1/GPa) = 0.01190863
#
# Stress axis : x y z
#
# Youngs Moduli (GPa) = 13.20199 13.20199 98.86395
#
# Poissons Ratio (x) = 0.82699 0.60346
# Poissons Ratio (y) = 0.82699 0.60346
# Poissons Ratio (z) = 0.08058 0.08058
#
# Static dielectric constant tensor:
#      x y z
#    x 1.607210 0.000000 0.000000 
#    y 0.000000 1.607210 0.000000 
#    z 0.000000 0.000000 1.587590 
# 
# From -- ./inp_files/5763.got.cif
#   From: 2010.05.17/outbox.cif.g08.bks.cpg/sg115_3_cif.got.tgz:5763.got - 2010.05.20 11:07:42.
