data_PCOD9556930
_publ_section_title
;
Structure prediction by ZEFSAII (Michael W. Deem and Ramdas Pophale) SiO2 
 PCOD9556930
Probable space group: P -4 M 2
;
_chemical_formula_sum "Si O2"
_cell_formula_units_Z 48
_cell_length_a 9.153487
_cell_length_b 9.153487
_cell_length_c 31.879836
_cell_angle_alpha 90.000000
_cell_angle_beta 90.000000
_cell_angle_gamma 90.000000
_cell_volume 2671.094276
_symmetry_space_group_name_H-M "P -4 M 2"
_symmetry_group_IT_number 115
_symmetry_cell_setting 'tetragonal'
loop_
_space_group_symop_operation_xyz
x,y,z
y,-x,-z
-x,-y,z
-y,x,-z
y,x,-z
-y,-x,-z
-x,y,z
x,-y,z
loop_
_atom_site_type_symbol
_atom_site_label
_atom_site_fract_x
_atom_site_fract_y
_atom_site_fract_z
Si Si1 0.825055 0.672691 0.039213
Si Si2 0.674981 0.827027 0.381910
Si Si3 0.327366 0.174959 0.790706
Si Si4 0.674834 0.328461 0.295485
Si Si5 0.822011 0.168018 0.124597
Si Si6 0.326235 0.174092 0.539604
O O1 0.798371 0.500000 0.040278
O O2 0.776780 0.744895 0.083086
O O3 0.000000 0.695850 0.035159
O O4 0.746087 0.746087 0.000000
O O5 0.500000 0.804044 0.387185
O O6 0.716383 0.763290 0.336424
O O7 0.759705 0.743495 0.418393
O O8 0.702560 0.000000 0.384111
O O9 0.500000 0.205250 0.796274
O O10 0.279329 0.249087 0.747427
O O11 0.241946 0.225814 0.831986
O O12 0.310243 0.000000 0.787021
O O13 0.500000 0.318072 0.290486
O O14 0.711339 0.500000 0.302200
O O15 0.000000 0.171548 0.125093
O O16 0.775985 0.000000 0.122165
O O17 0.250805 0.250805 0.500000
O O18 0.500000 0.201012 0.538893
O O19 0.302558 0.000000 0.537727
#
# Coordination Sequence:
#
# PCOD9556930 Si02
#       6
#     8   8   8   8   8   8
#     4  10  20  34  53  76 102 133 170 212 259 311
#     4  10  21  37  57  81 109 142 181 223 267 315
#     4   9  17  30  49  73 101 133 171 215 260 308
#     4   9  18  33  52  74 103 140 178 215 260 313
#     4   9  17  30  50  75 101 131 169 212 258 309
#     4  11  24  40  59  84 112 142 178 219 264 316
#
# _framework density 17.970164
#
# number of rings (size 3 to 8) (size 9 to 14) (size 15 to 20)
#    0.000    2.333    0.000    2.500    0.000    8.667 
#    0.000    2.500    0.000    3.000    0.000    0.000 
#    0.000    0.000    0.000    0.000    0.000    0.000 
#
# Total GULP energy -267944.899917 kJ/mol
# GULP energy per Si atom -5582.185415 kJ/mol
# Density = 1.792926 g / cm^3
# Si number density = 17.970164 Si / 1000 Ang^3
#
#
#
# Elastic Constant Matrix: (Units=GPa)
#
#
# Indices 1 2 3 4 5 6 
#
# 1 73.9461 68.7473 94.6051 0.0000 0.0000 0.0000
# 2 68.7473 73.9461 94.6051 0.0000 0.0000 0.0000
# 3 94.6051 94.6051 221.7041 0.0000 0.0000 0.0000
# 4 0.0000 0.0000 0.0000 37.5331 0.0000 0.0000
# 5 0.0000 0.0000 0.0000 0.0000 37.5331 0.0000
# 6 0.0000 0.0000 0.0000 0.0000 0.0000 21.1798
#
#
#
# Elastic Compliance Matrix: (Units=1/GPa)
#
#
# Indices 1 2 3 4 5 6 
#
# 1 0.104247 -0.088106 -0.006888 0.000000 0.000000 0.000000
# 2 -0.088106 0.104247 -0.006888 0.000000 0.000000 0.000000
# 3 -0.006888 -0.006888 0.010389 0.000000 0.000000 0.000000
# 4 0.000000 0.000000 0.000000 0.026643 0.000000 0.000000
# 5 0.000000 0.000000 0.000000 0.000000 0.026643 0.000000
# 6 0.000000 0.000000 0.000000 0.000000 0.000000 0.047215
#
#
# Mechanical properties :
#
#
# Convention : Reuss Voigt Hill
#
# Bulk Modulus (GPa) = 66.13729 98.39016 82.26373
# Shear Modulus (GPa) = 9.46638 26.69179 18.07908
#
# Velocity S-wave (km/s) = 2.29767 3.85819 3.17529
# Velocity P-wave (km/s) = 6.62743 8.64398 7.70199
#
# Compressibility (1/GPa) = 0.01512006
#
# Stress axis : x y z
#
# Youngs Moduli (GPa) = 9.59263 9.59263 96.25857
#
# Poissons Ratio (x) = 0.84517 0.66300
# Poissons Ratio (y) = 0.84517 0.66300
# Poissons Ratio (z) = 0.06607 0.06607
#
# Static dielectric constant tensor:
#      x y z
#    x 1.602500 0.000000 0.000000 
#    y 0.000000 1.602500 0.000000 
#    z 0.000000 0.000000 1.587180 
# 
# From -- ./inp_files/6056.got.cif
#   From: 2010.05.17/outbox.cif.g08.bks.cpg/sg115_4_cif.got.tgz:6056.got - 2010.05.20 11:07:42.
