data_PCOD9556413
_publ_section_title
;
Structure prediction by ZEFSAII (Michael W. Deem and Ramdas Pophale) SiO2 
 PCOD9556413
Probable space group: P -4 21 C
;
_chemical_formula_sum "Si O2"
_cell_formula_units_Z 40
_cell_length_a 9.291628
_cell_length_b 9.291628
_cell_length_c 22.065380
_cell_angle_alpha 90.000000
_cell_angle_beta 90.000000
_cell_angle_gamma 90.000000
_cell_volume 1905.000259
_symmetry_space_group_name_H-M "P -4 21 C"
_symmetry_group_IT_number 114
_symmetry_cell_setting 'tetragonal'
loop_
_space_group_symop_operation_xyz
x,y,z
y,-x,-z
-x,-y,z
-y,x,-z
1/2+x,1/2-y,1/2-z
1/2-x,1/2+y,1/2-z
1/2-y,1/2-x,1/2+z
1/2+y,1/2+x,1/2+z
loop_
_atom_site_type_symbol
_atom_site_label
_atom_site_fract_x
_atom_site_fract_y
_atom_site_fract_z
Si Si1 0.331318 0.546396 0.424670
Si Si2 0.708432 0.223298 0.023095
Si Si3 0.426435 0.849326 0.803998
Si Si4 0.504522 0.326514 0.920135
Si Si5 0.902835 0.142473 0.783740
O O1 0.500000 0.500000 0.432836
O O2 0.215514 0.425324 0.441791
O O3 0.297129 0.672290 0.471378
O O4 0.319559 0.582338 0.354466
O O5 0.572974 0.275812 0.984020
O O6 0.733640 0.343258 0.073997
O O7 0.417874 0.748524 0.863713
O O8 0.268655 0.876008 0.775284
O O9 0.530253 0.766419 0.757583
O O10 0.500000 0.000000 0.821173
O O11 0.500000 0.500000 0.914017
O O12 0.000000 0.000000 0.772369
#
# Coordination Sequence:
#
# PCOD9556413 Si02
#       5
#     8   8   8   8   8
#     4  11  24  43  72 104 144 179 238 289 351 423
#     4  12  22  45  67 104 143 189 223 293 349 429
#     4  12  28  48  78 104 137 194 246 295 366 427
#     4  12  27  47  67 104 149 185 234 291 358 420
#     4  11  26  50  73 105 146 184 240 305 355 430
#
# _framework density 20.997373
#
# number of rings (size 3 to 8) (size 9 to 14) (size 15 to 20)
#    0.000    0.400    6.000    1.800   11.200    0.000 
#    3.600    0.000    0.000    0.000    0.000    0.000 
#    0.000    0.000    0.000    0.000    0.000    0.000 
#
# Total GULP energy -223420.445785 kJ/mol
# GULP energy per Si atom -5585.511145 kJ/mol
# Density = 2.094958 g / cm^3
# Si number density = 20.997373 Si / 1000 Ang^3
#
#
#
# Elastic Constant Matrix: (Units=GPa)
#
#
# Indices 1 2 3 4 5 6 
#
# 1 80.6551 25.2971 14.0117 0.0000 0.0000 0.0000
# 2 25.2971 80.6551 14.0117 0.0000 0.0000 0.0000
# 3 14.0117 14.0117 56.4050 0.0000 0.0000 0.0000
# 4 0.0000 0.0000 0.0000 43.0899 0.0000 0.0000
# 5 0.0000 0.0000 0.0000 0.0000 43.0899 0.0000
# 6 0.0000 0.0000 0.0000 0.0000 0.0000 27.8517
#
#
#
# Elastic Compliance Matrix: (Units=1/GPa)
#
#
# Indices 1 2 3 4 5 6 
#
# 1 0.014083 -0.003981 -0.002509 0.000000 0.000000 0.000000
# 2 -0.003981 0.014083 -0.002509 0.000000 0.000000 0.000000
# 3 -0.002509 -0.002509 0.018976 0.000000 0.000000 0.000000
# 4 0.000000 0.000000 0.000000 0.023207 0.000000 0.000000
# 5 0.000000 0.000000 0.000000 0.000000 0.023207 0.000000
# 6 0.000000 0.000000 0.000000 0.000000 0.000000 0.035904
#
#
# Mechanical properties :
#
#
# Convention : Reuss Voigt Hill
#
# Bulk Modulus (GPa) = 34.31500 36.03958 35.17729
# Shear Modulus (GPa) = 31.81170 33.76596 32.78883
#
# Velocity S-wave (km/s) = 3.89656 4.01447 3.95596
# Velocity P-wave (km/s) = 6.05164 6.22005 6.13642
#
# Compressibility (1/GPa) = 0.02914177
#
# Stress axis : x y z
#
# Youngs Moduli (GPa) = 71.00713 71.00713 52.69908
#
# Poissons Ratio (x) = 0.28269 0.13225
# Poissons Ratio (y) = 0.28269 0.13225
# Poissons Ratio (z) = 0.17819 0.17819
#
# Static dielectric constant tensor:
#      x y z
#    x 1.637410 0.000000 0.000000 
#    y 0.000000 1.637410 0.000000 
#    z 0.000000 0.000000 1.727440 
# 
# From -- ./inp_files/3341.got.cif
#   From: 2010.05.17/outbox.cif.g08.bks.cpg/sg114_2_cif.got.tgz:3341.got - 2010.05.20 11:04:54.
