data_PCOD9556244
_publ_section_title
;
Structure prediction by ZEFSAII (Michael W. Deem and Ramdas Pophale) SiO2 
 PCOD9556244
Probable space group: P -4 21 C
;
_chemical_formula_sum "Si O2"
_cell_formula_units_Z 38
_cell_length_a 8.568394
_cell_length_b 8.568394
_cell_length_c 24.094580
_cell_angle_alpha 90.000000
_cell_angle_beta 90.000000
_cell_angle_gamma 90.000000
_cell_volume 1768.960833
_symmetry_space_group_name_H-M "P -4 21 C"
_symmetry_group_IT_number 114
_symmetry_cell_setting 'tetragonal'
loop_
_space_group_symop_operation_xyz
x,y,z
y,-x,-z
-x,-y,z
-y,x,-z
1/2+x,1/2-y,1/2-z
1/2-x,1/2+y,1/2-z
1/2-y,1/2-x,1/2+z
1/2+y,1/2+x,1/2+z
loop_
_atom_site_type_symbol
_atom_site_label
_atom_site_fract_x
_atom_site_fract_y
_atom_site_fract_z
Si Si1 0.681664 0.457324 0.923614
Si Si2 0.329555 0.562652 0.797435
Si Si3 0.667830 0.065868 0.809034
Si Si4 0.744515 0.599187 0.574740
Si Si5 0.000000 0.000000 0.000000
Si Si6 0.500000 0.000000 0.005643
O O1 0.500000 0.500000 0.938214
O O2 0.708726 0.503189 0.858904
O O3 0.681114 0.269716 0.923711
O O4 0.835760 0.509329 0.959193
O O5 0.500000 0.500000 0.782775
O O6 0.334417 0.749050 0.800323
O O7 0.216879 0.511974 0.748279
O O8 0.774282 0.036505 0.863088
O O9 0.500000 0.000000 0.825572
O O10 0.584144 0.615079 0.542071
O O11 0.854441 0.492355 0.536809
#
# Coordination Sequence:
#
# PCOD9556244 Si02
#       6
#     8   8   8   8   2   4
#     4  10  25  45  71 103 142 185 242 297 355 434
#     4  10  23  45  67 100 133 178 229 287 356 419
#     4  11  23  44  69  97 137 174 229 286 356 425
#     4  11  25  44  68 100 138 186 229 295 357 432
#     4  12  24  48  64 100 144 176 244 280 358 444
#     4  12  24  44  70 102 136 186 234 284 364 420
#
# _framework density 21.481538
#
# number of rings (size 3 to 8) (size 9 to 14) (size 15 to 20)
#    0.000    1.263    3.158    1.263    5.895    0.000 
#    7.579    0.000    0.000    0.000    0.000    0.000 
#    0.000    0.000    0.000    0.000    0.000    0.000 
#
# Total GULP energy -211956.776799 kJ/mol
# GULP energy per Si atom -5577.809916 kJ/mol
# Density = 2.143264 g / cm^3
# Si number density = 21.481538 Si / 1000 Ang^3
#
#
#
# Elastic Constant Matrix: (Units=GPa)
#
#
# Indices 1 2 3 4 5 6 
#
# 1 57.5261 10.9710 38.9002 0.0000 0.0000 0.0000
# 2 10.9710 57.5261 38.9002 0.0000 0.0000 0.0000
# 3 38.9002 38.9002 148.3209 0.0000 0.0000 0.0000
# 4 0.0000 0.0000 0.0000 30.7033 0.0000 0.0000
# 5 0.0000 0.0000 0.0000 0.0000 30.7033 0.0000
# 6 0.0000 0.0000 0.0000 0.0000 0.0000 35.5932
#
#
#
# Elastic Compliance Matrix: (Units=1/GPa)
#
#
# Indices 1 2 3 4 5 6 
#
# 1 0.021137 -0.000343 -0.005453 0.000000 0.000000 0.000000
# 2 -0.000343 0.021137 -0.005453 0.000000 0.000000 0.000000
# 3 -0.005453 -0.005453 0.009603 0.000000 0.000000 0.000000
# 4 0.000000 0.000000 0.000000 0.032570 0.000000 0.000000
# 5 0.000000 0.000000 0.000000 0.000000 0.032570 0.000000
# 6 0.000000 0.000000 0.000000 0.000000 0.000000 0.028095
#
#
# Mechanical properties :
#
#
# Convention : Reuss Voigt Hill
#
# Bulk Modulus (GPa) = 34.04202 48.99065 41.51633
# Shear Modulus (GPa) = 28.18441 31.04008 29.61224
#
# Velocity S-wave (km/s) = 3.62612 3.80539 3.71684
# Velocity P-wave (km/s) = 5.78042 6.49334 6.14722
#
# Compressibility (1/GPa) = 0.02937546
#
# Stress axis : x y z
#
# Youngs Moduli (GPa) = 47.31125 47.31125 104.13735
#
# Poissons Ratio (x) = 0.01624 0.56791
# Poissons Ratio (y) = 0.01624 0.56791
# Poissons Ratio (z) = 0.25801 0.25801
#
# Static dielectric constant tensor:
#      x y z
#    x 1.885860 0.000000 0.000000 
#    y 0.000000 1.885860 0.000000 
#    z 0.000000 0.000000 1.794700 
# 
# From -- ./inp_files/3421.got.cif
#   From: 2010.05.17/outbox.cif.g08.bks.cpg/sg114_2_cif.got.tgz:3421.got - 2010.05.20 11:04:54.
