data_PCOD9556988
_publ_section_title
;
Structure prediction by ZEFSAII (Michael W. Deem and Ramdas Pophale) SiO2 
 PCOD9556988
Probable space group: P -4 M 2
;
_chemical_formula_sum "Si O2"
_cell_formula_units_Z 36
_cell_length_a 9.176131
_cell_length_b 9.176131
_cell_length_c 23.870047
_cell_angle_alpha 90.000000
_cell_angle_beta 90.000000
_cell_angle_gamma 90.000000
_cell_volume 2009.890901
_symmetry_space_group_name_H-M "P -4 M 2"
_symmetry_group_IT_number 115
_symmetry_cell_setting 'tetragonal'
loop_
_space_group_symop_operation_xyz
x,y,z
y,-x,-z
-x,-y,z
-y,x,-z
y,x,-z
-y,-x,-z
-x,y,z
x,-y,z
loop_
_atom_site_type_symbol
_atom_site_label
_atom_site_fract_x
_atom_site_fract_y
_atom_site_fract_z
Si Si1 0.322569 0.167685 0.886396
Si Si2 0.827720 0.825967 0.668253
Si Si3 0.325867 0.672807 0.772317
Si Si4 0.672543 0.173732 0.551883
Si Si5 0.673755 0.326246 0.000000
O O1 0.500000 0.170345 0.886912
O O2 0.277903 0.253446 0.830625
O O3 0.276351 0.244649 0.943931
O O4 0.275829 0.000000 0.884111
O O5 0.756657 0.742820 0.720117
O O6 0.750443 0.784648 0.609986
O O7 0.000000 0.797757 0.664778
O O8 0.806363 0.000000 0.675941
O O9 0.500000 0.698435 0.765963
O O10 0.302471 0.500000 0.774843
O O11 0.741108 0.258893 0.500000
O O12 0.500000 0.199694 0.555985
O O13 0.695752 0.000000 0.543744
O O14 0.500000 0.303682 0.007049
#
# Coordination Sequence:
#
# PCOD9556988 Si02
#       5
#     8   8   8   8   4
#     4   9  17  30  50  75 102 134 172 214 261 313
#     4  10  21  37  57  80 107 141 179 218 263 315
#     4  10  20  34  54  80 108 139 177 220 265 313
#     4  10  21  37  58  83 110 142 179 218 262 312
#     4   9  16  28  48  73 100 130 168 213 258 308
#
# _framework density 17.91142
#
# number of rings (size 3 to 8) (size 9 to 14) (size 15 to 20)
#    0.000    2.333    0.000    2.667    0.000    7.556 
#    0.000    1.111    0.000    4.333    0.000    0.000 
#    0.000    0.000    0.000    0.000    0.000    0.000 
#
# Total GULP energy -200972.243769 kJ/mol
# GULP energy per Si atom -5582.562327 kJ/mol
# Density = 1.787065 g / cm^3
# Si number density = 17.911420 Si / 1000 Ang^3
#
#
#
# Elastic Constant Matrix: (Units=GPa)
#
#
# Indices 1 2 3 4 5 6 
#
# 1 72.5676 67.5049 96.8671 0.0000 0.0000 0.0000
# 2 67.5049 72.5679 96.8654 0.0000 0.0000 0.0000
# 3 96.8671 96.8654 226.9699 0.0000 0.0000 0.0000
# 4 0.0000 0.0000 0.0000 68.0379 0.0000 0.0000
# 5 0.0000 0.0000 0.0000 0.0000 68.0411 0.0000
# 6 0.0000 0.0000 0.0000 0.0000 0.0000 22.6540
#
#
#
# Elastic Compliance Matrix: (Units=1/GPa)
#
#
# Indices 1 2 3 4 5 6 
#
# 1 0.107475 -0.090048 -0.007438 0.000000 0.000000 0.000000
# 2 -0.090048 0.107469 -0.007434 0.000000 0.000000 0.000000
# 3 -0.007438 -0.007434 0.010753 0.000000 0.000000 0.000000
# 4 0.000000 0.000000 0.000000 0.014698 0.000000 0.000000
# 5 0.000000 0.000000 0.000000 0.000000 0.014697 0.000000
# 6 0.000000 0.000000 0.000000 0.000000 0.000000 0.044142
#
#
# Mechanical properties :
#
#
# Convention : Reuss Voigt Hill
#
# Bulk Modulus (GPa) = 63.06606 99.39781 81.23194
# Shear Modulus (GPa) = 9.72081 39.13779 24.42930
#
# Velocity S-wave (km/s) = 2.33215 4.67955 3.69710
# Velocity P-wave (km/s) = 6.52214 9.20935 7.97968
#
# Compressibility (1/GPa) = 0.01585639
#
# Stress axis : x y z
#
# Youngs Moduli (GPa) = 9.30450 9.30501 92.99555
#
# Poissons Ratio (x) = 0.83790 0.69173
# Poissons Ratio (y) = 0.83785 0.69136
# Poissons Ratio (z) = 0.06921 0.06918
#
# Static dielectric constant tensor:
#      x y z
#    x 1.599380 0.000000 0.000000 
#    y 0.000000 1.599380 0.000000 
#    z 0.000000 0.000000 1.578880 
# 
# From -- ./inp_files/4647.got.cif
#   From: 2010.05.17/outbox.cif.g08.bks.cpg/sg115_3_cif.got.tgz:4647.got - 2010.05.20 11:07:42.
