data_PCOD9556549
_publ_section_title
;
Structure prediction by ZEFSAII (Michael W. Deem and Ramdas Pophale) SiO2 
 PCOD9556549
Probable space group: P -4 M 2
;
_chemical_formula_sum "Si O2"
_cell_formula_units_Z 64
_cell_length_a 25.463615
_cell_length_b 25.463615
_cell_length_c 5.360603
_cell_angle_alpha 90.000000
_cell_angle_beta 90.000000
_cell_angle_gamma 90.000000
_cell_volume 3475.791875
_symmetry_space_group_name_H-M "P -4 M 2"
_symmetry_group_IT_number 115
_symmetry_cell_setting 'tetragonal'
loop_
_space_group_symop_operation_xyz
x,y,z
y,-x,-z
-x,-y,z
-y,x,-z
y,x,-z
-y,-x,-z
-x,y,z
x,-y,z
loop_
_atom_site_type_symbol
_atom_site_label
_atom_site_fract_x
_atom_site_fract_y
_atom_site_fract_z
Si Si1 0.768429 0.271489 0.750234
Si Si2 0.814535 0.062474 0.887970
Si Si3 0.348490 0.676211 0.753101
Si Si4 0.062368 0.865480 0.604356
Si Si5 0.758819 0.440853 0.175619
Si Si6 0.172162 0.557776 0.675460
Si Si7 0.693569 0.937752 0.791875
Si Si8 0.334696 0.121228 0.282021
O O1 0.762720 0.237281 0.500000
O O2 0.713985 0.306452 0.752047
O O3 0.822152 0.304861 0.743902
O O4 0.763175 0.236826 0.000000
O O5 0.831202 0.085017 0.621931
O O6 0.752677 0.067311 0.898142
O O7 0.826558 0.000000 0.874522
O O8 0.844810 0.082377 0.130949
O O9 0.355017 0.644984 0.500000
O O10 0.390106 0.722871 0.775730
O O11 0.356814 0.643186 0.000000
O O12 0.077337 0.922664 0.500000
O O13 0.000000 0.860093 0.618869
O O14 0.734250 0.500000 0.159391
O O15 0.795627 0.442364 0.418397
O O16 0.790444 0.433193 0.916814
O O17 0.148297 0.500000 0.709361
O O18 0.132518 0.605193 0.654095
O O19 0.688752 0.911430 0.517432
O O20 0.681318 0.000000 0.773428
O O21 0.663803 0.907943 0.014630
#
# Coordination Sequence:
#
# PCOD9556549 Si02
#       8
#     8   8   8   8   8   8   8   8
#     4  10  19  32  50  76 114 149 174 206 268 346
#     4   9  19  37  56  73  96 132 174 215 262 307
#     4  10  18  29  48  73 109 151 187 225 278 326
#     4  10  19  33  55  79 106 137 167 206 258 316
#     4  10  19  33  53  79 114 160 205 234 263 324
#     4  10  20  34  55  83 115 149 188 230 273 331
#     4  11  24  42  62  80 101 136 191 243 274 323
#     4  12  22  37  61  85 112 148 184 223 283 343
#
# _framework density 18.413069
#
# number of rings (size 3 to 8) (size 9 to 14) (size 15 to 20)
#    0.000    1.750    0.000    6.750    0.000    2.125 
#    0.000    6.250    0.000    4.500    0.000    0.000 
#    0.000    1.500    0.000    0.000    0.000    0.000 
#
# Total GULP energy -356369.093793 kJ/mol
# GULP energy per Si atom -5568.267091 kJ/mol
# Density = 1.837116 g / cm^3
# Si number density = 18.413069 Si / 1000 Ang^3
#
#
#
# Elastic Constant Matrix: (Units=GPa)
#
#
# Indices 1 2 3 4 5 6 
#
# 1 60.9815 21.3585 15.9993 0.0000 0.0000 0.0000
# 2 21.3585 60.9828 16.0008 0.0000 0.0000 0.0000
# 3 15.9993 16.0008 119.7658 0.0000 0.0000 0.0000
# 4 0.0000 0.0000 0.0000 21.1228 0.0000 0.0000
# 5 0.0000 0.0000 0.0000 0.0000 21.1237 0.0000
# 6 0.0000 0.0000 0.0000 0.0000 0.0000 16.9783
#
#
#
# Elastic Compliance Matrix: (Units=1/GPa)
#
#
# Indices 1 2 3 4 5 6 
#
# 1 0.019024 -0.006214 -0.001711 0.000000 0.000000 0.000000
# 2 -0.006214 0.019023 -0.001711 0.000000 0.000000 0.000000
# 3 -0.001711 -0.001711 0.008807 0.000000 0.000000 0.000000
# 4 0.000000 0.000000 0.000000 0.047342 0.000000 0.000000
# 5 0.000000 0.000000 0.000000 0.000000 0.047340 0.000000
# 6 0.000000 0.000000 0.000000 0.000000 0.000000 0.058899
#
#
# Mechanical properties :
#
#
# Convention : Reuss Voigt Hill
#
# Bulk Modulus (GPa) = 36.25670 38.71636 37.48653
# Shear Modulus (GPa) = 21.84344 24.40307 23.12325
#
# Velocity S-wave (km/s) = 3.44801 3.64443 3.54758
# Velocity P-wave (km/s) = 5.96533 6.22747 6.09781
#
# Compressibility (1/GPa) = 0.02758111
#
# Stress axis : x y z
#
# Youngs Moduli (GPa) = 52.56593 52.56671 113.54767
#
# Poissons Ratio (x) = 0.32664 0.19430
# Poissons Ratio (y) = 0.32664 0.19433
# Poissons Ratio (z) = 0.08995 0.08996
#
# Static dielectric constant tensor:
#      x y z
#    x 1.695000 0.000000 0.000000 
#    y 0.000000 1.695000 0.000000 
#    z 0.000000 0.000000 1.714040 
# 
# From -- ./inp_files/820.got.cif
#   From: 2010.05.17/outbox.cif.g08.bks.cpg/sg115_1_cif.got.tgz:820.got - 2010.05.20 11:07:42.
