data_PCOD9556876
_publ_section_title
;
Structure prediction by ZEFSAII (Michael W. Deem and Ramdas Pophale) SiO2 
 PCOD9556876
Probable space group: P -4 M 2
;
_chemical_formula_sum "Si O2"
_cell_formula_units_Z 48
_cell_length_a 9.167225
_cell_length_b 9.167225
_cell_length_c 31.849126
_cell_angle_alpha 90.000000
_cell_angle_beta 90.000000
_cell_angle_gamma 90.000000
_cell_volume 2676.537303
_symmetry_space_group_name_H-M "P -4 M 2"
_symmetry_group_IT_number 115
_symmetry_cell_setting 'tetragonal'
loop_
_space_group_symop_operation_xyz
x,y,z
y,-x,-z
-x,-y,z
-y,x,-z
y,x,-z
-y,-x,-z
-x,y,z
x,-y,z
loop_
_atom_site_type_symbol
_atom_site_label
_atom_site_fract_x
_atom_site_fract_y
_atom_site_fract_z
Si Si1 0.831512 0.177608 0.046094
Si Si2 0.324663 0.670971 0.373916
Si Si3 0.173645 0.326898 0.868858
Si Si4 0.825102 0.328469 0.209151
Si Si5 0.325893 0.827319 0.460988
Si Si6 0.170889 0.175534 0.704212
O O1 0.738324 0.221564 0.086269
O O2 0.000000 0.223642 0.051567
O O3 0.831446 0.000000 0.044508
O O4 0.776164 0.223837 0.000000
O O5 0.500000 0.683239 0.369673
O O6 0.286776 0.500000 0.375108
O O7 0.283671 0.748207 0.417641
O O8 0.249313 0.749258 0.334846
O O9 0.193976 0.500000 0.868289
O O10 0.258302 0.252560 0.830799
O O11 0.000000 0.296455 0.864339
O O12 0.792534 0.500000 0.212566
O O13 0.781694 0.246565 0.251971
O O14 0.000000 0.311773 0.204397
O O15 0.241111 0.758890 0.500000
O O16 0.500000 0.804882 0.467006
O O17 0.299440 0.000000 0.457699
O O18 0.000000 0.213752 0.704769
O O19 0.182996 0.000000 0.700498
#
# Coordination Sequence:
#
# PCOD9556876 Si02
#       6
#     8   8   8   8   8   8
#     4   8  14  27  49  74  99 132 175 219 260 304
#     4  10  21  37  58  83 111 145 182 219 263 316
#     4  10  20  33  51  77 107 138 172 212 260 312
#     4  10  21  37  56  77 102 136 178 220 263 313
#     4  10  21  37  57  81 109 143 183 225 268 314
#     4  10  21  37  58  83 109 138 174 218 267 316
#
# _framework density 17.933617999999999
#
# number of rings (size 3 to 8) (size 9 to 14) (size 15 to 20)
#    0.000    2.333    0.000    3.000    0.000    6.333 
#    0.000    0.833    0.000    3.000    0.000    0.000 
#    0.000    0.000    0.000    0.000    0.000    0.000 
#
# Total GULP energy -267955.669736 kJ/mol
# GULP energy per Si atom -5582.409786 kJ/mol
# Density = 1.789280 g / cm^3
# Si number density = 17.933618 Si / 1000 Ang^3
#
#
#
# Elastic Constant Matrix: (Units=GPa)
#
#
# Indices 1 2 3 4 5 6 
#
# 1 75.0020 64.7449 93.4543 0.0000 0.0000 0.0000
# 2 64.7449 75.0020 93.4530 0.0000 0.0000 0.0000
# 3 93.4543 93.4530 223.8424 0.0000 0.0000 0.0000
# 4 0.0000 0.0000 0.0000 135.6476 0.0000 0.0000
# 5 0.0000 0.0000 0.0000 0.0000 135.6307 0.0000
# 6 0.0000 0.0000 0.0000 0.0000 0.0000 25.6170
#
#
#
# Elastic Compliance Matrix: (Units=1/GPa)
#
#
# Indices 1 2 3 4 5 6 
#
# 1 0.056850 -0.040645 -0.006766 0.000000 0.000000 0.000000
# 2 -0.040645 0.056848 -0.006764 0.000000 0.000000 0.000000
# 3 -0.006766 -0.006764 0.010116 0.000000 0.000000 0.000000
# 4 0.000000 0.000000 0.000000 0.007372 0.000000 0.000000
# 5 0.000000 0.000000 0.000000 0.000000 0.007373 0.000000
# 6 0.000000 0.000000 0.000000 0.000000 0.000000 0.039037
#
#
# Mechanical properties :
#
#
# Convention : Reuss Voigt Hill
#
# Bulk Modulus (GPa) = 64.66766 97.46120 81.06443
# Shear Modulus (GPa) = 17.17621 67.52535 42.35078
#
# Velocity S-wave (km/s) = 3.09814 6.14286 4.86483
# Velocity P-wave (km/s) = 6.99540 10.23604 8.76676
#
# Compressibility (1/GPa) = 0.01546368
#
# Stress axis : x y z
#
# Youngs Moduli (GPa) = 17.59024 17.59078 98.85108
#
# Poissons Ratio (x) = 0.71498 0.66880
# Poissons Ratio (y) = 0.71495 0.66867
# Poissons Ratio (z) = 0.11901 0.11899
#
# Static dielectric constant tensor:
#      x y z
#    x 1.599410 0.000000 0.000000 
#    y 0.000000 1.599410 0.000000 
#    z 0.000000 0.000000 1.585820 
# 
# From -- ./inp_files/5963.got.cif
#   From: 2010.05.17/outbox.cif.g08.bks.cpg/sg115_3_cif.got.tgz:5963.got - 2010.05.20 11:07:42.
