data_PCOD9556401
_publ_section_title
;
Structure prediction by ZEFSAII (Michael W. Deem and Ramdas Pophale) SiO2 
 PCOD9556401
Probable space group: P -4 21 C
;
_chemical_formula_sum "Si O2"
_cell_formula_units_Z 36
_cell_length_a 13.281115
_cell_length_b 13.281115
_cell_length_c 9.707490
_cell_angle_alpha 90.000000
_cell_angle_beta 90.000000
_cell_angle_gamma 90.000000
_cell_volume 1712.284898
_symmetry_space_group_name_H-M "P -4 21 C"
_symmetry_group_IT_number 114
_symmetry_cell_setting 'tetragonal'
loop_
_space_group_symop_operation_xyz
x,y,z
y,-x,-z
-x,-y,z
-y,x,-z
1/2+x,1/2-y,1/2-z
1/2-x,1/2+y,1/2-z
1/2-y,1/2-x,1/2+z
1/2+y,1/2+x,1/2+z
loop_
_atom_site_type_symbol
_atom_site_label
_atom_site_fract_x
_atom_site_fract_y
_atom_site_fract_z
Si Si1 0.279263 0.769938 0.341787
Si Si2 0.684976 0.096454 0.585682
Si Si3 0.000000 0.500000 0.076511
Si Si4 0.097515 0.877826 0.001931
Si Si5 0.200359 0.580081 0.723975
O O1 0.255872 0.848518 0.463099
O O2 0.323255 0.827441 0.209204
O O3 0.360149 0.691974 0.402883
O O4 0.186708 0.700977 0.298737
O O5 0.582862 0.055357 0.517381
O O6 0.732890 0.001628 0.662450
O O7 0.951079 0.409248 0.165558
O O8 0.091122 0.784186 0.105586
O O9 0.987747 0.884957 0.930667
#
# Coordination Sequence:
#
# PCOD9556401 Si02
#       5
#     8   8   4   8   8
#     4  12  26  47  73 108 155 192 250 313 384 446
#     4  12  25  47  73 112 149 196 247 323 373 458
#     4  12  26  48  80 114 150 196 262 310 392 448
#     4  11  23  44  70  99 142 199 247 293 375 457
#     4  12  26  47  74 110 147 197 248 316 380 446
#
# _framework density 21.024540999999999
#
# number of rings (size 3 to 8) (size 9 to 14) (size 15 to 20)
#    0.000    0.222    6.667    2.000    0.000    3.556 
#    0.000    0.000    0.000    0.000    0.000    0.000 
#    0.000    0.000    0.000    0.000    0.000    0.000 
#
# Total GULP energy -201055.589504 kJ/mol
# GULP energy per Si atom -5584.877486 kJ/mol
# Density = 2.097669 g / cm^3
# Si number density = 21.024541 Si / 1000 Ang^3
#
#
#
# Elastic Constant Matrix: (Units=GPa)
#
#
# Indices 1 2 3 4 5 6 
#
# 1 92.2535 -2.1241 24.1210 0.0000 0.0000 0.0000
# 2 -2.1241 92.2535 24.1210 0.0000 0.0000 0.0000
# 3 24.1210 24.1210 96.6325 0.0000 0.0000 0.0000
# 4 0.0000 0.0000 0.0000 27.6754 0.0000 0.0000
# 5 0.0000 0.0000 0.0000 0.0000 27.6754 0.0000
# 6 0.0000 0.0000 0.0000 0.0000 0.0000 31.9407
#
#
#
# Elastic Compliance Matrix: (Units=1/GPa)
#
#
# Indices 1 2 3 4 5 6 
#
# 1 0.011701 0.001105 -0.003197 0.000000 0.000000 0.000000
# 2 0.001105 0.011701 -0.003197 0.000000 0.000000 0.000000
# 3 -0.003197 -0.003197 0.011944 0.000000 0.000000 0.000000
# 4 0.000000 0.000000 0.000000 0.036133 0.000000 0.000000
# 5 0.000000 0.000000 0.000000 0.000000 0.036133 0.000000
# 6 0.000000 0.000000 0.000000 0.000000 0.000000 0.031308
#
#
# Mechanical properties :
#
#
# Convention : Reuss Voigt Hill
#
# Bulk Modulus (GPa) = 40.37113 41.48614 40.92864
# Shear Modulus (GPa) = 31.69505 33.12642 32.41074
#
# Velocity S-wave (km/s) = 3.88690 3.97370 3.93054
# Velocity P-wave (km/s) = 6.27595 6.38974 6.33310
#
# Compressibility (1/GPa) = 0.02477018
#
# Stress axis : x y z
#
# Youngs Moduli (GPa) = 85.46320 85.46320 83.72163
#
# Poissons Ratio (x) = -0.09446 0.26763
# Poissons Ratio (y) = -0.09446 0.26763
# Poissons Ratio (z) = 0.27319 0.27319
#
# Static dielectric constant tensor:
#      x y z
#    x 1.766740 0.000000 0.000000 
#    y 0.000000 1.766740 0.000000 
#    z 0.000000 0.000000 1.768650 
# 
# From -- ./inp_files/709.got.cif
#   From: 2010.05.17/outbox.cif.g08.bks.cpg/sg114_1_cif.got.tgz:709.got - 2010.05.20 11:04:54.
