data_PCOD9556058
_publ_section_title
;
Structure prediction by ZEFSAII (Michael W. Deem and Ramdas Pophale) SiO2 
 PCOD9556058
Probable space group: P -4 21 C
;
_chemical_formula_sum "Si O2"
_cell_formula_units_Z 56
_cell_length_a 15.567714
_cell_length_b 15.567714
_cell_length_c 11.471052
_cell_angle_alpha 90.000000
_cell_angle_beta 90.000000
_cell_angle_gamma 90.000000
_cell_volume 2780.052115
_symmetry_space_group_name_H-M "P -4 21 C"
_symmetry_group_IT_number 114
_symmetry_cell_setting 'tetragonal'
loop_
_space_group_symop_operation_xyz
x,y,z
y,-x,-z
-x,-y,z
-y,x,-z
1/2+x,1/2-y,1/2-z
1/2-x,1/2+y,1/2-z
1/2-y,1/2-x,1/2+z
1/2+y,1/2+x,1/2+z
loop_
_atom_site_type_symbol
_atom_site_label
_atom_site_fract_x
_atom_site_fract_y
_atom_site_fract_z
Si Si1 0.727262 0.034301 0.016973
Si Si2 0.233469 0.553384 0.729478
Si Si3 0.060898 0.839599 0.636997
Si Si4 0.795760 0.049296 0.572289
Si Si5 0.679571 0.608750 0.275653
Si Si6 0.291747 0.130428 0.177567
Si Si7 0.191721 0.284523 0.587466
O O1 0.696658 0.959482 0.107589
O O2 0.802335 0.080251 0.092376
O O3 0.740343 0.979642 0.901009
O O4 0.682242 0.119153 0.962055
O O5 0.236875 0.474601 0.819179
O O6 0.317838 0.611058 0.743903
O O7 0.157991 0.618067 0.765528
O O8 0.109887 0.927898 0.617219
O O9 0.115992 0.775612 0.717300
O O10 0.030599 0.797275 0.515904
O O11 0.973745 0.852082 0.707073
O O12 0.769958 0.135435 0.503905
O O13 0.765870 0.645304 0.212109
O O14 0.251376 0.210358 0.102104
#
# Coordination Sequence:
#
# PCOD9556058 Si02
#       7
#     8   8   8   8   8   8   8
#     4  11  23  39  67  94 126 172 226 270 317 386
#     4  11  24  39  66  99 130 175 215 269 330 394
#     4  10  21  39  64  95 131 171 212 272 318 391
#     4  11  23  38  67  98 128 172 219 265 330 387
#     4   9  22  42  63  97 135 167 218 263 336 397
#     4  10  23  42  67  93 133 176 219 266 329 396
#     4  10  22  41  69  91 128 176 219 269 318 401
#
# _framework density 20.143505999999999
#
# number of rings (size 3 to 8) (size 9 to 14) (size 15 to 20)
#    0.000    1.714    0.000    4.286   10.000    3.143 
#    0.000    0.714    0.000    3.857    0.000    0.000 
#    0.000    0.000    0.000    0.000    0.000    0.000 
#
# Total GULP energy -312015.906575 kJ/mol
# GULP energy per Si atom -5571.712617 kJ/mol
# Density = 2.009766 g / cm^3
# Si number density = 20.143506 Si / 1000 Ang^3
#
#
#
# Elastic Constant Matrix: (Units=GPa)
#
#
# Indices 1 2 3 4 5 6 
#
# 1 83.2991 29.0844 25.7136 0.0000 0.0000 0.0000
# 2 29.0844 83.2991 25.7136 0.0000 0.0000 0.0000
# 3 25.7136 25.7136 105.1394 0.0000 0.0000 0.0000
# 4 0.0000 0.0000 0.0000 17.4019 0.0000 0.0000
# 5 0.0000 0.0000 0.0000 0.0000 17.4019 0.0000
# 6 0.0000 0.0000 0.0000 0.0000 0.0000 21.0194
#
#
#
# Elastic Compliance Matrix: (Units=1/GPa)
#
#
# Indices 1 2 3 4 5 6 
#
# 1 0.014232 -0.004213 -0.002450 0.000000 0.000000 0.000000
# 2 -0.004213 0.014232 -0.002450 0.000000 0.000000 0.000000
# 3 -0.002450 -0.002450 0.010710 0.000000 0.000000 0.000000
# 4 0.000000 0.000000 0.000000 0.057465 0.000000 0.000000
# 5 0.000000 0.000000 0.000000 0.000000 0.057465 0.000000
# 6 0.000000 0.000000 0.000000 0.000000 0.000000 0.047575
#
#
# Mechanical properties :
#
#
# Convention : Reuss Voigt Hill
#
# Bulk Modulus (GPa) = 47.73967 48.08454 47.91211
# Shear Modulus (GPa) = 22.03721 23.91305 22.97513
#
# Velocity S-wave (km/s) = 3.31117 3.44922 3.38090
# Velocity P-wave (km/s) = 6.19433 6.30759 6.25121
#
# Compressibility (1/GPa) = 0.02094694
#
# Stress axis : x y z
#
# Youngs Moduli (GPa) = 70.26268 70.26268 93.37267
#
# Poissons Ratio (x) = 0.29601 0.22880
# Poissons Ratio (y) = 0.29601 0.22880
# Poissons Ratio (z) = 0.17217 0.17217
#
# Static dielectric constant tensor:
#      x y z
#    x 1.769560 0.000000 0.000000 
#    y 0.000000 1.769560 0.000000 
#    z 0.000000 0.000000 1.766560 
# 
# From -- ./inp_files/1761.got.cif
#   From: 2010.05.17/outbox.cif.g08.bks.cpg/sg114_1_cif.got.tgz:1761.got - 2010.05.20 11:04:54.
