data_PCOD9556259
_publ_section_title
;
Structure prediction by ZEFSAII (Michael W. Deem and Ramdas Pophale) SiO2 
 PCOD9556259
Probable space group: P -4 21 C
;
_chemical_formula_sum "Si O2"
_cell_formula_units_Z 48
_cell_length_a 8.332831
_cell_length_b 8.332831
_cell_length_c 31.001005
_cell_angle_alpha 90.000000
_cell_angle_beta 90.000000
_cell_angle_gamma 90.000000
_cell_volume 2152.588030
_symmetry_space_group_name_H-M "P -4 21 C"
_symmetry_group_IT_number 114
_symmetry_cell_setting 'tetragonal'
loop_
_space_group_symop_operation_xyz
x,y,z
y,-x,-z
-x,-y,z
-y,x,-z
1/2+x,1/2-y,1/2-z
1/2-x,1/2+y,1/2-z
1/2-y,1/2-x,1/2+z
1/2+y,1/2+x,1/2+z
loop_
_atom_site_type_symbol
_atom_site_label
_atom_site_fract_x
_atom_site_fract_y
_atom_site_fract_z
Si Si1 0.162255 0.433968 0.085426
Si Si2 0.756192 0.518346 0.180384
Si Si3 0.299361 0.640748 0.018320
Si Si4 0.320873 0.583871 0.454645
Si Si5 0.993239 0.740405 0.327178
Si Si6 0.000000 0.500000 0.253980
Si Si7 0.000000 0.500000 0.406346
O O1 0.153728 0.443504 0.136332
O O2 0.287377 0.560839 0.065382
O O3 0.177120 0.250407 0.072075
O O4 0.000000 0.500000 0.064661
O O5 0.658485 0.680842 0.189080
O O6 0.632377 0.381077 0.167888
O O7 0.858481 0.460663 0.220750
O O8 0.477276 0.710742 0.010773
O O9 0.160750 0.761696 0.001080
O O10 0.500000 0.500000 0.451977
O O11 0.166051 0.490658 0.434168
O O12 0.937584 0.631016 0.287630
O O13 0.011828 0.647737 0.372311
#
# Coordination Sequence:
#
# PCOD9556259 Si02
#       7
#     8   8   8   8   8   4   4
#     4  11  24  44  68 103 138 186 249 297 361 441
#     4  11  22  41  70  97 131 185 236 289 357 449
#     4   9  22  44  73 100 136 191 243 296 358 436
#     4  11  26  46  72 109 148 194 241 309 376 436
#     4  10  24  41  67 100 135 184 235 295 367 443
#     4  11  22  42  65  98 142 174 233 304 370 431
#     4  11  24  44  71 102 152 186 241 308 374 427
#
# _framework density 22.298741
#
# number of rings (size 3 to 8) (size 9 to 14) (size 15 to 20)
#    0.000    1.500    2.500    1.000    5.833    1.333 
#    3.000    0.000    0.000    0.000    0.000    0.000 
#    0.000    0.000    0.000    0.000    0.000    0.000 
#
# Total GULP energy -267702.547385 kJ/mol
# GULP energy per Si atom -5577.136404 kJ/mol
# Density = 2.224799 g / cm^3
# Si number density = 22.298741 Si / 1000 Ang^3
#
#
#
# Elastic Constant Matrix: (Units=GPa)
#
#
# Indices 1 2 3 4 5 6 
#
# 1 90.4970 34.7229 33.7740 0.0000 0.0000 0.0000
# 2 34.7229 90.4970 33.7740 0.0000 0.0000 0.0000
# 3 33.7740 33.7740 106.9607 0.0000 0.0000 0.0000
# 4 0.0000 0.0000 0.0000 20.8638 0.0000 0.0000
# 5 0.0000 0.0000 0.0000 0.0000 20.8638 0.0000
# 6 0.0000 0.0000 0.0000 0.0000 0.0000 39.9779
#
#
#
# Elastic Compliance Matrix: (Units=1/GPa)
#
#
# Indices 1 2 3 4 5 6 
#
# 1 0.013777 -0.004152 -0.003039 0.000000 0.000000 0.000000
# 2 -0.004152 0.013777 -0.003039 0.000000 0.000000 0.000000
# 3 -0.003039 -0.003039 0.011269 0.000000 0.000000 0.000000
# 4 0.000000 0.000000 0.000000 0.047930 0.000000 0.000000
# 5 0.000000 0.000000 0.000000 0.000000 0.047930 0.000000
# 6 0.000000 0.000000 0.000000 0.000000 0.000000 0.025014
#
#
# Mechanical properties :
#
#
# Convention : Reuss Voigt Hill
#
# Bulk Modulus (GPa) = 54.45969 54.72184 54.59076
# Shear Modulus (GPa) = 26.84142 28.72003 27.78072
#
# Velocity S-wave (km/s) = 3.47323 3.59272 3.53348
# Velocity P-wave (km/s) = 6.36869 6.46558 6.41732
#
# Compressibility (1/GPa) = 0.01836221
#
# Stress axis : x y z
#
# Youngs Moduli (GPa) = 72.58218 72.58218 88.74178
#
# Poissons Ratio (x) = 0.30136 0.26972
# Poissons Ratio (y) = 0.30136 0.26972
# Poissons Ratio (z) = 0.22060 0.22060
#
# Static dielectric constant tensor:
#      x y z
#    x 1.916690 0.000000 0.000000 
#    y 0.000000 1.916690 0.000000 
#    z 0.000000 0.000000 1.778120 
# 
# From -- ./inp_files/4007.got.cif
#   From: 2010.05.17/outbox.cif.g08.bks.cpg/sg114_3_cif.got.tgz:4007.got - 2010.05.20 11:04:54.
