data_PCOD9556061
_publ_section_title
;
Structure prediction by ZEFSAII (Michael W. Deem and Ramdas Pophale) SiO2 
 PCOD9556061
Probable space group: P -4 21 C
;
_chemical_formula_sum "Si O2"
_cell_formula_units_Z 48
_cell_length_a 15.442330
_cell_length_b 15.442330
_cell_length_c 8.423633
_cell_angle_alpha 90.000000
_cell_angle_beta 90.000000
_cell_angle_gamma 90.000000
_cell_volume 2008.746325
_symmetry_space_group_name_H-M "P -4 21 C"
_symmetry_group_IT_number 114
_symmetry_cell_setting 'tetragonal'
loop_
_space_group_symop_operation_xyz
x,y,z
y,-x,-z
-x,-y,z
-y,x,-z
1/2+x,1/2-y,1/2-z
1/2-x,1/2+y,1/2-z
1/2-y,1/2-x,1/2+z
1/2+y,1/2+x,1/2+z
loop_
_atom_site_type_symbol
_atom_site_label
_atom_site_fract_x
_atom_site_fract_y
_atom_site_fract_z
Si Si1 0.240697 0.638125 0.430917
Si Si2 0.000000 0.000000 0.000000
Si Si3 0.877448 0.936046 0.260695
Si Si4 0.242427 0.808129 0.211273
Si Si5 0.098018 0.237317 0.464968
Si Si6 0.136283 0.540427 0.953803
Si Si7 0.000000 0.500000 0.692986
Si Si8 0.000000 0.000000 0.500000
O O1 0.284617 0.562688 0.326451
O O2 0.236143 0.719703 0.312720
O O3 0.300566 0.667490 0.578458
O O4 0.142214 0.626392 0.485995
O O5 0.944905 0.938455 0.115039
O O6 0.883919 0.848422 0.363125
O O7 0.916998 0.004668 0.384827
O O8 0.233325 0.878575 0.348999
O O9 0.333744 0.805729 0.116288
O O10 0.999376 0.268795 0.444256
O O11 0.083651 0.519526 0.796130
O O12 0.084231 0.487399 0.086306
#
# Coordination Sequence:
#
# PCOD9556061 Si02
#       8
#     8   2   8   8   8   8   4   2
#     4  10  21  39  65  98 132 176 224 278 332 405
#     4  10  24  46  64  94 132 162 220 286 348 414
#     4  10  24  43  67  96 126 169 222 279 346 409
#     4   9  20  39  62  95 134 169 223 268 324 404
#     4  10  21  39  67  96 130 177 217 274 338 402
#     4  11  22  40  63  91 132 174 220 273 335 398
#     4  10  24  38  56  92 130 172 226 272 322 406
#     4  10  24  46  64  90 128 166 224 286 348 422
#
# _framework density 23.895499000000001
#
# number of rings (size 3 to 8) (size 9 to 14) (size 15 to 20)
#    0.000    2.000    0.000    2.000    0.000   10.667 
#    0.000    3.333    0.000    0.000    0.000    0.000 
#    0.000    0.000    0.000    0.000    0.000    0.000 
#
# Total GULP energy -268136.284945 kJ/mol
# GULP energy per Si atom -5586.172603 kJ/mol
# Density = 2.384111 g / cm^3
# Si number density = 23.895499 Si / 1000 Ang^3
#
#
#
# Elastic Constant Matrix: (Units=GPa)
#
#
# Indices 1 2 3 4 5 6 
#
# 1 77.8633 25.7683 40.8893 0.0000 0.0000 0.0000
# 2 25.7683 77.8633 40.8893 0.0000 0.0000 0.0000
# 3 40.8893 40.8893 154.2704 0.0000 0.0000 0.0000
# 4 0.0000 0.0000 0.0000 12.2808 0.0000 0.0000
# 5 0.0000 0.0000 0.0000 0.0000 12.2808 0.0000
# 6 0.0000 0.0000 0.0000 0.0000 0.0000 33.5092
#
#
#
# Elastic Compliance Matrix: (Units=1/GPa)
#
#
# Indices 1 2 3 4 5 6 
#
# 1 0.015699 -0.003497 -0.003234 0.000000 0.000000 0.000000
# 2 -0.003497 0.015699 -0.003234 0.000000 0.000000 0.000000
# 3 -0.003234 -0.003234 0.008196 0.000000 0.000000 0.000000
# 4 0.000000 0.000000 0.000000 0.081428 0.000000 0.000000
# 5 0.000000 0.000000 0.000000 0.000000 0.081428 0.000000
# 6 0.000000 0.000000 0.000000 0.000000 0.000000 0.029843
#
#
# Mechanical properties :
#
#
# Convention : Reuss Voigt Hill
#
# Bulk Modulus (GPa) = 50.85540 58.34344 54.59942
# Shear Modulus (GPa) = 19.32167 25.11084 22.21625
#
# Velocity S-wave (km/s) = 2.84666 3.24521 3.05245
# Velocity P-wave (km/s) = 5.66862 6.20572 5.94324
#
# Compressibility (1/GPa) = 0.01966360
#
# Stress axis : x y z
#
# Youngs Moduli (GPa) = 63.69966 63.69966 122.00351
#
# Poissons Ratio (x) = 0.22276 0.39456
# Poissons Ratio (y) = 0.22276 0.39456
# Poissons Ratio (z) = 0.20601 0.20601
#
# Static dielectric constant tensor:
#      x y z
#    x 1.974770 0.000000 0.000000 
#    y 0.000000 1.974770 0.000000 
#    z 0.000000 0.000000 1.899740 
# 
# From -- ./inp_files/950.got.cif
#   From: 2010.05.17/outbox.cif.g08.bks.cpg/sg114_1_cif.got.tgz:950.got - 2010.05.20 11:04:54.
