data_PCOD9556680
_publ_section_title
;
Structure prediction by ZEFSAII (Michael W. Deem and Ramdas Pophale) SiO2 
 PCOD9556680
Probable space group: P -4 M 2
;
_chemical_formula_sum "Si O2"
_cell_formula_units_Z 48
_cell_length_a 8.136761
_cell_length_b 8.136761
_cell_length_c 35.066389
_cell_angle_alpha 90.000000
_cell_angle_beta 90.000000
_cell_angle_gamma 90.000000
_cell_volume 2321.636194
_symmetry_space_group_name_H-M "P -4 M 2"
_symmetry_group_IT_number 115
_symmetry_cell_setting 'tetragonal'
loop_
_space_group_symop_operation_xyz
x,y,z
y,-x,-z
-x,-y,z
-y,x,-z
y,x,-z
-y,-x,-z
-x,y,z
x,-y,z
loop_
_atom_site_type_symbol
_atom_site_label
_atom_site_fract_x
_atom_site_fract_y
_atom_site_fract_z
Si Si1 0.298839 0.818912 0.657559
Si Si2 0.196025 0.196025 0.000000
Si Si3 0.689756 0.690491 0.421750
Si Si4 0.698601 0.500000 0.704371
Si Si5 0.800672 0.688819 0.918126
Si Si6 0.811724 0.811724 0.500000
Si Si7 0.801380 0.500000 0.791929
Si Si8 0.798947 0.179828 0.838218
O O1 0.500000 0.813292 0.656659
O O2 0.243420 0.792917 0.613797
O O3 0.243528 0.665585 0.683029
O O4 0.250317 0.000000 0.671361
O O5 0.261002 0.268012 0.960289
O O6 0.000000 0.223554 0.001775
O O7 0.500000 0.695139 0.409414
O O8 0.736322 0.500000 0.427863
O O9 0.708343 0.774644 0.462438
O O10 0.500000 0.500000 0.702394
O O11 0.750438 0.500000 0.748135
O O12 0.764631 0.500000 0.909167
O O13 0.746039 0.795733 0.882200
O O14 0.000000 0.706371 0.920012
O O15 0.000000 0.786686 0.488460
O O16 0.743349 0.334857 0.813364
O O17 0.000000 0.500000 0.794196
O O18 0.000000 0.183295 0.838193
O O19 0.747522 0.000000 0.824173
#
# Coordination Sequence:
#
# PCOD9556680 Si02
#       8
#     8   4   8   4   8   4   4   8
#     4   9  17  32  56  82 107 138 177 225 276 328
#     4   9  16  24  38  65  94 116 148 199 250 294
#     4  10  19  34  57  82 104 132 179 231 274 323
#     4  10  20  36  56  80 108 140 180 222 268 338
#     4   9  15  25  42  65  94 127 165 208 254 306
#     4  11  24  37  48  72 112 151 184 219 264 324
#     4  10  20  34  52  78 108 136 174 222 276 332
#     4   9  16  28  48  73 102 136 173 217 271 328
#
# _framework density 20.675075
#
# number of rings (size 3 to 8) (size 9 to 14) (size 15 to 20)
#    0.000    2.500    1.667    1.500    0.000    5.333 
#    0.000    0.833    0.000    2.250    0.000    0.000 
#    0.000    0.000    0.000    0.000    0.000    0.000 
#
# Total GULP energy -267808.467145 kJ/mol
# GULP energy per Si atom -5579.343066 kJ/mol
# Density = 2.062802 g / cm^3
# Si number density = 20.675075 Si / 1000 Ang^3
#
#
#
# Elastic Constant Matrix: (Units=GPa)
#
#
# Indices 1 2 3 4 5 6 
#
# 1 25.5115 55.9535 38.1858 0.0000 0.0000 0.0000
# 2 55.9535 25.5115 38.1858 0.0000 0.0000 0.0000
# 3 38.1858 38.1858 129.0433 0.0000 0.0000 0.0000
# 4 0.0000 0.0000 0.0000 26.1878 0.0000 0.0000
# 5 0.0000 0.0000 0.0000 0.0000 26.1878 0.0000
# 6 0.0000 0.0000 0.0000 0.0000 0.0000 5.2334
#
#
#
# Elastic Compliance Matrix: (Units=1/GPa)
#
#
# Indices 1 2 3 4 5 6 
#
# 1 -0.007931 0.024919 -0.005027 0.000000 0.000000 0.000000
# 2 0.024919 -0.007931 -0.005027 0.000000 0.000000 0.000000
# 3 -0.005027 -0.005027 0.010724 0.000000 0.000000 0.000000
# 4 0.000000 0.000000 0.000000 0.038186 0.000000 0.000000
# 5 0.000000 0.000000 0.000000 0.000000 0.038186 0.000000
# 6 0.000000 0.000000 0.000000 0.000000 0.000000 0.191080
#
#
# Mechanical properties :
#
#
# Convention : Reuss Voigt Hill
#
# Bulk Modulus (GPa) = 40.66302 49.41293 45.03798
# Shear Modulus (GPa) = 20.76564 14.70456 17.73510
#
# Velocity S-wave (km/s) = 3.17263 2.66977 2.93200
# Velocity P-wave (km/s) = 5.75597 5.78405 5.77002
#
# Compressibility (1/GPa) = 0.02459237
#
# Stress axis : x y z
#
# Youngs Moduli (GPa) = -126.09189 -126.09189 93.24498
#
# Poissons Ratio (x) = 3.14204 0.46874
# Poissons Ratio (y) = 3.14204 0.46874
# Poissons Ratio (z) = -0.63386 -0.63386
#
# Static dielectric constant tensor:
#      x y z
#    x 1.749720 0.000000 0.000000 
#    y 0.000000 1.749720 0.000000 
#    z 0.000000 0.000000 1.754280 
# 
# From -- ./inp_files/6296.got.cif
#   From: 2010.05.17/outbox.cif.g08.bks.cpg/sg115_4_cif.got.tgz:6296.got - 2010.05.20 11:07:42.
