data_PCOD9556081
_publ_section_title
;
Structure prediction by ZEFSAII (Michael W. Deem and Ramdas Pophale) SiO2 
 PCOD9556081
Probable space group: P -4 21 C
;
_chemical_formula_sum "Si O2"
_cell_formula_units_Z 32
_cell_length_a 11.445046
_cell_length_b 11.445046
_cell_length_c 9.225019
_cell_angle_alpha 90.000000
_cell_angle_beta 90.000000
_cell_angle_gamma 90.000000
_cell_volume 1208.376733
_symmetry_space_group_name_H-M "P -4 21 C"
_symmetry_group_IT_number 114
_symmetry_cell_setting 'tetragonal'
loop_
_space_group_symop_operation_xyz
x,y,z
y,-x,-z
-x,-y,z
-y,x,-z
1/2+x,1/2-y,1/2-z
1/2-x,1/2+y,1/2-z
1/2-y,1/2-x,1/2+z
1/2+y,1/2+x,1/2+z
loop_
_atom_site_type_symbol
_atom_site_label
_atom_site_fract_x
_atom_site_fract_y
_atom_site_fract_z
Si Si1 0.500000 0.000000 0.663083
Si Si2 0.934534 0.241990 0.904972
Si Si3 0.487348 0.750262 0.111758
Si Si4 0.500000 0.500000 0.266567
Si Si5 0.809588 0.266920 0.614551
O O1 0.500329 0.867323 0.596888
O O2 0.364527 0.998839 0.717523
O O3 0.831774 0.258173 0.784365
O O4 0.989196 0.120609 0.855435
O O5 0.872616 0.232983 0.058511
O O6 0.509842 0.620001 0.172840
O O7 0.353723 0.744851 0.064069
O O8 0.566714 0.775673 0.970613
#
# Coordination Sequence:
#
# PCOD9556081 Si02
#       5
#     4   8   8   4   8
#     4  10  24  42  68 100 136 176 226 284 348 414
#     4  10  23  43  70 103 137 180 231 289 350 416
#     4  10  21  41  69  99 132 182 232 275 339 430
#     4  10  22  41  72 101 134 181 236 287 342 415
#     4  10  21  40  69  98 134 179 232 285 344 415
#
# _framework density 26.481807
#
# number of rings (size 3 to 8) (size 9 to 14) (size 15 to 20)
#    0.000    2.000    0.000    3.000    0.000   17.000 
#    0.000   15.000    0.000   18.000    0.000    0.000 
#    0.000    0.000    0.000    0.000    0.000    0.000 
#
# Total GULP energy -178464.593299 kJ/mol
# GULP energy per Si atom -5577.018541 kJ/mol
# Density = 2.642153 g / cm^3
# Si number density = 26.481807 Si / 1000 Ang^3
#
#
#
# Elastic Constant Matrix: (Units=GPa)
#
#
# Indices 1 2 3 4 5 6 
#
# 1 161.0015 17.3212 23.4367 0.0000 0.0000 0.0000
# 2 17.3212 161.0015 23.4367 0.0000 0.0000 0.0000
# 3 23.4367 23.4367 85.8177 0.0000 0.0000 0.0000
# 4 0.0000 0.0000 0.0000 23.1845 0.0000 0.0000
# 5 0.0000 0.0000 0.0000 0.0000 23.1845 0.0000
# 6 0.0000 0.0000 0.0000 0.0000 0.0000 8.3719
#
#
#
# Elastic Compliance Matrix: (Units=1/GPa)
#
#
# Indices 1 2 3 4 5 6 
#
# 1 0.006501 -0.000459 -0.001650 0.000000 0.000000 0.000000
# 2 -0.000459 0.006501 -0.001650 0.000000 0.000000 0.000000
# 3 -0.001650 -0.001650 0.012554 0.000000 0.000000 0.000000
# 4 0.000000 0.000000 0.000000 0.043132 0.000000 0.000000
# 5 0.000000 0.000000 0.000000 0.000000 0.043132 0.000000
# 6 0.000000 0.000000 0.000000 0.000000 0.000000 0.119448
#
#
# Mechanical properties :
#
#
# Convention : Reuss Voigt Hill
#
# Bulk Modulus (GPa) = 55.44126 59.57885 57.51005
# Shear Modulus (GPa) = 20.42503 33.85659 27.14081
#
# Velocity S-wave (km/s) = 2.78022 3.57947 3.20486
# Velocity P-wave (km/s) = 5.59349 6.29526 5.95473
#
# Compressibility (1/GPa) = 0.01803711
#
# Stress axis : x y z
#
# Youngs Moduli (GPa) = 153.82953 153.82953 79.65719
#
# Poissons Ratio (x) = 0.07064 0.13143
# Poissons Ratio (y) = 0.07064 0.13143
# Poissons Ratio (z) = 0.25381 0.25381
#
# Static dielectric constant tensor:
#      x y z
#    x 2.120150 0.000000 0.000000 
#    y 0.000000 2.120150 0.000000 
#    z 0.000000 0.000000 2.064370 
# 
# From -- ./inp_files/1428.got.cif
#   From: 2010.05.17/outbox.cif.g08.bks.cpg/sg114_1_cif.got.tgz:1428.got - 2010.05.20 11:04:54.
