data_PCOD9556562
_publ_section_title
;
Structure prediction by ZEFSAII (Michael W. Deem and Ramdas Pophale) SiO2 
 PCOD9556562
Probable space group: P -4 M 2
;
_chemical_formula_sum "Si O2"
_cell_formula_units_Z 64
_cell_length_a 18.033855
_cell_length_b 18.033855
_cell_length_c 11.408576
_cell_angle_alpha 90.000000
_cell_angle_beta 90.000000
_cell_angle_gamma 90.000000
_cell_volume 3710.296244
_symmetry_space_group_name_H-M "P -4 M 2"
_symmetry_group_IT_number 115
_symmetry_cell_setting 'tetragonal'
loop_
_space_group_symop_operation_xyz
x,y,z
y,-x,-z
-x,-y,z
-y,x,-z
y,x,-z
-y,-x,-z
-x,y,z
x,-y,z
loop_
_atom_site_type_symbol
_atom_site_label
_atom_site_fract_x
_atom_site_fract_y
_atom_site_fract_z
Si Si1 0.414106 0.319795 0.828156
Si Si2 0.912367 0.778970 0.726881
Si Si3 0.179991 0.587733 0.333420
Si Si4 0.683354 0.085750 0.496386
Si Si5 0.179445 0.710419 0.931079
Si Si6 0.913144 0.328418 0.148040
Si Si7 0.415684 0.282046 0.105090
Si Si8 0.915868 0.811207 0.312649
O O1 0.500000 0.339300 0.806416
O O2 0.391242 0.258314 0.730574
O O3 0.359267 0.389364 0.837359
O O4 0.411147 0.287676 0.961959
O O5 0.901125 0.711914 0.634626
O O6 0.871794 0.758092 0.846722
O O7 0.873631 0.854028 0.682522
O O8 0.000000 0.789169 0.741380
O O9 0.181907 0.500000 0.353351
O O10 0.148807 0.630566 0.447905
O O11 0.120093 0.611061 0.235503
O O12 0.758129 0.087123 0.574410
O O13 0.653996 0.000000 0.507213
O O14 0.223684 0.647322 0.861169
O O15 0.238513 0.761488 0.000000
O O16 0.128676 0.670509 0.026443
O O17 0.900768 0.247451 0.207435
O O18 0.000000 0.338650 0.135103
O O19 0.500000 0.263748 0.135399
O O20 0.000000 0.839616 0.300148
#
# Coordination Sequence:
#
# PCOD9556562 Si02
#       8
#     8   8   8   8   8   8   8   8
#     4   9  17  30  51  81 110 138 175 218 269 323
#     4  11  23  37  55  79 109 148 188 225 275 339
#     4  10  18  32  56  83 110 138 179 236 283 321
#     4   9  20  36  52  79 110 140 183 228 279 336
#     4  12  20  35  55  76 107 148 186 221 269 321
#     4  10  19  31  50  77 107 138 180 227 276 325
#     4  10  19  32  50  77 114 149 177 212 265 327
#     4   9  18  34  55  78 107 139 178 234 283 325
#
# _framework density 17.249298
#
# number of rings (size 3 to 8) (size 9 to 14) (size 15 to 20)
#    0.000    2.000    3.750    1.875    1.750    1.500 
#    0.000    1.875    0.000    4.125    0.000    0.000 
#    0.000    0.000    0.000    2.750    0.000    0.000 
#
# Total GULP energy -356611.624584 kJ/mol
# GULP energy per Si atom -5572.056634 kJ/mol
# Density = 1.721004 g / cm^3
# Si number density = 17.249298 Si / 1000 Ang^3
#
#
#
# Elastic Constant Matrix: (Units=GPa)
#
#
# Indices 1 2 3 4 5 6 
#
# 1 68.4871 32.7469 24.9610 0.0000 0.0000 0.0000
# 2 32.7469 68.4871 24.9616 0.0000 0.0000 0.0000
# 3 24.9610 24.9616 24.4810 0.0000 0.0000 0.0000
# 4 0.0000 0.0000 0.0000 18.0482 0.0000 0.0000
# 5 0.0000 0.0000 0.0000 0.0000 18.0480 0.0000
# 6 0.0000 0.0000 0.0000 0.0000 0.0000 19.5613
#
#
#
# Elastic Compliance Matrix: (Units=1/GPa)
#
#
# Indices 1 2 3 4 5 6 
#
# 1 0.023924 -0.004056 -0.020257 0.000000 0.000000 0.000000
# 2 -0.004056 0.023924 -0.020259 0.000000 0.000000 0.000000
# 3 -0.020257 -0.020259 0.082159 0.000000 0.000000 0.000000
# 4 0.000000 0.000000 0.000000 0.055407 0.000000 0.000000
# 5 0.000000 0.000000 0.000000 0.000000 0.055408 0.000000
# 6 0.000000 0.000000 0.000000 0.000000 0.000000 0.051121
#
#
# Mechanical properties :
#
#
# Convention : Reuss Voigt Hill
#
# Bulk Modulus (GPa) = 24.47186 36.31048 30.39117
# Shear Modulus (GPa) = 12.66762 16.38387 14.52574
#
# Velocity S-wave (km/s) = 2.71289 3.08527 2.90506
# Velocity P-wave (km/s) = 4.90214 5.81274 5.37676
#
# Compressibility (1/GPa) = 0.04086326
#
# Stress axis : x y z
#
# Youngs Moduli (GPa) = 41.79980 41.79858 12.17156
#
# Poissons Ratio (x) = 0.16953 0.24656
# Poissons Ratio (y) = 0.16953 0.24658
# Poissons Ratio (z) = 0.84675 0.84678
#
# Static dielectric constant tensor:
#      x y z
#    x 1.586190 0.000000 0.000000 
#    y 0.000000 1.586190 0.000000 
#    z 0.000000 0.000000 1.606910 
# 
# From -- ./inp_files/3207.got.cif
#   From: 2010.05.17/outbox.cif.g08.bks.cpg/sg115_2_cif.got.tgz:3207.got - 2010.05.20 11:07:42.
