data_PCOD9556787
_publ_section_title
;
Structure prediction by ZEFSAII (Michael W. Deem and Ramdas Pophale) SiO2 
 PCOD9556787
Probable space group: P -4 M 2
;
_chemical_formula_sum "Si O2"
_cell_formula_units_Z 44
_cell_length_a 9.105224
_cell_length_b 9.105224
_cell_length_c 29.770416
_cell_angle_alpha 90.000000
_cell_angle_beta 90.000000
_cell_angle_gamma 90.000000
_cell_volume 2468.119437
_symmetry_space_group_name_H-M "P -4 M 2"
_symmetry_group_IT_number 115
_symmetry_cell_setting 'tetragonal'
loop_
_space_group_symop_operation_xyz
x,y,z
y,-x,-z
-x,-y,z
-y,x,-z
y,x,-z
-y,-x,-z
-x,y,z
x,-y,z
loop_
_atom_site_type_symbol
_atom_site_label
_atom_site_fract_x
_atom_site_fract_y
_atom_site_fract_z
Si Si1 0.325567 0.325567 0.500000
Si Si2 0.670959 0.320836 0.146062
Si Si3 0.174775 0.673458 0.677743
Si Si4 0.173789 0.324472 0.406998
Si Si5 0.672995 0.679047 0.951696
Si Si6 0.323568 0.172897 0.762480
O O1 0.302287 0.500000 0.506986
O O2 0.240223 0.280564 0.455169
O O3 0.500000 0.279318 0.151943
O O4 0.674436 0.500000 0.144308
O O5 0.724624 0.266844 0.096996
O O6 0.763772 0.275938 0.189186
O O7 0.205691 0.500000 0.676787
O O8 0.242419 0.748255 0.633709
O O9 0.246213 0.743801 0.721907
O O10 0.000000 0.695042 0.678545
O O11 0.198333 0.500000 0.402046
O O12 0.000000 0.298002 0.405903
O O13 0.500000 0.717190 0.951781
O O14 0.680134 0.500000 0.951774
O O15 0.732421 0.732421 0.000000
O O16 0.500000 0.193914 0.758845
O O17 0.293790 0.000000 0.759728
#
# Coordination Sequence:
#
# PCOD9556787 Si02
#       6
#     4   8   8   8   8   8
#     4   9  18  34  56  81 110 144 178 209 242 283
#     4   8  13  22  38  61  89 121 157 198 244 292
#     4  11  24  39  55  76 101 131 169 212 256 302
#     4  10  21  37  58  84 112 141 173 209 249 294
#     4   7   9  14  27  51  83 115 148 190 239 287
#     4  10  20  33  50  73 100 130 165 205 250 301
#
# _framework density 17.827337
#
# number of rings (size 3 to 8) (size 9 to 14) (size 15 to 20)
#    0.000    2.818    0.000    3.818    0.000    6.545 
#    0.000    1.818    0.000    0.000    0.000    1.273 
#    0.000    7.273    0.000    0.000    0.000    0.000 
#
# Total GULP energy -245204.109990 kJ/mol
# GULP energy per Si atom -5572.820682 kJ/mol
# Density = 1.778676 g / cm^3
# Si number density = 17.827337 Si / 1000 Ang^3
#
#
#
# Elastic Constant Matrix: (Units=GPa)
#
#
# Indices 1 2 3 4 5 6 
#
# 1 48.7105 49.6642 78.2738 0.0000 0.0000 0.0000
# 2 49.6642 48.7105 78.2738 0.0000 0.0000 0.0000
# 3 78.2738 78.2738 230.3059 0.0000 0.0000 0.0000
# 4 0.0000 0.0000 0.0000 -12.7243 0.0000 0.0000
# 5 0.0000 0.0000 0.0000 0.0000 -12.7243 0.0000
# 6 0.0000 0.0000 0.0000 0.0000 0.0000 16.3953
#
#
#
# Elastic Compliance Matrix: (Units=1/GPa)
#
#
# Indices 1 2 3 4 5 6 
#
# 1 -0.513212 0.535351 -0.007524 0.000000 0.000000 0.000000
# 2 0.535351 -0.513212 -0.007524 0.000000 0.000000 0.000000
# 3 -0.007524 -0.007524 0.009457 0.000000 0.000000 0.000000
# 4 0.000000 0.000000 0.000000 -0.078590 0.000000 0.000000
# 5 0.000000 0.000000 0.000000 0.000000 -0.078590 0.000000
# 6 0.000000 0.000000 0.000000 0.000000 0.000000 0.060993
#
#
# Mechanical properties :
#
#
# Convention : Reuss Voigt Hill
#
# Bulk Modulus (GPa) = 42.30602 82.23895 62.27248
# Shear Modulus (GPa) = -2.33005 6.29037 1.98016
#
# Velocity S-wave (km/s) = -1.14448 1.88047 1.05506
# Velocity P-wave (km/s) = 4.69426 7.13763 6.04077
#
# Compressibility (1/GPa) = 0.02363730
#
# Stress axis : x y z
#
# Youngs Moduli (GPa) = -1.94851 -1.94851 105.74550
#
# Poissons Ratio (x) = 1.04314 0.79567
# Poissons Ratio (y) = 1.04314 0.79567
# Poissons Ratio (z) = -0.01466 -0.01466
#
# Static dielectric constant tensor:
#      x y z
#    x 1.588330 0.000000 0.000000 
#    y 0.000000 1.588330 0.000000 
#    z 0.000000 0.000000 1.627740 
# 
# From -- ./inp_files/5762.got.cif
#   From: 2010.05.17/outbox.cif.g08.bks.cpg/sg115_3_cif.got.tgz:5762.got - 2010.05.20 11:07:42.
