data_PCOD9556632
_publ_section_title
;
Structure prediction by ZEFSAII (Michael W. Deem and Ramdas Pophale) SiO2 
 PCOD9556632
Probable space group: P -4 M 2
;
_chemical_formula_sum "Si O2"
_cell_formula_units_Z 60
_cell_length_a 14.634647
_cell_length_b 14.634647
_cell_length_c 15.248877
_cell_angle_alpha 90.000000
_cell_angle_beta 90.000000
_cell_angle_gamma 90.000000
_cell_volume 3265.896099
_symmetry_space_group_name_H-M "P -4 M 2"
_symmetry_group_IT_number 115
_symmetry_cell_setting 'tetragonal'
loop_
_space_group_symop_operation_xyz
x,y,z
y,-x,-z
-x,-y,z
-y,x,-z
y,x,-z
-y,-x,-z
-x,y,z
x,-y,z
loop_
_atom_site_type_symbol
_atom_site_label
_atom_site_fract_x
_atom_site_fract_y
_atom_site_fract_z
Si Si1 0.606311 0.867192 0.686432
Si Si2 0.889741 0.896155 0.250015
Si Si3 0.107030 0.216413 0.428341
Si Si4 0.399148 0.343685 0.123727
Si Si5 0.394634 0.349035 0.690224
Si Si6 0.607778 0.392223 0.500000
Si Si7 0.727629 0.103180 0.857496
Si Si8 0.219128 0.401571 0.030220
O O1 0.500000 0.897837 0.675152
O O2 0.678454 0.884912 0.606895
O O3 0.601150 0.758985 0.699763
O O4 0.657574 0.900741 0.774386
O O5 0.875465 0.848234 0.343856
O O6 0.856185 0.822741 0.178571
O O7 0.000000 0.899504 0.239693
O O8 0.855228 0.000000 0.244991
O O9 0.179379 0.179379 0.500000
O O10 0.000000 0.203018 0.455672
O O11 0.500000 0.381623 0.103780
O O12 0.388663 0.340293 0.227871
O O13 0.314721 0.399501 0.084150
O O14 0.393197 0.248685 0.070741
O O15 0.500000 0.384991 0.694585
O O16 0.352934 0.365134 0.593999
O O17 0.500000 0.375182 0.508081
O O18 0.680393 0.161095 0.932450
O O19 0.743418 0.000000 0.887232
O O20 0.174367 0.500000 0.045897
#
# Coordination Sequence:
#
# PCOD9556632 Si02
#       8
#     8   8   8   8   8   4   8   8
#     4  10  20  33  50  77 112 148 186 230 283 340
#     4   8  15  29  50  79 111 141 179 229 286 344
#     4  10  20  32  51  80 110 144 186 237 294 345
#     4  10  20  33  52  75 105 144 183 226 282 333
#     4  10  19  32  51  76 107 146 185 224 275 326
#     4   9  18  30  46  72 106 144 189 226 258 320
#     4  10  19  32  54  82 111 147 187 230 284 340
#     4  10  20  33  49  78 113 144 184 233 281 335
#
# _framework density 18.371679
#
# number of rings (size 3 to 8) (size 9 to 14) (size 15 to 20)
#    0.000    2.333    1.333    2.800    0.933    4.667 
#    0.000    2.667    0.000    3.200    0.000    0.000 
#    0.000    0.000    0.000    0.000    0.000    0.000 
#
# Total GULP energy -334075.617707 kJ/mol
# GULP energy per Si atom -5567.926962 kJ/mol
# Density = 1.832986 g / cm^3
# Si number density = 18.371679 Si / 1000 Ang^3
#
#
#
# Elastic Constant Matrix: (Units=GPa)
#
#
# Indices 1 2 3 4 5 6 
#
# 1 94.0465 18.5810 33.2687 0.0000 0.0000 0.0000
# 2 18.5810 94.0467 33.2688 0.0000 0.0000 0.0000
# 3 33.2687 33.2688 113.6921 0.0000 0.0000 0.0000
# 4 0.0000 0.0000 0.0000 22.4316 0.0000 0.0000
# 5 0.0000 0.0000 0.0000 0.0000 22.4317 0.0000
# 6 0.0000 0.0000 0.0000 0.0000 0.0000 13.9858
#
#
#
# Elastic Compliance Matrix: (Units=1/GPa)
#
#
# Indices 1 2 3 4 5 6 
#
# 1 0.011993 -0.001258 -0.003141 0.000000 0.000000 0.000000
# 2 -0.001258 0.011993 -0.003141 0.000000 0.000000 0.000000
# 3 -0.003141 -0.003141 0.010634 0.000000 0.000000 0.000000
# 4 0.000000 0.000000 0.000000 0.044580 0.000000 0.000000
# 5 0.000000 0.000000 0.000000 0.000000 0.044580 0.000000
# 6 0.000000 0.000000 0.000000 0.000000 0.000000 0.071501
#
#
# Mechanical properties :
#
#
# Convention : Reuss Voigt Hill
#
# Bulk Modulus (GPa) = 51.18107 52.44692 51.81399
# Shear Modulus (GPa) = 23.05482 26.21427 24.63455
#
# Velocity S-wave (km/s) = 3.54632 3.78151 3.66580
# Velocity P-wave (km/s) = 6.68488 6.90479 6.79572
#
# Compressibility (1/GPa) = 0.01953847
#
# Stress axis : x y z
#
# Youngs Moduli (GPa) = 83.38327 83.38345 94.03771
#
# Poissons Ratio (x) = 0.10492 0.29539
# Poissons Ratio (y) = 0.10492 0.29539
# Poissons Ratio (z) = 0.26192 0.26192
#
# Static dielectric constant tensor:
#      x y z
#    x 1.660480 0.000000 0.000000 
#    y 0.000000 1.660470 0.000000 
#    z 0.000000 0.000000 1.667640 
# 
# From -- ./inp_files/3921.got.cif
#   From: 2010.05.17/outbox.cif.g08.bks.cpg/sg115_2_cif.got.tgz:3921.got - 2010.05.20 11:07:42.
