data_PCOD9556267
_publ_section_title
;
Structure prediction by ZEFSAII (Michael W. Deem and Ramdas Pophale) SiO2 
 PCOD9556267
Probable space group: P -4 21 C
;
_chemical_formula_sum "Si O2"
_cell_formula_units_Z 34
_cell_length_a 9.000298
_cell_length_b 9.000298
_cell_length_c 19.863298
_cell_angle_alpha 90.000000
_cell_angle_beta 90.000000
_cell_angle_gamma 90.000000
_cell_volume 1609.033686
_symmetry_space_group_name_H-M "P -4 21 C"
_symmetry_group_IT_number 114
_symmetry_cell_setting 'tetragonal'
loop_
_space_group_symop_operation_xyz
x,y,z
y,-x,-z
-x,-y,z
-y,x,-z
1/2+x,1/2-y,1/2-z
1/2-x,1/2+y,1/2-z
1/2-y,1/2-x,1/2+z
1/2+y,1/2+x,1/2+z
loop_
_atom_site_type_symbol
_atom_site_label
_atom_site_fract_x
_atom_site_fract_y
_atom_site_fract_z
Si Si1 0.784127 0.129594 0.205694
Si Si2 0.189746 0.258076 0.434304
Si Si3 0.626523 0.295819 0.319470
Si Si4 0.000000 0.000000 0.500000
Si Si5 0.838686 0.523454 0.551027
O O1 0.692352 0.203021 0.144341
O O2 0.708892 0.173007 0.275451
O O3 0.953161 0.190359 0.201399
O O4 0.797358 0.953907 0.194139
O O5 0.361870 0.232483 0.454366
O O6 0.139010 0.394354 0.480715
O O7 0.092896 0.115477 0.454490
O O8 0.623505 0.257045 0.398272
O O9 0.000000 0.500000 0.583724
#
# Coordination Sequence:
#
# PCOD9556267 Si02
#       5
#     8   8   8   2   8
#     4  10  24  44  65  97 129 173 222 267 327 391
#     4  11  24  43  67  98 129 174 219 272 328 394
#     4  10  24  42  67  94 132 173 217 273 324 391
#     4  12  24  40  64 100 136 160 216 286 328 380
#     4  11  23  43  68  95 134 173 220 271 335 391
#
# _framework density 21.130697000000001
#
# number of rings (size 3 to 8) (size 9 to 14) (size 15 to 20)
#    0.000    1.412    2.353    1.412    6.588    6.118 
#    4.235    0.000    0.000    0.000    0.000    0.000 
#    0.000    0.000    0.000    0.000    0.000    0.000 
#
# Total GULP energy -190153.707410 kJ/mol
# GULP energy per Si atom -5592.756100 kJ/mol
# Density = 2.108260 g / cm^3
# Si number density = 21.130697 Si / 1000 Ang^3
#
#
#
# Elastic Constant Matrix: (Units=GPa)
#
#
# Indices 1 2 3 4 5 6 
#
# 1 69.7398 29.8383 34.7455 0.0000 0.0000 0.0000
# 2 29.8383 69.7398 34.7455 0.0000 0.0000 0.0000
# 3 34.7455 34.7455 57.3986 0.0000 0.0000 0.0000
# 4 0.0000 0.0000 0.0000 -14.6914 0.0000 0.0000
# 5 0.0000 0.0000 0.0000 0.0000 -14.6914 0.0000
# 6 0.0000 0.0000 0.0000 0.0000 0.0000 37.5676
#
#
#
# Elastic Compliance Matrix: (Units=1/GPa)
#
#
# Indices 1 2 3 4 5 6 
#
# 1 0.021225 -0.003837 -0.010525 0.000000 0.000000 0.000000
# 2 -0.003837 0.021225 -0.010525 0.000000 0.000000 0.000000
# 3 -0.010525 -0.010525 0.030165 0.000000 0.000000 0.000000
# 4 0.000000 0.000000 0.000000 -0.068067 0.000000 0.000000
# 5 0.000000 0.000000 0.000000 0.000000 -0.068067 0.000000
# 6 0.000000 0.000000 0.000000 0.000000 0.000000 0.026619
#
#
# Mechanical properties :
#
#
# Convention : Reuss Voigt Hill
#
# Bulk Modulus (GPa) = 43.78565 43.94855 43.86710
# Shear Modulus (GPa) = 244.05709 8.14021 126.09865
#
# Velocity S-wave (km/s) = 10.75870 1.96486 7.73338
# Velocity P-wave (km/s) = 13.23250 5.09815 10.02722
#
# Compressibility (1/GPa) = 0.02283853
#
# Stress axis : x y z
#
# Youngs Moduli (GPa) = 47.11518 47.11518 33.15133
#
# Poissons Ratio (x) = 0.18079 0.34893
# Poissons Ratio (y) = 0.18079 0.34893
# Poissons Ratio (z) = 0.49590 0.49590
#
# Static dielectric constant tensor:
#      x y z
#    x 2.352800 0.000000 0.000000 
#    y 0.000000 2.352800 0.000000 
#    z 0.000000 0.000000 1.709200 
# 
# From -- ./inp_files/2932.got.cif
#   From: 2010.05.17/outbox.cif.g08.bks.cpg/sg114_2_cif.got.tgz:2932.got - 2010.05.20 11:04:54.
