data_PCOD9556433
_publ_section_title
;
Structure prediction by ZEFSAII (Michael W. Deem and Ramdas Pophale) SiO2 
 PCOD9556433
Probable space group: P -4 21 C
;
_chemical_formula_sum "Si O2"
_cell_formula_units_Z 36
_cell_length_a 8.043173
_cell_length_b 8.043173
_cell_length_c 23.265492
_cell_angle_alpha 90.000000
_cell_angle_beta 90.000000
_cell_angle_gamma 90.000000
_cell_volume 1505.105910
_symmetry_space_group_name_H-M "P -4 21 C"
_symmetry_group_IT_number 114
_symmetry_cell_setting 'tetragonal'
loop_
_space_group_symop_operation_xyz
x,y,z
y,-x,-z
-x,-y,z
-y,x,-z
1/2+x,1/2-y,1/2-z
1/2-x,1/2+y,1/2-z
1/2-y,1/2-x,1/2+z
1/2+y,1/2+x,1/2+z
loop_
_atom_site_type_symbol
_atom_site_label
_atom_site_fract_x
_atom_site_fract_y
_atom_site_fract_z
Si Si1 0.769200 0.404648 0.683223
Si Si2 0.181874 0.314091 0.977850
Si Si3 0.000000 0.500000 0.380360
Si Si4 0.247721 0.594494 0.296075
Si Si5 0.000000 0.000000 0.000000
Si Si6 0.000000 0.500000 0.080472
Si Si7 0.500000 0.500000 0.000000
O O1 0.714178 0.595156 0.695451
O O2 0.593165 0.306699 0.688441
O O3 0.883972 0.325315 0.732619
O O4 0.870707 0.409211 0.623911
O O5 0.073166 0.368113 0.924112
O O6 0.154650 0.117302 0.980994
O O7 0.122418 0.399830 0.037570
O O8 0.361980 0.392790 0.966998
O O9 0.903603 0.370951 0.339774
#
# Coordination Sequence:
#
# PCOD9556433 Si02
#       7
#     8   8   4   8   2   4   2
#     4  11  25  46  74 108 153 204 258 320 390 465
#     4  11  28  47  78 110 164 196 266 312 398 466
#     4  11  25  46  72 114 147 213 248 326 380 481
#     4  11  25  46  74 108 153 204 258 320 390 465
#     4  12  28  56  76 116 158 224 252 316 396 506
#     4  11  25  46  72 114 147 213 248 326 380 481
#     4  12  28  56  68 124 158 208 252 340 380 466
#
# _framework density 23.918583999999999
#
# number of rings (size 3 to 8) (size 9 to 14) (size 15 to 20)
#    0.000    0.889    0.000    6.000   12.444    0.000 
#    0.000    0.000    0.000    0.000    0.000    0.000 
#    0.000    0.000    0.000    0.000    0.000    0.000 
#
# Total GULP energy -201040.432324 kJ/mol
# GULP energy per Si atom -5584.456453 kJ/mol
# Density = 2.386414 g / cm^3
# Si number density = 23.918584 Si / 1000 Ang^3
#
#
#
# Elastic Constant Matrix: (Units=GPa)
#
#
# Indices 1 2 3 4 5 6 
#
# 1 110.6697 23.1422 53.3225 0.0000 0.0000 0.0000
# 2 23.1422 110.6697 53.3225 0.0000 0.0000 0.0000
# 3 53.3225 53.3225 181.3870 0.0000 0.0000 0.0000
# 4 0.0000 0.0000 0.0000 82.7846 0.0000 0.0000
# 5 0.0000 0.0000 0.0000 0.0000 82.7846 0.0000
# 6 0.0000 0.0000 0.0000 0.0000 0.0000 56.0488
#
#
#
# Elastic Compliance Matrix: (Units=1/GPa)
#
#
# Indices 1 2 3 4 5 6 
#
# 1 0.010592 -0.000833 -0.002869 0.000000 0.000000 0.000000
# 2 -0.000833 0.010592 -0.002869 0.000000 0.000000 0.000000
# 3 -0.002869 -0.002869 0.007200 0.000000 0.000000 0.000000
# 4 0.000000 0.000000 0.000000 0.012080 0.000000 0.000000
# 5 0.000000 0.000000 0.000000 0.000000 0.012080 0.000000
# 6 0.000000 0.000000 0.000000 0.000000 0.000000 0.017842
#
#
# Mechanical properties :
#
#
# Convention : Reuss Voigt Hill
#
# Bulk Modulus (GPa) = 65.60338 73.58898 69.59618
# Shear Modulus (GPa) = 56.42835 62.51956 59.47395
#
# Velocity S-wave (km/s) = 4.86241 5.11813 4.99191
# Velocity P-wave (km/s) = 7.68189 8.10927 7.89847
#
# Compressibility (1/GPa) = 0.01524312
#
# Stress axis : x y z
#
# Youngs Moduli (GPa) = 94.40755 94.40755 138.89021
#
# Poissons Ratio (x) = 0.07860 0.39849
# Poissons Ratio (y) = 0.07860 0.39849
# Poissons Ratio (z) = 0.27086 0.27086
#
# Static dielectric constant tensor:
#      x y z
#    x 1.880790 0.000000 0.000000 
#    y 0.000000 1.880790 0.000000 
#    z 0.000000 0.000000 1.848760 
# 
# From -- ./inp_files/3028.got.cif
#   From: 2010.05.17/outbox.cif.g08.bks.cpg/sg114_2_cif.got.tgz:3028.got - 2010.05.20 11:04:54.
