data_PCOD9556182
_publ_section_title
;
Structure prediction by ZEFSAII (Michael W. Deem and Ramdas Pophale) SiO2 
 PCOD9556182
Probable space group: P -4 21 C
;
_chemical_formula_sum "Si O2"
_cell_formula_units_Z 32
_cell_length_a 9.917409
_cell_length_b 9.917409
_cell_length_c 16.206178
_cell_angle_alpha 90.000000
_cell_angle_beta 90.000000
_cell_angle_gamma 90.000000
_cell_volume 1593.958658
_symmetry_space_group_name_H-M "P -4 21 C"
_symmetry_group_IT_number 114
_symmetry_cell_setting 'tetragonal'
loop_
_space_group_symop_operation_xyz
x,y,z
y,-x,-z
-x,-y,z
-y,x,-z
1/2+x,1/2-y,1/2-z
1/2-x,1/2+y,1/2-z
1/2-y,1/2-x,1/2+z
1/2+y,1/2+x,1/2+z
loop_
_atom_site_type_symbol
_atom_site_label
_atom_site_fract_x
_atom_site_fract_y
_atom_site_fract_z
Si Si1 0.000000 0.500000 0.981466
Si Si2 0.553828 0.217788 0.655592
Si Si3 0.000000 0.000000 0.166138
Si Si4 0.148754 0.819123 0.720927
Si Si5 0.699767 0.471770 0.040922
O O1 0.038189 0.381136 0.919212
O O2 0.138938 0.531003 0.029160
O O3 0.544480 0.368579 0.619259
O O4 0.695228 0.202957 0.702568
O O5 0.430291 0.211010 0.721303
O O6 0.045910 0.121249 0.226395
O O7 0.071177 0.829800 0.634412
O O8 0.616710 0.365340 0.983415
#
# Coordination Sequence:
#
# PCOD9556182 Si02
#       5
#     4   8   4   8   8
#     4  12  26  44  64 110 132 176 228 284 320 422
#     4  10  24  40  68  97 131 166 231 272 333 381
#     4   8  22  40  67  95 130 164 216 282 326 374
#     4  10  22  42  67  95 126 180 217 273 330 396
#     4  11  24  44  70  91 140 180 220 269 345 403
#
# _framework density 20.075804000000002
#
# number of rings (size 3 to 8) (size 9 to 14) (size 15 to 20)
#    1.500    0.250    2.500    1.500    7.000    1.000 
#    4.500    0.000    0.000    0.000    0.000    0.000 
#    0.000    0.000    0.000    0.000    0.000    0.000 
#
# Total GULP energy -178203.196067 kJ/mol
# GULP energy per Si atom -5568.849877 kJ/mol
# Density = 2.003011 g / cm^3
# Si number density = 20.075804 Si / 1000 Ang^3
#
#
#
# Elastic Constant Matrix: (Units=GPa)
#
#
# Indices 1 2 3 4 5 6 
#
# 1 102.0884 0.8062 -9.2931 0.0000 0.0000 0.0000
# 2 0.8062 102.0884 -9.2931 0.0000 0.0000 0.0000
# 3 -9.2931 -9.2931 29.4563 0.0000 0.0000 0.0000
# 4 0.0000 0.0000 0.0000 9.1392 0.0000 0.0000
# 5 0.0000 0.0000 0.0000 0.0000 9.1392 0.0000
# 6 0.0000 0.0000 0.0000 0.0000 0.0000 26.5534
#
#
#
# Elastic Compliance Matrix: (Units=1/GPa)
#
#
# Indices 1 2 3 4 5 6 
#
# 1 0.010090 0.000216 0.003251 0.000000 0.000000 0.000000
# 2 0.000216 0.010090 0.003251 0.000000 0.000000 0.000000
# 3 0.003251 0.003251 0.036000 0.000000 0.000000 0.000000
# 4 0.000000 0.000000 0.000000 0.109418 0.000000 0.000000
# 5 0.000000 0.000000 0.000000 0.000000 0.109418 0.000000
# 6 0.000000 0.000000 0.000000 0.000000 0.000000 0.037660
#
#
# Mechanical properties :
#
#
# Convention : Reuss Voigt Hill
#
# Bulk Modulus (GPa) = 14.36414 22.00812 18.18613
# Shear Modulus (GPa) = 15.50656 25.72725 20.61691
#
# Velocity S-wave (km/s) = 2.78222 3.58370 3.20809
# Velocity P-wave (km/s) = 4.18229 5.30190 4.77502
#
# Compressibility (1/GPa) = 0.06961783
#
# Stress axis : x y z
#
# Youngs Moduli (GPa) = 99.11096 99.11096 27.77766
#
# Poissons Ratio (x) = -0.02144 -0.09032
# Poissons Ratio (y) = -0.02144 -0.09032
# Poissons Ratio (z) = -0.32225 -0.32225
#
# Static dielectric constant tensor:
#      x y z
#    x 1.737900 0.000000 0.000000 
#    y 0.000000 1.737900 0.000000 
#    z 0.000000 0.000000 1.659950 
# 
# From -- ./inp_files/2898.got.cif
#   From: 2010.05.17/outbox.cif.g08.bks.cpg/sg114_2_cif.got.tgz:2898.got - 2010.05.20 11:04:54.
