data_PCOD9556781
_publ_section_title
;
Structure prediction by ZEFSAII (Michael W. Deem and Ramdas Pophale) SiO2 
 PCOD9556781
Probable space group: P -4 M 2
;
_chemical_formula_sum "Si O2"
_cell_formula_units_Z 48
_cell_length_a 9.132342
_cell_length_b 9.132342
_cell_length_c 32.568520
_cell_angle_alpha 90.000000
_cell_angle_beta 90.000000
_cell_angle_gamma 90.000000
_cell_volume 2716.203834
_symmetry_space_group_name_H-M "P -4 M 2"
_symmetry_group_IT_number 115
_symmetry_cell_setting 'tetragonal'
loop_
_space_group_symop_operation_xyz
x,y,z
y,-x,-z
-x,-y,z
-y,x,-z
y,x,-z
-y,-x,-z
-x,y,z
x,-y,z
loop_
_atom_site_type_symbol
_atom_site_label
_atom_site_fract_x
_atom_site_fract_y
_atom_site_fract_z
Si Si1 0.672825 0.675005 0.623534
Si Si2 0.178487 0.331882 0.784124
Si Si3 0.173689 0.825542 0.299597
Si Si4 0.821091 0.828982 0.866464
Si Si5 0.826589 0.325421 0.538415
Si Si6 0.827012 0.821684 0.955834
O O1 0.500000 0.703587 0.620862
O O2 0.694436 0.500000 0.628356
O O3 0.742611 0.755259 0.662300
O O4 0.750556 0.719364 0.581078
O O5 0.224267 0.500000 0.780966
O O6 0.223031 0.243180 0.743688
O O7 0.228315 0.260532 0.826869
O O8 0.000000 0.328282 0.784937
O O9 0.000000 0.803892 0.298654
O O10 0.202143 0.000000 0.304066
O O11 0.768212 0.774681 0.911324
O O12 0.000000 0.823422 0.867488
O O13 0.782345 0.000000 0.861748
O O14 0.757967 0.242034 0.500000
O O15 0.801657 0.500000 0.533198
O O16 0.000000 0.300348 0.540950
O O17 0.000000 0.785802 0.955970
O O18 0.818050 0.000000 0.955800
O O19 0.768124 0.768124 0.000000
#
# Coordination Sequence:
#
# PCOD9556781 Si02
#       6
#     8   8   8   8   8   8
#     4  10  21  37  57  79 103 133 168 205 246 292
#     4   9  16  25  38  57  83 116 152 190 234 284
#     4  10  20  33  50  72  98 129 165 204 246 292
#     4   8  12  18  29  46  71 103 138 177 222 273
#     4  10  21  37  58  83 110 141 175 209 246 288
#     4   7   9  13  22  38  62  93 127 164 211 266
#
# _framework density 17.671723
#
# number of rings (size 3 to 8) (size 9 to 14) (size 15 to 20)
#    0.000    3.000    0.000    3.500    0.000    5.667 
#    0.000    0.000    0.000    0.000    0.000    0.000 
#    0.000    1.333    0.000    9.333    0.000    9.167 
#
# Total GULP energy -267380.848670 kJ/mol
# GULP energy per Si atom -5570.434347 kJ/mol
# Density = 1.763150 g / cm^3
# Si number density = 17.671723 Si / 1000 Ang^3
#
#
#
# Elastic Constant Matrix: (Units=GPa)
#
#
# Indices 1 2 3 4 5 6 
#
# 1 38.9934 40.0546 69.4244 0.0000 0.0000 0.0000
# 2 40.0546 38.9937 69.4257 0.0000 0.0000 0.0000
# 3 69.4244 69.4257 229.6459 0.0000 0.0000 0.0000
# 4 0.0000 0.0000 0.0000 -28.1061 0.0000 0.0000
# 5 0.0000 0.0000 0.0000 0.0000 -28.1040 0.0000
# 6 0.0000 0.0000 0.0000 0.0000 0.0000 15.2544
#
#
#
# Elastic Compliance Matrix: (Units=1/GPa)
#
#
# Indices 1 2 3 4 5 6 
#
# 1 -0.457770 0.484750 -0.008159 0.000000 0.000000 0.000000
# 2 0.484750 -0.457781 -0.008150 0.000000 0.000000 0.000000
# 3 -0.008159 -0.008150 0.009285 0.000000 0.000000 0.000000
# 4 0.000000 0.000000 0.000000 -0.035579 0.000000 0.000000
# 5 0.000000 0.000000 0.000000 0.000000 -0.035582 0.000000
# 6 0.000000 0.000000 0.000000 0.000000 0.000000 0.065555
#
#
# Mechanical properties :
#
#
# Convention : Reuss Voigt Hill
#
# Bulk Modulus (GPa) = 32.66348 73.93806 53.30077
# Shear Modulus (GPa) = -2.71954 0.39076 -1.16439
#
# Velocity S-wave (km/s) = -1.24188 0.47074 -0.81261
# Velocity P-wave (km/s) = 4.05799 6.49816 5.41726
#
# Compressibility (1/GPa) = 0.03061523
#
# Stress axis : x y z
#
# Youngs Moduli (GPa) = -2.18450 -2.18445 107.69892
#
# Poissons Ratio (x) = 1.05891 0.87874
# Poissons Ratio (y) = 1.05894 0.87779
# Poissons Ratio (z) = -0.01782 -0.01780
#
# Static dielectric constant tensor:
#      x y z
#    x 1.588250 0.000000 0.000000 
#    y 0.000000 1.588250 0.000000 
#    z 0.000000 0.000000 1.619120 
# 
# From -- ./inp_files/6111.got.cif
#   From: 2010.05.17/outbox.cif.g08.bks.cpg/sg115_4_cif.got.tgz:6111.got - 2010.05.20 11:07:42.
