data_PCOD9556929
_publ_section_title
;
Structure prediction by ZEFSAII (Michael W. Deem and Ramdas Pophale) SiO2 
 PCOD9556929
Probable space group: P -4 M 2
;
_chemical_formula_sum "Si O2"
_cell_formula_units_Z 40
_cell_length_a 9.247190
_cell_length_b 9.247190
_cell_length_c 26.596893
_cell_angle_alpha 90.000000
_cell_angle_beta 90.000000
_cell_angle_gamma 90.000000
_cell_volume 2274.314228
_symmetry_space_group_name_H-M "P -4 M 2"
_symmetry_group_IT_number 115
_symmetry_cell_setting 'tetragonal'
loop_
_space_group_symop_operation_xyz
x,y,z
y,-x,-z
-x,-y,z
-y,x,-z
y,x,-z
-y,-x,-z
-x,y,z
x,-y,z
loop_
_atom_site_type_symbol
_atom_site_label
_atom_site_fract_x
_atom_site_fract_y
_atom_site_fract_z
Si Si1 0.828701 0.327459 0.954077
Si Si2 0.826752 0.329188 0.251248
Si Si3 0.176058 0.166195 0.351955
Si Si4 0.672660 0.670696 0.148463
Si Si5 0.328695 0.173285 0.546153
O O1 0.803059 0.500000 0.959867
O O2 0.758468 0.283023 0.900940
O O3 0.000000 0.302830 0.953432
O O4 0.754977 0.245024 0.000000
O O5 0.796877 0.500000 0.258851
O O6 0.777287 0.241096 0.300109
O O7 0.751582 0.283097 0.199512
O O8 0.000000 0.312965 0.246369
O O9 0.219030 0.255248 0.401329
O O10 0.000000 0.167509 0.351259
O O11 0.223276 0.000000 0.355098
O O12 0.500000 0.686976 0.154803
O O13 0.703065 0.500000 0.140606
O O14 0.254810 0.254810 0.500000
O O15 0.500000 0.199556 0.547732
O O16 0.306312 0.000000 0.540415
#
# Coordination Sequence:
#
# PCOD9556929 Si02
#       5
#     8   8   8   8   8
#     4  10  21  36  54  76 102 133 170 212 258 307
#     4   9  17  30  49  73 100 130 166 207 249 296
#     4   9  17  30  50  75 101 131 168 208 251 300
#     4   9  18  33  52  73  99 133 170 206 249 302
#     4  10  20  34  53  76 102 133 170 212 257 305
#
# _framework density 17.587717999999999
#
# number of rings (size 3 to 8) (size 9 to 14) (size 15 to 20)
#    0.000    2.600    0.000    1.800    0.000    6.400 
#    0.000    3.000    0.000    3.600    0.000    0.000 
#    0.000    0.000    0.000    0.000    0.000    0.000 
#
# Total GULP energy -223155.023772 kJ/mol
# GULP energy per Si atom -5578.875594 kJ/mol
# Density = 1.754769 g / cm^3
# Si number density = 17.587718 Si / 1000 Ang^3
#
#
#
# Elastic Constant Matrix: (Units=GPa)
#
#
# Indices 1 2 3 4 5 6 
#
# 1 59.4525 54.4953 89.3120 0.0000 0.0000 0.0000
# 2 54.4953 59.4526 89.3129 0.0000 0.0000 0.0000
# 3 89.3120 89.3129 226.5195 0.0000 0.0000 0.0000
# 4 0.0000 0.0000 0.0000 36.3053 0.0000 0.0000
# 5 0.0000 0.0000 0.0000 0.0000 36.3053 0.0000
# 6 0.0000 0.0000 0.0000 0.0000 0.0000 18.5400
#
#
#
# Elastic Compliance Matrix: (Units=1/GPa)
#
#
# Indices 1 2 3 4 5 6 
#
# 1 0.112350 -0.089373 -0.009059 0.000000 0.000000 0.000000
# 2 -0.089373 0.112353 -0.009061 0.000000 0.000000 0.000000
# 3 -0.009059 -0.009061 0.011559 0.000000 0.000000 0.000000
# 4 0.000000 0.000000 0.000000 0.027544 0.000000 0.000000
# 5 0.000000 0.000000 0.000000 0.000000 0.027544 0.000000
# 6 0.000000 0.000000 0.000000 0.000000 0.000000 0.053937
#
#
# Mechanical properties :
#
#
# Convention : Reuss Voigt Hill
#
# Bulk Modulus (GPa) = 47.00163 90.18499 68.59331
# Shear Modulus (GPa) = 8.81268 25.71708 17.26488
#
# Velocity S-wave (km/s) = 2.24089 3.82804 3.13652
# Velocity P-wave (km/s) = 5.78598 8.42183 7.22512
#
# Compressibility (1/GPa) = 0.02127586
#
# Stress axis : x y z
#
# Youngs Moduli (GPa) = 8.90079 8.90055 86.51313
#
# Poissons Ratio (x) = 0.79547 0.78372
# Poissons Ratio (y) = 0.79549 0.78388
# Poissons Ratio (z) = 0.08063 0.08065
#
# Static dielectric constant tensor:
#      x y z
#    x 1.588920 0.000000 0.000000 
#    y 0.000000 1.588920 0.000000 
#    z 0.000000 0.000000 1.571670 
# 
# From -- ./inp_files/5063.got.cif
#   From: 2010.05.17/outbox.cif.g08.bks.cpg/sg115_3_cif.got.tgz:5063.got - 2010.05.20 11:07:42.
