data_PCOD9556603
_publ_section_title
;
Structure prediction by ZEFSAII (Michael W. Deem and Ramdas Pophale) SiO2 
 PCOD9556603
Probable space group: P -4 M 2
;
_chemical_formula_sum "Si O2"
_cell_formula_units_Z 56
_cell_length_a 14.760479
_cell_length_b 14.760479
_cell_length_c 14.998885
_cell_angle_alpha 90.000000
_cell_angle_beta 90.000000
_cell_angle_gamma 90.000000
_cell_volume 3267.833178
_symmetry_space_group_name_H-M "P -4 M 2"
_symmetry_group_IT_number 115
_symmetry_cell_setting 'tetragonal'
loop_
_space_group_symop_operation_xyz
x,y,z
y,-x,-z
-x,-y,z
-y,x,-z
y,x,-z
-y,-x,-z
-x,y,z
x,-y,z
loop_
_atom_site_type_symbol
_atom_site_label
_atom_site_fract_x
_atom_site_fract_y
_atom_site_fract_z
Si Si1 0.157072 0.899543 0.598843
Si Si2 0.198646 0.604469 0.233089
Si Si3 0.399076 0.258944 0.462571
Si Si4 0.275333 0.795164 0.299445
Si Si5 0.102577 0.390623 0.050621
Si Si6 0.097942 0.626882 0.404934
Si Si7 0.393757 0.109427 0.149411
O O1 0.117421 0.882580 0.500000
O O2 0.150392 0.814899 0.667362
O O3 0.265128 0.901885 0.586036
O O4 0.127673 0.000000 0.630565
O O5 0.236070 0.500000 0.233341
O O6 0.254560 0.691004 0.269377
O O7 0.165888 0.629573 0.134106
O O8 0.114472 0.602712 0.301948
O O9 0.344725 0.344725 0.500000
O O10 0.500000 0.282468 0.432329
O O11 0.339771 0.214611 0.384914
O O12 0.405129 0.183812 0.539791
O O13 0.328866 0.845874 0.221668
O O14 0.096908 0.500000 0.047780
O O15 0.000000 0.356165 0.065228
O O16 0.134303 0.364483 0.951655
O O17 0.000000 0.595402 0.436551
O O18 0.500000 0.135087 0.162588
O O19 0.390017 0.000000 0.154789
#
# Coordination Sequence:
#
# PCOD9556603 Si02
#       7
#     8   8   8   8   8   8   8
#     4  10  19  35  54  74 106 142 175 215 262 311
#     4  10  19  31  51  77 110 140 168 209 263 316
#     4  12  23  38  53  73 105 143 182 222 264 313
#     4  11  21  36  52  81 108 138 178 221 262 307
#     4   8  15  30  52  80 109 135 169 214 265 318
#     4  10  19  33  55  80 105 134 170 219 275 318
#     4   9  19  36  57  79 105 138 174 218 270 315
#
# _framework density 17.136738000000001
#
# number of rings (size 3 to 8) (size 9 to 14) (size 15 to 20)
#    0.000    2.000    4.286    2.143    0.000    4.286 
#    0.000    0.000    0.000    1.286    0.000    0.000 
#    0.000    8.000    0.000    0.000    0.000    0.000 
#
# Total GULP energy -311791.254019 kJ/mol
# GULP energy per Si atom -5567.700965 kJ/mol
# Density = 1.709773 g / cm^3
# Si number density = 17.136738 Si / 1000 Ang^3
#
#
#
# Elastic Constant Matrix: (Units=GPa)
#
#
# Indices 1 2 3 4 5 6 
#
# 1 74.6588 23.0745 40.2517 0.0000 0.0000 0.0000
# 2 23.0745 74.6590 40.2514 0.0000 0.0000 0.0000
# 3 40.2517 40.2514 112.5867 0.0000 0.0000 0.0000
# 4 0.0000 0.0000 0.0000 14.2746 0.0000 0.0000
# 5 0.0000 0.0000 0.0000 0.0000 14.2746 0.0000
# 6 0.0000 0.0000 0.0000 0.0000 0.0000 -8.2223
#
#
#
# Elastic Compliance Matrix: (Units=1/GPa)
#
#
# Indices 1 2 3 4 5 6 
#
# 1 0.016944 -0.002441 -0.005185 0.000000 0.000000 0.000000
# 2 -0.002441 0.016944 -0.005185 0.000000 0.000000 0.000000
# 3 -0.005185 -0.005185 0.012589 0.000000 0.000000 0.000000
# 4 0.000000 0.000000 0.000000 0.070055 0.000000 0.000000
# 5 0.000000 0.000000 0.000000 0.000000 0.070055 0.000000
# 6 0.000000 0.000000 0.000000 0.000000 0.000000 -0.121620
#
#
# Mechanical properties :
#
#
# Convention : Reuss Voigt Hill
#
# Bulk Modulus (GPa) = 47.94982 52.11774 50.03378
# Shear Modulus (GPa) = 51.26012 14.62049 32.94031
#
# Velocity S-wave (km/s) = 5.47516 2.92407 4.38905
# Velocity P-wave (km/s) = 8.24689 6.47141 7.41250
#
# Compressibility (1/GPa) = 0.02085513
#
# Stress axis : x y z
#
# Youngs Moduli (GPa) = 59.01687 59.01725 79.43151
#
# Poissons Ratio (x) = 0.14409 0.41185
# Poissons Ratio (y) = 0.14409 0.41185
# Poissons Ratio (z) = 0.30600 0.30600
#
# Static dielectric constant tensor:
#      x y z
#    x 1.603960 0.000000 0.000000 
#    y 0.000000 1.603960 0.000000 
#    z 0.000000 0.000000 1.588660 
# 
# From -- ./inp_files/3879.got.cif
#   From: 2010.05.17/outbox.cif.g08.bks.cpg/sg115_2_cif.got.tgz:3879.got - 2010.05.20 11:07:42.
