data_PCOD9556360
_publ_section_title
;
Structure prediction by ZEFSAII (Michael W. Deem and Ramdas Pophale) SiO2 
 PCOD9556360
Probable space group: P -4 21 C
;
_chemical_formula_sum "Si O2"
_cell_formula_units_Z 28
_cell_length_a 8.251769
_cell_length_b 8.251769
_cell_length_c 18.771580
_cell_angle_alpha 90.000000
_cell_angle_beta 90.000000
_cell_angle_gamma 90.000000
_cell_volume 1278.188637
_symmetry_space_group_name_H-M "P -4 21 C"
_symmetry_group_IT_number 114
_symmetry_cell_setting 'tetragonal'
loop_
_space_group_symop_operation_xyz
x,y,z
y,-x,-z
-x,-y,z
-y,x,-z
1/2+x,1/2-y,1/2-z
1/2-x,1/2+y,1/2-z
1/2-y,1/2-x,1/2+z
1/2+y,1/2+x,1/2+z
loop_
_atom_site_type_symbol
_atom_site_label
_atom_site_fract_x
_atom_site_fract_y
_atom_site_fract_z
Si Si1 0.500000 0.000000 0.093707
Si Si2 0.246836 0.421373 0.794841
Si Si3 0.247080 0.531970 0.015758
Si Si4 0.429019 0.760459 0.826002
O O1 0.391942 0.892669 0.146549
O O2 0.596404 0.888408 0.037604
O O3 0.320388 0.597394 0.814564
O O4 0.394969 0.295618 0.798023
O O5 0.159525 0.398939 0.719043
O O6 0.198148 0.458117 0.091406
O O7 0.385860 0.664481 0.026451
#
# Coordination Sequence:
#
# PCOD9556360 Si02
#       4
#     4   8   8   8
#     4  12  22  38  70  94 130 178 234 282 340 420
#     4  11  23  41  67 100 137 178 225 292 353 422
#     4  11  21  43  67  96 131 183 235 282 347 425
#     4  11  23  43  67 101 139 179 234 288 350 437
#
# _framework density 21.905999000000001
#
# number of rings (size 3 to 8) (size 9 to 14) (size 15 to 20)
#    0.000    0.857    5.714    3.429    0.000    3.429 
#    0.000    0.000    0.000    0.857    0.000    0.000 
#    0.000    0.000    0.000    0.000    0.000    0.000 
#
# Total GULP energy -156329.173807 kJ/mol
# GULP energy per Si atom -5583.184779 kJ/mol
# Density = 2.185614 g / cm^3
# Si number density = 21.905999 Si / 1000 Ang^3
#
#
#
# Elastic Constant Matrix: (Units=GPa)
#
#
# Indices 1 2 3 4 5 6 
#
# 1 79.9059 18.2660 39.1200 0.0000 0.0000 0.0000
# 2 18.2660 79.9059 39.1200 0.0000 0.0000 0.0000
# 3 39.1200 39.1200 178.1505 0.0000 0.0000 0.0000
# 4 0.0000 0.0000 0.0000 34.6941 0.0000 0.0000
# 5 0.0000 0.0000 0.0000 0.0000 34.6941 0.0000
# 6 0.0000 0.0000 0.0000 0.0000 0.0000 23.0199
#
#
#
# Elastic Compliance Matrix: (Units=1/GPa)
#
#
# Indices 1 2 3 4 5 6 
#
# 1 0.014285 -0.001938 -0.002711 0.000000 0.000000 0.000000
# 2 -0.001938 0.014285 -0.002711 0.000000 0.000000 0.000000
# 3 -0.002711 -0.002711 0.006804 0.000000 0.000000 0.000000
# 4 0.000000 0.000000 0.000000 0.028823 0.000000 0.000000
# 5 0.000000 0.000000 0.000000 0.000000 0.028823 0.000000
# 6 0.000000 0.000000 0.000000 0.000000 0.000000 0.043441
#
#
# Mechanical properties :
#
#
# Convention : Reuss Voigt Hill
#
# Bulk Modulus (GPa) = 48.41937 58.99716 53.70826
# Shear Modulus (GPa) = 31.63209 34.57870 33.10540
#
# Velocity S-wave (km/s) = 3.80411 3.97735 3.89169
# Velocity P-wave (km/s) = 6.43788 6.93418 6.69063
#
# Compressibility (1/GPa) = 0.02065289
#
# Stress axis : x y z
#
# Youngs Moduli (GPa) = 70.00282 70.00282 146.97308
#
# Poissons Ratio (x) = 0.13567 0.39848
# Poissons Ratio (y) = 0.13567 0.39848
# Poissons Ratio (z) = 0.18980 0.18980
#
# Static dielectric constant tensor:
#      x y z
#    x 1.845960 0.000000 0.000000 
#    y 0.000000 1.845960 0.000000 
#    z 0.000000 0.000000 1.815270 
# 
# From -- ./inp_files/2420.got.cif
#   From: 2010.05.17/outbox.cif.g08.bks.cpg/sg114_2_cif.got.tgz:2420.got - 2010.05.20 11:04:54.
