data_PCOD9556147
_publ_section_title
;
Structure prediction by ZEFSAII (Michael W. Deem and Ramdas Pophale) SiO2 
 PCOD9556147
Probable space group: P -4 21 C
;
_chemical_formula_sum "Si O2"
_cell_formula_units_Z 24
_cell_length_a 8.550350
_cell_length_b 8.550350
_cell_length_c 13.774688
_cell_angle_alpha 90.000000
_cell_angle_beta 90.000000
_cell_angle_gamma 90.000000
_cell_volume 1007.046573
_symmetry_space_group_name_H-M "P -4 21 C"
_symmetry_group_IT_number 114
_symmetry_cell_setting 'tetragonal'
loop_
_space_group_symop_operation_xyz
x,y,z
y,-x,-z
-x,-y,z
-y,x,-z
1/2+x,1/2-y,1/2-z
1/2-x,1/2+y,1/2-z
1/2-y,1/2-x,1/2+z
1/2+y,1/2+x,1/2+z
loop_
_atom_site_type_symbol
_atom_site_label
_atom_site_fract_x
_atom_site_fract_y
_atom_site_fract_z
Si Si1 0.659097 0.341811 0.457063
Si Si2 0.652992 0.898383 0.225382
Si Si3 0.659432 0.581807 0.127856
O O1 0.475693 0.306598 0.464361
O O2 0.712893 0.420439 0.356079
O O3 0.759130 0.183125 0.457091
O O4 0.622170 0.714430 0.210458
O O5 0.500000 0.000000 0.201563
O O6 0.719434 0.960026 0.326230
O O7 0.500000 0.500000 0.103180
#
# Coordination Sequence:
#
# PCOD9556147 Si02
#       3
#     8   8   8
#     4   9  22  41  73 111 163 201 252 326 409 452
#     4  10  22  39  70 114 149 200 266 318 396 469
#     4  10  22  41  76 114 152 203 268 319 394 479
#
# _framework density 23.832066000000001
#
# number of rings (size 3 to 8) (size 9 to 14) (size 15 to 20)
#    2.000    0.333    0.000    2.000    4.667    0.000 
#    0.000    8.333    0.000    0.000    0.000    0.000 
#    0.000    0.000    0.000    0.000    0.000    0.000 
#
# Total GULP energy -133919.986164 kJ/mol
# GULP energy per Si atom -5579.999423 kJ/mol
# Density = 2.377782 g / cm^3
# Si number density = 23.832066 Si / 1000 Ang^3
#
#
#
# Elastic Constant Matrix: (Units=GPa)
#
#
# Indices 1 2 3 4 5 6 
#
# 1 146.6950 90.6259 59.3622 0.0000 0.0000 0.0000
# 2 90.6259 146.6950 59.3622 0.0000 0.0000 0.0000
# 3 59.3622 59.3622 69.8674 0.0000 0.0000 0.0000
# 4 0.0000 0.0000 0.0000 39.2859 0.0000 0.0000
# 5 0.0000 0.0000 0.0000 0.0000 39.2859 0.0000
# 6 0.0000 0.0000 0.0000 0.0000 0.0000 63.3473
#
#
#
# Elastic Compliance Matrix: (Units=1/GPa)
#
#
# Indices 1 2 3 4 5 6 
#
# 1 0.012582 -0.005253 -0.006227 0.000000 0.000000 0.000000
# 2 -0.005253 0.012582 -0.006227 0.000000 0.000000 0.000000
# 3 -0.006227 -0.006227 0.024894 0.000000 0.000000 0.000000
# 4 0.000000 0.000000 0.000000 0.025454 0.000000 0.000000
# 5 0.000000 0.000000 0.000000 0.000000 0.025454 0.000000
# 6 0.000000 0.000000 0.000000 0.000000 0.000000 0.015786
#
#
# Mechanical properties :
#
#
# Convention : Reuss Voigt Hill
#
# Bulk Modulus (GPa) = 68.28644 86.88424 77.58534
# Shear Modulus (GPa) = 31.83743 38.64431 35.24087
#
# Velocity S-wave (km/s) = 3.65897 4.03119 3.84958
# Velocity P-wave (km/s) = 6.82394 7.62911 7.23773
#
# Compressibility (1/GPa) = 0.01464420
#
# Stress axis : x y z
#
# Youngs Moduli (GPa) = 79.47882 79.47882 40.17033
#
# Poissons Ratio (x) = 0.41751 0.25013
# Poissons Ratio (y) = 0.41751 0.25013
# Poissons Ratio (z) = 0.49490 0.49490
#
# Static dielectric constant tensor:
#      x y z
#    x 1.909560 0.000000 0.000000 
#    y 0.000000 1.909560 0.000000 
#    z 0.000000 0.000000 1.911150 
# 
# From -- ./inp_files/1920.got.cif
#   From: 2010.05.17/outbox.cif.g08.bks.cpg/sg114_1_cif.got.tgz:1920.got - 2010.05.20 11:04:54.
