data_PCOD9556950
_publ_section_title
;
Structure prediction by ZEFSAII (Michael W. Deem and Ramdas Pophale) SiO2 
 PCOD9556950
Probable space group: P -4 M 2
;
_chemical_formula_sum "Si O2"
_cell_formula_units_Z 48
_cell_length_a 9.167529
_cell_length_b 9.167529
_cell_length_c 31.842363
_cell_angle_alpha 90.000000
_cell_angle_beta 90.000000
_cell_angle_gamma 90.000000
_cell_volume 2676.146436
_symmetry_space_group_name_H-M "P -4 M 2"
_symmetry_group_IT_number 115
_symmetry_cell_setting 'tetragonal'
loop_
_space_group_symop_operation_xyz
x,y,z
y,-x,-z
-x,-y,z
-y,x,-z
y,x,-z
-y,-x,-z
-x,y,z
x,-y,z
loop_
_atom_site_type_symbol
_atom_site_label
_atom_site_fract_x
_atom_site_fract_y
_atom_site_fract_z
Si Si1 0.672657 0.173719 0.210534
Si Si2 0.674833 0.827179 0.539250
Si Si3 0.173441 0.324719 0.132609
Si Si4 0.667882 0.322585 0.374946
Si Si5 0.175247 0.669700 0.038161
Si Si6 0.675365 0.172477 0.710833
O O1 0.500000 0.202807 0.213232
O O2 0.737848 0.243057 0.168278
O O3 0.753275 0.245812 0.250056
O O4 0.695305 0.000000 0.210538
O O5 0.756197 0.756197 0.500000
O O6 0.500000 0.804794 0.534498
O O7 0.721871 0.750146 0.582605
O O8 0.700951 0.000000 0.541583
O O9 0.192355 0.500000 0.136191
O O10 0.218126 0.281288 0.085196
O O11 0.000000 0.296192 0.137520
O O12 0.500000 0.273682 0.374696
O O13 0.667705 0.500000 0.374958
O O14 0.751827 0.278350 0.332754
O O15 0.217130 0.500000 0.034006
O O16 0.000000 0.677313 0.036699
O O17 0.241829 0.758172 0.000000
O O18 0.500000 0.191184 0.715292
O O19 0.704771 0.000000 0.709505
#
# Coordination Sequence:
#
# PCOD9556950 Si02
#       6
#     8   8   8   8   8   8
#     4  11  24  38  52  76 109 141 175 218 266 314
#     4  10  20  34  53  78 108 141 178 220 264 311
#     4   9  19  37  58  78 102 136 178 220 262 311
#     4   9  17  31  54  82 109 138 174 217 264 313
#     4   9  19  35  54  78 108 139 173 215 261 311
#     4  10  20  35  57  83 109 139 176 217 262 315
#
# _framework density 17.936236999999998
#
# number of rings (size 3 to 8) (size 9 to 14) (size 15 to 20)
#    0.000    2.333    0.000    3.500    0.000    9.333 
#    0.000    5.833    0.000    5.000    0.000    0.000 
#    0.000    0.000    0.000    0.000    0.000    0.000 
#
# Total GULP energy -267942.388116 kJ/mol
# GULP energy per Si atom -5582.133086 kJ/mol
# Density = 1.789541 g / cm^3
# Si number density = 17.936237 Si / 1000 Ang^3
#
#
#
# Elastic Constant Matrix: (Units=GPa)
#
#
# Indices 1 2 3 4 5 6 
#
# 1 75.2586 62.7616 88.0441 0.0000 0.0000 0.0000
# 2 62.7616 75.2566 88.0424 0.0000 0.0000 0.0000
# 3 88.0441 88.0424 213.8313 0.0000 0.0000 0.0000
# 4 0.0000 0.0000 0.0000 87.5243 0.0000 0.0000
# 5 0.0000 0.0000 0.0000 0.0000 87.5277 0.0000
# 6 0.0000 0.0000 0.0000 0.0000 0.0000 26.1647
#
#
#
# Elastic Compliance Matrix: (Units=1/GPa)
#
#
# Indices 1 2 3 4 5 6 
#
# 1 0.047644 -0.032381 -0.006285 0.000000 0.000000 0.000000
# 2 -0.032381 0.047645 -0.006284 0.000000 0.000000 0.000000
# 3 -0.006285 -0.006284 0.009852 0.000000 0.000000 0.000000
# 4 0.000000 0.000000 0.000000 0.011425 0.000000 0.000000
# 5 0.000000 0.000000 0.000000 0.000000 0.011425 0.000000
# 6 0.000000 0.000000 0.000000 0.000000 0.000000 0.038219
#
#
# Mechanical properties :
#
#
# Convention : Reuss Voigt Hill
#
# Bulk Modulus (GPa) = 65.61605 93.56030 79.58818
# Shear Modulus (GPa) = 19.14313 48.60992 33.87653
#
# Velocity S-wave (km/s) = 3.27048 5.21156 4.35066
# Velocity P-wave (km/s) = 7.13609 9.40690 8.34906
#
# Compressibility (1/GPa) = 0.01524017
#
# Stress axis : x y z
#
# Youngs Moduli (GPa) = 20.98904 20.98870 101.50476
#
# Poissons Ratio (x) = 0.67964 0.63792
# Poissons Ratio (y) = 0.67965 0.63789
# Poissons Ratio (z) = 0.13191 0.13190
#
# Static dielectric constant tensor:
#      x y z
#    x 1.596310 0.000000 0.000000 
#    y 0.000000 1.596320 0.000000 
#    z 0.000000 0.000000 1.590970 
# 
# From -- ./inp_files/5969.got.cif
#   From: 2010.05.17/outbox.cif.g08.bks.cpg/sg115_3_cif.got.tgz:5969.got - 2010.05.20 11:07:42.
