data_PCOD9556132
_publ_section_title
;
Structure prediction by ZEFSAII (Michael W. Deem and Ramdas Pophale) SiO2 
 PCOD9556132
Probable space group: P -4 21 C
;
_chemical_formula_sum "Si O2"
_cell_formula_units_Z 40
_cell_length_a 8.756755
_cell_length_b 8.756755
_cell_length_c 24.499940
_cell_angle_alpha 90.000000
_cell_angle_beta 90.000000
_cell_angle_gamma 90.000000
_cell_volume 1878.673973
_symmetry_space_group_name_H-M "P -4 21 C"
_symmetry_group_IT_number 114
_symmetry_cell_setting 'tetragonal'
loop_
_space_group_symop_operation_xyz
x,y,z
y,-x,-z
-x,-y,z
-y,x,-z
1/2+x,1/2-y,1/2-z
1/2-x,1/2+y,1/2-z
1/2-y,1/2-x,1/2+z
1/2+y,1/2+x,1/2+z
loop_
_atom_site_type_symbol
_atom_site_label
_atom_site_fract_x
_atom_site_fract_y
_atom_site_fract_z
Si Si1 0.088226 0.260046 0.700701
Si Si2 0.033494 0.175471 0.579568
Si Si3 0.162479 0.416382 0.505105
Si Si4 0.152506 0.791844 0.085773
Si Si5 0.743794 0.911302 0.793040
O O1 0.108971 0.201129 0.638888
O O2 0.147304 0.137443 0.743983
O O3 0.184923 0.415266 0.708694
O O4 0.911110 0.308095 0.708757
O O5 0.132014 0.250602 0.531487
O O6 0.874200 0.266546 0.583909
O O7 0.000000 0.000000 0.570252
O O8 0.238190 0.406294 0.446202
O O9 0.268950 0.504238 0.548157
O O10 0.000000 0.500000 0.502202
O O11 0.116978 0.823075 0.148444
#
# Coordination Sequence:
#
# PCOD9556132 Si02
#       5
#     8   8   8   8   8
#     4  10  22  42  65  91 130 166 217 269 325 382
#     4  10  22  38  67  96 122 170 223 264 322 397
#     4  10  22  42  64  95 132 169 216 272 333 396
#     4  10  22  42  64  89 136 170 211 274 329 387
#     4  10  22  43  63  94 130 173 211 272 326 383
#
# _framework density 21.291612000000001
#
# number of rings (size 3 to 8) (size 9 to 14) (size 15 to 20)
#    0.000    2.000    2.000    0.000   11.200    0.400 
#    7.200    2.000    0.000    0.000    0.000    0.000 
#    0.000    0.000    0.000    0.000    0.000    0.000 
#
# Total GULP energy -223737.126315 kJ/mol
# GULP energy per Si atom -5593.428158 kJ/mol
# Density = 2.124315 g / cm^3
# Si number density = 21.291612 Si / 1000 Ang^3
#
#
#
# Elastic Constant Matrix: (Units=GPa)
#
#
# Indices 1 2 3 4 5 6 
#
# 1 67.3432 22.5656 42.8836 0.0000 0.0000 0.0000
# 2 22.5656 67.3432 42.8836 0.0000 0.0000 0.0000
# 3 42.8836 42.8836 146.8310 0.0000 0.0000 0.0000
# 4 0.0000 0.0000 0.0000 25.8043 0.0000 0.0000
# 5 0.0000 0.0000 0.0000 0.0000 25.8043 0.0000
# 6 0.0000 0.0000 0.0000 0.0000 0.0000 27.1792
#
#
#
# Elastic Compliance Matrix: (Units=1/GPa)
#
#
# Indices 1 2 3 4 5 6 
#
# 1 0.018875 -0.003457 -0.004503 0.000000 0.000000 0.000000
# 2 -0.003457 0.018875 -0.004503 0.000000 0.000000 0.000000
# 3 -0.004503 -0.004503 0.009441 0.000000 0.000000 0.000000
# 4 0.000000 0.000000 0.000000 0.038753 0.000000 0.000000
# 5 0.000000 0.000000 0.000000 0.000000 0.038753 0.000000
# 6 0.000000 0.000000 0.000000 0.000000 0.000000 0.036793
#
#
# Mechanical properties :
#
#
# Convention : Reuss Voigt Hill
#
# Bulk Modulus (GPa) = 44.91393 55.35364 50.13378
# Shear Modulus (GPa) = 25.79463 27.30320 26.54892
#
# Velocity S-wave (km/s) = 3.48443 3.58487 3.53500
# Velocity P-wave (km/s) = 6.10973 6.57186 6.34500
#
# Compressibility (1/GPa) = 0.02226481
#
# Stress axis : x y z
#
# Youngs Moduli (GPa) = 52.97937 52.97937 105.92288
#
# Poissons Ratio (x) = 0.18317 0.47697
# Poissons Ratio (y) = 0.18317 0.47697
# Poissons Ratio (z) = 0.23856 0.23856
#
# Static dielectric constant tensor:
#      x y z
#    x 1.771960 0.000000 0.000000 
#    y 0.000000 1.771960 0.000000 
#    z 0.000000 0.000000 1.728640 
# 
# From -- ./inp_files/3325.got.cif
#   From: 2010.05.17/outbox.cif.g08.bks.cpg/sg114_2_cif.got.tgz:3325.got - 2010.05.20 11:04:54.
