data_PCOD9556098
_publ_section_title
;
Structure prediction by ZEFSAII (Michael W. Deem and Ramdas Pophale) SiO2 
 PCOD9556098
Probable space group: P -4 21 C
;
_chemical_formula_sum "Si O2"
_cell_formula_units_Z 46
_cell_length_a 9.303294
_cell_length_b 9.303294
_cell_length_c 26.668199
_cell_angle_alpha 90.000000
_cell_angle_beta 90.000000
_cell_angle_gamma 90.000000
_cell_volume 2308.166739
_symmetry_space_group_name_H-M "P -4 21 C"
_symmetry_group_IT_number 114
_symmetry_cell_setting 'tetragonal'
loop_
_space_group_symop_operation_xyz
x,y,z
y,-x,-z
-x,-y,z
-y,x,-z
1/2+x,1/2-y,1/2-z
1/2-x,1/2+y,1/2-z
1/2-y,1/2-x,1/2+z
1/2+y,1/2+x,1/2+z
loop_
_atom_site_type_symbol
_atom_site_label
_atom_site_fract_x
_atom_site_fract_y
_atom_site_fract_z
Si Si1 0.276977 0.487864 0.014982
Si Si2 0.543779 0.166954 0.886850
Si Si3 0.500000 0.500000 0.500000
Si Si4 0.847157 0.579728 0.222728
Si Si5 0.500000 0.000000 0.047421
Si Si6 0.422391 0.354657 0.702221
Si Si7 0.878195 0.206522 0.912939
O O1 0.248251 0.545625 0.070809
O O2 0.356266 0.613215 0.984889
O O3 0.128769 0.447842 0.988571
O O4 0.533423 0.223934 0.830474
O O5 0.707236 0.184251 0.906011
O O6 0.500000 0.000000 0.886986
O O7 0.431722 0.384083 0.538748
O O8 0.766601 0.514329 0.269995
O O9 0.854639 0.753820 0.218959
O O10 0.000000 0.500000 0.222547
O O11 0.368572 0.065859 0.078653
O O12 0.500000 0.500000 0.717978
O O13 0.433648 0.341585 0.641974
#
# Coordination Sequence:
#
# PCOD9556098 Si02
#       7
#     8   8   2   8   4   8   8
#     4  11  23  41  62  91 133 175 222 271 335 408
#     4  10  21  42  67  95 131 174 226 278 345 411
#     4  12  24  44  64 100 132 180 236 272 350 400
#     4  10  23  43  71  97 130 177 225 281 344 403
#     4  12  24  42  62  96 134 174 220 286 332 408
#     4  11  23  47  66 100 136 171 227 283 339 412
#     4  11  25  41  69 100 132 178 226 284 346 403
#
# _framework density 19.929234999999998
#
# number of rings (size 3 to 8) (size 9 to 14) (size 15 to 20)
#    0.000    1.217    3.478    2.087    1.217    0.000 
#    9.391    0.000    0.000    0.000    0.000    0.000 
#    0.000    0.000    0.000    0.000    0.000    0.000 
#
# Total GULP energy -256602.846421 kJ/mol
# GULP energy per Si atom -5578.322748 kJ/mol
# Density = 1.988387 g / cm^3
# Si number density = 19.929235 Si / 1000 Ang^3
#
#
#
# Elastic Constant Matrix: (Units=GPa)
#
#
# Indices 1 2 3 4 5 6 
#
# 1 86.2844 30.5027 35.8512 0.0000 0.0000 0.0000
# 2 30.5027 86.2844 35.8512 0.0000 0.0000 0.0000
# 3 35.8512 35.8512 121.3785 0.0000 0.0000 0.0000
# 4 0.0000 0.0000 0.0000 17.7816 0.0000 0.0000
# 5 0.0000 0.0000 0.0000 0.0000 17.7816 0.0000
# 6 0.0000 0.0000 0.0000 0.0000 0.0000 27.6886
#
#
#
# Elastic Compliance Matrix: (Units=1/GPa)
#
#
# Indices 1 2 3 4 5 6 
#
# 1 0.014193 -0.003734 -0.003089 0.000000 0.000000 0.000000
# 2 -0.003734 0.014193 -0.003089 0.000000 0.000000 0.000000
# 3 -0.003089 -0.003089 0.010064 0.000000 0.000000 0.000000
# 4 0.000000 0.000000 0.000000 0.056238 0.000000 0.000000
# 5 0.000000 0.000000 0.000000 0.000000 0.056238 0.000000
# 6 0.000000 0.000000 0.000000 0.000000 0.000000 0.036116
#
#
# Mechanical properties :
#
#
# Convention : Reuss Voigt Hill
#
# Bulk Modulus (GPa) = 53.69142 55.37305 54.53224
# Shear Modulus (GPa) = 23.46590 25.43318 24.44954
#
# Velocity S-wave (km/s) = 3.43514 3.57623 3.50640
# Velocity P-wave (km/s) = 6.53706 6.70058 6.61932
#
# Compressibility (1/GPa) = 0.01862495
#
# Stress axis : x y z
#
# Youngs Moduli (GPa) = 70.45644 70.45644 99.36731
#
# Poissons Ratio (x) = 0.26307 0.30698
# Poissons Ratio (y) = 0.26307 0.30698
# Poissons Ratio (z) = 0.21766 0.21766
#
# Static dielectric constant tensor:
#      x y z
#    x 1.755020 0.000000 0.000000 
#    y 0.000000 1.755020 0.000000 
#    z 0.000000 0.000000 1.739000 
# 
# From -- ./inp_files/3880.got.cif
#   From: 2010.05.17/outbox.cif.g08.bks.cpg/sg114_2_cif.got.tgz:3880.got - 2010.05.20 11:04:54.
