data_PCOD9556209
_publ_section_title
;
Structure prediction by ZEFSAII (Michael W. Deem and Ramdas Pophale) SiO2 
 PCOD9556209
Probable space group: P -4 21 C
;
_chemical_formula_sum "Si O2"
_cell_formula_units_Z 36
_cell_length_a 7.750566
_cell_length_b 7.750566
_cell_length_c 23.736671
_cell_angle_alpha 90.000000
_cell_angle_beta 90.000000
_cell_angle_gamma 90.000000
_cell_volume 1425.892051
_symmetry_space_group_name_H-M "P -4 21 C"
_symmetry_group_IT_number 114
_symmetry_cell_setting 'tetragonal'
loop_
_space_group_symop_operation_xyz
x,y,z
y,-x,-z
-x,-y,z
-y,x,-z
1/2+x,1/2-y,1/2-z
1/2-x,1/2+y,1/2-z
1/2-y,1/2-x,1/2+z
1/2+y,1/2+x,1/2+z
loop_
_atom_site_type_symbol
_atom_site_label
_atom_site_fract_x
_atom_site_fract_y
_atom_site_fract_z
Si Si1 0.601036 0.826682 0.877667
Si Si2 0.034185 0.188782 0.207941
Si Si3 0.909697 0.195949 0.333339
Si Si4 0.500000 0.000000 0.083700
Si Si5 0.754007 0.365434 0.004412
O O1 0.692057 0.891184 0.821069
O O2 0.478903 0.664297 0.863141
O O3 0.500000 0.000000 0.894779
O O4 0.709726 0.792909 0.934023
O O5 0.013977 0.186913 0.274975
O O6 0.224019 0.234813 0.187979
O O7 0.000000 0.000000 0.185565
O O8 0.004114 0.335518 0.373254
O O9 0.637903 0.911048 0.039806
O O10 0.571123 0.285043 0.986007
#
# Coordination Sequence:
#
# PCOD9556209 Si02
#       5
#     8   8   8   4   8
#     4  10  22  45  69 101 146 186 244 308 372 443
#     4  11  26  44  74 105 147 192 246 311 386 458
#     4  11  26  45  72 107 145 197 243 320 373 470
#     4  12  26  44  78 106 146 198 262 304 390 460
#     4  11  24  44  70 102 140 191 243 309 375 447
#
# _framework density 25.247354000000001
#
# number of rings (size 3 to 8) (size 9 to 14) (size 15 to 20)
#    0.000    1.111    3.333    1.333   10.889    1.778 
#    0.000    0.000    0.000    0.000    0.000    0.000 
#    0.000    0.000    0.000    0.000    0.000    0.000 
#
# Total GULP energy -201022.630155 kJ/mol
# GULP energy per Si atom -5583.961949 kJ/mol
# Density = 2.518989 g / cm^3
# Si number density = 25.247354 Si / 1000 Ang^3
#
#
#
# Elastic Constant Matrix: (Units=GPa)
#
#
# Indices 1 2 3 4 5 6 
#
# 1 128.4094 10.9032 30.0851 0.0000 0.0000 0.0000
# 2 10.9032 128.4094 30.0851 0.0000 0.0000 0.0000
# 3 30.0851 30.0851 181.2064 0.0000 0.0000 0.0000
# 4 0.0000 0.0000 0.0000 48.3410 0.0000 0.0000
# 5 0.0000 0.0000 0.0000 0.0000 48.3410 0.0000
# 6 0.0000 0.0000 0.0000 0.0000 0.0000 25.4746
#
#
#
# Elastic Compliance Matrix: (Units=1/GPa)
#
#
# Indices 1 2 3 4 5 6 
#
# 1 0.008121 -0.000389 -0.001284 0.000000 0.000000 0.000000
# 2 -0.000389 0.008121 -0.001284 0.000000 0.000000 0.000000
# 3 -0.001284 -0.001284 0.005945 0.000000 0.000000 0.000000
# 4 0.000000 0.000000 0.000000 0.020686 0.000000 0.000000
# 5 0.000000 0.000000 0.000000 0.000000 0.020686 0.000000
# 6 0.000000 0.000000 0.000000 0.000000 0.000000 0.039255
#
#
# Mechanical properties :
#
#
# Convention : Reuss Voigt Hill
#
# Bulk Modulus (GPa) = 61.44476 64.46355 62.95416
# Shear Modulus (GPa) = 43.80087 48.89477 46.34782
#
# Velocity S-wave (km/s) = 4.16970 4.40549 4.28921
# Velocity P-wave (km/s) = 6.89723 7.17398 7.03697
#
# Compressibility (1/GPa) = 0.01627478
#
# Stress axis : x y z
#
# Youngs Moduli (GPa) = 123.13167 123.13167 168.21240
#
# Poissons Ratio (x) = 0.04787 0.21595
# Poissons Ratio (y) = 0.04787 0.21595
# Poissons Ratio (z) = 0.15808 0.15808
#
# Static dielectric constant tensor:
#      x y z
#    x 2.049600 0.000000 0.000000 
#    y 0.000000 2.049600 0.000000 
#    z 0.000000 0.000000 1.963840 
# 
# From -- ./inp_files/2949.got.cif
#   From: 2010.05.17/outbox.cif.g08.bks.cpg/sg114_2_cif.got.tgz:2949.got - 2010.05.20 11:04:54.
