data_PCOD9556885
_publ_section_title
;
Structure prediction by ZEFSAII (Michael W. Deem and Ramdas Pophale) SiO2 
 PCOD9556885
Probable space group: P -4 M 2
;
_chemical_formula_sum "Si O2"
_cell_formula_units_Z 48
_cell_length_a 9.224779
_cell_length_b 9.224779
_cell_length_c 31.579618
_cell_angle_alpha 90.000000
_cell_angle_beta 90.000000
_cell_angle_gamma 90.000000
_cell_volume 2687.316466
_symmetry_space_group_name_H-M "P -4 M 2"
_symmetry_group_IT_number 115
_symmetry_cell_setting 'tetragonal'
loop_
_space_group_symop_operation_xyz
x,y,z
y,-x,-z
-x,-y,z
-y,x,-z
y,x,-z
-y,-x,-z
-x,y,z
x,-y,z
loop_
_atom_site_type_symbol
_atom_site_label
_atom_site_fract_x
_atom_site_fract_y
_atom_site_fract_z
Si Si1 0.828816 0.827378 0.625339
Si Si2 0.166706 0.323598 0.789520
Si Si3 0.674263 0.671220 0.296526
Si Si4 0.669834 0.674386 0.874881
Si Si5 0.671765 0.327717 0.549148
Si Si6 0.829409 0.825967 0.951797
O O1 0.746277 0.752682 0.664264
O O2 0.764595 0.762601 0.582098
O O3 0.000000 0.796728 0.628299
O O4 0.807708 0.000000 0.626529
O O5 0.166767 0.500000 0.789880
O O6 0.253519 0.280492 0.747488
O O7 0.245135 0.277369 0.832679
O O8 0.000000 0.275216 0.788075
O O9 0.500000 0.689064 0.301072
O O10 0.704389 0.500000 0.295352
O O11 0.500000 0.707706 0.870721
O O12 0.684756 0.500000 0.878216
O O13 0.736998 0.747473 0.916222
O O14 0.704988 0.295013 0.500000
O O15 0.500000 0.300906 0.555797
O O16 0.695303 0.500000 0.555593
O O17 0.000000 0.790821 0.946369
O O18 0.815351 0.000000 0.948157
O O19 0.786913 0.786913 0.000000
#
# Coordination Sequence:
#
# PCOD9556885 Si02
#       6
#     8   8   8   8   8   8
#     4  11  24  38  52  76 111 146 179 217 262 313
#     4   9  17  31  53  79 106 138 175 214 259 312
#     4  10  20  35  57  82 106 135 175 222 268 314
#     4  10  20  33  51  78 110 139 170 212 260 310
#     4   9  19  37  60  84 108 136 175 221 265 312
#     4   9  19  36  55  74  99 134 176 219 262 310
#
# _framework density 17.861685000000001
#
# number of rings (size 3 to 8) (size 9 to 14) (size 15 to 20)
#    0.000    2.333    0.000    3.500    0.000    9.333 
#    0.000    5.833    0.000    5.000    0.000    0.000 
#    0.000    0.000    0.000    0.000    0.000    0.000 
#
# Total GULP energy -267973.060826 kJ/mol
# GULP energy per Si atom -5582.772101 kJ/mol
# Density = 1.782103 g / cm^3
# Si number density = 17.861685 Si / 1000 Ang^3
#
#
#
# Elastic Constant Matrix: (Units=GPa)
#
#
# Indices 1 2 3 4 5 6 
#
# 1 88.1676 70.7771 94.4823 0.0000 0.0000 0.0000
# 2 70.7771 88.1678 94.4826 0.0000 0.0000 0.0000
# 3 94.4823 94.4826 174.8724 0.0000 0.0000 0.0000
# 4 0.0000 0.0000 0.0000 127.4200 0.0000 0.0000
# 5 0.0000 0.0000 0.0000 0.0000 127.4239 0.0000
# 6 0.0000 0.0000 0.0000 0.0000 0.0000 28.2515
#
#
#
# Elastic Compliance Matrix: (Units=1/GPa)
#
#
# Indices 1 2 3 4 5 6 
#
# 1 0.037546 -0.019956 -0.009504 0.000000 0.000000 0.000000
# 2 -0.019956 0.037547 -0.009504 0.000000 0.000000 0.000000
# 3 -0.009504 -0.009504 0.015988 0.000000 0.000000 0.000000
# 4 0.000000 0.000000 0.000000 0.007848 0.000000 0.000000
# 5 0.000000 0.000000 0.000000 0.000000 0.007848 0.000000
# 6 0.000000 0.000000 0.000000 0.000000 0.000000 0.035396
#
#
# Mechanical properties :
#
#
# Convention : Reuss Voigt Hill
#
# Bulk Modulus (GPa) = 76.02640 96.74352 86.38496
# Shear Modulus (GPa) = 22.27308 62.71681 42.49494
#
# Velocity S-wave (km/s) = 3.53508 5.93201 4.88291
# Velocity P-wave (km/s) = 7.70187 10.05974 8.95872
#
# Compressibility (1/GPa) = 0.01315333
#
# Stress axis : x y z
#
# Youngs Moduli (GPa) = 26.63371 26.63360 62.54501
#
# Poissons Ratio (x) = 0.53150 0.59443
# Poissons Ratio (y) = 0.53150 0.59444
# Poissons Ratio (z) = 0.25313 0.25313
#
# Static dielectric constant tensor:
#      x y z
#    x 1.592420 0.000000 0.000000 
#    y 0.000000 1.592420 0.000000 
#    z 0.000000 0.000000 1.585380 
# 
# From -- ./inp_files/6112.got.cif
#   From: 2010.05.17/outbox.cif.g08.bks.cpg/sg115_4_cif.got.tgz:6112.got - 2010.05.20 11:07:42.
