data_PCOD9556484
_publ_section_title
;
Structure prediction by ZEFSAII (Michael W. Deem and Ramdas Pophale) SiO2 
 PCOD9556484
Probable space group: P -4 21 C
;
_chemical_formula_sum "Si O2"
_cell_formula_units_Z 32
_cell_length_a 11.249605
_cell_length_b 11.249605
_cell_length_c 9.838742
_cell_angle_alpha 90.000000
_cell_angle_beta 90.000000
_cell_angle_gamma 90.000000
_cell_volume 1245.128344
_symmetry_space_group_name_H-M "P -4 21 C"
_symmetry_group_IT_number 114
_symmetry_cell_setting 'tetragonal'
loop_
_space_group_symop_operation_xyz
x,y,z
y,-x,-z
-x,-y,z
-y,x,-z
1/2+x,1/2-y,1/2-z
1/2-x,1/2+y,1/2-z
1/2-y,1/2-x,1/2+z
1/2+y,1/2+x,1/2+z
loop_
_atom_site_type_symbol
_atom_site_label
_atom_site_fract_x
_atom_site_fract_y
_atom_site_fract_z
Si Si1 0.500000 0.000000 0.384078
Si Si2 0.500000 0.500000 0.000000
Si Si3 0.670294 0.708651 0.540954
Si Si4 0.249917 0.950782 0.494528
Si Si5 0.500000 0.500000 0.500000
Si Si6 0.289096 0.083716 0.745178
O O1 0.375129 0.013319 0.459865
O O2 0.489745 0.888036 0.289128
O O3 0.510772 0.371812 0.920587
O O4 0.813522 0.717008 0.524039
O O5 0.594440 0.590015 0.573251
O O6 0.653306 0.805858 0.661092
O O7 0.629556 0.734283 0.385199
O O8 0.216355 0.002781 0.641616
#
# Coordination Sequence:
#
# PCOD9556484 Si02
#       6
#     4   2   8   8   2   8
#     4  12  26  50  82 118 164 224 282 354 430 520
#     4  12  24  50  84 128 170 226 292 360 442 522
#     4  12  30  53  81 123 164 220 284 355 436 516
#     4  12  27  52  82 121 170 222 283 356 436 527
#     4  12  32  54  84 126 176 218 292 370 436 538
#     4  12  27  51  82 118 161 219 281 348 428 519
#
# _framework density 25.700161999999999
#
# number of rings (size 3 to 8) (size 9 to 14) (size 15 to 20)
#    0.000    0.000    5.000    2.250   10.500    1.000 
#    0.000    0.000    0.000    0.000    0.000    0.000 
#    0.000    0.000    0.000    0.000    0.000    0.000 
#
# Total GULP energy -178235.946632 kJ/mol
# GULP energy per Si atom -5569.873332 kJ/mol
# Density = 2.564167 g / cm^3
# Si number density = 25.700162 Si / 1000 Ang^3
#
#
#
# Elastic Constant Matrix: (Units=GPa)
#
#
# Indices 1 2 3 4 5 6 
#
# 1 153.0456 67.9833 44.4794 0.0000 0.0000 0.0000
# 2 67.9833 153.0456 44.4794 0.0000 0.0000 0.0000
# 3 44.4794 44.4794 119.9790 0.0000 0.0000 0.0000
# 4 0.0000 0.0000 0.0000 35.4954 0.0000 0.0000
# 5 0.0000 0.0000 0.0000 0.0000 35.4954 0.0000
# 6 0.0000 0.0000 0.0000 0.0000 0.0000 52.3542
#
#
#
# Elastic Compliance Matrix: (Units=1/GPa)
#
#
# Indices 1 2 3 4 5 6 
#
# 1 0.008537 -0.003219 -0.001971 0.000000 0.000000 0.000000
# 2 -0.003219 0.008537 -0.001971 0.000000 0.000000 0.000000
# 3 -0.001971 -0.001971 0.009797 0.000000 0.000000 0.000000
# 4 0.000000 0.000000 0.000000 0.028173 0.000000 0.000000
# 5 0.000000 0.000000 0.000000 0.000000 0.028173 0.000000
# 6 0.000000 0.000000 0.000000 0.000000 0.000000 0.019101
#
#
# Mechanical properties :
#
#
# Convention : Reuss Voigt Hill
#
# Bulk Modulus (GPa) = 79.70485 82.21717 80.96101
# Shear Modulus (GPa) = 41.38304 42.61089 41.99697
#
# Velocity S-wave (km/s) = 4.01711 4.07627 4.04680
# Velocity P-wave (km/s) = 7.25238 7.36309 7.30794
#
# Compressibility (1/GPa) = 0.01254629
#
# Stress axis : x y z
#
# Youngs Moduli (GPa) = 117.13828 117.13828 102.07709
#
# Poissons Ratio (x) = 0.37709 0.20124
# Poissons Ratio (y) = 0.37709 0.20124
# Poissons Ratio (z) = 0.23093 0.23093
#
# Static dielectric constant tensor:
#      x y z
#    x 2.090770 0.000000 0.000000 
#    y 0.000000 2.090770 0.000000 
#    z 0.000000 0.000000 2.036220 
# 
# From -- ./inp_files/1340.got.cif
#   From: 2010.05.17/outbox.cif.g08.bks.cpg/sg114_1_cif.got.tgz:1340.got - 2010.05.20 11:04:54.
