data_PCOD9556684
_publ_section_title
;
Structure prediction by ZEFSAII (Michael W. Deem and Ramdas Pophale) SiO2 
 PCOD9556684
Probable space group: P -4 M 2
;
_chemical_formula_sum "Si O2"
_cell_formula_units_Z 40
_cell_length_a 14.033470
_cell_length_b 14.033470
_cell_length_c 10.054960
_cell_angle_alpha 90.000000
_cell_angle_beta 90.000000
_cell_angle_gamma 90.000000
_cell_volume 1980.206530
_symmetry_space_group_name_H-M "P -4 M 2"
_symmetry_group_IT_number 115
_symmetry_cell_setting 'tetragonal'
loop_
_space_group_symop_operation_xyz
x,y,z
y,-x,-z
-x,-y,z
-y,x,-z
y,x,-z
-y,-x,-z
-x,y,z
x,-y,z
loop_
_atom_site_type_symbol
_atom_site_label
_atom_site_fract_x
_atom_site_fract_y
_atom_site_fract_z
Si Si1 0.277701 0.390249 0.610224
Si Si2 0.302742 0.112237 0.236575
Si Si3 0.107408 0.614711 0.058068
Si Si4 0.688447 0.613313 0.140787
Si Si5 0.893555 0.115168 0.346710
O O1 0.320064 0.320064 0.500000
O O2 0.284271 0.500000 0.567170
O O3 0.171914 0.363475 0.658053
O O4 0.339354 0.371176 0.742402
O O5 0.192738 0.143929 0.252233
O O6 0.308438 0.000000 0.265908
O O7 0.339836 0.125466 0.086966
O O8 0.107656 0.500000 0.041122
O O9 0.198480 0.637300 0.148988
O O10 0.000000 0.642083 0.102072
O O11 0.678740 0.500000 0.145870
O O12 0.650751 0.650751 0.000000
O O13 0.865595 0.134406 0.500000
O O14 0.000000 0.152936 0.319496
O O15 0.900090 0.000000 0.338384
#
# Coordination Sequence:
#
# PCOD9556684 Si02
#       5
#     8   8   8   8   8
#     4  12  26  43  62  90 127 162 201 257 320 373
#     4  10  19  34  59  87 118 160 205 248 302 373
#     4   9  18  35  60  88 117 152 199 258 314 361
#     4  11  22  39  63  88 115 155 209 256 301 371
#     4   8  14  26  46  75 113 156 200 243 289 349
#
# _framework density 20.199914
#
# number of rings (size 3 to 8) (size 9 to 14) (size 15 to 20)
#    0.000    2.000    2.000    3.000    0.000    3.600 
#    0.000    2.000    0.000    3.600    0.000    0.000 
#    0.000    0.000    0.000    0.000    0.000    0.000 
#
# Total GULP energy -223296.449255 kJ/mol
# GULP energy per Si atom -5582.411231 kJ/mol
# Density = 2.015394 g / cm^3
# Si number density = 20.199914 Si / 1000 Ang^3
#
#
#
# Elastic Constant Matrix: (Units=GPa)
#
#
# Indices 1 2 3 4 5 6 
#
# 1 88.3536 15.7000 1.2230 0.0000 0.0000 0.0000
# 2 15.7000 88.3533 1.2230 0.0000 0.0000 0.0000
# 3 1.2230 1.2230 14.7298 0.0000 0.0000 0.0000
# 4 0.0000 0.0000 0.0000 25.5338 0.0000 0.0000
# 5 0.0000 0.0000 0.0000 0.0000 25.5341 0.0000
# 6 0.0000 0.0000 0.0000 0.0000 0.0000 19.8183
#
#
#
# Elastic Compliance Matrix: (Units=1/GPa)
#
#
# Indices 1 2 3 4 5 6 
#
# 1 0.011697 -0.002067 -0.000800 0.000000 0.000000 0.000000
# 2 -0.002067 0.011697 -0.000799 0.000000 0.000000 0.000000
# 3 -0.000800 -0.000799 0.068022 0.000000 0.000000 0.000000
# 4 0.000000 0.000000 0.000000 0.039164 0.000000 0.000000
# 5 0.000000 0.000000 0.000000 0.000000 0.039163 0.000000
# 6 0.000000 0.000000 0.000000 0.000000 0.000000 0.050458
#
#
# Mechanical properties :
#
#
# Convention : Reuss Voigt Hill
#
# Bulk Modulus (GPa) = 11.89302 25.30319 18.59810
# Shear Modulus (GPa) = 19.56477 25.72996 22.64736
#
# Velocity S-wave (km/s) = 3.11554 3.57286 3.35201
# Velocity P-wave (km/s) = 4.34080 5.43820 4.92019
#
# Compressibility (1/GPa) = 0.08408294
#
# Stress axis : x y z
#
# Youngs Moduli (GPa) = 85.49504 85.49476 14.70103
#
# Poissons Ratio (x) = 0.17675 0.01175
# Poissons Ratio (y) = 0.17675 0.01175
# Poissons Ratio (z) = 0.06835 0.06835
#
# Static dielectric constant tensor:
#      x y z
#    x 1.770250 0.000000 0.000000 
#    y 0.000000 1.770250 0.000000 
#    z 0.000000 0.000000 1.680320 
# 
# From -- ./inp_files/1614.got.cif
#   From: 2010.05.17/outbox.cif.g08.bks.cpg/sg115_1_cif.got.tgz:1614.got - 2010.05.20 11:07:42.
