data_PCOD9556356
_publ_section_title
;
Structure prediction by ZEFSAII (Michael W. Deem and Ramdas Pophale) SiO2 
 PCOD9556356
Probable space group: P -4 21 C
;
_chemical_formula_sum "Si O2"
_cell_formula_units_Z 40
_cell_length_a 9.183508
_cell_length_b 9.183508
_cell_length_c 24.851289
_cell_angle_alpha 90.000000
_cell_angle_beta 90.000000
_cell_angle_gamma 90.000000
_cell_volume 2095.878667
_symmetry_space_group_name_H-M "P -4 21 C"
_symmetry_group_IT_number 114
_symmetry_cell_setting 'tetragonal'
loop_
_space_group_symop_operation_xyz
x,y,z
y,-x,-z
-x,-y,z
-y,x,-z
1/2+x,1/2-y,1/2-z
1/2-x,1/2+y,1/2-z
1/2-y,1/2-x,1/2+z
1/2+y,1/2+x,1/2+z
loop_
_atom_site_type_symbol
_atom_site_label
_atom_site_fract_x
_atom_site_fract_y
_atom_site_fract_z
Si Si1 0.814119 0.156575 0.492271
Si Si2 0.689868 0.144785 0.095064
Si Si3 0.311237 0.140189 0.609996
Si Si4 0.637424 0.896366 0.226866
Si Si5 0.386367 0.629702 0.703165
O O1 0.718457 0.230800 0.538726
O O2 0.782849 0.203540 0.431220
O O3 0.982720 0.198117 0.502405
O O4 0.533859 0.215291 0.111031
O O5 0.795520 0.153393 0.146177
O O6 0.663804 0.973217 0.086833
O O7 0.319080 0.188581 0.671555
O O8 0.599412 0.767181 0.267645
O O9 0.500000 0.000000 0.214121
O O10 0.761008 0.015312 0.239911
O O11 0.500000 0.500000 0.693469
#
# Coordination Sequence:
#
# PCOD9556356 Si02
#       5
#     8   8   8   8   8
#     4   9  18  33  57  86 107 139 197 245 280 349
#     4   9  18  37  56  77 115 150 186 236 293 350
#     4   9  17  36  59  76 112 156 180 228 305 349
#     4  11  21  41  61  84 119 161 197 247 300 364
#     4  11  23  37  61  90 120 156 206 249 299 361
#
# _framework density 19.085072
#
# number of rings (size 3 to 8) (size 9 to 14) (size 15 to 20)
#    0.000    2.200    4.000    1.200    0.000    1.600 
#   10.800    0.000    4.400    0.000    0.000    0.000 
#    0.000    0.000    0.000    0.000    0.000    0.000 
#
# Total GULP energy -222726.607390 kJ/mol
# GULP energy per Si atom -5568.165185 kJ/mol
# Density = 1.904163 g / cm^3
# Si number density = 19.085072 Si / 1000 Ang^3
#
#
#
# Elastic Constant Matrix: (Units=GPa)
#
#
# Indices 1 2 3 4 5 6 
#
# 1 43.3116 26.7065 45.3983 0.0000 0.0000 0.0000
# 2 26.7065 43.3116 45.3983 0.0000 0.0000 0.0000
# 3 45.3983 45.3983 108.9325 0.0000 0.0000 0.0000
# 4 0.0000 0.0000 0.0000 25.0618 0.0000 0.0000
# 5 0.0000 0.0000 0.0000 0.0000 25.0618 0.0000
# 6 0.0000 0.0000 0.0000 0.0000 0.0000 20.9658
#
#
#
# Elastic Compliance Matrix: (Units=1/GPa)
#
#
# Indices 1 2 3 4 5 6 
#
# 1 0.045650 -0.014573 -0.012952 0.000000 0.000000 0.000000
# 2 -0.014573 0.045650 -0.012952 0.000000 0.000000 0.000000
# 3 -0.012952 -0.012952 0.019975 0.000000 0.000000 0.000000
# 4 0.000000 0.000000 0.000000 0.039901 0.000000 0.000000
# 5 0.000000 0.000000 0.000000 0.000000 0.039901 0.000000
# 6 0.000000 0.000000 0.000000 0.000000 0.000000 0.047697
#
#
# Mechanical properties :
#
#
# Convention : Reuss Voigt Hill
#
# Bulk Modulus (GPa) = 32.97805 47.84020 40.40912
# Shear Modulus (GPa) = 15.15915 19.42140 17.29027
#
# Velocity S-wave (km/s) = 2.82138 3.19348 3.01318
# Velocity P-wave (km/s) = 5.28494 6.22246 5.77276
#
# Compressibility (1/GPa) = 0.03032320
#
# Stress axis : x y z
#
# Youngs Moduli (GPa) = 21.90587 21.90587 50.06190
#
# Poissons Ratio (x) = 0.31923 0.64838
# Poissons Ratio (y) = 0.31923 0.64838
# Poissons Ratio (z) = 0.28372 0.28372
#
# Static dielectric constant tensor:
#      x y z
#    x 1.689540 0.000000 0.000000 
#    y 0.000000 1.689540 0.000000 
#    z 0.000000 0.000000 1.679280 
# 
# From -- ./inp_files/3384.got.cif
#   From: 2010.05.17/outbox.cif.g08.bks.cpg/sg114_2_cif.got.tgz:3384.got - 2010.05.20 11:04:54.
