data_PCOD9556667
_publ_section_title
;
Structure prediction by ZEFSAII (Michael W. Deem and Ramdas Pophale) SiO2 
 PCOD9556667
Probable space group: P -4 M 2
;
_chemical_formula_sum "Si O2"
_cell_formula_units_Z 48
_cell_length_a 14.905513
_cell_length_b 14.905513
_cell_length_c 12.188109
_cell_angle_alpha 90.000000
_cell_angle_beta 90.000000
_cell_angle_gamma 90.000000
_cell_volume 2707.884802
_symmetry_space_group_name_H-M "P -4 M 2"
_symmetry_group_IT_number 115
_symmetry_cell_setting 'tetragonal'
loop_
_space_group_symop_operation_xyz
x,y,z
y,-x,-z
-x,-y,z
-y,x,-z
y,x,-z
-y,-x,-z
-x,y,z
x,-y,z
loop_
_atom_site_type_symbol
_atom_site_label
_atom_site_fract_x
_atom_site_fract_y
_atom_site_fract_z
Si Si1 0.258743 0.894379 0.125419
Si Si2 0.603246 0.214747 0.269140
Si Si3 0.103958 0.241409 0.136750
Si Si4 0.152900 0.396848 0.301554
Si Si5 0.600924 0.360320 0.628979
Si Si6 0.096924 0.608293 0.534120
O O1 0.335856 0.831292 0.177217
O O2 0.165998 0.845174 0.158807
O O3 0.264545 0.000000 0.156968
O O4 0.262099 0.890823 0.993152
O O5 0.500000 0.186711 0.252727
O O6 0.603952 0.321047 0.291357
O O7 0.638834 0.173774 0.384367
O O8 0.139032 0.327409 0.203950
O O9 0.000000 0.225372 0.164303
O O10 0.125724 0.500000 0.274492
O O11 0.254829 0.400123 0.344226
O O12 0.101904 0.361401 0.409268
O O13 0.621960 0.378040 0.500000
O O14 0.500000 0.394397 0.649629
O O15 0.105236 0.500000 0.526501
O O16 0.000000 0.629800 0.582653
#
# Coordination Sequence:
#
# PCOD9556667 Si02
#       6
#     8   8   8   8   8   8
#     4  10  22  39  58  82 111 143 184 234 287 342
#     4  11  21  35  55  81 113 148 187 230 277 333
#     4  10  21  38  60  83 109 143 185 233 285 342
#     4  10  19  33  55  82 112 146 185 232 283 334
#     4  11  21  35  55  82 118 156 192 230 276 328
#     4   9  17  29  48  77 110 141 174 218 272 326
#
# _framework density 17.726012999999998
#
# number of rings (size 3 to 8) (size 9 to 14) (size 15 to 20)
#    0.000    1.833    3.333    1.500    0.000    4.167 
#    0.000    3.333    0.000    0.000    0.000    0.000 
#    0.000    5.333    0.000    0.000    0.000    0.000 
#
# Total GULP energy -267421.198297 kJ/mol
# GULP energy per Si atom -5571.274965 kJ/mol
# Density = 1.768567 g / cm^3
# Si number density = 17.726013 Si / 1000 Ang^3
#
#
#
# Elastic Constant Matrix: (Units=GPa)
#
#
# Indices 1 2 3 4 5 6 
#
# 1 114.8417 35.2183 36.0342 0.0000 0.0000 0.0000
# 2 35.2183 114.8417 36.0342 0.0000 0.0000 0.0000
# 3 36.0342 36.0342 45.6832 0.0000 0.0000 0.0000
# 4 0.0000 0.0000 0.0000 23.0652 0.0000 0.0000
# 5 0.0000 0.0000 0.0000 0.0000 23.0652 0.0000
# 6 0.0000 0.0000 0.0000 0.0000 0.0000 15.6314
#
#
#
# Elastic Compliance Matrix: (Units=1/GPa)
#
#
# Indices 1 2 3 4 5 6 
#
# 1 0.011644 -0.000916 -0.008462 0.000000 0.000000 0.000000
# 2 -0.000916 0.011644 -0.008462 0.000000 0.000000 0.000000
# 3 -0.008462 -0.008462 0.035239 0.000000 0.000000 0.000000
# 4 0.000000 0.000000 0.000000 0.043355 0.000000 0.000000
# 5 0.000000 0.000000 0.000000 0.000000 0.043355 0.000000
# 6 0.000000 0.000000 0.000000 0.000000 0.000000 0.063974
#
#
# Mechanical properties :
#
#
# Convention : Reuss Voigt Hill
#
# Bulk Modulus (GPa) = 43.76923 54.43775 49.10349
# Shear Modulus (GPa) = 19.80148 23.55768 21.67958
#
# Velocity S-wave (km/s) = 3.34591 3.64949 3.50099
# Velocity P-wave (km/s) = 6.29861 6.96675 6.64109
#
# Compressibility (1/GPa) = 0.02284710
#
# Stress axis : x y z
#
# Youngs Moduli (GPa) = 85.88421 85.88421 28.37730
#
# Poissons Ratio (x) = 0.07863 0.24013
# Poissons Ratio (y) = 0.07863 0.24013
# Poissons Ratio (z) = 0.72676 0.72676
#
# Static dielectric constant tensor:
#      x y z
#    x 1.639070 0.000000 0.000000 
#    y 0.000000 1.639070 0.000000 
#    z 0.000000 0.000000 1.599240 
# 
# From -- ./inp_files/2936.got.cif
#   From: 2010.05.17/outbox.cif.g08.bks.cpg/sg115_2_cif.got.tgz:2936.got - 2010.05.20 11:07:42.
