data_PCOD9556430
_publ_section_title
;
Structure prediction by ZEFSAII (Michael W. Deem and Ramdas Pophale) SiO2 
 PCOD9556430
Probable space group: P -4 21 C
;
_chemical_formula_sum "Si O2"
_cell_formula_units_Z 28
_cell_length_a 8.560487
_cell_length_b 8.560487
_cell_length_c 15.391682
_cell_angle_alpha 90.000000
_cell_angle_beta 90.000000
_cell_angle_gamma 90.000000
_cell_volume 1127.932281
_symmetry_space_group_name_H-M "P -4 21 C"
_symmetry_group_IT_number 114
_symmetry_cell_setting 'tetragonal'
loop_
_space_group_symop_operation_xyz
x,y,z
y,-x,-z
-x,-y,z
-y,x,-z
1/2+x,1/2-y,1/2-z
1/2-x,1/2+y,1/2-z
1/2-y,1/2-x,1/2+z
1/2+y,1/2+x,1/2+z
loop_
_atom_site_type_symbol
_atom_site_label
_atom_site_fract_x
_atom_site_fract_y
_atom_site_fract_z
Si Si1 0.663141 0.098125 0.792479
Si Si2 0.869627 0.794562 0.538167
Si Si3 0.000000 0.000000 0.841187
Si Si4 0.171678 0.425051 0.395401
O O1 0.672842 0.153965 0.693067
O O2 0.500000 0.000000 0.800864
O O3 0.638447 0.240676 0.861977
O O4 0.821419 0.996474 0.803159
O O5 0.787545 0.663089 0.482771
O O6 0.042044 0.799730 0.494224
O O7 0.022303 0.827630 0.880913
O O8 0.000000 0.500000 0.405220
#
# Coordination Sequence:
#
# PCOD9556430 Si02
#       4
#     8   8   4   8
#     4  11  27  47  73 114 156 200 265 320 379 469
#     4  11  25  45  78 110 157 207 258 323 392 454
#     4  12  28  45  84 101 156 206 248 313 408 429
#     4  11  27  47  73 114 156 200 265 320 379 469
#
# _framework density 24.824185
#
# number of rings (size 3 to 8) (size 9 to 14) (size 15 to 20)
#    0.000    0.857    0.000    4.286   16.000    3.429 
#    0.000    0.000    0.000    0.000    0.000    0.000 
#    0.000    0.000    0.000    0.000    0.000    0.000 
#
# Total GULP energy -155929.156593 kJ/mol
# GULP energy per Si atom -5568.898450 kJ/mol
# Density = 2.476768 g / cm^3
# Si number density = 24.824185 Si / 1000 Ang^3
#
#
#
# Elastic Constant Matrix: (Units=GPa)
#
#
# Indices 1 2 3 4 5 6 
#
# 1 130.0339 33.4815 7.9227 0.0000 0.0000 0.0000
# 2 33.4815 130.0339 7.9227 0.0000 0.0000 0.0000
# 3 7.9227 7.9227 112.2020 0.0000 0.0000 0.0000
# 4 0.0000 0.0000 0.0000 -14.6585 0.0000 0.0000
# 5 0.0000 0.0000 0.0000 0.0000 -14.6585 0.0000
# 6 0.0000 0.0000 0.0000 0.0000 0.0000 4.6539
#
#
#
# Elastic Compliance Matrix: (Units=1/GPa)
#
#
# Indices 1 2 3 4 5 6 
#
# 1 0.008257 -0.002100 -0.000435 0.000000 0.000000 0.000000
# 2 -0.002100 0.008257 -0.000435 0.000000 0.000000 0.000000
# 3 -0.000435 -0.000435 0.008974 0.000000 0.000000 0.000000
# 4 0.000000 0.000000 0.000000 -0.068220 0.000000 0.000000
# 5 0.000000 0.000000 0.000000 0.000000 -0.068220 0.000000
# 6 0.000000 0.000000 0.000000 0.000000 0.000000 0.214873
#
#
# Mechanical properties :
#
#
# Convention : Reuss Voigt Hill
#
# Bulk Modulus (GPa) = 51.15034 52.32484 51.73759
# Shear Modulus (GPa) = 42.96359 16.59692 29.78025
#
# Velocity S-wave (km/s) = 4.16470 2.58849 3.46735
# Velocity P-wave (km/s) = 6.61635 5.48249 6.07593
#
# Compressibility (1/GPa) = 0.01955021
#
# Stress axis : x y z
#
# Youngs Moduli (GPa) = 121.10327 121.10327 111.43426
#
# Poissons Ratio (x) = 0.25427 0.04845
# Poissons Ratio (y) = 0.25427 0.04845
# Poissons Ratio (z) = 0.05266 0.05266
#
# Static dielectric constant tensor:
#      x y z
#    x 1.950980 0.000000 0.000000 
#    y 0.000000 1.950980 0.000000 
#    z 0.000000 0.000000 1.943680 
# 
# From -- ./inp_files/2451.got.cif
#   From: 2010.05.17/outbox.cif.g08.bks.cpg/sg114_2_cif.got.tgz:2451.got - 2010.05.20 11:04:54.
