data_PCOD9556345
_publ_section_title
;
Structure prediction by ZEFSAII (Michael W. Deem and Ramdas Pophale) SiO2 
 PCOD9556345
Probable space group: P -4 21 C
;
_chemical_formula_sum "Si O2"
_cell_formula_units_Z 34
_cell_length_a 9.168856
_cell_length_b 9.168856
_cell_length_c 17.205384
_cell_angle_alpha 90.000000
_cell_angle_beta 90.000000
_cell_angle_gamma 90.000000
_cell_volume 1446.420852
_symmetry_space_group_name_H-M "P -4 21 C"
_symmetry_group_IT_number 114
_symmetry_cell_setting 'tetragonal'
loop_
_space_group_symop_operation_xyz
x,y,z
y,-x,-z
-x,-y,z
-y,x,-z
1/2+x,1/2-y,1/2-z
1/2-x,1/2+y,1/2-z
1/2-y,1/2-x,1/2+z
1/2+y,1/2+x,1/2+z
loop_
_atom_site_type_symbol
_atom_site_label
_atom_site_fract_x
_atom_site_fract_y
_atom_site_fract_z
Si Si1 0.029650 0.678524 0.007822
Si Si2 0.412544 0.651675 0.804024
Si Si3 0.820824 0.925083 0.458383
Si Si4 0.436537 0.156692 0.675447
Si Si5 0.000000 0.000000 0.000000
O O1 0.025893 0.684361 0.914590
O O2 0.000000 0.500000 0.025790
O O3 0.970300 0.837168 0.038433
O O4 0.195597 0.688417 0.035337
O O5 0.500000 0.500000 0.801108
O O6 0.474127 0.713005 0.885568
O O7 0.475257 0.735410 0.730446
O O8 0.237462 0.655494 0.807929
O O9 0.972741 0.837257 0.464649
O O10 0.500000 0.000000 0.695713
#
# Coordination Sequence:
#
# PCOD9556345 Si02
#       5
#     8   8   8   8   2
#     4  11  25  46  72 104 154 190 249 325 383 463
#     4  12  24  43  75 105 145 196 253 314 391 477
#     4  11  20  42  74 104 140 198 254 303 395 474
#     4  11  26  47  69 106 152 197 249 319 391 467
#     4  12  28  44  76 120 140 204 262 316 400 464
#
# _framework density 23.506295999999999
#
# number of rings (size 3 to 8) (size 9 to 14) (size 15 to 20)
#    0.000    0.706    4.706    2.824    1.647    6.588 
#    0.000    0.000    0.000    0.000    0.000    0.000 
#    0.000    0.000    0.000    0.000    0.000    0.000 
#
# Total GULP energy -189291.438269 kJ/mol
# GULP energy per Si atom -5567.395243 kJ/mol
# Density = 2.345279 g / cm^3
# Si number density = 23.506296 Si / 1000 Ang^3
#
#
#
# Elastic Constant Matrix: (Units=GPa)
#
#
# Indices 1 2 3 4 5 6 
#
# 1 124.9985 39.1585 16.1769 0.0000 0.0000 0.0000
# 2 39.1585 124.9985 16.1769 0.0000 0.0000 0.0000
# 3 16.1769 16.1769 57.4957 0.0000 0.0000 0.0000
# 4 0.0000 0.0000 0.0000 30.0481 0.0000 0.0000
# 5 0.0000 0.0000 0.0000 0.0000 30.0481 0.0000
# 6 0.0000 0.0000 0.0000 0.0000 0.0000 46.0021
#
#
#
# Elastic Compliance Matrix: (Units=1/GPa)
#
#
# Indices 1 2 3 4 5 6 
#
# 1 0.009049 -0.002600 -0.001815 0.000000 0.000000 0.000000
# 2 -0.002600 0.009049 -0.001815 0.000000 0.000000 0.000000
# 3 -0.001815 -0.001815 0.018414 0.000000 0.000000 0.000000
# 4 0.000000 0.000000 0.000000 0.033280 0.000000 0.000000
# 5 0.000000 0.000000 0.000000 0.000000 0.033280 0.000000
# 6 0.000000 0.000000 0.000000 0.000000 0.000000 0.021738
#
#
# Mechanical properties :
#
#
# Convention : Reuss Voigt Hill
#
# Bulk Modulus (GPa) = 41.57298 50.05749 45.81523
# Shear Modulus (GPa) = 34.41458 36.95170 35.68314
#
# Velocity S-wave (km/s) = 3.83045 3.96914 3.90041
# Velocity P-wave (km/s) = 6.10634 6.50745 6.31009
#
# Compressibility (1/GPa) = 0.02405409
#
# Stress axis : x y z
#
# Youngs Moduli (GPa) = 110.50367 110.50367 54.30740
#
# Poissons Ratio (x) = 0.28732 0.09855
# Poissons Ratio (y) = 0.28732 0.09855
# Poissons Ratio (z) = 0.20052 0.20052
#
# Static dielectric constant tensor:
#      x y z
#    x 2.162120 0.000000 0.000000 
#    y 0.000000 2.162120 0.000000 
#    z 0.000000 0.000000 1.889920 
# 
# From -- ./inp_files/2944.got.cif
#   From: 2010.05.17/outbox.cif.g08.bks.cpg/sg114_2_cif.got.tgz:2944.got - 2010.05.20 11:04:54.
