data_PCOD9556286
_publ_section_title
;
Structure prediction by ZEFSAII (Michael W. Deem and Ramdas Pophale) SiO2 
 PCOD9556286
Probable space group: P -4 21 C
;
_chemical_formula_sum "Si O2"
_cell_formula_units_Z 34
_cell_length_a 8.763877
_cell_length_b 8.763877
_cell_length_c 19.053885
_cell_angle_alpha 90.000000
_cell_angle_beta 90.000000
_cell_angle_gamma 90.000000
_cell_volume 1463.443928
_symmetry_space_group_name_H-M "P -4 21 C"
_symmetry_group_IT_number 114
_symmetry_cell_setting 'tetragonal'
loop_
_space_group_symop_operation_xyz
x,y,z
y,-x,-z
-x,-y,z
-y,x,-z
1/2+x,1/2-y,1/2-z
1/2-x,1/2+y,1/2-z
1/2-y,1/2-x,1/2+z
1/2+y,1/2+x,1/2+z
loop_
_atom_site_type_symbol
_atom_site_label
_atom_site_fract_x
_atom_site_fract_y
_atom_site_fract_z
Si Si1 0.711211 0.232204 0.147211
Si Si2 0.755168 0.070990 0.006766
Si Si3 0.500000 0.500000 0.000000
Si Si4 0.573106 0.668659 0.228392
Si Si5 0.246787 0.918536 0.400456
O O1 0.694219 0.115440 0.083304
O O2 0.561496 0.229098 0.196421
O O3 0.857307 0.203257 0.196300
O O4 0.735358 0.401724 0.115622
O O5 0.639578 0.110414 0.944208
O O6 0.900812 0.181744 0.995174
O O7 0.600826 0.608229 0.048721
O O8 0.500000 0.500000 0.229551
O O9 0.711152 0.666525 0.171956
#
# Coordination Sequence:
#
# PCOD9556286 Si02
#       5
#     8   8   2   8   8
#     4  11  24  45  73 102 139 190 233 291 352 427
#     4  11  27  45  70 100 145 183 230 300 352 413
#     4  12  16  44  72 100 136 180 234 284 340 400
#     4  10  24  44  70 103 143 181 229 295 351 419
#     4  11  21  45  74 101 135 184 238 283 350 418
#
# _framework density 23.232868
#
# number of rings (size 3 to 8) (size 9 to 14) (size 15 to 20)
#    0.000    1.176    5.882    0.000    6.588    2.824 
#    4.235    4.706    0.000    0.000    0.000    0.000 
#    0.000    0.000    0.000    0.000    0.000    0.000 
#
# Total GULP energy -190297.830411 kJ/mol
# GULP energy per Si atom -5596.995012 kJ/mol
# Density = 2.317999 g / cm^3
# Si number density = 23.232868 Si / 1000 Ang^3
#
#
#
# Elastic Constant Matrix: (Units=GPa)
#
#
# Indices 1 2 3 4 5 6 
#
# 1 43.7228 24.4320 31.8554 0.0000 0.0000 0.0000
# 2 24.4320 43.7228 31.8554 0.0000 0.0000 0.0000
# 3 31.8554 31.8554 129.2609 0.0000 0.0000 0.0000
# 4 0.0000 0.0000 0.0000 31.1834 0.0000 0.0000
# 5 0.0000 0.0000 0.0000 0.0000 31.1834 0.0000
# 6 0.0000 0.0000 0.0000 0.0000 0.0000 34.7764
#
#
#
# Elastic Compliance Matrix: (Units=1/GPa)
#
#
# Indices 1 2 3 4 5 6 
#
# 1 0.035451 -0.016387 -0.004698 0.000000 0.000000 0.000000
# 2 -0.016387 0.035451 -0.004698 0.000000 0.000000 0.000000
# 3 -0.004698 -0.004698 0.010052 0.000000 0.000000 0.000000
# 4 0.000000 0.000000 0.000000 0.032068 0.000000 0.000000
# 5 0.000000 0.000000 0.000000 0.000000 0.032068 0.000000
# 6 0.000000 0.000000 0.000000 0.000000 0.000000 0.028755
#
#
# Mechanical properties :
#
#
# Convention : Reuss Voigt Hill
#
# Bulk Modulus (GPa) = 34.02782 43.66578 38.84680
# Shear Modulus (GPa) = 21.25767 27.99954 24.62861
#
# Velocity S-wave (km/s) = 3.02815 3.47532 3.25941
# Velocity P-wave (km/s) = 5.18695 5.91096 5.56075
#
# Compressibility (1/GPa) = 0.02938772
#
# Stress axis : x y z
#
# Youngs Moduli (GPa) = 28.20773 28.20773 99.48266
#
# Poissons Ratio (x) = 0.46224 0.46740
# Poissons Ratio (y) = 0.46224 0.46740
# Poissons Ratio (z) = 0.13253 0.13253
#
# Static dielectric constant tensor:
#      x y z
#    x 1.894010 0.000000 0.000000 
#    y 0.000000 1.894010 0.000000 
#    z 0.000000 0.000000 1.866390 
# 
# From -- ./inp_files/2886.got.cif
#   From: 2010.05.17/outbox.cif.g08.bks.cpg/sg114_2_cif.got.tgz:2886.got - 2010.05.20 11:04:54.
