data_PCOD9556541
_publ_section_title
;
Structure prediction by ZEFSAII (Michael W. Deem and Ramdas Pophale) SiO2 
 PCOD9556541
Probable space group: P -4 M 2
;
_chemical_formula_sum "Si O2"
_cell_formula_units_Z 56
_cell_length_a 14.032340
_cell_length_b 14.032340
_cell_length_c 16.283720
_cell_angle_alpha 90.000000
_cell_angle_beta 90.000000
_cell_angle_gamma 90.000000
_cell_volume 3206.371385
_symmetry_space_group_name_H-M "P -4 M 2"
_symmetry_group_IT_number 115
_symmetry_cell_setting 'tetragonal'
loop_
_space_group_symop_operation_xyz
x,y,z
y,-x,-z
-x,-y,z
-y,x,-z
y,x,-z
-y,-x,-z
-x,y,z
x,-y,z
loop_
_atom_site_type_symbol
_atom_site_label
_atom_site_fract_x
_atom_site_fract_y
_atom_site_fract_z
Si Si1 0.110815 0.204890 0.078237
Si Si2 0.607166 0.112722 0.023437
Si Si3 0.388118 0.386913 0.241800
Si Si4 0.610660 0.885375 0.332218
Si Si5 0.892441 0.615862 0.479563
Si Si6 0.614348 0.697212 0.583211
Si Si7 0.209796 0.705051 0.822713
O O1 0.127016 0.312728 0.045497
O O2 0.186758 0.189591 0.150344
O O3 0.000000 0.192082 0.099280
O O4 0.139216 0.139216 0.000000
O O5 0.500000 0.139195 0.998907
O O6 0.608341 0.000000 0.042799
O O7 0.640138 0.167659 0.104428
O O8 0.500000 0.367936 0.227231
O O9 0.371980 0.500000 0.231287
O O10 0.361046 0.360156 0.335648
O O11 0.321558 0.320759 0.186509
O O12 0.500000 0.854798 0.321833
O O13 0.640720 0.865229 0.426284
O O14 0.674684 0.839508 0.262163
O O15 0.612189 0.000000 0.324071
O O16 0.896055 0.500000 0.478333
O O17 0.807704 0.646937 0.419511
O O18 0.000000 0.649526 0.461687
O O19 0.649742 0.649742 0.500000
O O20 0.500000 0.698072 0.580787
#
# Coordination Sequence:
#
# PCOD9556541 Si02
#       7
#     8   8   8   8   8   8   8
#     4   9  20  36  52  72  96 124 157 193 235 286
#     4   9  17  31  53  77  94 110 142 191 242 288
#     4  10  21  33  44  65  98 133 167 199 232 275
#     4   9  16  26  44  72  99 119 147 195 252 298
#     4   8  15  28  45  65  90 119 152 195 243 283
#     4  10  18  28  44  65  91 126 166 202 237 282
#     4  11  19  30  49  70  96 127 155 188 235 289
#
# _framework density 17.465225
#
# number of rings (size 3 to 8) (size 9 to 14) (size 15 to 20)
#    0.000    2.571    0.000    3.857    0.000    4.286 
#    0.000    0.714    0.000    0.857    0.000    7.000 
#    0.000    1.429    0.000    0.000    0.000    0.000 
#
# Total GULP energy -312202.430721 kJ/mol
# GULP energy per Si atom -5575.043406 kJ/mol
# Density = 1.742547 g / cm^3
# Si number density = 17.465225 Si / 1000 Ang^3
#
#
#
# Elastic Constant Matrix: (Units=GPa)
#
#
# Indices 1 2 3 4 5 6 
#
# 1 61.1309 13.0103 16.4816 0.0000 0.0000 0.0000
# 2 13.0103 61.1309 16.4816 0.0000 0.0000 0.0000
# 3 16.4816 16.4816 19.9417 0.0000 0.0000 0.0000
# 4 0.0000 0.0000 0.0000 17.4291 0.0000 0.0000
# 5 0.0000 0.0000 0.0000 0.0000 17.4291 0.0000
# 6 0.0000 0.0000 0.0000 0.0000 0.0000 17.8428
#
#
#
# Elastic Compliance Matrix: (Units=1/GPa)
#
#
# Indices 1 2 3 4 5 6 
#
# 1 0.021052 0.000271 -0.017623 0.000000 0.000000 0.000000
# 2 0.000271 0.021052 -0.017623 0.000000 0.000000 0.000000
# 3 -0.017623 -0.017623 0.079277 0.000000 0.000000 0.000000
# 4 0.000000 0.000000 0.000000 0.057375 0.000000 0.000000
# 5 0.000000 0.000000 0.000000 0.000000 0.057375 0.000000
# 6 0.000000 0.000000 0.000000 0.000000 0.000000 0.056045
#
#
# Mechanical properties :
#
#
# Convention : Reuss Voigt Hill
#
# Bulk Modulus (GPa) = 19.44391 26.01672 22.73031
# Shear Modulus (GPa) = 13.18317 16.95553 15.06935
#
# Velocity S-wave (km/s) = 2.75039 3.11917 2.94057
# Velocity P-wave (km/s) = 4.60904 5.28214 4.95703
#
# Compressibility (1/GPa) = 0.05143000
#
# Stress axis : x y z
#
# Youngs Moduli (GPa) = 47.50121 47.50121 12.61402
#
# Poissons Ratio (x) = -0.01287 0.22230
# Poissons Ratio (y) = -0.01287 0.22230
# Poissons Ratio (z) = 0.83713 0.83713
#
# Static dielectric constant tensor:
#      x y z
#    x 1.613800 0.000000 0.000000 
#    y 0.000000 1.613800 0.000000 
#    z 0.000000 0.000000 1.582800 
# 
# From -- ./inp_files/3861.got.cif
#   From: 2010.05.17/outbox.cif.g08.bks.cpg/sg115_2_cif.got.tgz:3861.got - 2010.05.20 11:07:42.
