data_PCOD9556509
_publ_section_title
;
Structure prediction by ZEFSAII (Michael W. Deem and Ramdas Pophale) SiO2 
 PCOD9556509
Probable space group: P -4 21 C
;
_chemical_formula_sum "Si O2"
_cell_formula_units_Z 64
_cell_length_a 12.000000
_cell_length_b 12.000000
_cell_length_c 24.000000
_cell_angle_alpha 90.000000
_cell_angle_beta 90.000000
_cell_angle_gamma 90.000000
_cell_volume 3456.000000
_symmetry_space_group_name_H-M "P -4 21 C"
_symmetry_group_IT_number 114
_symmetry_cell_setting 'tetragonal'
loop_
_space_group_symop_operation_xyz
x,y,z
y,-x,-z
-x,-y,z
-y,x,-z
1/2+x,1/2-y,1/2-z
1/2-x,1/2+y,1/2-z
1/2-y,1/2-x,1/2+z
1/2+y,1/2+x,1/2+z
loop_
_atom_site_type_symbol
_atom_site_label
_atom_site_fract_x
_atom_site_fract_y
_atom_site_fract_z
Si Si1 0.779588 0.380133 0.667387
Si Si2 0.130560 0.509496 0.560969
Si Si3 0.616135 0.061046 0.750760
Si Si4 0.392487 0.753798 0.946735
Si Si5 0.124197 0.178350 0.732934
Si Si6 0.486087 0.256138 0.150555
Si Si7 0.666714 0.440274 0.152106
Si Si8 0.415193 0.191062 0.032536
O O1 0.788611 0.425088 0.603700
O O2 0.831217 0.482215 0.702270
O O3 0.669532 0.351361 0.704885
O O4 0.858489 0.270758 0.665132
O O5 0.158243 0.378414 0.559803
O O6 0.124315 0.581066 0.502744
O O7 0.000000 0.500000 0.581018
O O8 0.613503 0.188092 0.771048
O O9 0.688072 0.058944 0.694645
O O10 0.500000 0.000000 0.738196
O O11 0.467561 0.707274 0.894253
O O12 0.290644 0.674303 0.963106
O O13 0.480698 0.765099 0.996657
O O14 0.004881 0.137215 0.709535
O O15 0.207875 0.121702 0.687696
O O16 0.560616 0.364767 0.133924
O O17 0.454072 0.182469 0.096928
#
# Coordination Sequence:
#
# PCOD9556509 Si02
#       8
#     8   8   8   8   8   8   8   8
#     4  11  21  37  61  90 118 162 217 258 305 385
#     4  10  21  40  64  91 115 167 218 260 311 397
#     4  11  22  37  60  88 123 168 213 254 316 379
#     4  11  23  38  66  91 123 166 207 264 328 395
#     4  11  23  37  60  90 125 172 205 266 317 381
#     4  11  25  38  58  94 136 164 206 275 325 394
#     4  12  20  40  63  89 132 166 213 260 330 392
#     4  11  23  38  62  95 124 162 210 271 333 377
#
# _framework density 18.518519000000001
#
# number of rings (size 3 to 8) (size 9 to 14) (size 15 to 20)
#    0.000    1.000    6.250    2.250    0.000    2.750 
#    0.000    0.000    0.000    0.375    0.000    0.000 
#    0.000    0.000    0.000    0.000    0.000    0.000 
#
# Total GULP energy -356674.498605 kJ/mol
# GULP energy per Si atom -5573.039041 kJ/mol
# Density = 1.847637 g / cm^3
# Si number density = 18.518519 Si / 1000 Ang^3
#
#
#
# Elastic Constant Matrix: (Units=GPa)
#
#
# Indices 1 2 3 4 5 6 
#
# 1 82.5825 28.0438 28.6381 0.0000 0.0000 0.0000
# 2 28.0438 82.5825 28.6381 0.0000 0.0000 0.0000
# 3 28.6381 28.6381 114.5496 0.0000 0.0000 0.0000
# 4 0.0000 0.0000 0.0000 33.2084 0.0000 0.0000
# 5 0.0000 0.0000 0.0000 0.0000 33.2084 0.0000
# 6 0.0000 0.0000 0.0000 0.0000 0.0000 27.5639
#
#
#
# Elastic Compliance Matrix: (Units=1/GPa)
#
#
# Indices 1 2 3 4 5 6 
#
# 1 0.014360 -0.003976 -0.002596 0.000000 0.000000 0.000000
# 2 -0.003976 0.014360 -0.002596 0.000000 0.000000 0.000000
# 3 -0.002596 -0.002596 0.010028 0.000000 0.000000 0.000000
# 4 0.000000 0.000000 0.000000 0.030113 0.000000 0.000000
# 5 0.000000 0.000000 0.000000 0.000000 0.030113 0.000000
# 6 0.000000 0.000000 0.000000 0.000000 0.000000 0.036279
#
#
# Mechanical properties :
#
#
# Convention : Reuss Voigt Hill
#
# Bulk Modulus (GPa) = 48.99306 50.03941 49.51623
# Shear Modulus (GPa) = 31.17373 31.75579 31.46476
#
# Velocity S-wave (km/s) = 4.10735 4.14552 4.12648
# Velocity P-wave (km/s) = 7.00054 7.07063 7.03567
#
# Compressibility (1/GPa) = 0.02041106
#
# Stress axis : x y z
#
# Youngs Moduli (GPa) = 69.64019 69.64019 99.72241
#
# Poissons Ratio (x) = 0.27689 0.25887
# Poissons Ratio (y) = 0.27689 0.25887
# Poissons Ratio (z) = 0.18078 0.18078
#
# Static dielectric constant tensor:
#      x y z
#    x 1.665060 0.000000 0.000000 
#    y 0.000000 1.665060 0.000000 
#    z 0.000000 0.000000 1.667540 
# 
# From -- ./inp_files/3568.got.cif
#   From: 2010.05.17/outbox.ucp.g08.bks.cvg/sg114_2_cif.got.tgz:3568.got - 2010.06.11 11:33:27.
