data_PCOD9556952
_publ_section_title
;
Structure prediction by ZEFSAII (Michael W. Deem and Ramdas Pophale) SiO2 
 PCOD9556952
Probable space group: P -4 M 2
;
_chemical_formula_sum "Si O2"
_cell_formula_units_Z 48
_cell_length_a 9.109920
_cell_length_b 9.109920
_cell_length_c 31.977100
_cell_angle_alpha 90.000000
_cell_angle_beta 90.000000
_cell_angle_gamma 90.000000
_cell_volume 2653.800071
_symmetry_space_group_name_H-M "P -4 M 2"
_symmetry_group_IT_number 115
_symmetry_cell_setting 'tetragonal'
loop_
_space_group_symop_operation_xyz
x,y,z
y,-x,-z
-x,-y,z
-y,x,-z
y,x,-z
-y,-x,-z
-x,y,z
x,-y,z
loop_
_atom_site_type_symbol
_atom_site_label
_atom_site_fract_x
_atom_site_fract_y
_atom_site_fract_z
Si Si1 0.673280 0.176575 0.289099
Si Si2 0.326244 0.824183 0.460495
Si Si3 0.669518 0.678699 0.954055
Si Si4 0.821362 0.831023 0.625199
Si Si5 0.674718 0.826176 0.790125
Si Si6 0.323820 0.826860 0.131012
O O1 0.500000 0.207307 0.289654
O O2 0.746876 0.223730 0.332798
O O3 0.749725 0.253821 0.250111
O O4 0.691530 0.000000 0.285130
O O5 0.256102 0.743899 0.500000
O O6 0.500000 0.798172 0.458142
O O7 0.249522 0.775728 0.417331
O O8 0.303111 0.000000 0.464912
O O9 0.500000 0.725409 0.948456
O O10 0.668935 0.500000 0.955594
O O11 0.764375 0.722426 0.914191
O O12 0.724948 0.724948 0.000000
O O13 0.000000 0.830020 0.625136
O O14 0.773059 0.000000 0.625765
O O15 0.500000 0.803437 0.790003
O O16 0.743287 0.756451 0.831748
O O17 0.704203 0.000000 0.788893
O O18 0.500000 0.804284 0.134942
O O19 0.295613 0.000000 0.133696
#
# Coordination Sequence:
#
# PCOD9556952 Si02
#       6
#     8   8   8   8   8   8
#     4  10  20  35  57  84 111 139 173 214 262 317
#     4  10  20  34  53  78 108 142 181 224 267 312
#     4   8  14  27  49  75 103 138 178 217 258 306
#     4   9  17  31  54  82 110 141 176 215 261 313
#     4  11  24  39  54  75 104 139 179 221 265 313
#     4  10  20  34  54  80 107 137 175 217 262 313
#
# _framework density 18.087271999999999
#
# number of rings (size 3 to 8) (size 9 to 14) (size 15 to 20)
#    0.000    2.333    0.000    3.500    0.000    8.333 
#    0.000    1.667    0.000    8.000    0.000    0.000 
#    0.000    0.000    0.000    0.000    0.000    0.000 
#
# Total GULP energy -267930.623348 kJ/mol
# GULP energy per Si atom -5581.887986 kJ/mol
# Density = 1.804610 g / cm^3
# Si number density = 18.087272 Si / 1000 Ang^3
#
#
#
# Elastic Constant Matrix: (Units=GPa)
#
#
# Indices 1 2 3 4 5 6 
#
# 1 77.4008 71.1222 90.1184 0.0000 0.0000 0.0000
# 2 71.1222 77.4008 90.1193 0.0000 0.0000 0.0000
# 3 90.1184 90.1193 226.8350 0.0000 0.0000 0.0000
# 4 0.0000 0.0000 0.0000 32.7243 0.0000 0.0000
# 5 0.0000 0.0000 0.0000 0.0000 32.7243 0.0000
# 6 0.0000 0.0000 0.0000 0.0000 0.0000 21.9893
#
#
#
# Elastic Compliance Matrix: (Units=1/GPa)
#
#
# Indices 1 2 3 4 5 6 
#
# 1 0.086136 -0.073135 -0.005165 0.000000 0.000000 0.000000
# 2 -0.073135 0.086137 -0.005166 0.000000 0.000000 0.000000
# 3 -0.005165 -0.005166 0.008513 0.000000 0.000000 0.000000
# 4 0.000000 0.000000 0.000000 0.030558 0.000000 0.000000
# 5 0.000000 0.000000 0.000000 0.000000 0.030558 0.000000
# 6 0.000000 0.000000 0.000000 0.000000 0.000000 0.045477
#
#
# Mechanical properties :
#
#
# Convention : Reuss Voigt Hill
#
# Bulk Modulus (GPa) = 72.18091 98.26179 85.22135
# Shear Modulus (GPa) = 10.89497 26.17270 18.53383
#
# Velocity S-wave (km/s) = 2.45696 3.80810 3.20455
# Velocity P-wave (km/s) = 6.93127 8.58953 7.80456
#
# Compressibility (1/GPa) = 0.01385408
#
# Stress axis : x y z
#
# Youngs Moduli (GPa) = 11.60961 11.60942 117.47276
#
# Poissons Ratio (x) = 0.84906 0.60670
# Poissons Ratio (y) = 0.84907 0.60684
# Poissons Ratio (z) = 0.05996 0.05997
#
# Static dielectric constant tensor:
#      x y z
#    x 1.605460 0.000000 0.000000 
#    y 0.000000 1.605460 0.000000 
#    z 0.000000 0.000000 1.599160 
# 
# From -- ./inp_files/6046.got.cif
#   From: 2010.05.17/outbox.cif.g08.bks.cpg/sg115_4_cif.got.tgz:6046.got - 2010.05.20 11:07:42.
