data_PCOD9556487
_publ_section_title
;
Structure prediction by ZEFSAII (Michael W. Deem and Ramdas Pophale) SiO2 
 PCOD9556487
Probable space group: P -4 21 C
;
_chemical_formula_sum "Si O2"
_cell_formula_units_Z 32
_cell_length_a 8.688104
_cell_length_b 8.688104
_cell_length_c 19.582401
_cell_angle_alpha 90.000000
_cell_angle_beta 90.000000
_cell_angle_gamma 90.000000
_cell_volume 1478.141334
_symmetry_space_group_name_H-M "P -4 21 C"
_symmetry_group_IT_number 114
_symmetry_cell_setting 'tetragonal'
loop_
_space_group_symop_operation_xyz
x,y,z
y,-x,-z
-x,-y,z
-y,x,-z
1/2+x,1/2-y,1/2-z
1/2-x,1/2+y,1/2-z
1/2-y,1/2-x,1/2+z
1/2+y,1/2+x,1/2+z
loop_
_atom_site_type_symbol
_atom_site_label
_atom_site_fract_x
_atom_site_fract_y
_atom_site_fract_z
Si Si1 0.334512 0.237835 0.332377
Si Si2 0.571299 0.331235 0.806565
Si Si3 0.843251 0.766977 0.088957
Si Si4 0.073171 0.333856 0.940378
O O1 0.323001 0.344252 0.265981
O O2 0.501258 0.256406 0.366801
O O3 0.210168 0.293051 0.388081
O O4 0.293771 0.064891 0.311188
O O5 0.500000 0.500000 0.814133
O O6 0.690000 0.289984 0.866218
O O7 0.793662 0.940065 0.071068
O O8 0.869619 0.678784 0.017996
O O9 0.000000 0.500000 0.927817
#
# Coordination Sequence:
#
# PCOD9556487 Si02
#       4
#     8   8   8   8
#     4  12  25  46  73 106 143 193 247 300 373 446
#     4  12  26  46  72 107 148 192 242 313 370 443
#     4  12  26  47  74 104 144 195 246 301 374 450
#     4  12  25  45  71 105 141 188 241 305 367 444
#
# _framework density 21.648809
#
# number of rings (size 3 to 8) (size 9 to 14) (size 15 to 20)
#    0.000    0.000    2.500    9.000    0.000    2.000 
#    0.000    0.000    0.000    0.000    0.000    0.000 
#    0.000    0.000    0.000    0.000    0.000    0.000 
#
# Total GULP energy -179416.881990 kJ/mol
# GULP energy per Si atom -5606.777562 kJ/mol
# Density = 2.159954 g / cm^3
# Si number density = 21.648809 Si / 1000 Ang^3
#
#
#
# Elastic Constant Matrix: (Units=GPa)
#
#
# Indices 1 2 3 4 5 6 
#
# 1 57.3814 -9.1601 39.0231 0.0000 0.0000 0.0000
# 2 -9.1601 57.3814 39.0231 0.0000 0.0000 0.0000
# 3 39.0231 39.0231 172.0937 0.0000 0.0000 0.0000
# 4 0.0000 0.0000 0.0000 21.9101 0.0000 0.0000
# 5 0.0000 0.0000 0.0000 0.0000 21.9101 0.0000
# 6 0.0000 0.0000 0.0000 0.0000 0.0000 41.0194
#
#
#
# Elastic Compliance Matrix: (Units=1/GPa)
#
#
# Indices 1 2 3 4 5 6 
#
# 1 0.023895 0.008866 -0.007429 0.000000 0.000000 0.000000
# 2 0.008866 0.023895 -0.007429 0.000000 0.000000 0.000000
# 3 -0.007429 -0.007429 0.009180 0.000000 0.000000 0.000000
# 4 0.000000 0.000000 0.000000 0.045641 0.000000 0.000000
# 5 0.000000 0.000000 0.000000 0.000000 0.045641 0.000000
# 6 0.000000 0.000000 0.000000 0.000000 0.000000 0.024379
#
#
# Mechanical properties :
#
#
# Convention : Reuss Voigt Hill
#
# Bulk Modulus (GPa) = 22.22860 47.18096 34.70478
# Shear Modulus (GPa) = 25.04916 31.49931 28.27423
#
# Velocity S-wave (km/s) = 3.40526 3.81860 3.61784
# Velocity P-wave (km/s) = 5.07456 6.42522 5.78941
#
# Compressibility (1/GPa) = 0.04498709
#
# Stress axis : x y z
#
# Youngs Moduli (GPa) = 41.85033 41.85033 108.93493
#
# Poissons Ratio (x) = -0.37106 0.80925
# Poissons Ratio (y) = -0.37106 0.80925
# Poissons Ratio (z) = 0.31090 0.31090
#
# Static dielectric constant tensor:
#      x y z
#    x 1.783060 0.000000 0.000000 
#    y 0.000000 1.783060 0.000000 
#    z 0.000000 0.000000 1.738080 
# 
# From -- ./inp_files/2850.got.cif
#   From: 2010.05.17/outbox.cif.g08.bks.cpg/sg114_2_cif.got.tgz:2850.got - 2010.05.20 11:04:54.
