data_PCOD9556921
_publ_section_title
;
Structure prediction by ZEFSAII (Michael W. Deem and Ramdas Pophale) SiO2 
 PCOD9556921
Probable space group: P -4 M 2
;
_chemical_formula_sum "Si O2"
_cell_formula_units_Z 44
_cell_length_a 8.222704
_cell_length_b 8.222704
_cell_length_c 32.431503
_cell_angle_alpha 90.000000
_cell_angle_beta 90.000000
_cell_angle_gamma 90.000000
_cell_volume 2192.786707
_symmetry_space_group_name_H-M "P -4 M 2"
_symmetry_group_IT_number 115
_symmetry_cell_setting 'tetragonal'
loop_
_space_group_symop_operation_xyz
x,y,z
y,-x,-z
-x,-y,z
-y,x,-z
y,x,-z
-y,-x,-z
-x,y,z
x,-y,z
loop_
_atom_site_type_symbol
_atom_site_label
_atom_site_fract_x
_atom_site_fract_y
_atom_site_fract_z
Si Si1 0.500000 0.192811 0.268194
Si Si2 0.197043 0.181461 0.130208
Si Si3 0.199395 0.500000 0.637811
Si Si4 0.804611 0.683451 0.043347
Si Si5 0.307951 0.307951 0.500000
Si Si6 0.818845 0.196547 0.412769
Si Si7 0.310556 0.185978 0.781639
O O1 0.500000 0.256826 0.315037
O O2 0.666228 0.240324 0.244849
O O3 0.500000 0.000000 0.270868
O O4 0.258329 0.234823 0.085330
O O5 0.231030 0.289471 0.170019
O O6 0.000000 0.178895 0.127043
O O7 0.254482 0.000000 0.139471
O O8 0.252319 0.334941 0.614541
O O9 0.000000 0.500000 0.637256
O O10 0.742982 0.500000 0.042133
O O11 0.000000 0.680218 0.046590
O O12 0.764855 0.764855 0.000000
O O13 0.281116 0.500000 0.507227
O O14 0.253467 0.212613 0.540594
O O15 0.000000 0.249412 0.399081
O O16 0.816943 0.000000 0.412156
O O17 0.500000 0.176401 0.772151
O O18 0.241698 0.000000 0.775974
#
# Coordination Sequence:
#
# PCOD9556921 Si02
#       7
#     4   8   4   8   4   8   8
#     4  11  23  39  63  93 123 161 207 259 315 369
#     4   9  17  32  57  85 111 142 185 239 293 350
#     4   9  20  39  59  85 123 159 201 261 311 360
#     4  10  20  34  52  76 108 146 187 231 283 345
#     4  11  22  35  54  84 122 163 204 253 308 362
#     4  10  20  36  60  87 116 158 207 252 308 370
#     4  10  21  39  62  89 122 159 199 249 312 376
#
# _framework density 20.065788999999999
#
# number of rings (size 3 to 8) (size 9 to 14) (size 15 to 20)
#    0.000    2.091    0.909    2.455    0.000    6.909 
#    1.636    3.636    0.000    0.000    0.000    0.000 
#    0.000    0.000    0.000    0.000    0.000    0.000 
#
# Total GULP energy -245437.540117 kJ/mol
# GULP energy per Si atom -5578.125912 kJ/mol
# Density = 2.002012 g / cm^3
# Si number density = 20.065789 Si / 1000 Ang^3
#
#
#
# Elastic Constant Matrix: (Units=GPa)
#
#
# Indices 1 2 3 4 5 6 
#
# 1 70.8736 35.7025 43.6047 0.0000 0.0000 0.0000
# 2 35.7025 70.8736 43.6047 0.0000 0.0000 0.0000
# 3 43.6047 43.6047 138.4363 0.0000 0.0000 0.0000
# 4 0.0000 0.0000 0.0000 34.4181 0.0000 0.0000
# 5 0.0000 0.0000 0.0000 0.0000 34.4181 0.0000
# 6 0.0000 0.0000 0.0000 0.0000 0.0000 18.8838
#
#
#
# Elastic Compliance Matrix: (Units=1/GPa)
#
#
# Indices 1 2 3 4 5 6 
#
# 1 0.020537 -0.007896 -0.003982 0.000000 0.000000 0.000000
# 2 -0.007896 0.020537 -0.003982 0.000000 0.000000 0.000000
# 3 -0.003982 -0.003982 0.009732 0.000000 0.000000 0.000000
# 4 0.000000 0.000000 0.000000 0.029054 0.000000 0.000000
# 5 0.000000 0.000000 0.000000 0.000000 0.029054 0.000000
# 6 0.000000 0.000000 0.000000 0.000000 0.000000 0.052955
#
#
# Mechanical properties :
#
#
# Convention : Reuss Voigt Hill
#
# Bulk Modulus (GPa) = 52.39085 58.44524 55.41804
# Shear Modulus (GPa) = 25.00621 28.02878 26.51750
#
# Velocity S-wave (km/s) = 3.53400 3.74149 3.63923
# Velocity P-wave (km/s) = 6.54358 6.91774 6.73326
#
# Compressibility (1/GPa) = 0.01908730
#
# Stress axis : x y z
#
# Youngs Moduli (GPa) = 48.69310 48.69310 102.75527
#
# Poissons Ratio (x) = 0.38446 0.40914
# Poissons Ratio (y) = 0.38446 0.40914
# Poissons Ratio (z) = 0.19388 0.19388
#
# Static dielectric constant tensor:
#      x y z
#    x 1.720580 0.000000 0.000000 
#    y 0.000000 1.720580 0.000000 
#    z 0.000000 0.000000 1.708760 
# 
# From -- ./inp_files/5884.got.cif
#   From: 2010.05.17/outbox.cif.g08.bks.cpg/sg115_3_cif.got.tgz:5884.got - 2010.05.20 11:07:42.
