data_PCOD9556295
_publ_section_title
;
Structure prediction by ZEFSAII (Michael W. Deem and Ramdas Pophale) SiO2 
 PCOD9556295
Probable space group: P -4 21 C
;
_chemical_formula_sum "Si O2"
_cell_formula_units_Z 32
_cell_length_a 11.125233
_cell_length_b 11.125233
_cell_length_c 9.559696
_cell_angle_alpha 90.000000
_cell_angle_beta 90.000000
_cell_angle_gamma 90.000000
_cell_volume 1183.211311
_symmetry_space_group_name_H-M "P -4 21 C"
_symmetry_group_IT_number 114
_symmetry_cell_setting 'tetragonal'
loop_
_space_group_symop_operation_xyz
x,y,z
y,-x,-z
-x,-y,z
-y,x,-z
1/2+x,1/2-y,1/2-z
1/2-x,1/2+y,1/2-z
1/2-y,1/2-x,1/2+z
1/2+y,1/2+x,1/2+z
loop_
_atom_site_type_symbol
_atom_site_label
_atom_site_fract_x
_atom_site_fract_y
_atom_site_fract_z
Si Si1 0.500000 0.500000 0.000000
Si Si2 0.740618 0.923732 0.416141
Si Si3 0.500000 0.000000 0.459951
Si Si4 0.218015 0.709962 0.828167
Si Si5 0.474517 0.739958 0.321657
Si Si6 0.500000 0.500000 0.500000
O O1 0.529096 0.624181 0.920284
O O2 0.641063 0.000025 0.503979
O O3 0.705142 0.910911 0.252132
O O4 0.730278 0.799099 0.505131
O O5 0.502951 0.867060 0.393721
O O6 0.283691 0.589047 0.777299
O O7 0.261458 0.837922 0.772032
O O8 0.467960 0.620228 0.414390
#
# Coordination Sequence:
#
# PCOD9556295 Si02
#       6
#     2   8   4   8   8   2
#     4  12  24  46  80 114 144 186 248 310 360 422
#     4  11  25  45  73 105 143 186 239 297 359 428
#     4  10  24  46  70 102 140 188 236 290 356 430
#     4  11  25  47  73 105 142 189 239 296 359 429
#     4  11  25  45  73 103 143 188 240 295 360 430
#     4  12  28  50  72 110 152 194 240 302 368 434
#
# _framework density 27.045043
#
# number of rings (size 3 to 8) (size 9 to 14) (size 15 to 20)
#    0.000    1.000    0.000    6.000    0.000   14.000 
#    0.000   12.500    0.000    0.000    0.000    0.000 
#    0.000    0.000    0.000    0.000    0.000    0.000 
#
# Total GULP energy -178146.838591 kJ/mol
# GULP energy per Si atom -5567.088706 kJ/mol
# Density = 2.698349 g / cm^3
# Si number density = 27.045043 Si / 1000 Ang^3
#
#
#
# Elastic Constant Matrix: (Units=GPa)
#
#
# Indices 1 2 3 4 5 6 
#
# 1 207.4577 17.8292 45.9619 0.0000 0.0000 0.0000
# 2 17.8292 207.4577 45.9619 0.0000 0.0000 0.0000
# 3 45.9619 45.9619 99.7817 0.0000 0.0000 0.0000
# 4 0.0000 0.0000 0.0000 171.7706 0.0000 0.0000
# 5 0.0000 0.0000 0.0000 0.0000 171.7706 0.0000
# 6 0.0000 0.0000 0.0000 0.0000 0.0000 38.2964
#
#
#
# Elastic Compliance Matrix: (Units=1/GPa)
#
#
# Indices 1 2 3 4 5 6 
#
# 1 0.005370 0.000096 -0.002518 0.000000 0.000000 0.000000
# 2 0.000096 0.005370 -0.002518 0.000000 0.000000 0.000000
# 3 -0.002518 -0.002518 0.012341 0.000000 0.000000 0.000000
# 4 0.000000 0.000000 0.000000 0.005822 0.000000 0.000000
# 5 0.000000 0.000000 0.000000 0.000000 0.005822 0.000000
# 6 0.000000 0.000000 0.000000 0.000000 0.000000 0.026112
#
#
# Mechanical properties :
#
#
# Convention : Reuss Voigt Hill
#
# Bulk Modulus (GPa) = 75.74402 81.57811 78.66107
# Shear Modulus (GPa) = 66.56367 103.36378 84.96372
#
# Velocity S-wave (km/s) = 4.96645 6.18887 5.61105
# Velocity P-wave (km/s) = 7.80736 9.01658 8.43367
#
# Compressibility (1/GPa) = 0.01320236
#
# Stress axis : x y z
#
# Youngs Moduli (GPa) = 186.22657 186.22657 81.02790
#
# Poissons Ratio (x) = -0.01794 0.20401
# Poissons Ratio (y) = -0.01794 0.20401
# Poissons Ratio (z) = 0.46889 0.46889
#
# Static dielectric constant tensor:
#      x y z
#    x 2.146580 0.000000 0.000000 
#    y 0.000000 2.146580 0.000000 
#    z 0.000000 0.000000 2.270740 
# 
# From -- ./inp_files/1343.got.cif
#   From: 2010.05.17/outbox.cif.g08.bks.cpg/sg114_1_cif.got.tgz:1343.got - 2010.05.20 11:04:54.
