data_PCOD9556544
_publ_section_title
;
Structure prediction by ZEFSAII (Michael W. Deem and Ramdas Pophale) SiO2 
 PCOD9556544
Probable space group: P -4 M 2
;
_chemical_formula_sum "Si O2"
_cell_formula_units_Z 60
_cell_length_a 14.411207
_cell_length_b 14.411207
_cell_length_c 15.097675
_cell_angle_alpha 90.000000
_cell_angle_beta 90.000000
_cell_angle_gamma 90.000000
_cell_volume 3135.528734
_symmetry_space_group_name_H-M "P -4 M 2"
_symmetry_group_IT_number 115
_symmetry_cell_setting 'tetragonal'
loop_
_space_group_symop_operation_xyz
x,y,z
y,-x,-z
-x,-y,z
-y,x,-z
y,x,-z
-y,-x,-z
-x,y,z
x,-y,z
loop_
_atom_site_type_symbol
_atom_site_label
_atom_site_fract_x
_atom_site_fract_y
_atom_site_fract_z
Si Si1 0.273081 0.231551 0.898162
Si Si2 0.364525 0.393303 0.616415
Si Si3 0.395085 0.392098 0.824137
Si Si4 0.889694 0.264888 0.377234
Si Si5 0.599349 0.210038 0.501836
Si Si6 0.888323 0.392861 0.214123
Si Si7 0.106352 0.105523 0.891963
Si Si8 0.109569 0.890432 0.500000
O O1 0.314779 0.325794 0.859047
O O2 0.353156 0.156528 0.875293
O O3 0.179384 0.182600 0.861444
O O4 0.251965 0.251965 0.000000
O O5 0.391412 0.500000 0.589936
O O6 0.391087 0.385416 0.717824
O O7 0.254431 0.387388 0.594864
O O8 0.401007 0.304045 0.562746
O O9 0.500000 0.365135 0.852974
O O10 0.381418 0.500000 0.848415
O O11 0.857415 0.324225 0.461755
O O12 0.854470 0.323006 0.292262
O O13 0.860300 0.163100 0.410004
O O14 0.000000 0.263770 0.366279
O O15 0.500000 0.163986 0.509323
O O16 0.861198 0.500000 0.231824
O O17 0.000000 0.390106 0.209917
O O18 0.000000 0.121359 0.864016
O O19 0.133615 0.000000 0.864777
O O20 0.106315 0.106315 0.000000
O O21 0.000000 0.874476 0.510554
#
# Coordination Sequence:
#
# PCOD9556544 Si02
#       8
#     8   8   8   8   8   8   8   4
#     4  11  22  35  55  79 105 137 179 228 281 339
#     4   9  18  31  48  72 101 134 170 210 259 310
#     4  10  21  36  52  71 102 145 189 233 280 330
#     4  10  20  34  53  79 112 147 182 220 266 323
#     4  10  18  28  48  77 106 134 167 210 260 319
#     4  10  21  37  58  85 115 144 178 227 288 348
#     4   8  15  31  56  83 107 128 153 194 255 326
#     4   9  18  34  56  80 110 151 194 230 262 305
#
# _framework density 19.135529999999999
#
# number of rings (size 3 to 8) (size 9 to 14) (size 15 to 20)
#    0.000    2.333    0.000    3.600    0.000    3.733 
#    0.000    4.000    0.000    3.600    0.000    1.867 
#    0.000    0.000    0.000    0.000    0.000    0.000 
#
# Total GULP energy -334030.999873 kJ/mol
# GULP energy per Si atom -5567.183331 kJ/mol
# Density = 1.909198 g / cm^3
# Si number density = 19.135530 Si / 1000 Ang^3
#
#
#
# Elastic Constant Matrix: (Units=GPa)
#
#
# Indices 1 2 3 4 5 6 
#
# 1 68.4548 46.5119 30.6480 0.0000 0.0000 0.0000
# 2 46.5119 68.4557 30.6479 0.0000 0.0000 0.0000
# 3 30.6480 30.6479 49.9773 0.0000 0.0000 0.0000
# 4 0.0000 0.0000 0.0000 23.1219 0.0000 0.0000
# 5 0.0000 0.0000 0.0000 0.0000 23.1220 0.0000
# 6 0.0000 0.0000 0.0000 0.0000 0.0000 26.3578
#
#
#
# Elastic Compliance Matrix: (Units=1/GPa)
#
#
# Indices 1 2 3 4 5 6 
#
# 1 0.029248 -0.016324 -0.007925 0.000000 0.000000 0.000000
# 2 -0.016324 0.029247 -0.007925 0.000000 0.000000 0.000000
# 3 -0.007925 -0.007925 0.029729 0.000000 0.000000 0.000000
# 4 0.000000 0.000000 0.000000 0.043249 0.000000 0.000000
# 5 0.000000 0.000000 0.000000 0.000000 0.043249 0.000000
# 6 0.000000 0.000000 0.000000 0.000000 0.000000 0.037939
#
#
# Mechanical properties :
#
#
# Convention : Reuss Voigt Hill
#
# Bulk Modulus (GPa) = 41.88409 44.72261 43.30335
# Shear Modulus (GPa) = 17.54573 19.79233 18.66903
#
# Velocity S-wave (km/s) = 3.03135 3.21958 3.12688
# Velocity P-wave (km/s) = 5.84703 6.10272 5.97624
#
# Compressibility (1/GPa) = 0.02387542
#
# Stress axis : x y z
#
# Youngs Moduli (GPa) = 34.19033 34.19103 33.63705
#
# Poissons Ratio (x) = 0.55814 0.26659
# Poissons Ratio (y) = 0.55813 0.26657
# Poissons Ratio (z) = 0.27097 0.27096
#
# Static dielectric constant tensor:
#      x y z
#    x 1.703630 0.000000 0.000000 
#    y 0.000000 1.703630 0.000000 
#    z 0.000000 0.000000 1.712250 
# 
# From -- ./inp_files/3929.got.cif
#   From: 2010.05.17/outbox.cif.g08.bks.cpg/sg115_2_cif.got.tgz:3929.got - 2010.05.20 11:07:42.
