data_PCOD9556285
_publ_section_title
;
Structure prediction by ZEFSAII (Michael W. Deem and Ramdas Pophale) SiO2 
 PCOD9556285
Probable space group: P -4 21 C
;
_chemical_formula_sum "Si O2"
_cell_formula_units_Z 38
_cell_length_a 9.056848
_cell_length_b 9.056848
_cell_length_c 21.916946
_cell_angle_alpha 90.000000
_cell_angle_beta 90.000000
_cell_angle_gamma 90.000000
_cell_volume 1797.770277
_symmetry_space_group_name_H-M "P -4 21 C"
_symmetry_group_IT_number 114
_symmetry_cell_setting 'tetragonal'
loop_
_space_group_symop_operation_xyz
x,y,z
y,-x,-z
-x,-y,z
-y,x,-z
1/2+x,1/2-y,1/2-z
1/2-x,1/2+y,1/2-z
1/2-y,1/2-x,1/2+z
1/2+y,1/2+x,1/2+z
loop_
_atom_site_type_symbol
_atom_site_label
_atom_site_fract_x
_atom_site_fract_y
_atom_site_fract_z
Si Si1 0.843782 0.919376 0.313535
Si Si2 0.500000 0.000000 0.520985
Si Si3 0.110431 0.765960 0.902901
Si Si4 0.437398 0.845238 0.901578
Si Si5 0.000000 0.000000 0.000000
Si Si6 0.837601 0.570014 0.292975
O O1 0.847688 0.746933 0.296820
O O2 0.778244 0.946673 0.381177
O O3 0.734118 0.006857 0.268418
O O4 0.000000 0.000000 0.308511
O O5 0.589843 0.889536 0.563328
O O6 0.383234 0.927596 0.473635
O O7 0.275513 0.797341 0.880093
O O8 0.073172 0.883674 0.954712
O O9 0.993987 0.763275 0.847842
O O10 0.500000 0.000000 0.875464
O O11 0.000000 0.500000 0.299710
#
# Coordination Sequence:
#
# PCOD9556285 Si02
#       6
#     8   4   8   8   2   8
#     4  12  27  47  75 107 138 187 240 302 372 432
#     4  10  24  44  70 102 146 190 244 286 356 432
#     4  12  24  44  72 106 145 193 239 297 356 436
#     4  10  24  46  70 100 147 184 241 293 358 428
#     4  12  24  40  72 100 144 188 244 276 370 420
#     4  12  27  47  74 102 147 183 242 298 366 441
#
# _framework density 21.137293
#
# number of rings (size 3 to 8) (size 9 to 14) (size 15 to 20)
#    0.632    0.000    3.158    4.421    7.368    0.000 
#    0.000    0.000    0.000    0.000    0.000    0.000 
#    0.000    0.000    0.000    0.000    0.000    0.000 
#
# Total GULP energy -212288.257364 kJ/mol
# GULP energy per Si atom -5586.533089 kJ/mol
# Density = 2.108918 g / cm^3
# Si number density = 21.137293 Si / 1000 Ang^3
#
#
#
# Elastic Constant Matrix: (Units=GPa)
#
#
# Indices 1 2 3 4 5 6 
#
# 1 141.8676 62.1505 29.0059 0.0000 0.0000 0.0000
# 2 62.1505 141.8676 29.0059 0.0000 0.0000 0.0000
# 3 29.0059 29.0059 76.6366 0.0000 0.0000 0.0000
# 4 0.0000 0.0000 0.0000 -8.5931 0.0000 0.0000
# 5 0.0000 0.0000 0.0000 0.0000 -8.5931 0.0000
# 6 0.0000 0.0000 0.0000 0.0000 0.0000 39.7940
#
#
#
# Elastic Compliance Matrix: (Units=1/GPa)
#
#
# Indices 1 2 3 4 5 6 
#
# 1 0.009019 -0.003526 -0.002079 0.000000 0.000000 0.000000
# 2 -0.003526 0.009019 -0.002079 0.000000 0.000000 0.000000
# 3 -0.002079 -0.002079 0.014622 0.000000 0.000000 0.000000
# 4 0.000000 0.000000 0.000000 -0.116372 0.000000 0.000000
# 5 0.000000 0.000000 0.000000 0.000000 -0.116372 0.000000
# 6 0.000000 0.000000 0.000000 0.000000 0.000000 0.025129
#
#
# Mechanical properties :
#
#
# Convention : Reuss Voigt Hill
#
# Bulk Modulus (GPa) = 57.83025 66.74406 62.28715
# Shear Modulus (GPa) = -32.50450 20.53551 -5.98449
#
# Velocity S-wave (km/s) = -3.92571 3.12032 -1.68446
# Velocity P-wave (km/s) = 2.62116 6.68033 5.07432
#
# Compressibility (1/GPa) = 0.01729199
#
# Stress axis : x y z
#
# Youngs Moduli (GPa) = 110.88306 110.88306 68.38884
#
# Poissons Ratio (x) = 0.39096 0.14217
# Poissons Ratio (y) = 0.39096 0.14217
# Poissons Ratio (z) = 0.23051 0.23051
#
# Static dielectric constant tensor:
#      x y z
#    x 1.681970 0.000000 0.000000 
#    y 0.000000 1.681970 0.000000 
#    z 0.000000 0.000000 1.778310 
# 
# From -- ./inp_files/3423.got.cif
#   From: 2010.05.17/outbox.cif.g08.bks.cpg/sg114_2_cif.got.tgz:3423.got - 2010.05.20 11:04:54.
