data_PCOD9556416
_publ_section_title
;
Structure prediction by ZEFSAII (Michael W. Deem and Ramdas Pophale) SiO2 
 PCOD9556416
Probable space group: P -4 21 C
;
_chemical_formula_sum "Si O2"
_cell_formula_units_Z 34
_cell_length_a 8.478448
_cell_length_b 8.478448
_cell_length_c 20.716402
_cell_angle_alpha 90.000000
_cell_angle_beta 90.000000
_cell_angle_gamma 90.000000
_cell_volume 1489.179509
_symmetry_space_group_name_H-M "P -4 21 C"
_symmetry_group_IT_number 114
_symmetry_cell_setting 'tetragonal'
loop_
_space_group_symop_operation_xyz
x,y,z
y,-x,-z
-x,-y,z
-y,x,-z
1/2+x,1/2-y,1/2-z
1/2-x,1/2+y,1/2-z
1/2-y,1/2-x,1/2+z
1/2+y,1/2+x,1/2+z
loop_
_atom_site_type_symbol
_atom_site_label
_atom_site_fract_x
_atom_site_fract_y
_atom_site_fract_z
Si Si1 0.500000 0.500000 0.500000
Si Si2 0.912789 0.257256 0.811899
Si Si3 0.742113 0.779469 0.058774
Si Si4 0.755694 0.912465 0.804128
Si Si5 0.832630 0.440174 0.068530
O O1 0.407595 0.631519 0.458455
O O2 0.885781 0.325605 0.883662
O O3 0.850499 0.374833 0.757741
O O4 0.089485 0.197190 0.801357
O O5 0.810225 0.094218 0.807872
O O6 0.747094 0.602351 0.085672
O O7 0.656366 0.761464 0.990328
O O8 0.660913 0.864486 0.868163
O O9 0.000000 0.500000 0.041859
#
# Coordination Sequence:
#
# PCOD9556416 Si02
#       5
#     2   8   8   8   8
#     4  12  20  40  72 100 132 184 244 282 352 424
#     4  11  24  44  70 104 140 184 240 284 347 419
#     4  12  24  43  69 101 136 182 235 295 349 426
#     4  11  25  44  71 102 142 187 232 290 347 420
#     4  12  25  43  71 100 136 182 234 292 358 416
#
# _framework density 22.831365000000002
#
# number of rings (size 3 to 8) (size 9 to 14) (size 15 to 20)
#    0.000    0.471    4.706    4.235    0.000    2.353 
#    0.000    0.000    0.000    0.000    0.000    0.000 
#    0.000    0.000    0.000    0.000    0.000    0.000 
#
# Total GULP energy -190264.761566 kJ/mol
# GULP energy per Si atom -5596.022399 kJ/mol
# Density = 2.277940 g / cm^3
# Si number density = 22.831365 Si / 1000 Ang^3
#
#
#
# Elastic Constant Matrix: (Units=GPa)
#
#
# Indices 1 2 3 4 5 6 
#
# 1 77.3178 25.9234 30.7121 0.0000 0.0000 0.0000
# 2 25.9234 77.3178 30.7121 0.0000 0.0000 0.0000
# 3 30.7121 30.7121 125.2358 0.0000 0.0000 0.0000
# 4 0.0000 0.0000 0.0000 6.5520 0.0000 0.0000
# 5 0.0000 0.0000 0.0000 0.0000 6.5520 0.0000
# 6 0.0000 0.0000 0.0000 0.0000 0.0000 22.5925
#
#
#
# Elastic Compliance Matrix: (Units=1/GPa)
#
#
# Indices 1 2 3 4 5 6 
#
# 1 0.015399 -0.004058 -0.002781 0.000000 0.000000 0.000000
# 2 -0.004058 0.015399 -0.002781 0.000000 0.000000 0.000000
# 3 -0.002781 -0.002781 0.009349 0.000000 0.000000 0.000000
# 4 0.000000 0.000000 0.000000 0.152626 0.000000 0.000000
# 5 0.000000 0.000000 0.000000 0.000000 0.152626 0.000000
# 6 0.000000 0.000000 0.000000 0.000000 0.000000 0.044262
#
#
# Mechanical properties :
#
#
# Convention : Reuss Voigt Hill
#
# Bulk Modulus (GPa) = 47.83338 50.50739 49.17039
# Shear Modulus (GPa) = 12.02294 19.97421 15.99857
#
# Velocity S-wave (km/s) = 2.29726 2.96101 2.65000
# Velocity P-wave (km/s) = 5.29460 5.81894 5.56295
#
# Compressibility (1/GPa) = 0.02090590
#
# Stress axis : x y z
#
# Youngs Moduli (GPa) = 64.93910 64.93910 106.96342
#
# Poissons Ratio (x) = 0.26354 0.29748
# Poissons Ratio (y) = 0.26354 0.29748
# Poissons Ratio (z) = 0.18060 0.18060
#
# Static dielectric constant tensor:
#      x y z
#    x 1.882140 0.000000 0.000000 
#    y 0.000000 1.882140 0.000000 
#    z 0.000000 0.000000 1.805030 
# 
# From -- ./inp_files/2969.got.cif
#   From: 2010.05.17/outbox.cif.g08.bks.cpg/sg114_2_cif.got.tgz:2969.got - 2010.05.20 11:04:54.
