data_PCOD9556372
_publ_section_title
;
Structure prediction by ZEFSAII (Michael W. Deem and Ramdas Pophale) SiO2 
 PCOD9556372
Probable space group: P -4 21 C
;
_chemical_formula_sum "Si O2"
_cell_formula_units_Z 40
_cell_length_a 8.705771
_cell_length_b 8.705771
_cell_length_c 24.879286
_cell_angle_alpha 90.000000
_cell_angle_beta 90.000000
_cell_angle_gamma 90.000000
_cell_volume 1885.612249
_symmetry_space_group_name_H-M "P -4 21 C"
_symmetry_group_IT_number 114
_symmetry_cell_setting 'tetragonal'
loop_
_space_group_symop_operation_xyz
x,y,z
y,-x,-z
-x,-y,z
-y,x,-z
1/2+x,1/2-y,1/2-z
1/2-x,1/2+y,1/2-z
1/2-y,1/2-x,1/2+z
1/2+y,1/2+x,1/2+z
loop_
_atom_site_type_symbol
_atom_site_label
_atom_site_fract_x
_atom_site_fract_y
_atom_site_fract_z
Si Si1 0.923653 0.834741 0.294883
Si Si2 0.659390 0.268228 0.623343
Si Si3 0.724753 0.841324 0.187038
Si Si4 0.593997 0.259942 0.504544
Si Si5 0.075050 0.340427 0.109969
O O1 0.812064 0.794051 0.343747
O O2 0.831475 0.835162 0.239289
O O3 0.054121 0.703544 0.295229
O O4 0.000000 0.000000 0.300946
O O5 0.504105 0.243425 0.657193
O O6 0.640353 0.202126 0.563320
O O7 0.705521 0.446901 0.616553
O O8 0.783090 0.711870 0.145606
O O9 0.415747 0.310838 0.507338
O O10 0.615249 0.151976 0.453208
O O11 0.000000 0.500000 0.127278
#
# Coordination Sequence:
#
# PCOD9556372 Si02
#       5
#     8   8   8   8   8
#     4  12  26  42  65  96 132 171 219 277 337 397
#     4  11  23  43  68  95 128 174 224 269 326 406
#     4  12  24  43  66  93 130 173 222 268 332 403
#     4   9  18  38  66  96 125 166 220 264 317 391
#     4  11  22  38  66  96 131 166 213 277 328 386
#
# _framework density 21.213267999999999
#
# number of rings (size 3 to 8) (size 9 to 14) (size 15 to 20)
#    0.000    1.000    2.000    6.000    0.000    3.200 
#    0.000    0.000    0.000    0.000    0.000    0.000 
#    0.000    0.000    0.000    0.000    0.000    0.000 
#
# Total GULP energy -223840.133202 kJ/mol
# GULP energy per Si atom -5596.003330 kJ/mol
# Density = 2.116499 g / cm^3
# Si number density = 21.213268 Si / 1000 Ang^3
#
#
#
# Elastic Constant Matrix: (Units=GPa)
#
#
# Indices 1 2 3 4 5 6 
#
# 1 48.1269 0.2147 36.3042 0.0000 0.0000 0.0000
# 2 0.2147 48.1269 36.3042 0.0000 0.0000 0.0000
# 3 36.3042 36.3042 163.8434 0.0000 0.0000 0.0000
# 4 0.0000 0.0000 0.0000 19.1094 0.0000 0.0000
# 5 0.0000 0.0000 0.0000 0.0000 19.1094 0.0000
# 6 0.0000 0.0000 0.0000 0.0000 0.0000 31.2055
#
#
#
# Elastic Compliance Matrix: (Units=1/GPa)
#
#
# Indices 1 2 3 4 5 6 
#
# 1 0.025938 0.005067 -0.006870 0.000000 0.000000 0.000000
# 2 0.005067 0.025938 -0.006870 0.000000 0.000000 0.000000
# 3 -0.006870 -0.006870 0.009148 0.000000 0.000000 0.000000
# 4 0.000000 0.000000 0.000000 0.052330 0.000000 0.000000
# 5 0.000000 0.000000 0.000000 0.000000 0.052330 0.000000
# 6 0.000000 0.000000 0.000000 0.000000 0.000000 0.032046
#
#
# Mechanical properties :
#
#
# Convention : Reuss Voigt Hill
#
# Bulk Modulus (GPa) = 22.89511 45.08257 33.98884
# Shear Modulus (GPa) = 21.77356 26.36978 24.07167
#
# Velocity S-wave (km/s) = 3.20724 3.52956 3.37225
# Velocity P-wave (km/s) = 4.95292 6.15699 5.58749
#
# Compressibility (1/GPa) = 0.04367744
#
# Stress axis : x y z
#
# Youngs Moduli (GPa) = 38.55326 38.55326 109.31505
#
# Poissons Ratio (x) = -0.19533 0.75099
# Poissons Ratio (y) = -0.19533 0.75099
# Poissons Ratio (z) = 0.26486 0.26486
#
# Static dielectric constant tensor:
#      x y z
#    x 1.763060 0.000000 0.000000 
#    y 0.000000 1.763060 0.000000 
#    z 0.000000 0.000000 1.754890 
# 
# From -- ./inp_files/3338.got.cif
#   From: 2010.05.17/outbox.cif.g08.bks.cpg/sg114_2_cif.got.tgz:3338.got - 2010.05.20 11:04:54.
