data_PCOD9556479
_publ_section_title
;
Structure prediction by ZEFSAII (Michael W. Deem and Ramdas Pophale) SiO2 
 PCOD9556479
Probable space group: P -4 21 C
;
_chemical_formula_sum "Si O2"
_cell_formula_units_Z 36
_cell_length_a 8.513461
_cell_length_b 8.513461
_cell_length_c 23.095958
_cell_angle_alpha 90.000000
_cell_angle_beta 90.000000
_cell_angle_gamma 90.000000
_cell_volume 1673.972360
_symmetry_space_group_name_H-M "P -4 21 C"
_symmetry_group_IT_number 114
_symmetry_cell_setting 'tetragonal'
loop_
_space_group_symop_operation_xyz
x,y,z
y,-x,-z
-x,-y,z
-y,x,-z
1/2+x,1/2-y,1/2-z
1/2-x,1/2+y,1/2-z
1/2-y,1/2-x,1/2+z
1/2+y,1/2+x,1/2+z
loop_
_atom_site_type_symbol
_atom_site_label
_atom_site_fract_x
_atom_site_fract_y
_atom_site_fract_z
Si Si1 0.156417 0.597710 0.684730
Si Si2 0.332604 0.434066 0.773452
Si Si3 0.500000 0.000000 0.159806
Si Si4 0.931208 0.250772 0.060407
Si Si5 0.081518 0.755003 0.935762
O O1 0.303828 0.500724 0.709173
O O2 0.147321 0.749130 0.724667
O O3 0.171040 0.638925 0.617394
O O4 0.000000 0.500000 0.691262
O O5 0.500000 0.500000 0.796612
O O6 0.163993 0.463715 0.805876
O O7 0.642330 0.948492 0.117783
O O8 0.116587 0.219534 0.071798
O O9 0.851619 0.079892 0.055881
O O10 0.898540 0.329015 0.998313
#
# Coordination Sequence:
#
# PCOD9556479 Si02
#       5
#     8   8   4   8   8
#     4  12  26  45  70  99 139 181 231 284 351 421
#     4  12  29  46  69 102 139 182 234 287 357 417
#     4  12  24  46  68 100 142 184 222 296 350 416
#     4   9  20  40  67  98 130 175 231 273 336 418
#     4   9  20  39  68  98 129 177 226 279 336 407
#
# _framework density 21.505732999999999
#
# number of rings (size 3 to 8) (size 9 to 14) (size 15 to 20)
#    0.000    1.333    3.333    2.667   10.889    0.000 
#    0.000    0.000    0.000    0.000    0.000    0.000 
#    0.000    0.000    0.000    0.000    0.000    0.000 
#
# Total GULP energy -200820.468737 kJ/mol
# GULP energy per Si atom -5578.346354 kJ/mol
# Density = 2.145678 g / cm^3
# Si number density = 21.505733 Si / 1000 Ang^3
#
#
#
# Elastic Constant Matrix: (Units=GPa)
#
#
# Indices 1 2 3 4 5 6 
#
# 1 54.2868 -14.9544 -5.2102 0.0000 0.0000 0.0000
# 2 -14.9544 54.2868 -5.2102 0.0000 0.0000 0.0000
# 3 -5.2102 -5.2102 67.5406 0.0000 0.0000 0.0000
# 4 0.0000 0.0000 0.0000 -370.6816 0.0000 0.0000
# 5 0.0000 0.0000 0.0000 0.0000 -370.6816 0.0000
# 6 0.0000 0.0000 0.0000 0.0000 0.0000 26.2351
#
#
#
# Elastic Compliance Matrix: (Units=1/GPa)
#
#
# Indices 1 2 3 4 5 6 
#
# 1 0.020199 0.005756 0.002002 0.000000 0.000000 0.000000
# 2 0.005756 0.020199 0.002002 0.000000 0.000000 0.000000
# 3 0.002002 0.002002 0.015115 0.000000 0.000000 0.000000
# 4 0.000000 0.000000 0.000000 -0.002698 0.000000 0.000000
# 5 0.000000 0.000000 0.000000 0.000000 -0.002698 0.000000
# 6 0.000000 0.000000 0.000000 0.000000 0.000000 0.038117
#
#
# Mechanical properties :
#
#
# Convention : Reuss Voigt Hill
#
# Bulk Modulus (GPa) = 13.32744 13.92940 13.62842
# Shear Modulus (GPa) = 53.34868 -129.59300 -38.12216
#
# Velocity S-wave (km/s) = 4.98604 -7.77114 -4.21485
# Velocity P-wave (km/s) = 6.27360 8.60405 4.16363
#
# Compressibility (1/GPa) = 0.07503316
#
# Stress axis : x y z
#
# Youngs Moduli (GPa) = 49.50859 49.50859 66.16027
#
# Poissons Ratio (x) = -0.28498 -0.13247
# Poissons Ratio (y) = -0.28498 -0.13247
# Poissons Ratio (z) = -0.09913 -0.09913
#
# Static dielectric constant tensor:
#      x y z
#    x 2.083930 0.000000 0.000000 
#    y 0.000000 2.083930 0.000000 
#    z 0.000000 0.000000 1.859200 
# 
# From -- ./inp_files/2977.got.cif
#   From: 2010.05.17/outbox.cif.g08.bks.cpg/sg114_2_cif.got.tgz:2977.got - 2010.05.20 11:04:54.
