data_PCOD9556288
_publ_section_title
;
Structure prediction by ZEFSAII (Michael W. Deem and Ramdas Pophale) SiO2 
 PCOD9556288
Probable space group: P -4 21 C
;
_chemical_formula_sum "Si O2"
_cell_formula_units_Z 26
_cell_length_a 13.515951
_cell_length_b 13.515951
_cell_length_c 5.276688
_cell_angle_alpha 90.000000
_cell_angle_beta 90.000000
_cell_angle_gamma 90.000000
_cell_volume 963.950279
_symmetry_space_group_name_H-M "P -4 21 C"
_symmetry_group_IT_number 114
_symmetry_cell_setting 'tetragonal'
loop_
_space_group_symop_operation_xyz
x,y,z
y,-x,-z
-x,-y,z
-y,x,-z
1/2+x,1/2-y,1/2-z
1/2-x,1/2+y,1/2-z
1/2-y,1/2-x,1/2+z
1/2+y,1/2+x,1/2+z
loop_
_atom_site_type_symbol
_atom_site_label
_atom_site_fract_x
_atom_site_fract_y
_atom_site_fract_z
Si Si1 0.000000 0.000000 0.500000
Si Si2 0.720350 0.311913 0.368733
Si Si3 0.390490 0.951366 0.519692
Si Si4 0.990073 0.204700 0.204557
O O1 0.030669 0.902278 0.336103
O O2 0.777774 0.254441 0.592053
O O3 0.626152 0.095826 0.247722
O O4 0.603224 0.300044 0.373164
O O5 0.730674 0.424622 0.461670
O O6 0.500000 0.000000 0.493509
O O7 0.299695 0.018819 0.607942
#
# Coordination Sequence:
#
# PCOD9556288 Si02
#       4
#     2   8   8   8
#     4  12  28  54  88 126 172 250 268 374 424 522
#     4  12  29  49  82 121 164 228 276 361 425 509
#     4  10  24  44  78 114 153 207 263 346 413 488
#     4  12  27  52  81 117 173 209 299 330 436 510
#
# _framework density 26.972346000000002
#
# number of rings (size 3 to 8) (size 9 to 14) (size 15 to 20)
#    0.000    0.615    0.000    5.538    8.615    7.385 
#    0.000    0.000    0.000    0.000    0.000    0.000 
#    0.000    0.000    0.000    0.000    0.000    0.000 
#
# Total GULP energy -145673.083464 kJ/mol
# GULP energy per Si atom -5602.810902 kJ/mol
# Density = 2.691096 g / cm^3
# Si number density = 26.972346 Si / 1000 Ang^3
#
#
#
# Elastic Constant Matrix: (Units=GPa)
#
#
# Indices 1 2 3 4 5 6 
#
# 1 148.2562 11.2756 22.7315 0.0000 0.0000 0.0000
# 2 11.2756 148.2562 22.7315 0.0000 0.0000 0.0000
# 3 22.7315 22.7315 134.8009 0.0000 0.0000 0.0000
# 4 0.0000 0.0000 0.0000 67.7202 0.0000 0.0000
# 5 0.0000 0.0000 0.0000 0.0000 67.7202 0.0000
# 6 0.0000 0.0000 0.0000 0.0000 0.0000 38.1646
#
#
#
# Elastic Compliance Matrix: (Units=1/GPa)
#
#
# Indices 1 2 3 4 5 6 
#
# 1 0.006943 -0.000358 -0.001110 0.000000 0.000000 0.000000
# 2 -0.000358 0.006943 -0.001110 0.000000 0.000000 0.000000
# 3 -0.001110 -0.001110 0.007793 0.000000 0.000000 0.000000
# 4 0.000000 0.000000 0.000000 0.014767 0.000000 0.000000
# 5 0.000000 0.000000 0.000000 0.000000 0.014767 0.000000
# 6 0.000000 0.000000 0.000000 0.000000 0.000000 0.026202
#
#
# Mechanical properties :
#
#
# Convention : Reuss Voigt Hill
#
# Bulk Modulus (GPa) = 60.52966 60.53229 60.53097
# Shear Modulus (GPa) = 56.76816 59.69266 58.23041
#
# Velocity S-wave (km/s) = 4.59266 4.70947 4.65143
# Velocity P-wave (km/s) = 7.11431 7.21548 7.16508
#
# Compressibility (1/GPa) = 0.01652083
#
# Stress axis : x y z
#
# Youngs Moduli (GPa) = 144.03951 144.03951 128.32288
#
# Poissons Ratio (x) = 0.05153 0.14249
# Poissons Ratio (y) = 0.05153 0.14249
# Poissons Ratio (z) = 0.15994 0.15994
#
# Static dielectric constant tensor:
#      x y z
#    x 1.267400 0.000000 0.000000 
#    y 0.000000 1.267400 0.000000 
#    z 0.000000 0.000000 2.131310 
# 
# From -- ./inp_files/499.got.cif
#   From: 2010.05.17/outbox.cif.g08.bks.cpg/sg114_1_cif.got.tgz:499.got - 2010.05.20 11:04:54.
