data_PCOD9556790
_publ_section_title
;
Structure prediction by ZEFSAII (Michael W. Deem and Ramdas Pophale) SiO2 
 PCOD9556790
Probable space group: P -4 M 2
;
_chemical_formula_sum "Si O2"
_cell_formula_units_Z 48
_cell_length_a 9.134863
_cell_length_b 9.134863
_cell_length_c 31.915919
_cell_angle_alpha 90.000000
_cell_angle_beta 90.000000
_cell_angle_gamma 90.000000
_cell_volume 2663.246905
_symmetry_space_group_name_H-M "P -4 M 2"
_symmetry_group_IT_number 115
_symmetry_cell_setting 'tetragonal'
loop_
_space_group_symop_operation_xyz
x,y,z
y,-x,-z
-x,-y,z
-y,x,-z
y,x,-z
-y,-x,-z
-x,y,z
x,-y,z
loop_
_atom_site_type_symbol
_atom_site_label
_atom_site_fract_x
_atom_site_fract_y
_atom_site_fract_z
Si Si1 0.828570 0.823487 0.704715
Si Si2 0.674683 0.173256 0.460810
Si Si3 0.671796 0.324126 0.626158
Si Si4 0.326689 0.175177 0.960664
Si Si5 0.831303 0.178449 0.874772
Si Si6 0.668714 0.178511 0.790305
O O1 0.748888 0.752073 0.665284
O O2 0.753038 0.776941 0.748255
O O3 0.000000 0.785804 0.705026
O O4 0.816458 0.000000 0.701910
O O5 0.758658 0.241343 0.500000
O O6 0.500000 0.196498 0.466508
O O7 0.718212 0.251753 0.417525
O O8 0.700814 0.000000 0.457641
O O9 0.500000 0.287770 0.624989
O O10 0.685975 0.500000 0.630298
O O11 0.500000 0.200944 0.958405
O O12 0.250691 0.222288 0.917247
O O13 0.303320 0.000000 0.965330
O O14 0.256255 0.256255 0.000000
O O15 0.749032 0.227282 0.832700
O O16 0.000000 0.225462 0.875001
O O17 0.830139 0.000000 0.874133
O O18 0.500000 0.225487 0.789432
O O19 0.669658 0.000000 0.790865
#
# Coordination Sequence:
#
# PCOD9556790 Si02
#       6
#     8   8   8   8   8   8
#     4  10  20  33  51  77 108 141 178 220 265 312
#     4  10  21  37  57  80 105 135 171 211 257 309
#     4  10  21  37  57  79 104 138 179 220 263 313
#     4  10  20  33  50  73 100 131 168 209 254 306
#     4   9  16  27  46  72 101 132 168 212 259 306
#     4   9  16  27  45  71 104 139 174 214 260 310
#
# _framework density 18.023114
#
# number of rings (size 3 to 8) (size 9 to 14) (size 15 to 20)
#    0.000    2.333    0.000    3.000    0.000    8.667 
#    0.000    0.000    0.000    1.000    0.000    0.000 
#    0.000    0.000    0.000    0.000    0.000    0.000 
#
# Total GULP energy -267951.678563 kJ/mol
# GULP energy per Si atom -5582.326637 kJ/mol
# Density = 1.798209 g / cm^3
# Si number density = 18.023114 Si / 1000 Ang^3
#
#
#
# Elastic Constant Matrix: (Units=GPa)
#
#
# Indices 1 2 3 4 5 6 
#
# 1 83.4390 62.5064 94.6600 0.0000 0.0000 0.0000
# 2 62.5064 83.4390 94.6615 0.0000 0.0000 0.0000
# 3 94.6600 94.6615 232.7278 0.0000 0.0000 0.0000
# 4 0.0000 0.0000 0.0000 221.1759 0.0000 0.0000
# 5 0.0000 0.0000 0.0000 0.0000 221.2186 0.0000
# 6 0.0000 0.0000 0.0000 0.0000 0.0000 21.1145
#
#
#
# Elastic Compliance Matrix: (Units=1/GPa)
#
#
# Indices 1 2 3 4 5 6 
#
# 1 0.031138 -0.016633 -0.005900 0.000000 0.000000 0.000000
# 2 -0.016633 0.031139 -0.005900 0.000000 0.000000 0.000000
# 3 -0.005900 -0.005900 0.009096 0.000000 0.000000 0.000000
# 4 0.000000 0.000000 0.000000 0.004521 0.000000 0.000000
# 5 0.000000 0.000000 0.000000 0.000000 0.004520 0.000000
# 6 0.000000 0.000000 0.000000 0.000000 0.000000 0.047361
#
#
# Mechanical properties :
#
#
# Convention : Reuss Voigt Hill
#
# Bulk Modulus (GPa) = 68.93095 100.36239 84.64667
# Shear Modulus (GPa) = 26.38809 102.55365 64.47087
#
# Velocity S-wave (km/s) = 3.83054 7.55147 5.98739
# Velocity P-wave (km/s) = 7.60874 11.48213 9.73992
#
# Compressibility (1/GPa) = 0.01450727
#
# Stress axis : x y z
#
# Youngs Moduli (GPa) = 32.11464 32.11381 109.93310
#
# Poissons Ratio (x) = 0.53416 0.64857
# Poissons Ratio (y) = 0.53418 0.64864
# Poissons Ratio (z) = 0.18947 0.18948
#
# Static dielectric constant tensor:
#      x y z
#    x 1.603460 0.000000 0.000000 
#    y 0.000000 1.603460 0.000000 
#    z 0.000000 0.000000 1.582930 
# 
# From -- ./inp_files/5998.got.cif
#   From: 2010.05.17/outbox.cif.g08.bks.cpg/sg115_3_cif.got.tgz:5998.got - 2010.05.20 11:07:42.
