data_PCOD9556154
_publ_section_title
;
Structure prediction by ZEFSAII (Michael W. Deem and Ramdas Pophale) SiO2 
 PCOD9556154
Probable space group: P -4 21 C
;
_chemical_formula_sum "Si O2"
_cell_formula_units_Z 38
_cell_length_a 10.355947
_cell_length_b 10.355947
_cell_length_c 15.387061
_cell_angle_alpha 90.000000
_cell_angle_beta 90.000000
_cell_angle_gamma 90.000000
_cell_volume 1650.195178
_symmetry_space_group_name_H-M "P -4 21 C"
_symmetry_group_IT_number 114
_symmetry_cell_setting 'tetragonal'
loop_
_space_group_symop_operation_xyz
x,y,z
y,-x,-z
-x,-y,z
-y,x,-z
1/2+x,1/2-y,1/2-z
1/2-x,1/2+y,1/2-z
1/2-y,1/2-x,1/2+z
1/2+y,1/2+x,1/2+z
loop_
_atom_site_type_symbol
_atom_site_label
_atom_site_fract_x
_atom_site_fract_y
_atom_site_fract_z
Si Si1 0.813473 0.367846 0.089485
Si Si2 0.875732 0.735880 0.812235
Si Si3 0.417923 0.614264 0.847855
Si Si4 0.443676 0.312223 0.536757
Si Si5 0.000000 0.500000 0.716841
Si Si6 0.000000 0.000000 0.500000
O O1 0.733167 0.246554 0.125819
O O2 0.724712 0.491828 0.108991
O O3 0.932659 0.396940 0.153496
O O4 0.873034 0.316068 0.999018
O O5 0.837861 0.818957 0.726666
O O6 0.992917 0.796195 0.868843
O O7 0.926264 0.601496 0.776686
O O8 0.500000 0.500000 0.802081
O O9 0.382603 0.538716 0.936129
O O10 0.348837 0.435033 0.526565
#
# Coordination Sequence:
#
# PCOD9556154 Si02
#       6
#     8   8   8   8   4   2
#     4  10  22  41  61  92 125 165 204 268 315 368
#     4  10  22  40  64  91 123 168 204 267 311 374
#     4   9  21  41  59  89 118 158 211 243 313 377
#     4   9  20  38  63  94 125 162 211 253 317 373
#     4  10  24  40  58  96 122 162 222 254 314 392
#     4   8  20  40  60  80 114 164 196 256 292 384
#
# _framework density 23.027577999999998
#
# number of rings (size 3 to 8) (size 9 to 14) (size 15 to 20)
#    0.632    1.895    0.000    0.000    8.842    2.526 
#   26.526    0.000    0.000    0.000    0.000    0.000 
#    0.000    0.000    0.000    0.000    0.000    0.000 
#
# Total GULP energy -211543.527100 kJ/mol
# GULP energy per Si atom -5566.934924 kJ/mol
# Density = 2.297517 g / cm^3
# Si number density = 23.027578 Si / 1000 Ang^3
#
#
#
# Elastic Constant Matrix: (Units=GPa)
#
#
# Indices 1 2 3 4 5 6 
#
# 1 43.0905 7.2705 10.4019 0.0000 0.0000 0.0000
# 2 7.2705 43.0905 10.4019 0.0000 0.0000 0.0000
# 3 10.4019 10.4019 86.0230 0.0000 0.0000 0.0000
# 4 0.0000 0.0000 0.0000 -6.7065 0.0000 0.0000
# 5 0.0000 0.0000 0.0000 0.0000 -6.7065 0.0000
# 6 0.0000 0.0000 0.0000 0.0000 0.0000 26.2508
#
#
#
# Elastic Compliance Matrix: (Units=1/GPa)
#
#
# Indices 1 2 3 4 5 6 
#
# 1 0.024409 -0.003508 -0.002527 0.000000 0.000000 0.000000
# 2 -0.003508 0.024409 -0.002527 0.000000 0.000000 0.000000
# 3 -0.002527 -0.002527 0.012236 0.000000 0.000000 0.000000
# 4 0.000000 0.000000 0.000000 -0.149108 0.000000 0.000000
# 5 0.000000 0.000000 0.000000 0.000000 -0.149108 0.000000
# 6 0.000000 0.000000 0.000000 0.000000 0.000000 0.038094
#
#
# Mechanical properties :
#
#
# Convention : Reuss Voigt Hill
#
# Bulk Modulus (GPa) = 22.76451 25.37252 24.06851
# Shear Modulus (GPa) = -29.88656 12.17619 -8.85518
#
# Velocity S-wave (km/s) = -3.60649 2.30199 -1.96311
# Velocity P-wave (km/s) = 2.72674 4.25532 2.31005
#
# Compressibility (1/GPa) = 0.04392803
#
# Stress axis : x y z
#
# Youngs Moduli (GPa) = 40.96852 40.96852 81.72609
#
# Poissons Ratio (x) = 0.14373 0.20655
# Poissons Ratio (y) = 0.14373 0.20655
# Poissons Ratio (z) = 0.10354 0.10354
#
# Static dielectric constant tensor:
#      x y z
#    x 1.941240 0.000000 0.000000 
#    y 0.000000 1.941240 0.000000 
#    z 0.000000 0.000000 1.865770 
# 
# From -- ./inp_files/2165.got.cif
#   From: 2010.05.17/outbox.cif.g08.bks.cpg/sg114_2_cif.got.tgz:2165.got - 2010.05.20 11:04:54.
