data_PCOD9556336
_publ_section_title
;
Structure prediction by ZEFSAII (Michael W. Deem and Ramdas Pophale) SiO2 
 PCOD9556336
Probable space group: P -4 21 C
;
_chemical_formula_sum "Si O2"
_cell_formula_units_Z 32
_cell_length_a 9.776928
_cell_length_b 9.776928
_cell_length_c 12.264735
_cell_angle_alpha 90.000000
_cell_angle_beta 90.000000
_cell_angle_gamma 90.000000
_cell_volume 1172.365428
_symmetry_space_group_name_H-M "P -4 21 C"
_symmetry_group_IT_number 114
_symmetry_cell_setting 'tetragonal'
loop_
_space_group_symop_operation_xyz
x,y,z
y,-x,-z
-x,-y,z
-y,x,-z
1/2+x,1/2-y,1/2-z
1/2-x,1/2+y,1/2-z
1/2-y,1/2-x,1/2+z
1/2+y,1/2+x,1/2+z
loop_
_atom_site_type_symbol
_atom_site_label
_atom_site_fract_x
_atom_site_fract_y
_atom_site_fract_z
Si Si1 0.807405 0.858658 0.655377
Si Si2 0.716617 0.199648 0.033567
Si Si3 0.162048 0.001550 0.856419
Si Si4 0.854338 0.505378 0.282181
O O1 0.827720 0.838488 0.526280
O O2 0.824488 0.998468 0.725311
O O3 0.648158 0.819766 0.681142
O O4 0.921511 0.760605 0.710809
O O5 0.853448 0.221437 0.103265
O O6 0.627383 0.101530 0.110403
O O7 0.761138 0.105998 0.930835
O O8 0.000000 0.000000 0.880313
O O9 0.000000 0.500000 0.223065
#
# Coordination Sequence:
#
# PCOD9556336 Si02
#       4
#     8   8   8   8
#     4  11  24  41  68 108 138 185 247 309 362 450
#     4  11  19  39  64  94 133 182 235 287 361 446
#     4  11  19  37  71  97 134 185 243 289 361 443
#     4  11  25  43  69 103 144 190 240 308 380 439
#
# _framework density 27.295241000000001
#
# number of rings (size 3 to 8) (size 9 to 14) (size 15 to 20)
#    0.000    1.000    5.000    3.000    0.000    3.000 
#    0.000    0.000    0.000    0.000    0.000    0.000 
#    0.000    0.000    0.000    0.000    0.000    0.000 
#
# Total GULP energy -178951.146330 kJ/mol
# GULP energy per Si atom -5592.223323 kJ/mol
# Density = 2.723312 g / cm^3
# Si number density = 27.295241 Si / 1000 Ang^3
#
#
#
# Elastic Constant Matrix: (Units=GPa)
#
#
# Indices 1 2 3 4 5 6 
#
# 1 95.4564 21.0764 20.3139 0.0000 0.0000 0.0000
# 2 21.0764 95.4564 20.3139 0.0000 0.0000 0.0000
# 3 20.3139 20.3139 110.8652 0.0000 0.0000 0.0000
# 4 0.0000 0.0000 0.0000 48.3908 0.0000 0.0000
# 5 0.0000 0.0000 0.0000 0.0000 48.3908 0.0000
# 6 0.0000 0.0000 0.0000 0.0000 0.0000 32.5978
#
#
#
# Elastic Compliance Matrix: (Units=1/GPa)
#
#
# Indices 1 2 3 4 5 6 
#
# 1 0.011306 -0.002139 -0.001680 0.000000 0.000000 0.000000
# 2 -0.002139 0.011306 -0.001680 0.000000 0.000000 0.000000
# 3 -0.001680 -0.001680 0.009635 0.000000 0.000000 0.000000
# 4 0.000000 0.000000 0.000000 0.020665 0.000000 0.000000
# 5 0.000000 0.000000 0.000000 0.000000 0.020665 0.000000
# 6 0.000000 0.000000 0.000000 0.000000 0.000000 0.030677
#
#
# Mechanical properties :
#
#
# Convention : Reuss Voigt Hill
#
# Bulk Modulus (GPa) = 47.05748 47.24296 47.15022
# Shear Modulus (GPa) = 40.87182 41.88080 41.37631
#
# Velocity S-wave (km/s) = 3.87382 3.92134 3.89765
# Velocity P-wave (km/s) = 6.10625 6.15210 6.12921
#
# Compressibility (1/GPa) = 0.02125061
#
# Stress axis : x y z
#
# Youngs Moduli (GPa) = 88.45123 88.45123 103.78301
#
# Poissons Ratio (x) = 0.18918 0.17432
# Poissons Ratio (y) = 0.18918 0.17432
# Poissons Ratio (z) = 0.14857 0.14857
#
# Static dielectric constant tensor:
#      x y z
#    x 2.236180 0.000000 0.000000 
#    y 0.000000 2.236180 0.000000 
#    z 0.000000 0.000000 2.145820 
# 
# From -- ./inp_files/1379.got.cif
#   From: 2010.05.17/outbox.cif.g08.bks.cpg/sg114_1_cif.got.tgz:1379.got - 2010.05.20 11:04:54.
