data_PCOD9556722
_publ_section_title
;
Structure prediction by ZEFSAII (Michael W. Deem and Ramdas Pophale) SiO2 
 PCOD9556722
Probable space group: P -4 M 2
;
_chemical_formula_sum "Si O2"
_cell_formula_units_Z 48
_cell_length_a 9.351056
_cell_length_b 9.351056
_cell_length_c 32.096479
_cell_angle_alpha 90.000000
_cell_angle_beta 90.000000
_cell_angle_gamma 90.000000
_cell_volume 2806.588287
_symmetry_space_group_name_H-M "P -4 M 2"
_symmetry_group_IT_number 115
_symmetry_cell_setting 'tetragonal'
loop_
_space_group_symop_operation_xyz
x,y,z
y,-x,-z
-x,-y,z
-y,x,-z
y,x,-z
-y,-x,-z
-x,y,z
x,-y,z
loop_
_atom_site_type_symbol
_atom_site_label
_atom_site_fract_x
_atom_site_fract_y
_atom_site_fract_z
Si Si1 0.671153 0.831408 0.295007
Si Si2 0.331860 0.671504 0.621107
Si Si3 0.833922 0.826145 0.120167
Si Si4 0.171332 0.168582 0.452383
Si Si5 0.669160 0.171663 0.037331
Si Si6 0.832872 0.826485 0.212643
O O1 0.500000 0.819875 0.290775
O O2 0.715955 0.745228 0.335971
O O3 0.744026 0.777926 0.252525
O O4 0.705685 0.000000 0.300596
O O5 0.500000 0.702512 0.623027
O O6 0.313546 0.500000 0.617120
O O7 0.259726 0.748116 0.582005
O O8 0.737181 0.781802 0.081486
O O9 0.786551 0.778111 0.166389
O O10 0.000000 0.784129 0.114037
O O11 0.831831 0.000000 0.120824
O O12 0.208916 0.208916 0.500000
O O13 0.000000 0.184658 0.448257
O O14 0.204048 0.000000 0.446958
O O15 0.500000 0.198499 0.036627
O O16 0.691321 0.000000 0.033171
O O17 0.748401 0.251600 0.000000
O O18 0.000000 0.790443 0.217394
O O19 0.822847 0.000000 0.212414
#
# Coordination Sequence:
#
# PCOD9556722 Si02
#       6
#     8   8   8   8   8   8
#     4   9  17  29  46  68  94 126 163 201 241 284
#     4  10  21  35  50  71 101 135 169 204 241 284
#     4   8  14  26  45  69  96 123 153 195 245 292
#     4   9  19  36  56  77 100 126 159 201 248 296
#     4  10  20  32  48  71  97 127 163 201 242 288
#     4   8  14  25  43  69  97 122 152 194 242 287
#
# _framework density 17.102616999999999
#
# number of rings (size 3 to 8) (size 9 to 14) (size 15 to 20)
#    0.000    3.000    0.000    2.500    0.000    4.333 
#    0.000    7.500    0.000    1.000    0.000    4.667 
#    0.000    0.000    0.000    0.000    0.000    0.000 
#
# Total GULP energy -267454.037429 kJ/mol
# GULP energy per Si atom -5571.959113 kJ/mol
# Density = 1.706369 g / cm^3
# Si number density = 17.102617 Si / 1000 Ang^3
#
#
#
# Elastic Constant Matrix: (Units=GPa)
#
#
# Indices 1 2 3 4 5 6 
#
# 1 45.8484 42.4961 80.0925 0.0000 0.0000 0.0000
# 2 42.4961 45.8496 80.0930 0.0000 0.0000 0.0000
# 3 80.0925 80.0930 214.8503 0.0000 0.0000 0.0000
# 4 0.0000 0.0000 0.0000 -15.6185 0.0000 0.0000
# 5 0.0000 0.0000 0.0000 0.0000 -15.6173 0.0000
# 6 0.0000 0.0000 0.0000 0.0000 0.0000 18.1926
#
#
#
# Elastic Compliance Matrix: (Units=1/GPa)
#
#
# Indices 1 2 3 4 5 6 
#
# 1 0.166595 -0.131662 -0.013022 0.000000 0.000000 0.000000
# 2 -0.131662 0.166586 -0.013019 0.000000 0.000000 0.000000
# 3 -0.013022 -0.013019 0.014362 0.000000 0.000000 0.000000
# 4 0.000000 0.000000 0.000000 -0.064027 0.000000 0.000000
# 5 0.000000 0.000000 0.000000 0.000000 -0.064031 0.000000
# 6 0.000000 0.000000 0.000000 0.000000 0.000000 0.054967
#
#
# Mechanical properties :
#
#
# Convention : Reuss Voigt Hill
#
# Bulk Modulus (GPa) = 31.11812 79.10128 55.10970
# Shear Modulus (GPa) = 8.32541 4.31580 6.32061
#
# Velocity S-wave (km/s) = 2.20873 1.59027 1.92450
# Velocity P-wave (km/s) = 4.97384 7.05148 6.10174
#
# Compressibility (1/GPa) = 0.03213562
#
# Stress axis : x y z
#
# Youngs Moduli (GPa) = 6.00259 6.00291 69.62764
#
# Poissons Ratio (x) = 0.79036 0.90668
# Poissons Ratio (y) = 0.79032 0.90650
# Poissons Ratio (z) = 0.07817 0.07815
#
# Static dielectric constant tensor:
#      x y z
#    x 1.565030 0.000000 0.000000 
#    y 0.000000 1.565030 0.000000 
#    z 0.000000 0.000000 1.579080 
# 
# From -- ./inp_files/6067.got.cif
#   From: 2010.05.17/outbox.cif.g08.bks.cpg/sg115_4_cif.got.tgz:6067.got - 2010.05.20 11:07:42.
