data_PCOD9556941
_publ_section_title
;
Structure prediction by ZEFSAII (Michael W. Deem and Ramdas Pophale) SiO2 
 PCOD9556941
Probable space group: P -4 M 2
;
_chemical_formula_sum "Si O2"
_cell_formula_units_Z 48
_cell_length_a 9.179598
_cell_length_b 9.179598
_cell_length_c 31.824878
_cell_angle_alpha 90.000000
_cell_angle_beta 90.000000
_cell_angle_gamma 90.000000
_cell_volume 2681.723963
_symmetry_space_group_name_H-M "P -4 M 2"
_symmetry_group_IT_number 115
_symmetry_cell_setting 'tetragonal'
loop_
_space_group_symop_operation_xyz
x,y,z
y,-x,-z
-x,-y,z
-y,x,-z
y,x,-z
-y,-x,-z
-x,y,z
x,-y,z
loop_
_atom_site_type_symbol
_atom_site_label
_atom_site_fract_x
_atom_site_fract_y
_atom_site_fract_z
Si Si1 0.327544 0.326419 0.374632
Si Si2 0.167693 0.177262 0.124960
Si Si3 0.171093 0.324949 0.288320
Si Si4 0.672594 0.825451 0.039155
Si Si5 0.824392 0.670917 0.789705
Si Si6 0.827350 0.326603 0.538873
O O1 0.500000 0.299459 0.367749
O O2 0.308481 0.500000 0.380874
O O3 0.239699 0.282407 0.333177
O O4 0.281803 0.243870 0.416827
O O5 0.250966 0.221183 0.082632
O O6 0.249900 0.223075 0.167304
O O7 0.000000 0.225734 0.124713
O O8 0.167862 0.000000 0.125172
O O9 0.187768 0.500000 0.284503
O O10 0.254037 0.248062 0.250330
O O11 0.000000 0.290389 0.286977
O O12 0.500000 0.799400 0.041358
O O13 0.695089 0.000000 0.034345
O O14 0.743915 0.743915 0.000000
O O15 0.788704 0.500000 0.791367
O O16 0.000000 0.684151 0.786676
O O17 0.756330 0.243671 0.500000
O O18 0.799888 0.500000 0.533993
O O19 0.000000 0.303359 0.539988
#
# Coordination Sequence:
#
# PCOD9556941 Si02
#       6
#     8   8   8   8   8   8
#     4   9  18  34  55  76 101 137 179 219 259 308
#     4   9  17  31  53  79 106 137 174 216 262 313
#     4  10  21  36  54  78 108 141 177 218 264 314
#     4  10  20  34  53  77 105 137 174 216 261 310
#     4  10  20  34  54  80 109 141 177 218 264 314
#     4  10  21  36  55  80 109 140 175 216 262 313
#
# _framework density 17.898934000000001
#
# number of rings (size 3 to 8) (size 9 to 14) (size 15 to 20)
#    0.000    2.333    0.000    2.500    0.000    7.333 
#    0.000    4.167    0.000    5.000    0.000    0.000 
#    0.000    0.000    0.000    0.000    0.000    0.000 
#
# Total GULP energy -267966.640344 kJ/mol
# GULP energy per Si atom -5582.638341 kJ/mol
# Density = 1.785820 g / cm^3
# Si number density = 17.898934 Si / 1000 Ang^3
#
#
#
# Elastic Constant Matrix: (Units=GPa)
#
#
# Indices 1 2 3 4 5 6 
#
# 1 76.0462 62.6939 95.0310 0.0000 0.0000 0.0000
# 2 62.6939 76.0472 95.0325 0.0000 0.0000 0.0000
# 3 95.0310 95.0325 226.7771 0.0000 0.0000 0.0000
# 4 0.0000 0.0000 0.0000 36.7235 0.0000 0.0000
# 5 0.0000 0.0000 0.0000 0.0000 36.7236 0.0000
# 6 0.0000 0.0000 0.0000 0.0000 0.0000 23.1928
#
#
#
# Elastic Compliance Matrix: (Units=1/GPa)
#
#
# Indices 1 2 3 4 5 6 
#
# 1 0.045906 -0.028984 -0.007091 0.000000 0.000000 0.000000
# 2 -0.028984 0.045907 -0.007092 0.000000 0.000000 0.000000
# 3 -0.007091 -0.007092 0.010353 0.000000 0.000000 0.000000
# 4 0.000000 0.000000 0.000000 0.027231 0.000000 0.000000
# 5 0.000000 0.000000 0.000000 0.000000 0.027230 0.000000
# 6 0.000000 0.000000 0.000000 0.000000 0.000000 0.043117
#
#
# Mechanical properties :
#
#
# Convention : Reuss Voigt Hill
#
# Bulk Modulus (GPa) = 63.16284 98.26505 80.71395
# Shear Modulus (GPa) = 17.16117 27.73550 22.44833
#
# Velocity S-wave (km/s) = 3.09978 3.94072 3.54527
# Velocity P-wave (km/s) = 6.94095 8.70200 7.87088
#
# Compressibility (1/GPa) = 0.01583209
#
# Stress axis : x y z
#
# Youngs Moduli (GPa) = 21.78342 21.78328 96.59121
#
# Poissons Ratio (x) = 0.63137 0.68493
# Poissons Ratio (y) = 0.63138 0.68499
# Poissons Ratio (z) = 0.15447 0.15448
#
# Static dielectric constant tensor:
#      x y z
#    x 1.599560 0.000000 0.000000 
#    y 0.000000 1.599560 0.000000 
#    z 0.000000 0.000000 1.577210 
# 
# From -- ./inp_files/5927.got.cif
#   From: 2010.05.17/outbox.cif.g08.bks.cpg/sg115_3_cif.got.tgz:5927.got - 2010.05.20 11:07:42.
