data_PCOD9556317
_publ_section_title
;
Structure prediction by ZEFSAII (Michael W. Deem and Ramdas Pophale) SiO2 
 PCOD9556317
Probable space group: P -4 21 C
;
_chemical_formula_sum "Si O2"
_cell_formula_units_Z 48
_cell_length_a 9.460283
_cell_length_b 9.460283
_cell_length_c 25.747502
_cell_angle_alpha 90.000000
_cell_angle_beta 90.000000
_cell_angle_gamma 90.000000
_cell_volume 2304.323013
_symmetry_space_group_name_H-M "P -4 21 C"
_symmetry_group_IT_number 114
_symmetry_cell_setting 'tetragonal'
loop_
_space_group_symop_operation_xyz
x,y,z
y,-x,-z
-x,-y,z
-y,x,-z
1/2+x,1/2-y,1/2-z
1/2-x,1/2+y,1/2-z
1/2-y,1/2-x,1/2+z
1/2+y,1/2+x,1/2+z
loop_
_atom_site_type_symbol
_atom_site_label
_atom_site_fract_x
_atom_site_fract_y
_atom_site_fract_z
Si Si1 0.194372 0.170230 0.574792
Si Si2 0.628036 0.894350 0.278395
Si Si3 0.947205 0.348057 0.603188
Si Si4 0.149011 0.928021 0.218373
Si Si5 0.254275 0.850745 0.541314
Si Si6 0.499943 0.162153 0.620311
O O1 0.166713 0.250079 0.520264
O O2 0.342252 0.201207 0.602769
O O3 0.071705 0.233352 0.610375
O O4 0.192758 0.003673 0.559615
O O5 0.623867 0.882090 0.340593
O O6 0.627498 0.731434 0.260362
O O7 0.500000 0.000000 0.263492
O O8 0.766978 0.973500 0.258643
O O9 0.839838 0.274424 0.564428
O O10 0.000000 0.500000 0.583471
O O11 0.240679 0.935567 0.165258
O O12 0.000000 0.000000 0.207466
O O13 0.405276 0.837991 0.568509
O O14 0.500000 0.000000 0.639433
#
# Coordination Sequence:
#
# PCOD9556317 Si02
#       6
#     8   8   8   8   8   8
#     4  11  24  38  69  95 134 182 226 279 331 402
#     4  11  26  48  70 103 138 178 222 281 343 412
#     4  11  25  41  68  95 138 173 223 275 331 396
#     4  12  26  46  75 101 135 177 226 281 343 413
#     4  11  22  43  62  99 131 179 228 276 331 399
#     4  10  25  44  66  97 140 175 223 280 339 400
#
# _framework density 20.830414999999999
#
# number of rings (size 3 to 8) (size 9 to 14) (size 15 to 20)
#    0.000    1.000    3.333    2.000    9.333    1.333 
#    0.000    0.000    0.000    0.000    0.000    0.000 
#    0.000    0.000    0.000    0.000    0.000    0.000 
#
# Total GULP energy -268224.161270 kJ/mol
# GULP energy per Si atom -5588.003360 kJ/mol
# Density = 2.078300 g / cm^3
# Si number density = 20.830415 Si / 1000 Ang^3
#
#
#
# Elastic Constant Matrix: (Units=GPa)
#
#
# Indices 1 2 3 4 5 6 
#
# 1 102.6565 29.6950 3.6136 0.0000 0.0000 0.0000
# 2 29.6950 102.6565 3.6136 0.0000 0.0000 0.0000
# 3 3.6136 3.6136 35.9378 0.0000 0.0000 0.0000
# 4 0.0000 0.0000 0.0000 16.7915 0.0000 0.0000
# 5 0.0000 0.0000 0.0000 0.0000 16.7915 0.0000
# 6 0.0000 0.0000 0.0000 0.0000 0.0000 28.8742
#
#
#
# Elastic Compliance Matrix: (Units=1/GPa)
#
#
# Indices 1 2 3 4 5 6 
#
# 1 0.010652 -0.003054 -0.000764 0.000000 0.000000 0.000000
# 2 -0.003054 0.010652 -0.000764 0.000000 0.000000 0.000000
# 3 -0.000764 -0.000764 0.027979 0.000000 0.000000 0.000000
# 4 0.000000 0.000000 0.000000 0.059554 0.000000 0.000000
# 5 0.000000 0.000000 0.000000 0.000000 0.059554 0.000000
# 6 0.000000 0.000000 0.000000 0.000000 0.000000 0.034633
#
#
# Mechanical properties :
#
#
# Convention : Reuss Voigt Hill
#
# Bulk Modulus (GPa) = 24.92618 35.01059 29.96838
# Shear Modulus (GPa) = 22.16702 26.11337 24.14019
#
# Velocity S-wave (km/s) = 3.26569 3.54449 3.40794
# Velocity P-wave (km/s) = 5.11976 5.79613 5.46841
#
# Compressibility (1/GPa) = 0.04011846
#
# Stress axis : x y z
#
# Youngs Moduli (GPa) = 93.88257 93.88257 35.74047
#
# Poissons Ratio (x) = 0.28674 0.02730
# Poissons Ratio (y) = 0.28674 0.02730
# Poissons Ratio (z) = 0.07172 0.07172
#
# Static dielectric constant tensor:
#      x y z
#    x 1.759180 0.000000 0.000000 
#    y 0.000000 1.759180 0.000000 
#    z 0.000000 0.000000 1.721520 
# 
# From -- ./inp_files/3967.got.cif
#   From: 2010.05.17/outbox.cif.g08.bks.cpg/sg114_2_cif.got.tgz:3967.got - 2010.05.20 11:04:54.
