data_PCOD9556651
_publ_section_title
;
Structure prediction by ZEFSAII (Michael W. Deem and Ramdas Pophale) SiO2 
 PCOD9556651
Probable space group: P -4 M 2
;
_chemical_formula_sum "Si O2"
_cell_formula_units_Z 40
_cell_length_a 8.019191
_cell_length_b 8.019191
_cell_length_c 30.536726
_cell_angle_alpha 90.000000
_cell_angle_beta 90.000000
_cell_angle_gamma 90.000000
_cell_volume 1963.738195
_symmetry_space_group_name_H-M "P -4 M 2"
_symmetry_group_IT_number 115
_symmetry_cell_setting 'tetragonal'
loop_
_space_group_symop_operation_xyz
x,y,z
y,-x,-z
-x,-y,z
-y,x,-z
y,x,-z
-y,-x,-z
-x,y,z
x,-y,z
loop_
_atom_site_type_symbol
_atom_site_label
_atom_site_fract_x
_atom_site_fract_y
_atom_site_fract_z
Si Si1 0.810772 0.799542 0.453676
Si Si2 0.000000 0.796626 0.106826
Si Si3 0.309553 0.802454 0.265220
Si Si4 0.205239 0.000000 0.792280
Si Si5 0.798018 0.688024 0.952246
Si Si6 0.301343 0.314363 0.359779
O O1 0.736118 0.736118 0.500000
O O2 0.731336 0.762055 0.407184
O O3 0.000000 0.736548 0.450447
O O4 0.814355 0.000000 0.458476
O O5 0.165985 0.744030 0.080740
O O6 0.000000 0.743310 0.157165
O O7 0.000000 0.000000 0.106846
O O8 0.500000 0.734791 0.260005
O O9 0.249254 0.777503 0.315409
O O10 0.167270 0.737162 0.232760
O O11 0.321346 0.000000 0.257738
O O12 0.000000 0.000000 0.790967
O O13 0.756071 0.500000 0.937844
O O14 0.000000 0.698219 0.956197
O O15 0.723303 0.723303 0.000000
O O16 0.500000 0.322978 0.356130
O O17 0.229566 0.500000 0.359140
#
# Coordination Sequence:
#
# PCOD9556651 Si02
#       6
#     8   4   8   4   8   8
#     4   9  19  35  53  74 101 132 167 210 261 320
#     4   9  18  32  53  83 121 150 187 247 292 334
#     4   9  18  33  53  76 105 142 186 235 281 332
#     4   9  18  32  53  83 111 145 188 234 286 336
#     4  10  19  32  55  83 114 156 198 238 289 346
#     4  10  21  35  51  74 103 134 172 218 268 325
#
# _framework density 20.369313999999999
#
# number of rings (size 3 to 8) (size 9 to 14) (size 15 to 20)
#    0.000    2.600    1.000    1.200    1.400    3.400 
#    0.000    7.000    0.000    2.400    0.000    2.800 
#    0.000    0.000    0.000    0.000    0.000    0.000 
#
# Total GULP energy -222939.842386 kJ/mol
# GULP energy per Si atom -5573.496060 kJ/mol
# Density = 2.032295 g / cm^3
# Si number density = 20.369314 Si / 1000 Ang^3
#
#
#
# Elastic Constant Matrix: (Units=GPa)
#
#
# Indices 1 2 3 4 5 6 
#
# 1 58.0150 30.6682 54.7362 0.0000 0.0000 0.0000
# 2 30.6682 58.0150 54.7362 0.0000 0.0000 0.0000
# 3 54.7362 54.7362 190.0286 0.0000 0.0000 0.0000
# 4 0.0000 0.0000 0.0000 153.5152 0.0000 0.0000
# 5 0.0000 0.0000 0.0000 0.0000 153.5152 0.0000
# 6 0.0000 0.0000 0.0000 0.0000 0.0000 8.0491
#
#
#
# Elastic Compliance Matrix: (Units=1/GPa)
#
#
# Indices 1 2 3 4 5 6 
#
# 1 0.027033 -0.009535 -0.005040 0.000000 0.000000 0.000000
# 2 -0.009535 0.027033 -0.005040 0.000000 0.000000 0.000000
# 3 -0.005040 -0.005040 0.008166 0.000000 0.000000 0.000000
# 4 0.000000 0.000000 0.000000 0.006514 0.000000 0.000000
# 5 0.000000 0.000000 0.000000 0.000000 0.006514 0.000000
# 6 0.000000 0.000000 0.000000 0.000000 0.000000 0.124238
#
#
# Mechanical properties :
#
#
# Convention : Reuss Voigt Hill
#
# Bulk Modulus (GPa) = 43.47651 65.14887 54.31269
# Shear Modulus (GPa) = 20.29270 74.07708 47.18489
#
# Velocity S-wave (km/s) = 3.15975 6.03705 4.81819
# Velocity P-wave (km/s) = 5.89088 8.98042 7.59442
#
# Compressibility (1/GPa) = 0.02300093
#
# Stress axis : x y z
#
# Youngs Moduli (GPa) = 36.99244 36.99244 122.46112
#
# Poissons Ratio (x) = 0.35272 0.61721
# Poissons Ratio (y) = 0.35272 0.61721
# Poissons Ratio (z) = 0.18644 0.18644
#
# Static dielectric constant tensor:
#      x y z
#    x 1.699190 0.000000 0.000000 
#    y 0.000000 1.699190 0.000000 
#    z 0.000000 0.000000 1.721300 
# 
# From -- ./inp_files/5558.got.cif
#   From: 2010.05.17/outbox.cif.g08.bks.cpg/sg115_3_cif.got.tgz:5558.got - 2010.05.20 11:07:42.
