data_PCOD9556217
_publ_section_title
;
Structure prediction by ZEFSAII (Michael W. Deem and Ramdas Pophale) SiO2 
 PCOD9556217
Probable space group: P -4 21 C
;
_chemical_formula_sum "Si O2"
_cell_formula_units_Z 40
_cell_length_a 12.457758
_cell_length_b 12.457758
_cell_length_c 9.184365
_cell_angle_alpha 90.000000
_cell_angle_beta 90.000000
_cell_angle_gamma 90.000000
_cell_volume 1425.374271
_symmetry_space_group_name_H-M "P -4 21 C"
_symmetry_group_IT_number 114
_symmetry_cell_setting 'tetragonal'
loop_
_space_group_symop_operation_xyz
x,y,z
y,-x,-z
-x,-y,z
-y,x,-z
1/2+x,1/2-y,1/2-z
1/2-x,1/2+y,1/2-z
1/2-y,1/2-x,1/2+z
1/2+y,1/2+x,1/2+z
loop_
_atom_site_type_symbol
_atom_site_label
_atom_site_fract_x
_atom_site_fract_y
_atom_site_fract_z
Si Si1 0.727072 0.592447 0.288822
Si Si2 0.545640 0.145795 0.237445
Si Si3 0.064310 0.865931 0.586402
Si Si4 0.283272 0.301930 0.608719
Si Si5 0.614722 0.870561 0.981778
O O1 0.852332 0.566596 0.256952
O O2 0.640902 0.505174 0.236244
O O3 0.726088 0.638949 0.451778
O O4 0.719223 0.692725 0.173798
O O5 0.601471 0.260510 0.278084
O O6 0.488989 0.131292 0.083813
O O7 0.461576 0.122064 0.362786
O O8 0.121361 0.750124 0.583688
O O9 0.969906 0.869899 0.462570
O O10 0.381015 0.222201 0.579948
#
# Coordination Sequence:
#
# PCOD9556217 Si02
#       5
#     8   8   8   8   8
#     4  10  22  48  68 107 156 193 260 321 381 475
#     4  10  27  43  72 108 145 199 256 310 397 458
#     4  11  24  43  75 111 152 203 255 314 387 469
#     4  10  23  47  72 103 153 195 254 322 391 464
#     4  12  24  47  75 108 148 205 249 331 385 461
#
# _framework density 28.062805999999998
#
# number of rings (size 3 to 8) (size 9 to 14) (size 15 to 20)
#    1.200    0.200    2.000    2.400    2.800    0.800 
#    0.000    0.000    0.000    0.600    0.000    0.000 
#    0.000    0.000    0.000    0.000    0.000    0.000 
#
# Total GULP energy -223558.292211 kJ/mol
# GULP energy per Si atom -5588.957305 kJ/mol
# Density = 2.799893 g / cm^3
# Si number density = 28.062806 Si / 1000 Ang^3
#
#
#
# Elastic Constant Matrix: (Units=GPa)
#
#
# Indices 1 2 3 4 5 6 
#
# 1 93.5796 34.0573 14.3762 0.0000 0.0000 0.0000
# 2 34.0573 93.5796 14.3762 0.0000 0.0000 0.0000
# 3 14.3762 14.3762 98.2552 0.0000 0.0000 0.0000
# 4 0.0000 0.0000 0.0000 48.2360 0.0000 0.0000
# 5 0.0000 0.0000 0.0000 0.0000 48.2360 0.0000
# 6 0.0000 0.0000 0.0000 0.0000 0.0000 51.1849
#
#
#
# Elastic Compliance Matrix: (Units=1/GPa)
#
#
# Indices 1 2 3 4 5 6 
#
# 1 0.012451 -0.004349 -0.001185 0.000000 0.000000 0.000000
# 2 -0.004349 0.012451 -0.001185 0.000000 0.000000 0.000000
# 3 -0.001185 -0.001185 0.010524 0.000000 0.000000 0.000000
# 4 0.000000 0.000000 0.000000 0.020731 0.000000 0.000000
# 5 0.000000 0.000000 0.000000 0.000000 0.020731 0.000000
# 6 0.000000 0.000000 0.000000 0.000000 0.000000 0.019537
#
#
# Mechanical properties :
#
#
# Convention : Reuss Voigt Hill
#
# Bulk Modulus (GPa) = 45.48278 45.67043 45.57661
# Shear Modulus (GPa) = 42.66374 44.37169 43.51772
#
# Velocity S-wave (km/s) = 3.90333 3.98069 3.94220
# Velocity P-wave (km/s) = 6.04626 6.11862 6.08255
#
# Compressibility (1/GPa) = 0.02198634
#
# Stress axis : x y z
#
# Youngs Moduli (GPa) = 80.31430 80.31430 95.01673
#
# Poissons Ratio (x) = 0.34931 0.11263
# Poissons Ratio (y) = 0.34931 0.11263
# Poissons Ratio (z) = 0.09521 0.09521
#
# Static dielectric constant tensor:
#      x y z
#    x 2.280210 0.000000 0.000000 
#    y 0.000000 2.280210 0.000000 
#    z 0.000000 0.000000 2.194990 
# 
# From -- ./inp_files/793.got.cif
#   From: 2010.05.17/outbox.cif.g08.bks.cpg/sg114_1_cif.got.tgz:793.got - 2010.05.20 11:04:54.
