data_PCOD9556547
_publ_section_title
;
Structure prediction by ZEFSAII (Michael W. Deem and Ramdas Pophale) SiO2 
 PCOD9556547
Probable space group: P -4 M 2
;
_chemical_formula_sum "Si O2"
_cell_formula_units_Z 64
_cell_length_a 13.955738
_cell_length_b 13.955738
_cell_length_c 19.074785
_cell_angle_alpha 90.000000
_cell_angle_beta 90.000000
_cell_angle_gamma 90.000000
_cell_volume 3715.055162
_symmetry_space_group_name_H-M "P -4 M 2"
_symmetry_group_IT_number 115
_symmetry_cell_setting 'tetragonal'
loop_
_space_group_symop_operation_xyz
x,y,z
y,-x,-z
-x,-y,z
-y,x,-z
y,x,-z
-y,-x,-z
-x,y,z
x,-y,z
loop_
_atom_site_type_symbol
_atom_site_label
_atom_site_fract_x
_atom_site_fract_y
_atom_site_fract_z
Si Si1 0.238760 0.113685 0.554639
Si Si2 0.749099 0.889577 0.216047
Si Si3 0.231236 0.611573 0.515102
Si Si4 0.750150 0.114274 0.716411
Si Si5 0.606708 0.114139 0.100181
Si Si6 0.264883 0.113782 0.967514
Si Si7 0.390077 0.116407 0.832636
Si Si8 0.107413 0.389187 0.650621
O O1 0.168426 0.168426 0.500000
O O2 0.344684 0.147309 0.532889
O O3 0.229632 0.143409 0.636055
O O4 0.225090 0.000000 0.548610
O O5 0.843796 0.833325 0.235260
O O6 0.686179 0.847050 0.153230
O O7 0.680727 0.885224 0.283999
O O8 0.771976 0.000000 0.200336
O O9 0.324234 0.675767 0.500000
O O10 0.247639 0.500000 0.503342
O O11 0.189467 0.625570 0.593362
O O12 0.652793 0.145160 0.756500
O O13 0.750518 0.000000 0.716063
O O14 0.500000 0.154008 0.108304
O O15 0.600892 0.000000 0.116009
O O16 0.647681 0.122444 0.022574
O O17 0.313160 0.142791 0.893313
O O18 0.237404 0.000000 0.964481
O O19 0.179552 0.179552 0.000000
O O20 0.500000 0.149618 0.843671
O O21 0.393087 0.000000 0.834658
O O22 0.112052 0.500000 0.674248
O O23 0.000000 0.375166 0.619242
#
# Coordination Sequence:
#
# PCOD9556547 Si02
#       8
#     8   8   8   8   8   8   8   8
#     4  10  21  36  53  75 103 135 173 216 262 315
#     4  10  18  29  47  70 100 132 158 193 243 300
#     4  10  20  33  49  69  93 122 159 204 254 309
#     4  10  21  34  48  70 100 133 171 210 246 297
#     4   9  17  29  46  70  97 125 162 209 256 294
#     4  10  19  31  49  74 106 141 175 212 254 307
#     4   9  18  34  53  70  94 133 178 221 260 296
#     4   9  17  30  49  71  93 120 155 196 246 303
#
# _framework density 17.2272
#
# number of rings (size 3 to 8) (size 9 to 14) (size 15 to 20)
#    0.000    2.375    0.000    3.375    0.000    6.375 
#    0.000    2.500    0.000    4.500    0.000    0.000 
#    0.000   25.500    0.000    0.000    0.000    0.000 
#
# Total GULP energy -356372.806188 kJ/mol
# GULP energy per Si atom -5568.325097 kJ/mol
# Density = 1.718799 g / cm^3
# Si number density = 17.227200 Si / 1000 Ang^3
#
#
#
# Elastic Constant Matrix: (Units=GPa)
#
#
# Indices 1 2 3 4 5 6 
#
# 1 -12.0782 94.6979 29.3012 0.0000 0.0000 0.0000
# 2 94.6979 -12.0680 29.3180 0.0000 0.0000 0.0000
# 3 29.3012 29.3180 91.2220 0.0000 0.0000 0.0000
# 4 0.0000 0.0000 0.0000 15.5446 0.0000 0.0000
# 5 0.0000 0.0000 0.0000 0.0000 15.5445 0.0000
# 6 0.0000 0.0000 0.0000 0.0000 0.0000 20.2693
#
#
#
# Elastic Compliance Matrix: (Units=1/GPa)
#
#
# Indices 1 2 3 4 5 6 
#
# 1 0.003155 0.012521 -0.005038 0.000000 0.000000 0.000000
# 2 0.012521 0.003155 -0.005036 0.000000 0.000000 0.000000
# 3 -0.005038 -0.005036 0.014199 0.000000 0.000000 0.000000
# 4 0.000000 0.000000 0.000000 0.064331 0.000000 0.000000
# 5 0.000000 0.000000 0.000000 0.000000 0.064331 0.000000
# 6 0.000000 0.000000 0.000000 0.000000 0.000000 0.049336
#
#
# Mechanical properties :
#
#
# Convention : Reuss Voigt Hill
#
# Bulk Modulus (GPa) = 39.36329 41.52331 40.44330
# Shear Modulus (GPa) = 24.74261 4.52227 14.63244
#
# Velocity S-wave (km/s) = 3.79390 1.62197 2.91757
# Velocity P-wave (km/s) = 6.48774 5.25960 5.90568
#
# Compressibility (1/GPa) = 0.02540438
#
# Stress axis : x y z
#
# Youngs Moduli (GPa) = 316.92797 316.93681 70.42790
#
# Poissons Ratio (x) = -3.96839 0.35479
# Poissons Ratio (y) = -3.96828 0.35467
# Poissons Ratio (z) = 1.59658 1.59607
#
# Static dielectric constant tensor:
#      x y z
#    x 1.587870 0.000000 0.000000 
#    y 0.000000 1.587870 0.000000 
#    z 0.000000 0.000000 1.805720 
# 
# From -- ./inp_files/4474.got.cif
#   From: 2010.05.17/outbox.cif.g08.bks.cpg/sg115_3_cif.got.tgz:4474.got - 2010.05.20 11:07:42.
