data_PCOD9556277
_publ_section_title
;
Structure prediction by ZEFSAII (Michael W. Deem and Ramdas Pophale) SiO2 
 PCOD9556277
Probable space group: P -4 21 C
;
_chemical_formula_sum "Si O2"
_cell_formula_units_Z 36
_cell_length_a 8.668219
_cell_length_b 8.668219
_cell_length_c 19.117007
_cell_angle_alpha 90.000000
_cell_angle_beta 90.000000
_cell_angle_gamma 90.000000
_cell_volume 1436.414066
_symmetry_space_group_name_H-M "P -4 21 C"
_symmetry_group_IT_number 114
_symmetry_cell_setting 'tetragonal'
loop_
_space_group_symop_operation_xyz
x,y,z
y,-x,-z
-x,-y,z
-y,x,-z
1/2+x,1/2-y,1/2-z
1/2-x,1/2+y,1/2-z
1/2-y,1/2-x,1/2+z
1/2+y,1/2+x,1/2+z
loop_
_atom_site_type_symbol
_atom_site_label
_atom_site_fract_x
_atom_site_fract_y
_atom_site_fract_z
Si Si1 0.279877 0.478501 0.474811
Si Si2 0.397641 0.366297 0.741178
Si Si3 0.435778 0.827257 0.132699
Si Si4 0.500000 0.000000 0.439002
Si Si5 0.222165 0.845646 0.355462
O O1 0.389874 0.625111 0.463763
O O2 0.131870 0.555256 0.509289
O O3 0.214846 0.361948 0.415832
O O4 0.500000 0.500000 0.705185
O O5 0.253557 0.405310 0.792500
O O6 0.314306 0.266363 0.682936
O O7 0.526433 0.306893 0.795253
O O8 0.564806 0.704806 0.104536
O O9 0.500000 0.000000 0.142271
O O10 0.639159 0.075152 0.396806
#
# Coordination Sequence:
#
# PCOD9556277 Si02
#       5
#     8   8   8   4   8
#     4  11  25  48  73 106 146 195 250 303 372 445
#     4  10  24  43  71 106 141 194 242 307 373 449
#     4  11  22  45  74 100 148 195 239 311 373 444
#     4  12  26  42  70 108 142 194 246 308 360 440
#     4  11  25  43  70 109 146 191 248 307 378 449
#
# _framework density 25.062411000000001
#
# number of rings (size 3 to 8) (size 9 to 14) (size 15 to 20)
#    0.000    1.111    1.111    4.000    7.778    0.000 
#    8.000    0.000    0.000    0.000    0.000    0.000 
#    0.000    0.000    0.000    0.000    0.000    0.000 
#
# Total GULP energy -200688.276816 kJ/mol
# GULP energy per Si atom -5574.674356 kJ/mol
# Density = 2.500537 g / cm^3
# Si number density = 25.062411 Si / 1000 Ang^3
#
#
#
# Elastic Constant Matrix: (Units=GPa)
#
#
# Indices 1 2 3 4 5 6 
#
# 1 113.4285 36.6177 24.6172 0.0000 0.0000 0.0000
# 2 36.6177 113.4285 24.6172 0.0000 0.0000 0.0000
# 3 24.6172 24.6172 47.1702 0.0000 0.0000 0.0000
# 4 0.0000 0.0000 0.0000 21.4017 0.0000 0.0000
# 5 0.0000 0.0000 0.0000 0.0000 21.4017 0.0000
# 6 0.0000 0.0000 0.0000 0.0000 0.0000 61.6272
#
#
#
# Elastic Compliance Matrix: (Units=1/GPa)
#
#
# Indices 1 2 3 4 5 6 
#
# 1 0.010530 -0.002489 -0.004197 0.000000 0.000000 0.000000
# 2 -0.002489 0.010530 -0.004197 0.000000 0.000000 0.000000
# 3 -0.004197 -0.004197 0.025580 0.000000 0.000000 0.000000
# 4 0.000000 0.000000 0.000000 0.046725 0.000000 0.000000
# 5 0.000000 0.000000 0.000000 0.000000 0.046725 0.000000
# 6 0.000000 0.000000 0.000000 0.000000 0.000000 0.016227
#
#
# Mechanical properties :
#
#
# Convention : Reuss Voigt Hill
#
# Bulk Modulus (GPa) = 40.19863 49.52572 44.86217
# Shear Modulus (GPa) = 26.82768 33.43115 30.12941
#
# Velocity S-wave (km/s) = 3.27530 3.65624 3.47100
# Velocity P-wave (km/s) = 5.51159 6.13417 5.83120
#
# Compressibility (1/GPa) = 0.02487647
#
# Stress axis : x y z
#
# Youngs Moduli (GPa) = 94.96361 94.96361 39.09256
#
# Poissons Ratio (x) = 0.23633 0.16406
# Poissons Ratio (y) = 0.23633 0.16406
# Poissons Ratio (z) = 0.39854 0.39854
#
# Static dielectric constant tensor:
#      x y z
#    x 2.436050 0.000000 0.000000 
#    y 0.000000 2.436050 0.000000 
#    z 0.000000 0.000000 2.037080 
# 
# From -- ./inp_files/2985.got.cif
#   From: 2010.05.17/outbox.cif.g08.bks.cpg/sg114_2_cif.got.tgz:2985.got - 2010.05.20 11:04:54.
