data_PCOD9556042
_publ_section_title
;
Structure prediction by ZEFSAII (Michael W. Deem and Ramdas Pophale) SiO2 
 PCOD9556042
Probable space group: P -4 21 C
;
_chemical_formula_sum "Si O2"
_cell_formula_units_Z 48
_cell_length_a 16.039046
_cell_length_b 16.039046
_cell_length_c 8.390297
_cell_angle_alpha 90.000000
_cell_angle_beta 90.000000
_cell_angle_gamma 90.000000
_cell_volume 2158.412265
_symmetry_space_group_name_H-M "P -4 21 C"
_symmetry_group_IT_number 114
_symmetry_cell_setting 'tetragonal'
loop_
_space_group_symop_operation_xyz
x,y,z
y,-x,-z
-x,-y,z
-y,x,-z
1/2+x,1/2-y,1/2-z
1/2-x,1/2+y,1/2-z
1/2-y,1/2-x,1/2+z
1/2+y,1/2+x,1/2+z
loop_
_atom_site_type_symbol
_atom_site_label
_atom_site_fract_x
_atom_site_fract_y
_atom_site_fract_z
Si Si1 0.700702 0.319855 0.528834
Si Si2 0.335349 0.030020 0.435553
Si Si3 0.754726 0.630842 0.958791
Si Si4 0.829237 0.447845 0.434003
Si Si5 0.297649 0.449615 0.646963
Si Si6 0.315049 0.604145 0.856619
O O1 0.711762 0.222270 0.512708
O O2 0.765582 0.370093 0.423578
O O3 0.606127 0.345600 0.482986
O O4 0.722640 0.343411 0.710104
O O5 0.413168 0.084383 0.495782
O O6 0.337770 0.021884 0.245723
O O7 0.253281 0.076237 0.511809
O O8 0.324129 0.937267 0.500887
O O9 0.731898 0.617193 0.776129
O O10 0.668676 0.621461 0.060690
O O11 0.780258 0.508652 0.554860
O O12 0.340855 0.520618 0.757666
#
# Coordination Sequence:
#
# PCOD9556042 Si02
#       6
#     8   8   8   8   8   8
#     4  11  21  38  66  93 123 175 224 270 330 411
#     4  11  22  38  62  97 130 171 222 280 340 406
#     4  11  21  36  63  95 129 169 224 275 335 405
#     4  11  22  40  64  92 132 173 219 277 345 414
#     4  10  23  37  61  99 130 168 228 278 335 406
#     4  10  21  37  61  94 128 168 220 274 335 397
#
# _framework density 22.238568999999998
#
# number of rings (size 3 to 8) (size 9 to 14) (size 15 to 20)
#    0.000    1.333    1.667    6.000    0.000    0.000 
#    0.000    0.833    0.000   63.000    0.000    0.000 
#    0.000    0.000    0.000    0.000    0.000    0.000 
#
# Total GULP energy -267877.721131 kJ/mol
# GULP energy per Si atom -5580.785857 kJ/mol
# Density = 2.218795 g / cm^3
# Si number density = 22.238569 Si / 1000 Ang^3
#
#
#
# Elastic Constant Matrix: (Units=GPa)
#
#
# Indices 1 2 3 4 5 6 
#
# 1 45.4673 9.7447 -0.7265 0.0000 0.0000 0.0000
# 2 9.7447 45.4673 -0.7265 0.0000 0.0000 0.0000
# 3 -0.7265 -0.7265 101.3484 0.0000 0.0000 0.0000
# 4 0.0000 0.0000 0.0000 33.4377 0.0000 0.0000
# 5 0.0000 0.0000 0.0000 0.0000 33.4377 0.0000
# 6 0.0000 0.0000 0.0000 0.0000 0.0000 12.9554
#
#
#
# Elastic Compliance Matrix: (Units=1/GPa)
#
#
# Indices 1 2 3 4 5 6 
#
# 1 0.023054 -0.004939 0.000130 0.000000 0.000000 0.000000
# 2 -0.004939 0.023054 0.000130 0.000000 0.000000 0.000000
# 3 0.000130 0.000130 0.009869 0.000000 0.000000 0.000000
# 4 0.000000 0.000000 0.000000 0.029906 0.000000 0.000000
# 5 0.000000 0.000000 0.000000 0.000000 0.029906 0.000000
# 6 0.000000 0.000000 0.000000 0.000000 0.000000 0.077188
#
#
# Mechanical properties :
#
#
# Convention : Reuss Voigt Hill
#
# Bulk Modulus (GPa) = 21.45044 23.20737 22.32890
# Shear Modulus (GPa) = 22.94880 28.23226 25.59053
#
# Velocity S-wave (km/s) = 3.21586 3.56689 3.39592
# Velocity P-wave (km/s) = 4.84310 5.23660 5.04368
#
# Compressibility (1/GPa) = 0.04661909
#
# Stress axis : x y z
#
# Youngs Moduli (GPa) = 43.37562 43.37562 101.32923
#
# Poissons Ratio (x) = 0.21423 -0.01316
# Poissons Ratio (y) = 0.21423 -0.01316
# Poissons Ratio (z) = -0.00563 -0.00563
#
# Static dielectric constant tensor:
#      x y z
#    x 1.848360 0.000000 0.000000 
#    y 0.000000 1.848360 0.000000 
#    z 0.000000 0.000000 1.826780 
# 
# From -- ./inp_files/891.got.cif
#   From: 2010.05.17/outbox.cif.g08.bks.cpg/sg114_1_cif.got.tgz:891.got - 2010.05.20 11:04:54.
