data_PCOD9556944
_publ_section_title
;
Structure prediction by ZEFSAII (Michael W. Deem and Ramdas Pophale) SiO2 
 PCOD9556944
Probable space group: P -4 M 2
;
_chemical_formula_sum "Si O2"
_cell_formula_units_Z 40
_cell_length_a 8.126037
_cell_length_b 8.126037
_cell_length_c 29.821344
_cell_angle_alpha 90.000000
_cell_angle_beta 90.000000
_cell_angle_gamma 90.000000
_cell_volume 1969.177221
_symmetry_space_group_name_H-M "P -4 M 2"
_symmetry_group_IT_number 115
_symmetry_cell_setting 'tetragonal'
loop_
_space_group_symop_operation_xyz
x,y,z
y,-x,-z
-x,-y,z
-y,x,-z
y,x,-z
-y,-x,-z
-x,y,z
x,-y,z
loop_
_atom_site_type_symbol
_atom_site_label
_atom_site_fract_x
_atom_site_fract_y
_atom_site_fract_z
Si Si1 0.677360 0.302860 0.765304
Si Si2 0.298195 0.000000 0.286736
Si Si3 0.313527 0.197977 0.951693
Si Si4 0.184265 0.199106 0.856456
Si Si5 0.300402 0.687528 0.448168
Si Si6 0.298475 0.000000 0.390611
O O1 0.500000 0.239415 0.749526
O O2 0.677315 0.500000 0.760076
O O3 0.698308 0.263933 0.817836
O O4 0.835814 0.239331 0.738607
O O5 0.500000 0.000000 0.285062
O O6 0.250510 0.000000 0.338662
O O7 0.500000 0.257355 0.948649
O O8 0.220978 0.256071 0.907053
O O9 0.312443 0.000000 0.949802
O O10 0.244822 0.244822 0.000000
O O11 0.000000 0.250472 0.844157
O O12 0.192792 0.000000 0.856314
O O13 0.267171 0.732830 0.500000
O O14 0.500000 0.680821 0.444630
O O15 0.240696 0.500000 0.439335
O O16 0.243021 0.833418 0.415746
O O17 0.500000 0.000000 0.392225
#
# Coordination Sequence:
#
# PCOD9556944 Si02
#       6
#     8   4   8   8   8   4
#     4  10  20  34  53  77 107 143 180 225 280 333
#     4   9  18  32  47  73 111 141 181 233 273 328
#     4  10  21  36  53  75 103 133 168 212 263 322
#     4  10  20  35  57  81 102 133 179 226 273 327
#     4   8  14  25  42  69 103 135 176 227 271 322
#     4   9  16  26  46  74 104 144 183 221 277 331
#
# _framework density 20.313051999999999
#
# number of rings (size 3 to 8) (size 9 to 14) (size 15 to 20)
#    0.000    2.600    1.000    1.800    0.000    4.000 
#    0.000    4.000    0.000    0.300    5.200    0.000 
#    0.000    0.000    0.000    0.000    0.000    0.000 
#
# Total GULP energy -223120.654606 kJ/mol
# GULP energy per Si atom -5578.016365 kJ/mol
# Density = 2.026682 g / cm^3
# Si number density = 20.313052 Si / 1000 Ang^3
#
#
#
# Elastic Constant Matrix: (Units=GPa)
#
#
# Indices 1 2 3 4 5 6 
#
# 1 65.8802 23.7015 45.7126 0.0000 0.0000 0.0000
# 2 23.7015 65.8800 45.7126 0.0000 0.0000 0.0000
# 3 45.7126 45.7126 138.1054 0.0000 0.0000 0.0000
# 4 0.0000 0.0000 0.0000 15.4044 0.0000 0.0000
# 5 0.0000 0.0000 0.0000 0.0000 15.4045 0.0000
# 6 0.0000 0.0000 0.0000 0.0000 0.0000 8.8716
#
#
#
# Elastic Compliance Matrix: (Units=1/GPa)
#
#
# Indices 1 2 3 4 5 6 
#
# 1 0.020283 -0.003425 -0.005580 0.000000 0.000000 0.000000
# 2 -0.003425 0.020283 -0.005580 0.000000 0.000000 0.000000
# 3 -0.005580 -0.005580 0.010935 0.000000 0.000000 0.000000
# 4 0.000000 0.000000 0.000000 0.064916 0.000000 0.000000
# 5 0.000000 0.000000 0.000000 0.000000 0.064916 0.000000
# 6 0.000000 0.000000 0.000000 0.000000 0.000000 0.112719
#
#
# Mechanical properties :
#
#
# Convention : Reuss Voigt Hill
#
# Bulk Modulus (GPa) = 44.78152 55.56876 50.17514
# Shear Modulus (GPa) = 15.12096 18.25203 16.68649
#
# Velocity S-wave (km/s) = 2.73132 3.00081 2.86923
# Velocity P-wave (km/s) = 5.66042 6.27870 5.97756
#
# Compressibility (1/GPa) = 0.02233064
#
# Stress axis : x y z
#
# Youngs Moduli (GPa) = 49.30203 49.30185 91.45205
#
# Poissons Ratio (x) = 0.16888 0.51029
# Poissons Ratio (y) = 0.16888 0.51029
# Poissons Ratio (z) = 0.27510 0.27510
#
# Static dielectric constant tensor:
#      x y z
#    x 1.729540 0.000000 0.000000 
#    y 0.000000 1.729540 0.000000 
#    z 0.000000 0.000000 1.701530 
# 
# From -- ./inp_files/5495.got.cif
#   From: 2010.05.17/outbox.cif.g08.bks.cpg/sg115_3_cif.got.tgz:5495.got - 2010.05.20 11:07:42.
