data_PCOD9556596
_publ_section_title
;
Structure prediction by ZEFSAII (Michael W. Deem and Ramdas Pophale) SiO2 
 PCOD9556596
Probable space group: P -4 M 2
;
_chemical_formula_sum "Si O2"
_cell_formula_units_Z 40
_cell_length_a 8.056568
_cell_length_b 8.056568
_cell_length_c 30.342749
_cell_angle_alpha 90.000000
_cell_angle_beta 90.000000
_cell_angle_gamma 90.000000
_cell_volume 1969.495889
_symmetry_space_group_name_H-M "P -4 M 2"
_symmetry_group_IT_number 115
_symmetry_cell_setting 'tetragonal'
loop_
_space_group_symop_operation_xyz
x,y,z
y,-x,-z
-x,-y,z
-y,x,-z
y,x,-z
-y,-x,-z
-x,y,z
x,-y,z
loop_
_atom_site_type_symbol
_atom_site_label
_atom_site_fract_x
_atom_site_fract_y
_atom_site_fract_z
Si Si1 0.682564 0.297078 0.360908
Si Si2 0.000000 0.697401 0.204108
Si Si3 0.000000 0.703626 0.304614
Si Si4 0.686757 0.802005 0.046715
Si Si5 0.193322 0.307332 0.453624
Si Si6 0.799627 0.306224 0.856361
O O1 0.500000 0.248522 0.344887
O O2 0.688856 0.500000 0.362191
O O3 0.708301 0.241148 0.411435
O O4 0.834841 0.242702 0.330586
O O5 0.167585 0.747401 0.178432
O O6 0.000000 0.500000 0.206613
O O7 0.000000 0.761710 0.254234
O O8 0.000000 0.500000 0.304859
O O9 0.500000 0.736419 0.043266
O O10 0.750756 0.742395 0.094348
O O11 0.680952 0.000000 0.050876
O O12 0.769063 0.769063 0.000000
O O13 0.219207 0.219207 0.500000
O O14 0.241150 0.500000 0.460561
O O15 0.000000 0.303025 0.441163
O O16 0.745772 0.500000 0.849365
O O17 0.000000 0.309896 0.855914
#
# Coordination Sequence:
#
# PCOD9556596 Si02
#       6
#     8   4   4   8   8   8
#     4   9  16  29  51  75 105 145 184 230 285 343
#     4  11  23  35  57  89 119 151 191 247 307 360
#     4   9  18  33  49  77 115 145 183 235 295 354
#     4   9  19  34  52  77 107 140 180 225 275 336
#     4  10  19  31  49  75 107 140 180 227 274 335
#     4   9  20  40  60  79 111 154 198 241 289 354
#
# _framework density 20.309767000000001
#
# number of rings (size 3 to 8) (size 9 to 14) (size 15 to 20)
#    0.000    2.600    1.000    2.100    1.400    3.600 
#    0.000    4.000    0.000    2.400    0.000    2.800 
#    0.000    0.000    0.000    0.000    0.000    0.000 
#
# Total GULP energy -222964.222117 kJ/mol
# GULP energy per Si atom -5574.105553 kJ/mol
# Density = 2.026354 g / cm^3
# Si number density = 20.309767 Si / 1000 Ang^3
#
#
#
# Elastic Constant Matrix: (Units=GPa)
#
#
# Indices 1 2 3 4 5 6 
#
# 1 63.9043 23.4400 54.1847 0.0000 0.0000 0.0000
# 2 23.4400 63.9043 54.1847 0.0000 0.0000 0.0000
# 3 54.1847 54.1847 171.0461 0.0000 0.0000 0.0000
# 4 0.0000 0.0000 0.0000 24.6662 0.0000 0.0000
# 5 0.0000 0.0000 0.0000 0.0000 24.6662 0.0000
# 6 0.0000 0.0000 0.0000 0.0000 0.0000 25.4737
#
#
#
# Elastic Compliance Matrix: (Units=1/GPa)
#
#
# Indices 1 2 3 4 5 6 
#
# 1 0.021788 -0.002925 -0.005975 0.000000 0.000000 0.000000
# 2 -0.002925 0.021788 -0.005975 0.000000 0.000000 0.000000
# 3 -0.005975 -0.005975 0.009632 0.000000 0.000000 0.000000
# 4 0.000000 0.000000 0.000000 0.040541 0.000000 0.000000
# 5 0.000000 0.000000 0.000000 0.000000 0.040541 0.000000
# 6 0.000000 0.000000 0.000000 0.000000 0.000000 0.039256
#
#
# Mechanical properties :
#
#
# Convention : Reuss Voigt Hill
#
# Bulk Modulus (GPa) = 42.63297 62.49706 52.56502
# Shear Modulus (GPa) = 23.68348 26.09757 24.89053
#
# Velocity S-wave (km/s) = 3.41854 3.58855 3.50458
# Velocity P-wave (km/s) = 6.05135 6.92885 6.50491
#
# Compressibility (1/GPa) = 0.02345602
#
# Stress axis : x y z
#
# Youngs Moduli (GPa) = 45.89694 45.89694 103.81820
#
# Poissons Ratio (x) = 0.13426 0.62036
# Poissons Ratio (y) = 0.13426 0.62036
# Poissons Ratio (z) = 0.27425 0.27425
#
# Static dielectric constant tensor:
#      x y z
#    x 1.729810 0.000000 0.000000 
#    y 0.000000 1.729810 0.000000 
#    z 0.000000 0.000000 1.736400 
# 
# From -- ./inp_files/5543.got.cif
#   From: 2010.05.17/outbox.cif.g08.bks.cpg/sg115_3_cif.got.tgz:5543.got - 2010.05.20 11:07:42.
