data_PCOD9556629
_publ_section_title
;
Structure prediction by ZEFSAII (Michael W. Deem and Ramdas Pophale) SiO2 
 PCOD9556629
Probable space group: P -4 M 2
;
_chemical_formula_sum "Si O2"
_cell_formula_units_Z 56
_cell_length_a 15.402752
_cell_length_b 15.402752
_cell_length_c 13.973054
_cell_angle_alpha 90.000000
_cell_angle_beta 90.000000
_cell_angle_gamma 90.000000
_cell_volume 3315.033971
_symmetry_space_group_name_H-M "P -4 M 2"
_symmetry_group_IT_number 115
_symmetry_cell_setting 'tetragonal'
loop_
_space_group_symop_operation_xyz
x,y,z
y,-x,-z
-x,-y,z
-y,x,-z
y,x,-z
-y,-x,-z
-x,y,z
x,-y,z
loop_
_atom_site_type_symbol
_atom_site_label
_atom_site_fract_x
_atom_site_fract_y
_atom_site_fract_z
Si Si1 0.600265 0.251024 0.893427
Si Si2 0.142103 0.900883 0.110185
Si Si3 0.754484 0.098961 0.394482
Si Si4 0.334611 0.097641 0.192298
Si Si5 0.595033 0.276605 0.122238
Si Si6 0.244756 0.100163 0.605985
Si Si7 0.098106 0.712966 0.186725
O O1 0.500000 0.245543 0.860770
O O2 0.655948 0.330134 0.849374
O O3 0.656725 0.165807 0.872375
O O4 0.598087 0.266545 0.007347
O O5 0.245469 0.899001 0.130073
O O6 0.107360 0.816717 0.167040
O O7 0.113683 0.000000 0.135900
O O8 0.116889 0.883112 0.000000
O O9 0.692965 0.109298 0.303252
O O10 0.833602 0.165275 0.388055
O O11 0.714057 0.110766 0.500459
O O12 0.787337 0.000000 0.389282
O O13 0.389877 0.180294 0.162632
O O14 0.371302 0.000000 0.180393
O O15 0.500000 0.309093 0.149714
O O16 0.301587 0.114798 0.700331
O O17 0.215071 0.000000 0.612417
O O18 0.000000 0.688429 0.162577
#
# Coordination Sequence:
#
# PCOD9556629 Si02
#       7
#     8   8   8   8   8   8   8
#     4  10  21  37  55  75 102 132 165 208 254 301
#     4  11  21  32  45  66 100 141 179 211 245 288
#     4   9  16  28  44  64  93 130 169 210 257 299
#     4  10  19  32  51  73 102 138 169 206 253 299
#     4  10  20  35  56  79 102 129 165 207 251 303
#     4   9  17  27  43  66  92 126 171 217 254 294
#     4  11  21  33  50  73 102 137 175 212 250 294
#
# _framework density 16.892737
#
# number of rings (size 3 to 8) (size 9 to 14) (size 15 to 20)
#    0.000    2.000    2.857    1.286    0.000    3.857 
#    0.000    5.714    0.000    0.857    0.000    4.000 
#    0.000    0.000    0.000    6.000    0.000    0.286 
#
# Total GULP energy -311937.695497 kJ/mol
# GULP energy per Si atom -5570.315991 kJ/mol
# Density = 1.685429 g / cm^3
# Si number density = 16.892737 Si / 1000 Ang^3
#
#
#
# Elastic Constant Matrix: (Units=GPa)
#
#
# Indices 1 2 3 4 5 6 
#
# 1 75.9700 39.3500 13.5850 0.0000 0.0000 0.0000
# 2 39.3500 75.9700 13.5847 0.0000 0.0000 0.0000
# 3 13.5850 13.5847 44.5725 0.0000 0.0000 0.0000
# 4 0.0000 0.0000 0.0000 10.4811 0.0000 0.0000
# 5 0.0000 0.0000 0.0000 0.0000 10.4811 0.0000
# 6 0.0000 0.0000 0.0000 0.0000 0.0000 -58.1086
#
#
#
# Elastic Compliance Matrix: (Units=1/GPa)
#
#
# Indices 1 2 3 4 5 6 
#
# 1 0.018325 -0.008983 -0.002847 0.000000 0.000000 0.000000
# 2 -0.008983 0.018325 -0.002847 0.000000 0.000000 0.000000
# 3 -0.002847 -0.002847 0.024171 0.000000 0.000000 0.000000
# 4 0.000000 0.000000 0.000000 0.095410 0.000000 0.000000
# 5 0.000000 0.000000 0.000000 0.000000 0.095410 0.000000
# 6 0.000000 0.000000 0.000000 0.000000 0.000000 -0.017209
#
#
# Mechanical properties :
#
#
# Convention : Reuss Voigt Hill
#
# Bulk Modulus (GPa) = 31.78011 36.61688 34.19850
# Shear Modulus (GPa) = 18.22988 1.23691 9.73339
#
# Velocity S-wave (km/s) = 3.28861 0.85662 2.40300
# Velocity P-wave (km/s) = 5.76834 4.76462 5.29033
#
# Compressibility (1/GPa) = 0.03146622
#
# Stress axis : x y z
#
# Youngs Moduli (GPa) = 54.57041 54.57058 41.37191
#
# Poissons Ratio (x) = 0.49018 0.11781
# Poissons Ratio (y) = 0.49018 0.11780
# Poissons Ratio (z) = 0.15539 0.15538
#
# Static dielectric constant tensor:
#      x y z
#    x 1.568180 0.000000 0.000000 
#    y 0.000000 1.568180 0.000000 
#    z 0.000000 0.000000 1.617460 
# 
# From -- ./inp_files/3819.got.cif
#   From: 2010.05.17/outbox.cif.g08.bks.cpg/sg115_2_cif.got.tgz:3819.got - 2010.05.20 11:07:42.
