data_PCOD9556832
_publ_section_title
;
Structure prediction by ZEFSAII (Michael W. Deem and Ramdas Pophale) SiO2 
 PCOD9556832
Probable space group: P -4 M 2
;
_chemical_formula_sum "Si O2"
_cell_formula_units_Z 49
_cell_length_a 8.824857
_cell_length_b 8.824857
_cell_length_c 30.815273
_cell_angle_alpha 90.000000
_cell_angle_beta 90.000000
_cell_angle_gamma 90.000000
_cell_volume 2399.834945
_symmetry_space_group_name_H-M "P -4 M 2"
_symmetry_group_IT_number 115
_symmetry_cell_setting 'tetragonal'
loop_
_space_group_symop_operation_xyz
x,y,z
y,-x,-z
-x,-y,z
-y,x,-z
y,x,-z
-y,-x,-z
-x,y,z
x,-y,z
loop_
_atom_site_type_symbol
_atom_site_label
_atom_site_fract_x
_atom_site_fract_y
_atom_site_fract_z
Si Si1 0.171907 0.814927 0.238899
Si Si2 0.169368 0.500000 0.007503
Si Si3 0.500000 0.500000 0.000000
Si Si4 0.319712 0.319712 0.500000
Si Si5 0.324441 0.179864 0.589465
Si Si6 0.817311 0.328023 0.672737
Si Si7 0.172188 0.819877 0.061956
Si Si8 0.183002 0.331477 0.847947
O O1 0.269946 0.765829 0.280107
O O2 0.229919 0.762285 0.191971
O O3 0.000000 0.767595 0.245784
O O4 0.175497 0.000000 0.238277
O O5 0.327551 0.500000 0.980238
O O6 0.176123 0.662426 0.033436
O O7 0.000000 0.500000 0.986975
O O8 0.292859 0.500000 0.501976
O O9 0.261223 0.248850 0.544760
O O10 0.500000 0.230295 0.593236
O O11 0.239962 0.230109 0.632710
O O12 0.321613 0.000000 0.585738
O O13 0.767209 0.500000 0.666078
O O14 0.000000 0.324085 0.673148
O O15 0.274881 0.790289 0.103508
O O16 0.000000 0.826722 0.077508
O O17 0.197046 0.000000 0.045516
O O18 0.242913 0.500000 0.842324
O O19 0.000000 0.335314 0.844255
#
# Coordination Sequence:
#
# PCOD9556832 Si02
#       8
#     8   4   1   4   8   8   8   8
#     4   9  16  27  45  71 106 145 185 230 278 331
#     4  10  24  44  64  94 130 164 210 264 312 374
#     4  12  28  44  68  96 124 172 212 252 324 376
#     4   9  18  34  54  73  94 124 164 207 256 311
#     4  10  21  36  54  76 102 132 165 207 261 322
#     4  10  20  33  51  75 103 138 179 222 267 320
#     4   9  18  35  60  88 120 160 203 251 309 365
#     4   9  16  26  46  79 113 148 192 238 284 341
#
# _framework density 20.418071000000001
#
# number of rings (size 3 to 8) (size 9 to 14) (size 15 to 20)
#    0.000    2.531    0.000    1.959    1.143    7.184 
#    0.000    1.633    1.796    0.000    0.000    0.000 
#    0.000    0.000    0.000    0.000    0.000    0.000 
#
# Total GULP energy -272820.454094 kJ/mol
# GULP energy per Si atom -5567.764369 kJ/mol
# Density = 2.037160 g / cm^3
# Si number density = 20.418071 Si / 1000 Ang^3
#
#
#
# Elastic Constant Matrix: (Units=GPa)
#
#
# Indices 1 2 3 4 5 6 
#
# 1 61.8626 7.5726 24.7169 0.0000 0.0000 0.0000
# 2 7.5726 61.8626 24.7169 0.0000 0.0000 0.0000
# 3 24.7169 24.7169 53.6181 0.0000 0.0000 0.0000
# 4 0.0000 0.0000 0.0000 30.5475 0.0000 0.0000
# 5 0.0000 0.0000 0.0000 0.0000 30.5475 0.0000
# 6 0.0000 0.0000 0.0000 0.0000 0.0000 17.3480
#
#
#
# Elastic Compliance Matrix: (Units=1/GPa)
#
#
# Indices 1 2 3 4 5 6 
#
# 1 0.019929 0.001509 -0.009882 0.000000 0.000000 0.000000
# 2 0.001509 0.019929 -0.009882 0.000000 0.000000 0.000000
# 3 -0.009882 -0.009882 0.027761 0.000000 0.000000 0.000000
# 4 0.000000 0.000000 0.000000 0.032736 0.000000 0.000000
# 5 0.000000 0.000000 0.000000 0.000000 0.032736 0.000000
# 6 0.000000 0.000000 0.000000 0.000000 0.000000 0.057644
#
#
# Mechanical properties :
#
#
# Convention : Reuss Voigt Hill
#
# Bulk Modulus (GPa) = 32.14664 32.37287 32.25976
# Shear Modulus (GPa) = 21.04250 23.71105 22.37677
#
# Velocity S-wave (km/s) = 3.21375 3.41145 3.31407
# Velocity P-wave (km/s) = 5.43593 5.60417 5.52069
#
# Compressibility (1/GPa) = 0.03110745
#
# Stress axis : x y z
#
# Youngs Moduli (GPa) = 50.17928 50.17928 36.02116
#
# Poissons Ratio (x) = -0.07572 0.35597
# Poissons Ratio (y) = -0.07572 0.35597
# Poissons Ratio (z) = 0.49588 0.49588
#
# Static dielectric constant tensor:
#      x y z
#    x 1.740470 0.000000 0.000000 
#    y 0.000000 1.740470 0.000000 
#    z 0.000000 0.000000 1.702680 
# 
# From -- ./inp_files/6309.got.cif
#   From: 2010.05.17/outbox.cif.g08.bks.cpg/sg115_4_cif.got.tgz:6309.got - 2010.05.20 11:07:42.
