data_PCOD9556912
_publ_section_title
;
Structure prediction by ZEFSAII (Michael W. Deem and Ramdas Pophale) SiO2 
 PCOD9556912
Probable space group: P -4 M 2
;
_chemical_formula_sum "Si O2"
_cell_formula_units_Z 32
_cell_length_a 7.721015
_cell_length_b 7.721015
_cell_length_c 25.613883
_cell_angle_alpha 90.000000
_cell_angle_beta 90.000000
_cell_angle_gamma 90.000000
_cell_volume 1526.947882
_symmetry_space_group_name_H-M "P -4 M 2"
_symmetry_group_IT_number 115
_symmetry_cell_setting 'tetragonal'
loop_
_space_group_symop_operation_xyz
x,y,z
y,-x,-z
-x,-y,z
-y,x,-z
y,x,-z
-y,-x,-z
-x,y,z
x,-y,z
loop_
_atom_site_type_symbol
_atom_site_label
_atom_site_fract_x
_atom_site_fract_y
_atom_site_fract_z
Si Si1 0.212864 0.300222 0.831082
Si Si2 0.288451 0.302347 0.558540
Si Si3 0.791963 0.000000 0.754843
Si Si4 0.807043 0.294708 0.943175
Si Si5 0.000000 0.292004 0.366662
O O1 0.265575 0.500000 0.822343
O O2 0.273297 0.234080 0.888449
O O3 0.000000 0.299512 0.833393
O O4 0.269155 0.170482 0.785848
O O5 0.242189 0.242189 0.500000
O O6 0.500000 0.306042 0.558746
O O7 0.229588 0.500000 0.566610
O O8 0.228492 0.169951 0.602609
O O9 0.748132 0.000000 0.694212
O O10 0.000000 0.000000 0.758877
O O11 0.819055 0.500000 0.934695
O O12 0.000000 0.219909 0.947031
O O13 0.727153 0.272848 0.000000
O O14 0.000000 0.500000 0.371751
#
# Coordination Sequence:
#
# PCOD9556912 Si02
#       5
#     8   8   4   8   4
#     4   8  16  32  51  70  98 136 175 216 260 313
#     4   8  15  31  54  76 102 139 175 209 260 320
#     4  10  20  34  52  72 102 138 178 213 260 308
#     4   9  18  31  48  73  99 125 164 212 262 315
#     4  10  20  34  52  78 108 136 172 221 264 306
#
# _framework density 20.956837
#
# number of rings (size 3 to 8) (size 9 to 14) (size 15 to 20)
#    0.000    3.250    0.000    2.250    1.750    1.500 
#    2.250    1.250    0.000    1.500    0.000    0.000 
#    0.000    0.000    0.000    0.000    0.000    0.000 
#
# Total GULP energy -178356.327300 kJ/mol
# GULP energy per Si atom -5573.635228 kJ/mol
# Density = 2.090914 g / cm^3
# Si number density = 20.956837 Si / 1000 Ang^3
#
#
#
# Elastic Constant Matrix: (Units=GPa)
#
#
# Indices 1 2 3 4 5 6 
#
# 1 63.4093 18.2355 60.0865 0.0000 0.0000 0.0000
# 2 18.2355 63.4091 60.0861 0.0000 0.0000 0.0000
# 3 60.0865 60.0861 233.1056 0.0000 0.0000 0.0000
# 4 0.0000 0.0000 0.0000 35.3232 0.0000 0.0000
# 5 0.0000 0.0000 0.0000 0.0000 35.3234 0.0000
# 6 0.0000 0.0000 0.0000 0.0000 0.0000 -9.9584
#
#
#
# Elastic Compliance Matrix: (Units=1/GPa)
#
#
# Indices 1 2 3 4 5 6 
#
# 1 0.020936 -0.001200 -0.005087 0.000000 0.000000 0.000000
# 2 -0.001200 0.020936 -0.005087 0.000000 0.000000 0.000000
# 3 -0.005087 -0.005087 0.006913 0.000000 0.000000 0.000000
# 4 0.000000 0.000000 0.000000 0.028310 0.000000 0.000000
# 5 0.000000 0.000000 0.000000 0.000000 0.028310 0.000000
# 6 0.000000 0.000000 0.000000 0.000000 0.000000 -0.100418
#
#
# Mechanical properties :
#
#
# Convention : Reuss Voigt Hill
#
# Bulk Modulus (GPa) = 38.40877 70.74892 54.57885
# Shear Modulus (GPa) = 137.30214 26.90536 82.10375
#
# Velocity S-wave (km/s) = 8.10302 3.58697 6.26599
# Velocity P-wave (km/s) = 10.29138 7.14057 8.85721
#
# Compressibility (1/GPa) = 0.02603572
#
# Stress axis : x y z
#
# Youngs Moduli (GPa) = 47.76359 47.76355 144.66473
#
# Poissons Ratio (x) = 0.05733 0.73595
# Poissons Ratio (y) = 0.05733 0.73595
# Poissons Ratio (z) = 0.24299 0.24299
#
# Static dielectric constant tensor:
#      x y z
#    x 1.783650 0.000000 0.000000 
#    y 0.000000 1.783650 0.000000 
#    z 0.000000 0.000000 1.752430 
# 
# From -- ./inp_files/5044.got.cif
#   From: 2010.05.17/outbox.cif.g08.bks.cpg/sg115_3_cif.got.tgz:5044.got - 2010.05.20 11:07:42.
