data_PCOD9556630
_publ_section_title
;
Structure prediction by ZEFSAII (Michael W. Deem and Ramdas Pophale) SiO2 
 PCOD9556630
Probable space group: P -4 M 2
;
_chemical_formula_sum "Si O2"
_cell_formula_units_Z 64
_cell_length_a 14.180918
_cell_length_b 14.180918
_cell_length_c 18.946788
_cell_angle_alpha 90.000000
_cell_angle_beta 90.000000
_cell_angle_gamma 90.000000
_cell_volume 3810.169421
_symmetry_space_group_name_H-M "P -4 M 2"
_symmetry_group_IT_number 115
_symmetry_cell_setting 'tetragonal'
loop_
_space_group_symop_operation_xyz
x,y,z
y,-x,-z
-x,-y,z
-y,x,-z
y,x,-z
-y,-x,-z
-x,y,z
x,-y,z
loop_
_atom_site_type_symbol
_atom_site_label
_atom_site_fract_x
_atom_site_fract_y
_atom_site_fract_z
Si Si1 0.387315 0.388732 0.719693
Si Si2 0.744537 0.270692 0.174771
Si Si3 0.701198 0.611686 0.567597
Si Si4 0.389767 0.897420 0.369997
Si Si5 0.891224 0.782773 0.721568
Si Si6 0.611312 0.109678 0.916094
Si Si7 0.746696 0.611544 0.957890
Si Si8 0.114654 0.890881 0.577685
O O1 0.500000 0.378917 0.726366
O O2 0.363815 0.500000 0.732826
O O3 0.333115 0.318364 0.771653
O O4 0.354133 0.366546 0.639939
O O5 0.790458 0.182637 0.215797
O O6 0.827662 0.331515 0.139561
O O7 0.672365 0.240825 0.112758
O O8 0.663425 0.663425 0.500000
O O9 0.690727 0.500000 0.556230
O O10 0.810631 0.633120 0.580474
O O11 0.500000 0.891618 0.353024
O O12 0.327149 0.890830 0.300494
O O13 0.369345 0.000000 0.402447
O O14 0.860521 0.835152 0.648952
O O15 0.000000 0.810332 0.737283
O O16 0.500000 0.113612 0.898987
O O17 0.639755 0.000000 0.918447
O O18 0.622638 0.162857 0.991072
O O19 0.731749 0.500000 0.944956
O O20 0.658420 0.658420 0.000000
O O21 0.145412 0.854589 0.500000
O O22 0.000000 0.889394 0.574549
O O23 0.144094 0.000000 0.585034
#
# Coordination Sequence:
#
# PCOD9556630 Si02
#       8
#     8   8   8   8   8   8   8   8
#     4  10  20  33  50  75 107 139 171 213 266 318
#     4  11  20  33  52  80 108 139 169 210 259 311
#     4  10  19  32  51  73  99 137 184 227 265 309
#     4   9  18  33  50  68  96 134 173 214 262 313
#     4  10  20  32  48  75 107 137 172 213 260 313
#     4   9  19  37  58  77 101 137 177 212 249 303
#     4   9  19  34  54  79 106 132 166 208 251 303
#     4   8  15  30  51  72  95 125 164 213 263 306
#
# _framework density 16.797153999999999
#
# number of rings (size 3 to 8) (size 9 to 14) (size 15 to 20)
#    0.000    2.500    1.250    1.500    0.000    3.250 
#    0.000    0.000    0.000    0.750    0.000    1.750 
#    0.000    0.000    0.000    0.000    0.000    0.000 
#
# Total GULP energy -356654.293032 kJ/mol
# GULP energy per Si atom -5572.723329 kJ/mol
# Density = 1.675892 g / cm^3
# Si number density = 16.797154 Si / 1000 Ang^3
#
#
#
# Elastic Constant Matrix: (Units=GPa)
#
#
# Indices 1 2 3 4 5 6 
#
# 1 83.4729 43.6987 53.3758 0.0000 0.0000 0.0000
# 2 43.6987 83.4730 53.3759 0.0000 0.0000 0.0000
# 3 53.3758 53.3759 101.4177 0.0000 0.0000 0.0000
# 4 0.0000 0.0000 0.0000 20.9725 0.0000 0.0000
# 5 0.0000 0.0000 0.0000 0.0000 20.9725 0.0000
# 6 0.0000 0.0000 0.0000 0.0000 0.0000 18.5174
#
#
#
# Elastic Compliance Matrix: (Units=1/GPa)
#
#
# Indices 1 2 3 4 5 6 
#
# 1 0.019614 -0.005528 -0.007414 0.000000 0.000000 0.000000
# 2 -0.005528 0.019614 -0.007414 0.000000 0.000000 0.000000
# 3 -0.007414 -0.007414 0.017664 0.000000 0.000000 0.000000
# 4 0.000000 0.000000 0.000000 0.047682 0.000000 0.000000
# 5 0.000000 0.000000 0.000000 0.000000 0.047682 0.000000
# 6 0.000000 0.000000 0.000000 0.000000 0.000000 0.054003
#
#
# Mechanical properties :
#
#
# Convention : Reuss Voigt Hill
#
# Bulk Modulus (GPa) = 61.79631 63.25161 62.52396
# Shear Modulus (GPa) = 19.81269 19.95335 19.88302
#
# Velocity S-wave (km/s) = 3.43815 3.45033 3.44425
# Velocity P-wave (km/s) = 7.25471 7.32195 7.28841
#
# Compressibility (1/GPa) = 0.01618220
#
# Stress axis : x y z
#
# Youngs Moduli (GPa) = 50.98312 50.98311 56.61239
#
# Poissons Ratio (x) = 0.28181 0.41971
# Poissons Ratio (y) = 0.28181 0.41972
# Poissons Ratio (z) = 0.37798 0.37798
#
# Static dielectric constant tensor:
#      x y z
#    x 1.579380 0.000000 0.000000 
#    y 0.000000 1.579380 0.000000 
#    z 0.000000 0.000000 1.553360 
# 
# From -- ./inp_files/4466.got.cif
#   From: 2010.05.17/outbox.cif.g08.bks.cpg/sg115_3_cif.got.tgz:4466.got - 2010.05.20 11:07:42.
