data_PCOD9556643
_publ_section_title
;
Structure prediction by ZEFSAII (Michael W. Deem and Ramdas Pophale) SiO2 
 PCOD9556643
Probable space group: P -4 M 2
;
_chemical_formula_sum "Si O2"
_cell_formula_units_Z 40
_cell_length_a 8.066082
_cell_length_b 8.066082
_cell_length_c 30.341940
_cell_angle_alpha 90.000000
_cell_angle_beta 90.000000
_cell_angle_gamma 90.000000
_cell_volume 1974.097555
_symmetry_space_group_name_H-M "P -4 M 2"
_symmetry_group_IT_number 115
_symmetry_cell_setting 'tetragonal'
loop_
_space_group_symop_operation_xyz
x,y,z
y,-x,-z
-x,-y,z
-y,x,-z
y,x,-z
-y,-x,-z
-x,y,z
x,-y,z
loop_
_atom_site_type_symbol
_atom_site_label
_atom_site_fract_x
_atom_site_fract_y
_atom_site_fract_z
Si Si1 0.200789 0.687458 0.547817
Si Si2 0.202635 0.000000 0.708058
Si Si3 0.316639 0.808329 0.955869
Si Si4 0.307381 0.203403 0.231474
Si Si5 0.303574 0.184115 0.135984
Si Si6 0.797700 0.000000 0.606897
O O1 0.277284 0.722717 0.500000
O O2 0.241437 0.500000 0.562386
O O3 0.253466 0.834018 0.580807
O O4 0.000000 0.697716 0.543479
O O5 0.253597 0.831633 0.733365
O O6 0.257806 0.000000 0.657426
O O7 0.000000 0.000000 0.708289
O O8 0.500000 0.754481 0.969219
O O9 0.267229 0.720023 0.911000
O O10 0.317289 0.000000 0.943829
O O11 0.211753 0.788247 0.000000
O O12 0.500000 0.253207 0.240248
O O13 0.249672 0.261152 0.182527
O O14 0.308583 0.000000 0.229731
O O15 0.500000 0.169344 0.142387
O O16 0.228660 0.000000 0.132210
O O17 0.000000 0.000000 0.607191
#
# Coordination Sequence:
#
# PCOD9556643 Si02
#       6
#     8   4   8   8   8   4
#     4  10  19  32  53  78 108 151 194 237 292 344
#     4   9  16  26  44  73 107 149 186 219 283 335
#     4  11  24  38  52  74 102 131 166 210 260 321
#     4   8  15  27  44  70 105 140 179 229 275 328
#     4   9  18  33  53  77 102 132 173 219 266 315
#     4   9  18  30  47  75 115 152 189 243 286 338
#
# _framework density 20.262425
#
# number of rings (size 3 to 8) (size 9 to 14) (size 15 to 20)
#    0.000    2.600    1.000    2.400    1.400    5.400 
#    0.000    4.000    0.000    0.000    0.000    2.800 
#    0.000    3.200    0.000    0.000    0.000    0.000 
#
# Total GULP energy -222899.450607 kJ/mol
# GULP energy per Si atom -5572.486265 kJ/mol
# Density = 2.021631 g / cm^3
# Si number density = 20.262425 Si / 1000 Ang^3
#
#
#
# Elastic Constant Matrix: (Units=GPa)
#
#
# Indices 1 2 3 4 5 6 
#
# 1 54.0481 19.3590 38.3466 0.0000 0.0000 0.0000
# 2 19.3590 54.0470 38.3471 0.0000 0.0000 0.0000
# 3 38.3466 38.3471 148.7623 0.0000 0.0000 0.0000
# 4 0.0000 0.0000 0.0000 40.3227 0.0000 0.0000
# 5 0.0000 0.0000 0.0000 0.0000 40.3239 0.0000
# 6 0.0000 0.0000 0.0000 0.0000 0.0000 10.7183
#
#
#
# Elastic Compliance Matrix: (Units=1/GPa)
#
#
# Indices 1 2 3 4 5 6 
#
# 1 0.023736 -0.005092 -0.004806 0.000000 0.000000 0.000000
# 2 -0.005092 0.023736 -0.004806 0.000000 0.000000 0.000000
# 3 -0.004806 -0.004806 0.009200 0.000000 0.000000 0.000000
# 4 0.000000 0.000000 0.000000 0.024800 0.000000 0.000000
# 5 0.000000 0.000000 0.000000 0.000000 0.024799 0.000000
# 6 0.000000 0.000000 0.000000 0.000000 0.000000 0.093298
#
#
# Mechanical properties :
#
#
# Convention : Reuss Voigt Hill
#
# Bulk Modulus (GPa) = 36.67842 49.88474 43.28158
# Shear Modulus (GPa) = 21.00271 28.99330 24.99801
#
# Velocity S-wave (km/s) = 3.22302 3.78681 3.51623
# Velocity P-wave (km/s) = 5.65610 6.61761 6.15566
#
# Compressibility (1/GPa) = 0.02726399
#
# Stress axis : x y z
#
# Youngs Moduli (GPa) = 42.13097 42.12965 108.69831
#
# Poissons Ratio (x) = 0.21453 0.52237
# Poissons Ratio (y) = 0.21453 0.52241
# Poissons Ratio (z) = 0.20247 0.20248
#
# Static dielectric constant tensor:
#      x y z
#    x 1.683710 0.000000 0.000000 
#    y 0.000000 1.683710 0.000000 
#    z 0.000000 0.000000 1.713120 
# 
# From -- ./inp_files/5506.got.cif
#   From: 2010.05.17/outbox.cif.g08.bks.cpg/sg115_3_cif.got.tgz:5506.got - 2010.05.20 11:07:42.
