data_PCOD9556905
_publ_section_title
;
Structure prediction by ZEFSAII (Michael W. Deem and Ramdas Pophale) SiO2 
 PCOD9556905
Probable space group: P -4 M 2
;
_chemical_formula_sum "Si O2"
_cell_formula_units_Z 48
_cell_length_a 9.180309
_cell_length_b 9.180309
_cell_length_c 31.795568
_cell_angle_alpha 90.000000
_cell_angle_beta 90.000000
_cell_angle_gamma 90.000000
_cell_volume 2679.669212
_symmetry_space_group_name_H-M "P -4 M 2"
_symmetry_group_IT_number 115
_symmetry_cell_setting 'tetragonal'
loop_
_space_group_symop_operation_xyz
x,y,z
y,-x,-z
-x,-y,z
-y,x,-z
y,x,-z
-y,-x,-z
-x,y,z
x,-y,z
loop_
_atom_site_type_symbol
_atom_site_label
_atom_site_fract_x
_atom_site_fract_y
_atom_site_fract_z
Si Si1 0.326837 0.826724 0.960602
Si Si2 0.177030 0.332456 0.788304
Si Si3 0.827496 0.326188 0.538979
Si Si4 0.172674 0.826516 0.296188
Si Si5 0.173020 0.324747 0.882731
Si Si6 0.671228 0.325456 0.625942
O O1 0.500000 0.801620 0.963011
O O2 0.261925 0.757703 0.918235
O O3 0.301154 0.000000 0.961480
O O4 0.248434 0.751567 0.000000
O O5 0.223201 0.500000 0.781921
O O6 0.222632 0.235965 0.748892
O O7 0.220685 0.284658 0.835197
O O8 0.000000 0.332272 0.789101
O O9 0.757823 0.242178 0.500000
O O10 0.803915 0.500000 0.533333
O O11 0.751143 0.282950 0.582700
O O12 0.000000 0.300306 0.541544
O O13 0.248001 0.742876 0.334275
O O14 0.000000 0.806088 0.297260
O O15 0.203072 0.000000 0.300376
O O16 0.189705 0.500000 0.886787
O O17 0.000000 0.293790 0.887254
O O18 0.500000 0.292528 0.623067
O O19 0.688059 0.500000 0.630689
#
# Coordination Sequence:
#
# PCOD9556905 Si02
#       6
#     8   8   8   8   8   8
#     4  11  24  39  55  78 107 139 177 219 263 314
#     4   8  15  30  53  79 107 140 177 217 260 309
#     4  10  21  37  58  83 109 139 175 216 264 316
#     4  10  20  33  52  80 111 142 178 220 266 315
#     4   9  18  34  57  84 110 137 174 218 263 314
#     4  10  21  37  57  79 104 139 182 223 264 313
#
# _framework density 17.912659999999999
#
# number of rings (size 3 to 8) (size 9 to 14) (size 15 to 20)
#    0.000    2.333    0.000    3.500    0.000    8.000 
#    0.000    2.500    0.000    1.000    0.000    0.000 
#    0.000    0.000    0.000    0.000    0.000    0.000 
#
# Total GULP energy -267947.119934 kJ/mol
# GULP energy per Si atom -5582.231665 kJ/mol
# Density = 1.787189 g / cm^3
# Si number density = 17.912660 Si / 1000 Ang^3
#
#
#
# Elastic Constant Matrix: (Units=GPa)
#
#
# Indices 1 2 3 4 5 6 
#
# 1 72.8124 71.1770 95.6750 0.0000 0.0000 0.0000
# 2 71.1770 72.8115 95.6756 0.0000 0.0000 0.0000
# 3 95.6750 95.6756 217.3323 0.0000 0.0000 0.0000
# 4 0.0000 0.0000 0.0000 35.2096 0.0000 0.0000
# 5 0.0000 0.0000 0.0000 0.0000 35.2096 0.0000
# 6 0.0000 0.0000 0.0000 0.0000 0.0000 27.1825
#
#
#
# Elastic Compliance Matrix: (Units=1/GPa)
#
#
# Indices 1 2 3 4 5 6 
#
# 1 0.314185 -0.297456 -0.007364 0.000000 0.000000 0.000000
# 2 -0.297456 0.314200 -0.007372 0.000000 0.000000 0.000000
# 3 -0.007364 -0.007372 0.011088 0.000000 0.000000 0.000000
# 4 0.000000 0.000000 0.000000 0.028401 0.000000 0.000000
# 5 0.000000 0.000000 0.000000 0.000000 0.028401 0.000000
# 6 0.000000 0.000000 0.000000 0.000000 0.000000 0.036788
#
#
# Mechanical properties :
#
#
# Convention : Reuss Voigt Hill
#
# Bulk Modulus (GPa) = 66.27079 98.66793 82.46936
# Shear Modulus (GPa) = 3.66979 26.21557 14.94268
#
# Velocity S-wave (km/s) = 1.43288 3.82975 2.89138
# Velocity P-wave (km/s) = 6.30987 8.64629 7.56878
#
# Compressibility (1/GPa) = 0.01508961
#
# Stress axis : x y z
#
# Youngs Moduli (GPa) = 3.18284 3.18269 90.18689
#
# Poissons Ratio (x) = 0.94671 0.66410
# Poissons Ratio (y) = 0.94676 0.66483
# Poissons Ratio (z) = 0.02344 0.02346
#
# Static dielectric constant tensor:
#      x y z
#    x 1.597060 0.000000 0.000000 
#    y 0.000000 1.597060 0.000000 
#    z 0.000000 0.000000 1.593020 
# 
# From -- ./inp_files/6055.got.cif
#   From: 2010.05.17/outbox.cif.g08.bks.cpg/sg115_4_cif.got.tgz:6055.got - 2010.05.20 11:07:42.
