data_PCOD9556605
_publ_section_title
;
Structure prediction by ZEFSAII (Michael W. Deem and Ramdas Pophale) SiO2 
 PCOD9556605
Probable space group: P -4 M 2
;
_chemical_formula_sum "Si O2"
_cell_formula_units_Z 40
_cell_length_a 8.016982
_cell_length_b 8.016982
_cell_length_c 30.076414
_cell_angle_alpha 90.000000
_cell_angle_beta 90.000000
_cell_angle_gamma 90.000000
_cell_volume 1933.071292
_symmetry_space_group_name_H-M "P -4 M 2"
_symmetry_group_IT_number 115
_symmetry_cell_setting 'tetragonal'
loop_
_space_group_symop_operation_xyz
x,y,z
y,-x,-z
-x,-y,z
-y,x,-z
y,x,-z
-y,-x,-z
-x,y,z
x,-y,z
loop_
_atom_site_type_symbol
_atom_site_label
_atom_site_fract_x
_atom_site_fract_y
_atom_site_fract_z
Si Si1 0.187652 0.701457 0.855983
Si Si2 0.702768 0.309828 0.449059
Si Si3 0.296877 0.303938 0.048068
Si Si4 0.322085 0.800613 0.764356
Si Si5 0.298150 0.000000 0.390115
Si Si6 0.201752 0.000000 0.287531
O O1 0.200225 0.500000 0.856765
O O2 0.223869 0.760935 0.906024
O O3 0.302448 0.766158 0.816730
O O4 0.000000 0.749644 0.843853
O O5 0.740044 0.259957 0.500000
O O6 0.500000 0.315823 0.446782
O O7 0.762438 0.500000 0.440745
O O8 0.761077 0.167460 0.415332
O O9 0.500000 0.289786 0.046880
O O10 0.257583 0.500000 0.050661
O O11 0.237965 0.237965 0.000000
O O12 0.500000 0.733195 0.748734
O O13 0.164246 0.733048 0.737624
O O14 0.322576 0.000000 0.758484
O O15 0.500000 0.000000 0.392554
O O16 0.246866 0.000000 0.339001
O O17 0.000000 0.000000 0.283766
#
# Coordination Sequence:
#
# PCOD9556605 Si02
#       6
#     8   8   8   8   4   4
#     4  10  19  31  51  79 107 134 172 225 280 329
#     4   8  15  31  54  79 112 150 184 225 277 328
#     4   8  14  26  44  66  96 134 171 210 261 321
#     4  10  21  38  59  77  99 142 188 225 279 343
#     4  10  20  34  56  84 112 146 190 232 276 333
#     4  10  22  40  54  74 114 144 174 232 286 327
#
# _framework density 20.692457999999998
#
# number of rings (size 3 to 8) (size 9 to 14) (size 15 to 20)
#    0.000    2.800    1.000    1.800    0.000    2.800 
#    1.800    1.000    0.000    3.600    0.000    0.000 
#    0.000    0.000    0.000    0.000    0.000    0.000 
#
# Total GULP energy -223110.873368 kJ/mol
# GULP energy per Si atom -5577.771834 kJ/mol
# Density = 2.064536 g / cm^3
# Si number density = 20.692458 Si / 1000 Ang^3
#
#
#
# Elastic Constant Matrix: (Units=GPa)
#
#
# Indices 1 2 3 4 5 6 
#
# 1 64.2119 24.3414 44.7136 0.0000 0.0000 0.0000
# 2 24.3414 64.2121 44.7136 0.0000 0.0000 0.0000
# 3 44.7136 44.7136 143.0392 0.0000 0.0000 0.0000
# 4 0.0000 0.0000 0.0000 28.5099 0.0000 0.0000
# 5 0.0000 0.0000 0.0000 0.0000 28.5099 0.0000
# 6 0.0000 0.0000 0.0000 0.0000 0.0000 3.6591
#
#
#
# Elastic Compliance Matrix: (Units=1/GPa)
#
#
# Indices 1 2 3 4 5 6 
#
# 1 0.020792 -0.004290 -0.005158 0.000000 0.000000 0.000000
# 2 -0.004290 0.020792 -0.005158 0.000000 0.000000 0.000000
# 3 -0.005158 -0.005158 0.010216 0.000000 0.000000 0.000000
# 4 0.000000 0.000000 0.000000 0.035075 0.000000 0.000000
# 5 0.000000 0.000000 0.000000 0.000000 0.035076 0.000000
# 6 0.000000 0.000000 0.000000 0.000000 0.000000 0.273290
#
#
# Mechanical properties :
#
#
# Convention : Reuss Voigt Hill
#
# Bulk Modulus (GPa) = 44.27475 55.44449 49.85962
# Shear Modulus (GPa) = 11.57456 22.64877 17.11167
#
# Velocity S-wave (km/s) = 2.36765 3.31198 2.87880
# Velocity P-wave (km/s) = 5.37749 6.44036 5.93278
#
# Compressibility (1/GPa) = 0.02258623
#
# Stress axis : x y z
#
# Youngs Moduli (GPa) = 48.09640 48.09653 97.88440
#
# Poissons Ratio (x) = 0.20631 0.50493
# Poissons Ratio (y) = 0.20631 0.50493
# Poissons Ratio (z) = 0.24810 0.24810
#
# Static dielectric constant tensor:
#      x y z
#    x 1.752650 0.000000 0.000000 
#    y 0.000000 1.752650 0.000000 
#    z 0.000000 0.000000 1.709870 
# 
# From -- ./inp_files/5538.got.cif
#   From: 2010.05.17/outbox.cif.g08.bks.cpg/sg115_3_cif.got.tgz:5538.got - 2010.05.20 11:07:42.
