data_PCOD9556569
_publ_section_title
;
Structure prediction by ZEFSAII (Michael W. Deem and Ramdas Pophale) SiO2 
 PCOD9556569
Probable space group: P -4 M 2
;
_chemical_formula_sum "Si O2"
_cell_formula_units_Z 56
_cell_length_a 14.044297
_cell_length_b 14.044297
_cell_length_c 18.595958
_cell_angle_alpha 90.000000
_cell_angle_beta 90.000000
_cell_angle_gamma 90.000000
_cell_volume 3667.909122
_symmetry_space_group_name_H-M "P -4 M 2"
_symmetry_group_IT_number 115
_symmetry_cell_setting 'tetragonal'
loop_
_space_group_symop_operation_xyz
x,y,z
y,-x,-z
-x,-y,z
-y,x,-z
y,x,-z
-y,-x,-z
-x,y,z
x,-y,z
loop_
_atom_site_type_symbol
_atom_site_label
_atom_site_fract_x
_atom_site_fract_y
_atom_site_fract_z
Si Si1 0.384619 0.891211 0.141296
Si Si2 0.890330 0.615673 0.580670
Si Si3 0.770488 0.385381 0.000001
Si Si4 0.768611 0.614579 0.281063
Si Si5 0.890330 0.615673 0.419332
Si Si6 0.385421 0.768611 0.281061
Si Si7 0.891211 0.615381 0.141298
O O1 0.500000 0.895951 0.141284
O O2 0.358328 0.835465 0.213713
O O3 0.349448 0.000000 0.139689
O O4 0.358909 0.831448 0.070607
O O5 0.890784 0.500000 0.580455
O O6 0.862242 0.646357 0.500001
O O7 0.821437 0.643484 0.645169
O O8 0.000000 0.645116 0.593600
O O9 0.756015 0.500000 0.000001
O O10 0.831448 0.358908 0.070610
O O11 0.672388 0.327613 0.000000
O O12 0.756688 0.500000 0.280539
O O13 0.821436 0.643484 0.354833
O O14 0.669629 0.669629 0.275028
O O15 0.835466 0.641672 0.213715
O O16 0.890784 0.500000 0.419546
O O17 0.000000 0.645116 0.406401
O O18 0.500000 0.756688 0.280538
O O19 0.895951 0.500000 0.141285
O O20 0.000000 0.650552 0.139690
#
# Coordination Sequence:
#
# PCOD9556569 Si02
#       7
#     8   8   8   8   8   8   8
#     4   9  17  30  47  64  83 110 146 190 233 258
#     4   8  14  26  44  63  82 107 142 186 231 262
#     4  10  19  30  45  67  96 126 151 173 202 249
#     4  10  19  29  42  62  90 122 151 177 208 254
#     4   8  14  26  44  63  82 107 142 186 231 262
#     4  10  19  29  42  62  90 122 151 177 208 254
#     4   9  17  30  47  64  83 110 146 190 233 258
#
# _framework density 15.267554000000001
#
# number of rings (size 3 to 8) (size 9 to 14) (size 15 to 20)
#    0.000    2.857    0.000    3.000    0.000    6.143 
#    0.000    0.000    0.000    5.143    0.000    4.000 
#    0.000   43.429    0.000   12.571    0.000    1.143 
#
# Total GULP energy -311785.099092 kJ/mol
# GULP energy per Si atom -5567.591055 kJ/mol
# Density = 1.523280 g / cm^3
# Si number density = 15.267554 Si / 1000 Ang^3
#
#
#
# Elastic Constant Matrix: (Units=GPa)
#
#
# Indices 1 2 3 4 5 6 
#
# 1 59.2769 37.2460 47.8052 0.0000 0.0000 0.0000
# 2 37.2460 59.2744 47.8044 0.0000 0.0000 0.0000
# 3 47.8052 47.8044 132.9344 0.0000 0.0000 0.0000
# 4 0.0000 0.0000 0.0000 6.3122 0.0000 0.0000
# 5 0.0000 0.0000 0.0000 0.0000 6.3113 0.0000
# 6 0.0000 0.0000 0.0000 0.0000 0.0000 0.2281
#
#
#
# Elastic Compliance Matrix: (Units=1/GPa)
#
#
# Indices 1 2 3 4 5 6 
#
# 1 0.030742 -0.014650 -0.005787 0.000000 0.000000 0.000000
# 2 -0.014650 0.030744 -0.005787 0.000000 0.000000 0.000000
# 3 -0.005787 -0.005787 0.011685 0.000000 0.000000 0.000000
# 4 0.000000 0.000000 0.000000 0.158424 0.000000 0.000000
# 5 0.000000 0.000000 0.000000 0.000000 0.158447 0.000000
# 6 0.000000 0.000000 0.000000 0.000000 0.000000 4.383191
#
#
# Mechanical properties :
#
#
# Convention : Reuss Voigt Hill
#
# Bulk Modulus (GPa) = 48.25841 57.46633 52.86237
# Shear Modulus (GPa) = 1.03464 10.47898 5.75681
#
# Velocity S-wave (km/s) = 0.82410 2.62268 1.94391
# Velocity P-wave (km/s) = 5.70812 6.84781 6.30377
#
# Compressibility (1/GPa) = 0.02072178
#
# Stress axis : x y z
#
# Youngs Moduli (GPa) = 32.52826 32.52681 85.58130
#
# Poissons Ratio (x) = 0.47653 0.49527
# Poissons Ratio (y) = 0.47655 0.49528
# Poissons Ratio (z) = 0.18824 0.18824
#
# Static dielectric constant tensor:
#      x y z
#    x 1.487660 0.000000 0.000000 
#    y 0.000000 1.487660 0.000000 
#    z 0.000000 0.000000 1.527730 
# 
# From -- ./inp_files/4396.got.cif
#   From: 2010.05.17/outbox.cif.g08.bks.cpg/sg115_3_cif.got.tgz:4396.got - 2010.05.20 11:07:42.
