data_PCOD9556067
_publ_section_title
;
Structure prediction by ZEFSAII (Michael W. Deem and Ramdas Pophale) SiO2 
 PCOD9556067
Probable space group: P -4 21 C
;
_chemical_formula_sum "Si O2"
_cell_formula_units_Z 64
_cell_length_a 11.427824
_cell_length_b 11.427824
_cell_length_c 24.327977
_cell_angle_alpha 90.000000
_cell_angle_beta 90.000000
_cell_angle_gamma 90.000000
_cell_volume 3177.116082
_symmetry_space_group_name_H-M "P -4 21 C"
_symmetry_group_IT_number 114
_symmetry_cell_setting 'tetragonal'
loop_
_space_group_symop_operation_xyz
x,y,z
y,-x,-z
-x,-y,z
-y,x,-z
1/2+x,1/2-y,1/2-z
1/2-x,1/2+y,1/2-z
1/2-y,1/2-x,1/2+z
1/2+y,1/2+x,1/2+z
loop_
_atom_site_type_symbol
_atom_site_label
_atom_site_fract_x
_atom_site_fract_y
_atom_site_fract_z
Si Si1 0.129806 0.533637 0.096488
Si Si2 0.109620 0.127791 0.772715
Si Si3 0.229509 0.227732 0.339868
Si Si4 0.025453 0.871804 0.347885
Si Si5 0.080758 0.185577 0.925680
Si Si6 0.713326 0.255106 0.906659
Si Si7 0.106404 0.884432 0.837167
Si Si8 0.600018 0.776021 0.497414
O O1 0.197352 0.615058 0.140205
O O2 0.199844 0.414496 0.085407
O O3 0.000000 0.500000 0.115818
O O4 0.115847 0.612911 0.041749
O O5 0.211237 0.219202 0.785663
O O6 0.979854 0.170691 0.790733
O O7 0.108017 0.088731 0.710339
O O8 0.131993 0.013108 0.812100
O O9 0.095460 0.193057 0.336859
O O10 0.249889 0.328732 0.385498
O O11 0.112567 0.801052 0.386247
O O12 0.000000 0.000000 0.372289
O O13 0.978892 0.125356 0.890267
O O14 0.016320 0.275365 0.966209
O O15 0.160656 0.095437 0.959175
O O16 0.779701 0.181811 0.858704
O O17 0.790903 0.257437 0.961611
#
# Coordination Sequence:
#
# PCOD9556067 Si02
#       8
#     8   8   8   8   8   8   8   8
#     4  11  22  39  62  90 127 163 212 264 312 374
#     4  10  21  39  68  93 121 161 206 263 325 379
#     4  10  23  42  62  91 127 162 210 261 316 382
#     4  12  24  42  63  88 126 173 211 258 311 385
#     4   9  20  38  63  95 127 160 208 263 327 385
#     4  11  24  40  62  91 127 171 213 257 315 385
#     4   9  19  39  64  93 125 157 204 267 328 372
#     4  10  22  38  62  92 125 166 210 261 318 381
#
# _framework density 20.144055000000002
#
# number of rings (size 3 to 8) (size 9 to 14) (size 15 to 20)
#    0.000    1.750    2.500    1.500    1.750   12.250 
#    0.000    5.000    0.000    1.500    0.000    0.000 
#    0.000    0.000    0.000    0.000    0.000    0.000 
#
# Total GULP energy -357433.593289 kJ/mol
# GULP energy per Si atom -5584.899895 kJ/mol
# Density = 2.009821 g / cm^3
# Si number density = 20.144055 Si / 1000 Ang^3
#
#
#
# Elastic Constant Matrix: (Units=GPa)
#
#
# Indices 1 2 3 4 5 6 
#
# 1 84.9000 18.5356 0.0251 0.0000 0.0000 0.0000
# 2 18.5356 84.9000 0.0251 0.0000 0.0000 0.0000
# 3 0.0251 0.0251 43.1746 0.0000 0.0000 0.0000
# 4 0.0000 0.0000 0.0000 15.9183 0.0000 0.0000
# 5 0.0000 0.0000 0.0000 0.0000 15.9183 0.0000
# 6 0.0000 0.0000 0.0000 0.0000 0.0000 31.8704
#
#
#
# Elastic Compliance Matrix: (Units=1/GPa)
#
#
# Indices 1 2 3 4 5 6 
#
# 1 0.012368 -0.002700 -0.000006 0.000000 0.000000 0.000000
# 2 -0.002700 0.012368 -0.000006 0.000000 0.000000 0.000000
# 3 -0.000006 -0.000006 0.023162 0.000000 0.000000 0.000000
# 4 0.000000 0.000000 0.000000 0.062821 0.000000 0.000000
# 5 0.000000 0.000000 0.000000 0.000000 0.062821 0.000000
# 6 0.000000 0.000000 0.000000 0.000000 0.000000 0.031377
#
#
# Mechanical properties :
#
#
# Convention : Reuss Voigt Hill
#
# Bulk Modulus (GPa) = 23.54328 27.79403 25.66865
# Shear Modulus (GPa) = 22.27189 25.70063 23.98626
#
# Velocity S-wave (km/s) = 3.32871 3.57577 3.45445
# Velocity P-wave (km/s) = 5.14651 5.55659 5.35548
#
# Compressibility (1/GPa) = 0.04247497
#
# Stress axis : x y z
#
# Youngs Moduli (GPa) = 80.85322 80.85322 43.17463
#
# Poissons Ratio (x) = 0.21832 0.00024
# Poissons Ratio (y) = 0.21832 0.00024
# Poissons Ratio (z) = 0.00045 0.00045
#
# Static dielectric constant tensor:
#      x y z
#    x 1.714620 0.000000 0.000000 
#    y 0.000000 1.714620 0.000000 
#    z 0.000000 0.000000 1.733690 
# 
# From -- ./inp_files/3555.got.cif
#   From: 2010.05.17/outbox.cif.g08.bks.cpg/sg114_2_cif.got.tgz:3555.got - 2010.05.20 11:04:54.
