data_PCOD9556165
_publ_section_title
;
Structure prediction by ZEFSAII (Michael W. Deem and Ramdas Pophale) SiO2 
 PCOD9556165
Probable space group: P -4 21 C
;
_chemical_formula_sum "Si O2"
_cell_formula_units_Z 40
_cell_length_a 9.156671
_cell_length_b 9.156671
_cell_length_c 23.544182
_cell_angle_alpha 90.000000
_cell_angle_beta 90.000000
_cell_angle_gamma 90.000000
_cell_volume 1974.053083
_symmetry_space_group_name_H-M "P -4 21 C"
_symmetry_group_IT_number 114
_symmetry_cell_setting 'tetragonal'
loop_
_space_group_symop_operation_xyz
x,y,z
y,-x,-z
-x,-y,z
-y,x,-z
1/2+x,1/2-y,1/2-z
1/2-x,1/2+y,1/2-z
1/2-y,1/2-x,1/2+z
1/2+y,1/2+x,1/2+z
loop_
_atom_site_type_symbol
_atom_site_label
_atom_site_fract_x
_atom_site_fract_y
_atom_site_fract_z
Si Si1 0.311031 0.583477 0.967178
Si Si2 0.500000 0.000000 0.407529
Si Si3 0.232519 0.053234 0.993732
Si Si4 0.258043 0.991491 0.310076
Si Si5 0.493170 0.301740 0.161628
Si Si6 0.500000 0.000000 0.214432
O O1 0.337705 0.526737 0.904316
O O2 0.443693 0.683661 0.990597
O O3 0.158927 0.669094 0.967400
O O4 0.512309 0.849531 0.444296
O O5 0.640041 0.008515 0.365915
O O6 0.092155 0.158242 0.979542
O O7 0.361683 0.011267 0.256425
O O8 0.132792 0.112647 0.315223
O O9 0.158498 0.847087 0.308408
O O10 0.519121 0.135810 0.174002
#
# Coordination Sequence:
#
# PCOD9556165 Si02
#       6
#     8   4   8   8   8   4
#     4  11  22  39  64  93 122 163 208 248 298 365
#     4  11  22  41  62  82 118 167 206 243 308 370
#     4  11  23  37  56  88 127 163 202 255 312 368
#     4  10  22  41  63  85 118 161 204 252 301 359
#     4  11  22  40  63  92 122 155 206 254 294 358
#     4  11  24  39  62  92 120 157 198 251 314 352
#
# _framework density 20.262882000000001
#
# number of rings (size 3 to 8) (size 9 to 14) (size 15 to 20)
#    0.000    1.200    0.000    8.400    0.000    4.000 
#    0.000    0.000    0.000    9.600    0.000    0.000 
#    0.000    0.000    0.000    0.000    0.000    0.000 
#
# Total GULP energy -223301.633337 kJ/mol
# GULP energy per Si atom -5582.540833 kJ/mol
# Density = 2.021676 g / cm^3
# Si number density = 20.262882 Si / 1000 Ang^3
#
#
#
# Elastic Constant Matrix: (Units=GPa)
#
#
# Indices 1 2 3 4 5 6 
#
# 1 116.1475 38.9795 31.2778 0.0000 0.0000 0.0000
# 2 38.9795 116.1475 31.2778 0.0000 0.0000 0.0000
# 3 31.2778 31.2778 66.6201 0.0000 0.0000 0.0000
# 4 0.0000 0.0000 0.0000 18.2838 0.0000 0.0000
# 5 0.0000 0.0000 0.0000 0.0000 18.2838 0.0000
# 6 0.0000 0.0000 0.0000 0.0000 0.0000 14.9811
#
#
#
# Elastic Compliance Matrix: (Units=1/GPa)
#
#
# Indices 1 2 3 4 5 6 
#
# 1 0.010455 -0.002503 -0.003733 0.000000 0.000000 0.000000
# 2 -0.002503 0.010455 -0.003733 0.000000 0.000000 0.000000
# 3 -0.003733 -0.003733 0.018516 0.000000 0.000000 0.000000
# 4 0.000000 0.000000 0.000000 0.054693 0.000000 0.000000
# 5 0.000000 0.000000 0.000000 0.000000 0.054693 0.000000
# 6 0.000000 0.000000 0.000000 0.000000 0.000000 0.066751
#
#
# Mechanical properties :
#
#
# Convention : Reuss Voigt Hill
#
# Bulk Modulus (GPa) = 51.31799 55.77612 53.54705
# Shear Modulus (GPa) = 20.66117 23.46839 22.06478
#
# Velocity S-wave (km/s) = 3.19667 3.40692 3.30347
# Velocity P-wave (km/s) = 6.24548 6.56218 6.40579
#
# Compressibility (1/GPa) = 0.01948634
#
# Stress axis : x y z
#
# Youngs Moduli (GPa) = 95.64551 95.64551 54.00720
#
# Poissons Ratio (x) = 0.23944 0.20163
# Poissons Ratio (y) = 0.23944 0.20163
# Poissons Ratio (z) = 0.35708 0.35708
#
# Static dielectric constant tensor:
#      x y z
#    x 1.747850 0.000000 0.000000 
#    y 0.000000 1.747850 0.000000 
#    z 0.000000 0.000000 1.677190 
# 
# From -- ./inp_files/3434.got.cif
#   From: 2010.05.17/outbox.cif.g08.bks.cpg/sg114_2_cif.got.tgz:3434.got - 2010.05.20 11:04:54.
