data_PCOD9556247
_publ_section_title
;
Structure prediction by ZEFSAII (Michael W. Deem and Ramdas Pophale) SiO2 
 PCOD9556247
Probable space group: P -4 21 C
;
_chemical_formula_sum "Si O2"
_cell_formula_units_Z 34
_cell_length_a 11.497032
_cell_length_b 11.497032
_cell_length_c 9.473542
_cell_angle_alpha 90.000000
_cell_angle_beta 90.000000
_cell_angle_gamma 90.000000
_cell_volume 1252.229311
_symmetry_space_group_name_H-M "P -4 21 C"
_symmetry_group_IT_number 114
_symmetry_cell_setting 'tetragonal'
loop_
_space_group_symop_operation_xyz
x,y,z
y,-x,-z
-x,-y,z
-y,x,-z
1/2+x,1/2-y,1/2-z
1/2-x,1/2+y,1/2-z
1/2-y,1/2-x,1/2+z
1/2+y,1/2+x,1/2+z
loop_
_atom_site_type_symbol
_atom_site_label
_atom_site_fract_x
_atom_site_fract_y
_atom_site_fract_z
Si Si1 0.072737 0.768225 0.103237
Si Si2 0.347799 0.425630 0.938926
Si Si3 0.500000 0.500000 0.500000
Si Si4 0.579823 0.109068 0.909686
Si Si5 0.893545 0.267669 0.777288
O O1 0.950343 0.701931 0.126149
O O2 0.735269 0.889563 0.055907
O O3 0.161173 0.713673 0.212404
O O4 0.064894 0.905856 0.095113
O O5 0.386047 0.356005 0.800774
O O6 0.373663 0.562937 0.943739
O O7 0.214069 0.407364 0.980481
O O8 0.508671 0.165468 0.779472
O O9 0.500000 0.000000 0.959990
#
# Coordination Sequence:
#
# PCOD9556247 Si02
#       5
#     8   8   2   8   8
#     4  11  25  49  74 110 154 196 249 317 384 466
#     4   9  18  38  65 102 142 183 246 303 358 441
#     4  12  28  52  68 118 168 192 240 330 408 432
#     4   9  20  40  70 104 143 189 245 302 366 448
#     4  10  23  46  76 107 144 202 255 307 380 453
#
# _framework density 27.151578000000001
#
# number of rings (size 3 to 8) (size 9 to 14) (size 15 to 20)
#    0.000    2.118    0.000    1.412    0.000   12.235 
#   38.118    0.000    0.000    1.412    0.000    0.000 
#    0.000    0.000    0.000    0.000    0.000    0.000 
#
# Total GULP energy -190938.950386 kJ/mol
# GULP energy per Si atom -5615.851482 kJ/mol
# Density = 2.708978 g / cm^3
# Si number density = 27.151578 Si / 1000 Ang^3
#
#
#
# Elastic Constant Matrix: (Units=GPa)
#
#
# Indices 1 2 3 4 5 6 
#
# 1 159.0260 24.9480 58.6177 0.0000 0.0000 0.0000
# 2 24.9480 159.0260 58.6177 0.0000 0.0000 0.0000
# 3 58.6177 58.6177 154.3032 0.0000 0.0000 0.0000
# 4 0.0000 0.0000 0.0000 39.5252 0.0000 0.0000
# 5 0.0000 0.0000 0.0000 0.0000 39.5252 0.0000
# 6 0.0000 0.0000 0.0000 0.0000 0.0000 27.0468
#
#
#
# Elastic Compliance Matrix: (Units=1/GPa)
#
#
# Indices 1 2 3 4 5 6 
#
# 1 0.007315 -0.000143 -0.002724 0.000000 0.000000 0.000000
# 2 -0.000143 0.007315 -0.002724 0.000000 0.000000 0.000000
# 3 -0.002724 -0.002724 0.008551 0.000000 0.000000 0.000000
# 4 0.000000 0.000000 0.000000 0.025300 0.000000 0.000000
# 5 0.000000 0.000000 0.000000 0.000000 0.025300 0.000000
# 6 0.000000 0.000000 0.000000 0.000000 0.000000 0.036973
#
#
# Mechanical properties :
#
#
# Convention : Reuss Voigt Hill
#
# Bulk Modulus (GPa) = 83.35881 84.08023 83.71952
# Shear Modulus (GPa) = 39.70228 43.23091 41.46659
#
# Velocity S-wave (km/s) = 3.82808 3.99457 3.91221
# Velocity P-wave (km/s) = 7.09273 7.23254 7.16298
#
# Compressibility (1/GPa) = 0.01199633
#
# Stress axis : x y z
#
# Youngs Moduli (GPa) = 136.70541 136.70541 116.94967
#
# Poissons Ratio (x) = 0.01960 0.31862
# Poissons Ratio (y) = 0.01960 0.31862
# Poissons Ratio (z) = 0.37244 0.37244
#
# Static dielectric constant tensor:
#      x y z
#    x 2.119100 0.000000 0.000000 
#    y 0.000000 2.119100 0.000000 
#    z 0.000000 0.000000 2.063400 
# 
# From -- ./inp_files/1407.got.cif
#   From: 2010.05.17/outbox.cif.g08.bks.cpg/sg114_1_cif.got.tgz:1407.got - 2010.05.20 11:04:54.
