data_PCOD9556652
_publ_section_title
;
Structure prediction by ZEFSAII (Michael W. Deem and Ramdas Pophale) SiO2 
 PCOD9556652
Probable space group: P -4 M 2
;
_chemical_formula_sum "Si O2"
_cell_formula_units_Z 40
_cell_length_a 7.984687
_cell_length_b 7.984687
_cell_length_c 30.348129
_cell_angle_alpha 90.000000
_cell_angle_beta 90.000000
_cell_angle_gamma 90.000000
_cell_volume 1934.851838
_symmetry_space_group_name_H-M "P -4 M 2"
_symmetry_group_IT_number 115
_symmetry_cell_setting 'tetragonal'
loop_
_space_group_symop_operation_xyz
x,y,z
y,-x,-z
-x,-y,z
-y,x,-z
y,x,-z
-y,-x,-z
-x,y,z
x,-y,z
loop_
_atom_site_type_symbol
_atom_site_label
_atom_site_fract_x
_atom_site_fract_y
_atom_site_fract_z
Si Si1 0.202830 0.688428 0.548215
Si Si2 0.311464 0.199612 0.953121
Si Si3 0.318540 0.798891 0.235413
Si Si4 0.204456 0.000000 0.608036
Si Si5 0.000000 0.794223 0.290623
Si Si6 0.194111 0.296999 0.141009
O O1 0.276325 0.723675 0.500000
O O2 0.245681 0.500000 0.562648
O O3 0.000000 0.698631 0.544466
O O4 0.257379 0.834067 0.581577
O O5 0.500000 0.267466 0.957010
O O6 0.235912 0.260952 0.906681
O O7 0.320855 0.000000 0.946733
O O8 0.228037 0.228037 0.000000
O O9 0.500000 0.734805 0.249769
O O10 0.290960 0.758269 0.184141
O O11 0.163872 0.735888 0.264270
O O12 0.318705 0.000000 0.239709
O O13 0.258785 0.000000 0.658654
O O14 0.000000 0.000000 0.608237
O O15 0.000000 0.000000 0.290106
O O16 0.195896 0.500000 0.138761
O O17 0.000000 0.243052 0.146724
#
# Coordination Sequence:
#
# PCOD9556652 Si02
#       6
#     8   8   8   4   4   8
#     4  10  19  32  55  84 114 152 195 239 287 341
#     4   9  19  34  50  71 100 132 167 211 262 322
#     4  10  20  33  53  80 108 141 184 232 282 340
#     4   9  18  32  55  83 117 154 193 239 282 340
#     4   9  18  34  53  79 115 151 182 232 292 330
#     4   9  18  34  54  73  97 134 179 223 272 332
#
# _framework density 20.673418000000002
#
# number of rings (size 3 to 8) (size 9 to 14) (size 15 to 20)
#    0.000    2.600    2.000    1.200    0.000    3.400 
#    0.000   10.000    0.000    2.400    0.000    2.800 
#    0.000    0.000    0.000    0.000    0.000    0.000 
#
# Total GULP energy -223136.197240 kJ/mol
# GULP energy per Si atom -5578.404931 kJ/mol
# Density = 2.062636 g / cm^3
# Si number density = 20.673418 Si / 1000 Ang^3
#
#
#
# Elastic Constant Matrix: (Units=GPa)
#
#
# Indices 1 2 3 4 5 6 
#
# 1 70.4511 28.4063 51.6228 0.0000 0.0000 0.0000
# 2 28.4063 70.4511 51.6228 0.0000 0.0000 0.0000
# 3 51.6228 51.6228 174.8011 0.0000 0.0000 0.0000
# 4 0.0000 0.0000 0.0000 -316.4679 0.0000 0.0000
# 5 0.0000 0.0000 0.0000 0.0000 -316.4679 0.0000
# 6 0.0000 0.0000 0.0000 0.0000 0.0000 29.0852
#
#
#
# Elastic Compliance Matrix: (Units=1/GPa)
#
#
# Indices 1 2 3 4 5 6 
#
# 1 0.019206 -0.004579 -0.004320 0.000000 0.000000 0.000000
# 2 -0.004579 0.019206 -0.004320 0.000000 0.000000 0.000000
# 3 -0.004320 -0.004320 0.008272 0.000000 0.000000 0.000000
# 4 0.000000 0.000000 0.000000 -0.003160 0.000000 0.000000
# 5 0.000000 0.000000 0.000000 0.000000 -0.003160 0.000000
# 6 0.000000 0.000000 0.000000 0.000000 0.000000 0.034382
#
#
# Mechanical properties :
#
#
# Convention : Reuss Voigt Hill
#
# Bulk Modulus (GPa) = 49.38890 64.33412 56.86151
# Shear Modulus (GPa) = 46.32615 -108.50003 -31.08694
#
# Velocity S-wave (km/s) = 4.73890 -7.25237 -3.88198
# Velocity P-wave (km/s) = 7.34063 6.24037 2.73337
#
# Compressibility (1/GPa) = 0.02024746
#
# Stress axis : x y z
#
# Youngs Moduli (GPa) = 52.06821 52.06821 120.88684
#
# Poissons Ratio (x) = 0.23840 0.52219
# Poissons Ratio (y) = 0.23840 0.52219
# Poissons Ratio (z) = 0.22492 0.22492
#
# Static dielectric constant tensor:
#      x y z
#    x 1.806460 0.000000 0.000000 
#    y 0.000000 1.806460 0.000000 
#    z 0.000000 0.000000 1.717950 
# 
# From -- ./inp_files/5575.got.cif
#   From: 2010.05.17/outbox.cif.g08.bks.cpg/sg115_3_cif.got.tgz:5575.got - 2010.05.20 11:07:42.
