data_PCOD9556802
_publ_section_title
;
Structure prediction by ZEFSAII (Michael W. Deem and Ramdas Pophale) SiO2 
 PCOD9556802
Probable space group: P -4 M 2
;
_chemical_formula_sum "Si O2"
_cell_formula_units_Z 48
_cell_length_a 9.304342
_cell_length_b 9.304342
_cell_length_c 32.212282
_cell_angle_alpha 90.000000
_cell_angle_beta 90.000000
_cell_angle_gamma 90.000000
_cell_volume 2788.642380
_symmetry_space_group_name_H-M "P -4 M 2"
_symmetry_group_IT_number 115
_symmetry_cell_setting 'tetragonal'
loop_
_space_group_symop_operation_xyz
x,y,z
y,-x,-z
-x,-y,z
-y,x,-z
y,x,-z
-y,-x,-z
-x,y,z
x,-y,z
loop_
_atom_site_type_symbol
_atom_site_label
_atom_site_fract_x
_atom_site_fract_y
_atom_site_fract_z
Si Si1 0.171323 0.828678 0.000000
Si Si2 0.674822 0.666226 0.334458
Si Si3 0.826826 0.168659 0.166826
Si Si4 0.672240 0.671445 0.758325
Si Si5 0.828519 0.670346 0.583369
Si Si6 0.174934 0.665386 0.083526
Si Si7 0.828937 0.828937 0.500000
O O1 0.218260 0.744132 0.041099
O O2 0.000000 0.807019 0.993869
O O3 0.500000 0.670481 0.334102
O O4 0.716987 0.500000 0.339288
O O5 0.718600 0.715721 0.288380
O O6 0.723166 0.755989 0.374157
O O7 0.754448 0.244000 0.206119
O O8 0.780219 0.248040 0.124484
O O9 0.000000 0.181776 0.169871
O O10 0.791637 0.000000 0.165001
O O11 0.500000 0.693936 0.761964
O O12 0.697210 0.500000 0.761961
O O13 0.799533 0.500000 0.579148
O O14 0.779015 0.750534 0.541824
O O15 0.000000 0.689179 0.586778
O O16 0.222414 0.500000 0.084952
O O17 0.000000 0.665955 0.083529
O O18 0.000000 0.805079 0.495757
#
# Coordination Sequence:
#
# PCOD9556802 Si02
#       7
#     4   8   8   8   8   8   4
#     4   9  16  28  48  71  92 116 152 197 238 280
#     4   8  15  29  48  69  93 120 151 189 233 280
#     4  10  20  33  50  74 102 131 166 206 244 285
#     4   9  18  33  52  73  98 129 163 199 243 294
#     4   9  17  29  46  67  88 113 149 189 225 267
#     4   9  17  30  49  71  95 126 161 196 239 289
#     4   9  18  32  46  61  88 124 152 179 226 280
#
# _framework density 17.212678
#
# number of rings (size 3 to 8) (size 9 to 14) (size 15 to 20)
#    0.000    3.000    0.000    2.000    0.000    4.667 
#    0.000    3.333    0.000    6.250    0.000    0.000 
#    0.000    0.000    0.000    0.000    0.000    0.000 
#
# Total GULP energy -267467.861369 kJ/mol
# GULP energy per Si atom -5572.247112 kJ/mol
# Density = 1.717350 g / cm^3
# Si number density = 17.212678 Si / 1000 Ang^3
#
#
#
# Elastic Constant Matrix: (Units=GPa)
#
#
# Indices 1 2 3 4 5 6 
#
# 1 42.9801 38.7675 74.0311 0.0000 0.0000 0.0000
# 2 38.7675 42.9804 74.0311 0.0000 0.0000 0.0000
# 3 74.0311 74.0311 225.7744 0.0000 0.0000 0.0000
# 4 0.0000 0.0000 0.0000 34.9796 0.0000 0.0000
# 5 0.0000 0.0000 0.0000 0.0000 34.9796 0.0000
# 6 0.0000 0.0000 0.0000 0.0000 0.0000 18.1045
#
#
#
# Elastic Compliance Matrix: (Units=1/GPa)
#
#
# Indices 1 2 3 4 5 6 
#
# 1 0.133750 -0.103626 -0.009877 0.000000 0.000000 0.000000
# 2 -0.103626 0.133747 -0.009877 0.000000 0.000000 0.000000
# 3 -0.009877 -0.009877 0.010906 0.000000 0.000000 0.000000
# 4 0.000000 0.000000 0.000000 0.028588 0.000000 0.000000
# 5 0.000000 0.000000 0.000000 0.000000 0.028588 0.000000
# 6 0.000000 0.000000 0.000000 0.000000 0.000000 0.055235
#
#
# Mechanical properties :
#
#
# Convention : Reuss Voigt Hill
#
# Bulk Modulus (GPa) = 31.60295 76.15493 53.87894
# Shear Modulus (GPa) = 7.71460 25.93974 16.82717
#
# Velocity S-wave (km/s) = 2.11935 3.88624 3.13006
# Velocity P-wave (km/s) = 4.93852 8.02974 6.66580
#
# Compressibility (1/GPa) = 0.03164262
#
# Stress axis : x y z
#
# Youngs Moduli (GPa) = 7.47666 7.47681 91.68859
#
# Poissons Ratio (x) = 0.77479 0.90565
# Poissons Ratio (y) = 0.77478 0.90556
# Poissons Ratio (z) = 0.07385 0.07384
#
# Static dielectric constant tensor:
#      x y z
#    x 1.574840 0.000000 0.000000 
#    y 0.000000 1.574840 0.000000 
#    z 0.000000 0.000000 1.576910 
# 
# From -- ./inp_files/6222.got.cif
#   From: 2010.05.17/outbox.cif.g08.bks.cpg/sg115_4_cif.got.tgz:6222.got - 2010.05.20 11:07:42.
