data_PCOD9556695
_publ_section_title
;
Structure prediction by ZEFSAII (Michael W. Deem and Ramdas Pophale) SiO2 
 PCOD9556695
Probable space group: P -4 M 2
;
_chemical_formula_sum "Si O2"
_cell_formula_units_Z 21
_cell_length_a 7.831449
_cell_length_b 7.831449
_cell_length_c 16.522457
_cell_angle_alpha 90.000000
_cell_angle_beta 90.000000
_cell_angle_gamma 90.000000
_cell_volume 1013.348615
_symmetry_space_group_name_H-M "P -4 M 2"
_symmetry_group_IT_number 115
_symmetry_cell_setting 'tetragonal'
loop_
_space_group_symop_operation_xyz
x,y,z
y,-x,-z
-x,-y,z
-y,x,-z
y,x,-z
-y,-x,-z
-x,y,z
x,-y,z
loop_
_atom_site_type_symbol
_atom_site_label
_atom_site_fract_x
_atom_site_fract_y
_atom_site_fract_z
Si Si1 0.291809 0.699238 0.087646
Si Si2 0.500000 0.810946 0.624016
Si Si3 0.500000 0.500000 0.500000
Si Si4 0.189877 0.293165 0.736081
O O1 0.500000 0.704905 0.084041
O O2 0.243440 0.500000 0.095371
O O3 0.240047 0.790243 0.170033
O O4 0.233583 0.766418 0.000000
O O5 0.500000 0.665630 0.556650
O O6 0.664065 0.785752 0.681304
O O7 0.500000 0.000000 0.588333
O O8 0.211070 0.500000 0.734010
O O9 0.000000 0.251613 0.707460
#
# Coordination Sequence:
#
# PCOD9556695 Si02
#       4
#     8   4   1   8
#     4   8  13  24  49  84 126 173 226 269 306 355
#     4  12  26  46  74 101 127 164 205 257 322 390
#     4  12  28  52  76 100 130 156 200 256 328 404
#     4  10  19  36  65  97 132 174 218 264 314 372
#
# _framework density 20.723371
#
# number of rings (size 3 to 8) (size 9 to 14) (size 15 to 20)
#    0.000    2.286    3.810    1.143    0.000    2.286 
#    0.000    1.905    0.000    0.000    0.000    0.000 
#    0.000    0.000    0.000    0.000    0.000    0.000 
#
# Total GULP energy -117295.770301 kJ/mol
# GULP energy per Si atom -5585.512871 kJ/mol
# Density = 2.067620 g / cm^3
# Si number density = 20.723371 Si / 1000 Ang^3
#
#
#
# Elastic Constant Matrix: (Units=GPa)
#
#
# Indices 1 2 3 4 5 6 
#
# 1 98.2879 37.3223 51.5752 0.0000 0.0000 0.0000
# 2 37.3223 98.2878 51.5751 0.0000 0.0000 0.0000
# 3 51.5752 51.5751 117.5838 0.0000 0.0000 0.0000
# 4 0.0000 0.0000 0.0000 -17.0935 0.0000 0.0000
# 5 0.0000 0.0000 0.0000 0.0000 -17.0933 0.0000
# 6 0.0000 0.0000 0.0000 0.0000 0.0000 -0.3059
#
#
#
# Elastic Compliance Matrix: (Units=1/GPa)
#
#
# Indices 1 2 3 4 5 6 
#
# 1 0.013734 -0.002668 -0.004854 0.000000 0.000000 0.000000
# 2 -0.002668 0.013734 -0.004854 0.000000 0.000000 0.000000
# 3 -0.004854 -0.004854 0.012763 0.000000 0.000000 0.000000
# 4 0.000000 0.000000 0.000000 -0.058502 0.000000 0.000000
# 5 0.000000 0.000000 0.000000 0.000000 -0.058502 0.000000
# 6 0.000000 0.000000 0.000000 0.000000 0.000000 -3.268755
#
#
# Mechanical properties :
#
#
# Convention : Reuss Voigt Hill
#
# Bulk Modulus (GPa) = 64.60207 66.12275 65.36241
# Shear Modulus (GPa) = -1.50802 4.68058 1.58628
#
# Velocity S-wave (km/s) = -0.85397 1.50449 0.87585
# Velocity P-wave (km/s) = 5.50171 5.91562 5.71242
#
# Compressibility (1/GPa) = 0.01547938
#
# Stress axis : x y z
#
# Youngs Moduli (GPa) = 72.80981 72.80980 78.35374
#
# Poissons Ratio (x) = 0.19428 0.38032
# Poissons Ratio (y) = 0.19428 0.38032
# Poissons Ratio (z) = 0.35341 0.35341
#
# Static dielectric constant tensor:
#      x y z
#    x 1.755350 0.000000 0.000000 
#    y 0.000000 1.755350 0.000000 
#    z 0.000000 0.000000 1.716250 
# 
# From -- ./inp_files/3347.got.cif
#   From: 2010.05.17/outbox.cif.g08.bks.cpg/sg115_2_cif.got.tgz:3347.got - 2010.05.20 11:07:42.
