data_PCOD9556096
_publ_section_title
;
Structure prediction by ZEFSAII (Michael W. Deem and Ramdas Pophale) SiO2 
 PCOD9556096
Probable space group: P -4 21 C
;
_chemical_formula_sum "Si O2"
_cell_formula_units_Z 40
_cell_length_a 14.328153
_cell_length_b 14.328153
_cell_length_c 7.682003
_cell_angle_alpha 90.000000
_cell_angle_beta 90.000000
_cell_angle_gamma 90.000000
_cell_volume 1577.084245
_symmetry_space_group_name_H-M "P -4 21 C"
_symmetry_group_IT_number 114
_symmetry_cell_setting 'tetragonal'
loop_
_space_group_symop_operation_xyz
x,y,z
y,-x,-z
-x,-y,z
-y,x,-z
1/2+x,1/2-y,1/2-z
1/2-x,1/2+y,1/2-z
1/2-y,1/2-x,1/2+z
1/2+y,1/2+x,1/2+z
loop_
_atom_site_type_symbol
_atom_site_label
_atom_site_fract_x
_atom_site_fract_y
_atom_site_fract_z
Si Si1 0.216058 0.251557 0.491276
Si Si2 0.000000 0.000000 0.500000
Si Si3 0.829227 0.106728 0.845641
Si Si4 0.059652 0.803337 0.377924
Si Si5 0.500000 0.500000 0.500000
Si Si6 0.000000 0.500000 0.862869
Si Si7 0.664676 0.027950 0.391404
O O1 0.171613 0.200996 0.320842
O O2 0.297842 0.328476 0.492149
O O3 0.233501 0.164526 0.620636
O O4 0.135243 0.314765 0.576182
O O5 0.914697 0.950138 0.600728
O O6 0.779248 0.009413 0.782926
O O7 0.933909 0.072083 0.891593
O O8 0.019383 0.761205 0.559427
O O9 0.985571 0.600704 0.774354
O O10 0.905871 0.486862 0.967222
#
# Coordination Sequence:
#
# PCOD9556096 Si02
#       7
#     8   2   8   8   2   4   8
#     4  11  25  48  78 111 161 215 276 338 425 510
#     4  12  18  44  72 106 142 208 264 322 402 484
#     4  11  27  50  80 122 163 222 279 360 421 515
#     4  11  23  43  78 110 148 208 270 327 414 492
#     4  12  30  52  82 124 178 212 294 364 430 504
#     4  10  22  42  64  96 138 194 246 326 390 476
#     4  10  21  42  66  98 140 189 254 316 392 475
#
# _framework density 25.363261999999999
#
# number of rings (size 3 to 8) (size 9 to 14) (size 15 to 20)
#    0.000    1.200    4.000    3.000    2.800    1.600 
#   14.400    0.000    0.000    0.000    0.000    0.000 
#    0.000    0.000    0.000    0.000    0.000    0.000 
#
# Total GULP energy -222826.121128 kJ/mol
# GULP energy per Si atom -5570.653028 kJ/mol
# Density = 2.530553 g / cm^3
# Si number density = 25.363262 Si / 1000 Ang^3
#
#
#
# Elastic Constant Matrix: (Units=GPa)
#
#
# Indices 1 2 3 4 5 6 
#
# 1 125.2237 40.5038 14.8463 0.0000 0.0000 0.0000
# 2 40.5038 125.2237 14.8463 0.0000 0.0000 0.0000
# 3 14.8463 14.8463 48.9928 0.0000 0.0000 0.0000
# 4 0.0000 0.0000 0.0000 9.9220 0.0000 0.0000
# 5 0.0000 0.0000 0.0000 0.0000 9.9220 0.0000
# 6 0.0000 0.0000 0.0000 0.0000 0.0000 54.8348
#
#
#
# Elastic Compliance Matrix: (Units=1/GPa)
#
#
# Indices 1 2 3 4 5 6 
#
# 1 0.009092 -0.002712 -0.001933 0.000000 0.000000 0.000000
# 2 -0.002712 0.009092 -0.001933 0.000000 0.000000 0.000000
# 3 -0.001933 -0.001933 0.021583 0.000000 0.000000 0.000000
# 4 0.000000 0.000000 0.000000 0.100786 0.000000 0.000000
# 5 0.000000 0.000000 0.000000 0.000000 0.100786 0.000000
# 6 0.000000 0.000000 0.000000 0.000000 0.000000 0.018237
#
#
# Mechanical properties :
#
#
# Convention : Reuss Voigt Hill
#
# Bulk Modulus (GPa) = 37.57994 48.87034 43.22514
# Shear Modulus (GPa) = 17.75556 30.21869 23.98712
#
# Velocity S-wave (km/s) = 2.64872 3.45546 3.07863
# Velocity P-wave (km/s) = 4.91967 5.93551 5.45130
#
# Compressibility (1/GPa) = 0.02660994
#
# Stress axis : x y z
#
# Youngs Moduli (GPa) = 109.98675 109.98675 46.33285
#
# Poissons Ratio (x) = 0.29824 0.08958
# Poissons Ratio (y) = 0.29824 0.08958
# Poissons Ratio (z) = 0.21265 0.21265
#
# Static dielectric constant tensor:
#      x y z
#    x 2.061750 0.000000 0.000000 
#    y 0.000000 2.061750 0.000000 
#    z 0.000000 0.000000 2.211540 
# 
# From -- ./inp_files/848.got.cif
#   From: 2010.05.17/outbox.cif.g08.bks.cpg/sg114_1_cif.got.tgz:848.got - 2010.05.20 11:04:54.
