data_PCOD9556709
_publ_section_title
;
Structure prediction by ZEFSAII (Michael W. Deem and Ramdas Pophale) SiO2 
 PCOD9556709
Probable space group: P -4 M 2
;
_chemical_formula_sum "Si O2"
_cell_formula_units_Z 37
_cell_length_a 7.619292
_cell_length_b 7.619292
_cell_length_c 28.847204
_cell_angle_alpha 90.000000
_cell_angle_beta 90.000000
_cell_angle_gamma 90.000000
_cell_volume 1674.684347
_symmetry_space_group_name_H-M "P -4 M 2"
_symmetry_group_IT_number 115
_symmetry_cell_setting 'tetragonal'
loop_
_space_group_symop_operation_xyz
x,y,z
y,-x,-z
-x,-y,z
-y,x,-z
y,x,-z
-y,-x,-z
-x,y,z
x,-y,z
loop_
_atom_site_type_symbol
_atom_site_label
_atom_site_fract_x
_atom_site_fract_y
_atom_site_fract_z
Si Si1 0.298397 0.709066 0.149062
Si Si2 0.712001 0.000000 0.578314
Si Si3 0.285799 0.701295 0.651183
Si Si4 0.295731 0.714874 0.752303
Si Si5 0.000000 0.000000 0.500000
Si Si6 0.206027 0.694533 0.948691
O O1 0.500000 0.777042 0.145173
O O2 0.308407 0.500000 0.155234
O O3 0.225225 0.778931 0.197981
O O4 0.212840 0.734989 0.098755
O O5 0.758596 0.168393 0.609955
O O6 0.500000 0.000000 0.570262
O O7 0.828162 0.000000 0.532501
O O8 0.500000 0.699807 0.653878
O O9 0.230126 0.500000 0.643529
O O10 0.220884 0.762447 0.702085
O O11 0.500000 0.770372 0.751182
O O12 0.292811 0.500000 0.753518
O O13 0.288794 0.500000 0.949131
O O14 0.000000 0.680881 0.943014
O O15 0.233526 0.766475 0.000000
#
# Coordination Sequence:
#
# PCOD9556709 Si02
#       6
#     8   4   8   8   1   8
#     4   8  13  23  43  70  96 122 156 203 257 310
#     4  10  22  40  62  86 116 158 198 235 289 334
#     4   8  14  28  54  86 116 147 186 228 272 333
#     4   7  10  19  41  74 105 131 162 204 256 314
#     4  12  28  44  60  88 124 156 196 256 282 312
#     4  10  20  32  47  66  89 122 164 210 258 312
#
# _framework density 22.093716000000001
#
# number of rings (size 3 to 8) (size 9 to 14) (size 15 to 20)
#    0.000    3.459    0.000    3.243    0.000    2.162 
#    0.000    0.000    4.757    0.000    0.000    0.000 
#    0.000    0.000    0.000    0.000    0.000    0.000 
#
# Total GULP energy -206008.083316 kJ/mol
# GULP energy per Si atom -5567.786036 kJ/mol
# Density = 2.204343 g / cm^3
# Si number density = 22.093716 Si / 1000 Ang^3
#
#
#
# Elastic Constant Matrix: (Units=GPa)
#
#
# Indices 1 2 3 4 5 6 
#
# 1 66.9726 9.6362 55.3922 0.0000 0.0000 0.0000
# 2 9.6362 66.9727 55.3919 0.0000 0.0000 0.0000
# 3 55.3922 55.3919 253.5460 0.0000 0.0000 0.0000
# 4 0.0000 0.0000 0.0000 -99.2761 0.0000 0.0000
# 5 0.0000 0.0000 0.0000 0.0000 -99.2931 0.0000
# 6 0.0000 0.0000 0.0000 0.0000 0.0000 1.7946
#
#
#
# Elastic Compliance Matrix: (Units=1/GPa)
#
#
# Indices 1 2 3 4 5 6 
#
# 1 0.018261 0.000820 -0.004169 0.000000 0.000000 0.000000
# 2 0.000820 0.018261 -0.004169 0.000000 0.000000 0.000000
# 3 -0.004169 -0.004169 0.005766 0.000000 0.000000 0.000000
# 4 0.000000 0.000000 0.000000 -0.010073 0.000000 0.000000
# 5 0.000000 0.000000 0.000000 0.000000 -0.010071 0.000000
# 6 0.000000 0.000000 0.000000 0.000000 0.000000 0.557235
#
#
# Mechanical properties :
#
#
# Convention : Reuss Voigt Hill
#
# Bulk Modulus (GPa) = 36.69180 69.81466 53.25323
# Shear Modulus (GPa) = 8.28504 -21.55019 -6.63258
#
# Velocity S-wave (km/s) = 1.93858 -3.12653 -1.73451
# Velocity P-wave (km/s) = 4.65341 4.31675 4.48824
#
# Compressibility (1/GPa) = 0.02725404
#
# Stress axis : x y z
#
# Youngs Moduli (GPa) = 54.76031 54.76052 173.44349
#
# Poissons Ratio (x) = -0.04493 0.72305
# Poissons Ratio (y) = -0.04493 0.72305
# Poissons Ratio (z) = 0.22829 0.22828
#
# Static dielectric constant tensor:
#      x y z
#    x 1.898710 0.000000 0.000000 
#    y 0.000000 1.898700 0.000000 
#    z 0.000000 0.000000 1.877270 
# 
# From -- ./inp_files/5159.got.cif
#   From: 2010.05.17/outbox.cif.g08.bks.cpg/sg115_3_cif.got.tgz:5159.got - 2010.05.20 11:07:42.
