data_PCOD9556387
_publ_section_title
;
Structure prediction by ZEFSAII (Michael W. Deem and Ramdas Pophale) SiO2 
 PCOD9556387
Probable space group: P -4 21 C
;
_chemical_formula_sum "Si O2"
_cell_formula_units_Z 32
_cell_length_a 8.906075
_cell_length_b 8.906075
_cell_length_c 18.732154
_cell_angle_alpha 90.000000
_cell_angle_beta 90.000000
_cell_angle_gamma 90.000000
_cell_volume 1485.800211
_symmetry_space_group_name_H-M "P -4 21 C"
_symmetry_group_IT_number 114
_symmetry_cell_setting 'tetragonal'
loop_
_space_group_symop_operation_xyz
x,y,z
y,-x,-z
-x,-y,z
-y,x,-z
1/2+x,1/2-y,1/2-z
1/2-x,1/2+y,1/2-z
1/2-y,1/2-x,1/2+z
1/2+y,1/2+x,1/2+z
loop_
_atom_site_type_symbol
_atom_site_label
_atom_site_fract_x
_atom_site_fract_y
_atom_site_fract_z
Si Si1 0.944674 0.775650 0.971463
Si Si2 0.933333 0.665578 0.816986
Si Si3 0.959113 0.776126 0.527641
Si Si4 0.334733 0.572562 0.182493
O O1 0.975472 0.758822 0.887844
O O2 0.870248 0.623459 0.999654
O O3 0.091653 0.825338 0.014128
O O4 0.752601 0.659094 0.812430
O O5 0.000000 0.500000 0.824962
O O6 0.003434 0.740462 0.747085
O O7 0.089071 0.835995 0.474898
O O8 0.026711 0.764830 0.606170
O O9 0.500000 0.500000 0.184989
#
# Coordination Sequence:
#
# PCOD9556387 Si02
#       4
#     8   8   8   8
#     4  11  28  46  71 109 148 192 244 311 365 440
#     4  12  29  48  74 108 148 199 245 310 382 455
#     4  11  22  45  75 109 142 197 246 297 366 444
#     4  12  26  46  76 108 149 192 249 310 375 456
#
# _framework density 21.537216999999998
#
# number of rings (size 3 to 8) (size 9 to 14) (size 15 to 20)
#    0.000    0.500    5.000    1.500   14.000    2.000 
#    0.000    0.000    0.000    0.000    0.000    0.000 
#    0.000    0.000    0.000    0.000    0.000    0.000 
#
# Total GULP energy -179297.402607 kJ/mol
# GULP energy per Si atom -5603.043831 kJ/mol
# Density = 2.148820 g / cm^3
# Si number density = 21.537217 Si / 1000 Ang^3
#
#
#
# Elastic Constant Matrix: (Units=GPa)
#
#
# Indices 1 2 3 4 5 6 
#
# 1 82.9765 31.2224 57.9137 0.0000 0.0000 0.0000
# 2 31.2224 82.9765 57.9137 0.0000 0.0000 0.0000
# 3 57.9137 57.9137 183.7784 0.0000 0.0000 0.0000
# 4 0.0000 0.0000 0.0000 21.6641 0.0000 0.0000
# 5 0.0000 0.0000 0.0000 0.0000 21.6641 0.0000
# 6 0.0000 0.0000 0.0000 0.0000 0.0000 55.6219
#
#
#
# Elastic Compliance Matrix: (Units=1/GPa)
#
#
# Indices 1 2 3 4 5 6 
#
# 1 0.016096 -0.003226 -0.004056 0.000000 0.000000 0.000000
# 2 -0.003226 0.016096 -0.004056 0.000000 0.000000 0.000000
# 3 -0.004056 -0.004056 0.007998 0.000000 0.000000 0.000000
# 4 0.000000 0.000000 0.000000 0.046159 0.000000 0.000000
# 5 0.000000 0.000000 0.000000 0.000000 0.046159 0.000000
# 6 0.000000 0.000000 0.000000 0.000000 0.000000 0.017979
#
#
# Mechanical properties :
#
#
# Convention : Reuss Voigt Hill
#
# Bulk Modulus (GPa) = 57.09417 71.53676 64.31547
# Shear Modulus (GPa) = 27.93289 33.30212 30.61750
#
# Velocity S-wave (km/s) = 3.60524 3.93652 3.77451
# Velocity P-wave (km/s) = 6.62551 7.34500 6.99452
#
# Compressibility (1/GPa) = 0.01751492
#
# Stress axis : x y z
#
# Youngs Moduli (GPa) = 62.12647 62.12647 125.03892
#
# Poissons Ratio (x) = 0.20042 0.50713
# Poissons Ratio (y) = 0.20042 0.50713
# Poissons Ratio (z) = 0.25197 0.25197
#
# Static dielectric constant tensor:
#      x y z
#    x 1.801070 0.000000 0.000000 
#    y 0.000000 1.801070 0.000000 
#    z 0.000000 0.000000 1.734500 
# 
# From -- ./inp_files/2842.got.cif
#   From: 2010.05.17/outbox.cif.g08.bks.cpg/sg114_2_cif.got.tgz:2842.got - 2010.05.20 11:04:54.
