data_PCOD9556785
_publ_section_title
;
Structure prediction by ZEFSAII (Michael W. Deem and Ramdas Pophale) SiO2 
 PCOD9556785
Probable space group: P -4 M 2
;
_chemical_formula_sum "Si O2"
_cell_formula_units_Z 48
_cell_length_a 9.237884
_cell_length_b 9.237884
_cell_length_c 32.286443
_cell_angle_alpha 90.000000
_cell_angle_beta 90.000000
_cell_angle_gamma 90.000000
_cell_volume 2755.276642
_symmetry_space_group_name_H-M "P -4 M 2"
_symmetry_group_IT_number 115
_symmetry_cell_setting 'tetragonal'
loop_
_space_group_symop_operation_xyz
x,y,z
y,-x,-z
-x,-y,z
-y,x,-z
y,x,-z
-y,-x,-z
-x,y,z
x,-y,z
loop_
_atom_site_type_symbol
_atom_site_label
_atom_site_fract_x
_atom_site_fract_y
_atom_site_fract_z
Si Si1 0.176711 0.666848 0.295052
Si Si2 0.674524 0.169609 0.037414
Si Si3 0.332494 0.823750 0.128960
Si Si4 0.823669 0.833489 0.377611
Si Si5 0.328430 0.826666 0.538080
Si Si6 0.170427 0.173615 0.788059
O O1 0.221646 0.500000 0.297189
O O2 0.224524 0.754897 0.335568
O O3 0.222680 0.741932 0.252297
O O4 0.000000 0.669416 0.295192
O O5 0.500000 0.178818 0.036575
O O6 0.720778 0.222008 0.083381
O O7 0.713331 0.000000 0.033332
O O8 0.742604 0.257397 0.000000
O O9 0.500000 0.780644 0.133617
O O10 0.242810 0.777592 0.168940
O O11 0.329204 0.000000 0.128018
O O12 0.781961 0.746718 0.418806
O O13 0.000000 0.833852 0.376768
O O14 0.775892 0.000000 0.379223
O O15 0.255944 0.744056 0.500000
O O16 0.500000 0.800747 0.539943
O O17 0.305987 0.000000 0.533003
O O18 0.000000 0.208702 0.782576
O O19 0.181784 0.000000 0.791006
#
# Coordination Sequence:
#
# PCOD9556785 Si02
#       6
#     8   8   8   8   8   8
#     4   9  16  26  41  64  96 128 154 187 236 286
#     4   9  18  32  49  70  95 123 157 197 241 290
#     4   8  15  29  47  65  88 119 153 189 230 277
#     4   9  16  27  46  71  97 125 159 199 239 280
#     4  10  20  33  50  73 100 130 164 201 242 288
#     4   9  16  26  43  67  91 116 151 192 230 272
#
# _framework density 17.421119000000001
#
# number of rings (size 3 to 8) (size 9 to 14) (size 15 to 20)
#    0.000    3.000    0.000    2.500    0.000    6.000 
#    0.000    2.500    0.000    4.500    0.000    2.333 
#    0.000    0.000    0.000    0.000    0.000    0.000 
#
# Total GULP energy -267462.636680 kJ/mol
# GULP energy per Si atom -5572.138264 kJ/mol
# Density = 1.738147 g / cm^3
# Si number density = 17.421119 Si / 1000 Ang^3
#
#
#
# Elastic Constant Matrix: (Units=GPa)
#
#
# Indices 1 2 3 4 5 6 
#
# 1 47.3321 34.6370 68.2429 0.0000 0.0000 0.0000
# 2 34.6370 47.3307 68.2420 0.0000 0.0000 0.0000
# 3 68.2429 68.2420 216.7262 0.0000 0.0000 0.0000
# 4 0.0000 0.0000 0.0000 -15.3937 0.0000 0.0000
# 5 0.0000 0.0000 0.0000 0.0000 -15.3926 0.0000
# 6 0.0000 0.0000 0.0000 0.0000 0.0000 13.9530
#
#
#
# Elastic Compliance Matrix: (Units=1/GPa)
#
#
# Indices 1 2 3 4 5 6 
#
# 1 0.052210 -0.026564 -0.008075 0.000000 0.000000 0.000000
# 2 -0.026564 0.052211 -0.008075 0.000000 0.000000 0.000000
# 3 -0.008075 -0.008075 0.009700 0.000000 0.000000 0.000000
# 4 0.000000 0.000000 0.000000 -0.064962 0.000000 0.000000
# 5 0.000000 0.000000 0.000000 0.000000 -0.064966 0.000000
# 6 0.000000 0.000000 0.000000 0.000000 0.000000 0.071669
#
#
# Mechanical properties :
#
#
# Convention : Reuss Voigt Hill
#
# Bulk Modulus (GPa) = 34.85499 72.62586 53.74043
# Shear Modulus (GPa) = 33.14425 5.98449 19.56437
#
# Velocity S-wave (km/s) = 4.36654 1.85544 3.35479
# Velocity P-wave (km/s) = 6.74336 6.80949 6.77650
#
# Compressibility (1/GPa) = 0.02869030
#
# Stress axis : x y z
#
# Youngs Moduli (GPa) = 19.15350 19.15293 103.09624
#
# Poissons Ratio (x) = 0.50879 0.83254
# Poissons Ratio (y) = 0.50880 0.83255
# Poissons Ratio (z) = 0.15467 0.15467
#
# Static dielectric constant tensor:
#      x y z
#    x 1.579950 0.000000 0.000000 
#    y 0.000000 1.579950 0.000000 
#    z 0.000000 0.000000 1.588100 
# 
# From -- ./inp_files/6021.got.cif
#   From: 2010.05.17/outbox.cif.g08.bks.cpg/sg115_4_cif.got.tgz:6021.got - 2010.05.20 11:07:42.
