data_PCOD9556397
_publ_section_title
;
Structure prediction by ZEFSAII (Michael W. Deem and Ramdas Pophale) SiO2 
 PCOD9556397
Probable space group: P -4 21 C
;
_chemical_formula_sum "Si O2"
_cell_formula_units_Z 40
_cell_length_a 8.926300
_cell_length_b 8.926300
_cell_length_c 23.210337
_cell_angle_alpha 90.000000
_cell_angle_beta 90.000000
_cell_angle_gamma 90.000000
_cell_volume 1849.372535
_symmetry_space_group_name_H-M "P -4 21 C"
_symmetry_group_IT_number 114
_symmetry_cell_setting 'tetragonal'
loop_
_space_group_symop_operation_xyz
x,y,z
y,-x,-z
-x,-y,z
-y,x,-z
1/2+x,1/2-y,1/2-z
1/2-x,1/2+y,1/2-z
1/2-y,1/2-x,1/2+z
1/2+y,1/2+x,1/2+z
loop_
_atom_site_type_symbol
_atom_site_label
_atom_site_fract_x
_atom_site_fract_y
_atom_site_fract_z
Si Si1 0.393380 0.358237 0.184587
Si Si2 0.858727 0.600890 0.889819
Si Si3 0.398387 0.864724 0.385616
Si Si4 0.107982 0.856427 0.185711
Si Si5 0.143103 0.209498 0.000409
O O1 0.500000 0.500000 0.190386
O O2 0.485193 0.249897 0.142426
O O3 0.233855 0.404941 0.158345
O O4 0.369217 0.296850 0.249343
O O5 0.894758 0.734270 0.844376
O O6 0.000000 0.500000 0.906689
O O7 0.803882 0.690467 0.946590
O O8 0.516259 0.759401 0.352988
O O9 0.319760 0.783653 0.438951
O O10 0.500000 0.000000 0.407535
O O11 0.000000 0.000000 0.186980
O O12 0.961091 0.199874 0.000012
#
# Coordination Sequence:
#
# PCOD9556397 Si02
#       5
#     8   8   8   8   8
#     4  11  26  44  65 101 143 178 230 290 363 420
#     4  12  24  42  69 104 136 181 236 298 352 416
#     4  12  25  43  69 100 135 185 233 287 355 424
#     4  11  23  44  70  97 136 188 232 287 347 436
#     4  11  23  43  72  99 134 179 237 286 342 428
#
# _framework density 21.628958999999998
#
# number of rings (size 3 to 8) (size 9 to 14) (size 15 to 20)
#    0.000    0.600    2.000    6.600    0.000    6.400 
#    0.000    0.000    0.000    0.000    0.000    0.000 
#    0.000    0.000    0.000    0.000    0.000    0.000 
#
# Total GULP energy -223738.005099 kJ/mol
# GULP energy per Si atom -5593.450127 kJ/mol
# Density = 2.157973 g / cm^3
# Si number density = 21.628959 Si / 1000 Ang^3
#
#
#
# Elastic Constant Matrix: (Units=GPa)
#
#
# Indices 1 2 3 4 5 6 
#
# 1 67.2551 -9.8600 5.5142 0.0000 0.0000 0.0000
# 2 -9.8600 67.2551 5.5142 0.0000 0.0000 0.0000
# 3 5.5142 5.5142 124.5974 0.0000 0.0000 0.0000
# 4 0.0000 0.0000 0.0000 4.4522 0.0000 0.0000
# 5 0.0000 0.0000 0.0000 0.0000 4.4522 0.0000
# 6 0.0000 0.0000 0.0000 0.0000 0.0000 37.4760
#
#
#
# Elastic Compliance Matrix: (Units=1/GPa)
#
#
# Indices 1 2 3 4 5 6 
#
# 1 0.015270 0.002302 -0.000778 0.000000 0.000000 0.000000
# 2 0.002302 0.015270 -0.000778 0.000000 0.000000 0.000000
# 3 -0.000778 -0.000778 0.008095 0.000000 0.000000 0.000000
# 4 0.000000 0.000000 0.000000 0.224610 0.000000 0.000000
# 5 0.000000 0.000000 0.000000 0.000000 0.224610 0.000000
# 6 0.000000 0.000000 0.000000 0.000000 0.000000 0.026684
#
#
# Mechanical properties :
#
#
# Convention : Reuss Voigt Hill
#
# Bulk Modulus (GPa) = 24.91966 29.04938 26.98452
# Shear Modulus (GPa) = 9.49812 26.47202 17.98507
#
# Velocity S-wave (km/s) = 2.09784 3.50225 2.88675
# Velocity P-wave (km/s) = 4.17305 5.46024 4.85945
#
# Compressibility (1/GPa) = 0.04012895
#
# Stress axis : x y z
#
# Youngs Moduli (GPa) = 65.48758 65.48758 123.53782
#
# Poissons Ratio (x) = -0.15078 0.09607
# Poissons Ratio (y) = -0.15078 0.09607
# Poissons Ratio (z) = 0.05093 0.05093
#
# Static dielectric constant tensor:
#      x y z
#    x 1.789270 0.000000 0.000000 
#    y 0.000000 1.789270 0.000000 
#    z 0.000000 0.000000 1.802700 
# 
# From -- ./inp_files/3344.got.cif
#   From: 2010.05.17/outbox.cif.g08.bks.cpg/sg114_2_cif.got.tgz:3344.got - 2010.05.20 11:04:54.
