data_PCOD9556615
_publ_section_title
;
Structure prediction by ZEFSAII (Michael W. Deem and Ramdas Pophale) SiO2 
 PCOD9556615
Probable space group: P -4 M 2
;
_chemical_formula_sum "Si O2"
_cell_formula_units_Z 60
_cell_length_a 14.768614
_cell_length_b 14.768614
_cell_length_c 15.194275
_cell_angle_alpha 90.000000
_cell_angle_beta 90.000000
_cell_angle_gamma 90.000000
_cell_volume 3314.053093
_symmetry_space_group_name_H-M "P -4 M 2"
_symmetry_group_IT_number 115
_symmetry_cell_setting 'tetragonal'
loop_
_space_group_symop_operation_xyz
x,y,z
y,-x,-z
-x,-y,z
-y,x,-z
y,x,-z
-y,-x,-z
-x,y,z
x,-y,z
loop_
_atom_site_type_symbol
_atom_site_label
_atom_site_fract_x
_atom_site_fract_y
_atom_site_fract_z
Si Si1 0.102030 0.751388 0.415758
Si Si2 0.390129 0.903244 0.924944
Si Si3 0.137473 0.395889 0.270675
Si Si4 0.261575 0.891028 0.381743
Si Si5 0.601276 0.343588 0.686102
Si Si6 0.603486 0.603486 0.500000
Si Si7 0.789053 0.396968 0.753602
Si Si8 0.739985 0.390762 0.953208
O O1 0.107464 0.669161 0.347905
O O2 0.170551 0.829421 0.382607
O O3 0.120545 0.713205 0.514414
O O4 0.000000 0.788698 0.418636
O O5 0.500000 0.899781 0.924064
O O6 0.362601 0.895706 0.823740
O O7 0.362285 0.000000 0.962121
O O8 0.359919 0.820480 0.982946
O O9 0.108705 0.500000 0.284301
O O10 0.246527 0.396102 0.268278
O O11 0.331526 0.847305 0.310788
O O12 0.250862 0.000000 0.366077
O O13 0.500000 0.382633 0.697868
O O14 0.614536 0.330651 0.581387
O O15 0.686603 0.399173 0.717088
O O16 0.612310 0.500000 0.533415
O O17 0.826207 0.500000 0.754510
O O18 0.771433 0.365059 0.854276
O O19 0.731267 0.500000 0.952432
O O20 0.652437 0.347564 0.000000
#
# Coordination Sequence:
#
# PCOD9556615 Si02
#       8
#     8   8   8   8   8   4   8   8
#     4  10  21  38  61  86 114 150 191 237 294 354
#     4   9  18  34  55  78 106 139 177 225 278 331
#     4  10  19  31  54  87 117 143 175 226 289 345
#     4  10  23  41  58  82 117 153 195 244 287 341
#     4  10  20  33  51  77 112 151 187 231 275 321
#     4   9  18  30  44  68 102 148 201 230 252 306
#     4  11  23  37  57  83 116 158 198 236 286 347
#     4  10  22  38  57  84 114 149 193 238 285 342
#
# _framework density 18.104717999999998
#
# number of rings (size 3 to 8) (size 9 to 14) (size 15 to 20)
#    0.000    2.067    1.333    1.600    1.867    4.933 
#    0.000    5.333    0.000    0.000    0.000    0.000 
#    0.000    0.267    0.000    0.000    0.000    0.000 
#
# Total GULP energy -334214.863201 kJ/mol
# GULP energy per Si atom -5570.247720 kJ/mol
# Density = 1.806351 g / cm^3
# Si number density = 18.104718 Si / 1000 Ang^3
#
#
#
# Elastic Constant Matrix: (Units=GPa)
#
#
# Indices 1 2 3 4 5 6 
#
# 1 79.2647 29.5803 51.3247 0.0000 0.0000 0.0000
# 2 29.5803 79.2614 51.3242 0.0000 0.0000 0.0000
# 3 51.3247 51.3242 114.8748 0.0000 0.0000 0.0000
# 4 0.0000 0.0000 0.0000 15.8751 0.0000 0.0000
# 5 0.0000 0.0000 0.0000 0.0000 15.8753 0.0000
# 6 0.0000 0.0000 0.0000 0.0000 0.0000 5.1763
#
#
#
# Elastic Compliance Matrix: (Units=1/GPa)
#
#
# Indices 1 2 3 4 5 6 
#
# 1 0.018002 -0.002125 -0.007094 0.000000 0.000000 0.000000
# 2 -0.002125 0.018003 -0.007094 0.000000 0.000000 0.000000
# 3 -0.007094 -0.007094 0.015044 0.000000 0.000000 0.000000
# 4 0.000000 0.000000 0.000000 0.062992 0.000000 0.000000
# 5 0.000000 0.000000 0.000000 0.000000 0.062991 0.000000
# 6 0.000000 0.000000 0.000000 0.000000 0.000000 0.193188
#
#
# Mechanical properties :
#
#
# Convention : Reuss Voigt Hill
#
# Bulk Modulus (GPa) = 54.27772 59.76214 57.01993
# Shear Modulus (GPa) = 12.22533 16.79679 14.51106
#
# Velocity S-wave (km/s) = 2.60139 3.04922 2.83416
# Velocity P-wave (km/s) = 6.25043 6.74372 6.50176
#
# Compressibility (1/GPa) = 0.01842376
#
# Stress axis : x y z
#
# Youngs Moduli (GPa) = 55.54852 55.54579 66.47128
#
# Poissons Ratio (x) = 0.11803 0.47153
# Poissons Ratio (y) = 0.11804 0.47155
# Poissons Ratio (z) = 0.39405 0.39405
#
# Static dielectric constant tensor:
#      x y z
#    x 1.647850 0.000000 0.000000 
#    y 0.000000 1.647850 0.000000 
#    z 0.000000 0.000000 1.640010 
# 
# From -- ./inp_files/3928.got.cif
#   From: 2010.05.17/outbox.cif.g08.bks.cpg/sg115_2_cif.got.tgz:3928.got - 2010.05.20 11:07:42.
