data_PCOD9556916
_publ_section_title
;
Structure prediction by ZEFSAII (Michael W. Deem and Ramdas Pophale) SiO2 
 PCOD9556916
Probable space group: P -4 M 2
;
_chemical_formula_sum "Si O2"
_cell_formula_units_Z 48
_cell_length_a 7.908882
_cell_length_b 7.908882
_cell_length_c 36.617540
_cell_angle_alpha 90.000000
_cell_angle_beta 90.000000
_cell_angle_gamma 90.000000
_cell_volume 2290.442305
_symmetry_space_group_name_H-M "P -4 M 2"
_symmetry_group_IT_number 115
_symmetry_cell_setting 'tetragonal'
loop_
_space_group_symop_operation_xyz
x,y,z
y,-x,-z
-x,-y,z
-y,x,-z
y,x,-z
-y,-x,-z
-x,y,z
x,-y,z
loop_
_atom_site_type_symbol
_atom_site_label
_atom_site_fract_x
_atom_site_fract_y
_atom_site_fract_z
Si Si1 0.299297 0.188602 0.193971
Si Si2 0.307121 0.293974 0.458499
Si Si3 0.703659 0.000000 0.591241
Si Si4 0.304226 0.207653 0.272873
Si Si5 0.796312 0.000000 0.675776
Si Si6 0.309587 0.201642 0.960887
Si Si7 0.298059 0.809335 0.884267
O O1 0.500000 0.176136 0.199197
O O2 0.242775 0.266521 0.232503
O O3 0.273480 0.270847 0.154782
O O4 0.225925 0.000000 0.191218
O O5 0.253278 0.253278 0.500000
O O6 0.500000 0.234692 0.452093
O O7 0.312495 0.500000 0.457326
O O8 0.168487 0.234579 0.429580
O O9 0.747159 0.000000 0.633655
O O10 0.500000 0.000000 0.587934
O O11 0.500000 0.258912 0.279604
O O12 0.169367 0.261742 0.303122
O O13 0.304694 0.000000 0.271395
O O14 0.000000 0.000000 0.677933
O O15 0.500000 0.269456 0.964767
O O16 0.231924 0.268229 0.922610
O O17 0.317148 0.000000 0.955084
O O18 0.226594 0.226594 0.000000
O O19 0.500000 0.815965 0.889788
O O20 0.230906 0.000000 0.880507
#
# Coordination Sequence:
#
# PCOD9556916 Si02
#       7
#     8   8   4   8   4   8   8
#     4   9  18  32  51  76  99 122 163 212 253 297
#     4   8  15  31  54  76 102 141 182 218 268 328
#     4  10  20  34  52  78 110 140 178 228 272 320
#     4   8  16  32  52  73 100 135 174 217 260 312
#     4  10  20  34  52  74 104 140 178 212 266 320
#     4   9  19  35  51  68  94 127 162 198 240 293
#     4   9  19  34  49  69  99 130 157 194 248 305
#
# _framework density 20.956648999999999
#
# number of rings (size 3 to 8) (size 9 to 14) (size 15 to 20)
#    0.000    3.167    0.000    2.500    1.167    3.000 
#    1.500    5.833    0.000    1.000    0.000    0.000 
#    0.000    0.000    0.000    0.000    0.000    0.000 
#
# Total GULP energy -267283.116791 kJ/mol
# GULP energy per Si atom -5568.398266 kJ/mol
# Density = 2.090895 g / cm^3
# Si number density = 20.956649 Si / 1000 Ang^3
#
#
#
# Elastic Constant Matrix: (Units=GPa)
#
#
# Indices 1 2 3 4 5 6 
#
# 1 46.5865 12.9559 53.2200 0.0000 0.0000 0.0000
# 2 12.9559 46.5865 53.2200 0.0000 0.0000 0.0000
# 3 53.2200 53.2200 228.6981 0.0000 0.0000 0.0000
# 4 0.0000 0.0000 0.0000 33.5215 0.0000 0.0000
# 5 0.0000 0.0000 0.0000 0.0000 33.5215 0.0000
# 6 0.0000 0.0000 0.0000 0.0000 0.0000 10.1141
#
#
#
# Elastic Compliance Matrix: (Units=1/GPa)
#
#
# Indices 1 2 3 4 5 6 
#
# 1 0.029246 -0.000488 -0.006692 0.000000 0.000000 0.000000
# 2 -0.000488 0.029246 -0.006692 0.000000 0.000000 0.000000
# 3 -0.006692 -0.006692 0.007487 0.000000 0.000000 0.000000
# 4 0.000000 0.000000 0.000000 0.029832 0.000000 0.000000
# 5 0.000000 0.000000 0.000000 0.000000 0.029832 0.000000
# 6 0.000000 0.000000 0.000000 0.000000 0.000000 0.098871
#
#
# Mechanical properties :
#
#
# Convention : Reuss Voigt Hill
#
# Bulk Modulus (GPa) = 26.15450 62.29586 44.22518
# Shear Modulus (GPa) = 18.86755 28.92977 23.89866
#
# Velocity S-wave (km/s) = 3.00378 3.71948 3.38062
# Velocity P-wave (km/s) = 4.95355 6.94526 6.03218
#
# Compressibility (1/GPa) = 0.03823435
#
# Stress axis : x y z
#
# Youngs Moduli (GPa) = 34.19221 34.19221 133.56031
#
# Poissons Ratio (x) = 0.01670 0.89382
# Poissons Ratio (y) = 0.01670 0.89382
# Poissons Ratio (z) = 0.22882 0.22882
#
# Static dielectric constant tensor:
#      x y z
#    x 1.777860 0.000000 0.000000 
#    y 0.000000 1.777860 0.000000 
#    z 0.000000 0.000000 1.785070 
# 
# From -- ./inp_files/6198.got.cif
#   From: 2010.05.17/outbox.cif.g08.bks.cpg/sg115_4_cif.got.tgz:6198.got - 2010.05.20 11:07:42.
