data_PCOD9556308
_publ_section_title
;
Structure prediction by ZEFSAII (Michael W. Deem and Ramdas Pophale) SiO2 
 PCOD9556308
Probable space group: P -4 21 C
;
_chemical_formula_sum "Si O2"
_cell_formula_units_Z 34
_cell_length_a 9.364993
_cell_length_b 9.364993
_cell_length_c 12.151627
_cell_angle_alpha 90.000000
_cell_angle_beta 90.000000
_cell_angle_gamma 90.000000
_cell_volume 1065.735284
_symmetry_space_group_name_H-M "P -4 21 C"
_symmetry_group_IT_number 114
_symmetry_cell_setting 'tetragonal'
loop_
_space_group_symop_operation_xyz
x,y,z
y,-x,-z
-x,-y,z
-y,x,-z
1/2+x,1/2-y,1/2-z
1/2-x,1/2+y,1/2-z
1/2-y,1/2-x,1/2+z
1/2+y,1/2+x,1/2+z
loop_
_atom_site_type_symbol
_atom_site_label
_atom_site_fract_x
_atom_site_fract_y
_atom_site_fract_z
Si Si1 0.501756 0.848653 0.772195
Si Si2 0.107177 0.172611 0.179069
Si Si3 0.806410 0.481506 0.930507
Si Si4 0.500000 0.500000 0.000000
Si Si5 0.319769 0.287121 0.438267
O O1 0.328461 0.830358 0.787587
O O2 0.821046 0.935953 0.844396
O O3 0.500000 0.000000 0.834963
O O4 0.615477 0.822573 0.959790
O O5 0.411324 0.103322 0.167198
O O6 0.189634 0.068204 0.262592
O O7 0.155047 0.129970 0.056022
O O8 0.835191 0.652361 0.935679
O O9 0.636420 0.470805 0.923894
#
# Coordination Sequence:
#
# PCOD9556308 Si02
#       5
#     8   8   8   2   8
#     4  11  28  56  81 129 183 236 299 400 475 537
#     4  11  28  57  88 130 177 242 309 380 465 557
#     4   9  21  46  85 125 180 239 312 374 451 532
#     4   8  16  44  84 128 172 256 320 370 436 560
#     4  10  24  48  90 126 174 247 312 367 450 563
#
# _framework density 31.902854000000001
#
# number of rings (size 3 to 8) (size 9 to 14) (size 15 to 20)
#    0.000    1.882    0.000    0.000    9.882    2.353 
#   16.941    4.706    0.000    0.000    0.000    0.000 
#    0.000    0.000    0.000    0.000    0.000    0.000 
#
# Total GULP energy -189559.653643 kJ/mol
# GULP energy per Si atom -5575.283931 kJ/mol
# Density = 3.183024 g / cm^3
# Si number density = 31.902854 Si / 1000 Ang^3
#
#
#
# Elastic Constant Matrix: (Units=GPa)
#
#
# Indices 1 2 3 4 5 6 
#
# 1 24.9521 353.9922 64.2600 0.0000 0.0000 0.0000
# 2 353.9922 24.9521 64.2600 0.0000 0.0000 0.0000
# 3 64.2600 64.2600 102.6141 0.0000 0.0000 0.0000
# 4 0.0000 0.0000 0.0000 81.4029 0.0000 0.0000
# 5 0.0000 0.0000 0.0000 0.0000 81.4029 0.0000
# 6 0.0000 0.0000 0.0000 0.0000 0.0000 65.2560
#
#
#
# Elastic Compliance Matrix: (Units=1/GPa)
#
#
# Indices 1 2 3 4 5 6 
#
# 1 0.000156 0.003195 -0.002098 0.000000 0.000000 0.000000
# 2 0.003195 0.000156 -0.002098 0.000000 0.000000 0.000000
# 3 -0.002098 -0.002098 0.012373 0.000000 0.000000 0.000000
# 4 0.000000 0.000000 0.000000 0.012285 0.000000 0.000000
# 5 0.000000 0.000000 0.000000 0.000000 0.012285 0.000000
# 6 0.000000 0.000000 0.000000 0.000000 0.000000 0.015324
#
#
# Mechanical properties :
#
#
# Convention : Reuss Voigt Hill
#
# Bulk Modulus (GPa) = 93.62059 124.17142 108.89600
# Shear Modulus (GPa) = 85.99706 23.61275 54.80491
#
# Velocity S-wave (km/s) = 5.19754 2.72351 4.14921
# Velocity P-wave (km/s) = 8.08879 6.99259 7.56058
#
# Compressibility (1/GPa) = 0.01068141
#
# Stress axis : x y z
#
# Youngs Moduli (GPa) = 6423.12501 6423.12501 80.82018
#
# Poissons Ratio (x) = -20.52079 0.16958
# Poissons Ratio (y) = -20.52079 0.16958
# Poissons Ratio (z) = 13.47696 13.47696
#
# Static dielectric constant tensor:
#      x y z
#    x 2.554320 0.000000 0.000000 
#    y 0.000000 2.554320 0.000000 
#    z 0.000000 0.000000 2.972600 
# 
# From -- ./inp_files/1412.got.cif
#   From: 2010.05.17/outbox.cif.g08.bks.cpg/sg114_1_cif.got.tgz:1412.got - 2010.05.20 11:04:54.
