data_PCOD9556175
_publ_section_title
;
Structure prediction by ZEFSAII (Michael W. Deem and Ramdas Pophale) SiO2 
 PCOD9556175
Probable space group: P -4 21 C
;
_chemical_formula_sum "Si O2"
_cell_formula_units_Z 34
_cell_length_a 8.418089
_cell_length_b 8.418089
_cell_length_c 23.667764
_cell_angle_alpha 90.000000
_cell_angle_beta 90.000000
_cell_angle_gamma 90.000000
_cell_volume 1677.197692
_symmetry_space_group_name_H-M "P -4 21 C"
_symmetry_group_IT_number 114
_symmetry_cell_setting 'tetragonal'
loop_
_space_group_symop_operation_xyz
x,y,z
y,-x,-z
-x,-y,z
-y,x,-z
1/2+x,1/2-y,1/2-z
1/2-x,1/2+y,1/2-z
1/2-y,1/2-x,1/2+z
1/2+y,1/2+x,1/2+z
loop_
_atom_site_type_symbol
_atom_site_label
_atom_site_fract_x
_atom_site_fract_y
_atom_site_fract_z
Si Si1 0.782543 0.711165 0.212703
Si Si2 0.500000 0.500000 0.000000
Si Si3 0.500000 0.500000 0.177072
Si Si4 0.500000 0.000000 0.370267
Si Si5 0.287348 0.684171 0.087472
Si Si6 0.179840 0.447616 0.330094
O O1 0.612800 0.623295 0.208213
O O2 0.820844 0.676166 0.277799
O O3 0.904180 0.618505 0.171586
O O4 0.769340 0.893321 0.192238
O O5 0.630753 0.605993 0.965844
O O6 0.386585 0.599568 0.136781
O O7 0.618245 0.901430 0.409819
O O8 0.265146 0.862560 0.111881
O O9 0.000000 0.500000 0.340282
#
# Coordination Sequence:
#
# PCOD9556175 Si02
#       6
#     8   2   4   4   8   8
#     4  11  22  36  61  95 148 179 213 259 325 409
#     4  10  24  52  76  92 120 180 232 310 344 402
#     4   9  18  37  62  88 130 180 219 255 320 410
#     4  10  22  42  64 102 132 174 210 278 336 414
#     4  10  22  42  67  94 125 166 235 280 345 394
#     4  12  24  38  62 100 140 188 223 262 326 415
#
# _framework density 20.271908
#
# number of rings (size 3 to 8) (size 9 to 14) (size 15 to 20)
#    0.000    1.412    3.529    2.824    0.000    0.941 
#    2.118    0.000    0.000    0.000    0.000    0.000 
#    0.000    0.000    0.000    0.000    0.000    0.000 
#
# Total GULP energy -189515.381871 kJ/mol
# GULP energy per Si atom -5573.981820 kJ/mol
# Density = 2.022577 g / cm^3
# Si number density = 20.271908 Si / 1000 Ang^3
#
#
#
# Elastic Constant Matrix: (Units=GPa)
#
#
# Indices 1 2 3 4 5 6 
#
# 1 120.9887 39.8700 38.5751 0.0000 0.0000 0.0000
# 2 39.8700 120.9887 38.5751 0.0000 0.0000 0.0000
# 3 38.5751 38.5751 72.7824 0.0000 0.0000 0.0000
# 4 0.0000 0.0000 0.0000 12.4347 0.0000 0.0000
# 5 0.0000 0.0000 0.0000 0.0000 12.4347 0.0000
# 6 0.0000 0.0000 0.0000 0.0000 0.0000 39.1988
#
#
#
# Elastic Compliance Matrix: (Units=1/GPa)
#
#
# Indices 1 2 3 4 5 6 
#
# 1 0.010332 -0.001996 -0.004418 0.000000 0.000000 0.000000
# 2 -0.001996 0.010332 -0.004418 0.000000 0.000000 0.000000
# 3 -0.004418 -0.004418 0.018423 0.000000 0.000000 0.000000
# 4 0.000000 0.000000 0.000000 0.080420 0.000000 0.000000
# 5 0.000000 0.000000 0.000000 0.000000 0.080420 0.000000
# 6 0.000000 0.000000 0.000000 0.000000 0.000000 0.025511
#
#
# Mechanical properties :
#
#
# Convention : Reuss Voigt Hill
#
# Bulk Modulus (GPa) = 57.39829 60.97781 59.18805
# Shear Modulus (GPa) = 19.77005 25.99628 22.88316
#
# Velocity S-wave (km/s) = 3.12628 3.58492 3.36342
# Velocity P-wave (km/s) = 6.43484 6.87610 6.65913
#
# Compressibility (1/GPa) = 0.01742212
#
# Stress axis : x y z
#
# Youngs Moduli (GPa) = 96.79072 96.79072 54.28117
#
# Poissons Ratio (x) = 0.19320 0.23981
# Poissons Ratio (y) = 0.19320 0.23981
# Poissons Ratio (z) = 0.42761 0.42761
#
# Static dielectric constant tensor:
#      x y z
#    x 1.801480 0.000000 0.000000 
#    y 0.000000 1.801480 0.000000 
#    z 0.000000 0.000000 1.709700 
# 
# From -- ./inp_files/3006.got.cif
#   From: 2010.05.17/outbox.cif.g08.bks.cpg/sg114_2_cif.got.tgz:3006.got - 2010.05.20 11:04:54.
