data_PCOD9556418
_publ_section_title
;
Structure prediction by ZEFSAII (Michael W. Deem and Ramdas Pophale) SiO2 
 PCOD9556418
Probable space group: P -4 21 C
;
_chemical_formula_sum "Si O2"
_cell_formula_units_Z 40
_cell_length_a 9.393818
_cell_length_b 9.393818
_cell_length_c 21.777054
_cell_angle_alpha 90.000000
_cell_angle_beta 90.000000
_cell_angle_gamma 90.000000
_cell_volume 1921.690360
_symmetry_space_group_name_H-M "P -4 21 C"
_symmetry_group_IT_number 114
_symmetry_cell_setting 'tetragonal'
loop_
_space_group_symop_operation_xyz
x,y,z
y,-x,-z
-x,-y,z
-y,x,-z
1/2+x,1/2-y,1/2-z
1/2-x,1/2+y,1/2-z
1/2-y,1/2-x,1/2+z
1/2+y,1/2+x,1/2+z
loop_
_atom_site_type_symbol
_atom_site_label
_atom_site_fract_x
_atom_site_fract_y
_atom_site_fract_z
Si Si1 0.141377 0.598183 0.210573
Si Si2 0.425968 0.650325 0.703211
Si Si3 0.982778 0.331246 0.573613
Si Si4 0.465353 0.830297 0.581096
Si Si5 0.763116 0.246033 0.476963
O O1 0.268096 0.523236 0.247326
O O2 0.123475 0.764538 0.226811
O O3 0.175787 0.595860 0.137997
O O4 0.000000 0.500000 0.219304
O O5 0.500000 0.500000 0.687236
O O6 0.421943 0.756056 0.644569
O O7 0.905569 0.257834 0.516554
O O8 0.000000 0.500000 0.560827
O O9 0.132773 0.252754 0.577018
O O10 0.350293 0.800072 0.528281
O O11 0.603033 0.748596 0.555070
O O12 0.500000 0.000000 0.588386
#
# Coordination Sequence:
#
# PCOD9556418 Si02
#       5
#     8   8   8   8   8
#     4  11  26  50  74 102 148 182 241 305 352 431
#     4  12  28  48  77 107 133 196 243 292 368 425
#     4  11  24  45  69 103 144 182 233 287 353 418
#     4  12  27  45  70 105 149 182 239 292 356 424
#     4  12  22  45  67 104 143 189 223 293 348 429
#
# _framework density 20.815006
#
# number of rings (size 3 to 8) (size 9 to 14) (size 15 to 20)
#    0.000    0.400    6.000    1.800   11.200    0.400 
#    3.600    0.000    0.000    0.000    0.000    0.000 
#    0.000    0.000    0.000    0.000    0.000    0.000 
#
# Total GULP energy -223365.212399 kJ/mol
# GULP energy per Si atom -5584.130310 kJ/mol
# Density = 2.076763 g / cm^3
# Si number density = 20.815006 Si / 1000 Ang^3
#
#
#
# Elastic Constant Matrix: (Units=GPa)
#
#
# Indices 1 2 3 4 5 6 
#
# 1 121.2201 56.8486 22.9057 0.0000 0.0000 0.0000
# 2 56.8486 121.2201 22.9057 0.0000 0.0000 0.0000
# 3 22.9057 22.9057 40.5537 0.0000 0.0000 0.0000
# 4 0.0000 0.0000 0.0000 31.4349 0.0000 0.0000
# 5 0.0000 0.0000 0.0000 0.0000 31.4349 0.0000
# 6 0.0000 0.0000 0.0000 0.0000 0.0000 29.9106
#
#
#
# Elastic Compliance Matrix: (Units=1/GPa)
#
#
# Indices 1 2 3 4 5 6 
#
# 1 0.011053 -0.004482 -0.003711 0.000000 0.000000 0.000000
# 2 -0.004482 0.011053 -0.003711 0.000000 0.000000 0.000000
# 3 -0.003711 -0.003711 0.028851 0.000000 0.000000 0.000000
# 4 0.000000 0.000000 0.000000 0.031812 0.000000 0.000000
# 5 0.000000 0.000000 0.000000 0.000000 0.031812 0.000000
# 6 0.000000 0.000000 0.000000 0.000000 0.000000 0.033433
#
#
# Mechanical properties :
#
#
# Convention : Reuss Voigt Hill
#
# Bulk Modulus (GPa) = 36.83607 54.25711 45.54659
# Shear Modulus (GPa) = 27.64399 30.57834 29.11117
#
# Velocity S-wave (km/s) = 3.64824 3.83698 3.74380
# Velocity P-wave (km/s) = 5.95663 6.76408 6.37316
#
# Compressibility (1/GPa) = 0.02714730
#
# Stress axis : x y z
#
# Youngs Moduli (GPa) = 90.47557 90.47557 34.66086
#
# Poissons Ratio (x) = 0.40552 0.12863
# Poissons Ratio (y) = 0.40552 0.12863
# Poissons Ratio (z) = 0.33577 0.33577
#
# Static dielectric constant tensor:
#      x y z
#    x 1.586020 0.000000 0.000000 
#    y 0.000000 1.586020 0.000000 
#    z 0.000000 0.000000 1.738510 
# 
# From -- ./inp_files/3349.got.cif
#   From: 2010.05.17/outbox.cif.g08.bks.cpg/sg114_2_cif.got.tgz:3349.got - 2010.05.20 11:04:54.
