data_PCOD9556271
_publ_section_title
;
Structure prediction by ZEFSAII (Michael W. Deem and Ramdas Pophale) SiO2 
 PCOD9556271
Probable space group: P -4 21 C
;
_chemical_formula_sum "Si O2"
_cell_formula_units_Z 32
_cell_length_a 17.095044
_cell_length_b 17.095044
_cell_length_c 4.987003
_cell_angle_alpha 90.000000
_cell_angle_beta 90.000000
_cell_angle_gamma 90.000000
_cell_volume 1457.404397
_symmetry_space_group_name_H-M "P -4 21 C"
_symmetry_group_IT_number 114
_symmetry_cell_setting 'tetragonal'
loop_
_space_group_symop_operation_xyz
x,y,z
y,-x,-z
-x,-y,z
-y,x,-z
1/2+x,1/2-y,1/2-z
1/2-x,1/2+y,1/2-z
1/2-y,1/2-x,1/2+z
1/2+y,1/2+x,1/2+z
loop_
_atom_site_type_symbol
_atom_site_label
_atom_site_fract_x
_atom_site_fract_y
_atom_site_fract_z
Si Si1 0.206380 0.370725 0.954416
Si Si2 0.382269 0.189240 0.367321
Si Si3 0.151184 0.843023 0.855691
Si Si4 0.275375 0.489679 0.340682
O O1 0.166423 0.352717 0.669898
O O2 0.291349 0.332652 0.894496
O O3 0.232388 0.452374 0.086232
O O4 0.372429 0.158185 0.069453
O O5 0.339075 0.270892 0.439040
O O6 0.469022 0.210759 0.468879
O O7 0.060977 0.833947 0.769240
O O8 0.177117 0.922641 0.001273
#
# Coordination Sequence:
#
# PCOD9556271 Si02
#       4
#     8   8   8   8
#     4  12  24  44  73 106 140 191 252 302 352 436
#     4  10  24  42  71 100 137 188 245 293 346 433
#     4  10  24  43  69 110 143 190 238 297 372 439
#     4  10  26  41  74 106 152 184 243 302 382 419
#
# _framework density 21.956842999999999
#
# number of rings (size 3 to 8) (size 9 to 14) (size 15 to 20)
#    1.500    0.000    2.500    1.500    7.000    2.500 
#    0.000    0.000    0.000    4.500    0.000    0.000 
#    0.000    0.000    0.000    0.000    0.000    0.000 
#
# Total GULP energy -178326.055668 kJ/mol
# GULP energy per Si atom -5572.689240 kJ/mol
# Density = 2.190687 g / cm^3
# Si number density = 21.956843 Si / 1000 Ang^3
#
#
#
# Elastic Constant Matrix: (Units=GPa)
#
#
# Indices 1 2 3 4 5 6 
#
# 1 84.9852 42.6077 8.6466 0.0000 0.0000 0.0000
# 2 42.6077 84.9852 8.6466 0.0000 0.0000 0.0000
# 3 8.6466 8.6466 59.7067 0.0000 0.0000 0.0000
# 4 0.0000 0.0000 0.0000 32.6695 0.0000 0.0000
# 5 0.0000 0.0000 0.0000 0.0000 32.6695 0.0000
# 6 0.0000 0.0000 0.0000 0.0000 0.0000 26.3573
#
#
#
# Elastic Compliance Matrix: (Units=1/GPa)
#
#
# Indices 1 2 3 4 5 6 
#
# 1 0.015796 -0.007802 -0.001158 0.000000 0.000000 0.000000
# 2 -0.007802 0.015796 -0.001158 0.000000 0.000000 0.000000
# 3 -0.001158 -0.001158 0.017084 0.000000 0.000000 0.000000
# 4 0.000000 0.000000 0.000000 0.030610 0.000000 0.000000
# 5 0.000000 0.000000 0.000000 0.000000 0.030610 0.000000
# 6 0.000000 0.000000 0.000000 0.000000 0.000000 0.037940
#
#
# Mechanical properties :
#
#
# Convention : Reuss Voigt Hill
#
# Bulk Modulus (GPa) = 35.15972 38.83099 36.99536
# Shear Modulus (GPa) = 28.16117 29.65767 28.90942
#
# Velocity S-wave (km/s) = 3.58518 3.67921 3.63250
# Velocity P-wave (km/s) = 5.76072 5.98100 5.87189
#
# Compressibility (1/GPa) = 0.02844164
#
# Stress axis : x y z
#
# Youngs Moduli (GPa) = 63.30765 63.30765 58.53474
#
# Poissons Ratio (x) = 0.49390 0.06777
# Poissons Ratio (y) = 0.49390 0.06777
# Poissons Ratio (z) = 0.07329 0.07329
#
# Static dielectric constant tensor:
#      x y z
#    x 1.842150 0.000000 0.000000 
#    y 0.000000 1.842150 0.000000 
#    z 0.000000 0.000000 1.841170 
# 
# From -- ./inp_files/110.got.cif
#   From: 2010.05.17/outbox.cif.g08.bks.cpg/sg114_1_cif.got.tgz:110.got - 2010.05.20 11:04:54.
