data_PCOD9556489
_publ_section_title
;
Structure prediction by ZEFSAII (Michael W. Deem and Ramdas Pophale) SiO2 
 PCOD9556489
Probable space group: P -4 21 C
;
_chemical_formula_sum "Si O2"
_cell_formula_units_Z 32
_cell_length_a 11.527137
_cell_length_b 11.527137
_cell_length_c 9.874088
_cell_angle_alpha 90.000000
_cell_angle_beta 90.000000
_cell_angle_gamma 90.000000
_cell_volume 1312.018331
_symmetry_space_group_name_H-M "P -4 21 C"
_symmetry_group_IT_number 114
_symmetry_cell_setting 'tetragonal'
loop_
_space_group_symop_operation_xyz
x,y,z
y,-x,-z
-x,-y,z
-y,x,-z
1/2+x,1/2-y,1/2-z
1/2-x,1/2+y,1/2-z
1/2-y,1/2-x,1/2+z
1/2+y,1/2+x,1/2+z
loop_
_atom_site_type_symbol
_atom_site_label
_atom_site_fract_x
_atom_site_fract_y
_atom_site_fract_z
Si Si1 0.121040 0.517662 0.420836
Si Si2 0.072433 0.879670 0.299836
Si Si3 0.112612 0.252248 0.477874
Si Si4 0.334858 0.164503 0.330499
O O1 0.149699 0.386722 0.465165
O O2 0.098417 0.589937 0.557193
O O3 0.186431 0.598660 0.312348
O O4 0.000000 0.500000 0.343858
O O5 0.196953 0.899516 0.372914
O O6 0.100614 0.790213 0.180215
O O7 0.999534 0.795547 0.399220
O O8 0.000000 0.000000 0.279309
O O9 0.212990 0.187979 0.396866
#
# Coordination Sequence:
#
# PCOD9556489 Si02
#       4
#     8   8   8   8
#     4  12  27  48  77 115 151 196 259 321 383 453
#     4  12  26  48  76 111 153 208 254 313 392 474
#     4  12  25  48  78 107 155 199 256 314 387 461
#     4  12  28  49  77 115 154 203 257 323 386 461
#
# _framework density 24.389904000000001
#
# number of rings (size 3 to 8) (size 9 to 14) (size 15 to 20)
#    0.000    0.000    7.500    0.750    7.000    0.000 
#    0.000    0.000    0.000    0.000    0.000    0.000 
#    0.000    0.000    0.000    0.000    0.000    0.000 
#
# Total GULP energy -178565.231163 kJ/mol
# GULP energy per Si atom -5580.163474 kJ/mol
# Density = 2.433439 g / cm^3
# Si number density = 24.389904 Si / 1000 Ang^3
#
#
#
# Elastic Constant Matrix: (Units=GPa)
#
#
# Indices 1 2 3 4 5 6 
#
# 1 140.0095 4.8956 26.5543 0.0000 0.0000 0.0000
# 2 4.8956 140.0095 26.5543 0.0000 0.0000 0.0000
# 3 26.5543 26.5543 78.9261 0.0000 0.0000 0.0000
# 4 0.0000 0.0000 0.0000 35.2283 0.0000 0.0000
# 5 0.0000 0.0000 0.0000 0.0000 35.2283 0.0000
# 6 0.0000 0.0000 0.0000 0.0000 0.0000 33.8598
#
#
#
# Elastic Compliance Matrix: (Units=1/GPa)
#
#
# Indices 1 2 3 4 5 6 
#
# 1 0.007636 0.000235 -0.002648 0.000000 0.000000 0.000000
# 2 0.000235 0.007636 -0.002648 0.000000 0.000000 0.000000
# 3 -0.002648 -0.002648 0.014452 0.000000 0.000000 0.000000
# 4 0.000000 0.000000 0.000000 0.028386 0.000000 0.000000
# 5 0.000000 0.000000 0.000000 0.000000 0.028386 0.000000
# 6 0.000000 0.000000 0.000000 0.000000 0.000000 0.029534
#
#
# Mechanical properties :
#
#
# Convention : Reuss Voigt Hill
#
# Bulk Modulus (GPa) = 51.01520 52.77261 51.89390
# Shear Modulus (GPa) = 37.68231 40.92600 39.30415
#
# Velocity S-wave (km/s) = 3.93491 4.10077 4.01870
# Velocity P-wave (km/s) = 6.45032 6.64122 6.54646
#
# Compressibility (1/GPa) = 0.01960200
#
# Stress axis : x y z
#
# Youngs Moduli (GPa) = 130.95104 130.95104 69.19381
#
# Poissons Ratio (x) = -0.03081 0.18325
# Poissons Ratio (y) = -0.03081 0.18325
# Poissons Ratio (z) = 0.34681 0.34681
#
# Static dielectric constant tensor:
#      x y z
#    x 2.057440 0.000000 0.000000 
#    y 0.000000 2.057440 0.000000 
#    z 0.000000 0.000000 1.897130 
# 
# From -- ./inp_files/1388.got.cif
#   From: 2010.05.17/outbox.cif.g08.bks.cpg/sg114_1_cif.got.tgz:1388.got - 2010.05.20 11:04:54.
