data_PCOD9556511
_publ_section_title
;
Structure prediction by ZEFSAII (Michael W. Deem and Ramdas Pophale) SiO2 
 PCOD9556511
Probable space group: P -4 21 C
;
_chemical_formula_sum "Si O2"
_cell_formula_units_Z 40
_cell_length_a 9.000000
_cell_length_b 9.000000
_cell_length_c 24.000000
_cell_angle_alpha 90.000000
_cell_angle_beta 90.000000
_cell_angle_gamma 90.000000
_cell_volume 1944.000000
_symmetry_space_group_name_H-M "P -4 21 C"
_symmetry_group_IT_number 114
_symmetry_cell_setting 'tetragonal'
loop_
_space_group_symop_operation_xyz
x,y,z
y,-x,-z
-x,-y,z
-y,x,-z
1/2+x,1/2-y,1/2-z
1/2-x,1/2+y,1/2-z
1/2-y,1/2-x,1/2+z
1/2+y,1/2+x,1/2+z
loop_
_atom_site_type_symbol
_atom_site_label
_atom_site_fract_x
_atom_site_fract_y
_atom_site_fract_z
Si Si1 0.696873 0.324250 0.926517
Si Si2 0.161301 0.074188 0.691202
Si Si3 0.838823 0.419597 0.039413
Si Si4 0.659425 0.074630 0.787146
Si Si5 0.509294 0.325230 0.399759
O O1 0.721156 0.419843 0.871714
O O2 0.525738 0.268989 0.925062
O O3 0.783627 0.168758 0.925231
O O4 0.752778 0.403995 0.981564
O O5 0.151493 0.246883 0.710151
O O6 0.271673 0.983194 0.730122
O O7 0.000000 0.000000 0.693744
O O8 0.000000 0.500000 0.033113
O O9 0.880019 0.263628 0.067968
O O10 0.764422 0.017766 0.836992
O O11 0.500000 0.000000 0.796457
O O12 0.500000 0.500000 0.401658
#
# Coordination Sequence:
#
# PCOD9556511 Si02
#       5
#     8   8   8   8   8
#     4  10  24  41  64  97 134 178 227 281 343 399
#     4  11  24  43  67  96 134 181 227 279 348 413
#     4  10  23  41  62  98 137 175 226 282 339 404
#     4  11  23  44  67 101 137 173 229 285 346 414
#     4  10  22  40  69  97 133 180 224 279 340 414
#
# _framework density 20.576132000000001
#
# number of rings (size 3 to 8) (size 9 to 14) (size 15 to 20)
#    0.000    1.600    0.000    4.800    8.400    2.400 
#    0.000    0.000    0.000    0.000    0.000    0.000 
#    0.000    0.000    0.000    0.000    0.000    0.000 
#
# Total GULP energy -223595.951526 kJ/mol
# GULP energy per Si atom -5589.898788 kJ/mol
# Density = 2.052930 g / cm^3
# Si number density = 20.576132 Si / 1000 Ang^3
#
#
#
# Elastic Constant Matrix: (Units=GPa)
#
#
# Indices 1 2 3 4 5 6 
#
# 1 88.6535 30.3243 43.9300 0.0000 0.0000 0.0000
# 2 30.3243 88.6535 43.9300 0.0000 0.0000 0.0000
# 3 43.9300 43.9300 77.8868 0.0000 0.0000 0.0000
# 4 0.0000 0.0000 0.0000 35.0293 0.0000 0.0000
# 5 0.0000 0.0000 0.0000 0.0000 35.0293 0.0000
# 6 0.0000 0.0000 0.0000 0.0000 0.0000 16.0601
#
#
#
# Elastic Compliance Matrix: (Units=1/GPa)
#
#
# Indices 1 2 3 4 5 6 
#
# 1 0.015774 -0.001370 -0.008125 0.000000 0.000000 0.000000
# 2 -0.001370 0.015774 -0.008125 0.000000 0.000000 0.000000
# 3 -0.008125 -0.008125 0.022004 0.000000 0.000000 0.000000
# 4 0.000000 0.000000 0.000000 0.028548 0.000000 0.000000
# 5 0.000000 0.000000 0.000000 0.000000 0.028548 0.000000
# 6 0.000000 0.000000 0.000000 0.000000 0.000000 0.062266
#
#
# Mechanical properties :
#
#
# Convention : Reuss Voigt Hill
#
# Bulk Modulus (GPa) = 54.59996 54.61805 54.60900
# Shear Modulus (GPa) = 23.33652 26.35770 24.84711
#
# Velocity S-wave (km/s) = 3.37138 3.58297 3.47878
# Velocity P-wave (km/s) = 6.46128 6.61202 6.53708
#
# Compressibility (1/GPa) = 0.01831503
#
# Stress axis : x y z
#
# Youngs Moduli (GPa) = 63.39422 63.39422 45.44632
#
# Poissons Ratio (x) = 0.08684 0.36923
# Poissons Ratio (y) = 0.08684 0.36923
# Poissons Ratio (z) = 0.51505 0.51505
#
# Static dielectric constant tensor:
#      x y z
#    x 1.716580 0.000000 0.000000 
#    y 0.000000 1.716580 0.000000 
#    z 0.000000 0.000000 1.745880 
# 
# From -- ./inp_files/3332.got.cif
#   From: 2010.05.17/outbox.ucp.g08.bks.cvg/sg114_2_cif.got.tgz:3332.got - 2010.06.11 11:33:27.
