data_PCOD9556048
_publ_section_title
;
Structure prediction by ZEFSAII (Michael W. Deem and Ramdas Pophale) SiO2 
 PCOD9556048
Probable space group: P -4 21 C
;
_chemical_formula_sum "Si O2"
_cell_formula_units_Z 64
_cell_length_a 23.348624
_cell_length_b 23.348624
_cell_length_c 5.403516
_cell_angle_alpha 90.000000
_cell_angle_beta 90.000000
_cell_angle_gamma 90.000000
_cell_volume 2945.771287
_symmetry_space_group_name_H-M "P -4 21 C"
_symmetry_group_IT_number 114
_symmetry_cell_setting 'tetragonal'
loop_
_space_group_symop_operation_xyz
x,y,z
y,-x,-z
-x,-y,z
-y,x,-z
1/2+x,1/2-y,1/2-z
1/2-x,1/2+y,1/2-z
1/2-y,1/2-x,1/2+z
1/2+y,1/2+x,1/2+z
loop_
_atom_site_type_symbol
_atom_site_label
_atom_site_fract_x
_atom_site_fract_y
_atom_site_fract_z
Si Si1 0.092839 0.862242 0.879474
Si Si2 0.239843 0.788164 0.450748
Si Si3 0.295668 0.541706 0.002175
Si Si4 0.381534 0.828600 0.895007
Si Si5 0.671562 0.530294 0.613865
Si Si6 0.757582 0.867259 0.846246
Si Si7 0.639155 0.908832 0.958139
Si Si8 0.211565 0.490346 0.367067
O O1 0.078689 0.849141 0.593898
O O2 0.126732 0.919722 0.930720
O O3 0.133235 0.810040 0.965370
O O4 0.029755 0.854732 0.005768
O O5 0.251888 0.773009 0.735469
O O6 0.266452 0.850501 0.402466
O O7 0.176176 0.773556 0.370617
O O8 0.318995 0.481493 0.905506
O O9 0.262688 0.570689 0.778881
O O10 0.248792 0.536104 0.213036
O O11 0.356180 0.865177 0.660957
O O12 0.447043 0.818066 0.823906
O O13 0.736214 0.541188 0.512220
O O14 0.694297 0.865506 0.954707
O O15 0.602286 0.893059 0.200204
O O16 0.664279 0.973133 0.986866
#
# Coordination Sequence:
#
# PCOD9556048 Si02
#       8
#     8   8   8   8   8   8   8   8
#     4  10  22  38  60  87 126 173 231 277 327 386
#     4  10  22  37  56  91 131 167 209 261 331 396
#     4  10  21  38  62  93 124 173 234 269 332 403
#     4  10  24  42  66  98 129 175 227 272 329 400
#     4  10  22  40  63  91 128 180 226 283 333 394
#     4  11  21  38  58  90 131 169 214 267 333 404
#     4  12  25  39  68 101 133 170 217 272 340 415
#     4  11  23  44  67  93 133 173 224 276 345 408
#
# _framework density 21.726057999999998
#
# number of rings (size 3 to 8) (size 9 to 14) (size 15 to 20)
#    0.000    1.500    3.750    2.250    3.500    5.250 
#    0.000    0.000    0.000    2.250    0.000    0.000 
#    0.000    0.000    0.000    0.000    0.000    0.000 
#
# Total GULP energy -356831.231666 kJ/mol
# GULP energy per Si atom -5575.487995 kJ/mol
# Density = 2.167661 g / cm^3
# Si number density = 21.726058 Si / 1000 Ang^3
#
#
#
# Elastic Constant Matrix: (Units=GPa)
#
#
# Indices 1 2 3 4 5 6 
#
# 1 56.9679 0.6338 3.7266 0.0000 0.0000 0.0000
# 2 0.6338 56.9679 3.7266 0.0000 0.0000 0.0000
# 3 3.7266 3.7266 68.8458 0.0000 0.0000 0.0000
# 4 0.0000 0.0000 0.0000 24.8249 0.0000 0.0000
# 5 0.0000 0.0000 0.0000 0.0000 24.8249 0.0000
# 6 0.0000 0.0000 0.0000 0.0000 0.0000 11.9487
#
#
#
# Elastic Compliance Matrix: (Units=1/GPa)
#
#
# Indices 1 2 3 4 5 6 
#
# 1 0.017617 -0.000134 -0.000946 0.000000 0.000000 0.000000
# 2 -0.000134 0.017617 -0.000946 0.000000 0.000000 0.000000
# 3 -0.000946 -0.000946 0.014628 0.000000 0.000000 0.000000
# 4 0.000000 0.000000 0.000000 0.040282 0.000000 0.000000
# 5 0.000000 0.000000 0.000000 0.000000 0.040282 0.000000
# 6 0.000000 0.000000 0.000000 0.000000 0.000000 0.083691
#
#
# Mechanical properties :
#
#
# Convention : Reuss Voigt Hill
#
# Bulk Modulus (GPa) = 21.83008 22.10618 21.96813
# Shear Modulus (GPa) = 21.41875 23.96600 22.69238
#
# Velocity S-wave (km/s) = 3.14324 3.32490 3.23534
# Velocity P-wave (km/s) = 4.82110 4.99369 4.90815
#
# Compressibility (1/GPa) = 0.04580836
#
# Stress axis : x y z
#
# Youngs Moduli (GPa) = 56.76284 56.76284 68.36364
#
# Poissons Ratio (x) = 0.00761 0.06470
# Poissons Ratio (y) = 0.00761 0.06470
# Poissons Ratio (z) = 0.05372 0.05372
#
# Static dielectric constant tensor:
#      x y z
#    x 1.826870 0.000000 0.000000 
#    y 0.000000 1.826870 0.000000 
#    z 0.000000 0.000000 1.906750 
# 
# From -- ./inp_files/308.got.cif
#   From: 2010.05.17/outbox.cif.g08.bks.cpg/sg114_1_cif.got.tgz:308.got - 2010.05.20 11:04:54.
