data_PCOD9556678
_publ_section_title
;
Structure prediction by ZEFSAII (Michael W. Deem and Ramdas Pophale) SiO2 
 PCOD9556678
Probable space group: P -4 M 2
;
_chemical_formula_sum "Si O2"
_cell_formula_units_Z 56
_cell_length_a 14.530896
_cell_length_b 14.530896
_cell_length_c 15.197311
_cell_angle_alpha 90.000000
_cell_angle_beta 90.000000
_cell_angle_gamma 90.000000
_cell_volume 3208.865692
_symmetry_space_group_name_H-M "P -4 M 2"
_symmetry_group_IT_number 115
_symmetry_cell_setting 'tetragonal'
loop_
_space_group_symop_operation_xyz
x,y,z
y,-x,-z
-x,-y,z
-y,x,-z
y,x,-z
-y,-x,-z
-x,y,z
x,-y,z
loop_
_atom_site_type_symbol
_atom_site_label
_atom_site_fract_x
_atom_site_fract_y
_atom_site_fract_z
Si Si1 0.239091 0.609968 0.009400
Si Si2 0.106097 0.608265 0.844749
Si Si3 0.604836 0.242823 0.481107
Si Si4 0.895613 0.646686 0.369153
Si Si5 0.104643 0.611028 0.166162
Si Si6 0.302690 0.104089 0.341935
Si Si7 0.863743 0.099981 0.601453
O O1 0.256221 0.500000 0.015459
O O2 0.175029 0.626341 0.924274
O O3 0.331139 0.668862 0.000000
O O4 0.179635 0.639975 0.094619
O O5 0.113712 0.500000 0.821545
O O6 0.124232 0.666437 0.757316
O O7 0.000000 0.624098 0.872622
O O8 0.669207 0.330794 0.500000
O O9 0.500000 0.266255 0.455842
O O10 0.602276 0.179856 0.568582
O O11 0.653577 0.178761 0.407481
O O12 0.873061 0.638910 0.265998
O O13 0.897407 0.753429 0.395838
O O14 0.000000 0.610224 0.380953
O O15 0.102560 0.500000 0.163369
O O16 0.000000 0.643156 0.146193
O O17 0.192467 0.104643 0.351188
O O18 0.335232 0.000000 0.364565
O O19 0.893428 0.106573 0.500000
O O20 0.892525 0.000000 0.637210
#
# Coordination Sequence:
#
# PCOD9556678 Si02
#       7
#     8   8   8   8   8   8   8
#     4  10  21  35  55  80 107 142 178 218 270 328
#     4   9  19  36  57  81 108 138 178 230 280 325
#     4  12  24  38  55  77 109 146 186 229 275 327
#     4  10  19  34  56  82 109 137 175 225 277 324
#     4   9  18  33  54  80 105 130 169 223 278 326
#     4  11  21  36  58  84 111 143 186 229 274 326
#     4  11  21  34  53  79 115 154 186 220 267 328
#
# _framework density 17.451650999999998
#
# number of rings (size 3 to 8) (size 9 to 14) (size 15 to 20)
#    0.000    1.714    2.857    2.143    2.000    5.286 
#    0.000    0.000    0.000    0.000    0.000    4.000 
#    0.000    2.571    0.000    0.000    0.000    0.000 
#
# Total GULP energy -312501.987423 kJ/mol
# GULP energy per Si atom -5580.392633 kJ/mol
# Density = 1.741193 g / cm^3
# Si number density = 17.451651 Si / 1000 Ang^3
#
#
#
# Elastic Constant Matrix: (Units=GPa)
#
#
# Indices 1 2 3 4 5 6 
#
# 1 100.8807 46.2570 49.4411 0.0000 0.0000 0.0000
# 2 46.2570 100.8829 49.4416 0.0000 0.0000 0.0000
# 3 49.4411 49.4416 84.1114 0.0000 0.0000 0.0000
# 4 0.0000 0.0000 0.0000 16.3736 0.0000 0.0000
# 5 0.0000 0.0000 0.0000 0.0000 16.3744 0.0000
# 6 0.0000 0.0000 0.0000 0.0000 0.0000 11.3682
#
#
#
# Elastic Compliance Matrix: (Units=1/GPa)
#
#
# Indices 1 2 3 4 5 6 
#
# 1 0.014771 -0.003536 -0.006604 0.000000 0.000000 0.000000
# 2 -0.003536 0.014770 -0.006603 0.000000 0.000000 0.000000
# 3 -0.006604 -0.006603 0.019652 0.000000 0.000000 0.000000
# 4 0.000000 0.000000 0.000000 0.061074 0.000000 0.000000
# 5 0.000000 0.000000 0.000000 0.000000 0.061071 0.000000
# 6 0.000000 0.000000 0.000000 0.000000 0.000000 0.087965
#
#
# Mechanical properties :
#
#
# Convention : Reuss Voigt Hill
#
# Bulk Modulus (GPa) = 63.66836 64.01716 63.84276
# Shear Modulus (GPa) = 16.77715 18.20560 17.49137
#
# Velocity S-wave (km/s) = 3.10393 3.23337 3.16931
# Velocity P-wave (km/s) = 7.02906 7.12052 7.07494
#
# Compressibility (1/GPa) = 0.01570639
#
# Stress axis : x y z
#
# Youngs Moduli (GPa) = 67.70217 67.70369 50.88489
#
# Poissons Ratio (x) = 0.23942 0.33602
# Poissons Ratio (y) = 0.23941 0.33602
# Poissons Ratio (z) = 0.44707 0.44708
#
# Static dielectric constant tensor:
#      x y z
#    x 1.603610 0.000000 0.000000 
#    y 0.000000 1.603610 0.000000 
#    z 0.000000 0.000000 1.577930 
# 
# From -- ./inp_files/3835.got.cif
#   From: 2010.05.17/outbox.cif.g08.bks.cpg/sg115_2_cif.got.tgz:3835.got - 2010.05.20 11:07:42.
