data_PCOD9556631
_publ_section_title
;
Structure prediction by ZEFSAII (Michael W. Deem and Ramdas Pophale) SiO2 
 PCOD9556631
Probable space group: P -4 M 2
;
_chemical_formula_sum "Si O2"
_cell_formula_units_Z 25
_cell_length_a 8.358909
_cell_length_b 8.358909
_cell_length_c 18.871237
_cell_angle_alpha 90.000000
_cell_angle_beta 90.000000
_cell_angle_gamma 90.000000
_cell_volume 1318.558988
_symmetry_space_group_name_H-M "P -4 M 2"
_symmetry_group_IT_number 115
_symmetry_cell_setting 'tetragonal'
loop_
_space_group_symop_operation_xyz
x,y,z
y,-x,-z
-x,-y,z
-y,x,-z
y,x,-z
-y,-x,-z
-x,y,z
x,-y,z
loop_
_atom_site_type_symbol
_atom_site_label
_atom_site_fract_x
_atom_site_fract_y
_atom_site_fract_z
Si Si1 0.175686 0.695821 0.293230
Si Si2 0.500000 0.316253 0.362716
Si Si3 0.691389 0.682002 0.853652
Si Si4 0.186544 0.186544 0.000000
Si Si5 0.500000 0.500000 0.500000
O O1 0.174186 0.500000 0.297301
O O2 0.332001 0.753659 0.336213
O O3 0.204515 0.740087 0.211040
O O4 0.000000 0.750621 0.317040
O O5 0.500000 0.500000 0.332107
O O6 0.500000 0.349533 0.446864
O O7 0.500000 0.695181 0.861061
O O8 0.729342 0.500000 0.832638
O O9 0.764868 0.720202 0.929499
O O10 0.000000 0.213801 0.014562
#
# Coordination Sequence:
#
# PCOD9556631 Si02
#       5
#     8   4   8   4   1
#     4   9  15  25  45  71 103 135 172 220 269 323
#     4   8  14  26  40  70 103 133 172 209 265 318
#     4  10  19  32  51  74  98 129 169 229 278 326
#     4  11  24  37  46  64  98 139 186 233 280 338
#     4   8  16  24  44  64 108 130 160 216 256 320
#
# _framework density 18.960090999999998
#
# number of rings (size 3 to 8) (size 9 to 14) (size 15 to 20)
#    0.480    2.080    1.600    1.920    0.000    5.120 
#    0.000    0.000    0.000    0.000    0.000    4.480 
#    0.000    0.000    0.000    0.000    0.000    0.000 
#
# Total GULP energy -139234.796949 kJ/mol
# GULP energy per Si atom -5569.391878 kJ/mol
# Density = 1.891694 g / cm^3
# Si number density = 18.960091 Si / 1000 Ang^3
#
#
#
# Elastic Constant Matrix: (Units=GPa)
#
#
# Indices 1 2 3 4 5 6 
#
# 1 69.0271 13.5093 22.4910 0.0000 0.0000 0.0000
# 2 13.5093 69.0271 22.4910 0.0000 0.0000 0.0000
# 3 22.4910 22.4910 88.7373 0.0000 0.0000 0.0000
# 4 0.0000 0.0000 0.0000 2.3769 0.0000 0.0000
# 5 0.0000 0.0000 0.0000 0.0000 2.3769 0.0000
# 6 0.0000 0.0000 0.0000 0.0000 0.0000 9.7273
#
#
#
# Elastic Compliance Matrix: (Units=1/GPa)
#
#
# Indices 1 2 3 4 5 6 
#
# 1 0.016035 -0.001977 -0.003563 0.000000 0.000000 0.000000
# 2 -0.001977 0.016035 -0.003563 0.000000 0.000000 0.000000
# 3 -0.003563 -0.003563 0.013075 0.000000 0.000000 0.000000
# 4 0.000000 0.000000 0.000000 0.420715 0.000000 0.000000
# 5 0.000000 0.000000 0.000000 0.000000 0.420715 0.000000
# 6 0.000000 0.000000 0.000000 0.000000 0.000000 0.102804
#
#
# Mechanical properties :
#
#
# Convention : Reuss Voigt Hill
#
# Bulk Modulus (GPa) = 37.12134 38.19716 37.65925
# Shear Modulus (GPa) = 4.91853 14.11623 9.51738
#
# Velocity S-wave (km/s) = 1.61238 2.73156 2.24290
# Velocity P-wave (km/s) = 4.80495 5.48984 5.15877
#
# Compressibility (1/GPa) = 0.02693868
#
# Stress axis : x y z
#
# Youngs Moduli (GPa) = 62.36373 62.36373 76.47980
#
# Poissons Ratio (x) = 0.12331 0.27250
# Poissons Ratio (y) = 0.12331 0.27250
# Poissons Ratio (z) = 0.22220 0.22220
#
# Static dielectric constant tensor:
#      x y z
#    x 1.674890 0.000000 0.000000 
#    y 0.000000 1.674890 0.000000 
#    z 0.000000 0.000000 1.615780 
# 
# From -- ./inp_files/4071.got.cif
#   From: 2010.05.17/outbox.cif.g08.bks.cpg/sg115_3_cif.got.tgz:4071.got - 2010.05.20 11:07:42.
