data_PCOD9556712
_publ_section_title
;
Structure prediction by ZEFSAII (Michael W. Deem and Ramdas Pophale) SiO2 
 PCOD9556712
Probable space group: P -4 M 2
;
_chemical_formula_sum "Si O2"
_cell_formula_units_Z 44
_cell_length_a 9.118817
_cell_length_b 9.118817
_cell_length_c 29.716679
_cell_angle_alpha 90.000000
_cell_angle_beta 90.000000
_cell_angle_gamma 90.000000
_cell_volume 2471.025763
_symmetry_space_group_name_H-M "P -4 M 2"
_symmetry_group_IT_number 115
_symmetry_cell_setting 'tetragonal'
loop_
_space_group_symop_operation_xyz
x,y,z
y,-x,-z
-x,-y,z
-y,x,-z
y,x,-z
-y,-x,-z
-x,y,z
x,-y,z
loop_
_atom_site_type_symbol
_atom_site_label
_atom_site_fract_x
_atom_site_fract_y
_atom_site_fract_z
Si Si1 0.671150 0.321225 0.902234
Si Si2 0.171632 0.323312 0.810807
Si Si3 0.168799 0.821454 0.634484
Si Si4 0.673519 0.175589 0.542405
Si Si5 0.823590 0.327717 0.273739
Si Si6 0.324052 0.324052 0.000000
O O1 0.500000 0.279177 0.897350
O O2 0.674081 0.500000 0.903445
O O3 0.761423 0.274777 0.858699
O O4 0.729723 0.270643 0.951235
O O5 0.187450 0.500000 0.808229
O O6 0.255777 0.250766 0.769454
O O7 0.000000 0.287861 0.808507
O O8 0.251306 0.775948 0.589067
O O9 0.249269 0.774845 0.680144
O O10 0.000000 0.773828 0.634090
O O11 0.170670 0.000000 0.634618
O O12 0.744542 0.255459 0.500000
O O13 0.500000 0.201671 0.544507
O O14 0.696877 0.000000 0.537781
O O15 0.790590 0.500000 0.275953
O O16 0.000000 0.311135 0.270275
O O17 0.301517 0.500000 0.001477
#
# Coordination Sequence:
#
# PCOD9556712 Si02
#       6
#     8   8   8   8   8   4
#     4   8  13  23  41  64  89 118 155 200 247 292
#     4  10  20  32  47  70 100 133 168 204 244 294
#     4   9  17  31  53  78 102 130 165 205 249 297
#     4  10  20  34  53  77 104 133 166 204 245 290
#     4  10  20  34  53  76 101 130 166 208 253 300
#     4   7  10  18  36  62  86 111 150 198 244 289
#
# _framework density 17.806369
#
# number of rings (size 3 to 8) (size 9 to 14) (size 15 to 20)
#    0.000    2.818    0.000    3.273    0.000    5.455 
#    0.000    0.909    0.000    6.545    0.000    5.091 
#    0.000    0.000    0.000    0.000    0.000    0.000 
#
# Total GULP energy -245244.528951 kJ/mol
# GULP energy per Si atom -5573.739294 kJ/mol
# Density = 1.776584 g / cm^3
# Si number density = 17.806369 Si / 1000 Ang^3
#
#
#
# Elastic Constant Matrix: (Units=GPa)
#
#
# Indices 1 2 3 4 5 6 
#
# 1 56.9055 45.6696 74.9770 0.0000 0.0000 0.0000
# 2 45.6696 56.9061 74.9762 0.0000 0.0000 0.0000
# 3 74.9770 74.9762 232.6865 0.0000 0.0000 0.0000
# 4 0.0000 0.0000 0.0000 37.1756 0.0000 0.0000
# 5 0.0000 0.0000 0.0000 0.0000 37.1753 0.0000
# 6 0.0000 0.0000 0.0000 0.0000 0.0000 18.0338
#
#
#
# Elastic Compliance Matrix: (Units=1/GPa)
#
#
# Indices 1 2 3 4 5 6 
#
# 1 0.053715 -0.035284 -0.005939 0.000000 0.000000 0.000000
# 2 -0.035284 0.053714 -0.005938 0.000000 0.000000 0.000000
# 3 -0.005939 -0.005938 0.008125 0.000000 0.000000 0.000000
# 4 0.000000 0.000000 0.000000 0.026899 0.000000 0.000000
# 5 0.000000 0.000000 0.000000 0.000000 0.026900 0.000000
# 6 0.000000 0.000000 0.000000 0.000000 0.000000 0.055452
#
#
# Mechanical properties :
#
#
# Convention : Reuss Voigt Hill
#
# Bulk Modulus (GPa) = 47.10056 81.97152 64.53604
# Shear Modulus (GPa) = 15.32783 28.53528 21.93155
#
# Velocity S-wave (km/s) = 2.93713 4.00751 3.51332
# Velocity P-wave (km/s) = 6.16533 8.21878 7.26497
#
# Compressibility (1/GPa) = 0.02123117
#
# Stress axis : x y z
#
# Youngs Moduli (GPa) = 18.61663 18.61724 123.07952
#
# Poissons Ratio (x) = 0.65689 0.73100
# Poissons Ratio (y) = 0.65687 0.73089
# Poissons Ratio (z) = 0.11057 0.11056
#
# Static dielectric constant tensor:
#      x y z
#    x 1.597670 0.000000 0.000000 
#    y 0.000000 1.597670 0.000000 
#    z 0.000000 0.000000 1.610480 
# 
# From -- ./inp_files/5686.got.cif
#   From: 2010.05.17/outbox.cif.g08.bks.cpg/sg115_3_cif.got.tgz:5686.got - 2010.05.20 11:07:42.
