data_PCOD9556660
_publ_section_title
;
Structure prediction by ZEFSAII (Michael W. Deem and Ramdas Pophale) SiO2 
 PCOD9556660
Probable space group: P -4 M 2
;
_chemical_formula_sum "Si O2"
_cell_formula_units_Z 64
_cell_length_a 12.939030
_cell_length_b 12.939030
_cell_length_c 22.265515
_cell_angle_alpha 90.000000
_cell_angle_beta 90.000000
_cell_angle_gamma 90.000000
_cell_volume 3727.659064
_symmetry_space_group_name_H-M "P -4 M 2"
_symmetry_group_IT_number 115
_symmetry_cell_setting 'tetragonal'
loop_
_space_group_symop_operation_xyz
x,y,z
y,-x,-z
-x,-y,z
-y,x,-z
y,x,-z
-y,-x,-z
-x,y,z
x,-y,z
loop_
_atom_site_type_symbol
_atom_site_label
_atom_site_fract_x
_atom_site_fract_y
_atom_site_fract_z
Si Si1 0.621937 0.886987 0.592104
Si Si2 0.233734 0.276854 0.653806
Si Si3 0.378623 0.220915 0.470915
Si Si4 0.876963 0.377850 0.917559
Si Si5 0.261067 0.232621 0.838681
Si Si6 0.621013 0.124148 0.946621
Si Si7 0.121992 0.121783 0.740966
Si Si8 0.620566 0.621176 0.250534
O O1 0.500000 0.880594 0.603363
O O2 0.680161 0.801949 0.629637
O O3 0.637050 0.866659 0.521272
O O4 0.660057 0.000000 0.608705
O O5 0.193229 0.333257 0.594045
O O6 0.152466 0.205259 0.689486
O O7 0.296267 0.355346 0.696696
O O8 0.318530 0.318530 0.500000
O O9 0.500000 0.242695 0.465903
O O10 0.856527 0.500000 0.911207
O O11 0.818330 0.313493 0.867762
O O12 0.000000 0.362906 0.912525
O O13 0.845576 0.347176 0.985561
O O14 0.314692 0.173924 0.893491
O O15 0.197205 0.155486 0.795529
O O16 0.344526 0.298410 0.800649
O O17 0.500000 0.151013 0.939967
O O18 0.628866 0.000000 0.943550
O O19 0.000000 0.132511 0.755627
O O20 0.139041 0.000000 0.725497
O O21 0.500000 0.630935 0.232353
O O22 0.636717 0.500000 0.267452
#
# Coordination Sequence:
#
# PCOD9556660 Si02
#       8
#     8   8   8   8   8   8   8   8
#     4   9  17  30  49  73  98 120 147 190 240 285
#     4  10  19  33  53  70  93 129 168 198 233 289
#     4   9  18  31  48  74 102 128 159 194 236 287
#     4   9  18  32  50  73 100 128 159 197 241 291
#     4  11  19  32  53  73  95 128 166 201 242 295
#     4   9  18  32  50  74 101 126 156 197 244 294
#     4  10  22  37  51  70  96 127 166 213 258 294
#     4  10  21  34  48  70 100 131 162 199 238 276
#
# _framework density 17.168952000000001
#
# number of rings (size 3 to 8) (size 9 to 14) (size 15 to 20)
#    0.000    2.375    0.000    3.750    0.000    1.125 
#    0.000    0.000    0.000   13.125    0.000   16.625 
#    0.000    0.000    0.000    0.000    0.000    0.000 
#
# Total GULP energy -356632.599336 kJ/mol
# GULP energy per Si atom -5572.384365 kJ/mol
# Density = 1.712987 g / cm^3
# Si number density = 17.168952 Si / 1000 Ang^3
#
#
#
# Elastic Constant Matrix: (Units=GPa)
#
#
# Indices 1 2 3 4 5 6 
#
# 1 48.8445 18.3701 0.4701 0.0000 0.0000 0.0000
# 2 18.3701 48.8445 0.4701 0.0000 0.0000 0.0000
# 3 0.4701 0.4701 34.7448 0.0000 0.0000 0.0000
# 4 0.0000 0.0000 0.0000 20.5376 0.0000 0.0000
# 5 0.0000 0.0000 0.0000 0.0000 20.5376 0.0000
# 6 0.0000 0.0000 0.0000 0.0000 0.0000 25.9392
#
#
#
# Elastic Compliance Matrix: (Units=1/GPa)
#
#
# Indices 1 2 3 4 5 6 
#
# 1 0.023847 -0.008967 -0.000201 0.000000 0.000000 0.000000
# 2 -0.008967 0.023847 -0.000201 0.000000 0.000000 0.000000
# 3 -0.000201 -0.000201 0.028787 0.000000 0.000000 0.000000
# 4 0.000000 0.000000 0.000000 0.048691 0.000000 0.000000
# 5 0.000000 0.000000 0.000000 0.000000 0.048691 0.000000
# 6 0.000000 0.000000 0.000000 0.000000 0.000000 0.038552
#
#
# Mechanical properties :
#
#
# Convention : Reuss Voigt Hill
#
# Bulk Modulus (GPa) = 17.31829 19.00607 18.16218
# Shear Modulus (GPa) = 19.96783 20.94443 20.45613
#
# Velocity S-wave (km/s) = 3.41401 3.49650 3.45550
# Velocity P-wave (km/s) = 5.06453 5.23400 5.14996
#
# Compressibility (1/GPa) = 0.05774241
#
# Stress axis : x y z
#
# Youngs Moduli (GPa) = 41.93316 41.93316 34.73821
#
# Poissons Ratio (x) = 0.37601 0.00699
# Poissons Ratio (y) = 0.37601 0.00699
# Poissons Ratio (z) = 0.00844 0.00844
#
# Static dielectric constant tensor:
#      x y z
#    x 1.560230 0.000000 0.000000 
#    y 0.000000 1.560230 0.000000 
#    z 0.000000 0.000000 1.585630 
# 
# From -- ./inp_files/5384.got.cif
#   From: 2010.05.17/outbox.cif.g08.bks.cpg/sg115_3_cif.got.tgz:5384.got - 2010.05.20 11:07:42.
