data_PCOD9556745
_publ_section_title
;
Structure prediction by ZEFSAII (Michael W. Deem and Ramdas Pophale) SiO2 
 PCOD9556745
Probable space group: P -4 M 2
;
_chemical_formula_sum "Si O2"
_cell_formula_units_Z 48
_cell_length_a 9.120587
_cell_length_b 9.120587
_cell_length_c 31.912761
_cell_angle_alpha 90.000000
_cell_angle_beta 90.000000
_cell_angle_gamma 90.000000
_cell_volume 2654.666446
_symmetry_space_group_name_H-M "P -4 M 2"
_symmetry_group_IT_number 115
_symmetry_cell_setting 'tetragonal'
loop_
_space_group_symop_operation_xyz
x,y,z
y,-x,-z
-x,-y,z
-y,x,-z
y,x,-z
-y,-x,-z
-x,y,z
x,-y,z
loop_
_atom_site_type_symbol
_atom_site_label
_atom_site_fract_x
_atom_site_fract_y
_atom_site_fract_z
Si Si1 0.673599 0.823904 0.380929
Si Si2 0.676404 0.327787 0.952822
Si Si3 0.171737 0.176038 0.125125
Si Si4 0.821420 0.168482 0.705183
Si Si5 0.674755 0.825588 0.539854
Si Si6 0.178883 0.668972 0.789572
O O1 0.500000 0.795164 0.381976
O O2 0.741274 0.779804 0.336125
O O3 0.754926 0.741715 0.418350
O O4 0.694224 0.000000 0.385747
O O5 0.500000 0.315951 0.950403
O O6 0.713687 0.500000 0.948042
O O7 0.750423 0.237143 0.916131
O O8 0.719170 0.280831 0.000000
O O9 0.255776 0.225181 0.167119
O O10 0.000000 0.208223 0.129383
O O11 0.188884 0.000000 0.121797
O O12 0.772172 0.244064 0.748264
O O13 0.000000 0.168167 0.706138
O O14 0.773119 0.000000 0.702524
O O15 0.750897 0.750897 0.500000
O O16 0.500000 0.801884 0.538142
O O17 0.701864 0.000000 0.539403
O O18 0.224683 0.500000 0.787878
O O19 0.000000 0.671611 0.789272
#
# Coordination Sequence:
#
# PCOD9556745 Si02
#       6
#     8   8   8   8   8   8
#     4  10  20  34  54  81 110 140 177 218 260 311
#     4   9  19  36  55  73  95 127 168 211 255 307
#     4  10  20  32  48  74 106 136 168 209 257 309
#     4   9  16  27  46  73 105 139 175 218 266 311
#     4  11  24  40  58  81 108 139 176 217 262 313
#     4   9  16  27  45  70 101 137 176 217 260 307
#
# _framework density 18.081368999999999
#
# number of rings (size 3 to 8) (size 9 to 14) (size 15 to 20)
#    0.000    2.333    0.000    3.500    0.000   10.333 
#    0.000    2.500    0.000    1.000    0.000    0.000 
#    0.000    0.000    0.000    0.000    0.000    0.000 
#
# Total GULP energy -267933.152098 kJ/mol
# GULP energy per Si atom -5581.940669 kJ/mol
# Density = 1.804021 g / cm^3
# Si number density = 18.081369 Si / 1000 Ang^3
#
#
#
# Elastic Constant Matrix: (Units=GPa)
#
#
# Indices 1 2 3 4 5 6 
#
# 1 79.4606 60.2409 81.5442 0.0000 0.0000 0.0000
# 2 60.2409 79.4607 81.5443 0.0000 0.0000 0.0000
# 3 81.5442 81.5443 201.2307 0.0000 0.0000 0.0000
# 4 0.0000 0.0000 0.0000 141.7931 0.0000 0.0000
# 5 0.0000 0.0000 0.0000 0.0000 141.8002 0.0000
# 6 0.0000 0.0000 0.0000 0.0000 0.0000 22.2154
#
#
#
# Elastic Compliance Matrix: (Units=1/GPa)
#
#
# Indices 1 2 3 4 5 6 
#
# 1 0.032807 -0.019223 -0.005505 0.000000 0.000000 0.000000
# 2 -0.019223 0.032807 -0.005505 0.000000 0.000000 0.000000
# 3 -0.005505 -0.005505 0.009431 0.000000 0.000000 0.000000
# 4 0.000000 0.000000 0.000000 0.007053 0.000000 0.000000
# 5 0.000000 0.000000 0.000000 0.000000 0.007052 0.000000
# 6 0.000000 0.000000 0.000000 0.000000 0.000000 0.045014
#
#
# Mechanical properties :
#
#
# Convention : Reuss Voigt Hill
#
# Bulk Modulus (GPa) = 68.58458 89.64563 79.11511
# Shear Modulus (GPa) = 25.06414 70.28324 47.67369
#
# Velocity S-wave (km/s) = 3.72719 6.24139 5.14037
# Velocity P-wave (km/s) = 7.51904 10.08100 8.89277
#
# Compressibility (1/GPa) = 0.01458054
#
# Stress axis : x y z
#
# Youngs Moduli (GPa) = 30.48119 30.48125 106.03542
#
# Poissons Ratio (x) = 0.58593 0.58370
# Poissons Ratio (y) = 0.58593 0.58370
# Poissons Ratio (z) = 0.16779 0.16779
#
# Static dielectric constant tensor:
#      x y z
#    x 1.604010 0.000000 0.000000 
#    y 0.000000 1.604010 0.000000 
#    z 0.000000 0.000000 1.593750 
# 
# From -- ./inp_files/6120.got.cif
#   From: 2010.05.17/outbox.cif.g08.bks.cpg/sg115_4_cif.got.tgz:6120.got - 2010.05.20 11:07:42.
