data_PCOD9556510
_publ_section_title
;
Structure prediction by ZEFSAII (Michael W. Deem and Ramdas Pophale) SiO2 
 PCOD9556510
Probable space group: P -4 21 C
;
_chemical_formula_sum "Si O2"
_cell_formula_units_Z 40
_cell_length_a 9.000000
_cell_length_b 9.000000
_cell_length_c 24.000000
_cell_angle_alpha 90.000000
_cell_angle_beta 90.000000
_cell_angle_gamma 90.000000
_cell_volume 1944.000000
_symmetry_space_group_name_H-M "P -4 21 C"
_symmetry_group_IT_number 114
_symmetry_cell_setting 'tetragonal'
loop_
_space_group_symop_operation_xyz
x,y,z
y,-x,-z
-x,-y,z
-y,x,-z
1/2+x,1/2-y,1/2-z
1/2-x,1/2+y,1/2-z
1/2-y,1/2-x,1/2+z
1/2+y,1/2+x,1/2+z
loop_
_atom_site_type_symbol
_atom_site_label
_atom_site_fract_x
_atom_site_fract_y
_atom_site_fract_z
Si Si1 0.244951 0.969565 0.489693
Si Si2 0.726061 0.135130 0.369247
Si Si3 0.146399 0.843750 0.688544
Si Si4 0.341633 0.009266 0.605683
Si Si5 0.326845 0.013703 0.778699
O O1 0.304465 0.946836 0.427705
O O2 0.353620 0.966163 0.541413
O O3 0.122889 0.843382 0.502519
O O4 0.581314 0.177863 0.335305
O O5 0.828911 0.273701 0.384152
O O6 0.820359 0.024186 0.329306
O O7 0.227714 0.896384 0.633165
O O8 0.205097 0.952514 0.736309
O O9 0.201089 0.683851 0.708489
O O10 0.500000 0.000000 0.633475
O O11 0.500000 0.000000 0.759370
#
# Coordination Sequence:
#
# PCOD9556510 Si02
#       5
#     8   8   8   8   8
#     4   9  17  35  62  92 118 157 204 241 300 362
#     4  10  21  41  64  90 122 161 204 252 303 368
#     4  11  21  39  60  87 123 158 206 250 307 357
#     4  11  22  36  60  92 125 157 200 252 300 363
#     4  10  23  39  62  91 121 161 208 255 304 368
#
# _framework density 20.576132000000001
#
# number of rings (size 3 to 8) (size 9 to 14) (size 15 to 20)
#    0.000    1.800    2.000    2.400    0.000    5.600 
#    0.000    5.000    0.000    0.000    0.000    0.000 
#    0.000    0.000    0.000    0.000    0.000    0.000 
#
# Total GULP energy -223043.080841 kJ/mol
# GULP energy per Si atom -5576.077021 kJ/mol
# Density = 2.052930 g / cm^3
# Si number density = 20.576132 Si / 1000 Ang^3
#
#
#
# Elastic Constant Matrix: (Units=GPa)
#
#
# Indices 1 2 3 4 5 6 
#
# 1 47.9786 12.3593 28.0327 0.0000 0.0000 0.0000
# 2 12.3593 47.9786 28.0327 0.0000 0.0000 0.0000
# 3 28.0327 28.0327 146.6627 0.0000 0.0000 0.0000
# 4 0.0000 0.0000 0.0000 23.2316 0.0000 0.0000
# 5 0.0000 0.0000 0.0000 0.0000 23.2316 0.0000
# 6 0.0000 0.0000 0.0000 0.0000 0.0000 14.7686
#
#
#
# Elastic Compliance Matrix: (Units=1/GPa)
#
#
# Indices 1 2 3 4 5 6 
#
# 1 0.024114 -0.003961 -0.003852 0.000000 0.000000 0.000000
# 2 -0.003961 0.024114 -0.003852 0.000000 0.000000 0.000000
# 3 -0.003852 -0.003852 0.008291 0.000000 0.000000 0.000000
# 4 0.000000 0.000000 0.000000 0.043045 0.000000 0.000000
# 5 0.000000 0.000000 0.000000 0.000000 0.043045 0.000000
# 6 0.000000 0.000000 0.000000 0.000000 0.000000 0.067711
#
#
# Mechanical properties :
#
#
# Convention : Reuss Voigt Hill
#
# Bulk Modulus (GPa) = 30.13115 42.16326 36.14720
# Shear Modulus (GPa) = 20.43222 23.85936 22.14579
#
# Velocity S-wave (km/s) = 3.15462 3.40893 3.28424
# Velocity P-wave (km/s) = 5.28624 6.00252 5.65573
#
# Compressibility (1/GPa) = 0.03318825
#
# Stress axis : x y z
#
# Youngs Moduli (GPa) = 41.47045 41.47045 120.61492
#
# Poissons Ratio (x) = 0.16427 0.46460
# Poissons Ratio (y) = 0.16427 0.46460
# Poissons Ratio (z) = 0.15974 0.15974
#
# Static dielectric constant tensor:
#      x y z
#    x 1.718760 0.000000 0.000000 
#    y 0.000000 1.718760 0.000000 
#    z 0.000000 0.000000 1.749610 
# 
# From -- ./inp_files/3337.got.cif
#   From: 2010.05.17/outbox.ucp.g08.bks.cvg/sg114_2_cif.got.tgz:3337.got - 2010.06.11 11:33:27.
