data_PCOD9556996
_publ_section_title
;
Structure prediction by ZEFSAII (Michael W. Deem and Ramdas Pophale) SiO2 
 PCOD9556996
Probable space group: P -4 M 2
;
_chemical_formula_sum "Si O2"
_cell_formula_units_Z 48
_cell_length_a 9.200027
_cell_length_b 9.200027
_cell_length_c 31.770366
_cell_angle_alpha 90.000000
_cell_angle_beta 90.000000
_cell_angle_gamma 90.000000
_cell_volume 2689.059562
_symmetry_space_group_name_H-M "P -4 M 2"
_symmetry_group_IT_number 115
_symmetry_cell_setting 'tetragonal'
loop_
_space_group_symop_operation_xyz
x,y,z
y,-x,-z
-x,-y,z
-y,x,-z
y,x,-z
-y,-x,-z
-x,y,z
x,-y,z
loop_
_atom_site_type_symbol
_atom_site_label
_atom_site_fract_x
_atom_site_fract_y
_atom_site_fract_z
Si Si1 0.673259 0.827896 0.538765
Si Si2 0.173681 0.172422 0.296026
Si Si3 0.173032 0.172884 0.125454
Si Si4 0.823049 0.667152 0.210479
Si Si5 0.826789 0.672203 0.961196
Si Si6 0.326423 0.328190 0.626193
O O1 0.759156 0.759156 0.500000
O O2 0.500000 0.805295 0.532348
O O3 0.713635 0.749543 0.582417
O O4 0.699477 0.000000 0.541962
O O5 0.221138 0.245860 0.252159
O O6 0.256777 0.242775 0.335039
O O7 0.000000 0.198073 0.300931
O O8 0.196878 0.000000 0.294224
O O9 0.223008 0.257095 0.167098
O O10 0.255573 0.217129 0.083100
O O11 0.000000 0.197326 0.119838
O O12 0.194105 0.000000 0.131822
O O13 0.776183 0.500000 0.212576
O O14 0.000000 0.669523 0.210048
O O15 0.802541 0.500000 0.959957
O O16 0.000000 0.698297 0.966280
O O17 0.743729 0.743729 0.000000
O O18 0.500000 0.307614 0.632239
O O19 0.297746 0.500000 0.623488
#
# Coordination Sequence:
#
# PCOD9556996 Si02
#       6
#     8   8   8   8   8   8
#     4  10  21  37  58  83 110 142 179 219 265 316
#     4  10  20  34  54  80 109 141 178 220 265 312
#     4   9  17  31  52  76 102 133 171 215 262 313
#     4   9  17  30  51  78 105 135 174 219 264 311
#     4  10  21  36  54  77 105 138 176 217 262 313
#     4  10  21  37  57  80 107 141 180 220 264 316
#
# _framework density 17.850106
#
# number of rings (size 3 to 8) (size 9 to 14) (size 15 to 20)
#    0.000    2.333    0.000    2.500    0.000    7.333 
#    0.000    2.500    0.000    3.000    0.000    0.000 
#    0.000    0.000    0.000    0.000    0.000    0.000 
#
# Total GULP energy -267970.705296 kJ/mol
# GULP energy per Si atom -5582.723027 kJ/mol
# Density = 1.780948 g / cm^3
# Si number density = 17.850106 Si / 1000 Ang^3
#
#
#
# Elastic Constant Matrix: (Units=GPa)
#
#
# Indices 1 2 3 4 5 6 
#
# 1 71.2235 67.1558 98.3514 0.0000 0.0000 0.0000
# 2 67.1558 71.2235 98.3514 0.0000 0.0000 0.0000
# 3 98.3514 98.3514 224.8929 0.0000 0.0000 0.0000
# 4 0.0000 0.0000 0.0000 393.0433 0.0000 0.0000
# 5 0.0000 0.0000 0.0000 0.0000 393.0433 0.0000
# 6 0.0000 0.0000 0.0000 0.0000 0.0000 22.3812
#
#
#
# Elastic Compliance Matrix: (Units=1/GPa)
#
#
# Indices 1 2 3 4 5 6 
#
# 1 0.132470 -0.113370 -0.008353 0.000000 0.000000 0.000000
# 2 -0.113370 0.132470 -0.008353 0.000000 0.000000 0.000000
# 3 -0.008353 -0.008353 0.011752 0.000000 0.000000 0.000000
# 4 0.000000 0.000000 0.000000 0.002544 0.000000 0.000000
# 5 0.000000 0.000000 0.000000 0.000000 0.002544 0.000000
# 6 0.000000 0.000000 0.000000 0.000000 0.000000 0.044680
#
#
# Mechanical properties :
#
#
# Convention : Reuss Voigt Hill
#
# Bulk Modulus (GPa) = 60.45679 99.45082 79.95380
# Shear Modulus (GPa) = 8.44414 168.59230 88.51822
#
# Velocity S-wave (km/s) = 2.17735 9.72903 7.04964
# Velocity P-wave (km/s) = 6.34538 13.49224 10.54288
#
# Compressibility (1/GPa) = 0.01654074
#
# Stress axis : x y z
#
# Youngs Moduli (GPa) = 7.54888 7.54888 85.08874
#
# Poissons Ratio (x) = 0.85582 0.71074
# Poissons Ratio (y) = 0.85582 0.71074
# Poissons Ratio (z) = 0.06306 0.06306
#
# Static dielectric constant tensor:
#      x y z
#    x 1.596070 0.000000 0.000000 
#    y 0.000000 1.596070 0.000000 
#    z 0.000000 0.000000 1.575530 
# 
# From -- ./inp_files/5897.got.cif
#   From: 2010.05.17/outbox.cif.g08.bks.cpg/sg115_3_cif.got.tgz:5897.got - 2010.05.20 11:07:42.
