data_PCOD9556959
_publ_section_title
;
Structure prediction by ZEFSAII (Michael W. Deem and Ramdas Pophale) SiO2 
 PCOD9556959
Probable space group: P -4 M 2
;
_chemical_formula_sum "Si O2"
_cell_formula_units_Z 44
_cell_length_a 9.233088
_cell_length_b 9.233088
_cell_length_c 29.459781
_cell_angle_alpha 90.000000
_cell_angle_beta 90.000000
_cell_angle_gamma 90.000000
_cell_volume 2511.443797
_symmetry_space_group_name_H-M "P -4 M 2"
_symmetry_group_IT_number 115
_symmetry_cell_setting 'tetragonal'
loop_
_space_group_symop_operation_xyz
x,y,z
y,-x,-z
-x,-y,z
-y,x,-z
y,x,-z
-y,-x,-z
-x,y,z
x,-y,z
loop_
_atom_site_type_symbol
_atom_site_label
_atom_site_fract_x
_atom_site_fract_y
_atom_site_fract_z
Si Si1 0.332327 0.676532 0.950292
Si Si2 0.829713 0.326175 0.406837
Si Si3 0.671851 0.328150 0.500000
Si Si4 0.825438 0.669898 0.676440
Si Si5 0.670579 0.173748 0.140914
Si Si6 0.176467 0.166551 0.768183
O O1 0.500000 0.719960 0.945301
O O2 0.329359 0.500000 0.951770
O O3 0.243339 0.721730 0.906244
O O4 0.276615 0.723385 0.000000
O O5 0.812849 0.500000 0.402067
O O6 0.759588 0.285639 0.455177
O O7 0.748576 0.247623 0.365922
O O8 0.000000 0.292278 0.406113
O O9 0.500000 0.305890 0.491951
O O10 0.789688 0.500000 0.676903
O O11 0.779358 0.744765 0.723611
O O12 0.000000 0.683270 0.673015
O O13 0.500000 0.208325 0.146995
O O14 0.758448 0.223643 0.185039
O O15 0.682442 0.000000 0.137701
O O16 0.000000 0.168278 0.768718
O O17 0.223179 0.000000 0.765435
#
# Coordination Sequence:
#
# PCOD9556959 Si02
#       6
#     8   8   4   8   8   8
#     4   8  14  26  44  64  87 117 151 186 228 280
#     4  10  21  36  54  78 108 138 167 204 251 298
#     4   9  18  34  54  73  98 136 176 207 238 285
#     4  10  20  34  54  78 101 129 169 212 250 294
#     4   9  16  27  45  67  88 113 151 195 233 275
#     4   9  17  30  48  69  95 127 160 196 242 293
#
# _framework density 17.519804000000001
#
# number of rings (size 3 to 8) (size 9 to 14) (size 15 to 20)
#    0.000    2.818    0.000    2.182    0.000    5.091 
#    0.000    3.636    0.000    4.909    0.000    0.000 
#    0.000    0.000    0.000    0.000    0.000    0.000 
#
# Total GULP energy -245303.883388 kJ/mol
# GULP energy per Si atom -5575.088259 kJ/mol
# Density = 1.747993 g / cm^3
# Si number density = 17.519804 Si / 1000 Ang^3
#
#
#
# Elastic Constant Matrix: (Units=GPa)
#
#
# Indices 1 2 3 4 5 6 
#
# 1 57.9619 42.6030 80.5160 0.0000 0.0000 0.0000
# 2 42.6030 57.9622 80.5159 0.0000 0.0000 0.0000
# 3 80.5160 80.5159 223.0604 0.0000 0.0000 0.0000
# 4 0.0000 0.0000 0.0000 42.0258 0.0000 0.0000
# 5 0.0000 0.0000 0.0000 0.0000 42.0269 0.0000
# 6 0.0000 0.0000 0.0000 0.0000 0.0000 17.5503
#
#
#
# Elastic Compliance Matrix: (Units=1/GPa)
#
#
# Indices 1 2 3 4 5 6 
#
# 1 0.044336 -0.020772 -0.008505 0.000000 0.000000 0.000000
# 2 -0.020772 0.044335 -0.008505 0.000000 0.000000 0.000000
# 3 -0.008505 -0.008505 0.010623 0.000000 0.000000 0.000000
# 4 0.000000 0.000000 0.000000 0.023795 0.000000 0.000000
# 5 0.000000 0.000000 0.000000 0.000000 0.023794 0.000000
# 6 0.000000 0.000000 0.000000 0.000000 0.000000 0.056979
#
#
# Mechanical properties :
#
#
# Convention : Reuss Voigt Hill
#
# Bulk Modulus (GPa) = 42.14393 82.91714 62.53054
# Shear Modulus (GPa) = 17.40105 29.34391 23.37248
#
# Velocity S-wave (km/s) = 3.15496 4.09699 3.65644
# Velocity P-wave (km/s) = 6.11383 8.35529 7.32085
#
# Compressibility (1/GPa) = 0.02372821
#
# Stress axis : x y z
#
# Youngs Moduli (GPa) = 22.55504 22.55532 94.13268
#
# Poissons Ratio (x) = 0.46853 0.80065
# Poissons Ratio (y) = 0.46852 0.80062
# Poissons Ratio (z) = 0.19184 0.19184
#
# Static dielectric constant tensor:
#      x y z
#    x 1.588420 0.000000 0.000000 
#    y 0.000000 1.588420 0.000000 
#    z 0.000000 0.000000 1.582960 
# 
# From -- ./inp_files/5736.got.cif
#   From: 2010.05.17/outbox.cif.g08.bks.cpg/sg115_3_cif.got.tgz:5736.got - 2010.05.20 11:07:42.
