data_PCOD9556257
_publ_section_title
;
Structure prediction by ZEFSAII (Michael W. Deem and Ramdas Pophale) SiO2 
 PCOD9556257
Probable space group: P -4 21 C
;
_chemical_formula_sum "Si O2"
_cell_formula_units_Z 44
_cell_length_a 8.892669
_cell_length_b 8.892669
_cell_length_c 28.711271
_cell_angle_alpha 90.000000
_cell_angle_beta 90.000000
_cell_angle_gamma 90.000000
_cell_volume 2270.474734
_symmetry_space_group_name_H-M "P -4 21 C"
_symmetry_group_IT_number 114
_symmetry_cell_setting 'tetragonal'
loop_
_space_group_symop_operation_xyz
x,y,z
y,-x,-z
-x,-y,z
-y,x,-z
1/2+x,1/2-y,1/2-z
1/2-x,1/2+y,1/2-z
1/2-y,1/2-x,1/2+z
1/2+y,1/2+x,1/2+z
loop_
_atom_site_type_symbol
_atom_site_label
_atom_site_fract_x
_atom_site_fract_y
_atom_site_fract_z
Si Si1 0.500000 0.000000 0.126136
Si Si2 0.247816 0.042964 0.447994
Si Si3 0.537235 0.832213 0.845671
Si Si4 0.948767 0.249625 0.449287
Si Si5 0.837536 0.677617 0.300947
Si Si6 0.632006 0.379631 0.784863
O O1 0.551000 0.866425 0.092292
O O2 0.364070 0.943918 0.158866
O O3 0.319999 0.062440 0.498880
O O4 0.180539 0.875049 0.445655
O O5 0.338189 0.066499 0.400825
O O6 0.104499 0.155328 0.446967
O O7 0.681914 0.755006 0.822035
O O8 0.404783 0.715276 0.831429
O O9 0.500000 0.000000 0.828671
O O10 0.742224 0.631076 0.256148
O O11 0.008933 0.726373 0.288075
O O12 0.500000 0.500000 0.776858
#
# Coordination Sequence:
#
# PCOD9556257 Si02
#       6
#     4   8   8   8   8   8
#     4  12  22  34  62  94 126 152 202 258 324 366
#     4   9  18  38  59  87 116 165 202 250 299 373
#     4  11  22  38  61  89 119 161 210 250 302 374
#     4   9  19  35  61  86 122 153 207 252 306 362
#     4  11  24  40  62  90 122 162 204 261 320 372
#     4  10  24  41  62  84 122 158 209 255 305 371
#
# _framework density 19.379206
#
# number of rings (size 3 to 8) (size 9 to 14) (size 15 to 20)
#    0.000    1.818    1.818    3.273   12.727    0.000 
#    3.273    0.000    0.000    0.000    0.000    0.000 
#    0.000    0.000    0.000    0.000    0.000    0.000 
#
# Total GULP energy -245445.606641 kJ/mol
# GULP energy per Si atom -5578.309242 kJ/mol
# Density = 1.933510 g / cm^3
# Si number density = 19.379206 Si / 1000 Ang^3
#
#
#
# Elastic Constant Matrix: (Units=GPa)
#
#
# Indices 1 2 3 4 5 6 
#
# 1 67.6506 13.3005 27.3612 0.0000 0.0000 0.0000
# 2 13.3005 67.6506 27.3612 0.0000 0.0000 0.0000
# 3 27.3612 27.3612 123.7636 0.0000 0.0000 0.0000
# 4 0.0000 0.0000 0.0000 26.2689 0.0000 0.0000
# 5 0.0000 0.0000 0.0000 0.0000 26.2689 0.0000
# 6 0.0000 0.0000 0.0000 0.0000 0.0000 16.3326
#
#
#
# Elastic Compliance Matrix: (Units=1/GPa)
#
#
# Indices 1 2 3 4 5 6 
#
# 1 0.016461 -0.001938 -0.003211 0.000000 0.000000 0.000000
# 2 -0.001938 0.016461 -0.003211 0.000000 0.000000 0.000000
# 3 -0.003211 -0.003211 0.009500 0.000000 0.000000 0.000000
# 4 0.000000 0.000000 0.000000 0.038068 0.000000 0.000000
# 5 0.000000 0.000000 0.000000 0.000000 0.038068 0.000000
# 6 0.000000 0.000000 0.000000 0.000000 0.000000 0.061227
#
#
# Mechanical properties :
#
#
# Convention : Reuss Voigt Hill
#
# Bulk Modulus (GPa) = 38.90513 43.90118 41.40315
# Shear Modulus (GPa) = 24.38166 26.51020 25.44593
#
# Velocity S-wave (km/s) = 3.55087 3.70262 3.62754
# Velocity P-wave (km/s) = 6.07708 6.40173 6.24151
#
# Compressibility (1/GPa) = 0.02570355
#
# Stress axis : x y z
#
# Youngs Moduli (GPa) = 60.74801 60.74801 105.26759
#
# Poissons Ratio (x) = 0.11772 0.33800
# Poissons Ratio (y) = 0.11772 0.33800
# Poissons Ratio (z) = 0.19505 0.19505
#
# Static dielectric constant tensor:
#      x y z
#    x 1.691220 0.000000 0.000000 
#    y 0.000000 1.691220 0.000000 
#    z 0.000000 0.000000 1.700700 
# 
# From -- ./inp_files/3857.got.cif
#   From: 2010.05.17/outbox.cif.g08.bks.cpg/sg114_2_cif.got.tgz:3857.got - 2010.05.20 11:04:54.
