data_PCOD9556312
_publ_section_title
;
Structure prediction by ZEFSAII (Michael W. Deem and Ramdas Pophale) SiO2 
 PCOD9556312
Probable space group: P -4 21 C
;
_chemical_formula_sum "Si O2"
_cell_formula_units_Z 32
_cell_length_a 11.262339
_cell_length_b 11.262339
_cell_length_c 9.029515
_cell_angle_alpha 90.000000
_cell_angle_beta 90.000000
_cell_angle_gamma 90.000000
_cell_volume 1145.306209
_symmetry_space_group_name_H-M "P -4 21 C"
_symmetry_group_IT_number 114
_symmetry_cell_setting 'tetragonal'
loop_
_space_group_symop_operation_xyz
x,y,z
y,-x,-z
-x,-y,z
-y,x,-z
1/2+x,1/2-y,1/2-z
1/2-x,1/2+y,1/2-z
1/2-y,1/2-x,1/2+z
1/2+y,1/2+x,1/2+z
loop_
_atom_site_type_symbol
_atom_site_label
_atom_site_fract_x
_atom_site_fract_y
_atom_site_fract_z
Si Si1 0.165740 0.071834 0.735332
Si Si2 0.500000 0.000000 0.834168
Si Si3 0.482561 0.815808 0.575915
Si Si4 0.500000 0.500000 0.000000
Si Si5 0.288001 0.319357 0.671166
Si Si6 0.000000 0.000000 0.000000
O O1 0.216213 0.936137 0.721595
O O2 0.237791 0.193631 0.729390
O O3 0.072054 0.086211 0.604900
O O4 0.538355 0.104240 0.721837
O O5 0.601462 0.956090 0.948354
O O6 0.368176 0.774912 0.479786
O O7 0.576748 0.719519 0.634535
O O8 0.401926 0.550276 0.611798
#
# Coordination Sequence:
#
# PCOD9556312 Si02
#       6
#     8   4   8   2   8   2
#     4  11  27  51  84 124 172 226 293 363 439 522
#     4  10  26  52  78 122 176 228 284 362 446 522
#     4  11  27  50  80 119 169 225 291 359 438 524
#     4  10  28  50  76 114 156 218 288 354 424 518
#     4  12  28  52  84 126 171 233 294 364 438 524
#     4  10  24  54  88 130 172 234 304 370 440 526
#
# _framework density 27.940125999999999
#
# number of rings (size 3 to 8) (size 9 to 14) (size 15 to 20)
#    0.000    1.000    0.000    3.000    0.000   24.500 
#    0.000    2.500    0.000    0.000    0.000    0.000 
#    0.000    0.000    0.000    0.000    0.000    0.000 
#
# Total GULP energy -178926.728009 kJ/mol
# GULP energy per Si atom -5591.460250 kJ/mol
# Density = 2.787653 g / cm^3
# Si number density = 27.940126 Si / 1000 Ang^3
#
#
#
# Elastic Constant Matrix: (Units=GPa)
#
#
# Indices 1 2 3 4 5 6 
#
# 1 172.5501 75.5979 51.2257 0.0000 0.0000 0.0000
# 2 75.5979 172.5501 51.2257 0.0000 0.0000 0.0000
# 3 51.2257 51.2257 154.8970 0.0000 0.0000 0.0000
# 4 0.0000 0.0000 0.0000 54.6094 0.0000 0.0000
# 5 0.0000 0.0000 0.0000 0.0000 54.6094 0.0000
# 6 0.0000 0.0000 0.0000 0.0000 0.0000 72.6136
#
#
#
# Elastic Compliance Matrix: (Units=1/GPa)
#
#
# Indices 1 2 3 4 5 6 
#
# 1 0.007491 -0.002824 -0.001543 0.000000 0.000000 0.000000
# 2 -0.002824 0.007491 -0.001543 0.000000 0.000000 0.000000
# 3 -0.001543 -0.001543 0.007477 0.000000 0.000000 0.000000
# 4 0.000000 0.000000 0.000000 0.018312 0.000000 0.000000
# 5 0.000000 0.000000 0.000000 0.000000 0.018312 0.000000
# 6 0.000000 0.000000 0.000000 0.000000 0.000000 0.013772
#
#
# Mechanical properties :
#
#
# Convention : Reuss Voigt Hill
#
# Bulk Modulus (GPa) = 94.01005 95.12176 94.56590
# Shear Modulus (GPa) = 56.67632 57.82965 57.25298
#
# Velocity S-wave (km/s) = 4.50876 4.55441 4.53164
# Velocity P-wave (km/s) = 7.79906 7.85975 7.82946
#
# Compressibility (1/GPa) = 0.01063716
#
# Stress axis : x y z
#
# Youngs Moduli (GPa) = 133.49845 133.49845 133.74773
#
# Poissons Ratio (x) = 0.37695 0.20643
# Poissons Ratio (y) = 0.37695 0.20643
# Poissons Ratio (z) = 0.20605 0.20605
#
# Static dielectric constant tensor:
#      x y z
#    x 2.395990 0.000000 0.000000 
#    y 0.000000 2.395990 0.000000 
#    z 0.000000 0.000000 2.101980 
# 
# From -- ./inp_files/693.got.cif
#   From: 2010.05.17/outbox.cif.g08.bks.cpg/sg114_1_cif.got.tgz:693.got - 2010.05.20 11:04:54.
