data_PCOD9556594
_publ_section_title
;
Structure prediction by ZEFSAII (Michael W. Deem and Ramdas Pophale) SiO2 
 PCOD9556594
Probable space group: P -4 M 2
;
_chemical_formula_sum "Si O2"
_cell_formula_units_Z 64
_cell_length_a 14.946272
_cell_length_b 14.946272
_cell_length_c 16.910943
_cell_angle_alpha 90.000000
_cell_angle_beta 90.000000
_cell_angle_gamma 90.000000
_cell_volume 3777.753257
_symmetry_space_group_name_H-M "P -4 M 2"
_symmetry_group_IT_number 115
_symmetry_cell_setting 'tetragonal'
loop_
_space_group_symop_operation_xyz
x,y,z
y,-x,-z
-x,-y,z
-y,x,-z
y,x,-z
-y,-x,-z
-x,y,z
x,-y,z
loop_
_atom_site_type_symbol
_atom_site_label
_atom_site_fract_x
_atom_site_fract_y
_atom_site_fract_z
Si Si1 0.107375 0.604614 0.687351
Si Si2 0.154923 0.218356 0.777150
Si Si3 0.107733 0.599433 0.393644
Si Si4 0.896075 0.897405 0.629187
Si Si5 0.768972 0.897348 0.043727
Si Si6 0.595622 0.892740 0.956523
Si Si7 0.332885 0.894316 0.782554
Si Si8 0.892455 0.721807 0.534013
O O1 0.134105 0.500000 0.695677
O O2 0.151339 0.681057 0.742322
O O3 0.122224 0.644075 0.599501
O O4 0.000000 0.608683 0.702001
O O5 0.110249 0.148498 0.715327
O O6 0.110581 0.222276 0.862696
O O7 0.251946 0.174860 0.787263
O O8 0.141431 0.500000 0.414069
O O9 0.122751 0.619050 0.301076
O O10 0.140886 0.677425 0.452182
O O11 0.000000 0.597633 0.403386
O O12 0.861598 0.816513 0.573014
O O13 0.000000 0.907645 0.608647
O O14 0.857334 0.000000 0.625715
O O15 0.771881 0.000000 0.019995
O O16 0.847563 0.847563 0.000000
O O17 0.676708 0.857920 0.009190
O O18 0.500000 0.854236 0.979455
O O19 0.611491 0.881829 0.862822
O O20 0.592524 0.000000 0.969564
O O21 0.304485 0.000000 0.781764
O O22 0.000000 0.733050 0.526707
#
# Coordination Sequence:
#
# PCOD9556594 Si02
#       8
#     8   8   8   8   8   8   8   8
#     4   9  17  30  48  69  95 129 171 221 274 320
#     4  11  20  32  48  68  98 133 172 213 258 311
#     4   9  16  27  47  73  97 123 163 218 272 316
#     4   9  17  29  45  64  91 133 180 218 252 296
#     4  11  22  35  50  72 100 132 173 220 265 312
#     4   9  18  34  54  74  98 128 164 214 276 329
#     4  10  19  31  48  71 101 135 168 209 260 316
#     4   8  14  26  45  69  92 122 168 221 265 297
#
# _framework density 16.941286000000002
#
# number of rings (size 3 to 8) (size 9 to 14) (size 15 to 20)
#    0.000    2.500    1.250    3.000    0.000    4.125 
#    0.000    3.750    0.000    5.250    0.000    8.750 
#    0.000    3.250    0.000    0.000    0.000   14.000 
#
# Total GULP energy -356351.549861 kJ/mol
# GULP energy per Si atom -5567.992967 kJ/mol
# Density = 1.690273 g / cm^3
# Si number density = 16.941286 Si / 1000 Ang^3
#
#
#
# Elastic Constant Matrix: (Units=GPa)
#
#
# Indices 1 2 3 4 5 6 
#
# 1 99.6384 30.8482 28.8094 0.0000 0.0000 0.0000
# 2 30.8482 99.6384 28.8094 0.0000 0.0000 0.0000
# 3 28.8094 28.8094 81.9712 0.0000 0.0000 0.0000
# 4 0.0000 0.0000 0.0000 5.9890 0.0000 0.0000
# 5 0.0000 0.0000 0.0000 0.0000 5.9890 0.0000
# 6 0.0000 0.0000 0.0000 0.0000 0.0000 3.2137
#
#
#
# Elastic Compliance Matrix: (Units=1/GPa)
#
#
# Indices 1 2 3 4 5 6 
#
# 1 0.011804 -0.002733 -0.003188 0.000000 0.000000 0.000000
# 2 -0.002733 0.011804 -0.003188 0.000000 0.000000 0.000000
# 3 -0.003188 -0.003188 0.014440 0.000000 0.000000 0.000000
# 4 0.000000 0.000000 0.000000 0.166973 0.000000 0.000000
# 5 0.000000 0.000000 0.000000 0.000000 0.166973 0.000000
# 6 0.000000 0.000000 0.000000 0.000000 0.000000 0.311169
#
#
# Mechanical properties :
#
#
# Convention : Reuss Voigt Hill
#
# Bulk Modulus (GPa) = 50.42755 50.90913 50.66834
# Shear Modulus (GPa) = 7.06222 15.89041 11.47631
#
# Velocity S-wave (km/s) = 2.04394 3.06595 2.60555
# Velocity P-wave (km/s) = 5.94987 6.53062 6.24700
#
# Compressibility (1/GPa) = 0.01983043
#
# Stress axis : x y z
#
# Youngs Moduli (GPa) = 84.71566 84.71566 69.24986
#
# Poissons Ratio (x) = 0.23151 0.22078
# Poissons Ratio (y) = 0.23151 0.22078
# Poissons Ratio (z) = 0.27009 0.27009
#
# Static dielectric constant tensor:
#      x y z
#    x 1.579170 0.000000 0.000000 
#    y 0.000000 1.579170 0.000000 
#    z 0.000000 0.000000 1.616710 
# 
# From -- ./inp_files/4488.got.cif
#   From: 2010.05.17/outbox.cif.g08.bks.cpg/sg115_3_cif.got.tgz:4488.got - 2010.05.20 11:07:42.
