data_PCOD9556706
_publ_section_title
;
Structure prediction by ZEFSAII (Michael W. Deem and Ramdas Pophale) SiO2 
 PCOD9556706
Probable space group: P -4 M 2
;
_chemical_formula_sum "Si O2"
_cell_formula_units_Z 37
_cell_length_a 9.271857
_cell_length_b 9.271857
_cell_length_c 21.204547
_cell_angle_alpha 90.000000
_cell_angle_beta 90.000000
_cell_angle_gamma 90.000000
_cell_volume 1822.898337
_symmetry_space_group_name_H-M "P -4 M 2"
_symmetry_group_IT_number 115
_symmetry_cell_setting 'tetragonal'
loop_
_space_group_symop_operation_xyz
x,y,z
y,-x,-z
-x,-y,z
-y,x,-z
y,x,-z
-y,-x,-z
-x,y,z
x,-y,z
loop_
_atom_site_type_symbol
_atom_site_label
_atom_site_fract_x
_atom_site_fract_y
_atom_site_fract_z
Si Si1 0.663012 0.840047 0.094058
Si Si2 0.665881 0.828183 0.810583
Si Si3 0.827718 0.670874 0.557359
Si Si4 0.167046 0.500000 0.029570
Si Si5 0.170068 0.827725 0.314088
Si Si6 0.500000 0.500000 0.000000
O O1 0.500000 0.813685 0.119721
O O2 0.769329 0.725927 0.123733
O O3 0.634182 0.843576 0.019637
O O4 0.710215 0.000000 0.114009
O O5 0.500000 0.787930 0.804647
O O6 0.753973 0.775364 0.749897
O O7 0.679406 0.000000 0.810205
O O8 0.744648 0.744648 0.500000
O O9 0.802496 0.500000 0.558670
O O10 0.784298 0.742886 0.623727
O O11 0.000000 0.695289 0.549644
O O12 0.347326 0.500000 0.040104
O O13 0.000000 0.500000 0.061778
O O14 0.000000 0.792364 0.322703
O O15 0.181244 0.000000 0.307096
#
# Coordination Sequence:
#
# PCOD9556706 Si02
#       6
#     8   8   8   4   8   1
#     4   8  17  34  54  74 107 144 182 233 271 322
#     4  10  20  31  48  78 112 143 179 224 274 333
#     4  10  21  36  54  75  98 127 167 216 270 329
#     4   8  20  38  58  92 120 154 214 249 289 364
#     4   9  18  33  51  70  97 136 180 219 264 326
#     4  12  20  36  76  88 124 188 196 256 330 336
#
# _framework density 20.297346000000001
#
# number of rings (size 3 to 8) (size 9 to 14) (size 15 to 20)
#    0.649    2.162    0.000    1.297    1.514    4.757 
#    0.000    5.405    0.000    1.622    0.000    0.000 
#    0.000    0.000    0.000    0.000    0.000    0.000 
#
# Total GULP energy -206074.201410 kJ/mol
# GULP energy per Si atom -5569.573011 kJ/mol
# Density = 2.025115 g / cm^3
# Si number density = 20.297346 Si / 1000 Ang^3
#
#
#
# Elastic Constant Matrix: (Units=GPa)
#
#
# Indices 1 2 3 4 5 6 
#
# 1 55.6007 44.5840 30.8048 0.0000 0.0000 0.0000
# 2 44.5840 55.6007 30.8048 0.0000 0.0000 0.0000
# 3 30.8048 30.8048 108.3695 0.0000 0.0000 0.0000
# 4 0.0000 0.0000 0.0000 2.7461 0.0000 0.0000
# 5 0.0000 0.0000 0.0000 0.0000 2.7461 0.0000
# 6 0.0000 0.0000 0.0000 0.0000 0.0000 30.5934
#
#
#
# Elastic Compliance Matrix: (Units=1/GPa)
#
#
# Indices 1 2 3 4 5 6 
#
# 1 0.051434 -0.039338 -0.003438 0.000000 0.000000 0.000000
# 2 -0.039338 0.051434 -0.003438 0.000000 0.000000 0.000000
# 3 -0.003438 -0.003438 0.011182 0.000000 0.000000 0.000000
# 4 0.000000 0.000000 0.000000 0.364158 0.000000 0.000000
# 5 0.000000 0.000000 0.000000 0.000000 0.364158 0.000000
# 6 0.000000 0.000000 0.000000 0.000000 0.000000 0.032687
#
#
# Mechanical properties :
#
#
# Convention : Reuss Voigt Hill
#
# Bulk Modulus (GPa) = 46.25134 47.99534 47.12334
# Shear Modulus (GPa) = 5.12984 14.77558 9.95271
#
# Velocity S-wave (km/s) = 1.59149 2.70099 2.21678
# Velocity P-wave (km/s) = 5.11991 5.78140 5.46068
#
# Compressibility (1/GPa) = 0.02162099
#
# Stress axis : x y z
#
# Youngs Moduli (GPa) = 19.44254 19.44254 89.42575
#
# Poissons Ratio (x) = 0.76482 0.30748
# Poissons Ratio (y) = 0.76482 0.30748
# Poissons Ratio (z) = 0.06685 0.06685
#
# Static dielectric constant tensor:
#      x y z
#    x 1.777030 0.000000 0.000000 
#    y 0.000000 1.777030 0.000000 
#    z 0.000000 0.000000 1.722590 
# 
# From -- ./inp_files/5215.got.cif
#   From: 2010.05.17/outbox.cif.g08.bks.cpg/sg115_3_cif.got.tgz:5215.got - 2010.05.20 11:07:42.
