data_PCOD9556126
_publ_section_title
;
Structure prediction by ZEFSAII (Michael W. Deem and Ramdas Pophale) SiO2 
 PCOD9556126
Probable space group: P -4 21 C
;
_chemical_formula_sum "Si O2"
_cell_formula_units_Z 48
_cell_length_a 9.044885
_cell_length_b 9.044885
_cell_length_c 29.665966
_cell_angle_alpha 90.000000
_cell_angle_beta 90.000000
_cell_angle_gamma 90.000000
_cell_volume 2426.971037
_symmetry_space_group_name_H-M "P -4 21 C"
_symmetry_group_IT_number 114
_symmetry_cell_setting 'tetragonal'
loop_
_space_group_symop_operation_xyz
x,y,z
y,-x,-z
-x,-y,z
-y,x,-z
1/2+x,1/2-y,1/2-z
1/2-x,1/2+y,1/2-z
1/2-y,1/2-x,1/2+z
1/2+y,1/2+x,1/2+z
loop_
_atom_site_type_symbol
_atom_site_label
_atom_site_fract_x
_atom_site_fract_y
_atom_site_fract_z
Si Si1 0.866678 0.893998 0.170316
Si Si2 0.970388 0.329519 0.237197
Si Si3 0.325769 0.171291 0.089835
Si Si4 0.311125 0.837226 0.593077
Si Si5 0.319346 0.670984 0.502757
Si Si6 0.815701 0.702374 0.806273
O O1 0.783445 0.803483 0.131514
O O2 0.938882 0.781212 0.204922
O O3 0.756786 0.013311 0.193447
O O4 0.000000 0.000000 0.151602
O O5 0.804873 0.278463 0.226942
O O6 0.000000 0.500000 0.225441
O O7 0.036245 0.307919 0.287422
O O8 0.490973 0.230715 0.093552
O O9 0.332933 0.990935 0.090816
O O10 0.261917 0.222398 0.042251
O O11 0.264834 0.747697 0.548711
O O12 0.265774 0.777302 0.642087
O O13 0.493865 0.699615 0.495535
#
# Coordination Sequence:
#
# PCOD9556126 Si02
#       6
#     8   8   8   8   8   8
#     4   9  20  36  59  86 113 150 197 239 284 341
#     4  11  23  37  57  86 116 154 190 243 292 337
#     4   9  18  32  59  82 110 150 186 230 284 344
#     4   9  19  34  54  85 113 146 191 230 282 346
#     4   9  18  30  55  84 109 136 183 243 285 330
#     4  10  22  37  61  83 117 154 196 240 284 349
#
# _framework density 19.777739
#
# number of rings (size 3 to 8) (size 9 to 14) (size 15 to 20)
#    0.000    2.500    0.000    1.000   16.333    0.000 
#    0.000    1.667    0.000    2.500    0.000    0.000 
#    0.000    0.000    0.000    0.000    0.000    0.000 
#
# Total GULP energy -267627.924972 kJ/mol
# GULP energy per Si atom -5575.581770 kJ/mol
# Density = 1.973272 g / cm^3
# Si number density = 19.777739 Si / 1000 Ang^3
#
#
#
# Elastic Constant Matrix: (Units=GPa)
#
#
# Indices 1 2 3 4 5 6 
#
# 1 49.5832 17.7480 37.0531 0.0000 0.0000 0.0000
# 2 17.7480 49.5832 37.0531 0.0000 0.0000 0.0000
# 3 37.0531 37.0531 108.1490 0.0000 0.0000 0.0000
# 4 0.0000 0.0000 0.0000 19.4634 0.0000 0.0000
# 5 0.0000 0.0000 0.0000 0.0000 19.4634 0.0000
# 6 0.0000 0.0000 0.0000 0.0000 0.0000 14.7001
#
#
#
# Elastic Compliance Matrix: (Units=1/GPa)
#
#
# Indices 1 2 3 4 5 6 
#
# 1 0.027627 -0.003785 -0.008169 0.000000 0.000000 0.000000
# 2 -0.003785 0.027627 -0.008169 0.000000 0.000000 0.000000
# 3 -0.008169 -0.008169 0.014844 0.000000 0.000000 0.000000
# 4 0.000000 0.000000 0.000000 0.051378 0.000000 0.000000
# 5 0.000000 0.000000 0.000000 0.000000 0.051378 0.000000
# 6 0.000000 0.000000 0.000000 0.000000 0.000000 0.068027
#
#
# Mechanical properties :
#
#
# Convention : Reuss Voigt Hill
#
# Bulk Modulus (GPa) = 33.49612 43.44709 38.47161
# Shear Modulus (GPa) = 17.17753 18.42278 17.80016
#
# Velocity S-wave (km/s) = 2.95028 3.05534 3.00327
# Velocity P-wave (km/s) = 5.34589 5.87045 5.61430
#
# Compressibility (1/GPa) = 0.02985420
#
# Stress axis : x y z
#
# Youngs Moduli (GPa) = 36.19616 36.19616 67.36756
#
# Poissons Ratio (x) = 0.13699 0.55031
# Poissons Ratio (y) = 0.13699 0.55031
# Poissons Ratio (z) = 0.29568 0.29568
#
# Static dielectric constant tensor:
#      x y z
#    x 1.713670 0.000000 0.000000 
#    y 0.000000 1.713670 0.000000 
#    z 0.000000 0.000000 1.703050 
# 
# From -- ./inp_files/3987.got.cif
#   From: 2010.05.17/outbox.cif.g08.bks.cpg/sg114_2_cif.got.tgz:3987.got - 2010.05.20 11:04:54.
