data_PCOD9556439
_publ_section_title
;
Structure prediction by ZEFSAII (Michael W. Deem and Ramdas Pophale) SiO2 
 PCOD9556439
Probable space group: P -4 21 C
;
_chemical_formula_sum "Si O2"
_cell_formula_units_Z 36
_cell_length_a 11.670283
_cell_length_b 11.670283
_cell_length_c 10.920743
_cell_angle_alpha 90.000000
_cell_angle_beta 90.000000
_cell_angle_gamma 90.000000
_cell_volume 1487.356111
_symmetry_space_group_name_H-M "P -4 21 C"
_symmetry_group_IT_number 114
_symmetry_cell_setting 'tetragonal'
loop_
_space_group_symop_operation_xyz
x,y,z
y,-x,-z
-x,-y,z
-y,x,-z
1/2+x,1/2-y,1/2-z
1/2-x,1/2+y,1/2-z
1/2-y,1/2-x,1/2+z
1/2+y,1/2+x,1/2+z
loop_
_atom_site_type_symbol
_atom_site_label
_atom_site_fract_x
_atom_site_fract_y
_atom_site_fract_z
Si Si1 0.500000 0.000000 0.764207
Si Si2 0.826005 0.686084 0.626123
Si Si3 0.839876 0.058124 0.554281
Si Si4 0.405919 0.238560 0.256002
Si Si5 0.852656 0.904672 0.002354
O O1 0.416813 0.907961 0.830640
O O2 0.605613 0.920847 0.710896
O O3 0.872149 0.733977 0.497317
O O4 0.805762 0.791673 0.716971
O O5 0.695483 0.654904 0.598867
O O6 0.952819 0.135234 0.540190
O O7 0.808318 0.004390 0.683524
O O8 0.409562 0.251560 0.402884
O O9 0.972657 0.872847 0.936047
#
# Coordination Sequence:
#
# PCOD9556439 Si02
#       5
#     4   8   8   8   8
#     4  12  28  48  74 110 148 200 248 318 390 462
#     4  11  27  45  73 110 152 196 256 318 385 468
#     4   9  22  44  72 105 145 198 245 311 372 464
#     4  11  27  47  75 109 149 202 253 322 390 459
#     4  11  26  47  70 105 147 197 255 324 385 460
#
# _framework density 24.204021999999998
#
# number of rings (size 3 to 8) (size 9 to 14) (size 15 to 20)
#    0.000    1.333    2.222    0.000   12.444    8.000 
#    0.000    0.000    0.000    0.000    0.000    0.000 
#    0.000    0.000    0.000    0.000    0.000    0.000 
#
# Total GULP energy -200707.313686 kJ/mol
# GULP energy per Si atom -5575.203158 kJ/mol
# Density = 2.414893 g / cm^3
# Si number density = 24.204022 Si / 1000 Ang^3
#
#
#
# Elastic Constant Matrix: (Units=GPa)
#
#
# Indices 1 2 3 4 5 6 
#
# 1 96.0446 30.6833 27.3733 0.0000 0.0000 0.0000
# 2 30.6833 96.0446 27.3733 0.0000 0.0000 0.0000
# 3 27.3733 27.3733 52.1609 0.0000 0.0000 0.0000
# 4 0.0000 0.0000 0.0000 19.8894 0.0000 0.0000
# 5 0.0000 0.0000 0.0000 0.0000 19.8894 0.0000
# 6 0.0000 0.0000 0.0000 0.0000 0.0000 45.6816
#
#
#
# Elastic Compliance Matrix: (Units=1/GPa)
#
#
# Indices 1 2 3 4 5 6 
#
# 1 0.012752 -0.002548 -0.005355 0.000000 0.000000 0.000000
# 2 -0.002548 0.012752 -0.005355 0.000000 0.000000 0.000000
# 3 -0.005355 -0.005355 0.024792 0.000000 0.000000 0.000000
# 4 0.000000 0.000000 0.000000 0.050278 0.000000 0.000000
# 5 0.000000 0.000000 0.000000 0.000000 0.050278 0.000000
# 6 0.000000 0.000000 0.000000 0.000000 0.000000 0.021891
#
#
# Mechanical properties :
#
#
# Convention : Reuss Voigt Hill
#
# Bulk Modulus (GPa) = 42.05160 46.12331 44.08746
# Shear Modulus (GPa) = 24.13302 27.68009 25.90656
#
# Velocity S-wave (km/s) = 3.16106 3.38541 3.27516
# Velocity P-wave (km/s) = 5.54388 5.86334 5.70585
#
# Compressibility (1/GPa) = 0.02378031
#
# Stress axis : x y z
#
# Youngs Moduli (GPa) = 78.41941 78.41941 40.33565
#
# Poissons Ratio (x) = 0.19978 0.21600
# Poissons Ratio (y) = 0.19978 0.21600
# Poissons Ratio (z) = 0.41994 0.41994
#
# Static dielectric constant tensor:
#      x y z
#    x 2.014400 0.000000 0.000000 
#    y 0.000000 2.014400 0.000000 
#    z 0.000000 0.000000 1.871420 
# 
# From -- ./inp_files/1489.got.cif
#   From: 2010.05.17/outbox.cif.g08.bks.cpg/sg114_1_cif.got.tgz:1489.got - 2010.05.20 11:04:54.
