data_PCOD9556845
_publ_section_title
;
Structure prediction by ZEFSAII (Michael W. Deem and Ramdas Pophale) SiO2 
 PCOD9556845
Probable space group: P -4 M 2
;
_chemical_formula_sum "Si O2"
_cell_formula_units_Z 48
_cell_length_a 9.283779
_cell_length_b 9.283779
_cell_length_c 32.186793
_cell_angle_alpha 90.000000
_cell_angle_beta 90.000000
_cell_angle_gamma 90.000000
_cell_volume 2774.133099
_symmetry_space_group_name_H-M "P -4 M 2"
_symmetry_group_IT_number 115
_symmetry_cell_setting 'tetragonal'
loop_
_space_group_symop_operation_xyz
x,y,z
y,-x,-z
-x,-y,z
-y,x,-z
y,x,-z
-y,-x,-z
-x,y,z
x,-y,z
loop_
_atom_site_type_symbol
_atom_site_label
_atom_site_fract_x
_atom_site_fract_y
_atom_site_fract_z
Si Si1 0.175643 0.334571 0.372364
Si Si2 0.824253 0.166684 0.454200
Si Si3 0.171959 0.829868 0.711155
Si Si4 0.827179 0.330385 0.795867
Si Si5 0.324690 0.666164 0.954169
Si Si6 0.168879 0.673552 0.128813
O O1 0.220704 0.500000 0.370981
O O2 0.224102 0.258215 0.414779
O O3 0.218982 0.251147 0.330688
O O4 0.000000 0.330645 0.372971
O O5 0.779784 0.220217 0.500000
O O6 0.000000 0.168100 0.454970
O O7 0.780871 0.000000 0.449080
O O8 0.214205 0.741603 0.751985
O O9 0.000000 0.815760 0.705274
O O10 0.202710 0.000000 0.717766
O O11 0.794978 0.500000 0.795839
O O12 0.747866 0.252054 0.833539
O O13 0.000000 0.312511 0.800346
O O14 0.500000 0.664805 0.955432
O O15 0.278220 0.500000 0.948284
O O16 0.280999 0.762172 0.915219
O O17 0.280443 0.719558 0.000000
O O18 0.184137 0.500000 0.131950
O O19 0.000000 0.708243 0.130322
#
# Coordination Sequence:
#
# PCOD9556845 Si02
#       6
#     8   8   8   8   8   8
#     4   9  16  25  40  65  94 119 147 188 233 274
#     4   8  13  22  38  60  85 115 152 189 223 265
#     4   9  17  30  48  68  92 123 155 189 235 288
#     4  10  21  36  53  73  97 127 164 204 246 292
#     4   8  14  27  48  71  96 130 170 207 241 279
#     4  10  20  33  51  76 104 133 165 201 242 289
#
# _framework density 17.302703000000001
#
# number of rings (size 3 to 8) (size 9 to 14) (size 15 to 20)
#    0.000    3.000    0.000    2.500    0.000    4.667 
#    0.000    2.500    0.000    4.000    0.000    4.667 
#    0.000    0.000    0.000    0.000    0.000    0.000 
#
# Total GULP energy -267483.531751 kJ/mol
# GULP energy per Si atom -5572.573578 kJ/mol
# Density = 1.726332 g / cm^3
# Si number density = 17.302703 Si / 1000 Ang^3
#
#
#
# Elastic Constant Matrix: (Units=GPa)
#
#
# Indices 1 2 3 4 5 6 
#
# 1 53.4189 37.9318 77.3551 0.0000 0.0000 0.0000
# 2 37.9318 53.4186 77.3549 0.0000 0.0000 0.0000
# 3 77.3551 77.3549 222.9938 0.0000 0.0000 0.0000
# 4 0.0000 0.0000 0.0000 87.2788 0.0000 0.0000
# 5 0.0000 0.0000 0.0000 0.0000 87.2709 0.0000
# 6 0.0000 0.0000 0.0000 0.0000 0.0000 14.2911
#
#
#
# Elastic Compliance Matrix: (Units=1/GPa)
#
#
# Indices 1 2 3 4 5 6 
#
# 1 0.045554 -0.019017 -0.009206 0.000000 0.000000 0.000000
# 2 -0.019017 0.045554 -0.009206 0.000000 0.000000 0.000000
# 3 -0.009206 -0.009206 0.010871 0.000000 0.000000 0.000000
# 4 0.000000 0.000000 0.000000 0.011458 0.000000 0.000000
# 5 0.000000 0.000000 0.000000 0.000000 0.011459 0.000000
# 6 0.000000 0.000000 0.000000 0.000000 0.000000 0.069974
#
#
# Mechanical properties :
#
#
# Convention : Reuss Voigt Hill
#
# Bulk Modulus (GPa) = 36.86856 79.45719 58.16288
# Shear Modulus (GPa) = 17.93622 46.91413 32.42518
#
# Velocity S-wave (km/s) = 3.22314 5.21274 4.33366
# Velocity P-wave (km/s) = 5.93344 9.06927 7.66347
#
# Compressibility (1/GPa) = 0.02712338
#
# Stress axis : x y z
#
# Youngs Moduli (GPa) = 21.95209 21.95190 91.98652
#
# Poissons Ratio (x) = 0.41745 0.84679
# Poissons Ratio (y) = 0.41745 0.84680
# Poissons Ratio (z) = 0.20208 0.20208
#
# Static dielectric constant tensor:
#      x y z
#    x 1.576390 0.000000 0.000000 
#    y 0.000000 1.576390 0.000000 
#    z 0.000000 0.000000 1.584080 
# 
# From -- ./inp_files/6007.got.cif
#   From: 2010.05.17/outbox.cif.g08.bks.cpg/sg115_4_cif.got.tgz:6007.got - 2010.05.20 11:07:42.
