data_PCOD9556167
_publ_section_title
;
Structure prediction by ZEFSAII (Michael W. Deem and Ramdas Pophale) SiO2 
 PCOD9556167
Probable space group: P -4 21 C
;
_chemical_formula_sum "Si O2"
_cell_formula_units_Z 48
_cell_length_a 8.885610
_cell_length_b 8.885610
_cell_length_c 28.959015
_cell_angle_alpha 90.000000
_cell_angle_beta 90.000000
_cell_angle_gamma 90.000000
_cell_volume 2286.431955
_symmetry_space_group_name_H-M "P -4 21 C"
_symmetry_group_IT_number 114
_symmetry_cell_setting 'tetragonal'
loop_
_space_group_symop_operation_xyz
x,y,z
y,-x,-z
-x,-y,z
-y,x,-z
1/2+x,1/2-y,1/2-z
1/2-x,1/2+y,1/2-z
1/2-y,1/2-x,1/2+z
1/2+y,1/2+x,1/2+z
loop_
_atom_site_type_symbol
_atom_site_label
_atom_site_fract_x
_atom_site_fract_y
_atom_site_fract_z
Si Si1 0.155562 0.803446 0.992655
Si Si2 0.639562 0.105563 0.654151
Si Si3 0.326114 0.020556 0.248583
Si Si4 0.196795 0.172245 0.691740
Si Si5 0.335905 0.192776 0.912764
Si Si6 0.818095 0.665675 0.600736
O O1 0.222238 0.773064 0.942266
O O2 0.214623 0.695933 0.032949
O O3 0.974304 0.799482 0.993304
O O4 0.568999 0.183623 0.699732
O O5 0.716312 0.214515 0.617424
O O6 0.500000 0.000000 0.636545
O O7 0.767894 0.991594 0.672303
O O8 0.214982 0.963393 0.287641
O O9 0.500000 0.000000 0.264344
O O10 0.301694 0.191123 0.234372
O O11 0.239728 0.283219 0.650216
O O12 0.510294 0.224624 0.902315
O O13 0.315378 0.014743 0.903040
#
# Coordination Sequence:
#
# PCOD9556167 Si02
#       6
#     8   8   8   8   8   8
#     4   9  20  39  63  92 126 163 214 263 315 383
#     4   9  22  42  62  93 123 166 214 264 324 377
#     4   9  22  41  60  89 124 162 211 266 310 369
#     4  10  22  41  64  90 127 166 217 257 322 386
#     4  10  22  41  64  91 133 166 205 269 320 382
#     4  10  23  39  63  95 126 170 211 260 324 387
#
# _framework density 20.993410000000001
#
# number of rings (size 3 to 8) (size 9 to 14) (size 15 to 20)
#    0.000    2.833    0.000    0.000    9.333    3.333 
#    6.000    6.667    0.000    0.000    0.000    0.000 
#    0.000    0.000    0.000    0.000    0.000    0.000 
#
# Total GULP energy -267997.339171 kJ/mol
# GULP energy per Si atom -5583.277899 kJ/mol
# Density = 2.094563 g / cm^3
# Si number density = 20.993410 Si / 1000 Ang^3
#
#
#
# Elastic Constant Matrix: (Units=GPa)
#
#
# Indices 1 2 3 4 5 6 
#
# 1 37.9365 45.6065 26.1386 0.0000 0.0000 0.0000
# 2 45.6065 37.9365 26.1386 0.0000 0.0000 0.0000
# 3 26.1386 26.1386 34.2557 0.0000 0.0000 0.0000
# 4 0.0000 0.0000 0.0000 16.5211 0.0000 0.0000
# 5 0.0000 0.0000 0.0000 0.0000 16.5211 0.0000
# 6 0.0000 0.0000 0.0000 0.0000 0.0000 35.7493
#
#
#
# Elastic Compliance Matrix: (Units=1/GPa)
#
#
# Indices 1 2 3 4 5 6 
#
# 1 -0.053735 0.076643 -0.017480 0.000000 0.000000 0.000000
# 2 0.076643 -0.053735 -0.017480 0.000000 0.000000 0.000000
# 3 -0.017480 -0.017480 0.055868 0.000000 0.000000 0.000000
# 4 0.000000 0.000000 0.000000 0.060529 0.000000 0.000000
# 5 0.000000 0.000000 0.000000 0.000000 0.060529 0.000000
# 6 0.000000 0.000000 0.000000 0.000000 0.000000 0.027973
#
#
# Mechanical properties :
#
#
# Convention : Reuss Voigt Hill
#
# Bulk Modulus (GPa) = 31.48147 33.98844 32.73496
# Shear Modulus (GPa) = 202.84313 14.57462 108.70888
#
# Velocity S-wave (km/s) = 9.84033 2.63772 7.20380
# Velocity P-wave (km/s) = 12.00574 5.04994 9.20977
#
# Compressibility (1/GPa) = 0.03176471
#
# Stress axis : x y z
#
# Youngs Moduli (GPa) = -18.60989 -18.60989 17.89942
#
# Poissons Ratio (x) = 1.42631 0.31288
# Poissons Ratio (y) = 1.42631 0.31288
# Poissons Ratio (z) = -0.32529 -0.32529
#
# Static dielectric constant tensor:
#      x y z
#    x 1.768330 0.000000 0.000000 
#    y 0.000000 1.768330 0.000000 
#    z 0.000000 0.000000 1.724040 
# 
# From -- ./inp_files/3960.got.cif
#   From: 2010.05.17/outbox.cif.g08.bks.cpg/sg114_2_cif.got.tgz:3960.got - 2010.05.20 11:04:54.
