data_PCOD9556610
_publ_section_title
;
Structure prediction by ZEFSAII (Michael W. Deem and Ramdas Pophale) SiO2 
 PCOD9556610
Probable space group: P -4 M 2
;
_chemical_formula_sum "Si O2"
_cell_formula_units_Z 56
_cell_length_a 15.331261
_cell_length_b 15.331261
_cell_length_c 12.606640
_cell_angle_alpha 90.000000
_cell_angle_beta 90.000000
_cell_angle_gamma 90.000000
_cell_volume 2963.160020
_symmetry_space_group_name_H-M "P -4 M 2"
_symmetry_group_IT_number 115
_symmetry_cell_setting 'tetragonal'
loop_
_space_group_symop_operation_xyz
x,y,z
y,-x,-z
-x,-y,z
-y,x,-z
y,x,-z
-y,-x,-z
-x,y,z
x,-y,z
loop_
_atom_site_type_symbol
_atom_site_label
_atom_site_fract_x
_atom_site_fract_y
_atom_site_fract_z
Si Si1 0.835005 0.907128 0.399079
Si Si2 0.594698 0.396522 0.627186
Si Si3 0.753933 0.896068 0.964344
Si Si4 0.739233 0.895592 0.718691
Si Si5 0.353801 0.099163 0.511293
Si Si6 0.397165 0.102380 0.133551
Si Si7 0.779529 0.398824 0.673218
O O1 0.898535 0.898535 0.500000
O O2 0.848591 0.825981 0.322992
O O3 0.741246 0.903818 0.455615
O O4 0.846121 0.000000 0.344090
O O5 0.604539 0.395462 0.500000
O O6 0.500000 0.358481 0.655801
O O7 0.591582 0.500000 0.654853
O O8 0.683954 0.356409 0.671358
O O9 0.727717 0.877647 0.842280
O O10 0.776449 0.000000 0.972043
O O11 0.833266 0.833266 0.000000
O O12 0.669376 0.881016 0.038099
O O13 0.662588 0.876407 0.633865
O O14 0.753544 0.000000 0.706715
O O15 0.398266 0.172618 0.440395
O O16 0.390178 0.000000 0.503855
O O17 0.500000 0.120656 0.109404
O O18 0.365862 0.156827 0.235432
O O19 0.392789 0.000000 0.160890
O O20 0.766317 0.500000 0.699377
#
# Coordination Sequence:
#
# PCOD9556610 Si02
#       7
#     8   8   8   8   8   8   8
#     4   9  17  28  45  70 101 138 175 208 253 316
#     4   8  15  29  47  70 107 147 175 206 257 328
#     4  10  22  39  58  80 110 147 190 235 284 333
#     4   9  19  34  48  70 103 139 179 221 265 324
#     4   9  18  31  47  72 107 139 170 213 269 328
#     4   9  19  37  60  84 109 142 190 240 281 330
#     4  10  19  31  52  82 109 136 175 224 276 328
#
# _framework density 18.898743
#
# number of rings (size 3 to 8) (size 9 to 14) (size 15 to 20)
#    0.000    2.857    0.000    2.143    2.000    4.286 
#    0.000    2.143    0.000    3.429    0.000    0.000 
#    0.000    0.000    0.000    7.857    0.000    0.000 
#
# Total GULP energy -311939.436281 kJ/mol
# GULP energy per Si atom -5570.347076 kJ/mol
# Density = 1.885573 g / cm^3
# Si number density = 18.898743 Si / 1000 Ang^3
#
#
#
# Elastic Constant Matrix: (Units=GPa)
#
#
# Indices 1 2 3 4 5 6 
#
# 1 71.0365 37.0089 48.4073 0.0000 0.0000 0.0000
# 2 37.0089 71.0365 48.4072 0.0000 0.0000 0.0000
# 3 48.4073 48.4072 128.5029 0.0000 0.0000 0.0000
# 4 0.0000 0.0000 0.0000 19.7582 0.0000 0.0000
# 5 0.0000 0.0000 0.0000 0.0000 19.7582 0.0000
# 6 0.0000 0.0000 0.0000 0.0000 0.0000 14.7290
#
#
#
# Elastic Compliance Matrix: (Units=1/GPa)
#
#
# Indices 1 2 3 4 5 6 
#
# 1 0.021680 -0.007708 -0.005263 0.000000 0.000000 0.000000
# 2 -0.007708 0.021680 -0.005263 0.000000 0.000000 0.000000
# 3 -0.005263 -0.005263 0.011747 0.000000 0.000000 0.000000
# 4 0.000000 0.000000 0.000000 0.050612 0.000000 0.000000
# 5 0.000000 0.000000 0.000000 0.000000 0.050612 0.000000
# 6 0.000000 0.000000 0.000000 0.000000 0.000000 0.067893
#
#
# Mechanical properties :
#
#
# Convention : Reuss Voigt Hill
#
# Bulk Modulus (GPa) = 53.65479 59.80251 56.72865
# Shear Modulus (GPa) = 18.73329 19.96592 19.34961
#
# Velocity S-wave (km/s) = 3.15182 3.25386 3.20325
# Velocity P-wave (km/s) = 6.45737 6.76972 6.61539
#
# Compressibility (1/GPa) = 0.01863766
#
# Stress axis : x y z
#
# Youngs Moduli (GPa) = 46.12629 46.12630 85.12737
#
# Poissons Ratio (x) = 0.35555 0.44803
# Poissons Ratio (y) = 0.35555 0.44803
# Poissons Ratio (z) = 0.24276 0.24276
#
# Static dielectric constant tensor:
#      x y z
#    x 1.707270 0.000000 0.000000 
#    y 0.000000 1.707270 0.000000 
#    z 0.000000 0.000000 1.637790 
# 
# From -- ./inp_files/3071.got.cif
#   From: 2010.05.17/outbox.cif.g08.bks.cpg/sg115_2_cif.got.tgz:3071.got - 2010.05.20 11:07:42.
