data_PCOD9556055
_publ_section_title
;
Structure prediction by ZEFSAII (Michael W. Deem and Ramdas Pophale) SiO2 
 PCOD9556055
Probable space group: P -4 21 C
;
_chemical_formula_sum "Si O2"
_cell_formula_units_Z 48
_cell_length_a 8.692989
_cell_length_b 8.692989
_cell_length_c 29.966182
_cell_angle_alpha 90.000000
_cell_angle_beta 90.000000
_cell_angle_gamma 90.000000
_cell_volume 2264.486172
_symmetry_space_group_name_H-M "P -4 21 C"
_symmetry_group_IT_number 114
_symmetry_cell_setting 'tetragonal'
loop_
_space_group_symop_operation_xyz
x,y,z
y,-x,-z
-x,-y,z
-y,x,-z
1/2+x,1/2-y,1/2-z
1/2-x,1/2+y,1/2-z
1/2-y,1/2-x,1/2+z
1/2+y,1/2+x,1/2+z
loop_
_atom_site_type_symbol
_atom_site_label
_atom_site_fract_x
_atom_site_fract_y
_atom_site_fract_z
Si Si1 0.945758 0.173202 0.696617
Si Si2 0.823581 0.547991 0.377637
Si Si3 0.125576 0.133577 0.052733
Si Si4 0.410581 0.335701 0.901690
Si Si5 0.899341 0.368583 0.024452
Si Si6 0.163521 0.412555 0.280143
O O1 0.960222 0.237308 0.646113
O O2 0.770606 0.160859 0.713650
O O3 0.043681 0.254516 0.734525
O O4 0.000000 0.000000 0.692046
O O5 0.729366 0.429563 0.407551
O O6 0.832949 0.723327 0.396240
O O7 0.759481 0.538486 0.327132
O O8 0.000000 0.500000 0.375538
O O9 0.020908 0.284009 0.057410
O O10 0.240149 0.153443 0.010760
O O11 0.000000 0.000000 0.046039
O O12 0.500000 0.500000 0.905900
O O13 0.436957 0.237185 0.946154
O O14 0.000000 0.500000 0.000577
O O15 0.000000 0.500000 0.278517
#
# Coordination Sequence:
#
# PCOD9556055 Si02
#       6
#     8   8   8   8   8   8
#     4  10  21  40  63  91 135 174 218 271 323 392
#     4  10  22  40  70  95 129 175 222 273 338 406
#     4  12  22  46  71  94 130 171 226 283 331 404
#     4  10  23  43  64  97 136 176 218 274 340 401
#     4  12  25  43  66  98 130 172 221 276 341 397
#     4  10  21  39  61  96 128 174 218 265 332 394
#
# _framework density 21.196863
#
# number of rings (size 3 to 8) (size 9 to 14) (size 15 to 20)
#    0.000    1.333    3.333    1.500    2.333    2.667 
#    3.000    0.000    0.000    0.000    0.000    0.000 
#    0.000    0.000    0.000    0.000    0.000    0.000 
#
# Total GULP energy -267749.223904 kJ/mol
# GULP energy per Si atom -5578.108831 kJ/mol
# Density = 2.114862 g / cm^3
# Si number density = 21.196863 Si / 1000 Ang^3
#
#
#
# Elastic Constant Matrix: (Units=GPa)
#
#
# Indices 1 2 3 4 5 6 
#
# 1 53.5134 6.4084 28.9240 0.0000 0.0000 0.0000
# 2 6.4084 53.5134 28.9240 0.0000 0.0000 0.0000
# 3 28.9240 28.9240 113.5539 0.0000 0.0000 0.0000
# 4 0.0000 0.0000 0.0000 26.2665 0.0000 0.0000
# 5 0.0000 0.0000 0.0000 0.0000 26.2665 0.0000
# 6 0.0000 0.0000 0.0000 0.0000 0.0000 41.5627
#
#
#
# Elastic Compliance Matrix: (Units=1/GPa)
#
#
# Indices 1 2 3 4 5 6 
#
# 1 0.021680 0.000451 -0.005637 0.000000 0.000000 0.000000
# 2 0.000451 0.021680 -0.005637 0.000000 0.000000 0.000000
# 3 -0.005637 -0.005637 0.011678 0.000000 0.000000 0.000000
# 4 0.000000 0.000000 0.000000 0.038071 0.000000 0.000000
# 5 0.000000 0.000000 0.000000 0.000000 0.038071 0.000000
# 6 0.000000 0.000000 0.000000 0.000000 0.000000 0.024060
#
#
# Mechanical properties :
#
#
# Convention : Reuss Voigt Hill
#
# Bulk Modulus (GPa) = 29.94838 38.78816 34.36827
# Shear Modulus (GPa) = 26.59337 29.24079 27.91708
#
# Velocity S-wave (km/s) = 3.54586 3.71817 3.63304
# Velocity P-wave (km/s) = 5.56089 6.06398 5.81788
#
# Compressibility (1/GPa) = 0.03339079
#
# Stress axis : x y z
#
# Youngs Moduli (GPa) = 46.12612 46.12612 85.63098
#
# Poissons Ratio (x) = -0.02078 0.48269
# Poissons Ratio (y) = -0.02078 0.48269
# Poissons Ratio (z) = 0.26001 0.26001
#
# Static dielectric constant tensor:
#      x y z
#    x 1.889770 0.000000 0.000000 
#    y 0.000000 1.889770 0.000000 
#    z 0.000000 0.000000 1.801290 
# 
# From -- ./inp_files/3910.got.cif
#   From: 2010.05.17/outbox.cif.g08.bks.cpg/sg114_2_cif.got.tgz:3910.got - 2010.05.20 11:04:54.
