data_PCOD9556911
_publ_section_title
;
Structure prediction by ZEFSAII (Michael W. Deem and Ramdas Pophale) SiO2 
 PCOD9556911
Probable space group: P -4 M 2
;
_chemical_formula_sum "Si O2"
_cell_formula_units_Z 37
_cell_length_a 8.133944
_cell_length_b 8.133944
_cell_length_c 27.796239
_cell_angle_alpha 90.000000
_cell_angle_beta 90.000000
_cell_angle_gamma 90.000000
_cell_volume 1839.028219
_symmetry_space_group_name_H-M "P -4 M 2"
_symmetry_group_IT_number 115
_symmetry_cell_setting 'tetragonal'
loop_
_space_group_symop_operation_xyz
x,y,z
y,-x,-z
-x,-y,z
-y,x,-z
y,x,-z
-y,-x,-z
-x,y,z
x,-y,z
loop_
_atom_site_type_symbol
_atom_site_label
_atom_site_fract_x
_atom_site_fract_y
_atom_site_fract_z
Si Si1 0.312522 0.695072 0.859107
Si Si2 0.315006 0.803182 0.550726
Si Si3 0.302939 0.187875 0.753462
Si Si4 0.297590 0.000000 0.074823
Si Si5 0.810936 0.805257 0.347491
Si Si6 0.000000 0.000000 0.000000
O O1 0.500000 0.763774 0.866810
O O2 0.326299 0.500000 0.864348
O O3 0.260389 0.730993 0.804117
O O4 0.165389 0.743920 0.894656
O O5 0.231352 0.768649 0.500000
O O6 0.500000 0.743598 0.546426
O O7 0.245612 0.736494 0.601219
O O8 0.311869 0.000000 0.555582
O O9 0.500000 0.183709 0.751680
O O10 0.246995 0.267006 0.703154
O O11 0.239000 0.000000 0.755025
O O12 0.500000 0.000000 0.065537
O O13 0.170122 0.000000 0.030653
O O14 0.000000 0.737521 0.345790
O O15 0.820254 0.000000 0.347889
#
# Coordination Sequence:
#
# PCOD9556911 Si02
#       6
#     8   8   8   4   8   1
#     4   9  19  37  60  86 120 163 203 244 303 362
#     4  10  20  34  52  71  95 130 174 225 278 338
#     4   9  17  29  49  80 113 147 187 230 279 341
#     4  10  24  44  64  94 132 164 210 265 305 358
#     4   9  17  29  47  74 104 137 176 223 279 338
#     4  12  28  44  68 104 124 172 220 256 314 360
#
# _framework density 20.119322
#
# number of rings (size 3 to 8) (size 9 to 14) (size 15 to 20)
#    0.000    2.595    0.000    1.297    3.027    4.757 
#    0.000    1.081    0.000    3.892    0.000    0.000 
#    0.000    0.000    0.000    0.000    0.000    0.000 
#
# Total GULP energy -205990.346132 kJ/mol
# GULP energy per Si atom -5567.306652 kJ/mol
# Density = 2.007353 g / cm^3
# Si number density = 20.119322 Si / 1000 Ang^3
#
#
#
# Elastic Constant Matrix: (Units=GPa)
#
#
# Indices 1 2 3 4 5 6 
#
# 1 38.9763 27.5955 52.5480 0.0000 0.0000 0.0000
# 2 27.5955 38.9741 52.5463 0.0000 0.0000 0.0000
# 3 52.5480 52.5463 165.8755 0.0000 0.0000 0.0000
# 4 0.0000 0.0000 0.0000 142.3816 0.0000 0.0000
# 5 0.0000 0.0000 0.0000 0.0000 142.3800 0.0000
# 6 0.0000 0.0000 0.0000 0.0000 0.0000 7.8753
#
#
#
# Elastic Compliance Matrix: (Units=1/GPa)
#
#
# Indices 1 2 3 4 5 6 
#
# 1 0.058961 -0.028913 -0.009519 0.000000 0.000000 0.000000
# 2 -0.028913 0.058964 -0.009519 0.000000 0.000000 0.000000
# 3 -0.009519 -0.009519 0.012060 0.000000 0.000000 0.000000
# 4 0.000000 0.000000 0.000000 0.007023 0.000000 0.000000
# 5 0.000000 0.000000 0.000000 0.000000 0.007023 0.000000
# 6 0.000000 0.000000 0.000000 0.000000 0.000000 0.126979
#
#
# Mechanical properties :
#
#
# Convention : Reuss Voigt Hill
#
# Bulk Modulus (GPa) = 29.34117 56.57839 42.95978
# Shear Modulus (GPa) = 13.21789 65.93645 39.57717
#
# Velocity S-wave (km/s) = 2.56593 5.73096 4.44004
# Velocity P-wave (km/s) = 4.83673 8.48376 6.90537
#
# Compressibility (1/GPa) = 0.03408180
#
# Stress axis : x y z
#
# Youngs Moduli (GPa) = 16.96025 16.95950 82.92002
#
# Poissons Ratio (x) = 0.49035 0.78935
# Poissons Ratio (y) = 0.49037 0.78934
# Poissons Ratio (z) = 0.16145 0.16144
#
# Static dielectric constant tensor:
#      x y z
#    x 1.743420 0.000000 0.000000 
#    y 0.000000 1.743420 0.000000 
#    z 0.000000 0.000000 1.755480 
# 
# From -- ./inp_files/5172.got.cif
#   From: 2010.05.17/outbox.cif.g08.bks.cpg/sg115_3_cif.got.tgz:5172.got - 2010.05.20 11:07:42.
