data_PCOD9556274
_publ_section_title
;
Structure prediction by ZEFSAII (Michael W. Deem and Ramdas Pophale) SiO2 
 PCOD9556274
Probable space group: P -4 21 C
;
_chemical_formula_sum "Si O2"
_cell_formula_units_Z 24
_cell_length_a 10.093221
_cell_length_b 10.093221
_cell_length_c 9.733519
_cell_angle_alpha 90.000000
_cell_angle_beta 90.000000
_cell_angle_gamma 90.000000
_cell_volume 991.583853
_symmetry_space_group_name_H-M "P -4 21 C"
_symmetry_group_IT_number 114
_symmetry_cell_setting 'tetragonal'
loop_
_space_group_symop_operation_xyz
x,y,z
y,-x,-z
-x,-y,z
-y,x,-z
1/2+x,1/2-y,1/2-z
1/2-x,1/2+y,1/2-z
1/2-y,1/2-x,1/2+z
1/2+y,1/2+x,1/2+z
loop_
_atom_site_type_symbol
_atom_site_label
_atom_site_fract_x
_atom_site_fract_y
_atom_site_fract_z
Si Si1 0.653970 0.518717 0.822035
Si Si2 0.742296 0.681658 0.318158
Si Si3 0.065903 0.356910 0.548140
O O1 0.500000 0.500000 0.847989
O O2 0.694136 0.412869 0.705746
O O3 0.686993 0.670633 0.789863
O O4 0.750358 0.488465 0.951816
O O5 0.793748 0.635897 0.466262
O O6 0.800329 0.586970 0.199137
O O7 0.000000 0.500000 0.549014
#
# Coordination Sequence:
#
# PCOD9556274 Si02
#       3
#     8   8   8
#     4  10  26  44  72 105 146 188 242 296 368 431
#     4  10  25  44  72 102 146 190 240 297 364 432
#     4  10  24  42  74 101 146 190 243 291 365 426
#
# _framework density 24.203700000000001
#
# number of rings (size 3 to 8) (size 9 to 14) (size 15 to 20)
#    2.000    0.000    0.000    1.000    9.333    2.667 
#    0.000    0.000    0.000    0.000    0.000    0.000 
#    0.000    0.000    0.000    0.000    0.000    0.000 
#
# Total GULP energy -134062.309350 kJ/mol
# GULP energy per Si atom -5585.929556 kJ/mol
# Density = 2.414861 g / cm^3
# Si number density = 24.203700 Si / 1000 Ang^3
#
#
#
# Elastic Constant Matrix: (Units=GPa)
#
#
# Indices 1 2 3 4 5 6 
#
# 1 94.0691 60.9355 12.1748 0.0000 0.0000 0.0000
# 2 60.9355 94.0691 12.1748 0.0000 0.0000 0.0000
# 3 12.1748 12.1748 67.4713 0.0000 0.0000 0.0000
# 4 0.0000 0.0000 0.0000 33.1064 0.0000 0.0000
# 5 0.0000 0.0000 0.0000 0.0000 33.1064 0.0000
# 6 0.0000 0.0000 0.0000 0.0000 0.0000 37.2702
#
#
#
# Elastic Compliance Matrix: (Units=1/GPa)
#
#
# Indices 1 2 3 4 5 6 
#
# 1 0.018410 -0.011771 -0.001198 0.000000 0.000000 0.000000
# 2 -0.011771 0.018410 -0.001198 0.000000 0.000000 0.000000
# 3 -0.001198 -0.001198 0.015253 0.000000 0.000000 0.000000
# 4 0.000000 0.000000 0.000000 0.030206 0.000000 0.000000
# 5 0.000000 0.000000 0.000000 0.000000 0.030206 0.000000
# 6 0.000000 0.000000 0.000000 0.000000 0.000000 0.026831
#
#
# Mechanical properties :
#
#
# Convention : Reuss Voigt Hill
#
# Bulk Modulus (GPa) = 42.12224 47.35329 44.73776
# Shear Modulus (GPa) = 28.47975 32.05156 30.26566
#
# Velocity S-wave (km/s) = 3.43398 3.64296 3.54001
# Velocity P-wave (km/s) = 5.75882 6.10752 5.93573
#
# Compressibility (1/GPa) = 0.02374043
#
# Stress axis : x y z
#
# Youngs Moduli (GPa) = 54.31759 54.31759 65.55878
#
# Poissons Ratio (x) = 0.63935 0.07854
# Poissons Ratio (y) = 0.63935 0.07854
# Poissons Ratio (z) = 0.06508 0.06508
#
# Static dielectric constant tensor:
#      x y z
#    x 1.965190 0.000000 0.000000 
#    y 0.000000 1.965190 0.000000 
#    z 0.000000 0.000000 1.924400 
# 
# From -- ./inp_files/469.got.cif
#   From: 2010.05.17/outbox.cif.g08.bks.cpg/sg114_1_cif.got.tgz:469.got - 2010.05.20 11:04:54.
