data_PCOD9556889
_publ_section_title
;
Structure prediction by ZEFSAII (Michael W. Deem and Ramdas Pophale) SiO2 
 PCOD9556889
Probable space group: P -4 M 2
;
_chemical_formula_sum "Si O2"
_cell_formula_units_Z 48
_cell_length_a 9.221768
_cell_length_b 9.221768
_cell_length_c 31.602938
_cell_angle_alpha 90.000000
_cell_angle_beta 90.000000
_cell_angle_gamma 90.000000
_cell_volume 2687.545610
_symmetry_space_group_name_H-M "P -4 M 2"
_symmetry_group_IT_number 115
_symmetry_cell_setting 'tetragonal'
loop_
_space_group_symop_operation_xyz
x,y,z
y,-x,-z
-x,-y,z
-y,x,-z
y,x,-z
-y,-x,-z
-x,y,z
x,-y,z
loop_
_atom_site_type_symbol
_atom_site_label
_atom_site_fract_x
_atom_site_fract_y
_atom_site_fract_z
Si Si1 0.827549 0.327101 0.883982
Si Si2 0.171804 0.673741 0.460936
Si Si3 0.329700 0.173659 0.213259
Si Si4 0.666725 0.323510 0.374887
Si Si5 0.674457 0.169528 0.710241
Si Si6 0.827705 0.672245 0.039183
O O1 0.804799 0.500000 0.889833
O O2 0.789378 0.291469 0.835319
O O3 0.737323 0.237996 0.917851
O O4 0.000000 0.300838 0.889612
O O5 0.244554 0.755447 0.500000
O O6 0.194228 0.500000 0.465835
O O7 0.246631 0.719613 0.416914
O O8 0.000000 0.699875 0.459195
O O9 0.500000 0.208514 0.219368
O O10 0.235722 0.253881 0.248108
O O11 0.314312 0.000000 0.217474
O O12 0.500000 0.275386 0.376466
O O13 0.667193 0.500000 0.374438
O O14 0.744461 0.276748 0.331700
O O15 0.500000 0.183751 0.713310
O O16 0.708653 0.000000 0.705810
O O17 0.802265 0.500000 0.037051
O O18 0.000000 0.697602 0.037307
O O19 0.750284 0.750284 0.000000
#
# Coordination Sequence:
#
# PCOD9556889 Si02
#       6
#     8   8   8   8   8   8
#     4   9  19  37  59  81 106 138 178 222 266 313
#     4  10  20  34  53  77 105 136 171 213 261 312
#     4   9  19  36  56  78 106 141 180 221 264 312
#     4   9  17  31  53  78 103 135 176 219 262 310
#     4  10  20  33  51  78 111 143 176 218 266 314
#     4  11  24  39  56  81 111 141 176 218 263 314
#
# _framework density 17.860164000000001
#
# number of rings (size 3 to 8) (size 9 to 14) (size 15 to 20)
#    0.000    2.333    0.000    3.500    0.000    9.333 
#    0.000    5.833    0.000    5.000    0.000    0.000 
#    0.000    0.000    0.000    0.000    0.000    0.000 
#
# Total GULP energy -267970.621732 kJ/mol
# GULP energy per Si atom -5582.721286 kJ/mol
# Density = 1.781951 g / cm^3
# Si number density = 17.860164 Si / 1000 Ang^3
#
#
#
# Elastic Constant Matrix: (Units=GPa)
#
#
# Indices 1 2 3 4 5 6 
#
# 1 85.8429 74.6219 97.7914 0.0000 0.0000 0.0000
# 2 74.6219 85.8437 97.7911 0.0000 0.0000 0.0000
# 3 97.7914 97.7911 185.9704 0.0000 0.0000 0.0000
# 4 0.0000 0.0000 0.0000 144.1407 0.0000 0.0000
# 5 0.0000 0.0000 0.0000 0.0000 144.1530 0.0000
# 6 0.0000 0.0000 0.0000 0.0000 0.0000 26.9992
#
#
#
# Elastic Compliance Matrix: (Units=1/GPa)
#
#
# Indices 1 2 3 4 5 6 
#
# 1 0.053236 -0.035880 -0.009127 0.000000 0.000000 0.000000
# 2 -0.035880 0.053235 -0.009126 0.000000 0.000000 0.000000
# 3 -0.009127 -0.009126 0.014975 0.000000 0.000000 0.000000
# 4 0.000000 0.000000 0.000000 0.006938 0.000000 0.000000
# 5 0.000000 0.000000 0.000000 0.000000 0.006937 0.000000
# 6 0.000000 0.000000 0.000000 0.000000 0.000000 0.037038
#
#
# Mechanical properties :
#
#
# Convention : Reuss Voigt Hill
#
# Bulk Modulus (GPa) = 75.86691 99.78509 87.82600
# Shear Modulus (GPa) = 17.54279 68.88873 43.21576
#
# Velocity S-wave (km/s) = 3.13745 6.21731 4.92435
# Velocity P-wave (km/s) = 7.46293 10.36973 9.03401
#
# Compressibility (1/GPa) = 0.01318098
#
# Stress axis : x y z
#
# Youngs Moduli (GPa) = 18.78417 18.78480 66.77775
#
# Poissons Ratio (x) = 0.67400 0.60946
# Poissons Ratio (y) = 0.67398 0.60939
# Poissons Ratio (z) = 0.17144 0.17142
#
# Static dielectric constant tensor:
#      x y z
#    x 1.592170 0.000000 0.000000 
#    y 0.000000 1.592170 0.000000 
#    z 0.000000 0.000000 1.585120 
# 
# From -- ./inp_files/5989.got.cif
#   From: 2010.05.17/outbox.cif.g08.bks.cpg/sg115_3_cif.got.tgz:5989.got - 2010.05.20 11:07:42.
