data_PCOD9556877
_publ_section_title
;
Structure prediction by ZEFSAII (Michael W. Deem and Ramdas Pophale) SiO2 
 PCOD9556877
Probable space group: P -4 M 2
;
_chemical_formula_sum "Si O2"
_cell_formula_units_Z 28
_cell_length_a 9.042711
_cell_length_b 9.042711
_cell_length_c 18.962408
_cell_angle_alpha 90.000000
_cell_angle_beta 90.000000
_cell_angle_gamma 90.000000
_cell_volume 1550.567901
_symmetry_space_group_name_H-M "P -4 M 2"
_symmetry_group_IT_number 115
_symmetry_cell_setting 'tetragonal'
loop_
_space_group_symop_operation_xyz
x,y,z
y,-x,-z
-x,-y,z
-y,x,-z
y,x,-z
-y,-x,-z
-x,y,z
x,-y,z
loop_
_atom_site_type_symbol
_atom_site_label
_atom_site_fract_x
_atom_site_fract_y
_atom_site_fract_z
Si Si1 0.322285 0.174152 0.797643
Si Si2 0.824238 0.324773 0.932320
Si Si3 0.322531 0.677470 0.500000
Si Si4 0.319766 0.327393 0.653132
O O1 0.500000 0.195544 0.803127
O O2 0.244652 0.258434 0.861316
O O3 0.273756 0.236830 0.721632
O O4 0.292563 0.000000 0.802370
O O5 0.796511 0.500000 0.935182
O O6 0.000000 0.300256 0.933220
O O7 0.751793 0.248208 0.000000
O O8 0.500000 0.700176 0.497672
O O9 0.268254 0.731448 0.423599
O O10 0.500000 0.324361 0.651087
O O11 0.277356 0.500000 0.660752
#
# Coordination Sequence:
#
# PCOD9556877 Si02
#       4
#     8   8   4   8
#     4  10  20  33  51  77 107 138 173 210 250 300
#     4  11  24  40  58  80 104 131 166 206 249 300
#     4   7  10  18  36  64  94 125 166 214 260 301
#     4   8  13  23  42  68  97 130 170 216 261 300
#
# _framework density 18.057901000000001
#
# number of rings (size 3 to 8) (size 9 to 14) (size 15 to 20)
#    0.000    2.714    0.000    4.286    0.000    7.429 
#    0.000    0.000    0.000    1.714    0.000    8.000 
#    0.000    0.000    0.000    0.000    0.000    0.000 
#
# Total GULP energy -156072.603537 kJ/mol
# GULP energy per Si atom -5574.021555 kJ/mol
# Density = 1.801680 g / cm^3
# Si number density = 18.057901 Si / 1000 Ang^3
#
#
#
# Elastic Constant Matrix: (Units=GPa)
#
#
# Indices 1 2 3 4 5 6 
#
# 1 51.2970 57.0069 70.1366 0.0000 0.0000 0.0000
# 2 57.0069 51.3008 70.1394 0.0000 0.0000 0.0000
# 3 70.1366 70.1394 219.3537 0.0000 0.0000 0.0000
# 4 0.0000 0.0000 0.0000 -15.9954 0.0000 0.0000
# 5 0.0000 0.0000 0.0000 0.0000 -15.9974 0.0000
# 6 0.0000 0.0000 0.0000 0.0000 0.0000 17.0803
#
#
#
# Elastic Compliance Matrix: (Units=1/GPa)
#
#
# Indices 1 2 3 4 5 6 
#
# 1 -0.079719 0.095476 -0.005039 0.000000 0.000000 0.000000
# 2 0.095476 -0.079714 -0.005039 0.000000 0.000000 0.000000
# 3 -0.005039 -0.005039 0.007781 0.000000 0.000000 0.000000
# 4 0.000000 0.000000 0.000000 -0.062518 0.000000 0.000000
# 5 0.000000 0.000000 0.000000 0.000000 -0.062510 0.000000
# 6 0.000000 0.000000 0.000000 0.000000 0.000000 0.058547
#
#
# Mechanical properties :
#
#
# Convention : Reuss Voigt Hill
#
# Bulk Modulus (GPa) = 52.23500 79.61303 65.92401
# Shear Modulus (GPa) = -13.07026 5.32875 -3.87076
#
# Velocity S-wave (km/s) = -2.69327 1.71969 -1.46567
# Velocity P-wave (km/s) = 4.39518 6.93732 5.80707
#
# Compressibility (1/GPa) = 0.01914425
#
# Stress axis : x y z
#
# Youngs Moduli (GPa) = -12.54399 -12.54488 128.51203
#
# Poissons Ratio (x) = 1.19774 0.64762
# Poissons Ratio (y) = 1.19765 0.64756
# Poissons Ratio (z) = -0.06321 -0.06321
#
# Static dielectric constant tensor:
#      x y z
#    x 1.598200 0.000000 0.000000 
#    y 0.000000 1.598200 0.000000 
#    z 0.000000 0.000000 1.638140 
# 
# From -- ./inp_files/4503.got.cif
#   From: 2010.05.17/outbox.cif.g08.bks.cpg/sg115_3_cif.got.tgz:4503.got - 2010.05.20 11:07:42.
