data_PCOD9556087
_publ_section_title
;
Structure prediction by ZEFSAII (Michael W. Deem and Ramdas Pophale) SiO2 
 PCOD9556087
Probable space group: P -4 21 C
;
_chemical_formula_sum "Si O2"
_cell_formula_units_Z 48
_cell_length_a 7.922858
_cell_length_b 7.922858
_cell_length_c 29.825231
_cell_angle_alpha 90.000000
_cell_angle_beta 90.000000
_cell_angle_gamma 90.000000
_cell_volume 1872.179823
_symmetry_space_group_name_H-M "P -4 21 C"
_symmetry_group_IT_number 114
_symmetry_cell_setting 'tetragonal'
loop_
_space_group_symop_operation_xyz
x,y,z
y,-x,-z
-x,-y,z
-y,x,-z
1/2+x,1/2-y,1/2-z
1/2-x,1/2+y,1/2-z
1/2-y,1/2-x,1/2+z
1/2+y,1/2+x,1/2+z
loop_
_atom_site_type_symbol
_atom_site_label
_atom_site_fract_x
_atom_site_fract_y
_atom_site_fract_z
Si Si1 0.914730 0.268774 0.273931
Si Si2 0.788269 0.818897 0.392315
Si Si3 0.875463 0.341869 0.413718
Si Si4 0.189287 0.020756 0.160229
Si Si5 0.253150 0.634107 0.007859
Si Si6 0.070602 0.749243 0.698530
O O1 0.825873 0.413932 0.303903
O O2 0.905293 0.339315 0.223570
O O3 0.091821 0.196455 0.291143
O O4 0.795895 0.105619 0.279011
O O5 0.730867 0.653361 0.364989
O O6 0.703969 0.830654 0.441096
O O7 0.742191 0.954961 0.354703
O O8 0.990106 0.807456 0.403400
O O9 0.718949 0.347065 0.380360
O O10 0.817211 0.357251 0.465036
O O11 0.000000 0.500000 0.405491
O O12 0.000000 0.000000 0.178033
O O13 0.433596 0.719710 0.997681
#
# Coordination Sequence:
#
# PCOD9556087 Si02
#       6
#     8   8   8   8   8   8
#     4  11  26  43  72  97 134 178 223 281 335 415
#     4  10  21  41  65  96 127 179 223 273 337 398
#     4   9  19  40  65  91 126 177 220 272 336 405
#     4  11  24  43  64  93 137 176 218 274 337 404
#     4   9  19  35  66  95 127 164 226 280 328 405
#     4  11  25  44  69 101 133 176 228 279 346 398
#
# _framework density 25.638559999999998
#
# number of rings (size 3 to 8) (size 9 to 14) (size 15 to 20)
#    0.000    1.833    1.667    1.000    7.000    3.333 
#    9.000    0.000    0.000    0.000    0.000    0.000 
#    0.000    0.000    0.000    0.000    0.000    0.000 
#
# Total GULP energy -268357.705544 kJ/mol
# GULP energy per Si atom -5590.785532 kJ/mol
# Density = 2.558021 g / cm^3
# Si number density = 25.638560 Si / 1000 Ang^3
#
#
#
# Elastic Constant Matrix: (Units=GPa)
#
#
# Indices 1 2 3 4 5 6 
#
# 1 89.6417 11.2887 21.2509 0.0000 0.0000 0.0000
# 2 11.2887 89.6417 21.2509 0.0000 0.0000 0.0000
# 3 21.2509 21.2509 176.7276 0.0000 0.0000 0.0000
# 4 0.0000 0.0000 0.0000 36.4906 0.0000 0.0000
# 5 0.0000 0.0000 0.0000 0.0000 36.4906 0.0000
# 6 0.0000 0.0000 0.0000 0.0000 0.0000 23.1733
#
#
#
# Elastic Compliance Matrix: (Units=1/GPa)
#
#
# Indices 1 2 3 4 5 6 
#
# 1 0.011600 -0.001163 -0.001255 0.000000 0.000000 0.000000
# 2 -0.001163 0.011600 -0.001255 0.000000 0.000000 0.000000
# 3 -0.001255 -0.001255 0.005960 0.000000 0.000000 0.000000
# 4 0.000000 0.000000 0.000000 0.027404 0.000000 0.000000
# 5 0.000000 0.000000 0.000000 0.000000 0.027404 0.000000
# 6 0.000000 0.000000 0.000000 0.000000 0.000000 0.043153
#
#
# Mechanical properties :
#
#
# Convention : Reuss Voigt Hill
#
# Bulk Modulus (GPa) = 45.84409 51.51021 48.67715
# Shear Modulus (GPa) = 35.27628 39.37892 37.32760
#
# Velocity S-wave (km/s) = 3.71335 3.92334 3.81979
# Velocity P-wave (km/s) = 6.02536 6.37636 6.20335
#
# Compressibility (1/GPa) = 0.02181306
#
# Stress axis : x y z
#
# Youngs Moduli (GPa) = 86.21053 86.21053 167.77882
#
# Poissons Ratio (x) = 0.10028 0.21055
# Poissons Ratio (y) = 0.10028 0.21055
# Poissons Ratio (z) = 0.10819 0.10819
#
# Static dielectric constant tensor:
#      x y z
#    x 2.102630 0.000000 0.000000 
#    y 0.000000 2.102630 0.000000 
#    z 0.000000 0.000000 2.062350 
# 
# From -- ./inp_files/3933.got.cif
#   From: 2010.05.17/outbox.cif.g08.bks.cpg/sg114_2_cif.got.tgz:3933.got - 2010.05.20 11:04:54.
