data_PCOD9556824
_publ_section_title
;
Structure prediction by ZEFSAII (Michael W. Deem and Ramdas Pophale) SiO2 
 PCOD9556824
Probable space group: P -4 M 2
;
_chemical_formula_sum "Si O2"
_cell_formula_units_Z 48
_cell_length_a 9.504828
_cell_length_b 9.504828
_cell_length_c 31.703845
_cell_angle_alpha 90.000000
_cell_angle_beta 90.000000
_cell_angle_gamma 90.000000
_cell_volume 2864.181007
_symmetry_space_group_name_H-M "P -4 M 2"
_symmetry_group_IT_number 115
_symmetry_cell_setting 'tetragonal'
loop_
_space_group_symop_operation_xyz
x,y,z
y,-x,-z
-x,-y,z
-y,x,-z
y,x,-z
-y,-x,-z
-x,y,z
x,-y,z
loop_
_atom_site_type_symbol
_atom_site_label
_atom_site_fract_x
_atom_site_fract_y
_atom_site_fract_z
Si Si1 0.165730 0.168839 0.713727
Si Si2 0.167638 0.167254 0.952202
Si Si3 0.161342 0.170812 0.381049
Si Si4 0.168805 0.333084 0.536415
Si Si5 0.667663 0.667096 0.119180
Si Si6 0.668045 0.666810 0.785045
O O1 0.215068 0.204764 0.666087
O O2 0.251553 0.246835 0.749670
O O3 0.000000 0.203731 0.717235
O O4 0.178505 0.000000 0.717690
O O5 0.249246 0.250453 0.916435
O O6 0.000000 0.189854 0.948319
O O7 0.192561 0.000000 0.948112
O O8 0.208981 0.208981 0.000000
O O9 0.264675 0.210703 0.418708
O O10 0.000000 0.216893 0.389254
O O11 0.158321 0.000000 0.379788
O O12 0.252857 0.252857 0.500000
O O13 0.194747 0.500000 0.535768
O O14 0.000000 0.311112 0.530999
O O15 0.500000 0.689126 0.115116
O O16 0.693339 0.500000 0.115024
O O17 0.707912 0.708766 0.167057
O O18 0.500000 0.686890 0.781339
O O19 0.695592 0.500000 0.780422
#
# Coordination Sequence:
#
# PCOD9556824 Si02
#       6
#     8   8   8   8   8   8
#     4   9  18  32  51  77 104 127 158 202 247 291
#     4   9  19  35  52  72 100 130 159 196 244 295
#     4   8  15  30  51  73  98 128 162 201 243 287
#     4  10  20  33  51  75 100 128 164 203 243 289
#     4   9  19  35  52  71  97 129 166 206 243 283
#     4   9  19  35  51  69  98 134 168 201 240 288
#
# _framework density 16.758717000000001
#
# number of rings (size 3 to 8) (size 9 to 14) (size 15 to 20)
#    0.000    3.000    0.000    3.000    0.000    5.000 
#    0.000   10.000    0.000    1.000    0.000    0.000 
#    0.000    0.000    0.000    0.000    0.000    0.000 
#
# Total GULP energy -267514.914129 kJ/mol
# GULP energy per Si atom -5573.227378 kJ/mol
# Density = 1.672057 g / cm^3
# Si number density = 16.758717 Si / 1000 Ang^3
#
#
#
# Elastic Constant Matrix: (Units=GPa)
#
#
# Indices 1 2 3 4 5 6 
#
# 1 51.0843 47.8910 85.7775 0.0000 0.0000 0.0000
# 2 47.8910 51.0843 85.7775 0.0000 0.0000 0.0000
# 3 85.7775 85.7775 204.1951 0.0000 0.0000 0.0000
# 4 0.0000 0.0000 0.0000 152.1480 0.0000 0.0000
# 5 0.0000 0.0000 0.0000 0.0000 152.1480 0.0000
# 6 0.0000 0.0000 0.0000 0.0000 0.0000 31.0098
#
#
#
# Elastic Compliance Matrix: (Units=1/GPa)
#
#
# Indices 1 2 3 4 5 6 
#
# 1 0.175159 -0.137996 -0.015611 0.000000 0.000000 0.000000
# 2 -0.137996 0.175159 -0.015611 0.000000 0.000000 0.000000
# 3 -0.015611 -0.015611 0.018013 0.000000 0.000000 0.000000
# 4 0.000000 0.000000 0.000000 0.006573 0.000000 0.000000
# 5 0.000000 0.000000 0.000000 0.000000 0.006573 0.000000
# 6 0.000000 0.000000 0.000000 0.000000 0.000000 0.032248
#
#
# Mechanical properties :
#
#
# Convention : Reuss Voigt Hill
#
# Bulk Modulus (GPa) = 33.45222 82.80620 58.12921
# Shear Modulus (GPa) = 6.56061 72.85568 39.70815
#
# Velocity S-wave (km/s) = 1.98072 6.60058 4.87293
# Velocity P-wave (km/s) = 5.02349 10.37344 8.14996
#
# Compressibility (1/GPa) = 0.02989338
#
# Stress axis : x y z
#
# Youngs Moduli (GPa) = 5.70911 5.70911 55.51594
#
# Poissons Ratio (x) = 0.78784 0.86666
# Poissons Ratio (y) = 0.78784 0.86666
# Poissons Ratio (z) = 0.08912 0.08912
#
# Static dielectric constant tensor:
#      x y z
#    x 1.548140 0.000000 0.000000 
#    y 0.000000 1.548140 0.000000 
#    z 0.000000 0.000000 1.561030 
# 
# From -- ./inp_files/5893.got.cif
#   From: 2010.05.17/outbox.cif.g08.bks.cpg/sg115_3_cif.got.tgz:5893.got - 2010.05.20 11:07:42.
