data_PCOD9556895
_publ_section_title
;
Structure prediction by ZEFSAII (Michael W. Deem and Ramdas Pophale) SiO2 
 PCOD9556895
Probable space group: P -4 M 2
;
_chemical_formula_sum "Si O2"
_cell_formula_units_Z 40
_cell_length_a 8.025896
_cell_length_b 8.025896
_cell_length_c 30.145779
_cell_angle_alpha 90.000000
_cell_angle_beta 90.000000
_cell_angle_gamma 90.000000
_cell_volume 1941.840553
_symmetry_space_group_name_H-M "P -4 M 2"
_symmetry_group_IT_number 115
_symmetry_cell_setting 'tetragonal'
loop_
_space_group_symop_operation_xyz
x,y,z
y,-x,-z
-x,-y,z
-y,x,-z
y,x,-z
-y,-x,-z
-x,y,z
x,-y,z
loop_
_atom_site_type_symbol
_atom_site_label
_atom_site_fract_x
_atom_site_fract_y
_atom_site_fract_z
Si Si1 0.699780 0.319225 0.856940
Si Si2 0.295208 0.000000 0.699734
Si Si3 0.309222 0.696414 0.358058
Si Si4 0.806660 0.798375 0.048617
Si Si5 0.704261 0.000000 0.802427
Si Si6 0.194894 0.309541 0.546724
O O1 0.500000 0.320283 0.851844
O O2 0.764686 0.500000 0.842819
O O3 0.737999 0.290869 0.908652
O O4 0.763509 0.163934 0.828468
O O5 0.236412 0.832461 0.674708
O O6 0.247224 0.000000 0.751139
O O7 0.500000 0.000000 0.697823
O O8 0.500000 0.765187 0.354968
O O9 0.322457 0.500000 0.348953
O O10 0.247574 0.716936 0.408824
O O11 0.000000 0.745125 0.053653
O O12 0.804841 0.000000 0.047828
O O13 0.744225 0.744225 0.000000
O O14 0.500000 0.000000 0.803729
O O15 0.221579 0.221579 0.500000
O O16 0.251876 0.500000 0.540109
O O17 0.000000 0.308312 0.556972
#
# Coordination Sequence:
#
# PCOD9556895 Si02
#       6
#     8   4   8   8   4   8
#     4  10  20  33  52  78 108 144 183 226 279 338
#     4   9  18  32  55  81 103 137 185 231 281 338
#     4   9  18  33  53  77 105 137 177 229 280 329
#     4   9  18  33  53  76 104 141 182 223 270 328
#     4   9  18  34  53  77 109 141 179 237 291 328
#     4  10  21  35  52  76 107 142 177 216 263 320
#
# _framework density 20.599012999999999
#
# number of rings (size 3 to 8) (size 9 to 14) (size 15 to 20)
#    0.000    2.600    1.000    1.200    1.400    3.200 
#    0.000    7.000    0.000    2.400    0.000    2.800 
#    0.000    0.000    0.000    0.000    0.000    0.000 
#
# Total GULP energy -223111.467209 kJ/mol
# GULP energy per Si atom -5577.786680 kJ/mol
# Density = 2.055213 g / cm^3
# Si number density = 20.599013 Si / 1000 Ang^3
#
#
#
# Elastic Constant Matrix: (Units=GPa)
#
#
# Indices 1 2 3 4 5 6 
#
# 1 59.3215 25.6329 47.9291 0.0000 0.0000 0.0000
# 2 25.6329 59.3215 47.9291 0.0000 0.0000 0.0000
# 3 47.9291 47.9291 142.0884 0.0000 0.0000 0.0000
# 4 0.0000 0.0000 0.0000 19.1239 0.0000 0.0000
# 5 0.0000 0.0000 0.0000 0.0000 19.1239 0.0000
# 6 0.0000 0.0000 0.0000 0.0000 0.0000 9.2868
#
#
#
# Elastic Compliance Matrix: (Units=1/GPa)
#
#
# Indices 1 2 3 4 5 6 
#
# 1 0.024344 -0.005340 -0.006410 0.000000 0.000000 0.000000
# 2 -0.005340 0.024344 -0.006410 0.000000 0.000000 0.000000
# 3 -0.006410 -0.006410 0.011363 0.000000 0.000000 0.000000
# 4 0.000000 0.000000 0.000000 0.052290 0.000000 0.000000
# 5 0.000000 0.000000 0.000000 0.000000 0.052290 0.000000
# 6 0.000000 0.000000 0.000000 0.000000 0.000000 0.107680
#
#
# Mechanical properties :
#
#
# Convention : Reuss Voigt Hill
#
# Bulk Modulus (GPa) = 42.14216 55.96818 49.05517
# Shear Modulus (GPa) = 15.79567 18.78963 17.29265
#
# Velocity S-wave (km/s) = 2.77215 3.02348 2.90054
# Velocity P-wave (km/s) = 5.54519 6.27836 5.92313
#
# Compressibility (1/GPa) = 0.02372921
#
# Stress axis : x y z
#
# Youngs Moduli (GPa) = 41.07798 41.07798 88.00782
#
# Poissons Ratio (x) = 0.21934 0.56417
# Poissons Ratio (y) = 0.21934 0.56417
# Poissons Ratio (z) = 0.26333 0.26333
#
# Static dielectric constant tensor:
#      x y z
#    x 1.751860 0.000000 0.000000 
#    y 0.000000 1.751860 0.000000 
#    z 0.000000 0.000000 1.705130 
# 
# From -- ./inp_files/5526.got.cif
#   From: 2010.05.17/outbox.cif.g08.bks.cpg/sg115_3_cif.got.tgz:5526.got - 2010.05.20 11:07:42.
