data_PCOD9556051
_publ_section_title
;
Structure prediction by ZEFSAII (Michael W. Deem and Ramdas Pophale) SiO2 
 PCOD9556051
Probable space group: P -4 21 C
;
_chemical_formula_sum "Si O2"
_cell_formula_units_Z 58
_cell_length_a 19.106398
_cell_length_b 19.106398
_cell_length_c 8.977976
_cell_angle_alpha 90.000000
_cell_angle_beta 90.000000
_cell_angle_gamma 90.000000
_cell_volume 3277.450042
_symmetry_space_group_name_H-M "P -4 21 C"
_symmetry_group_IT_number 114
_symmetry_cell_setting 'tetragonal'
loop_
_space_group_symop_operation_xyz
x,y,z
y,-x,-z
-x,-y,z
-y,x,-z
1/2+x,1/2-y,1/2-z
1/2-x,1/2+y,1/2-z
1/2-y,1/2-x,1/2+z
1/2+y,1/2+x,1/2+z
loop_
_atom_site_type_symbol
_atom_site_label
_atom_site_fract_x
_atom_site_fract_y
_atom_site_fract_z
Si Si1 0.372682 0.255297 0.178090
Si Si2 0.282603 0.518328 0.331962
Si Si3 0.782603 0.018329 0.831962
Si Si4 0.000000 0.000000 0.500000
Si Si5 0.627320 0.255299 0.821909
Si Si6 0.347635 0.229813 0.833470
Si Si7 0.847633 0.729815 0.333470
Si Si8 0.943052 0.056948 0.786265
O O1 0.450715 0.271394 0.229189
O O2 0.324949 0.324947 0.192393
O O3 0.337150 0.196837 0.282841
O O4 0.367015 0.230419 0.007381
O O5 0.261604 0.499999 0.500000
O O6 0.271396 0.450714 0.229189
O O7 0.241128 0.583967 0.265618
O O8 0.364905 0.537861 0.331520
O O9 0.741128 0.083969 0.765618
O O10 0.864905 0.037861 0.831519
O O11 0.952343 0.047657 0.606998
O O12 0.662851 0.196839 0.717157
O O13 0.632987 0.230420 0.992618
O O14 0.296018 0.296016 0.807771
O O15 0.000000 0.000000 0.840460
#
# Coordination Sequence:
#
# PCOD9556051 Si02
#       8
#     8   8   8   2   8   8   8   8
#     4  10  22  37  61  83 115 154 199 247 299 348
#     4  12  24  35  57  84 120 155 199 239 296 347
#     4  12  24  35  57  84 120 155 199 239 296 347
#     4   8  24  36  50  72 120 148 210 224 296 344
#     4  10  22  37  61  83 115 154 199 247 299 348
#     4  10  21  39  59  84 114 153 201 247 294 353
#     4  10  21  39  59  84 114 153 201 247 294 353
#     4  10  24  33  54  76 122 155 198 232 292 352
#
# _framework density 17.696684000000001
#
# number of rings (size 3 to 8) (size 9 to 14) (size 15 to 20)
#    0.414    1.103    1.379    3.310    7.724    2.207 
#    0.000    0.000    0.000    0.828    0.000    5.793 
#    0.000    0.000    0.000    0.000    0.000    0.000 
#
# Total GULP energy -324040.440976 kJ/mol
# GULP energy per Si atom -5586.904155 kJ/mol
# Density = 1.765641 g / cm^3
# Si number density = 17.696684 Si / 1000 Ang^3
#
#
#
# Elastic Constant Matrix: (Units=GPa)
#
#
# Indices 1 2 3 4 5 6 
#
# 1 88.7308 33.7965 21.1885 0.0000 0.0000 0.0000
# 2 33.7965 88.7308 21.1885 0.0000 0.0000 0.0000
# 3 21.1885 21.1885 79.0788 0.0000 0.0000 0.0000
# 4 0.0000 0.0000 0.0000 41.5344 0.0000 0.0000
# 5 0.0000 0.0000 0.0000 0.0000 41.5344 0.0000
# 6 0.0000 0.0000 0.0000 0.0000 0.0000 19.9674
#
#
#
# Elastic Compliance Matrix: (Units=1/GPa)
#
#
# Indices 1 2 3 4 5 6 
#
# 1 0.013599 -0.004604 -0.002410 0.000000 0.000000 0.000000
# 2 -0.004604 0.013599 -0.002410 0.000000 0.000000 0.000000
# 3 -0.002410 -0.002410 0.013937 0.000000 0.000000 0.000000
# 4 0.000000 0.000000 0.000000 0.024076 0.000000 0.000000
# 5 0.000000 0.000000 0.000000 0.000000 0.024076 0.000000
# 6 0.000000 0.000000 0.000000 0.000000 0.000000 0.050082
#
#
# Mechanical properties :
#
#
# Convention : Reuss Voigt Hill
#
# Bulk Modulus (GPa) = 44.86994 45.43193 45.15093
# Shear Modulus (GPa) = 30.18445 32.63170 31.40808
#
# Velocity S-wave (km/s) = 4.13444 4.29878 4.21741
# Velocity P-wave (km/s) = 6.94273 7.09701 7.02030
#
# Compressibility (1/GPa) = 0.02228664
#
# Stress axis : x y z
#
# Youngs Moduli (GPa) = 73.53320 73.53320 71.75058
#
# Poissons Ratio (x) = 0.33857 0.17293
# Poissons Ratio (y) = 0.33857 0.17293
# Poissons Ratio (z) = 0.17723 0.17723
#
# Static dielectric constant tensor:
#      x y z
#    x 1.574360 0.000000 0.000000 
#    y 0.000000 1.574360 0.000000 
#    z 0.000000 0.000000 1.628870 
# 
# From -- ./inp_files/1049.got.cif
#   From: 2010.05.17/outbox.cif.g08.bks.cpg/sg114_1_cif.got.tgz:1049.got - 2010.05.20 11:04:54.
