data_PCOD9556760
_publ_section_title
;
Structure prediction by ZEFSAII (Michael W. Deem and Ramdas Pophale) SiO2 
 PCOD9556760
Probable space group: P -4 M 2
;
_chemical_formula_sum "Si O2"
_cell_formula_units_Z 48
_cell_length_a 9.131562
_cell_length_b 9.131562
_cell_length_c 31.956660
_cell_angle_alpha 90.000000
_cell_angle_beta 90.000000
_cell_angle_gamma 90.000000
_cell_volume 2664.719662
_symmetry_space_group_name_H-M "P -4 M 2"
_symmetry_group_IT_number 115
_symmetry_cell_setting 'tetragonal'
loop_
_space_group_symop_operation_xyz
x,y,z
y,-x,-z
-x,-y,z
-y,x,-z
y,x,-z
-y,-x,-z
-x,y,z
x,-y,z
loop_
_atom_site_type_symbol
_atom_site_label
_atom_site_fract_x
_atom_site_fract_y
_atom_site_fract_z
Si Si1 0.675563 0.326766 0.046626
Si Si2 0.825178 0.325204 0.460135
Si Si3 0.172230 0.825010 0.875390
Si Si4 0.676330 0.825653 0.697570
Si Si5 0.178097 0.668874 0.208620
Si Si6 0.674298 0.825654 0.380741
O O1 0.500000 0.309065 0.048731
O O2 0.706646 0.500000 0.049959
O O3 0.750508 0.244879 0.084668
O O4 0.722640 0.277361 0.000000
O O5 0.749385 0.250616 0.500000
O O6 0.800086 0.500000 0.460574
O O7 0.756399 0.254613 0.418667
O O8 0.000000 0.300679 0.461188
O O9 0.239795 0.772463 0.831343
O O10 0.000000 0.798431 0.875441
O O11 0.197479 0.000000 0.877889
O O12 0.500000 0.807352 0.693795
O O13 0.718739 0.778862 0.744814
O O14 0.759786 0.736346 0.662291
O O15 0.705563 0.000000 0.692849
O O16 0.222979 0.500000 0.203380
O O17 0.000000 0.671304 0.209018
O O18 0.500000 0.800977 0.383939
O O19 0.700576 0.000000 0.382755
#
# Coordination Sequence:
#
# PCOD9556760 Si02
#       6
#     8   8   8   8   8   8
#     4   9  19  36  55  73  95 128 172 217 259 308
#     4  11  24  41  62  88 115 144 182 225 268 318
#     4  10  20  32  49  77 109 137 168 209 258 313
#     4   9  18  34  57  83 107 135 178 227 269 313
#     4   8  15  30  52  76 103 137 177 218 259 308
#     4  11  24  39  55  80 114 149 185 223 265 317
#
# _framework density 18.013152000000002
#
# number of rings (size 3 to 8) (size 9 to 14) (size 15 to 20)
#    0.000    2.333    0.000    4.000    0.000    9.667 
#    0.000    5.000    0.000    1.000    0.000    0.000 
#    0.000    0.000    0.000    0.000    0.000    0.000 
#
# Total GULP energy -267900.910992 kJ/mol
# GULP energy per Si atom -5581.268979 kJ/mol
# Density = 1.797215 g / cm^3
# Si number density = 18.013152 Si / 1000 Ang^3
#
#
#
# Elastic Constant Matrix: (Units=GPa)
#
#
# Indices 1 2 3 4 5 6 
#
# 1 76.2740 80.5496 97.2028 0.0000 0.0000 0.0000
# 2 80.5496 76.2739 97.2027 0.0000 0.0000 0.0000
# 3 97.2028 97.2027 226.7065 0.0000 0.0000 0.0000
# 4 0.0000 0.0000 0.0000 36.2703 0.0000 0.0000
# 5 0.0000 0.0000 0.0000 0.0000 36.2702 0.0000
# 6 0.0000 0.0000 0.0000 0.0000 0.0000 28.6972
#
#
#
# Elastic Compliance Matrix: (Units=1/GPa)
#
#
# Indices 1 2 3 4 5 6 
#
# 1 -0.110137 0.123748 -0.005836 0.000000 0.000000 0.000000
# 2 0.123748 -0.110137 -0.005836 0.000000 0.000000 0.000000
# 3 -0.005836 -0.005836 0.009415 0.000000 0.000000 0.000000
# 4 0.000000 0.000000 0.000000 0.027571 0.000000 0.000000
# 5 0.000000 0.000000 0.000000 0.000000 0.027571 0.000000
# 6 0.000000 0.000000 0.000000 0.000000 0.000000 0.034847
#
#
# Mechanical properties :
#
#
# Convention : Reuss Voigt Hill
#
# Bulk Modulus (GPa) = 75.22237 103.24052 89.23144
# Shear Modulus (GPa) = -14.68040 27.20083 6.26021
#
# Velocity S-wave (km/s) = -2.85789 3.89016 1.86625
# Velocity P-wave (km/s) = 5.56420 8.81000 7.36806
#
# Compressibility (1/GPa) = 0.01329392
#
# Stress axis : x y z
#
# Youngs Moduli (GPa) = -9.07963 -9.07964 106.20949
#
# Poissons Ratio (x) = 1.12358 0.61981
# Poissons Ratio (y) = 1.12358 0.61983
# Poissons Ratio (z) = -0.05299 -0.05299
#
# Static dielectric constant tensor:
#      x y z
#    x 1.600080 0.000000 0.000000 
#    y 0.000000 1.600080 0.000000 
#    z 0.000000 0.000000 1.610830 
# 
# From -- ./inp_files/5959.got.cif
#   From: 2010.05.17/outbox.cif.g08.bks.cpg/sg115_3_cif.got.tgz:5959.got - 2010.05.20 11:07:42.
