data_PCOD9556113
_publ_section_title
;
Structure prediction by ZEFSAII (Michael W. Deem and Ramdas Pophale) SiO2 
 PCOD9556113
Probable space group: P -4 21 C
;
_chemical_formula_sum "Si O2"
_cell_formula_units_Z 56
_cell_length_a 11.219836
_cell_length_b 11.219836
_cell_length_c 18.922374
_cell_angle_alpha 90.000000
_cell_angle_beta 90.000000
_cell_angle_gamma 90.000000
_cell_volume 2382.037750
_symmetry_space_group_name_H-M "P -4 21 C"
_symmetry_group_IT_number 114
_symmetry_cell_setting 'tetragonal'
loop_
_space_group_symop_operation_xyz
x,y,z
y,-x,-z
-x,-y,z
-y,x,-z
1/2+x,1/2-y,1/2-z
1/2-x,1/2+y,1/2-z
1/2-y,1/2-x,1/2+z
1/2+y,1/2+x,1/2+z
loop_
_atom_site_type_symbol
_atom_site_label
_atom_site_fract_x
_atom_site_fract_y
_atom_site_fract_z
Si Si1 0.079109 0.821618 0.482756
Si Si2 0.870489 0.557826 0.447289
Si Si3 0.260600 0.600827 0.344331
Si Si4 0.170173 0.597658 0.115119
Si Si5 0.908169 0.673076 0.105793
Si Si6 0.913166 0.102334 0.714179
Si Si7 0.295489 0.018970 0.661336
O O1 0.118574 0.717797 0.535359
O O2 0.942484 0.850501 0.503368
O O3 0.079011 0.782035 0.401853
O O4 0.772161 0.471070 0.414358
O O5 0.822149 0.607363 0.520496
O O6 0.913241 0.639458 0.381567
O O7 0.000000 0.500000 0.466333
O O8 0.330218 0.722413 0.361147
O O9 0.342731 0.537096 0.286350
O O10 0.127914 0.624333 0.312364
O O11 0.136114 0.458995 0.126032
O O12 0.286870 0.614006 0.163091
O O13 0.049699 0.673713 0.123402
O O14 0.787456 0.035065 0.720703
O O15 0.000000 0.000000 0.684729
#
# Coordination Sequence:
#
# PCOD9556113 Si02
#       7
#     8   8   8   8   8   8   8
#     4  11  19  33  65 109 137 162 222 300 376 416
#     4  10  21  45  69 104 138 179 238 302 361 432
#     4  11  27  45  68  98 142 191 237 293 358 443
#     4  11  22  40  69 103 137 181 227 302 361 429
#     4  11  22  44  72 102 138 182 244 293 365 442
#     4  12  27  47  65 103 144 184 243 302 357 437
#     4  11  23  41  75  98 136 183 230 295 373 425
#
# _framework density 23.509281999999999
#
# number of rings (size 3 to 8) (size 9 to 14) (size 15 to 20)
#    0.000    1.000    4.286    3.429    2.000    3.429 
#    7.714    0.000    0.000    0.000    0.000    0.000 
#    0.000    0.000    0.000    0.000    0.000    0.000 
#
# Total GULP energy -313073.399613 kJ/mol
# GULP energy per Si atom -5590.596422 kJ/mol
# Density = 2.345577 g / cm^3
# Si number density = 23.509282 Si / 1000 Ang^3
#
#
#
# Elastic Constant Matrix: (Units=GPa)
#
#
# Indices 1 2 3 4 5 6 
#
# 1 83.6688 23.2115 13.1201 0.0000 0.0000 0.0000
# 2 23.2115 83.6688 13.1201 0.0000 0.0000 0.0000
# 3 13.1201 13.1201 54.9388 0.0000 0.0000 0.0000
# 4 0.0000 0.0000 0.0000 23.1643 0.0000 0.0000
# 5 0.0000 0.0000 0.0000 0.0000 23.1643 0.0000
# 6 0.0000 0.0000 0.0000 0.0000 0.0000 37.2712
#
#
#
# Elastic Compliance Matrix: (Units=1/GPa)
#
#
# Indices 1 2 3 4 5 6 
#
# 1 0.013240 -0.003301 -0.002374 0.000000 0.000000 0.000000
# 2 -0.003301 0.013240 -0.002374 0.000000 0.000000 0.000000
# 3 -0.002374 -0.002374 0.019336 0.000000 0.000000 0.000000
# 4 0.000000 0.000000 0.000000 0.043170 0.000000 0.000000
# 5 0.000000 0.000000 0.000000 0.000000 0.043170 0.000000
# 6 0.000000 0.000000 0.000000 0.000000 0.000000 0.026830
#
#
# Mechanical properties :
#
#
# Convention : Reuss Voigt Hill
#
# Bulk Modulus (GPa) = 33.64795 35.68663 34.66729
# Shear Modulus (GPa) = 27.02880 28.24160 27.63520
#
# Velocity S-wave (km/s) = 3.39441 3.46973 3.43228
# Velocity P-wave (km/s) = 5.45036 5.59149 5.52138
#
# Compressibility (1/GPa) = 0.02971950
#
# Stress axis : x y z
#
# Youngs Moduli (GPa) = 75.52983 75.52983 51.71769
#
# Poissons Ratio (x) = 0.24931 0.12276
# Poissons Ratio (y) = 0.24931 0.12276
# Poissons Ratio (z) = 0.17927 0.17927
#
# Static dielectric constant tensor:
#      x y z
#    x 1.912980 0.000000 0.000000 
#    y 0.000000 1.912980 0.000000 
#    z 0.000000 0.000000 1.879490 
# 
# From -- ./inp_files/3138.got.cif
#   From: 2010.05.17/outbox.cif.g08.bks.cpg/sg114_2_cif.got.tgz:3138.got - 2010.05.20 11:04:54.
