data_PCOD9556525
_publ_section_title
;
Structure prediction by ZEFSAII (Michael W. Deem and Ramdas Pophale) SiO2 
 PCOD9556525
Probable space group: P -4 M 2
;
_chemical_formula_sum "Si O2"
_cell_formula_units_Z 48
_cell_length_a 12.136043
_cell_length_b 12.136043
_cell_length_c 22.134010
_cell_angle_alpha 90.000000
_cell_angle_beta 90.000000
_cell_angle_gamma 90.000000
_cell_volume 3259.975341
_symmetry_space_group_name_H-M "P -4 M 2"
_symmetry_group_IT_number 115
_symmetry_cell_setting 'tetragonal'
loop_
_space_group_symop_operation_xyz
x,y,z
y,-x,-z
-x,-y,z
-y,x,-z
y,x,-z
-y,-x,-z
-x,y,z
x,-y,z
loop_
_atom_site_type_symbol
_atom_site_label
_atom_site_fract_x
_atom_site_fract_y
_atom_site_fract_z
Si Si1 0.788181 0.368967 0.030584
Si Si2 0.132467 0.867534 0.500000
Si Si3 0.000000 0.868650 0.709157
Si Si4 0.751864 0.128140 0.852980
Si Si5 0.197858 0.000000 0.158155
Si Si6 0.369107 0.000000 0.052808
Si Si7 0.867596 0.216256 0.371413
Si Si8 0.373587 0.134170 0.731260
O O1 0.786118 0.500000 0.038833
O O2 0.806808 0.307496 0.093742
O O3 0.679198 0.320803 0.000000
O O4 0.891992 0.341331 0.986908
O O5 0.170992 0.805691 0.439471
O O6 0.000000 0.852500 0.508248
O O7 0.000000 0.795696 0.769184
O O8 0.892700 0.849045 0.668744
O O9 0.000000 0.000000 0.726932
O O10 0.703799 0.164593 0.787964
O O11 0.883824 0.138877 0.856037
O O12 0.721778 0.000000 0.860268
O O13 0.305422 0.000000 0.116075
O O14 0.500000 0.000000 0.062641
O O15 0.827230 0.318762 0.331480
O O16 0.000000 0.227081 0.376556
O O17 0.500000 0.169561 0.739167
O O18 0.373333 0.000000 0.729781
#
# Coordination Sequence:
#
# PCOD9556525 Si02
#       8
#     8   4   4   8   4   4   8   8
#     4  11  22  37  53  69  91 121 159 201 242 286
#     4   9  14  20  34  56  84 116 146 183 226 272
#     4  10  16  26  40  64  95 123 141 181 228 273
#     4  11  20  30  47  72  98 125 153 187 233 288
#     4  12  20  30  50  72  94 122 152 194 238 276
#     4  10  22  38  52  66  89 121 157 193 240 299
#     4   9  15  23  36  57  88 121 154 184 218 264
#     4   9  17  27  39  58  89 129 163 184 216 269
#
# _framework density 14.724038999999999
#
# number of rings (size 3 to 8) (size 9 to 14) (size 15 to 20)
#    0.000    1.917    5.000    1.250    0.000    0.833 
#    0.000    0.000    0.000    0.000    0.000    1.167 
#    0.000    0.000    0.000    0.333    0.000    0.333 
#
# Total GULP energy -267341.286373 kJ/mol
# GULP energy per Si atom -5569.610133 kJ/mol
# Density = 1.469053 g / cm^3
# Si number density = 14.724039 Si / 1000 Ang^3
#
#
#
# Elastic Constant Matrix: (Units=GPa)
#
#
# Indices 1 2 3 4 5 6 
#
# 1 55.7381 11.6600 33.7762 0.0000 0.0000 0.0000
# 2 11.6600 55.7366 33.7757 0.0000 0.0000 0.0000
# 3 33.7762 33.7757 129.5744 0.0000 0.0000 0.0000
# 4 0.0000 0.0000 0.0000 12.2914 0.0000 0.0000
# 5 0.0000 0.0000 0.0000 0.0000 12.2917 0.0000
# 6 0.0000 0.0000 0.0000 0.0000 0.0000 12.9455
#
#
#
# Elastic Compliance Matrix: (Units=1/GPa)
#
#
# Indices 1 2 3 4 5 6 
#
# 1 0.021386 -0.001301 -0.005235 0.000000 0.000000 0.000000
# 2 -0.001301 0.021386 -0.005236 0.000000 0.000000 0.000000
# 3 -0.005235 -0.005236 0.010447 0.000000 0.000000 0.000000
# 4 0.000000 0.000000 0.000000 0.081357 0.000000 0.000000
# 5 0.000000 0.000000 0.000000 0.000000 0.081356 0.000000
# 6 0.000000 0.000000 0.000000 0.000000 0.000000 0.077247
#
#
# Mechanical properties :
#
#
# Convention : Reuss Voigt Hill
#
# Bulk Modulus (GPa) = 33.69861 44.38586 39.04224
# Shear Modulus (GPa) = 15.30850 18.29486 16.80168
#
# Velocity S-wave (km/s) = 3.22793 3.52876 3.38169
# Velocity P-wave (km/s) = 6.06870 6.84204 6.46694
#
# Compressibility (1/GPa) = 0.02967481
#
# Stress axis : x y z
#
# Youngs Moduli (GPa) = 46.75992 46.75862 95.72101
#
# Poissons Ratio (x) = 0.06085 0.50114
# Poissons Ratio (y) = 0.06085 0.50115
# Poissons Ratio (z) = 0.24481 0.24481
#
# Static dielectric constant tensor:
#      x y z
#    x 1.478630 0.000000 0.000000 
#    y 0.000000 1.478630 0.000000 
#    z 0.000000 0.000000 1.501630 
# 
# From -- ./inp_files/4880.got.cif
#   From: 2010.05.17/outbox.cif.g08.bks.cpg/sg115_3_cif.got.tgz:4880.got - 2010.05.20 11:07:42.
