data_PCOD9556897
_publ_section_title
;
Structure prediction by ZEFSAII (Michael W. Deem and Ramdas Pophale) SiO2 
 PCOD9556897
Probable space group: P -4 M 2
;
_chemical_formula_sum "Si O2"
_cell_formula_units_Z 44
_cell_length_a 9.189048
_cell_length_b 9.189048
_cell_length_c 29.589759
_cell_angle_alpha 90.000000
_cell_angle_beta 90.000000
_cell_angle_gamma 90.000000
_cell_volume 2498.517917
_symmetry_space_group_name_H-M "P -4 M 2"
_symmetry_group_IT_number 115
_symmetry_cell_setting 'tetragonal'
loop_
_space_group_symop_operation_xyz
x,y,z
y,-x,-z
-x,-y,z
-y,x,-z
y,x,-z
-y,-x,-z
-x,y,z
x,-y,z
loop_
_atom_site_type_symbol
_atom_site_label
_atom_site_fract_x
_atom_site_fract_y
_atom_site_fract_z
Si Si1 0.175015 0.171755 0.915908
Si Si2 0.327805 0.826148 0.541856
Si Si3 0.326982 0.326982 0.000000
Si Si4 0.328812 0.176184 0.275191
Si Si5 0.822988 0.669331 0.824650
Si Si6 0.825629 0.171272 0.365836
O O1 0.221944 0.235098 0.867268
O O2 0.000000 0.192779 0.920111
O O3 0.203691 0.000000 0.918702
O O4 0.254469 0.255802 0.955981
O O5 0.254340 0.745661 0.500000
O O6 0.500000 0.800806 0.542497
O O7 0.256914 0.779506 0.589412
O O8 0.302584 0.000000 0.537240
O O9 0.301301 0.500000 0.000070
O O10 0.500000 0.208572 0.279259
O O11 0.280458 0.226602 0.225242
O O12 0.244470 0.227871 0.319388
O O13 0.313944 0.000000 0.275073
O O14 0.780822 0.500000 0.830737
O O15 0.000000 0.671941 0.823800
O O16 0.000000 0.181537 0.361985
O O17 0.788390 0.000000 0.371268
#
# Coordination Sequence:
#
# PCOD9556897 Si02
#       6
#     8   8   4   8   8   8
#     4  10  20  33  52  79 106 131 163 205 252 299
#     4  10  21  36  53  73  98 129 165 206 252 301
#     4  11  24  39  54  72  96 131 172 209 248 298
#     4   8  14  25  43  69  99 130 165 202 239 283
#     4   8  14  26  45  70 101 134 165 201 246 291
#     4   9  17  29  47  71  97 125 159 202 249 294
#
# _framework density 17.610441999999999
#
# number of rings (size 3 to 8) (size 9 to 14) (size 15 to 20)
#    0.000    2.818    0.000    2.727    0.000    5.455 
#    0.000    5.455    0.000    1.091    0.000    5.091 
#    0.000    0.000    0.000    0.000    0.000    0.000 
#
# Total GULP energy -245255.429946 kJ/mol
# GULP energy per Si atom -5573.987044 kJ/mol
# Density = 1.757036 g / cm^3
# Si number density = 17.610442 Si / 1000 Ang^3
#
#
#
# Elastic Constant Matrix: (Units=GPa)
#
#
# Indices 1 2 3 4 5 6 
#
# 1 46.7253 48.2596 76.8402 0.0000 0.0000 0.0000
# 2 48.2596 46.7249 76.8407 0.0000 0.0000 0.0000
# 3 76.8402 76.8407 223.1790 0.0000 0.0000 0.0000
# 4 0.0000 0.0000 0.0000 -36.1198 0.0000 0.0000
# 5 0.0000 0.0000 0.0000 0.0000 -36.1229 0.0000
# 6 0.0000 0.0000 0.0000 0.0000 0.0000 16.1633
#
#
#
# Elastic Compliance Matrix: (Units=1/GPa)
#
#
# Indices 1 2 3 4 5 6 
#
# 1 -0.313945 0.337719 -0.008186 0.000000 0.000000 0.000000
# 2 0.337719 -0.313956 -0.008181 0.000000 0.000000 0.000000
# 3 -0.008186 -0.008181 0.010116 0.000000 0.000000 0.000000
# 4 0.000000 0.000000 0.000000 -0.027686 0.000000 0.000000
# 5 0.000000 0.000000 0.000000 0.000000 -0.027683 0.000000
# 6 0.000000 0.000000 0.000000 0.000000 0.000000 0.061869
#
#
# Mechanical properties :
#
#
# Convention : Reuss Voigt Hill
#
# Bulk Modulus (GPa) = 40.13016 80.05669 60.09342
# Shear Modulus (GPa) = -4.01387 -3.56996 -3.79191
#
# Velocity S-wave (km/s) = -1.51136 -1.42534 -1.46898
# Velocity P-wave (km/s) = 4.44877 6.54597 5.59648
#
# Compressibility (1/GPa) = 0.02491892
#
# Stress axis : x y z
#
# Youngs Moduli (GPa) = -3.18527 -3.18516 98.85480
#
# Poissons Ratio (x) = 1.07569 0.80923
# Poissons Ratio (y) = 1.07573 0.80873
# Poissons Ratio (z) = -0.02607 -0.02606
#
# Static dielectric constant tensor:
#      x y z
#    x 1.587160 0.000000 0.000000 
#    y 0.000000 1.587160 0.000000 
#    z 0.000000 0.000000 1.603630 
# 
# From -- ./inp_files/5770.got.cif
#   From: 2010.05.17/outbox.cif.g08.bks.cpg/sg115_3_cif.got.tgz:5770.got - 2010.05.20 11:07:42.
