data_PCOD9556497
_publ_section_title
;
Structure prediction by ZEFSAII (Michael W. Deem and Ramdas Pophale) SiO2 
 PCOD9556497
Probable space group: P -4 21 C
;
_chemical_formula_sum "Si O2"
_cell_formula_units_Z 16
_cell_length_a 8.847621
_cell_length_b 8.847621
_cell_length_c 6.964731
_cell_angle_alpha 90.000000
_cell_angle_beta 90.000000
_cell_angle_gamma 90.000000
_cell_volume 545.201910
_symmetry_space_group_name_H-M "P -4 21 C"
_symmetry_group_IT_number 114
_symmetry_cell_setting 'tetragonal'
loop_
_space_group_symop_operation_xyz
x,y,z
y,-x,-z
-x,-y,z
-y,x,-z
1/2+x,1/2-y,1/2-z
1/2-x,1/2+y,1/2-z
1/2-y,1/2-x,1/2+z
1/2+y,1/2+x,1/2+z
loop_
_atom_site_type_symbol
_atom_site_label
_atom_site_fract_x
_atom_site_fract_y
_atom_site_fract_z
Si Si1 0.169961 0.946259 0.743095
Si Si2 0.630245 0.884762 0.418381
O O1 0.175690 0.766794 0.715715
O O2 0.274752 0.019584 0.574256
O O3 0.239701 0.019502 0.936099
O O4 0.000000 0.000000 0.718746
O O5 0.500000 0.000000 0.344336
#
# Coordination Sequence:
#
# PCOD9556497 Si02
#       2
#     8   8
#     4  12  26  52  80 124 167 221 288 350 433 511
#     4  12  26  52  83 116 173 221 284 359 425 513
#
# _framework density 29.346924999999999
#
# number of rings (size 3 to 8) (size 9 to 14) (size 15 to 20)
#    0.000    0.000    5.000    4.500    0.000    0.000 
#    0.000    2.500    0.000    0.000    0.000    0.000 
#    0.000    0.000    0.000    0.000    0.000    0.000 
#
# Total GULP energy -89454.429560 kJ/mol
# GULP energy per Si atom -5590.901848 kJ/mol
# Density = 2.928013 g / cm^3
# Si number density = 29.346925 Si / 1000 Ang^3
#
#
#
# Elastic Constant Matrix: (Units=GPa)
#
#
# Indices 1 2 3 4 5 6 
#
# 1 272.6003 103.7809 35.9906 0.0000 0.0000 0.0000
# 2 103.7809 272.6003 35.9906 0.0000 0.0000 0.0000
# 3 35.9906 35.9906 89.1420 0.0000 0.0000 0.0000
# 4 0.0000 0.0000 0.0000 48.2575 0.0000 0.0000
# 5 0.0000 0.0000 0.0000 0.0000 48.2575 0.0000
# 6 0.0000 0.0000 0.0000 0.0000 0.0000 75.2226
#
#
#
# Elastic Compliance Matrix: (Units=1/GPa)
#
#
# Indices 1 2 3 4 5 6 
#
# 1 0.004401 -0.001522 -0.001162 0.000000 0.000000 0.000000
# 2 -0.001522 0.004401 -0.001162 0.000000 0.000000 0.000000
# 3 -0.001162 -0.001162 0.012157 0.000000 0.000000 0.000000
# 4 0.000000 0.000000 0.000000 0.020722 0.000000 0.000000
# 5 0.000000 0.000000 0.000000 0.000000 0.020722 0.000000
# 6 0.000000 0.000000 0.000000 0.000000 0.000000 0.013294
#
#
# Mechanical properties :
#
#
# Convention : Reuss Voigt Hill
#
# Bulk Modulus (GPa) = 75.38476 109.54076 92.46276
# Shear Modulus (GPa) = 56.93883 64.91954 60.92919
#
# Velocity S-wave (km/s) = 4.40955 4.70844 4.56144
# Velocity P-wave (km/s) = 7.18809 8.18330 7.70179
#
# Compressibility (1/GPa) = 0.01326528
#
# Stress axis : x y z
#
# Youngs Moduli (GPa) = 227.20337 227.20337 82.25902
#
# Poissons Ratio (x) = 0.34584 0.09562
# Poissons Ratio (y) = 0.34584 0.09562
# Poissons Ratio (z) = 0.26411 0.26411
#
# Static dielectric constant tensor:
#      x y z
#    x 2.198760 0.000000 0.000000 
#    y 0.000000 2.198760 0.000000 
#    z 0.000000 0.000000 2.560590 
# 
# From -- ./inp_files/328.got.cif
#   From: 2010.05.17/outbox.cif.g08.bks.cpg/sg114_1_cif.got.tgz:328.got - 2010.05.20 11:04:54.
