data_PCOD9556966
_publ_section_title
;
Structure prediction by ZEFSAII (Michael W. Deem and Ramdas Pophale) SiO2 
 PCOD9556966
Probable space group: P -4 M 2
;
_chemical_formula_sum "Si O2"
_cell_formula_units_Z 44
_cell_length_a 9.218552
_cell_length_b 9.218552
_cell_length_c 29.431725
_cell_angle_alpha 90.000000
_cell_angle_beta 90.000000
_cell_angle_gamma 90.000000
_cell_volume 2501.158053
_symmetry_space_group_name_H-M "P -4 M 2"
_symmetry_group_IT_number 115
_symmetry_cell_setting 'tetragonal'
loop_
_space_group_symop_operation_xyz
x,y,z
y,-x,-z
-x,-y,z
-y,x,-z
y,x,-z
-y,-x,-z
-x,y,z
x,-y,z
loop_
_atom_site_type_symbol
_atom_site_label
_atom_site_fract_x
_atom_site_fract_y
_atom_site_fract_z
Si Si1 0.671751 0.325810 0.584204
Si Si2 0.827303 0.827303 0.500000
Si Si3 0.830127 0.174559 0.949394
Si Si4 0.833963 0.323387 0.676555
Si Si5 0.676939 0.668056 0.233641
Si Si6 0.325244 0.330631 0.867188
O O1 0.500000 0.297391 0.583017
O O2 0.692104 0.500000 0.578640
O O3 0.753080 0.243139 0.544066
O O4 0.739037 0.283064 0.632834
O O5 0.000000 0.801904 0.501032
O O6 0.742079 0.243038 0.908421
O O7 0.000000 0.213043 0.944858
O O8 0.820272 0.000000 0.948094
O O9 0.779867 0.220134 0.000000
O O10 0.834168 0.500000 0.677814
O O11 0.763653 0.274114 0.723950
O O12 0.000000 0.275359 0.671727
O O13 0.500000 0.669384 0.233056
O O14 0.719874 0.500000 0.239999
O O15 0.722052 0.718896 0.183343
O O16 0.500000 0.322860 0.868341
O O17 0.284371 0.500000 0.871449
#
# Coordination Sequence:
#
# PCOD9556966 Si02
#       6
#     8   4   8   8   8   8
#     4  10  20  34  54  79 104 132 168 207 247 294
#     4  11  24  39  54  74 102 135 168 205 252 300
#     4   9  19  35  51  67  91 125 164 204 247 298
#     4   9  16  26  44  72 103 133 166 205 247 290
#     4   8  14  26  43  65  97 132 162 197 244 294
#     4   9  18  31  48  73 102 129 160 202 250 297
#
# _framework density 17.591850000000001
#
# number of rings (size 3 to 8) (size 9 to 14) (size 15 to 20)
#    0.000    2.818    0.000    3.273    0.000    7.273 
#    0.000    4.545    0.000    1.091    0.000    5.091 
#    0.000    0.000    0.000    0.000    0.000    0.000 
#
# Total GULP energy -245292.979749 kJ/mol
# GULP energy per Si atom -5574.840449 kJ/mol
# Density = 1.755181 g / cm^3
# Si number density = 17.591850 Si / 1000 Ang^3
#
#
#
# Elastic Constant Matrix: (Units=GPa)
#
#
# Indices 1 2 3 4 5 6 
#
# 1 50.3381 38.8529 66.9523 0.0000 0.0000 0.0000
# 2 38.8529 50.3381 66.9523 0.0000 0.0000 0.0000
# 3 66.9523 66.9523 196.9322 0.0000 0.0000 0.0000
# 4 0.0000 0.0000 0.0000 -44.7697 0.0000 0.0000
# 5 0.0000 0.0000 0.0000 0.0000 -44.7728 0.0000
# 6 0.0000 0.0000 0.0000 0.0000 0.0000 22.5965
#
#
#
# Elastic Compliance Matrix: (Units=1/GPa)
#
#
# Indices 1 2 3 4 5 6 
#
# 1 0.054985 -0.032084 -0.007786 0.000000 0.000000 0.000000
# 2 -0.032084 0.054985 -0.007786 0.000000 0.000000 0.000000
# 3 -0.007786 -0.007786 0.010372 0.000000 0.000000 0.000000
# 4 0.000000 0.000000 0.000000 -0.022337 0.000000 0.000000
# 5 0.000000 0.000000 0.000000 0.000000 -0.022335 0.000000
# 6 0.000000 0.000000 0.000000 0.000000 0.000000 0.044255
#
#
# Mechanical properties :
#
#
# Convention : Reuss Voigt Hill
#
# Bulk Modulus (GPa) = 39.95124 71.45816 55.70470
# Shear Modulus (GPa) = 22.36353 -5.06581 8.64886
#
# Velocity S-wave (km/s) = 3.56932 -1.69879 2.21970
# Velocity P-wave (km/s) = 6.30445 6.07127 6.18896
#
# Compressibility (1/GPa) = 0.02503051
#
# Stress axis : x y z
#
# Youngs Moduli (GPa) = 18.18691 18.18688 96.41494
#
# Poissons Ratio (x) = 0.58350 0.75066
# Poissons Ratio (y) = 0.58351 0.75066
# Poissons Ratio (z) = 0.14160 0.14160
#
# Static dielectric constant tensor:
#      x y z
#    x 1.585390 0.000000 0.000000 
#    y 0.000000 1.585390 0.000000 
#    z 0.000000 0.000000 1.596550 
# 
# From -- ./inp_files/5807.got.cif
#   From: 2010.05.17/outbox.cif.g08.bks.cpg/sg115_3_cif.got.tgz:5807.got - 2010.05.20 11:07:42.
