data_PCOD9556990
_publ_section_title
;
Structure prediction by ZEFSAII (Michael W. Deem and Ramdas Pophale) SiO2 
 PCOD9556990
Probable space group: P -4 M 2
;
_chemical_formula_sum "Si O2"
_cell_formula_units_Z 48
_cell_length_a 9.169504
_cell_length_b 9.169504
_cell_length_c 31.789968
_cell_angle_alpha 90.000000
_cell_angle_beta 90.000000
_cell_angle_gamma 90.000000
_cell_volume 2672.894266
_symmetry_space_group_name_H-M "P -4 M 2"
_symmetry_group_IT_number 115
_symmetry_cell_setting 'tetragonal'
loop_
_space_group_symop_operation_xyz
x,y,z
y,-x,-z
-x,-y,z
-y,x,-z
y,x,-z
-y,-x,-z
-x,y,z
x,-y,z
loop_
_atom_site_type_symbol
_atom_site_label
_atom_site_fract_x
_atom_site_fract_y
_atom_site_fract_z
Si Si1 0.674818 0.827614 0.211450
Si Si2 0.170934 0.824500 0.952414
Si Si3 0.329852 0.674892 0.875285
Si Si4 0.327780 0.824949 0.368526
Si Si5 0.173615 0.327022 0.290032
Si Si6 0.822541 0.168274 0.546269
O O1 0.500000 0.807707 0.216630
O O2 0.716878 0.758497 0.166626
O O3 0.756596 0.748208 0.249242
O O4 0.704814 0.000000 0.211903
O O5 0.264339 0.750621 0.916283
O O6 0.000000 0.785912 0.947143
O O7 0.181370 0.000000 0.949663
O O8 0.216262 0.783739 0.000000
O O9 0.500000 0.710882 0.870017
O O10 0.316882 0.500000 0.879895
O O11 0.500000 0.797096 0.366163
O O12 0.244834 0.743766 0.331280
O O13 0.264158 0.779758 0.413895
O O14 0.305465 0.000000 0.364208
O O15 0.201908 0.500000 0.289051
O O16 0.000000 0.303755 0.290570
O O17 0.776935 0.223066 0.500000
O O18 0.000000 0.166970 0.544717
O O19 0.775530 0.000000 0.552112
#
# Coordination Sequence:
#
# PCOD9556990 Si02
#       6
#     8   8   8   8   8   8
#     4  10  21  38  60  83 106 137 177 217 261 316
#     4   9  19  36  56  78 106 142 184 227 269 313
#     4  10  21  36  55  81 112 144 177 215 262 316
#     4  10  20  34  54  80 108 140 178 217 261 315
#     4  11  24  39  55  78 107 139 176 218 265 315
#     4   8  14  27  49  75 103 138 179 221 263 306
#
# _framework density 17.958062999999999
#
# number of rings (size 3 to 8) (size 9 to 14) (size 15 to 20)
#    0.000    2.333    0.000    3.500    0.000    8.000 
#    0.000    3.333    0.000    3.000    0.000    0.000 
#    0.000    0.000    0.000    0.000    0.000    0.000 
#
# Total GULP energy -267952.034724 kJ/mol
# GULP energy per Si atom -5582.334057 kJ/mol
# Density = 1.791719 g / cm^3
# Si number density = 17.958063 Si / 1000 Ang^3
#
#
#
# Elastic Constant Matrix: (Units=GPa)
#
#
# Indices 1 2 3 4 5 6 
#
# 1 75.6458 68.2385 89.6487 0.0000 0.0000 0.0000
# 2 68.2385 75.6458 89.6488 0.0000 0.0000 0.0000
# 3 89.6487 89.6488 204.6570 0.0000 0.0000 0.0000
# 4 0.0000 0.0000 0.0000 99.2605 0.0000 0.0000
# 5 0.0000 0.0000 0.0000 0.0000 99.2612 0.0000
# 6 0.0000 0.0000 0.0000 0.0000 0.0000 26.6477
#
#
#
# Elastic Compliance Matrix: (Units=1/GPa)
#
#
# Indices 1 2 3 4 5 6 
#
# 1 0.075153 -0.059849 -0.006704 0.000000 0.000000 0.000000
# 2 -0.059849 0.075153 -0.006704 0.000000 0.000000 0.000000
# 3 -0.006704 -0.006704 0.010759 0.000000 0.000000 0.000000
# 4 0.000000 0.000000 0.000000 0.010074 0.000000 0.000000
# 5 0.000000 0.000000 0.000000 0.000000 0.010074 0.000000
# 6 0.000000 0.000000 0.000000 0.000000 0.000000 0.037527
#
#
# Mechanical properties :
#
#
# Convention : Reuss Voigt Hill
#
# Bulk Modulus (GPa) = 68.71994 94.55783 81.63889
# Shear Modulus (GPa) = 13.50975 52.26140 32.88557
#
# Velocity S-wave (km/s) = 2.74577 5.40047 4.28394
# Velocity P-wave (km/s) = 6.95718 9.57371 8.36834
#
# Compressibility (1/GPa) = 0.01455182
#
# Stress axis : x y z
#
# Youngs Moduli (GPa) = 13.30627 13.30625 92.94366
#
# Poissons Ratio (x) = 0.79637 0.62306
# Poissons Ratio (y) = 0.79637 0.62306
# Poissons Ratio (z) = 0.08920 0.08920
#
# Static dielectric constant tensor:
#      x y z
#    x 1.596840 0.000000 0.000000 
#    y 0.000000 1.596840 0.000000 
#    z 0.000000 0.000000 1.594800 
# 
# From -- ./inp_files/6014.got.cif
#   From: 2010.05.17/outbox.cif.g08.bks.cpg/sg115_4_cif.got.tgz:6014.got - 2010.05.20 11:07:42.
