data_PCOD9556265
_publ_section_title
;
Structure prediction by ZEFSAII (Michael W. Deem and Ramdas Pophale) SiO2 
 PCOD9556265
Probable space group: P -4 21 C
;
_chemical_formula_sum "Si O2"
_cell_formula_units_Z 60
_cell_length_a 18.509230
_cell_length_b 18.509230
_cell_length_c 8.187124
_cell_angle_alpha 90.000000
_cell_angle_beta 90.000000
_cell_angle_gamma 90.000000
_cell_volume 2804.839871
_symmetry_space_group_name_H-M "P -4 21 C"
_symmetry_group_IT_number 114
_symmetry_cell_setting 'tetragonal'
loop_
_space_group_symop_operation_xyz
x,y,z
y,-x,-z
-x,-y,z
-y,x,-z
1/2+x,1/2-y,1/2-z
1/2-x,1/2+y,1/2-z
1/2-y,1/2-x,1/2+z
1/2+y,1/2+x,1/2+z
loop_
_atom_site_type_symbol
_atom_site_label
_atom_site_fract_x
_atom_site_fract_y
_atom_site_fract_z
Si Si1 0.500000 0.000000 0.563444
Si Si2 0.384340 0.651292 0.196400
Si Si3 0.135939 0.025074 0.875146
Si Si4 0.225811 0.629904 0.146160
Si Si5 0.351477 0.266665 0.229923
Si Si6 0.101522 0.237249 0.630993
Si Si7 0.992919 0.628984 0.686018
Si Si8 0.892674 0.002745 0.249020
O O1 0.573372 0.991236 0.460716
O O2 0.487824 0.926751 0.665199
O O3 0.445616 0.664231 0.330203
O O4 0.300250 0.646555 0.242030
O O5 0.400458 0.568098 0.137723
O O6 0.392709 0.710966 0.056471
O O7 0.193926 0.083998 0.822804
O O8 0.064446 0.046776 0.770803
O O9 0.115977 0.027627 0.064756
O O10 0.173363 0.696710 0.174445
O O11 0.184433 0.559048 0.203519
O O12 0.247101 0.624332 0.954958
O O13 0.284846 0.322680 0.212527
O O14 0.043110 0.181098 0.704341
O O15 0.075618 0.318888 0.655579
#
# Coordination Sequence:
#
# PCOD9556265 Si02
#       8
#     4   8   8   8   8   8   8   8
#     4  10  26  42  76  98 120 170 228 286 346 400
#     4  11  23  39  63  97 128 177 218 269 333 407
#     4  11  23  40  60  94 140 171 227 273 328 407
#     4  11  23  42  68  94 136 175 226 276 341 409
#     4  10  25  41  63  98 130 183 221 273 339 414
#     4  10  24  42  65  93 137 172 220 275 339 406
#     4  11  22  46  67 100 130 165 223 286 341 398
#     4  11  22  38  61  94 129 179 215 268 329 396
#
# _framework density 21.391594999999999
#
# number of rings (size 3 to 8) (size 9 to 14) (size 15 to 20)
#    0.000    1.333    2.667    2.000    5.600    3.200 
#    0.000    2.667    0.000    0.000    0.000    0.000 
#    0.000    0.000    0.000    0.000    0.000    0.000 
#
# Total GULP energy -335218.247421 kJ/mol
# GULP energy per Si atom -5586.970790 kJ/mol
# Density = 2.134291 g / cm^3
# Si number density = 21.391595 Si / 1000 Ang^3
#
#
#
# Elastic Constant Matrix: (Units=GPa)
#
#
# Indices 1 2 3 4 5 6 
#
# 1 86.9541 19.3000 9.0359 0.0000 0.0000 0.0000
# 2 19.3000 86.9541 9.0359 0.0000 0.0000 0.0000
# 3 9.0359 9.0359 39.4368 0.0000 0.0000 0.0000
# 4 0.0000 0.0000 0.0000 3.5403 0.0000 0.0000
# 5 0.0000 0.0000 0.0000 0.0000 3.5403 0.0000
# 6 0.0000 0.0000 0.0000 0.0000 0.0000 39.6451
#
#
#
# Elastic Compliance Matrix: (Units=1/GPa)
#
#
# Indices 1 2 3 4 5 6 
#
# 1 0.012287 -0.002494 -0.002244 0.000000 0.000000 0.000000
# 2 -0.002494 0.012287 -0.002244 0.000000 0.000000 0.000000
# 3 -0.002244 -0.002244 0.026385 0.000000 0.000000 0.000000
# 4 0.000000 0.000000 0.000000 0.282462 0.000000 0.000000
# 5 0.000000 0.000000 0.000000 0.000000 0.282462 0.000000
# 6 0.000000 0.000000 0.000000 0.000000 0.000000 0.025224
#
#
# Mechanical properties :
#
#
# Convention : Reuss Voigt Hill
#
# Bulk Modulus (GPa) = 27.02992 32.00984 29.51988
# Shear Modulus (GPa) = 7.49172 21.07669 14.28421
#
# Velocity S-wave (km/s) = 1.87344 3.14232 2.58689
# Velocity P-wave (km/s) = 4.16448 5.30677 4.76994
#
# Compressibility (1/GPa) = 0.03699604
#
# Stress axis : x y z
#
# Youngs Moduli (GPa) = 81.38649 81.38649 37.89999
#
# Poissons Ratio (x) = 0.20298 0.08504
# Poissons Ratio (y) = 0.20298 0.08504
# Poissons Ratio (z) = 0.18262 0.18262
#
# Static dielectric constant tensor:
#      x y z
#    x 1.779770 0.000000 0.000000 
#    y 0.000000 1.779770 0.000000 
#    z 0.000000 0.000000 1.782300 
# 
# From -- ./inp_files/1030.got.cif
#   From: 2010.05.17/outbox.cif.g08.bks.cpg/sg114_1_cif.got.tgz:1030.got - 2010.05.20 11:04:54.
