data_PCOD9556750
_publ_section_title
;
Structure prediction by ZEFSAII (Michael W. Deem and Ramdas Pophale) SiO2 
 PCOD9556750
Probable space group: P -4 M 2
;
_chemical_formula_sum "Si O2"
_cell_formula_units_Z 64
_cell_length_a 21.434716
_cell_length_b 21.434716
_cell_length_c 8.149064
_cell_angle_alpha 90.000000
_cell_angle_beta 90.000000
_cell_angle_gamma 90.000000
_cell_volume 3744.063415
_symmetry_space_group_name_H-M "P -4 M 2"
_symmetry_group_IT_number 115
_symmetry_cell_setting 'tetragonal'
loop_
_space_group_symop_operation_xyz
x,y,z
y,-x,-z
-x,-y,z
-y,x,-z
y,x,-z
-y,-x,-z
-x,y,z
x,-y,z
loop_
_atom_site_type_symbol
_atom_site_label
_atom_site_fract_x
_atom_site_fract_y
_atom_site_fract_z
Si Si1 0.573660 0.377485 0.672206
Si Si2 0.572945 0.858329 0.614428
Si Si3 0.430599 0.690541 0.165043
Si Si4 0.932013 0.663680 0.179861
Si Si5 0.372569 0.815059 0.284641
Si Si6 0.716229 0.185921 0.980038
Si Si7 0.430730 0.067499 0.121361
Si Si8 0.397049 0.255331 0.821014
O O1 0.590667 0.409334 0.500000
O O2 0.500000 0.383455 0.704897
O O3 0.620868 0.407534 0.803741
O O4 0.593947 0.304877 0.675934
O O5 0.500000 0.869642 0.568103
O O6 0.614228 0.916034 0.677105
O O7 0.617873 0.827200 0.476876
O O8 0.572647 0.809334 0.765634
O O9 0.500000 0.695513 0.232005
O O10 0.390485 0.743520 0.253632
O O11 0.428828 0.711415 0.976180
O O12 0.875611 0.710208 0.133266
O O13 0.000000 0.692668 0.206034
O O14 0.934220 0.620056 0.019588
O O15 0.419692 0.868688 0.217903
O O16 0.313226 0.824896 0.162877
O O17 0.671571 0.236596 0.886431
O O18 0.783465 0.216536 0.000000
O O19 0.500000 0.069606 0.049532
O O20 0.425821 0.000000 0.212987
#
# Coordination Sequence:
#
# PCOD9556750 Si02
#       8
#     8   8   8   8   8   8   8   8
#     4  12  25  39  53  68  88 111 143 198 270 336
#     4  11  20  30  47  72 104 136 167 206 253 311
#     4  11  21  35  54  67  82 111 149 195 246 308
#     4   9  19  32  47  70 103 141 174 208 249 300
#     4  10  20  32  49  74  99 125 164 214 260 301
#     4   9  18  35  57  77  97 127 172 219 261 307
#     4   9  16  28  46  68  97 133 170 204 241 294
#     4  10  21  36  52  71  91 116 155 201 252 312
#
# _framework density 17.093729
#
# number of rings (size 3 to 8) (size 9 to 14) (size 15 to 20)
#    0.000    1.875    0.000    6.375    0.000    2.125 
#    0.000    2.500    0.000    3.000    0.000    0.000 
#    0.000    0.250    0.000    0.000    0.000    0.375 
#
# Total GULP energy -356271.448441 kJ/mol
# GULP energy per Si atom -5566.741382 kJ/mol
# Density = 1.705482 g / cm^3
# Si number density = 17.093729 Si / 1000 Ang^3
#
#
#
# Elastic Constant Matrix: (Units=GPa)
#
#
# Indices 1 2 3 4 5 6 
#
# 1 77.7333 25.1117 20.5796 0.0000 0.0000 0.0000
# 2 25.1117 77.7349 20.5795 0.0000 0.0000 0.0000
# 3 20.5796 20.5795 52.4101 0.0000 0.0000 0.0000
# 4 0.0000 0.0000 0.0000 13.5491 0.0000 0.0000
# 5 0.0000 0.0000 0.0000 0.0000 13.5490 0.0000
# 6 0.0000 0.0000 0.0000 0.0000 0.0000 19.1747
#
#
#
# Elastic Compliance Matrix: (Units=1/GPa)
#
#
# Indices 1 2 3 4 5 6 
#
# 1 0.015270 -0.003734 -0.004530 0.000000 0.000000 0.000000
# 2 -0.003734 0.015270 -0.004530 0.000000 0.000000 0.000000
# 3 -0.004530 -0.004530 0.022638 0.000000 0.000000 0.000000
# 4 0.000000 0.000000 0.000000 0.073806 0.000000 0.000000
# 5 0.000000 0.000000 0.000000 0.000000 0.073806 0.000000
# 6 0.000000 0.000000 0.000000 0.000000 0.000000 0.052152
#
#
# Mechanical properties :
#
#
# Convention : Reuss Voigt Hill
#
# Bulk Modulus (GPa) = 36.24414 37.82443 37.03429
# Shear Modulus (GPa) = 17.37775 18.69507 18.03641
#
# Velocity S-wave (km/s) = 3.19190 3.31067 3.25183
# Velocity P-wave (km/s) = 5.90199 6.06546 5.98428
#
# Compressibility (1/GPa) = 0.02759067
#
# Stress axis : x y z
#
# Youngs Moduli (GPa) = 65.48826 65.48988 44.17414
#
# Poissons Ratio (x) = 0.24451 0.20011
# Poissons Ratio (y) = 0.24451 0.20010
# Poissons Ratio (z) = 0.29666 0.29665
#
# Static dielectric constant tensor:
#      x y z
#    x 1.609400 0.000000 0.000000 
#    y 0.000000 1.609400 0.000000 
#    z 0.000000 0.000000 1.672730 
# 
# From -- ./inp_files/2170.got.cif
#   From: 2010.05.17/outbox.cif.g08.bks.cpg/sg115_2_cif.got.tgz:2170.got - 2010.05.20 11:07:42.
