data_PCOD9556455
_publ_section_title
;
Structure prediction by ZEFSAII (Michael W. Deem and Ramdas Pophale) SiO2 
 PCOD9556455
Probable space group: P -4 21 C
;
_chemical_formula_sum "Si O2"
_cell_formula_units_Z 34
_cell_length_a 9.125597
_cell_length_b 9.125597
_cell_length_c 18.490714
_cell_angle_alpha 90.000000
_cell_angle_beta 90.000000
_cell_angle_gamma 90.000000
_cell_volume 1539.842325
_symmetry_space_group_name_H-M "P -4 21 C"
_symmetry_group_IT_number 114
_symmetry_cell_setting 'tetragonal'
loop_
_space_group_symop_operation_xyz
x,y,z
y,-x,-z
-x,-y,z
-y,x,-z
1/2+x,1/2-y,1/2-z
1/2-x,1/2+y,1/2-z
1/2-y,1/2-x,1/2+z
1/2+y,1/2+x,1/2+z
loop_
_atom_site_type_symbol
_atom_site_label
_atom_site_fract_x
_atom_site_fract_y
_atom_site_fract_z
Si Si1 0.634721 0.303705 0.492452
Si Si2 0.327198 0.025635 0.279904
Si Si3 0.201752 0.855527 0.607869
Si Si4 0.238449 0.685928 0.845155
Si Si5 0.500000 0.500000 0.000000
O O1 0.462353 0.313391 0.478874
O O2 0.665806 0.192305 0.557145
O O3 0.725760 0.267842 0.420342
O O4 0.262411 0.147601 0.334523
O O5 0.296615 0.089513 0.200371
O O6 0.500000 0.000000 0.289169
O O7 0.246466 0.874735 0.298748
O O8 0.067500 0.877827 0.551643
O O9 0.233661 0.013610 0.641882
#
# Coordination Sequence:
#
# PCOD9556455 Si02
#       5
#     8   8   8   8   2
#     4  11  27  48  75 107 147 191 247 315 379 448
#     4  12  27  46  71 110 149 199 243 303 377 444
#     4  12  23  47  77 106 145 191 250 305 367 439
#     4  12  27  48  75 110 148 196 249 312 367 454
#     4  12  20  44  72 104 136 188 242 296 360 408
#
# _framework density 22.080182000000001
#
# number of rings (size 3 to 8) (size 9 to 14) (size 15 to 20)
#    0.000    0.235    4.706    2.824    6.588    0.000 
#    4.235    0.000    0.000    0.000    0.000    0.000 
#    0.000    0.000    0.000    0.000    0.000    0.000 
#
# Total GULP energy -190400.883851 kJ/mol
# GULP energy per Si atom -5600.025996 kJ/mol
# Density = 2.202993 g / cm^3
# Si number density = 22.080182 Si / 1000 Ang^3
#
#
#
# Elastic Constant Matrix: (Units=GPa)
#
#
# Indices 1 2 3 4 5 6 
#
# 1 101.9163 41.7063 50.8348 0.0000 0.0000 0.0000
# 2 41.7063 101.9163 50.8348 0.0000 0.0000 0.0000
# 3 50.8348 50.8348 119.9955 0.0000 0.0000 0.0000
# 4 0.0000 0.0000 0.0000 26.4669 0.0000 0.0000
# 5 0.0000 0.0000 0.0000 0.0000 26.4669 0.0000
# 6 0.0000 0.0000 0.0000 0.0000 0.0000 34.5175
#
#
#
# Elastic Compliance Matrix: (Units=1/GPa)
#
#
# Indices 1 2 3 4 5 6 
#
# 1 0.013277 -0.003332 -0.004213 0.000000 0.000000 0.000000
# 2 -0.003332 0.013277 -0.004213 0.000000 0.000000 0.000000
# 3 -0.004213 -0.004213 0.011903 0.000000 0.000000 0.000000
# 4 0.000000 0.000000 0.000000 0.037783 0.000000 0.000000
# 5 0.000000 0.000000 0.000000 0.000000 0.037783 0.000000
# 6 0.000000 0.000000 0.000000 0.000000 0.000000 0.028971
#
#
# Mechanical properties :
#
#
# Convention : Reuss Voigt Hill
#
# Bulk Modulus (GPa) = 66.92973 67.84224 67.38598
# Shear Modulus (GPa) = 29.15614 29.52039 29.33827
#
# Velocity S-wave (km/s) = 3.63776 3.66042 3.64911
# Velocity P-wave (km/s) = 6.92982 6.97546 6.95267
#
# Compressibility (1/GPa) = 0.01494104
#
# Stress axis : x y z
#
# Youngs Moduli (GPa) = 75.31910 75.31910 84.00976
#
# Poissons Ratio (x) = 0.25094 0.35395
# Poissons Ratio (y) = 0.25094 0.35395
# Poissons Ratio (z) = 0.31733 0.31733
#
# Static dielectric constant tensor:
#      x y z
#    x 1.807450 0.000000 0.000000 
#    y 0.000000 1.807450 0.000000 
#    z 0.000000 0.000000 1.795680 
# 
# From -- ./inp_files/2950.got.cif
#   From: 2010.05.17/outbox.cif.g08.bks.cpg/sg114_2_cif.got.tgz:2950.got - 2010.05.20 11:04:54.
