data_PCOD9556518
_publ_section_title
;
Structure prediction by ZEFSAII (Michael W. Deem and Ramdas Pophale) SiO2 
 PCOD9556518
Probable space group: P -4 21 C
;
_chemical_formula_sum "Si O2"
_cell_formula_units_Z 56
_cell_length_a 15.000000
_cell_length_b 15.000000
_cell_length_c 12.000000
_cell_angle_alpha 90.000000
_cell_angle_beta 90.000000
_cell_angle_gamma 90.000000
_cell_volume 2700.000000
_symmetry_space_group_name_H-M "P -4 21 C"
_symmetry_group_IT_number 114
_symmetry_cell_setting 'tetragonal'
loop_
_space_group_symop_operation_xyz
x,y,z
y,-x,-z
-x,-y,z
-y,x,-z
1/2+x,1/2-y,1/2-z
1/2-x,1/2+y,1/2-z
1/2-y,1/2-x,1/2+z
1/2+y,1/2+x,1/2+z
loop_
_atom_site_type_symbol
_atom_site_label
_atom_site_fract_x
_atom_site_fract_y
_atom_site_fract_z
Si Si1 0.658267 0.205326 0.295218
Si Si2 0.225951 0.491016 0.165685
Si Si3 0.644287 0.515990 0.972838
Si Si4 0.814531 0.298298 0.172689
Si Si5 0.838747 0.176083 0.976492
Si Si6 0.863761 0.028865 0.139728
Si Si7 0.521915 0.689436 0.271243
O O1 0.718479 0.250095 0.195823
O O2 0.702415 0.257463 0.398323
O O3 0.556939 0.242894 0.308128
O O4 0.667864 0.097803 0.303364
O O5 0.264031 0.481130 0.040977
O O6 0.190871 0.593751 0.181809
O O7 0.312926 0.480995 0.244295
O O8 0.594894 0.422518 0.995509
O O9 0.655230 0.518832 0.842311
O O10 0.852804 0.262291 0.054246
O O11 0.888575 0.247857 0.248864
O O12 0.811594 0.092600 0.053872
O O13 0.928911 0.141696 0.912922
O O14 0.902684 0.948467 0.837490
#
# Coordination Sequence:
#
# PCOD9556518 Si02
#       7
#     8   8   8   8   8   8   8
#     4  12  25  44  73 102 145 190 244 302 370 438
#     4  12  25  43  69 103 144 187 235 297 356 443
#     4  11  23  39  69 105 140 181 233 296 366 421
#     4  11  25  46  69 101 147 188 243 296 368 439
#     4  11  24  42  73 102 136 193 239 306 373 431
#     4  11  23  46  67 102 142 180 249 300 359 429
#     4  11  25  45  69 105 142 188 240 301 365 437
#
# _framework density 20.740741
#
# number of rings (size 3 to 8) (size 9 to 14) (size 15 to 20)
#    0.000    0.714    5.714    2.571    6.000    2.571 
#    0.000    0.000    0.000    1.714    0.000    0.000 
#    0.000    0.000    0.000    0.000    0.000    0.000 
#
# Total GULP energy -311962.118085 kJ/mol
# GULP energy per Si atom -5570.752109 kJ/mol
# Density = 2.069353 g / cm^3
# Si number density = 20.740741 Si / 1000 Ang^3
#
#
#
# Elastic Constant Matrix: (Units=GPa)
#
#
# Indices 1 2 3 4 5 6 
#
# 1 127.9433 30.2285 -6.0745 0.0000 0.0000 0.0000
# 2 30.2285 127.9433 -6.0745 0.0000 0.0000 0.0000
# 3 -6.0745 -6.0745 33.8570 0.0000 0.0000 0.0000
# 4 0.0000 0.0000 0.0000 30.3811 0.0000 0.0000
# 5 0.0000 0.0000 0.0000 0.0000 30.3811 0.0000
# 6 0.0000 0.0000 0.0000 0.0000 0.0000 34.5751
#
#
#
# Elastic Compliance Matrix: (Units=1/GPa)
#
#
# Indices 1 2 3 4 5 6 
#
# 1 0.008322 -0.001912 0.001150 0.000000 0.000000 0.000000
# 2 -0.001912 0.008322 0.001150 0.000000 0.000000 0.000000
# 3 0.001150 0.001150 0.029949 0.000000 0.000000 0.000000
# 4 0.000000 0.000000 0.000000 0.032915 0.000000 0.000000
# 5 0.000000 0.000000 0.000000 0.000000 0.032915 0.000000
# 6 0.000000 0.000000 0.000000 0.000000 0.000000 0.028923
#
#
# Mechanical properties :
#
#
# Convention : Reuss Voigt Hill
#
# Bulk Modulus (GPa) = 21.11018 36.21140 28.66079
# Shear Modulus (GPa) = 31.97774 37.17842 34.57808
#
# Velocity S-wave (km/s) = 3.93082 4.23842 4.08751
# Velocity P-wave (km/s) = 5.54995 6.43811 6.01046
#
# Compressibility (1/GPa) = 0.04737052
#
# Stress axis : x y z
#
# Youngs Moduli (GPa) = 120.16018 120.16018 33.39044
#
# Poissons Ratio (x) = 0.22970 -0.03840
# Poissons Ratio (y) = 0.22970 -0.03840
# Poissons Ratio (z) = -0.13820 -0.13820
#
# Static dielectric constant tensor:
#      x y z
#    x 1.763740 0.000000 0.000000 
#    y 0.000000 1.763740 0.000000 
#    z 0.000000 0.000000 1.857700 
# 
# From -- ./inp_files/1765.got.cif
#   From: 2010.05.17/outbox.ucp.g08.bks.cvg/sg114_1_cif.got.tgz:1765.got - 2010.06.11 11:33:27.
