data_PCOD9556374
_publ_section_title
;
Structure prediction by ZEFSAII (Michael W. Deem and Ramdas Pophale) SiO2 
 PCOD9556374
Probable space group: P -4 21 C
;
_chemical_formula_sum "Si O2"
_cell_formula_units_Z 36
_cell_length_a 9.297155
_cell_length_b 9.297155
_cell_length_c 20.261937
_cell_angle_alpha 90.000000
_cell_angle_beta 90.000000
_cell_angle_gamma 90.000000
_cell_volume 1751.382894
_symmetry_space_group_name_H-M "P -4 21 C"
_symmetry_group_IT_number 114
_symmetry_cell_setting 'tetragonal'
loop_
_space_group_symop_operation_xyz
x,y,z
y,-x,-z
-x,-y,z
-y,x,-z
1/2+x,1/2-y,1/2-z
1/2-x,1/2+y,1/2-z
1/2-y,1/2-x,1/2+z
1/2+y,1/2+x,1/2+z
loop_
_atom_site_type_symbol
_atom_site_label
_atom_site_fract_x
_atom_site_fract_y
_atom_site_fract_z
Si Si1 0.500000 0.500000 0.722806
Si Si2 0.745806 0.482238 0.831043
Si Si3 0.204688 0.480599 0.352166
Si Si4 0.714175 0.567051 0.493757
Si Si5 0.118281 0.161414 0.537353
O O1 0.638245 0.493406 0.770460
O O2 0.494268 0.638794 0.677256
O O3 0.823649 0.635213 0.842026
O O4 0.661193 0.414999 0.894001
O O5 0.886621 0.382937 0.821389
O O6 0.203650 0.497105 0.431116
O O7 0.653174 0.428025 0.531421
O O8 0.810333 0.682314 0.531645
O O9 0.948588 0.172607 0.520299
#
# Coordination Sequence:
#
# PCOD9556374 Si02
#       5
#     4   8   8   8   8
#     4  12  24  44  70  92 128 184 232 270 332 408
#     4  11  24  43  66  95 134 173 219 280 336 394
#     4  11  24  43  66  95 134 173 219 280 336 394
#     4  11  22  39  65  97 131 170 216 270 337 400
#     4  11  22  39  65  97 131 170 216 270 337 400
#
# _framework density 20.555185000000002
#
# number of rings (size 3 to 8) (size 9 to 14) (size 15 to 20)
#    0.000    0.889    4.444    4.000    0.000    0.889 
#    0.000    0.000    0.000    0.000    0.000    0.000 
#    0.000    0.000    0.000    0.000    0.000    0.000 
#
# Total GULP energy -200957.553303 kJ/mol
# GULP energy per Si atom -5582.154258 kJ/mol
# Density = 2.050840 g / cm^3
# Si number density = 20.555185 Si / 1000 Ang^3
#
#
#
# Elastic Constant Matrix: (Units=GPa)
#
#
# Indices 1 2 3 4 5 6 
#
# 1 63.8949 -11.4879 2.3197 0.0000 0.0000 0.0000
# 2 -11.4879 63.8949 2.3197 0.0000 0.0000 0.0000
# 3 2.3197 2.3197 45.4030 0.0000 0.0000 0.0000
# 4 0.0000 0.0000 0.0000 8.6881 0.0000 0.0000
# 5 0.0000 0.0000 0.0000 0.0000 8.6881 0.0000
# 6 0.0000 0.0000 0.0000 0.0000 0.0000 35.9204
#
#
#
# Elastic Compliance Matrix: (Units=1/GPa)
#
#
# Indices 1 2 3 4 5 6 
#
# 1 0.016217 0.002951 -0.000979 0.000000 0.000000 0.000000
# 2 0.002951 0.016217 -0.000979 0.000000 0.000000 0.000000
# 3 -0.000979 -0.000979 0.022125 0.000000 0.000000 0.000000
# 4 0.000000 0.000000 0.000000 0.115099 0.000000 0.000000
# 5 0.000000 0.000000 0.000000 0.000000 0.115099 0.000000
# 6 0.000000 0.000000 0.000000 0.000000 0.000000 0.027839
#
#
# Mechanical properties :
#
#
# Convention : Reuss Voigt Hill
#
# Bulk Modulus (GPa) = 17.68534 17.72175 17.70355
# Shear Modulus (GPa) = 15.17636 22.66209 18.91922
#
# Velocity S-wave (km/s) = 2.72016 3.32399 3.03712
# Velocity P-wave (km/s) = 4.29979 4.83448 4.57495
#
# Compressibility (1/GPa) = 0.05654400
#
# Stress axis : x y z
#
# Youngs Moduli (GPa) = 61.66420 61.66420 45.19767
#
# Poissons Ratio (x) = -0.18199 0.04426
# Poissons Ratio (y) = -0.18199 0.04426
# Poissons Ratio (z) = 0.06039 0.06039
#
# Static dielectric constant tensor:
#      x y z
#    x 1.787940 0.000000 0.000000 
#    y 0.000000 1.787940 0.000000 
#    z 0.000000 0.000000 1.740830 
# 
# From -- ./inp_files/2975.got.cif
#   From: 2010.05.17/outbox.cif.g08.bks.cpg/sg114_2_cif.got.tgz:2975.got - 2010.05.20 11:04:54.
