data_PCOD9556520
_publ_section_title
;
Structure prediction by ZEFSAII (Michael W. Deem and Ramdas Pophale) SiO2 
 PCOD9556520
Probable space group: P -4 21 C
;
_chemical_formula_sum "Si O2"
_cell_formula_units_Z 48
_cell_length_a 9.000000
_cell_length_b 9.000000
_cell_length_c 30.000000
_cell_angle_alpha 90.000000
_cell_angle_beta 90.000000
_cell_angle_gamma 90.000000
_cell_volume 2430.000000
_symmetry_space_group_name_H-M "P -4 21 C"
_symmetry_group_IT_number 114
_symmetry_cell_setting 'tetragonal'
loop_
_space_group_symop_operation_xyz
x,y,z
y,-x,-z
-x,-y,z
-y,x,-z
1/2+x,1/2-y,1/2-z
1/2-x,1/2+y,1/2-z
1/2-y,1/2-x,1/2+z
1/2+y,1/2+x,1/2+z
loop_
_atom_site_type_symbol
_atom_site_label
_atom_site_fract_x
_atom_site_fract_y
_atom_site_fract_z
Si Si1 0.215757 0.172240 0.554869
Si Si2 0.663121 0.926561 0.289181
Si Si3 0.037701 0.676672 0.607514
Si Si4 0.165521 0.933416 0.203700
Si Si5 0.273010 0.817591 0.547980
Si Si6 0.481134 0.320675 0.601112
O O1 0.221086 0.227042 0.503022
O O2 0.315276 0.267957 0.589551
O O3 0.057059 0.215291 0.575481
O O4 0.245255 0.994409 0.555206
O O5 0.716853 0.969193 0.339749
O O6 0.662667 0.745748 0.289376
O O7 0.500000 0.000000 0.286183
O O8 0.749303 0.990453 0.245718
O O9 0.195876 0.711782 0.585358
O O10 0.000000 0.500000 0.603316
O O11 0.219312 0.972394 0.152619
O O12 0.000000 0.000000 0.205163
O O13 0.439407 0.773047 0.561355
O O14 0.500000 0.500000 0.596490
#
# Coordination Sequence:
#
# PCOD9556520 Si02
#       6
#     8   8   8   8   8   8
#     4  12  27  41  72 100 143 188 234 298 348 420
#     4  11  25  46  74 104 139 185 231 288 357 423
#     4  11  25  45  71  98 141 187 231 281 356 415
#     4  11  25  47  73 104 140 181 233 293 352 426
#     4  12  25  46  65 104 140 185 239 289 353 415
#     4  11  27  47  71 102 141 182 240 287 352 425
#
# _framework density 19.753086
#
# number of rings (size 3 to 8) (size 9 to 14) (size 15 to 20)
#    0.000    0.667    3.333    3.000   14.000    2.667 
#    0.000    0.000    0.000    0.000    0.000    0.000 
#    0.000    0.000    0.000    0.000    0.000    0.000 
#
# Total GULP energy -267680.476203 kJ/mol
# GULP energy per Si atom -5576.676588 kJ/mol
# Density = 1.970813 g / cm^3
# Si number density = 19.753086 Si / 1000 Ang^3
#
#
#
# Elastic Constant Matrix: (Units=GPa)
#
#
# Indices 1 2 3 4 5 6 
#
# 1 63.2140 -5.4384 29.8927 0.0000 0.0000 0.0000
# 2 -5.4384 63.2140 29.8927 0.0000 0.0000 0.0000
# 3 29.8927 29.8927 181.5783 0.0000 0.0000 0.0000
# 4 0.0000 0.0000 0.0000 43.8526 0.0000 0.0000
# 5 0.0000 0.0000 0.0000 0.0000 43.8526 0.0000
# 6 0.0000 0.0000 0.0000 0.0000 0.0000 40.2010
#
#
#
# Elastic Compliance Matrix: (Units=1/GPa)
#
#
# Indices 1 2 3 4 5 6 
#
# 1 0.017714 0.003148 -0.003435 0.000000 0.000000 0.000000
# 2 0.003148 0.017714 -0.003435 0.000000 0.000000 0.000000
# 3 -0.003435 -0.003435 0.006638 0.000000 0.000000 0.000000
# 4 0.000000 0.000000 0.000000 0.022804 0.000000 0.000000
# 5 0.000000 0.000000 0.000000 0.000000 0.022804 0.000000
# 6 0.000000 0.000000 0.000000 0.000000 0.000000 0.024875
#
#
# Mechanical properties :
#
#
# Convention : Reuss Voigt Hill
#
# Bulk Modulus (GPa) = 28.88111 46.30006 37.59059
# Shear Modulus (GPa) = 38.01350 42.49188 40.25269
#
# Velocity S-wave (km/s) = 4.39160 4.64308 4.51909
# Velocity P-wave (km/s) = 6.35355 7.22735 6.80449
#
# Compressibility (1/GPa) = 0.03462470
#
# Stress axis : x y z
#
# Youngs Moduli (GPa) = 56.45182 56.45182 150.64568
#
# Poissons Ratio (x) = -0.17772 0.51739
# Poissons Ratio (y) = -0.17772 0.51739
# Poissons Ratio (z) = 0.19388 0.19388
#
# Static dielectric constant tensor:
#      x y z
#    x 1.695230 0.000000 0.000000 
#    y 0.000000 1.695230 0.000000 
#    z 0.000000 0.000000 1.657430 
# 
# From -- ./inp_files/3968.got.cif
#   From: 2010.05.17/outbox.ucp.g08.bks.cvg/sg114_2_cif.got.tgz:3968.got - 2010.06.11 11:33:27.
