data_PCOD9556115
_publ_section_title
;
Structure prediction by ZEFSAII (Michael W. Deem and Ramdas Pophale) SiO2 
 PCOD9556115
Probable space group: P -4 21 C
;
_chemical_formula_sum "Si O2"
_cell_formula_units_Z 48
_cell_length_a 12.879624
_cell_length_b 12.879624
_cell_length_c 12.625474
_cell_angle_alpha 90.000000
_cell_angle_beta 90.000000
_cell_angle_gamma 90.000000
_cell_volume 2094.373148
_symmetry_space_group_name_H-M "P -4 21 C"
_symmetry_group_IT_number 114
_symmetry_cell_setting 'tetragonal'
loop_
_space_group_symop_operation_xyz
x,y,z
y,-x,-z
-x,-y,z
-y,x,-z
1/2+x,1/2-y,1/2-z
1/2-x,1/2+y,1/2-z
1/2-y,1/2-x,1/2+z
1/2+y,1/2+x,1/2+z
loop_
_atom_site_type_symbol
_atom_site_label
_atom_site_fract_x
_atom_site_fract_y
_atom_site_fract_z
Si Si1 0.999698 0.725428 0.928687
Si Si2 0.324040 0.383916 0.628173
Si Si3 0.347856 0.874085 0.705215
Si Si4 0.500000 0.500000 0.755556
Si Si5 0.000000 0.500000 0.154815
Si Si6 0.625616 0.426214 0.942730
Si Si7 0.456543 0.147304 0.032738
O O1 0.098770 0.799205 0.919865
O O2 0.052110 0.611955 0.924558
O O3 0.919851 0.721915 0.830419
O O4 0.938834 0.757123 0.035581
O O5 0.250097 0.343961 0.723179
O O6 0.407206 0.459639 0.683099
O O7 0.405119 0.962332 0.774545
O O8 0.332091 0.937092 0.595817
O O9 0.561961 0.420432 0.833455
O O10 0.897248 0.477132 0.084396
O O11 0.744430 0.394368 0.954352
O O12 0.548994 0.375942 0.027892
#
# Coordination Sequence:
#
# PCOD9556115 Si02
#       7
#     8   8   8   4   4   8   8
#     4  12  27  47  72 112 146 196 264 322 384 476
#     4  12  26  48  75 108 154 199 255 324 393 469
#     4  12  24  48  71 106 147 201 253 317 396 466
#     4  10  21  45  72  96 148 198 228 314 394 444
#     4  12  22  44  76 102 152 196 244 338 374 452
#     4   9  22  42  67 108 148 189 245 315 380 464
#     4  12  22  44  72 102 145 191 252 307 378 459
#
# _framework density 22.918552999999999
#
# number of rings (size 3 to 8) (size 9 to 14) (size 15 to 20)
#    0.000    0.833    6.667    1.000    0.000    6.667 
#    6.000    0.000    0.000    0.000    0.000    0.000 
#    0.000    0.000    0.000    0.000    0.000    0.000 
#
# Total GULP energy -267684.284155 kJ/mol
# GULP energy per Si atom -5576.755920 kJ/mol
# Density = 2.286639 g / cm^3
# Si number density = 22.918553 Si / 1000 Ang^3
#
#
#
# Elastic Constant Matrix: (Units=GPa)
#
#
# Indices 1 2 3 4 5 6 
#
# 1 106.0395 17.6348 45.4990 0.0000 0.0000 0.0000
# 2 17.6348 106.0395 45.4990 0.0000 0.0000 0.0000
# 3 45.4990 45.4990 86.5821 0.0000 0.0000 0.0000
# 4 0.0000 0.0000 0.0000 74.6911 0.0000 0.0000
# 5 0.0000 0.0000 0.0000 0.0000 74.6911 0.0000
# 6 0.0000 0.0000 0.0000 0.0000 0.0000 27.1785
#
#
#
# Elastic Compliance Matrix: (Units=1/GPa)
#
#
# Indices 1 2 3 4 5 6 
#
# 1 0.012247 0.000936 -0.006928 0.000000 0.000000 0.000000
# 2 0.000936 0.012247 -0.006928 0.000000 0.000000 0.000000
# 3 -0.006928 -0.006928 0.018831 0.000000 0.000000 0.000000
# 4 0.000000 0.000000 0.000000 0.013388 0.000000 0.000000
# 5 0.000000 0.000000 0.000000 0.000000 0.013388 0.000000
# 6 0.000000 0.000000 0.000000 0.000000 0.000000 0.036794
#
#
# Mechanical properties :
#
#
# Convention : Reuss Voigt Hill
#
# Bulk Modulus (GPa) = 57.18844 57.32519 57.25682
# Shear Modulus (GPa) = 36.08432 47.98071 42.03252
#
# Velocity S-wave (km/s) = 3.97225 4.58048 4.28716
# Velocity P-wave (km/s) = 6.78568 7.28294 7.03870
#
# Compressibility (1/GPa) = 0.01748605
#
# Stress axis : x y z
#
# Youngs Moduli (GPa) = 81.65033 81.65033 53.10450
#
# Poissons Ratio (x) = -0.07640 0.36789
# Poissons Ratio (y) = -0.07640 0.36789
# Poissons Ratio (z) = 0.56565 0.56565
#
# Static dielectric constant tensor:
#      x y z
#    x 1.510840 0.000000 0.000000 
#    y 0.000000 1.510840 0.000000 
#    z 0.000000 0.000000 1.957080 
# 
# From -- ./inp_files/1703.got.cif
#   From: 2010.05.17/outbox.cif.g08.bks.cpg/sg114_1_cif.got.tgz:1703.got - 2010.05.20 11:04:54.
