data_PCOD9556880
_publ_section_title
;
Structure prediction by ZEFSAII (Michael W. Deem and Ramdas Pophale) SiO2 
 PCOD9556880
Probable space group: P -4 M 2
;
_chemical_formula_sum "Si O2"
_cell_formula_units_Z 48
_cell_length_a 9.203895
_cell_length_b 9.203895
_cell_length_c 31.656714
_cell_angle_alpha 90.000000
_cell_angle_beta 90.000000
_cell_angle_gamma 90.000000
_cell_volume 2681.693527
_symmetry_space_group_name_H-M "P -4 M 2"
_symmetry_group_IT_number 115
_symmetry_cell_setting 'tetragonal'
loop_
_space_group_symop_operation_xyz
x,y,z
y,-x,-z
-x,-y,z
-y,x,-z
y,x,-z
-y,-x,-z
-x,y,z
x,-y,z
loop_
_atom_site_type_symbol
_atom_site_label
_atom_site_fract_x
_atom_site_fract_y
_atom_site_fract_z
Si Si1 0.325938 0.328640 0.703432
Si Si2 0.176896 0.167736 0.953440
Si Si3 0.171113 0.826823 0.374610
Si Si4 0.327007 0.327839 0.548837
Si Si5 0.669694 0.824747 0.131431
Si Si6 0.674281 0.829459 0.790827
O O1 0.500000 0.311590 0.697728
O O2 0.294296 0.500000 0.705434
O O3 0.245013 0.254961 0.664478
O O4 0.285587 0.251520 0.747406
O O5 0.221377 0.263474 0.913648
O O6 0.000000 0.166783 0.954716
O O7 0.223330 0.000000 0.947587
O O8 0.221757 0.221757 0.000000
O O9 0.235531 0.761431 0.417659
O O10 0.000000 0.794108 0.371393
O O11 0.190285 0.000000 0.373968
O O12 0.292723 0.292723 0.500000
O O13 0.500000 0.305451 0.554797
O O14 0.299418 0.500000 0.555135
O O15 0.500000 0.787310 0.134041
O O16 0.756976 0.752931 0.169568
O O17 0.682967 0.000000 0.134064
O O18 0.500000 0.815398 0.795896
O O19 0.709449 0.000000 0.787953
#
# Coordination Sequence:
#
# PCOD9556880 Si02
#       6
#     8   8   8   8   8   8
#     4  10  21  38  60  82 104 135 176 220 266 317
#     4   8  14  27  48  71  96 131 175 219 260 303
#     4  11  24  38  53  79 114 147 179 218 264 313
#     4   9  19  37  60  84 109 140 181 225 267 315
#     4  10  20  33  51  77 108 141 175 212 259 314
#     4  10  21  37  57  80 105 136 175 217 263 315
#
# _framework density 17.899138000000001
#
# number of rings (size 3 to 8) (size 9 to 14) (size 15 to 20)
#    0.000    2.333    0.000    3.500    0.000    8.000 
#    0.000    3.333    0.000    3.000    0.000    0.000 
#    0.000    0.000    0.000    0.000    0.000    0.000 
#
# Total GULP energy -267964.933502 kJ/mol
# GULP energy per Si atom -5582.602781 kJ/mol
# Density = 1.785840 g / cm^3
# Si number density = 17.899138 Si / 1000 Ang^3
#
#
#
# Elastic Constant Matrix: (Units=GPa)
#
#
# Indices 1 2 3 4 5 6 
#
# 1 84.6316 66.6305 92.6767 0.0000 0.0000 0.0000
# 2 66.6305 84.6316 92.6767 0.0000 0.0000 0.0000
# 3 92.6767 92.6767 183.0993 0.0000 0.0000 0.0000
# 4 0.0000 0.0000 0.0000 35.6031 0.0000 0.0000
# 5 0.0000 0.0000 0.0000 0.0000 35.6031 0.0000
# 6 0.0000 0.0000 0.0000 0.0000 0.0000 27.3954
#
#
#
# Elastic Compliance Matrix: (Units=1/GPa)
#
#
# Indices 1 2 3 4 5 6 
#
# 1 0.036480 -0.019072 -0.008811 0.000000 0.000000 0.000000
# 2 -0.019072 0.036480 -0.008811 0.000000 0.000000 0.000000
# 3 -0.008811 -0.008811 0.014381 0.000000 0.000000 0.000000
# 4 0.000000 0.000000 0.000000 0.028087 0.000000 0.000000
# 5 0.000000 0.000000 0.000000 0.000000 0.028087 0.000000
# 6 0.000000 0.000000 0.000000 0.000000 0.000000 0.036502
#
#
# Mechanical properties :
#
#
# Convention : Reuss Voigt Hill
#
# Bulk Modulus (GPa) = 71.67128 95.14779 83.40954
# Shear Modulus (GPa) = 19.37544 26.41225 22.89384
#
# Velocity S-wave (km/s) = 3.29367 3.84554 3.58026
# Velocity P-wave (km/s) = 7.38871 8.54346 7.98698
#
# Compressibility (1/GPa) = 0.01395259
#
# Stress axis : x y z
#
# Youngs Moduli (GPa) = 27.41215 27.41215 69.53529
#
# Poissons Ratio (x) = 0.52281 0.61269
# Poissons Ratio (y) = 0.52281 0.61269
# Poissons Ratio (z) = 0.24153 0.24153
#
# Static dielectric constant tensor:
#      x y z
#    x 1.596080 0.000000 0.000000 
#    y 0.000000 1.596080 0.000000 
#    z 0.000000 0.000000 1.590780 
# 
# From -- ./inp_files/6045.got.cif
#   From: 2010.05.17/outbox.cif.g08.bks.cpg/sg115_4_cif.got.tgz:6045.got - 2010.05.20 11:07:42.
