data_PCOD9556235
_publ_section_title
;
Structure prediction by ZEFSAII (Michael W. Deem and Ramdas Pophale) SiO2 
 PCOD9556235
Probable space group: P -4 21 C
;
_chemical_formula_sum "Si O2"
_cell_formula_units_Z 48
_cell_length_a 9.426003
_cell_length_b 9.426003
_cell_length_c 27.121371
_cell_angle_alpha 90.000000
_cell_angle_beta 90.000000
_cell_angle_gamma 90.000000
_cell_volume 2409.721136
_symmetry_space_group_name_H-M "P -4 21 C"
_symmetry_group_IT_number 114
_symmetry_cell_setting 'tetragonal'
loop_
_space_group_symop_operation_xyz
x,y,z
y,-x,-z
-x,-y,z
-y,x,-z
1/2+x,1/2-y,1/2-z
1/2-x,1/2+y,1/2-z
1/2-y,1/2-x,1/2+z
1/2+y,1/2+x,1/2+z
loop_
_atom_site_type_symbol
_atom_site_label
_atom_site_fract_x
_atom_site_fract_y
_atom_site_fract_z
Si Si1 0.277015 0.331553 0.544392
Si Si2 0.350531 0.080242 0.215610
Si Si3 0.041830 0.163355 0.592804
Si Si4 0.350526 0.419345 0.208229
Si Si5 0.222316 0.649600 0.562464
Si Si6 0.486111 0.658110 0.626201
O O1 0.200246 0.481037 0.555727
O O2 0.304770 0.303957 0.487252
O O3 0.419842 0.340414 0.576555
O O4 0.184662 0.202481 0.564576
O O5 0.360805 0.251354 0.221311
O O6 0.270253 0.045329 0.164538
O O7 0.500000 0.000000 0.214393
O O8 0.260335 0.004386 0.258377
O O9 0.919146 0.262544 0.570970
O O10 0.066689 0.191045 0.650745
O O11 0.000000 0.000000 0.586713
O O12 0.500000 0.500000 0.214231
O O13 0.325119 0.678788 0.608918
O O14 0.500000 0.500000 0.648153
#
# Coordination Sequence:
#
# PCOD9556235 Si02
#       6
#     8   8   8   8   8   8
#     4  11  22  45  63 100 132 180 229 276 334 400
#     4  12  26  45  75 104 133 180 226 282 347 411
#     4  11  27  45  66  97 142 175 221 279 341 400
#     4  11  26  49  70 101 140 175 226 282 346 418
#     4  11  24  40  70  96 135 182 228 281 331 403
#     4  10  23  42  70  98 138 174 228 276 333 398
#
# _framework density 19.919319000000002
#
# number of rings (size 3 to 8) (size 9 to 14) (size 15 to 20)
#    0.000    1.000    3.333    2.000    9.333    1.333 
#    0.000    0.000    0.000    0.000    0.000    0.000 
#    0.000    0.000    0.000    0.000    0.000    0.000 
#
# Total GULP energy -268344.720446 kJ/mol
# GULP energy per Si atom -5590.515009 kJ/mol
# Density = 1.987398 g / cm^3
# Si number density = 19.919319 Si / 1000 Ang^3
#
#
#
# Elastic Constant Matrix: (Units=GPa)
#
#
# Indices 1 2 3 4 5 6 
#
# 1 96.5017 36.4494 40.0998 0.0000 0.0000 0.0000
# 2 36.4494 96.5017 40.0998 0.0000 0.0000 0.0000
# 3 40.0998 40.0998 77.9809 0.0000 0.0000 0.0000
# 4 0.0000 0.0000 0.0000 23.1850 0.0000 0.0000
# 5 0.0000 0.0000 0.0000 0.0000 23.1850 0.0000
# 6 0.0000 0.0000 0.0000 0.0000 0.0000 28.0560
#
#
#
# Elastic Compliance Matrix: (Units=1/GPa)
#
#
# Indices 1 2 3 4 5 6 
#
# 1 0.013778 -0.002874 -0.005607 0.000000 0.000000 0.000000
# 2 -0.002874 0.013778 -0.005607 0.000000 0.000000 0.000000
# 3 -0.005607 -0.005607 0.018590 0.000000 0.000000 0.000000
# 4 0.000000 0.000000 0.000000 0.043131 0.000000 0.000000
# 5 0.000000 0.000000 0.000000 0.000000 0.043131 0.000000
# 6 0.000000 0.000000 0.000000 0.000000 0.000000 0.035643
#
#
# Mechanical properties :
#
#
# Convention : Reuss Voigt Hill
#
# Bulk Modulus (GPa) = 55.64901 56.03138 55.84019
# Shear Modulus (GPa) = 24.72572 25.17420 24.94996
#
# Velocity S-wave (km/s) = 3.52702 3.55886 3.54298
# Velocity P-wave (km/s) = 6.67715 6.71398 6.69559
#
# Compressibility (1/GPa) = 0.01796977
#
# Stress axis : x y z
#
# Youngs Moduli (GPa) = 72.57933 72.57933 53.79164
#
# Poissons Ratio (x) = 0.20860 0.30161
# Poissons Ratio (y) = 0.20860 0.30161
# Poissons Ratio (z) = 0.40696 0.40696
#
# Static dielectric constant tensor:
#      x y z
#    x 1.685260 0.000000 0.000000 
#    y 0.000000 1.685260 0.000000 
#    z 0.000000 0.000000 1.693110 
# 
# From -- ./inp_files/3969.got.cif
#   From: 2010.05.17/outbox.cif.g08.bks.cpg/sg114_2_cif.got.tgz:3969.got - 2010.05.20 11:04:54.
