data_PCOD9556516
_publ_section_title
;
Structure prediction by ZEFSAII (Michael W. Deem and Ramdas Pophale) SiO2 
 PCOD9556516
Probable space group: P -4 21 C
;
_chemical_formula_sum "Si O2"
_cell_formula_units_Z 48
_cell_length_a 9.000000
_cell_length_b 9.000000
_cell_length_c 30.000000
_cell_angle_alpha 90.000000
_cell_angle_beta 90.000000
_cell_angle_gamma 90.000000
_cell_volume 2430.000000
_symmetry_space_group_name_H-M "P -4 21 C"
_symmetry_group_IT_number 114
_symmetry_cell_setting 'tetragonal'
loop_
_space_group_symop_operation_xyz
x,y,z
y,-x,-z
-x,-y,z
-y,x,-z
1/2+x,1/2-y,1/2-z
1/2-x,1/2+y,1/2-z
1/2-y,1/2-x,1/2+z
1/2+y,1/2+x,1/2+z
loop_
_atom_site_type_symbol
_atom_site_label
_atom_site_fract_x
_atom_site_fract_y
_atom_site_fract_z
Si Si1 0.288779 0.664783 0.048342
Si Si2 0.934584 0.332824 0.210261
Si Si3 0.176300 0.520414 0.610239
Si Si4 0.822341 0.488415 0.889743
Si Si5 0.809817 0.755208 0.552555
Si Si6 0.073264 0.164030 0.296178
O O1 0.177296 0.708548 0.087961
O O2 0.431355 0.752023 0.066395
O O3 0.300303 0.485129 0.050379
O O4 0.251920 0.710612 0.997449
O O5 0.985701 0.266810 0.161522
O O6 0.753358 0.339934 0.209734
O O7 0.000000 0.500000 0.214238
O O8 0.998033 0.242105 0.252784
O O9 0.207291 0.414017 0.568000
O O10 0.000000 0.500000 0.616826
O O11 0.769385 0.325906 0.904064
O O12 0.750925 0.537589 0.842638
O O13 0.000000 0.500000 0.888147
O O14 0.000000 0.000000 0.300255
#
# Coordination Sequence:
#
# PCOD9556516 Si02
#       6
#     8   8   8   8   8   8
#     4  11  21  41  65  99 132 178 228 278 333 404
#     4  11  24  46  72 105 137 177 227 284 346 417
#     4   9  22  41  67  96 137 171 220 276 342 397
#     4  12  27  42  65 100 138 178 233 285 335 404
#     4  11  23  38  70  97 133 181 228 280 333 409
#     4  12  26  46  75 101 137 179 228 285 349 417
#
# _framework density 19.753086
#
# number of rings (size 3 to 8) (size 9 to 14) (size 15 to 20)
#    0.000    1.000    3.333    3.000    9.333    0.000 
#    0.000    0.833    0.000    0.000    0.000    0.000 
#    0.000    0.000    0.000    0.000    0.000    0.000 
#
# Total GULP energy -267390.836642 kJ/mol
# GULP energy per Si atom -5570.642430 kJ/mol
# Density = 1.970813 g / cm^3
# Si number density = 19.753086 Si / 1000 Ang^3
#
#
#
# Elastic Constant Matrix: (Units=GPa)
#
#
# Indices 1 2 3 4 5 6 
#
# 1 57.0593 -1.3297 30.8398 0.0000 0.0000 0.0000
# 2 -1.3297 57.0593 30.8398 0.0000 0.0000 0.0000
# 3 30.8398 30.8398 182.7845 0.0000 0.0000 0.0000
# 4 0.0000 0.0000 0.0000 47.5603 0.0000 0.0000
# 5 0.0000 0.0000 0.0000 0.0000 47.5603 0.0000
# 6 0.0000 0.0000 0.0000 0.0000 0.0000 9.3512
#
#
#
# Elastic Compliance Matrix: (Units=1/GPa)
#
#
# Indices 1 2 3 4 5 6 
#
# 1 0.019595 0.002469 -0.003723 0.000000 0.000000 0.000000
# 2 0.002469 0.019595 -0.003723 0.000000 0.000000 0.000000
# 3 -0.003723 -0.003723 0.006727 0.000000 0.000000 0.000000
# 4 0.000000 0.000000 0.000000 0.021026 0.000000 0.000000
# 5 0.000000 0.000000 0.000000 0.000000 0.021026 0.000000
# 6 0.000000 0.000000 0.000000 0.000000 0.000000 0.106938
#
#
# Mechanical properties :
#
#
# Convention : Reuss Voigt Hill
#
# Bulk Modulus (GPa) = 27.80542 46.40033 37.10288
# Shear Modulus (GPa) = 23.05751 36.66456 29.86103
#
# Velocity S-wave (km/s) = 3.42026 4.31297 3.89230
# Velocity P-wave (km/s) = 5.45020 6.95295 6.24692
#
# Compressibility (1/GPa) = 0.03596421
#
# Stress axis : x y z
#
# Youngs Moduli (GPa) = 51.03292 51.03292 148.65212
#
# Poissons Ratio (x) = -0.12598 0.55338
# Poissons Ratio (y) = -0.12598 0.55338
# Poissons Ratio (z) = 0.18998 0.18998
#
# Static dielectric constant tensor:
#      x y z
#    x 1.724610 0.000000 0.000000 
#    y 0.000000 1.724610 0.000000 
#    z 0.000000 0.000000 1.650960 
# 
# From -- ./inp_files/3903.got.cif
#   From: 2010.05.17/outbox.ucp.g08.bks.cvg/sg114_2_cif.got.tgz:3903.got - 2010.06.11 11:33:27.
