data_PCOD9556761
_publ_section_title
;
Structure prediction by ZEFSAII (Michael W. Deem and Ramdas Pophale) SiO2 
 PCOD9556761
Probable space group: P -4 M 2
;
_chemical_formula_sum "Si O2"
_cell_formula_units_Z 56
_cell_length_a 14.908288
_cell_length_b 14.908288
_cell_length_c 12.405477
_cell_angle_alpha 90.000000
_cell_angle_beta 90.000000
_cell_angle_gamma 90.000000
_cell_volume 2757.204735
_symmetry_space_group_name_H-M "P -4 M 2"
_symmetry_group_IT_number 115
_symmetry_cell_setting 'tetragonal'
loop_
_space_group_symop_operation_xyz
x,y,z
y,-x,-z
-x,-y,z
-y,x,-z
y,x,-z
-y,-x,-z
-x,y,z
x,-y,z
loop_
_atom_site_type_symbol
_atom_site_label
_atom_site_fract_x
_atom_site_fract_y
_atom_site_fract_z
Si Si1 0.892725 0.266229 0.369002
Si Si2 0.598083 0.681600 0.407377
Si Si3 0.898522 0.607637 0.981206
Si Si4 0.902772 0.768271 0.617708
Si Si5 0.147479 0.396910 0.747356
Si Si6 0.609314 0.799292 0.804192
Si Si7 0.398724 0.402409 0.809005
O O1 0.838651 0.173616 0.349222
O O2 0.885959 0.274088 0.498906
O O3 0.840421 0.342441 0.301077
O O4 0.000000 0.265010 0.342812
O O5 0.670269 0.670269 0.500000
O O6 0.500000 0.685954 0.459446
O O7 0.606484 0.764279 0.326424
O O8 0.598950 0.601215 0.321561
O O9 0.902922 0.500000 0.992215
O O10 0.841128 0.622738 0.873686
O O11 0.000000 0.640548 0.963345
O O12 0.858084 0.638952 0.093477
O O13 0.906643 0.684957 0.698419
O O14 0.000000 0.813765 0.611728
O O15 0.112198 0.500000 0.739110
O O16 0.500000 0.801048 0.791654
O O17 0.636498 0.696856 0.832934
O O18 0.500000 0.404579 0.851520
O O19 0.356153 0.500000 0.839369
#
# Coordination Sequence:
#
# PCOD9556761 Si02
#       7
#     8   8   8   8   8   8   8
#     4  10  22  39  59  86 119 152 197 254 308 372
#     4  10  20  32  50  76 110 158 208 250 293 356
#     4   9  18  35  58  84 118 159 204 253 310 379
#     4  10  22  39  59  83 116 157 198 244 304 377
#     4  10  21  35  57  88 119 154 197 249 309 373
#     4  10  20  35  61  92 123 158 201 255 317 373
#     4   9  18  32  50  76 113 158 205 249 293 350
#
# _framework density 20.310424999999999
#
# number of rings (size 3 to 8) (size 9 to 14) (size 15 to 20)
#    0.000    2.286    0.000    2.143    4.000    3.286 
#    0.000    5.714    0.000    3.429    0.000   12.000 
#    0.000    3.429    0.000    0.000    0.000    0.000 
#
# Total GULP energy -311902.174379 kJ/mol
# GULP energy per Si atom -5569.681685 kJ/mol
# Density = 2.026420 g / cm^3
# Si number density = 20.310425 Si / 1000 Ang^3
#
#
#
# Elastic Constant Matrix: (Units=GPa)
#
#
# Indices 1 2 3 4 5 6 
#
# 1 98.2139 31.7706 30.1995 0.0000 0.0000 0.0000
# 2 31.7706 98.2139 30.1995 0.0000 0.0000 0.0000
# 3 30.1995 30.1995 70.5879 0.0000 0.0000 0.0000
# 4 0.0000 0.0000 0.0000 19.3219 0.0000 0.0000
# 5 0.0000 0.0000 0.0000 0.0000 19.3219 0.0000
# 6 0.0000 0.0000 0.0000 0.0000 0.0000 5.0623
#
#
#
# Elastic Compliance Matrix: (Units=1/GPa)
#
#
# Indices 1 2 3 4 5 6 
#
# 1 0.012326 -0.002724 -0.004108 0.000000 0.000000 0.000000
# 2 -0.002724 0.012326 -0.004108 0.000000 0.000000 0.000000
# 3 -0.004108 -0.004108 0.017682 0.000000 0.000000 0.000000
# 4 0.000000 0.000000 0.000000 0.051755 0.000000 0.000000
# 5 0.000000 0.000000 0.000000 0.000000 0.051755 0.000000
# 6 0.000000 0.000000 0.000000 0.000000 0.000000 0.197539
#
#
# Mechanical properties :
#
#
# Convention : Reuss Voigt Hill
#
# Bulk Modulus (GPa) = 48.89068 50.15056 49.52062
# Shear Modulus (GPa) = 13.43794 20.39764 16.91779
#
# Velocity S-wave (km/s) = 2.57500 3.17250 2.88924
# Velocity P-wave (km/s) = 5.74150 6.17781 5.96364
#
# Compressibility (1/GPa) = 0.02045380
#
# Stress axis : x y z
#
# Youngs Moduli (GPa) = 81.12768 81.12768 56.55530
#
# Poissons Ratio (x) = 0.22101 0.23233
# Poissons Ratio (y) = 0.22101 0.23233
# Poissons Ratio (z) = 0.33328 0.33328
#
# Static dielectric constant tensor:
#      x y z
#    x 1.793340 0.000000 0.000000 
#    y 0.000000 1.793340 0.000000 
#    z 0.000000 0.000000 1.701180 
# 
# From -- ./inp_files/3116.got.cif
#   From: 2010.05.17/outbox.cif.g08.bks.cpg/sg115_2_cif.got.tgz:3116.got - 2010.05.20 11:07:42.
