data_PCOD9556571
_publ_section_title
;
Structure prediction by ZEFSAII (Michael W. Deem and Ramdas Pophale) SiO2 
 PCOD9556571
Probable space group: P -4 M 2
;
_chemical_formula_sum "Si O2"
_cell_formula_units_Z 60
_cell_length_a 15.022750
_cell_length_b 15.022750
_cell_length_c 14.909741
_cell_angle_alpha 90.000000
_cell_angle_beta 90.000000
_cell_angle_gamma 90.000000
_cell_volume 3364.875340
_symmetry_space_group_name_H-M "P -4 M 2"
_symmetry_group_IT_number 115
_symmetry_cell_setting 'tetragonal'
loop_
_space_group_symop_operation_xyz
x,y,z
y,-x,-z
-x,-y,z
-y,x,-z
y,x,-z
-y,-x,-z
-x,y,z
x,-y,z
loop_
_atom_site_type_symbol
_atom_site_label
_atom_site_fract_x
_atom_site_fract_y
_atom_site_fract_z
Si Si1 0.779120 0.608523 0.779907
Si Si2 0.358448 0.641552 0.500000
Si Si3 0.605256 0.840648 0.560686
Si Si4 0.761488 0.103655 0.889242
Si Si5 0.894729 0.739185 0.897024
Si Si6 0.905715 0.607850 0.621219
Si Si7 0.602863 0.596307 0.296797
Si Si8 0.396683 0.107375 0.755367
O O1 0.782369 0.500000 0.790631
O O2 0.836493 0.658960 0.854808
O O3 0.826430 0.632860 0.685847
O O4 0.677490 0.638871 0.762577
O O5 0.256672 0.619782 0.479270
O O6 0.385202 0.600102 0.595856
O O7 0.500000 0.859418 0.568844
O O8 0.641987 0.900294 0.480188
O O9 0.637878 0.852221 0.661311
O O10 0.843176 0.170102 0.869291
O O11 0.673780 0.128473 0.832646
O O12 0.783713 0.000000 0.870105
O O13 0.738355 0.109594 0.994754
O O14 0.000000 0.736384 0.872490
O O15 0.902543 0.500000 0.615931
O O16 0.000000 0.633176 0.662648
O O17 0.500000 0.590398 0.269543
O O18 0.647297 0.500000 0.284096
O O19 0.500000 0.133657 0.773048
O O20 0.397542 0.000000 0.744250
#
# Coordination Sequence:
#
# PCOD9556571 Si02
#       8
#     8   4   8   8   8   8   8   8
#     4  10  20  34  51  78 111 142 181 224 268 324
#     4  12  20  29  44  70 104 142 191 234 266 310
#     4  10  19  29  43  67  98 136 179 220 264 312
#     4   9  20  38  58  82 109 135 171 221 274 333
#     4  10  21  37  58  82 107 137 173 219 277 336
#     4   9  16  28  45  65  96 136 172 210 259 311
#     4  10  20  33  48  68 102 148 192 232 271 311
#     4   9  18  33  53  78 108 141 176 218 274 334
#
# _framework density 17.831268000000001
#
# number of rings (size 3 to 8) (size 9 to 14) (size 15 to 20)
#    0.000    2.267    1.333    2.000    1.867    3.733 
#    0.000    2.667    0.000    0.800    0.000    0.000 
#    0.000    0.000    0.000    5.733    0.000    0.267 
#
# Total GULP energy -334021.357217 kJ/mol
# GULP energy per Si atom -5567.022620 kJ/mol
# Density = 1.779068 g / cm^3
# Si number density = 17.831268 Si / 1000 Ang^3
#
#
#
# Elastic Constant Matrix: (Units=GPa)
#
#
# Indices 1 2 3 4 5 6 
#
# 1 96.6948 30.3921 36.0292 0.0000 0.0000 0.0000
# 2 30.3921 96.6955 36.0293 0.0000 0.0000 0.0000
# 3 36.0292 36.0293 59.1326 0.0000 0.0000 0.0000
# 4 0.0000 0.0000 0.0000 25.4183 0.0000 0.0000
# 5 0.0000 0.0000 0.0000 0.0000 25.4189 0.0000
# 6 0.0000 0.0000 0.0000 0.0000 0.0000 20.5095
#
#
#
# Elastic Compliance Matrix: (Units=1/GPa)
#
#
# Indices 1 2 3 4 5 6 
#
# 1 0.013552 -0.001530 -0.007325 0.000000 0.000000 0.000000
# 2 -0.001530 0.013552 -0.007325 0.000000 0.000000 0.000000
# 3 -0.007325 -0.007325 0.025837 0.000000 0.000000 0.000000
# 4 0.000000 0.000000 0.000000 0.039342 0.000000 0.000000
# 5 0.000000 0.000000 0.000000 0.000000 0.039341 0.000000
# 6 0.000000 0.000000 0.000000 0.000000 0.000000 0.048758
#
#
# Mechanical properties :
#
#
# Convention : Reuss Voigt Hill
#
# Bulk Modulus (GPa) = 48.58754 50.82487 49.70621
# Shear Modulus (GPa) = 22.76847 24.27415 23.52131
#
# Velocity S-wave (km/s) = 3.57723 3.69362 3.63589
# Velocity P-wave (km/s) = 6.66106 6.83780 6.75001
#
# Compressibility (1/GPa) = 0.02058141
#
# Stress axis : x y z
#
# Youngs Moduli (GPa) = 73.78949 73.78999 38.70400
#
# Poissons Ratio (x) = 0.11292 0.28350
# Poissons Ratio (y) = 0.11292 0.28350
# Poissons Ratio (z) = 0.54050 0.54050
#
# Static dielectric constant tensor:
#      x y z
#    x 1.655880 0.000000 0.000000 
#    y 0.000000 1.655880 0.000000 
#    z 0.000000 0.000000 1.605240 
# 
# From -- ./inp_files/3906.got.cif
#   From: 2010.05.17/outbox.cif.g08.bks.cpg/sg115_2_cif.got.tgz:3906.got - 2010.05.20 11:07:42.
