data_PCOD9556330
_publ_section_title
;
Structure prediction by ZEFSAII (Michael W. Deem and Ramdas Pophale) SiO2 
 PCOD9556330
Probable space group: P -4 21 C
;
_chemical_formula_sum "Si O2"
_cell_formula_units_Z 36
_cell_length_a 8.884792
_cell_length_b 8.884792
_cell_length_c 17.350681
_cell_angle_alpha 90.000000
_cell_angle_beta 90.000000
_cell_angle_gamma 90.000000
_cell_volume 1369.654584
_symmetry_space_group_name_H-M "P -4 21 C"
_symmetry_group_IT_number 114
_symmetry_cell_setting 'tetragonal'
loop_
_space_group_symop_operation_xyz
x,y,z
y,-x,-z
-x,-y,z
-y,x,-z
1/2+x,1/2-y,1/2-z
1/2-x,1/2+y,1/2-z
1/2-y,1/2-x,1/2+z
1/2+y,1/2+x,1/2+z
loop_
_atom_site_type_symbol
_atom_site_label
_atom_site_fract_x
_atom_site_fract_y
_atom_site_fract_z
Si Si1 0.000000 0.000000 0.500000
Si Si2 0.669450 0.019868 0.503515
Si Si3 0.481053 0.823998 0.290411
Si Si4 0.235933 0.145753 0.112971
Si Si5 0.789504 0.674302 0.347661
Si Si6 0.500000 0.500000 0.500000
O O1 0.991469 0.831958 0.539011
O O2 0.676516 0.163311 0.562031
O O3 0.500000 0.000000 0.467494
O O4 0.671949 0.882984 0.563871
O O5 0.336310 0.782006 0.341704
O O6 0.632660 0.751509 0.325018
O O7 0.427277 0.769597 0.205467
O O8 0.500000 0.000000 0.288593
O O9 0.265882 0.003683 0.168063
O O10 0.106511 0.094387 0.054811
#
# Coordination Sequence:
#
# PCOD9556330 Si02
#       6
#     2   8   8   8   8   2
#     4  12  28  48  74 112 144 200 264 322 376 464
#     4  10  26  48  70 102 149 191 248 320 382 454
#     4  12  24  41  75 106 142 185 250 312 395 456
#     4  11  25  47  73 102 147 201 248 309 380 466
#     4  11  23  48  69 106 145 192 243 319 388 465
#     4  12  24  48  78 100 148 212 260 290 396 484
#
# _framework density 26.283999000000001
#
# number of rings (size 3 to 8) (size 9 to 14) (size 15 to 20)
#    0.000    0.889    2.222    4.667    9.333    0.000 
#    4.000    0.000    0.000    0.000    0.000    0.000 
#    0.000    0.000    0.000    0.000    0.000    0.000 
#
# Total GULP energy -201357.752760 kJ/mol
# GULP energy per Si atom -5593.270910 kJ/mol
# Density = 2.622418 g / cm^3
# Si number density = 26.283999 Si / 1000 Ang^3
#
#
#
# Elastic Constant Matrix: (Units=GPa)
#
#
# Indices 1 2 3 4 5 6 
#
# 1 156.7276 21.0302 24.9418 0.0000 0.0000 0.0000
# 2 21.0302 156.7276 24.9418 0.0000 0.0000 0.0000
# 3 24.9418 24.9418 65.0804 0.0000 0.0000 0.0000
# 4 0.0000 0.0000 0.0000 33.5592 0.0000 0.0000
# 5 0.0000 0.0000 0.0000 0.0000 33.5592 0.0000
# 6 0.0000 0.0000 0.0000 0.0000 0.0000 43.2945
#
#
#
# Elastic Compliance Matrix: (Units=1/GPa)
#
#
# Indices 1 2 3 4 5 6 
#
# 1 0.006836 -0.000533 -0.002416 0.000000 0.000000 0.000000
# 2 -0.000533 0.006836 -0.002416 0.000000 0.000000 0.000000
# 3 -0.002416 -0.002416 0.017217 0.000000 0.000000 0.000000
# 4 0.000000 0.000000 0.000000 0.029798 0.000000 0.000000
# 5 0.000000 0.000000 0.000000 0.000000 0.029798 0.000000
# 6 0.000000 0.000000 0.000000 0.000000 0.000000 0.023098
#
#
# Mechanical properties :
#
#
# Convention : Reuss Voigt Hill
#
# Bulk Modulus (GPa) = 49.60024 57.81812 53.70918
# Shear Modulus (GPa) = 38.15820 42.59071 40.37445
#
# Velocity S-wave (km/s) = 3.81434 4.02979 3.92354
# Velocity P-wave (km/s) = 6.18957 6.61041 6.40345
#
# Compressibility (1/GPa) = 0.02016119
#
# Stress axis : x y z
#
# Youngs Moduli (GPa) = 146.27465 146.27465 58.08109
#
# Poissons Ratio (x) = 0.07795 0.14031
# Poissons Ratio (y) = 0.07795 0.14031
# Poissons Ratio (z) = 0.35337 0.35337
#
# Static dielectric constant tensor:
#      x y z
#    x 2.079860 0.000000 0.000000 
#    y 0.000000 2.079860 0.000000 
#    z 0.000000 0.000000 2.074520 
# 
# From -- ./inp_files/3009.got.cif
#   From: 2010.05.17/outbox.cif.g08.bks.cpg/sg114_2_cif.got.tgz:3009.got - 2010.05.20 11:04:54.
