data_PCOD9556442
_publ_section_title
;
Structure prediction by ZEFSAII (Michael W. Deem and Ramdas Pophale) SiO2 
 PCOD9556442
Probable space group: P -4 21 C
;
_chemical_formula_sum "Si O2"
_cell_formula_units_Z 38
_cell_length_a 8.627202
_cell_length_b 8.627202
_cell_length_c 22.839021
_cell_angle_alpha 90.000000
_cell_angle_beta 90.000000
_cell_angle_gamma 90.000000
_cell_volume 1699.876686
_symmetry_space_group_name_H-M "P -4 21 C"
_symmetry_group_IT_number 114
_symmetry_cell_setting 'tetragonal'
loop_
_space_group_symop_operation_xyz
x,y,z
y,-x,-z
-x,-y,z
-y,x,-z
1/2+x,1/2-y,1/2-z
1/2-x,1/2+y,1/2-z
1/2-y,1/2-x,1/2+z
1/2+y,1/2+x,1/2+z
loop_
_atom_site_type_symbol
_atom_site_label
_atom_site_fract_x
_atom_site_fract_y
_atom_site_fract_z
Si Si1 0.510586 0.173728 0.573762
Si Si2 0.789998 0.341947 0.038864
Si Si3 0.500000 0.000000 0.864716
Si Si4 0.253551 0.916999 0.771264
Si Si5 0.447119 0.720261 0.696871
Si Si6 0.000000 0.000000 0.500000
O O1 0.388069 0.177533 0.520858
O O2 0.679370 0.206926 0.548467
O O3 0.503233 0.287609 0.628955
O O4 0.500000 0.000000 0.597256
O O5 0.898466 0.392691 0.092352
O O6 0.656350 0.470981 0.035460
O O7 0.381902 0.905629 0.822875
O O8 0.351807 0.874674 0.713524
O O9 0.111776 0.795193 0.771480
O O10 0.162551 0.078090 0.782444
#
# Coordination Sequence:
#
# PCOD9556442 Si02
#       6
#     8   8   4   8   8   2
#     4  12  27  45  75 111 151 193 252 313 376 453
#     4  12  26  47  74 107 154 198 249 314 383 455
#     4  12  24  48  72 108 150 200 248 318 378 466
#     4  11  26  48  73 104 149 192 259 306 381 450
#     4  11  27  47  73 109 145 206 249 317 372 458
#     4  12  24  48  68 108 144 200 248 300 388 458
#
# _framework density 22.354562000000001
#
# number of rings (size 3 to 8) (size 9 to 14) (size 15 to 20)
#    0.000    0.421    5.263    1.263   10.316    0.421 
#    0.000    0.000    0.000    0.000    0.000    0.000 
#    0.000    0.000    0.000    0.000    0.000    0.000 
#
# Total GULP energy -212169.760296 kJ/mol
# GULP energy per Si atom -5583.414745 kJ/mol
# Density = 2.230368 g / cm^3
# Si number density = 22.354562 Si / 1000 Ang^3
#
#
#
# Elastic Constant Matrix: (Units=GPa)
#
#
# Indices 1 2 3 4 5 6 
#
# 1 103.8464 31.7707 32.4977 0.0000 0.0000 0.0000
# 2 31.7707 103.8464 32.4977 0.0000 0.0000 0.0000
# 3 32.4977 32.4977 91.1882 0.0000 0.0000 0.0000
# 4 0.0000 0.0000 0.0000 31.3669 0.0000 0.0000
# 5 0.0000 0.0000 0.0000 0.0000 31.3669 0.0000
# 6 0.0000 0.0000 0.0000 0.0000 0.0000 40.4917
#
#
#
# Elastic Compliance Matrix: (Units=1/GPa)
#
#
# Indices 1 2 3 4 5 6 
#
# 1 0.011383 -0.002491 -0.003169 0.000000 0.000000 0.000000
# 2 -0.002491 0.011383 -0.003169 0.000000 0.000000 0.000000
# 3 -0.003169 -0.003169 0.013225 0.000000 0.000000 0.000000
# 4 0.000000 0.000000 0.000000 0.031881 0.000000 0.000000
# 5 0.000000 0.000000 0.000000 0.000000 0.031881 0.000000
# 6 0.000000 0.000000 0.000000 0.000000 0.000000 0.024696
#
#
# Mechanical properties :
#
#
# Convention : Reuss Voigt Hill
#
# Bulk Modulus (GPa) = 54.54433 54.71260 54.62847
# Shear Modulus (GPa) = 33.73377 34.11943 33.92660
#
# Velocity S-wave (km/s) = 3.88884 3.91101 3.89994
# Velocity P-wave (km/s) = 6.67958 6.70244 6.69102
#
# Compressibility (1/GPa) = 0.01833371
#
# Stress axis : x y z
#
# Youngs Moduli (GPa) = 87.84715 87.84715 75.61337
#
# Poissons Ratio (x) = 0.21882 0.23963
# Poissons Ratio (y) = 0.21882 0.23963
# Poissons Ratio (z) = 0.27840 0.27840
#
# Static dielectric constant tensor:
#      x y z
#    x 1.831350 0.000000 0.000000 
#    y 0.000000 1.831350 0.000000 
#    z 0.000000 0.000000 1.825000 
# 
# From -- ./inp_files/3443.got.cif
#   From: 2010.05.17/outbox.cif.g08.bks.cpg/sg114_2_cif.got.tgz:3443.got - 2010.05.20 11:04:54.
