data_PCOD9556551
_publ_section_title
;
Structure prediction by ZEFSAII (Michael W. Deem and Ramdas Pophale) SiO2 
 PCOD9556551
Probable space group: P -4 M 2
;
_chemical_formula_sum "Si O2"
_cell_formula_units_Z 40
_cell_length_a 14.414660
_cell_length_b 14.414660
_cell_length_c 12.786846
_cell_angle_alpha 90.000000
_cell_angle_beta 90.000000
_cell_angle_gamma 90.000000
_cell_volume 2656.881843
_symmetry_space_group_name_H-M "P -4 M 2"
_symmetry_group_IT_number 115
_symmetry_cell_setting 'tetragonal'
loop_
_space_group_symop_operation_xyz
x,y,z
y,-x,-z
-x,-y,z
-y,x,-z
y,x,-z
-y,-x,-z
-x,y,z
x,-y,z
loop_
_atom_site_type_symbol
_atom_site_label
_atom_site_fract_x
_atom_site_fract_y
_atom_site_fract_z
Si Si1 0.253441 0.890058 0.544604
Si Si2 0.109975 0.248663 0.208775
Si Si3 0.112332 0.394913 0.630998
Si Si4 0.394296 0.887730 0.965707
Si Si5 0.111780 0.727639 0.833187
O O1 0.167200 0.832801 0.500000
O O2 0.264918 0.874855 0.667989
O O3 0.342400 0.861830 0.475590
O O4 0.238521 0.000000 0.528310
O O5 0.135102 0.338326 0.139492
O O6 0.174806 0.164347 0.172239
O O7 0.000000 0.229638 0.193042
O O8 0.147563 0.500000 0.638181
O O9 0.137574 0.331837 0.730263
O O10 0.000000 0.399844 0.632666
O O11 0.500000 0.852706 0.969327
O O12 0.399619 0.000000 0.970137
O O13 0.332115 0.860540 0.065285
O O14 0.000000 0.740117 0.834168
#
# Coordination Sequence:
#
# PCOD9556551 Si02
#       5
#     8   8   8   8   8
#     4  10  19  31  45  65  96 132 164 197 233 277
#     4  10  20  31  46  69  99 132 161 193 235 281
#     4   9  17  29  46  67  90 122 163 204 244 279
#     4   9  18  32  48  66  90 123 160 198 242 282
#     4  10  18  30  48  69  97 129 160 196 232 277
#
# _framework density 15.055243000000001
#
# number of rings (size 3 to 8) (size 9 to 14) (size 15 to 20)
#    0.000    2.400    2.000    1.200    0.000    3.800 
#    0.000    6.000    0.000    3.600    0.000    0.000 
#    0.000   15.600    0.000    0.000    0.000    0.000 
#
# Total GULP energy -222811.483614 kJ/mol
# GULP energy per Si atom -5570.287090 kJ/mol
# Density = 1.502098 g / cm^3
# Si number density = 15.055243 Si / 1000 Ang^3
#
#
#
# Elastic Constant Matrix: (Units=GPa)
#
#
# Indices 1 2 3 4 5 6 
#
# 1 67.7561 39.9888 52.8522 0.0000 0.0000 0.0000
# 2 39.9888 67.7525 52.8538 0.0000 0.0000 0.0000
# 3 52.8522 52.8538 121.1669 0.0000 0.0000 0.0000
# 4 0.0000 0.0000 0.0000 16.6076 0.0000 0.0000
# 5 0.0000 0.0000 0.0000 0.0000 16.6078 0.0000
# 6 0.0000 0.0000 0.0000 0.0000 0.0000 -0.5844
#
#
#
# Elastic Compliance Matrix: (Units=1/GPa)
#
#
# Indices 1 2 3 4 5 6 
#
# 1 0.026119 -0.009896 -0.007076 0.000000 0.000000 0.000000
# 2 -0.009896 0.026122 -0.007078 0.000000 0.000000 0.000000
# 3 -0.007076 -0.007078 0.014427 0.000000 0.000000 0.000000
# 4 0.000000 0.000000 0.000000 0.060213 0.000000 0.000000
# 5 0.000000 0.000000 0.000000 0.000000 0.060213 0.000000
# 6 0.000000 0.000000 0.000000 0.000000 0.000000 -1.711181
#
#
# Mechanical properties :
#
#
# Convention : Reuss Voigt Hill
#
# Bulk Modulus (GPa) = 53.85658 60.89611 57.37634
# Shear Modulus (GPa) = -3.40183 13.92493 5.26155
#
# Velocity S-wave (km/s) = -1.50482 3.04455 1.87147
# Velocity P-wave (km/s) = 5.72983 7.27292 6.54700
#
# Compressibility (1/GPa) = 0.01856783
#
# Stress axis : x y z
#
# Youngs Moduli (GPa) = 38.28650 38.28222 69.31326
#
# Poissons Ratio (x) = 0.37882 0.49049
# Poissons Ratio (y) = 0.37887 0.49061
# Poissons Ratio (z) = 0.27093 0.27097
#
# Static dielectric constant tensor:
#      x y z
#    x 1.486090 0.000000 0.000000 
#    y 0.000000 1.486090 0.000000 
#    z 0.000000 0.000000 1.517110 
# 
# From -- ./inp_files/2715.got.cif
#   From: 2010.05.17/outbox.cif.g08.bks.cpg/sg115_2_cif.got.tgz:2715.got - 2010.05.20 11:07:42.
