data_PCOD9556301
_publ_section_title
;
Structure prediction by ZEFSAII (Michael W. Deem and Ramdas Pophale) SiO2 
 PCOD9556301
Probable space group: P -4 21 C
;
_chemical_formula_sum "Si O2"
_cell_formula_units_Z 38
_cell_length_a 8.707324
_cell_length_b 8.707324
_cell_length_c 19.348591
_cell_angle_alpha 90.000000
_cell_angle_beta 90.000000
_cell_angle_gamma 90.000000
_cell_volume 1466.961629
_symmetry_space_group_name_H-M "P -4 21 C"
_symmetry_group_IT_number 114
_symmetry_cell_setting 'tetragonal'
loop_
_space_group_symop_operation_xyz
x,y,z
y,-x,-z
-x,-y,z
-y,x,-z
1/2+x,1/2-y,1/2-z
1/2-x,1/2+y,1/2-z
1/2-y,1/2-x,1/2+z
1/2+y,1/2+x,1/2+z
loop_
_atom_site_type_symbol
_atom_site_label
_atom_site_fract_x
_atom_site_fract_y
_atom_site_fract_z
Si Si1 0.000000 0.000000 0.500000
Si Si2 0.998332 0.751088 0.003142
Si Si3 0.224062 0.557533 0.094862
Si Si4 0.000000 0.500000 0.891440
Si Si5 0.731965 0.758841 0.163916
Si Si6 0.474361 0.332141 0.765397
O O1 0.080869 0.873118 0.547545
O O2 0.084349 0.644229 0.058920
O O3 0.864242 0.867057 0.024337
O O4 0.947072 0.638074 0.941709
O O5 0.228115 0.370454 0.106753
O O6 0.238597 0.610221 0.173935
O O7 0.855255 0.424596 0.851057
O O8 0.732687 0.645806 0.230917
O O9 0.840313 0.894046 0.191874
O O10 0.500000 0.500000 0.795775
#
# Coordination Sequence:
#
# PCOD9556301 Si02
#       6
#     2   8   8   4   8   8
#     4  12  20  44  88 124 164 220 300 330 440 544
#     4  11  29  52  81 126 175 222 288 371 438 518
#     4  10  24  46  83 122 162 222 282 350 434 518
#     4  12  28  50  82 118 170 222 286 346 434 534
#     4  10  26  47  82 120 158 230 279 350 424 515
#     4  10  24  48  78 118 158 219 276 345 424 514
#
# _framework density 25.903877999999999
#
# number of rings (size 3 to 8) (size 9 to 14) (size 15 to 20)
#    1.263    0.211    1.053    1.263   14.737    0.000 
#    7.579    3.158    0.000    0.000    0.000    0.000 
#    0.000    0.000    0.000    0.000    0.000    0.000 
#
# Total GULP energy -211835.717636 kJ/mol
# GULP energy per Si atom -5574.624148 kJ/mol
# Density = 2.584492 g / cm^3
# Si number density = 25.903878 Si / 1000 Ang^3
#
#
#
# Elastic Constant Matrix: (Units=GPa)
#
#
# Indices 1 2 3 4 5 6 
#
# 1 125.0469 44.7469 43.4599 0.0000 0.0000 0.0000
# 2 44.7469 125.0469 43.4599 0.0000 0.0000 0.0000
# 3 43.4599 43.4599 96.8833 0.0000 0.0000 0.0000
# 4 0.0000 0.0000 0.0000 -96.6261 0.0000 0.0000
# 5 0.0000 0.0000 0.0000 0.0000 -96.6261 0.0000
# 6 0.0000 0.0000 0.0000 0.0000 0.0000 52.6149
#
#
#
# Elastic Compliance Matrix: (Units=1/GPa)
#
#
# Indices 1 2 3 4 5 6 
#
# 1 0.010049 -0.002404 -0.003429 0.000000 0.000000 0.000000
# 2 -0.002404 0.010049 -0.003429 0.000000 0.000000 0.000000
# 3 -0.003429 -0.003429 0.013398 0.000000 0.000000 0.000000
# 4 0.000000 0.000000 0.000000 -0.010349 0.000000 0.000000
# 5 0.000000 0.000000 0.000000 0.000000 -0.010349 0.000000
# 6 0.000000 0.000000 0.000000 0.000000 0.000000 0.019006
#
#
# Mechanical properties :
#
#
# Convention : Reuss Voigt Hill
#
# Bulk Modulus (GPa) = 66.79632 67.81225 67.30429
# Shear Modulus (GPa) = 90.38210 -13.77342 38.30434
#
# Velocity S-wave (km/s) = 5.91330 -2.30839 3.84957
# Velocity P-wave (km/s) = 8.51264 4.37383 6.76740
#
# Compressibility (1/GPa) = 0.01497088
#
# Stress axis : x y z
#
# Youngs Moduli (GPa) = 99.51056 99.51056 74.63558
#
# Poissons Ratio (x) = 0.23924 0.25596
# Poissons Ratio (y) = 0.23924 0.25596
# Poissons Ratio (z) = 0.34126 0.34126
#
# Static dielectric constant tensor:
#      x y z
#    x 2.933200 0.000000 0.000000 
#    y 0.000000 2.933200 0.000000 
#    z 0.000000 0.000000 2.076830 
# 
# From -- ./inp_files/3452.got.cif
#   From: 2010.05.17/outbox.cif.g08.bks.cpg/sg114_2_cif.got.tgz:3452.got - 2010.05.20 11:04:54.
