data_PCOD9556180
_publ_section_title
;
Structure prediction by ZEFSAII (Michael W. Deem and Ramdas Pophale) SiO2 
 PCOD9556180
Probable space group: P -4 21 C
;
_chemical_formula_sum "Si O2"
_cell_formula_units_Z 40
_cell_length_a 11.441887
_cell_length_b 11.441887
_cell_length_c 15.687173
_cell_angle_alpha 90.000000
_cell_angle_beta 90.000000
_cell_angle_gamma 90.000000
_cell_volume 2053.714147
_symmetry_space_group_name_H-M "P -4 21 C"
_symmetry_group_IT_number 114
_symmetry_cell_setting 'tetragonal'
loop_
_space_group_symop_operation_xyz
x,y,z
y,-x,-z
-x,-y,z
-y,x,-z
1/2+x,1/2-y,1/2-z
1/2-x,1/2+y,1/2-z
1/2-y,1/2-x,1/2+z
1/2+y,1/2+x,1/2+z
loop_
_atom_site_type_symbol
_atom_site_label
_atom_site_fract_x
_atom_site_fract_y
_atom_site_fract_z
Si Si1 0.868254 0.696691 0.142840
Si Si2 0.206519 0.617136 0.858451
Si Si3 0.569586 0.836742 0.812807
Si Si4 0.933676 0.876990 0.288843
Si Si5 0.458352 0.132298 0.480846
O O1 0.729863 0.711641 0.144056
O O2 0.880789 0.563938 0.177705
O O3 0.920542 0.796765 0.204022
O O4 0.926781 0.703593 0.048793
O O5 0.127102 0.617397 0.773877
O O6 0.291168 0.503535 0.854679
O O7 0.120744 0.647396 0.936774
O O8 0.585873 0.697151 0.813984
O O9 0.638613 0.882186 0.895167
O O10 0.000000 0.000000 0.275420
O O11 0.500000 0.000000 0.491010
#
# Coordination Sequence:
#
# PCOD9556180 Si02
#       5
#     8   8   8   8   8
#     4  10  22  44  64  93 136 166 223 274 327 405
#     4  11  23  41  68  97 126 178 215 273 343 381
#     4  10  22  42  66  93 130 170 220 278 326 400
#     4  11  22  41  68  96 129 171 222 273 336 389
#     4  10  23  40  64  96 127 167 219 268 326 406
#
# _framework density 19.476908000000002
#
# number of rings (size 3 to 8) (size 9 to 14) (size 15 to 20)
#    0.000    1.600    4.000    0.000    2.800    3.200 
#   10.800    0.000    0.000    0.000    0.000    0.000 
#    0.000    0.000    0.000    0.000    0.000    0.000 
#
# Total GULP energy -222751.997723 kJ/mol
# GULP energy per Si atom -5568.799943 kJ/mol
# Density = 1.943258 g / cm^3
# Si number density = 19.476908 Si / 1000 Ang^3
#
#
#
# Elastic Constant Matrix: (Units=GPa)
#
#
# Indices 1 2 3 4 5 6 
#
# 1 78.3399 25.3520 19.6037 0.0000 0.0000 0.0000
# 2 25.3520 78.3399 19.6037 0.0000 0.0000 0.0000
# 3 19.6037 19.6037 96.6826 0.0000 0.0000 0.0000
# 4 0.0000 0.0000 0.0000 20.8349 0.0000 0.0000
# 5 0.0000 0.0000 0.0000 0.0000 20.8349 0.0000
# 6 0.0000 0.0000 0.0000 0.0000 0.0000 25.4307
#
#
#
# Elastic Compliance Matrix: (Units=1/GPa)
#
#
# Indices 1 2 3 4 5 6 
#
# 1 0.014658 -0.004214 -0.002118 0.000000 0.000000 0.000000
# 2 -0.004214 0.014658 -0.002118 0.000000 0.000000 0.000000
# 3 -0.002118 -0.002118 0.011202 0.000000 0.000000 0.000000
# 4 0.000000 0.000000 0.000000 0.047996 0.000000 0.000000
# 5 0.000000 0.000000 0.000000 0.000000 0.047996 0.000000
# 6 0.000000 0.000000 0.000000 0.000000 0.000000 0.039323
#
#
# Mechanical properties :
#
#
# Convention : Reuss Voigt Hill
#
# Bulk Modulus (GPa) = 42.33669 42.49791 42.41730
# Shear Modulus (GPa) = 24.92441 26.00695 25.46568
#
# Velocity S-wave (km/s) = 3.58116 3.65810 3.61983
# Velocity P-wave (km/s) = 6.23567 6.30153 6.26869
#
# Compressibility (1/GPa) = 0.02362017
#
# Stress axis : x y z
#
# Youngs Moduli (GPa) = 68.21986 68.21986 89.27008
#
# Poissons Ratio (x) = 0.28746 0.18906
# Poissons Ratio (y) = 0.28746 0.18906
# Poissons Ratio (z) = 0.14448 0.14448
#
# Static dielectric constant tensor:
#      x y z
#    x 1.638840 0.000000 0.000000 
#    y 0.000000 1.638840 0.000000 
#    z 0.000000 0.000000 1.695680 
# 
# From -- ./inp_files/2122.got.cif
#   From: 2010.05.17/outbox.cif.g08.bks.cpg/sg114_2_cif.got.tgz:2122.got - 2010.05.20 11:04:54.
