data_PCOD9556090
_publ_section_title
;
Structure prediction by ZEFSAII (Michael W. Deem and Ramdas Pophale) SiO2 
 PCOD9556090
Probable space group: P -4 21 C
;
_chemical_formula_sum "Si O2"
_cell_formula_units_Z 48
_cell_length_a 8.338684
_cell_length_b 8.338684
_cell_length_c 29.698014
_cell_angle_alpha 90.000000
_cell_angle_beta 90.000000
_cell_angle_gamma 90.000000
_cell_volume 2065.011336
_symmetry_space_group_name_H-M "P -4 21 C"
_symmetry_group_IT_number 114
_symmetry_cell_setting 'tetragonal'
loop_
_space_group_symop_operation_xyz
x,y,z
y,-x,-z
-x,-y,z
-y,x,-z
1/2+x,1/2-y,1/2-z
1/2-x,1/2+y,1/2-z
1/2-y,1/2-x,1/2+z
1/2+y,1/2+x,1/2+z
loop_
_atom_site_type_symbol
_atom_site_label
_atom_site_fract_x
_atom_site_fract_y
_atom_site_fract_z
Si Si1 0.174395 0.751842 0.136758
Si Si2 0.500000 0.000000 0.796591
Si Si3 0.815714 0.953339 0.440778
Si Si4 0.000000 0.000000 0.741671
Si Si5 0.895021 0.771531 0.071757
Si Si6 0.910037 0.336339 0.986826
Si Si7 0.812338 0.700509 0.779051
O O1 0.279311 0.678398 0.096925
O O2 0.289099 0.859234 0.168160
O O3 0.103706 0.613709 0.170450
O O4 0.011476 0.810501 0.112557
O O5 0.397294 0.896081 0.761150
O O6 0.757932 0.882390 0.488878
O O7 0.695865 0.099483 0.426432
O O8 0.000000 0.000000 0.439884
O O9 0.123590 0.120518 0.766364
O O10 0.867257 0.120841 0.719694
O O11 0.759458 0.896843 0.059076
O O12 0.997976 0.758634 0.025917
O O13 0.000000 0.500000 0.978984
#
# Coordination Sequence:
#
# PCOD9556090 Si02
#       7
#     8   4   8   4   8   8   8
#     4  11  22  44  70 103 147 192 244 306 392 440
#     4  12  22  46  72 110 144 192 258 320 388 462
#     4  10  22  36  67 108 136 181 242 310 346 438
#     4  12  24  42  70 108 138 195 255 316 374 464
#     4  10  21  41  68  98 144 187 239 301 359 451
#     4   9  21  39  66 103 138 186 241 291 370 433
#     4  12  25  43  76 105 146 198 251 316 392 468
#
# _framework density 23.244426000000001
#
# number of rings (size 3 to 8) (size 9 to 14) (size 15 to 20)
#    0.000    1.333    5.000    1.000    5.833    0.333 
#    0.000    3.333    0.000    2.000    0.000    0.000 
#    0.000    0.000    0.000    0.000    0.000    0.000 
#
# Total GULP energy -267382.943713 kJ/mol
# GULP energy per Si atom -5570.477994 kJ/mol
# Density = 2.319152 g / cm^3
# Si number density = 23.244426 Si / 1000 Ang^3
#
#
#
# Elastic Constant Matrix: (Units=GPa)
#
#
# Indices 1 2 3 4 5 6 
#
# 1 88.7473 43.9114 47.6141 0.0000 0.0000 0.0000
# 2 43.9114 88.7473 47.6141 0.0000 0.0000 0.0000
# 3 47.6141 47.6141 121.6686 0.0000 0.0000 0.0000
# 4 0.0000 0.0000 0.0000 30.6124 0.0000 0.0000
# 5 0.0000 0.0000 0.0000 0.0000 30.6124 0.0000
# 6 0.0000 0.0000 0.0000 0.0000 0.0000 33.0918
#
#
#
# Elastic Compliance Matrix: (Units=1/GPa)
#
#
# Indices 1 2 3 4 5 6 
#
# 1 0.016393 -0.005910 -0.004102 0.000000 0.000000 0.000000
# 2 -0.005910 0.016393 -0.004102 0.000000 0.000000 0.000000
# 3 -0.004102 -0.004102 0.011430 0.000000 0.000000 0.000000
# 4 0.000000 0.000000 0.000000 0.032667 0.000000 0.000000
# 5 0.000000 0.000000 0.000000 0.000000 0.032667 0.000000
# 6 0.000000 0.000000 0.000000 0.000000 0.000000 0.030219
#
#
# Mechanical properties :
#
#
# Convention : Reuss Voigt Hill
#
# Bulk Modulus (GPa) = 62.55376 64.16026 63.35701
# Shear Modulus (GPa) = 28.84709 29.53155 29.18932
#
# Velocity S-wave (km/s) = 3.52665 3.56824 3.54751
# Velocity P-wave (km/s) = 6.59945 6.68123 6.64047
#
# Compressibility (1/GPa) = 0.01598625
#
# Stress axis : x y z
#
# Youngs Moduli (GPa) = 61.00054 61.00054 87.48913
#
# Poissons Ratio (x) = 0.36053 0.35892
# Poissons Ratio (y) = 0.36053 0.35892
# Poissons Ratio (z) = 0.25025 0.25025
#
# Static dielectric constant tensor:
#      x y z
#    x 1.999330 0.000000 0.000000 
#    y 0.000000 1.999330 0.000000 
#    z 0.000000 0.000000 1.852620 
# 
# From -- ./inp_files/4034.got.cif
#   From: 2010.05.17/outbox.cif.g08.bks.cpg/sg114_3_cif.got.tgz:4034.got - 2010.05.20 11:04:54.
