data_PCOD9556459
_publ_section_title
;
Structure prediction by ZEFSAII (Michael W. Deem and Ramdas Pophale) SiO2 
 PCOD9556459
Probable space group: P -4 21 C
;
_chemical_formula_sum "Si O2"
_cell_formula_units_Z 34
_cell_length_a 8.035644
_cell_length_b 8.035644
_cell_length_c 22.005963
_cell_angle_alpha 90.000000
_cell_angle_beta 90.000000
_cell_angle_gamma 90.000000
_cell_volume 1420.959679
_symmetry_space_group_name_H-M "P -4 21 C"
_symmetry_group_IT_number 114
_symmetry_cell_setting 'tetragonal'
loop_
_space_group_symop_operation_xyz
x,y,z
y,-x,-z
-x,-y,z
-y,x,-z
1/2+x,1/2-y,1/2-z
1/2-x,1/2+y,1/2-z
1/2-y,1/2-x,1/2+z
1/2+y,1/2+x,1/2+z
loop_
_atom_site_type_symbol
_atom_site_label
_atom_site_fract_x
_atom_site_fract_y
_atom_site_fract_z
Si Si1 0.500000 0.500000 0.258985
Si Si2 0.742110 0.259543 0.189878
Si Si3 0.500000 0.000000 0.655762
Si Si4 0.500000 0.500000 0.500000
Si Si5 0.184182 0.551107 0.073999
Si Si6 0.693464 0.790852 0.558222
O O1 0.660229 0.420394 0.223193
O O2 0.410458 0.342829 0.293324
O O3 0.752285 0.307806 0.118702
O O4 0.593697 0.129775 0.196534
O O5 0.413416 0.132579 0.611685
O O6 0.625994 0.608012 0.540693
O O7 0.291175 0.384459 0.077467
O O8 0.000000 0.500000 0.094510
O O9 0.178329 0.606578 0.004161
#
# Coordination Sequence:
#
# PCOD9556459 Si02
#       6
#     4   8   4   2   8   8
#     4  12  30  55  78 108 148 200 272 343 388 452
#     4  12  29  50  80 107 147 202 261 329 394 457
#     4  12  26  46  74 114 146 196 242 310 386 478
#     4  12  20  38  64  96 152 204 236 278 344 440
#     4  12  26  42  74 108 150 198 241 303 381 461
#     4  12  24  44  68 111 157 193 238 299 371 478
#
# _framework density 23.927489000000001
#
# number of rings (size 3 to 8) (size 9 to 14) (size 15 to 20)
#    0.000    0.000    3.529    5.647    6.588    3.294 
#    0.000    0.000    0.000    0.000    0.000    0.000 
#    0.000    0.000    0.000    0.000    0.000    0.000 
#
# Total GULP energy -190223.272746 kJ/mol
# GULP energy per Si atom -5594.802140 kJ/mol
# Density = 2.387303 g / cm^3
# Si number density = 23.927489 Si / 1000 Ang^3
#
#
#
# Elastic Constant Matrix: (Units=GPa)
#
#
# Indices 1 2 3 4 5 6 
#
# 1 84.3332 19.1545 14.0177 0.0000 0.0000 0.0000
# 2 19.1545 84.3332 14.0177 0.0000 0.0000 0.0000
# 3 14.0177 14.0177 46.1780 0.0000 0.0000 0.0000
# 4 0.0000 0.0000 0.0000 48.3843 0.0000 0.0000
# 5 0.0000 0.0000 0.0000 0.0000 48.3843 0.0000
# 6 0.0000 0.0000 0.0000 0.0000 0.0000 50.6278
#
#
#
# Elastic Compliance Matrix: (Units=1/GPa)
#
#
# Indices 1 2 3 4 5 6 
#
# 1 0.012936 -0.002407 -0.003196 0.000000 0.000000 0.000000
# 2 -0.002407 0.012936 -0.003196 0.000000 0.000000 0.000000
# 3 -0.003196 -0.003196 0.023596 0.000000 0.000000 0.000000
# 4 0.000000 0.000000 0.000000 0.020668 0.000000 0.000000
# 5 0.000000 0.000000 0.000000 0.000000 0.020668 0.000000
# 6 0.000000 0.000000 0.000000 0.000000 0.000000 0.019752
#
#
# Mechanical properties :
#
#
# Convention : Reuss Voigt Hill
#
# Bulk Modulus (GPa) = 31.37850 34.35826 32.86838
# Shear Modulus (GPa) = 36.02932 40.65623 38.34278
#
# Velocity S-wave (km/s) = 3.88464 4.12654 4.00741
# Velocity P-wave (km/s) = 5.76741 6.09056 5.93119
#
# Compressibility (1/GPa) = 0.03186895
#
# Stress axis : x y z
#
# Youngs Moduli (GPa) = 77.30582 77.30582 42.38047
#
# Poissons Ratio (x) = 0.18606 0.13545
# Poissons Ratio (y) = 0.18606 0.13545
# Poissons Ratio (z) = 0.24708 0.24708
#
# Static dielectric constant tensor:
#      x y z
#    x 1.916980 0.000000 0.000000 
#    y 0.000000 1.916980 0.000000 
#    z 0.000000 0.000000 1.842190 
# 
# From -- ./inp_files/3001.got.cif
#   From: 2010.05.17/outbox.cif.g08.bks.cpg/sg114_2_cif.got.tgz:3001.got - 2010.05.20 11:04:54.
