data_PCOD9556543
_publ_section_title
;
Structure prediction by ZEFSAII (Michael W. Deem and Ramdas Pophale) SiO2 
 PCOD9556543
Probable space group: P -4 M 2
;
_chemical_formula_sum "Si O2"
_cell_formula_units_Z 48
_cell_length_a 13.951537
_cell_length_b 13.951537
_cell_length_c 13.770700
_cell_angle_alpha 90.000000
_cell_angle_beta 90.000000
_cell_angle_gamma 90.000000
_cell_volume 2680.403199
_symmetry_space_group_name_H-M "P -4 M 2"
_symmetry_group_IT_number 115
_symmetry_cell_setting 'tetragonal'
loop_
_space_group_symop_operation_xyz
x,y,z
y,-x,-z
-x,-y,z
-y,x,-z
y,x,-z
-y,-x,-z
-x,y,z
x,-y,z
loop_
_atom_site_type_symbol
_atom_site_label
_atom_site_fract_x
_atom_site_fract_y
_atom_site_fract_z
Si Si1 0.607240 0.384305 0.391636
Si Si2 0.383499 0.801580 0.695777
Si Si3 0.271113 0.114882 0.511706
Si Si4 0.611970 0.883943 0.320879
Si Si5 0.385705 0.884096 0.110890
Si Si6 0.888349 0.383360 0.098767
O O1 0.641330 0.358671 0.500000
O O2 0.500000 0.348833 0.372616
O O3 0.601450 0.500000 0.394468
O O4 0.689397 0.360184 0.316674
O O5 0.500000 0.814168 0.684342
O O6 0.328653 0.856164 0.609262
O O7 0.355024 0.836624 0.802425
O O8 0.172040 0.172040 0.500000
O O9 0.332859 0.145633 0.417153
O O10 0.258865 0.000000 0.510384
O O11 0.500000 0.859353 0.328928
O O12 0.651948 0.851202 0.215832
O O13 0.616034 0.000000 0.318710
O O14 0.500000 0.865266 0.114533
O O15 0.375646 0.000000 0.107104
O O16 0.349294 0.848933 0.006058
O O17 0.885553 0.500000 0.095417
O O18 0.000000 0.355935 0.106621
#
# Coordination Sequence:
#
# PCOD9556543 Si02
#       6
#     8   8   8   8   8   8
#     4   8  14  25  40  59  89 129 165 194 226 270
#     4  10  18  28  47  75 104 129 154 192 244 293
#     4  11  23  36  49  67  94 127 164 202 242 294
#     4   8  14  27  49  74  97 121 151 194 246 290
#     4   7  10  19  38  65  96 127 154 181 225 286
#     4   8  13  21  36  64 102 135 156 180 226 287
#
# _framework density 17.907754000000001
#
# number of rings (size 3 to 8) (size 9 to 14) (size 15 to 20)
#    0.000    3.333    0.000    4.000    0.000    1.833 
#    0.000    0.833    0.000    1.000    0.000    0.000 
#    0.000    4.000    0.000   31.833    0.000    1.333 
#
# Total GULP energy -267264.891236 kJ/mol
# GULP energy per Si atom -5568.018567 kJ/mol
# Density = 1.786700 g / cm^3
# Si number density = 17.907754 Si / 1000 Ang^3
#
#
#
# Elastic Constant Matrix: (Units=GPa)
#
#
# Indices 1 2 3 4 5 6 
#
# 1 69.6606 11.2689 45.9057 0.0000 0.0000 0.0000
# 2 11.2689 69.6601 45.9055 0.0000 0.0000 0.0000
# 3 45.9057 45.9055 175.8175 0.0000 0.0000 0.0000
# 4 0.0000 0.0000 0.0000 9.7859 0.0000 0.0000
# 5 0.0000 0.0000 0.0000 0.0000 9.7859 0.0000
# 6 0.0000 0.0000 0.0000 0.0000 0.0000 12.6154
#
#
#
# Elastic Compliance Matrix: (Units=1/GPa)
#
#
# Indices 1 2 3 4 5 6 
#
# 1 0.017341 0.000216 -0.004584 0.000000 0.000000 0.000000
# 2 0.000216 0.017341 -0.004584 0.000000 0.000000 0.000000
# 3 -0.004584 -0.004584 0.008082 0.000000 0.000000 0.000000
# 4 0.000000 0.000000 0.000000 0.102187 0.000000 0.000000
# 5 0.000000 0.000000 0.000000 0.000000 0.102188 0.000000
# 6 0.000000 0.000000 0.000000 0.000000 0.000000 0.079268
#
#
# Mechanical properties :
#
#
# Convention : Reuss Voigt Hill
#
# Bulk Modulus (GPa) = 40.22677 57.92204 49.07440
# Shear Modulus (GPa) = 14.18043 20.57467 17.37755
#
# Velocity S-wave (km/s) = 2.81705 3.39326 3.11849
# Velocity P-wave (km/s) = 5.75266 6.91138 6.35847
#
# Compressibility (1/GPa) = 0.02485907
#
# Stress axis : x y z
#
# Youngs Moduli (GPa) = 57.66573 57.66538 123.73933
#
# Poissons Ratio (x) = -0.01243 0.56723
# Poissons Ratio (y) = -0.01243 0.56723
# Poissons Ratio (z) = 0.26434 0.26434
#
# Static dielectric constant tensor:
#      x y z
#    x 1.616700 0.000000 0.000000 
#    y 0.000000 1.616700 0.000000 
#    z 0.000000 0.000000 1.657910 
# 
# From -- ./inp_files/2948.got.cif
#   From: 2010.05.17/outbox.cif.g08.bks.cpg/sg115_2_cif.got.tgz:2948.got - 2010.05.20 11:07:42.
