data_PCOD9556029
_publ_section_title
;
Structure prediction by ZEFSAII (Michael W. Deem and Ramdas Pophale) SiO2 
 PCOD9556029
Probable space group: P -4 21 C
;
_chemical_formula_sum "Si O2"
_cell_formula_units_Z 40
_cell_length_a 7.363252
_cell_length_b 7.363252
_cell_length_c 27.644139
_cell_angle_alpha 90.000000
_cell_angle_beta 90.000000
_cell_angle_gamma 90.000000
_cell_volume 1498.795554
_symmetry_space_group_name_H-M "P -4 21 C"
_symmetry_group_IT_number 114
_symmetry_cell_setting 'tetragonal'
loop_
_space_group_symop_operation_xyz
x,y,z
y,-x,-z
-x,-y,z
-y,x,-z
1/2+x,1/2-y,1/2-z
1/2-x,1/2+y,1/2-z
1/2-y,1/2-x,1/2+z
1/2+y,1/2+x,1/2+z
loop_
_atom_site_type_symbol
_atom_site_label
_atom_site_fract_x
_atom_site_fract_y
_atom_site_fract_z
Si Si1 0.792658 0.949748 0.290282
Si Si2 0.026855 0.291495 0.607968
Si Si3 0.230664 0.811626 0.487749
Si Si4 0.539218 0.213705 0.682138
Si Si5 0.186390 0.384468 0.417774
O O1 0.711146 0.070159 0.334393
O O2 0.746517 0.747237 0.305164
O O3 0.758634 0.947792 0.232982
O O4 0.000000 0.000000 0.295292
O O5 0.835314 0.180675 0.597854
O O6 0.000000 0.500000 0.595418
O O7 0.184139 0.238840 0.570225
O O8 0.368943 0.733202 0.527987
O O9 0.028001 0.753941 0.501439
O O10 0.524015 0.289176 0.627820
O O11 0.500000 0.000000 0.676869
O O12 0.000000 0.500000 0.421389
#
# Coordination Sequence:
#
# PCOD9556029 Si02
#       5
#     8   8   8   8   8
#     4  11  23  37  61  89 126 171 223 271 339 405
#     4  10  21  35  59  92 128 168 221 284 330 394
#     4   9  18  32  59  94 126 165 223 276 328 400
#     4  10  21  39  60  87 126 166 215 274 332 401
#     4   9  19  36  61  86 129 172 219 271 346 407
#
# _framework density 26.688095000000001
#
# number of rings (size 3 to 8) (size 9 to 14) (size 15 to 20)
#    0.000    2.200    0.000    2.400    8.400    1.600 
#    0.000    0.000    0.000    0.000    0.000    0.000 
#    0.000    0.000    0.000    0.000    0.000    0.000 
#
# Total GULP energy -222782.884950 kJ/mol
# GULP energy per Si atom -5569.572124 kJ/mol
# Density = 2.662735 g / cm^3
# Si number density = 26.688095 Si / 1000 Ang^3
#
#
#
# Elastic Constant Matrix: (Units=GPa)
#
#
# Indices 1 2 3 4 5 6 
#
# 1 65.4233 2.0178 65.7922 0.0000 0.0000 0.0000
# 2 2.0178 65.4233 65.7922 0.0000 0.0000 0.0000
# 3 65.7922 65.7922 241.3184 0.0000 0.0000 0.0000
# 4 0.0000 0.0000 0.0000 162.4173 0.0000 0.0000
# 5 0.0000 0.0000 0.0000 0.0000 162.4173 0.0000
# 6 0.0000 0.0000 0.0000 0.0000 0.0000 19.3655
#
#
#
# Elastic Compliance Matrix: (Units=1/GPa)
#
#
# Indices 1 2 3 4 5 6 
#
# 1 0.023725 0.007954 -0.008637 0.000000 0.000000 0.000000
# 2 0.007954 0.023725 -0.008637 0.000000 0.000000 0.000000
# 3 -0.008637 -0.008637 0.008853 0.000000 0.000000 0.000000
# 4 0.000000 0.000000 0.000000 0.006157 0.000000 0.000000
# 5 0.000000 0.000000 0.000000 0.000000 0.006157 0.000000
# 6 0.000000 0.000000 0.000000 0.000000 0.000000 0.051638
#
#
# Mechanical properties :
#
#
# Convention : Reuss Voigt Hill
#
# Bulk Modulus (GPa) = 26.55040 71.04107 48.79574
# Shear Modulus (GPa) = 33.01394 84.74418 58.87906
#
# Velocity S-wave (km/s) = 3.52096 5.64114 4.70211
# Velocity P-wave (km/s) = 5.14777 8.31305 6.91398
#
# Compressibility (1/GPa) = 0.03766422
#
# Stress axis : x y z
#
# Youngs Moduli (GPa) = 42.14892 42.14892 112.95104
#
# Poissons Ratio (x) = -0.33525 0.97555
# Poissons Ratio (y) = -0.33525 0.97555
# Poissons Ratio (z) = 0.36404 0.36404
#
# Static dielectric constant tensor:
#      x y z
#    x 2.024620 0.000000 0.000000 
#    y 0.000000 2.024620 0.000000 
#    z 0.000000 0.000000 2.342520 
# 
# From -- ./inp_files/3391.got.cif
#   From: 2010.05.17/outbox.cif.g08.bks.cpg/sg114_2_cif.got.tgz:3391.got - 2010.05.20 11:04:54.
