data_PCOD9556728
_publ_section_title
;
Structure prediction by ZEFSAII (Michael W. Deem and Ramdas Pophale) SiO2 
 PCOD9556728
Probable space group: P -4 M 2
;
_chemical_formula_sum "Si O2"
_cell_formula_units_Z 40
_cell_length_a 7.517944
_cell_length_b 7.517944
_cell_length_c 31.639994
_cell_angle_alpha 90.000000
_cell_angle_beta 90.000000
_cell_angle_gamma 90.000000
_cell_volume 1788.276071
_symmetry_space_group_name_H-M "P -4 M 2"
_symmetry_group_IT_number 115
_symmetry_cell_setting 'tetragonal'
loop_
_space_group_symop_operation_xyz
x,y,z
y,-x,-z
-x,-y,z
-y,x,-z
y,x,-z
-y,-x,-z
-x,y,z
x,-y,z
loop_
_atom_site_type_symbol
_atom_site_label
_atom_site_fract_x
_atom_site_fract_y
_atom_site_fract_z
Si Si1 0.788049 0.298864 0.862505
Si Si2 0.286488 0.000000 0.701955
Si Si3 0.295171 0.718062 0.362433
Si Si4 0.285643 0.705597 0.954971
Si Si5 0.787208 0.000000 0.800799
Si Si6 0.290285 0.716859 0.545357
O O1 0.714189 0.500000 0.861272
O O2 0.758749 0.217836 0.909275
O O3 0.000000 0.312615 0.857333
O O4 0.717760 0.172802 0.825643
O O5 0.223138 0.171486 0.675802
O O6 0.244001 0.000000 0.751119
O O7 0.500000 0.000000 0.698960
O O8 0.500000 0.771557 0.357038
O O9 0.293413 0.500000 0.363685
O O10 0.228429 0.779488 0.408768
O O11 0.500000 0.704451 0.958232
O O12 0.222960 0.500000 0.952523
O O13 0.220008 0.779993 0.000000
O O14 0.000000 0.000000 0.806629
O O15 0.219035 0.780966 0.500000
O O16 0.500000 0.761956 0.545151
O O17 0.278871 0.500000 0.545312
#
# Coordination Sequence:
#
# PCOD9556728 Si02
#       6
#     8   4   8   8   4   8
#     4   9  18  34  53  70  94 126 161 204 248 293
#     4  10  20  32  48  72  96 120 160 210 252 293
#     4   8  14  25  41  65  98 127 153 196 250 298
#     4   8  14  27  48  73 101 130 157 187 231 288
#     4  10  22  38  52  68  94 126 168 206 248 301
#     4   7   9  15  31  57  87 118 150 179 216 277
#
# _framework density 22.367910999999999
#
# number of rings (size 3 to 8) (size 9 to 14) (size 15 to 20)
#    0.000    3.600    0.000    2.400    0.000    1.600 
#    1.800    0.000    0.000    0.000    2.600    0.000 
#    0.000    0.000    0.000    0.000    0.000    0.000 
#
# Total GULP energy -222959.411122 kJ/mol
# GULP energy per Si atom -5573.985278 kJ/mol
# Density = 2.231700 g / cm^3
# Si number density = 22.367911 Si / 1000 Ang^3
#
#
#
# Elastic Constant Matrix: (Units=GPa)
#
#
# Indices 1 2 3 4 5 6 
#
# 1 71.9598 13.7303 49.6195 0.0000 0.0000 0.0000
# 2 13.7303 71.9600 49.6195 0.0000 0.0000 0.0000
# 3 49.6195 49.6195 270.0758 0.0000 0.0000 0.0000
# 4 0.0000 0.0000 0.0000 280.8203 0.0000 0.0000
# 5 0.0000 0.0000 0.0000 0.0000 280.8124 0.0000
# 6 0.0000 0.0000 0.0000 0.0000 0.0000 -3.9640
#
#
#
# Elastic Compliance Matrix: (Units=1/GPa)
#
#
# Indices 1 2 3 4 5 6 
#
# 1 0.015999 -0.001175 -0.002724 0.000000 0.000000 0.000000
# 2 -0.001175 0.015999 -0.002724 0.000000 0.000000 0.000000
# 3 -0.002724 -0.002724 0.004703 0.000000 0.000000 0.000000
# 4 0.000000 0.000000 0.000000 0.003561 0.000000 0.000000
# 5 0.000000 0.000000 0.000000 0.000000 0.003561 0.000000
# 6 0.000000 0.000000 0.000000 0.000000 0.000000 -0.252271
#
#
# Mechanical properties :
#
#
# Convention : Reuss Voigt Hill
#
# Bulk Modulus (GPa) = 42.63035 71.10382 56.86709
# Shear Modulus (GPa) = -26.68295 131.60217 52.45961
#
# Velocity S-wave (km/s) = -3.45760 7.67874 4.84809
# Velocity P-wave (km/s) = 1.77766 10.51069 7.53773
#
# Compressibility (1/GPa) = 0.02345746
#
# Stress axis : x y z
#
# Youngs Moduli (GPa) = 62.50473 62.50497 212.61080
#
# Poissons Ratio (x) = 0.07342 0.57906
# Poissons Ratio (y) = 0.07342 0.57906
# Poissons Ratio (z) = 0.17024 0.17024
#
# Static dielectric constant tensor:
#      x y z
#    x 1.571340 0.000000 0.000000 
#    y 0.000000 1.571330 0.000000 
#    z 0.000000 0.000000 1.833330 
# 
# From -- ./inp_files/5525.got.cif
#   From: 2010.05.17/outbox.cif.g08.bks.cpg/sg115_3_cif.got.tgz:5525.got - 2010.05.20 11:07:42.
