data_PCOD9556294
_publ_section_title
;
Structure prediction by ZEFSAII (Michael W. Deem and Ramdas Pophale) SiO2 
 PCOD9556294
Probable space group: P -4 21 C
;
_chemical_formula_sum "Si O2"
_cell_formula_units_Z 40
_cell_length_a 13.256572
_cell_length_b 13.256572
_cell_length_c 9.135266
_cell_angle_alpha 90.000000
_cell_angle_beta 90.000000
_cell_angle_gamma 90.000000
_cell_volume 1605.401511
_symmetry_space_group_name_H-M "P -4 21 C"
_symmetry_group_IT_number 114
_symmetry_cell_setting 'tetragonal'
loop_
_space_group_symop_operation_xyz
x,y,z
y,-x,-z
-x,-y,z
-y,x,-z
1/2+x,1/2-y,1/2-z
1/2-x,1/2+y,1/2-z
1/2-y,1/2-x,1/2+z
1/2+y,1/2+x,1/2+z
loop_
_atom_site_type_symbol
_atom_site_label
_atom_site_fract_x
_atom_site_fract_y
_atom_site_fract_z
Si Si1 0.000000 0.000000 0.500000
Si Si2 0.107004 0.117299 0.267779
Si Si3 0.000000 0.500000 0.164591
Si Si4 0.500000 0.500000 0.500000
Si Si5 0.919131 0.301701 0.017737
Si Si6 0.966287 0.723975 0.755772
Si Si7 0.778540 0.246888 0.279897
O O1 0.907843 0.026728 0.607878
O O2 0.160969 0.225032 0.258788
O O3 0.208857 0.055150 0.311876
O O4 0.059539 0.073795 0.115595
O O5 0.896653 0.529637 0.246090
O O6 0.960767 0.407091 0.071128
O O7 0.828212 0.310474 0.900447
O O8 0.013311 0.254620 0.928404
O O9 0.863500 0.249356 0.153384
O O10 0.868486 0.767897 0.679776
#
# Coordination Sequence:
#
# PCOD9556294 Si02
#       7
#     2   8   4   2   8   8   8
#     4  10  24  46  68 102 144 186 244 310 372 446
#     4  10  24  47  70 108 143 195 253 306 380 458
#     4  12  24  50  74 114 154 196 254 318 384 452
#     4  10  24  46  76 102 160 202 248 314 384 470
#     4  11  25  49  71 112 146 194 254 310 379 466
#     4  11  27  46  75 109 149 201 249 318 383 447
#     4  11  27  48  74 106 149 195 256 312 381 458
#
# _framework density 24.915886
#
# number of rings (size 3 to 8) (size 9 to 14) (size 15 to 20)
#    0.000    1.200    4.000    0.600   11.200    1.600 
#    7.200    0.000    0.000    0.000    0.000    0.000 
#    0.000    0.000    0.000    0.000    0.000    0.000 
#
# Total GULP energy -223153.291595 kJ/mol
# GULP energy per Si atom -5578.832290 kJ/mol
# Density = 2.485918 g / cm^3
# Si number density = 24.915886 Si / 1000 Ang^3
#
#
#
# Elastic Constant Matrix: (Units=GPa)
#
#
# Indices 1 2 3 4 5 6 
#
# 1 84.9806 4.8005 19.9437 0.0000 0.0000 0.0000
# 2 4.8005 84.9806 19.9437 0.0000 0.0000 0.0000
# 3 19.9437 19.9437 89.5386 0.0000 0.0000 0.0000
# 4 0.0000 0.0000 0.0000 23.9653 0.0000 0.0000
# 5 0.0000 0.0000 0.0000 0.0000 23.9653 0.0000
# 6 0.0000 0.0000 0.0000 0.0000 0.0000 32.1875
#
#
#
# Elastic Compliance Matrix: (Units=1/GPa)
#
#
# Indices 1 2 3 4 5 6 
#
# 1 0.012417 -0.000055 -0.002753 0.000000 0.000000 0.000000
# 2 -0.000055 0.012417 -0.002753 0.000000 0.000000 0.000000
# 3 -0.002753 -0.002753 0.012395 0.000000 0.000000 0.000000
# 4 0.000000 0.000000 0.000000 0.041727 0.000000 0.000000
# 5 0.000000 0.000000 0.000000 0.000000 0.041727 0.000000
# 6 0.000000 0.000000 0.000000 0.000000 0.000000 0.031068
#
#
# Mechanical properties :
#
#
# Convention : Reuss Voigt Hill
#
# Bulk Modulus (GPa) = 38.30779 38.76395 38.53587
# Shear Modulus (GPa) = 29.14166 30.34441 29.74303
#
# Velocity S-wave (km/s) = 3.42365 3.49359 3.45880
# Velocity P-wave (km/s) = 5.57106 5.64493 5.60812
#
# Compressibility (1/GPa) = 0.02610435
#
# Stress axis : x y z
#
# Youngs Moduli (GPa) = 80.53680 80.53680 80.67815
#
# Poissons Ratio (x) = 0.00445 0.22214
# Poissons Ratio (y) = 0.00445 0.22214
# Poissons Ratio (z) = 0.22175 0.22175
#
# Static dielectric constant tensor:
#      x y z
#    x 2.043470 0.000000 0.000000 
#    y 0.000000 2.043470 0.000000 
#    z 0.000000 0.000000 2.033500 
# 
# From -- ./inp_files/843.got.cif
#   From: 2010.05.17/outbox.cif.g08.bks.cpg/sg114_1_cif.got.tgz:843.got - 2010.05.20 11:04:54.
