data_PCOD9556622
_publ_section_title
;
Structure prediction by ZEFSAII (Michael W. Deem and Ramdas Pophale) SiO2 
 PCOD9556622
Probable space group: P -4 M 2
;
_chemical_formula_sum "Si O2"
_cell_formula_units_Z 48
_cell_length_a 13.901227
_cell_length_b 13.901227
_cell_length_c 14.603725
_cell_angle_alpha 90.000000
_cell_angle_beta 90.000000
_cell_angle_gamma 90.000000
_cell_volume 2822.083871
_symmetry_space_group_name_H-M "P -4 M 2"
_symmetry_group_IT_number 115
_symmetry_cell_setting 'tetragonal'
loop_
_space_group_symop_operation_xyz
x,y,z
y,-x,-z
-x,-y,z
-y,x,-z
y,x,-z
-y,-x,-z
-x,y,z
x,-y,z
loop_
_atom_site_type_symbol
_atom_site_label
_atom_site_fract_x
_atom_site_fract_y
_atom_site_fract_z
Si Si1 0.735672 0.113286 0.963533
Si Si2 0.246744 0.887629 0.289717
Si Si3 0.282333 0.886843 0.746787
Si Si4 0.116218 0.392994 0.870709
Si Si5 0.787773 0.610342 0.586134
Si Si6 0.609276 0.264824 0.626835
O O1 0.715685 0.127168 0.856458
O O2 0.755699 0.000000 0.977619
O O3 0.824255 0.175746 0.000000
O O4 0.645903 0.139609 0.028464
O O5 0.153324 0.820604 0.288244
O O6 0.313917 0.855392 0.204148
O O7 0.314320 0.865840 0.376794
O O8 0.224544 0.000000 0.281512
O O9 0.358788 0.818559 0.696406
O O10 0.295267 0.000000 0.727690
O O11 0.154188 0.500000 0.853434
O O12 0.000000 0.397739 0.864378
O O13 0.808120 0.500000 0.612408
O O14 0.776974 0.614517 0.476591
O O15 0.687024 0.649255 0.627988
O O16 0.500000 0.296400 0.643213
#
# Coordination Sequence:
#
# PCOD9556622 Si02
#       6
#     8   8   8   8   8   8
#     4  10  19  32  49  71  98 130 168 208 254 307
#     4  10  19  32  50  73 101 132 169 212 255 301
#     4  10  21  34  50  72 102 138 174 212 254 305
#     4   9  17  29  46  69  95 122 157 204 255 301
#     4   9  18  33  54  79 104 132 169 211 256 305
#     4   9  19  35  53  76 106 136 168 210 257 305
#
# _framework density 17.008707999999999
#
# number of rings (size 3 to 8) (size 9 to 14) (size 15 to 20)
#    0.000    2.500    1.667    0.500    0.000    3.500 
#    0.000    6.667    0.000    0.000    0.000    4.667 
#    0.000    0.333    0.000    0.000    0.000    0.000 
#
# Total GULP energy -267451.768522 kJ/mol
# GULP energy per Si atom -5571.911844 kJ/mol
# Density = 1.697000 g / cm^3
# Si number density = 17.008708 Si / 1000 Ang^3
#
#
#
# Elastic Constant Matrix: (Units=GPa)
#
#
# Indices 1 2 3 4 5 6 
#
# 1 41.4453 -7.8335 9.3254 0.0000 0.0000 0.0000
# 2 -7.8335 41.4457 9.3244 0.0000 0.0000 0.0000
# 3 9.3254 9.3244 39.9927 0.0000 0.0000 0.0000
# 4 0.0000 0.0000 0.0000 18.4649 0.0000 0.0000
# 5 0.0000 0.0000 0.0000 0.0000 18.4648 0.0000
# 6 0.0000 0.0000 0.0000 0.0000 0.0000 10.2342
#
#
#
# Elastic Compliance Matrix: (Units=1/GPa)
#
#
# Indices 1 2 3 4 5 6 
#
# 1 0.027233 0.006940 -0.007968 0.000000 0.000000 0.000000
# 2 0.006940 0.027232 -0.007967 0.000000 0.000000 0.000000
# 3 -0.007968 -0.007967 0.028720 0.000000 0.000000 0.000000
# 4 0.000000 0.000000 0.000000 0.054157 0.000000 0.000000
# 5 0.000000 0.000000 0.000000 0.000000 0.054157 0.000000
# 6 0.000000 0.000000 0.000000 0.000000 0.000000 0.097712
#
#
# Mechanical properties :
#
#
# Convention : Reuss Voigt Hill
#
# Bulk Modulus (GPa) = 15.33892 16.05735 15.69814
# Shear Modulus (GPa) = 15.20065 16.90394 16.05230
#
# Velocity S-wave (km/s) = 2.99272 3.15594 3.07542
# Velocity P-wave (km/s) = 4.58036 4.76877 4.67551
#
# Compressibility (1/GPa) = 0.06519364
#
# Stress axis : x y z
#
# Youngs Moduli (GPa) = 36.72049 36.72132 34.81878
#
# Poissons Ratio (x) = -0.25484 0.27744
# Poissons Ratio (y) = -0.25483 0.27742
# Poissons Ratio (z) = 0.29259 0.29257
#
# Static dielectric constant tensor:
#      x y z
#    x 1.565550 0.000000 0.000000 
#    y 0.000000 1.565550 0.000000 
#    z 0.000000 0.000000 1.595550 
# 
# From -- ./inp_files/2991.got.cif
#   From: 2010.05.17/outbox.cif.g08.bks.cpg/sg115_2_cif.got.tgz:2991.got - 2010.05.20 11:07:42.
