data_PCOD9556751
_publ_section_title
;
Structure prediction by ZEFSAII (Michael W. Deem and Ramdas Pophale) SiO2 
 PCOD9556751
Probable space group: P -4 M 2
;
_chemical_formula_sum "Si O2"
_cell_formula_units_Z 48
_cell_length_a 9.555834
_cell_length_b 9.555834
_cell_length_c 31.536609
_cell_angle_alpha 90.000000
_cell_angle_beta 90.000000
_cell_angle_gamma 90.000000
_cell_volume 2879.732761
_symmetry_space_group_name_H-M "P -4 M 2"
_symmetry_group_IT_number 115
_symmetry_cell_setting 'tetragonal'
loop_
_space_group_symop_operation_xyz
x,y,z
y,-x,-z
-x,-y,z
-y,x,-z
y,x,-z
-y,-x,-z
-x,y,z
x,-y,z
loop_
_atom_site_type_symbol
_atom_site_label
_atom_site_fract_x
_atom_site_fract_y
_atom_site_fract_z
Si Si1 0.168278 0.164988 0.286983
Si Si2 0.667180 0.334218 0.216035
Si Si3 0.833583 0.833386 0.951958
Si Si4 0.169985 0.660404 0.369045
Si Si5 0.834789 0.332120 0.464646
Si Si6 0.333892 0.334280 0.881665
O O1 0.246496 0.242604 0.248903
O O2 0.212102 0.237681 0.331227
O O3 0.000000 0.182647 0.282687
O O4 0.198236 0.000000 0.287358
O O5 0.500000 0.314002 0.221318
O O6 0.695203 0.500000 0.222295
O O7 0.702449 0.298984 0.167131
O O8 0.751129 0.751772 0.916043
O O9 0.000000 0.809152 0.947915
O O10 0.810553 0.000000 0.948027
O O11 0.792072 0.792072 0.000000
O O12 0.215763 0.500000 0.361046
O O13 0.212431 0.703454 0.416564
O O14 0.000000 0.658133 0.369841
O O15 0.747543 0.252457 0.500000
O O16 0.820888 0.500000 0.468859
O O17 0.000000 0.298634 0.468585
O O18 0.500000 0.311302 0.886971
O O19 0.307906 0.500000 0.886776
#
# Coordination Sequence:
#
# PCOD9556751 Si02
#       6
#     8   8   8   8   8   8
#     4  10  20  32  49  76 104 127 158 202 247 291
#     4   9  19  36  54  71  96 131 167 201 241 291
#     4   9  19  35  52  72 101 134 165 199 241 289
#     4   8  15  30  50  69  93 128 166 201 238 283
#     4   9  18  32  50  73  99 127 162 202 242 287
#     4   9  19  35  53  74  99 127 163 206 246 286
#
# _framework density 16.668213999999999
#
# number of rings (size 3 to 8) (size 9 to 14) (size 15 to 20)
#    0.000    3.000    0.000    3.000    0.000    5.000 
#    0.000   10.000    0.000    1.000    0.000    0.000 
#    0.000    0.000    0.000    0.000    0.000    0.000 
#
# Total GULP energy -267530.805964 kJ/mol
# GULP energy per Si atom -5573.558458 kJ/mol
# Density = 1.663028 g / cm^3
# Si number density = 16.668214 Si / 1000 Ang^3
#
#
#
# Elastic Constant Matrix: (Units=GPa)
#
#
# Indices 1 2 3 4 5 6 
#
# 1 58.6414 54.2867 93.9618 0.0000 0.0000 0.0000
# 2 54.2867 58.6414 93.9618 0.0000 0.0000 0.0000
# 3 93.9618 93.9618 198.7674 0.0000 0.0000 0.0000
# 4 0.0000 0.0000 0.0000 36.5701 0.0000 0.0000
# 5 0.0000 0.0000 0.0000 0.0000 36.5701 0.0000
# 6 0.0000 0.0000 0.0000 0.0000 0.0000 31.4685
#
#
#
# Elastic Compliance Matrix: (Units=1/GPa)
#
#
# Indices 1 2 3 4 5 6 
#
# 1 0.135570 -0.094063 -0.019621 0.000000 0.000000 0.000000
# 2 -0.094063 0.135570 -0.019621 0.000000 0.000000 0.000000
# 3 -0.019621 -0.019621 0.023582 0.000000 0.000000 0.000000
# 4 0.000000 0.000000 0.000000 0.027345 0.000000 0.000000
# 5 0.000000 0.000000 0.000000 0.000000 0.027345 0.000000
# 6 0.000000 0.000000 0.000000 0.000000 0.000000 0.031778
#
#
# Mechanical properties :
#
#
# Convention : Reuss Voigt Hill
#
# Bulk Modulus (GPa) = 35.57372 88.94121 62.25747
# Shear Modulus (GPa) = 7.60837 25.84442 16.72639
#
# Velocity S-wave (km/s) = 2.13881 3.94194 3.17123
# Velocity P-wave (km/s) = 5.24289 8.61360 7.13029
#
# Compressibility (1/GPa) = 0.02811064
#
# Stress axis : x y z
#
# Youngs Moduli (GPa) = 7.37625 7.37625 42.40553
#
# Poissons Ratio (x) = 0.69383 0.83205
# Poissons Ratio (y) = 0.69383 0.83205
# Poissons Ratio (z) = 0.14473 0.14473
#
# Static dielectric constant tensor:
#      x y z
#    x 1.545840 0.000000 0.000000 
#    y 0.000000 1.545840 0.000000 
#    z 0.000000 0.000000 1.554340 
# 
# From -- ./inp_files/5985.got.cif
#   From: 2010.05.17/outbox.cif.g08.bks.cpg/sg115_3_cif.got.tgz:5985.got - 2010.05.20 11:07:42.
