data_PCOD9556967
_publ_section_title
;
Structure prediction by ZEFSAII (Michael W. Deem and Ramdas Pophale) SiO2 
 PCOD9556967
Probable space group: P -4 M 2
;
_chemical_formula_sum "Si O2"
_cell_formula_units_Z 44
_cell_length_a 9.208077
_cell_length_b 9.208077
_cell_length_c 29.516236
_cell_angle_alpha 90.000000
_cell_angle_beta 90.000000
_cell_angle_gamma 90.000000
_cell_volume 2502.642749
_symmetry_space_group_name_H-M "P -4 M 2"
_symmetry_group_IT_number 115
_symmetry_cell_setting 'tetragonal'
loop_
_space_group_symop_operation_xyz
x,y,z
y,-x,-z
-x,-y,z
-y,x,-z
y,x,-z
-y,-x,-z
-x,y,z
x,-y,z
loop_
_atom_site_type_symbol
_atom_site_label
_atom_site_fract_x
_atom_site_fract_y
_atom_site_fract_z
Si Si1 0.825389 0.671152 0.858740
Si Si2 0.832467 0.823291 0.049892
Si Si3 0.827355 0.674900 0.691259
Si Si4 0.172668 0.172668 0.500000
Si Si5 0.827919 0.327126 0.225131
Si Si6 0.331870 0.823263 0.409838
O O1 0.795215 0.500000 0.856286
O O2 0.780449 0.736157 0.907404
O O3 0.746603 0.754862 0.818447
O O4 0.000000 0.690794 0.854352
O O5 0.000000 0.776337 0.056278
O O6 0.833963 0.000000 0.048318
O O7 0.778210 0.778210 0.000000
O O8 0.809749 0.500000 0.694583
O O9 0.740051 0.754852 0.730217
O O10 0.780048 0.719607 0.640374
O O11 0.000000 0.704146 0.696204
O O12 0.227607 0.244623 0.546350
O O13 0.000000 0.197089 0.497122
O O14 0.805537 0.500000 0.223928
O O15 0.000000 0.297969 0.225192
O O16 0.500000 0.781322 0.414386
O O17 0.326685 0.000000 0.409635
#
# Coordination Sequence:
#
# PCOD9556967 Si02
#       6
#     8   8   8   4   8   8
#     4  10  20  34  54  79 104 133 171 209 246 294
#     4   8  14  27  49  75 102 133 168 206 247 288
#     4   9  18  34  56  78  98 126 167 209 249 298
#     4   9  16  26  44  71  98 124 158 197 234 276
#     4  11  24  38  51  72 102 133 166 206 254 304
#     4   8  15  29  48  70  97 127 158 195 240 288
#
# _framework density 17.581415
#
# number of rings (size 3 to 8) (size 9 to 14) (size 15 to 20)
#    0.000    2.818    0.000    3.273    0.000    5.818 
#    0.000    3.636    0.000    6.818    0.000    0.000 
#    0.000    0.000    0.000    0.000    0.000    0.000 
#
# Total GULP energy -245278.118565 kJ/mol
# GULP energy per Si atom -5574.502695 kJ/mol
# Density = 1.754140 g / cm^3
# Si number density = 17.581415 Si / 1000 Ang^3
#
#
#
# Elastic Constant Matrix: (Units=GPa)
#
#
# Indices 1 2 3 4 5 6 
#
# 1 51.2250 50.1270 76.9490 0.0000 0.0000 0.0000
# 2 50.1270 51.2250 76.9490 0.0000 0.0000 0.0000
# 3 76.9490 76.9490 220.1469 0.0000 0.0000 0.0000
# 4 0.0000 0.0000 0.0000 -57.2667 0.0000 0.0000
# 5 0.0000 0.0000 0.0000 0.0000 -57.2667 0.0000
# 6 0.0000 0.0000 0.0000 0.0000 0.0000 19.0249
#
#
#
# Elastic Compliance Matrix: (Units=1/GPa)
#
#
# Indices 1 2 3 4 5 6 
#
# 1 0.465926 -0.444900 -0.007349 0.000000 0.000000 0.000000
# 2 -0.444900 0.465926 -0.007349 0.000000 0.000000 0.000000
# 3 -0.007349 -0.007349 0.009680 0.000000 0.000000 0.000000
# 4 0.000000 0.000000 0.000000 -0.017462 0.000000 0.000000
# 5 0.000000 0.000000 0.000000 0.000000 -0.017462 0.000000
# 6 0.000000 0.000000 0.000000 0.000000 0.000000 0.052563
#
#
# Mechanical properties :
#
#
# Convention : Reuss Voigt Hill
#
# Bulk Modulus (GPa) = 44.77245 81.18300 62.97773
# Shear Modulus (GPa) = 2.65138 -11.19691 -4.27276
#
# Velocity S-wave (km/s) = 1.22936 -2.52635 -1.56062
# Velocity P-wave (km/s) = 5.24749 6.14539 5.71410
#
# Compressibility (1/GPa) = 0.02233516
#
# Stress axis : x y z
#
# Youngs Moduli (GPa) = 2.14626 2.14626 103.30359
#
# Poissons Ratio (x) = 0.95487 0.75923
# Poissons Ratio (y) = 0.95487 0.75923
# Poissons Ratio (z) = 0.01577 0.01577
#
# Static dielectric constant tensor:
#      x y z
#    x 1.584410 0.000000 0.000000 
#    y 0.000000 1.584410 0.000000 
#    z 0.000000 0.000000 1.605930 
# 
# From -- ./inp_files/5798.got.cif
#   From: 2010.05.17/outbox.cif.g08.bks.cpg/sg115_3_cif.got.tgz:5798.got - 2010.05.20 11:07:42.
