data_PCOD9556749
_publ_section_title
;
Structure prediction by ZEFSAII (Michael W. Deem and Ramdas Pophale) SiO2 
 PCOD9556749
Probable space group: P -4 M 2
;
_chemical_formula_sum "Si O2"
_cell_formula_units_Z 64
_cell_length_a 14.721656
_cell_length_b 14.721656
_cell_length_c 17.717023
_cell_angle_alpha 90.000000
_cell_angle_beta 90.000000
_cell_angle_gamma 90.000000
_cell_volume 3839.759997
_symmetry_space_group_name_H-M "P -4 M 2"
_symmetry_group_IT_number 115
_symmetry_cell_setting 'tetragonal'
loop_
_space_group_symop_operation_xyz
x,y,z
y,-x,-z
-x,-y,z
-y,x,-z
y,x,-z
-y,-x,-z
-x,y,z
x,-y,z
loop_
_atom_site_type_symbol
_atom_site_label
_atom_site_fract_x
_atom_site_fract_y
_atom_site_fract_z
Si Si1 0.609630 0.797709 0.901052
Si Si2 0.244527 0.105478 0.620817
Si Si3 0.896583 0.746863 0.200542
Si Si4 0.397306 0.110028 0.501204
Si Si5 0.266543 0.892122 0.368117
Si Si6 0.401973 0.394200 0.091133
Si Si7 0.106761 0.392945 0.943074
Si Si8 0.892984 0.743167 0.806921
O O1 0.500000 0.799861 0.895306
O O2 0.658075 0.864937 0.843849
O O3 0.643034 0.695071 0.883890
O O4 0.631869 0.829563 0.986243
O O5 0.268167 0.109020 0.709492
O O6 0.329562 0.133815 0.569339
O O7 0.162307 0.175633 0.610162
O O8 0.221271 0.000000 0.602699
O O9 0.829314 0.828837 0.179829
O O10 0.000000 0.769825 0.181655
O O11 0.500000 0.144825 0.508356
O O12 0.347947 0.136298 0.423309
O O13 0.402371 0.000000 0.501379
O O14 0.287288 0.876250 0.279696
O O15 0.251830 0.000000 0.377933
O O16 0.500000 0.352091 0.111579
O O17 0.404473 0.500000 0.115271
O O18 0.396695 0.396695 0.000000
O O19 0.118868 0.500000 0.927769
O O20 0.124972 0.333535 0.869193
O O21 0.000000 0.379850 0.964112
O O22 0.000000 0.767079 0.811889
#
# Coordination Sequence:
#
# PCOD9556749 Si02
#       8
#     8   8   8   8   8   8   8   8
#     4  10  20  32  49  72  95 124 161 199 242 293
#     4   9  18  32  48  70 100 129 158 194 238 283
#     4  10  21  34  49  69  94 127 165 205 242 280
#     4   9  17  29  47  71  98 128 157 184 221 273
#     4   9  17  30  49  73  98 124 158 197 236 283
#     4   8  15  28  45  67  93 117 146 187 238 297
#     4   9  18  32  49  70  96 126 161 201 246 295
#     4   9  19  34  50  69  95 126 159 200 246 288
#
# _framework density 16.667708999999999
#
# number of rings (size 3 to 8) (size 9 to 14) (size 15 to 20)
#    0.000    2.875    0.000    1.125    1.750    2.250 
#    0.000    6.250    0.000    3.000    0.000    1.750 
#    0.000    4.000    0.000    0.000    0.000    0.000 
#
# Total GULP energy -356533.687000 kJ/mol
# GULP energy per Si atom -5570.838859 kJ/mol
# Density = 1.662977 g / cm^3
# Si number density = 16.667709 Si / 1000 Ang^3
#
#
#
# Elastic Constant Matrix: (Units=GPa)
#
#
# Indices 1 2 3 4 5 6 
#
# 1 75.3866 34.9906 38.1916 0.0000 0.0000 0.0000
# 2 34.9906 75.3866 38.1916 0.0000 0.0000 0.0000
# 3 38.1916 38.1916 45.0664 0.0000 0.0000 0.0000
# 4 0.0000 0.0000 0.0000 23.3095 0.0000 0.0000
# 5 0.0000 0.0000 0.0000 0.0000 23.3095 0.0000
# 6 0.0000 0.0000 0.0000 0.0000 0.0000 18.6837
#
#
#
# Elastic Compliance Matrix: (Units=1/GPa)
#
#
# Indices 1 2 3 4 5 6 
#
# 1 0.023331 -0.001424 -0.018566 0.000000 0.000000 0.000000
# 2 -0.001424 0.023331 -0.018566 0.000000 0.000000 0.000000
# 3 -0.018566 -0.018566 0.053656 0.000000 0.000000 0.000000
# 4 0.000000 0.000000 0.000000 0.042901 0.000000 0.000000
# 5 0.000000 0.000000 0.000000 0.000000 0.042901 0.000000
# 6 0.000000 0.000000 0.000000 0.000000 0.000000 0.053522
#
#
# Mechanical properties :
#
#
# Convention : Reuss Voigt Hill
#
# Bulk Modulus (GPa) = 43.08654 46.50969 44.79811
# Shear Modulus (GPa) = 15.40882 18.69162 17.05022
#
# Velocity S-wave (km/s) = 3.04381 3.35240 3.20183
# Velocity P-wave (km/s) = 6.18542 6.55358 6.37216
#
# Compressibility (1/GPa) = 0.02320911
#
# Stress axis : x y z
#
# Youngs Moduli (GPa) = 42.86093 42.86093 18.63709
#
# Poissons Ratio (x) = 0.06102 0.34601
# Poissons Ratio (y) = 0.06102 0.34601
# Poissons Ratio (z) = 0.79574 0.79574
#
# Static dielectric constant tensor:
#      x y z
#    x 1.568650 0.000000 0.000000 
#    y 0.000000 1.568650 0.000000 
#    z 0.000000 0.000000 1.552200 
# 
# From -- ./inp_files/4419.got.cif
#   From: 2010.05.17/outbox.cif.g08.bks.cpg/sg115_3_cif.got.tgz:4419.got - 2010.05.20 11:07:42.
