data_PCOD9556754
_publ_section_title
;
Structure prediction by ZEFSAII (Michael W. Deem and Ramdas Pophale) SiO2 
 PCOD9556754
Probable space group: P -4 M 2
;
_chemical_formula_sum "Si O2"
_cell_formula_units_Z 48
_cell_length_a 9.580895
_cell_length_b 9.580895
_cell_length_c 31.431036
_cell_angle_alpha 90.000000
_cell_angle_beta 90.000000
_cell_angle_gamma 90.000000
_cell_volume 2885.166343
_symmetry_space_group_name_H-M "P -4 M 2"
_symmetry_group_IT_number 115
_symmetry_cell_setting 'tetragonal'
loop_
_space_group_symop_operation_xyz
x,y,z
y,-x,-z
-x,-y,z
-y,x,-z
y,x,-z
-y,-x,-z
-x,y,z
x,-y,z
loop_
_atom_site_type_symbol
_atom_site_label
_atom_site_fract_x
_atom_site_fract_y
_atom_site_fract_z
Si Si1 0.830410 0.660011 0.701512
Si Si2 0.334256 0.833918 0.964921
Si Si3 0.665896 0.335822 0.549790
Si Si4 0.832174 0.835682 0.619489
Si Si5 0.666445 0.834398 0.867741
Si Si6 0.332665 0.164862 0.202583
O O1 0.785015 0.500000 0.693510
O O2 0.788053 0.761554 0.663583
O O3 0.787900 0.702843 0.749192
O O4 0.000000 0.658044 0.702288
O O5 0.500000 0.808855 0.969546
O O6 0.294972 0.795730 0.916348
O O7 0.311579 0.000000 0.969558
O O8 0.249632 0.750369 0.000000
O O9 0.693847 0.306153 0.500000
O O10 0.500000 0.315719 0.556682
O O11 0.696373 0.500000 0.557251
O O12 0.755073 0.240637 0.580924
O O13 0.000000 0.818722 0.615322
O O14 0.801676 0.000000 0.620304
O O15 0.500000 0.813095 0.863365
O O16 0.749293 0.747360 0.833002
O O17 0.692797 0.000000 0.862695
O O18 0.500000 0.179476 0.198223
O O19 0.300048 0.000000 0.198816
#
# Coordination Sequence:
#
# PCOD9556754 Si02
#       6
#     8   8   8   8   8   8
#     4   8  15  30  50  70  96 131 167 201 239 285
#     4   9  19  35  52  71  97 128 162 201 243 288
#     4   9  19  36  55  73  95 127 167 206 243 287
#     4  10  20  32  49  76 105 130 160 200 244 290
#     4   9  19  35  51  69  98 133 164 196 240 293
#     4   9  18  32  51  76 101 125 161 207 246 284
#
# _framework density 16.636821999999999
#
# number of rings (size 3 to 8) (size 9 to 14) (size 15 to 20)
#    0.000    3.000    0.000    3.000    0.000    5.000 
#    0.000   10.000    0.000    1.000    0.000    0.000 
#    0.000    0.000    0.000    0.000    0.000    0.000 
#
# Total GULP energy -267535.664481 kJ/mol
# GULP energy per Si atom -5573.659677 kJ/mol
# Density = 1.659896 g / cm^3
# Si number density = 16.636822 Si / 1000 Ang^3
#
#
#
# Elastic Constant Matrix: (Units=GPa)
#
#
# Indices 1 2 3 4 5 6 
#
# 1 62.4827 56.5667 92.9308 0.0000 0.0000 0.0000
# 2 56.5667 62.4821 92.9305 0.0000 0.0000 0.0000
# 3 92.9308 92.9305 181.4227 0.0000 0.0000 0.0000
# 4 0.0000 0.0000 0.0000 35.9494 0.0000 0.0000
# 5 0.0000 0.0000 0.0000 0.0000 35.9493 0.0000
# 6 0.0000 0.0000 0.0000 0.0000 0.0000 31.9188
#
#
#
# Elastic Compliance Matrix: (Units=1/GPa)
#
#
# Indices 1 2 3 4 5 6 
#
# 1 0.105488 -0.063552 -0.021481 0.000000 0.000000 0.000000
# 2 -0.063552 0.105491 -0.021482 0.000000 0.000000 0.000000
# 3 -0.021481 -0.021482 0.027519 0.000000 0.000000 0.000000
# 4 0.000000 0.000000 0.000000 0.027817 0.000000 0.000000
# 5 0.000000 0.000000 0.000000 0.000000 0.027817 0.000000
# 6 0.000000 0.000000 0.000000 0.000000 0.000000 0.031330
#
#
# Mechanical properties :
#
#
# Convention : Reuss Voigt Hill
#
# Bulk Modulus (GPa) = 39.26589 87.91594 63.59092
# Shear Modulus (GPa) = 9.14107 25.02748 17.08427
#
# Velocity S-wave (km/s) = 2.34657 3.88279 3.20800
# Velocity P-wave (km/s) = 5.56731 8.54754 7.21302
#
# Compressibility (1/GPa) = 0.02546740
#
# Stress axis : x y z
#
# Youngs Moduli (GPa) = 9.47972 9.47952 36.33795
#
# Poissons Ratio (x) = 0.60244 0.78059
# Poissons Ratio (y) = 0.60245 0.78062
# Poissons Ratio (z) = 0.20364 0.20364
#
# Static dielectric constant tensor:
#      x y z
#    x 1.544450 0.000000 0.000000 
#    y 0.000000 1.544450 0.000000 
#    z 0.000000 0.000000 1.552160 
# 
# From -- ./inp_files/5918.got.cif
#   From: 2010.05.17/outbox.cif.g08.bks.cpg/sg115_3_cif.got.tgz:5918.got - 2010.05.20 11:07:42.
