data_PCOD9556143
_publ_section_title
;
Structure prediction by ZEFSAII (Michael W. Deem and Ramdas Pophale) SiO2 
 PCOD9556143
Probable space group: P -4 21 C
;
_chemical_formula_sum "Si O2"
_cell_formula_units_Z 40
_cell_length_a 17.434068
_cell_length_b 17.434068
_cell_length_c 5.011946
_cell_angle_alpha 90.000000
_cell_angle_beta 90.000000
_cell_angle_gamma 90.000000
_cell_volume 1523.364583
_symmetry_space_group_name_H-M "P -4 21 C"
_symmetry_group_IT_number 114
_symmetry_cell_setting 'tetragonal'
loop_
_space_group_symop_operation_xyz
x,y,z
y,-x,-z
-x,-y,z
-y,x,-z
1/2+x,1/2-y,1/2-z
1/2-x,1/2+y,1/2-z
1/2-y,1/2-x,1/2+z
1/2+y,1/2+x,1/2+z
loop_
_atom_site_type_symbol
_atom_site_label
_atom_site_fract_x
_atom_site_fract_y
_atom_site_fract_z
Si Si1 0.329199 0.236511 0.582474
Si Si2 0.099447 0.226805 0.895833
Si Si3 0.970492 0.272370 0.275419
Si Si4 0.118363 0.004806 0.447994
Si Si5 0.055485 0.375223 0.625023
O O1 0.316553 0.225051 0.895334
O O2 0.306798 0.321600 0.495966
O O3 0.411821 0.216188 0.464131
O O4 0.045243 0.159716 0.778284
O O5 0.105596 0.296630 0.681939
O O6 0.053619 0.263969 0.139984
O O7 0.956442 0.189273 0.403502
O O8 0.979086 0.338752 0.495062
O O9 0.069977 0.943400 0.624137
O O10 0.084248 0.436776 0.408696
#
# Coordination Sequence:
#
# PCOD9556143 Si02
#       5
#     8   8   8   8   8
#     4  12  30  48  74 108 151 194 246 308 379 438
#     4  11  24  41  70 103 152 187 251 287 364 429
#     4  11  26  43  71 105 150 193 249 303 377 437
#     4  10  22  39  64 102 153 197 237 287 354 445
#     4  11  22  41  70 104 132 179 238 302 356 418
#
# _framework density 26.257664999999999
#
# number of rings (size 3 to 8) (size 9 to 14) (size 15 to 20)
#    0.000    1.000    4.000    1.200   14.000    0.000 
#    0.000    2.000    0.000    3.600    0.000    0.000 
#    0.000    0.000    0.000    0.000    0.000    0.000 
#
# Total GULP energy -223905.418082 kJ/mol
# GULP energy per Si atom -5597.635452 kJ/mol
# Density = 2.619790 g / cm^3
# Si number density = 26.257665 Si / 1000 Ang^3
#
#
#
# Elastic Constant Matrix: (Units=GPa)
#
#
# Indices 1 2 3 4 5 6 
#
# 1 74.9150 8.7803 18.3860 0.0000 0.0000 0.0000
# 2 8.7803 74.9150 18.3860 0.0000 0.0000 0.0000
# 3 18.3860 18.3860 91.2536 0.0000 0.0000 0.0000
# 4 0.0000 0.0000 0.0000 31.0654 0.0000 0.0000
# 5 0.0000 0.0000 0.0000 0.0000 31.0654 0.0000
# 6 0.0000 0.0000 0.0000 0.0000 0.0000 37.4096
#
#
#
# Elastic Compliance Matrix: (Units=1/GPa)
#
#
# Indices 1 2 3 4 5 6 
#
# 1 0.014115 -0.001006 -0.002641 0.000000 0.000000 0.000000
# 2 -0.001006 0.014115 -0.002641 0.000000 0.000000 0.000000
# 3 -0.002641 -0.002641 0.012023 0.000000 0.000000 0.000000
# 4 0.000000 0.000000 0.000000 0.032190 0.000000 0.000000
# 5 0.000000 0.000000 0.000000 0.000000 0.032190 0.000000
# 6 0.000000 0.000000 0.000000 0.000000 0.000000 0.026731
#
#
# Mechanical properties :
#
#
# Convention : Reuss Voigt Hill
#
# Bulk Modulus (GPa) = 36.13339 36.90979 36.52159
# Shear Modulus (GPa) = 32.64451 32.94350 32.79401
#
# Velocity S-wave (km/s) = 3.52978 3.54591 3.53786
# Velocity P-wave (km/s) = 5.51393 5.55445 5.53423
#
# Compressibility (1/GPa) = 0.02767523
#
# Stress axis : x y z
#
# Youngs Moduli (GPa) = 70.84870 70.84870 83.17563
#
# Poissons Ratio (x) = 0.07128 0.21968
# Poissons Ratio (y) = 0.07128 0.21968
# Poissons Ratio (z) = 0.18712 0.18712
#
# Static dielectric constant tensor:
#      x y z
#    x 2.100620 0.000000 0.000000 
#    y 0.000000 2.100620 0.000000 
#    z 0.000000 0.000000 2.047940 
# 
# From -- ./inp_files/160.got.cif
#   From: 2010.05.17/outbox.cif.g08.bks.cpg/sg114_1_cif.got.tgz:160.got - 2010.05.20 11:04:54.
