data_PCOD9556261
_publ_section_title
;
Structure prediction by ZEFSAII (Michael W. Deem and Ramdas Pophale) SiO2 
 PCOD9556261
Probable space group: P -4 21 C
;
_chemical_formula_sum "Si O2"
_cell_formula_units_Z 48
_cell_length_a 10.877148
_cell_length_b 10.877148
_cell_length_c 16.962261
_cell_angle_alpha 90.000000
_cell_angle_beta 90.000000
_cell_angle_gamma 90.000000
_cell_volume 2006.844937
_symmetry_space_group_name_H-M "P -4 21 C"
_symmetry_group_IT_number 114
_symmetry_cell_setting 'tetragonal'
loop_
_space_group_symop_operation_xyz
x,y,z
y,-x,-z
-x,-y,z
-y,x,-z
1/2+x,1/2-y,1/2-z
1/2-x,1/2+y,1/2-z
1/2-y,1/2-x,1/2+z
1/2+y,1/2+x,1/2+z
loop_
_atom_site_type_symbol
_atom_site_label
_atom_site_fract_x
_atom_site_fract_y
_atom_site_fract_z
Si Si1 0.682566 0.076202 0.321298
Si Si2 0.635546 0.025635 0.048845
Si Si3 0.768495 0.233144 0.954816
Si Si4 0.091311 0.889281 0.218477
Si Si5 0.200432 0.683186 0.122569
Si Si6 0.710779 0.068108 0.692209
O O1 0.736738 0.171218 0.384772
O O2 0.782395 0.057147 0.251812
O O3 0.573624 0.137516 0.273314
O O4 0.649349 0.949473 0.360832
O O5 0.588107 0.114831 0.120560
O O6 0.500000 0.000000 0.011278
O O7 0.713298 0.902483 0.072171
O O8 0.731448 0.099674 0.992978
O O9 0.749906 0.314628 0.033516
O O10 0.115897 0.800352 0.143750
O O11 0.040918 0.805002 0.290682
O O12 0.000000 0.000000 0.199707
O O13 0.313355 0.703352 0.181917
#
# Coordination Sequence:
#
# PCOD9556261 Si02
#       6
#     8   8   8   8   8   8
#     4  11  24  43  73 104 150 184 252 308 374 461
#     4  11  25  47  73 108 153 200 259 315 399 467
#     4  11  26  46  72 104 151 202 249 321 381 469
#     4  11  23  44  76 108 144 195 252 315 385 462
#     4  10  24  45  67 112 142 191 253 307 387 456
#     4  10  24  41  70 104 146 191 247 313 376 452
#
# _framework density 23.918140999999999
#
# number of rings (size 3 to 8) (size 9 to 14) (size 15 to 20)
#    0.000    1.333    1.667    2.000    9.333    3.000 
#    0.000    0.000    0.000    0.000    0.000    0.000 
#    0.000    0.000    0.000    0.000    0.000    0.000 
#
# Total GULP energy -267532.817955 kJ/mol
# GULP energy per Si atom -5573.600374 kJ/mol
# Density = 2.386370 g / cm^3
# Si number density = 23.918141 Si / 1000 Ang^3
#
#
#
# Elastic Constant Matrix: (Units=GPa)
#
#
# Indices 1 2 3 4 5 6 
#
# 1 102.8171 37.5426 20.5577 0.0000 0.0000 0.0000
# 2 37.5426 102.8171 20.5577 0.0000 0.0000 0.0000
# 3 20.5577 20.5577 78.3907 0.0000 0.0000 0.0000
# 4 0.0000 0.0000 0.0000 3.8272 0.0000 0.0000
# 5 0.0000 0.0000 0.0000 0.0000 3.8272 0.0000
# 6 0.0000 0.0000 0.0000 0.0000 0.0000 41.0695
#
#
#
# Elastic Compliance Matrix: (Units=1/GPa)
#
#
# Indices 1 2 3 4 5 6 
#
# 1 0.011519 -0.003801 -0.002024 0.000000 0.000000 0.000000
# 2 -0.003801 0.011519 -0.002024 0.000000 0.000000 0.000000
# 3 -0.002024 -0.002024 0.013818 0.000000 0.000000 0.000000
# 4 0.000000 0.000000 0.000000 0.261287 0.000000 0.000000
# 5 0.000000 0.000000 0.000000 0.000000 0.261287 0.000000
# 6 0.000000 0.000000 0.000000 0.000000 0.000000 0.024349
#
#
# Mechanical properties :
#
#
# Convention : Reuss Voigt Hill
#
# Bulk Modulus (GPa) = 47.26464 49.03789 48.15126
# Shear Modulus (GPa) = 8.24363 23.43589 15.83976
#
# Velocity S-wave (km/s) = 1.85852 3.13363 2.57621
# Velocity P-wave (km/s) = 4.94058 5.79998 5.38744
#
# Compressibility (1/GPa) = 0.02115746
#
# Stress axis : x y z
#
# Youngs Moduli (GPa) = 86.81566 86.81566 72.36868
#
# Poissons Ratio (x) = 0.33001 0.14646
# Poissons Ratio (y) = 0.33001 0.14646
# Poissons Ratio (z) = 0.17570 0.17570
#
# Static dielectric constant tensor:
#      x y z
#    x 2.201050 0.000000 0.000000 
#    y 0.000000 2.201050 0.000000 
#    z 0.000000 0.000000 1.912420 
# 
# From -- ./inp_files/2641.got.cif
#   From: 2010.05.17/outbox.cif.g08.bks.cpg/sg114_2_cif.got.tgz:2641.got - 2010.05.20 11:04:54.
