data_PCOD9556166
_publ_section_title
;
Structure prediction by ZEFSAII (Michael W. Deem and Ramdas Pophale) SiO2 
 PCOD9556166
Probable space group: P -4 21 C
;
_chemical_formula_sum "Si O2"
_cell_formula_units_Z 32
_cell_length_a 9.091351
_cell_length_b 9.091351
_cell_length_c 19.013347
_cell_angle_alpha 90.000000
_cell_angle_beta 90.000000
_cell_angle_gamma 90.000000
_cell_volume 1571.503762
_symmetry_space_group_name_H-M "P -4 21 C"
_symmetry_group_IT_number 114
_symmetry_cell_setting 'tetragonal'
loop_
_space_group_symop_operation_xyz
x,y,z
y,-x,-z
-x,-y,z
-y,x,-z
1/2+x,1/2-y,1/2-z
1/2-x,1/2+y,1/2-z
1/2-y,1/2-x,1/2+z
1/2+y,1/2+x,1/2+z
loop_
_atom_site_type_symbol
_atom_site_label
_atom_site_fract_x
_atom_site_fract_y
_atom_site_fract_z
Si Si1 0.311493 0.139134 0.172250
Si Si2 0.813086 0.648123 0.778280
Si Si3 0.888265 0.137894 0.604199
Si Si4 0.160213 0.549851 0.973888
O O1 0.472340 0.175958 0.207289
O O2 0.198886 0.261860 0.201162
O O3 0.324876 0.151015 0.087088
O O4 0.285486 0.968618 0.195080
O O5 0.670587 0.701728 0.823276
O O6 0.939498 0.249480 0.545339
O O7 0.740306 0.075919 0.569843
O O8 0.000000 0.000000 0.612266
O O9 0.000000 0.500000 0.992427
#
# Coordination Sequence:
#
# PCOD9556166 Si02
#       4
#     8   8   8   8
#     4  10  22  41  63  86 128 159 205 258 311 368
#     4  10  23  41  60  93 123 164 206 258 309 378
#     4  11  21  39  66  92 117 168 214 248 313 383
#     4  11  20  40  63  89 123 157 205 261 301 371
#
# _framework density 20.362663000000001
#
# number of rings (size 3 to 8) (size 9 to 14) (size 15 to 20)
#    0.000    1.500    7.500    0.000    7.000    0.000 
#    9.000    0.000    0.000    0.750    0.000    0.000 
#    0.000    0.000    0.000    0.000    0.000    0.000 
#
# Total GULP energy -178147.478063 kJ/mol
# GULP energy per Si atom -5567.108689 kJ/mol
# Density = 2.031632 g / cm^3
# Si number density = 20.362663 Si / 1000 Ang^3
#
#
#
# Elastic Constant Matrix: (Units=GPa)
#
#
# Indices 1 2 3 4 5 6 
#
# 1 29.8879 6.0614 5.5413 0.0000 0.0000 0.0000
# 2 6.0614 29.8879 5.5413 0.0000 0.0000 0.0000
# 3 5.5413 5.5413 74.3704 0.0000 0.0000 0.0000
# 4 0.0000 0.0000 0.0000 90.9460 0.0000 0.0000
# 5 0.0000 0.0000 0.0000 0.0000 90.9460 0.0000
# 6 0.0000 0.0000 0.0000 0.0000 0.0000 17.3051
#
#
#
# Elastic Compliance Matrix: (Units=1/GPa)
#
#
# Indices 1 2 3 4 5 6 
#
# 1 0.035220 -0.006750 -0.002121 0.000000 0.000000 0.000000
# 2 -0.006750 0.035220 -0.002121 0.000000 0.000000 0.000000
# 3 -0.002121 -0.002121 0.013762 0.000000 0.000000 0.000000
# 4 0.000000 0.000000 0.000000 0.010996 0.000000 0.000000
# 5 0.000000 0.000000 0.000000 0.000000 0.010996 0.000000
# 6 0.000000 0.000000 0.000000 0.000000 0.000000 0.057786
#
#
# Mechanical properties :
#
#
# Convention : Reuss Voigt Hill
#
# Bulk Modulus (GPa) = 16.07233 18.71490 17.39361
# Shear Modulus (GPa) = 24.18909 47.63956 35.91432
#
# Velocity S-wave (km/s) = 3.45035 4.84214 4.20424
# Velocity P-wave (km/s) = 4.87682 6.36180 5.66815
#
# Compressibility (1/GPa) = 0.06221875
#
# Stress axis : x y z
#
# Youngs Moduli (GPa) = 28.39260 28.39260 72.66212
#
# Poissons Ratio (x) = 0.19164 0.15414
# Poissons Ratio (y) = 0.19164 0.15414
# Poissons Ratio (z) = 0.06023 0.06023
#
# Static dielectric constant tensor:
#      x y z
#    x 1.726880 0.000000 0.000000 
#    y 0.000000 1.726880 0.000000 
#    z 0.000000 0.000000 1.908680 
# 
# From -- ./inp_files/2835.got.cif
#   From: 2010.05.17/outbox.cif.g08.bks.cpg/sg114_2_cif.got.tgz:2835.got - 2010.05.20 11:04:54.
