data_PCOD9556729
_publ_section_title
;
Structure prediction by ZEFSAII (Michael W. Deem and Ramdas Pophale) SiO2 
 PCOD9556729
Probable space group: P -4 M 2
;
_chemical_formula_sum "Si O2"
_cell_formula_units_Z 36
_cell_length_a 9.458707
_cell_length_b 9.458707
_cell_length_c 24.043750
_cell_angle_alpha 90.000000
_cell_angle_beta 90.000000
_cell_angle_gamma 90.000000
_cell_volume 2151.125502
_symmetry_space_group_name_H-M "P -4 M 2"
_symmetry_group_IT_number 115
_symmetry_cell_setting 'tetragonal'
loop_
_space_group_symop_operation_xyz
x,y,z
y,-x,-z
-x,-y,z
-y,x,-z
y,x,-z
-y,-x,-z
-x,y,z
x,-y,z
loop_
_atom_site_type_symbol
_atom_site_label
_atom_site_fract_x
_atom_site_fract_y
_atom_site_fract_z
Si Si1 0.663105 0.172130 0.768640
Si Si2 0.327749 0.163151 0.891296
Si Si3 0.169863 0.166251 0.340637
Si Si4 0.668744 0.666824 0.435769
Si Si5 0.331824 0.668177 0.000000
O O1 0.500000 0.217133 0.760319
O O2 0.714491 0.217158 0.829994
O O3 0.758922 0.214856 0.716943
O O4 0.662119 0.000000 0.770573
O O5 0.500000 0.164169 0.890186
O O6 0.283339 0.000000 0.897693
O O7 0.282335 0.253838 0.944142
O O8 0.246043 0.241201 0.391978
O O9 0.000000 0.183838 0.345686
O O10 0.200731 0.000000 0.339238
O O11 0.702548 0.702548 0.500000
O O12 0.500000 0.685717 0.428708
O O13 0.699208 0.500000 0.427633
O O14 0.500000 0.691241 0.005812
#
# Coordination Sequence:
#
# PCOD9556729 Si02
#       5
#     8   8   8   8   4
#     4   8  14  27  47  66  85 117 160 195 222 264
#     4   8  14  26  44  63  84 115 153 187 221 267
#     4  10  20  32  48  73 102 128 155 191 236 283
#     4   9  19  36  55  73  94 123 160 198 234 275
#     4   9  16  26  42  65  90 112 140 185 234 272
#
# _framework density 16.735427000000001
#
# number of rings (size 3 to 8) (size 9 to 14) (size 15 to 20)
#    0.000    3.222    0.000    2.667    0.000    2.667 
#    0.000    5.556    0.000    5.667    0.000    0.000 
#    0.000    0.000    0.000    0.000    0.000    0.000 
#
# Total GULP energy -200494.214669 kJ/mol
# GULP energy per Si atom -5569.283741 kJ/mol
# Density = 1.669734 g / cm^3
# Si number density = 16.735427 Si / 1000 Ang^3
#
#
#
# Elastic Constant Matrix: (Units=GPa)
#
#
# Indices 1 2 3 4 5 6 
#
# 1 47.2598 40.0301 79.9069 0.0000 0.0000 0.0000
# 2 40.0301 47.2593 79.9069 0.0000 0.0000 0.0000
# 3 79.9069 79.9069 206.3766 0.0000 0.0000 0.0000
# 4 0.0000 0.0000 0.0000 42.8861 0.0000 0.0000
# 5 0.0000 0.0000 0.0000 0.0000 42.8838 0.0000
# 6 0.0000 0.0000 0.0000 0.0000 0.0000 18.7260
#
#
#
# Elastic Compliance Matrix: (Units=1/GPa)
#
#
# Indices 1 2 3 4 5 6 
#
# 1 0.088837 -0.049486 -0.015236 0.000000 0.000000 0.000000
# 2 -0.049486 0.088840 -0.015237 0.000000 0.000000 0.000000
# 3 -0.015236 -0.015237 0.016645 0.000000 0.000000 0.000000
# 4 0.000000 0.000000 0.000000 0.023318 0.000000 0.000000
# 5 0.000000 0.000000 0.000000 0.000000 0.023319 0.000000
# 6 0.000000 0.000000 0.000000 0.000000 0.000000 0.053402
#
#
# Mechanical properties :
#
#
# Convention : Reuss Voigt Hill
#
# Bulk Modulus (GPa) = 29.06806 77.84260 53.45533
# Shear Modulus (GPa) = 10.73547 27.63597 19.18572
#
# Velocity S-wave (km/s) = 2.53550 4.06808 3.38955
# Velocity P-wave (km/s) = 5.09692 8.28736 6.87964
#
# Compressibility (1/GPa) = 0.03440202
#
# Stress axis : x y z
#
# Youngs Moduli (GPa) = 11.25658 11.25625 60.07959
#
# Poissons Ratio (x) = 0.55703 0.91539
# Poissons Ratio (y) = 0.55704 0.91545
# Poissons Ratio (z) = 0.17151 0.17152
#
# Static dielectric constant tensor:
#      x y z
#    x 1.554310 0.000000 0.000000 
#    y 0.000000 1.554310 0.000000 
#    z 0.000000 0.000000 1.571980 
# 
# From -- ./inp_files/5132.got.cif
#   From: 2010.05.17/outbox.cif.g08.bks.cpg/sg115_3_cif.got.tgz:5132.got - 2010.05.20 11:07:42.
