data_PCOD9556211
_publ_section_title
;
Structure prediction by ZEFSAII (Michael W. Deem and Ramdas Pophale) SiO2 
 PCOD9556211
Probable space group: P -4 21 C
;
_chemical_formula_sum "Si O2"
_cell_formula_units_Z 36
_cell_length_a 8.134126
_cell_length_b 8.134126
_cell_length_c 21.383871
_cell_angle_alpha 90.000000
_cell_angle_beta 90.000000
_cell_angle_gamma 90.000000
_cell_volume 1414.842565
_symmetry_space_group_name_H-M "P -4 21 C"
_symmetry_group_IT_number 114
_symmetry_cell_setting 'tetragonal'
loop_
_space_group_symop_operation_xyz
x,y,z
y,-x,-z
-x,-y,z
-y,x,-z
1/2+x,1/2-y,1/2-z
1/2-x,1/2+y,1/2-z
1/2-y,1/2-x,1/2+z
1/2+y,1/2+x,1/2+z
loop_
_atom_site_type_symbol
_atom_site_label
_atom_site_fract_x
_atom_site_fract_y
_atom_site_fract_z
Si Si1 0.806188 0.162214 0.178409
Si Si2 0.500000 0.000000 0.115696
Si Si3 0.583900 0.259306 0.012516
Si Si4 0.184848 0.427049 0.598537
Si Si5 0.468811 0.671987 0.814535
O O1 0.659115 0.041361 0.157398
O O2 0.751281 0.351201 0.188711
O O3 0.862371 0.101932 0.245898
O O4 0.943839 0.184207 0.124726
O O5 0.508678 0.156352 0.069113
O O6 0.703462 0.147284 0.970440
O O7 0.425654 0.318168 0.972102
O O8 0.161691 0.283282 0.649287
O O9 0.000000 0.500000 0.596332
O O10 0.500000 0.500000 0.847941
#
# Coordination Sequence:
#
# PCOD9556211 Si02
#       5
#     8   4   8   8   8
#     4  11  27  46  75 112 155 203 249 329 382 482
#     4  12  28  46  78 110 152 204 266 310 398 464
#     4  11  25  46  77 109 148 201 258 317 380 468
#     4  10  22  45  71 107 157 195 249 318 386 448
#     4  11  25  43  76 110 151 201 253 313 391 465
#
# _framework density 25.44453
#
# number of rings (size 3 to 8) (size 9 to 14) (size 15 to 20)
#    0.000    1.111    1.111    4.000   14.000    1.778 
#    0.000    0.000    0.000    0.000    0.000    0.000 
#    0.000    0.000    0.000    0.000    0.000    0.000 
#
# Total GULP energy -201578.780809 kJ/mol
# GULP energy per Si atom -5599.410578 kJ/mol
# Density = 2.538662 g / cm^3
# Si number density = 25.444530 Si / 1000 Ang^3
#
#
#
# Elastic Constant Matrix: (Units=GPa)
#
#
# Indices 1 2 3 4 5 6 
#
# 1 93.9864 10.9569 3.9602 0.0000 0.0000 0.0000
# 2 10.9569 93.9864 3.9602 0.0000 0.0000 0.0000
# 3 3.9602 3.9602 64.6203 0.0000 0.0000 0.0000
# 4 0.0000 0.0000 0.0000 25.5561 0.0000 0.0000
# 5 0.0000 0.0000 0.0000 0.0000 25.5561 0.0000
# 6 0.0000 0.0000 0.0000 0.0000 0.0000 52.9283
#
#
#
# Elastic Compliance Matrix: (Units=1/GPa)
#
#
# Indices 1 2 3 4 5 6 
#
# 1 0.010809 -0.001235 -0.000587 0.000000 0.000000 0.000000
# 2 -0.001235 0.010809 -0.000587 0.000000 0.000000 0.000000
# 3 -0.000587 -0.000587 0.015547 0.000000 0.000000 0.000000
# 4 0.000000 0.000000 0.000000 0.039130 0.000000 0.000000
# 5 0.000000 0.000000 0.000000 0.000000 0.039130 0.000000
# 6 0.000000 0.000000 0.000000 0.000000 0.000000 0.018893
#
#
# Mechanical properties :
#
#
# Convention : Reuss Voigt Hill
#
# Bulk Modulus (GPa) = 30.91512 32.26086 31.58799
# Shear Modulus (GPa) = 33.35192 36.38915 34.87054
#
# Velocity S-wave (km/s) = 3.62438 3.78582 3.70598
# Velocity P-wave (km/s) = 5.44897 5.64059 5.54561
#
# Compressibility (1/GPa) = 0.03234664
#
# Stress axis : x y z
#
# Youngs Moduli (GPa) = 92.51918 92.51918 64.32145
#
# Poissons Ratio (x) = 0.11429 0.03774
# Poissons Ratio (y) = 0.11429 0.03774
# Poissons Ratio (z) = 0.05428 0.05428
#
# Static dielectric constant tensor:
#      x y z
#    x 2.035030 0.000000 0.000000 
#    y 0.000000 2.035030 0.000000 
#    z 0.000000 0.000000 1.993660 
# 
# From -- ./inp_files/2923.got.cif
#   From: 2010.05.17/outbox.cif.g08.bks.cpg/sg114_2_cif.got.tgz:2923.got - 2010.05.20 11:04:54.
