data_PCOD9556130
_publ_section_title
;
Structure prediction by ZEFSAII (Michael W. Deem and Ramdas Pophale) SiO2 
 PCOD9556130
Probable space group: P -4 21 C
;
_chemical_formula_sum "Si O2"
_cell_formula_units_Z 40
_cell_length_a 17.480831
_cell_length_b 17.480831
_cell_length_c 5.191267
_cell_angle_alpha 90.000000
_cell_angle_beta 90.000000
_cell_angle_gamma 90.000000
_cell_volume 1586.344527
_symmetry_space_group_name_H-M "P -4 21 C"
_symmetry_group_IT_number 114
_symmetry_cell_setting 'tetragonal'
loop_
_space_group_symop_operation_xyz
x,y,z
y,-x,-z
-x,-y,z
-y,x,-z
1/2+x,1/2-y,1/2-z
1/2-x,1/2+y,1/2-z
1/2-y,1/2-x,1/2+z
1/2+y,1/2+x,1/2+z
loop_
_atom_site_type_symbol
_atom_site_label
_atom_site_fract_x
_atom_site_fract_y
_atom_site_fract_z
Si Si1 0.676753 0.885025 0.643130
Si Si2 0.920571 0.785549 0.176219
Si Si3 0.896197 0.040905 0.415830
Si Si4 0.674605 0.413431 0.541567
Si Si5 0.450361 0.885173 0.310841
O O1 0.672329 0.867166 0.340346
O O2 0.762149 0.887785 0.750003
O O3 0.637663 0.965513 0.715445
O O4 0.949647 0.814403 0.455224
O O5 0.905538 0.695757 0.183599
O O6 0.997149 0.800009 0.991734
O O7 0.845548 0.836847 0.121362
O O8 0.919439 0.094494 0.186264
O O9 0.955066 0.077226 0.628992
O O10 0.443262 0.917376 0.598660
#
# Coordination Sequence:
#
# PCOD9556130 Si02
#       5
#     8   8   8   8   8
#     4  11  26  46  70  98 127 165 216 273 332 390
#     4  10  22  38  62  93 132 173 214 262 315 381
#     4   9  18  34  58  88 126 174 218 254 303 374
#     4  10  22  38  62  93 132 173 214 262 315 381
#     4  11  26  46  70  98 127 165 216 273 332 390
#
# _framework density 25.215204
#
# number of rings (size 3 to 8) (size 9 to 14) (size 15 to 20)
#    0.000    1.800    0.000    2.400    5.600    6.000 
#    0.000    0.000    0.000    0.000    0.000    0.000 
#    0.000    0.000    0.000    0.000    0.000    0.000 
#
# Total GULP energy -223209.447667 kJ/mol
# GULP energy per Si atom -5580.236192 kJ/mol
# Density = 2.515781 g / cm^3
# Si number density = 25.215204 Si / 1000 Ang^3
#
#
#
# Elastic Constant Matrix: (Units=GPa)
#
#
# Indices 1 2 3 4 5 6 
#
# 1 41.9281 -9.7685 -5.5557 0.0000 0.0000 0.0000
# 2 -9.7685 41.9281 -5.5557 0.0000 0.0000 0.0000
# 3 -5.5557 -5.5557 76.4146 0.0000 0.0000 0.0000
# 4 0.0000 0.0000 0.0000 29.2839 0.0000 0.0000
# 5 0.0000 0.0000 0.0000 0.0000 29.2839 0.0000
# 6 0.0000 0.0000 0.0000 0.0000 0.0000 21.8801
#
#
#
# Elastic Compliance Matrix: (Units=1/GPa)
#
#
# Indices 1 2 3 4 5 6 
#
# 1 0.025620 0.006276 0.002319 0.000000 0.000000 0.000000
# 2 0.006276 0.025620 0.002319 0.000000 0.000000 0.000000
# 3 0.002319 0.002319 0.013424 0.000000 0.000000 0.000000
# 4 0.000000 0.000000 0.000000 0.034148 0.000000 0.000000
# 5 0.000000 0.000000 0.000000 0.000000 0.034148 0.000000
# 6 0.000000 0.000000 0.000000 0.000000 0.000000 0.045704
#
#
# Mechanical properties :
#
#
# Convention : Reuss Voigt Hill
#
# Bulk Modulus (GPa) = 11.56177 13.16791 12.36484
# Shear Modulus (GPa) = 26.93005 28.16629 27.54817
#
# Velocity S-wave (km/s) = 3.27159 3.34583 3.30892
# Velocity P-wave (km/s) = 4.34353 4.48995 4.41735
#
# Compressibility (1/GPa) = 0.08649194
#
# Stress axis : x y z
#
# Youngs Moduli (GPa) = 39.03216 39.03216 74.49511
#
# Poissons Ratio (x) = -0.24498 -0.17275
# Poissons Ratio (y) = -0.24498 -0.17275
# Poissons Ratio (z) = -0.09051 -0.09051
#
# Static dielectric constant tensor:
#      x y z
#    x 2.048470 0.000000 0.000000 
#    y 0.000000 2.048470 0.000000 
#    z 0.000000 0.000000 2.235200 
# 
# From -- ./inp_files/151.got.cif
#   From: 2010.05.17/outbox.cif.g08.bks.cpg/sg114_1_cif.got.tgz:151.got - 2010.05.20 11:04:54.
