data_PCOD9556440
_publ_section_title
;
Structure prediction by ZEFSAII (Michael W. Deem and Ramdas Pophale) SiO2 
 PCOD9556440
Probable space group: P -4 21 C
;
_chemical_formula_sum "Si O2"
_cell_formula_units_Z 38
_cell_length_a 8.459858
_cell_length_b 8.459858
_cell_length_c 23.783914
_cell_angle_alpha 90.000000
_cell_angle_beta 90.000000
_cell_angle_gamma 90.000000
_cell_volume 1702.195636
_symmetry_space_group_name_H-M "P -4 21 C"
_symmetry_group_IT_number 114
_symmetry_cell_setting 'tetragonal'
loop_
_space_group_symop_operation_xyz
x,y,z
y,-x,-z
-x,-y,z
-y,x,-z
1/2+x,1/2-y,1/2-z
1/2-x,1/2+y,1/2-z
1/2-y,1/2-x,1/2+z
1/2+y,1/2+x,1/2+z
loop_
_atom_site_type_symbol
_atom_site_label
_atom_site_fract_x
_atom_site_fract_y
_atom_site_fract_z
Si Si1 0.323742 0.047358 0.307898
Si Si2 0.314519 0.540880 0.426724
Si Si3 0.500000 0.500000 0.000000
Si Si4 0.600994 0.264142 0.918119
Si Si5 0.421597 0.673141 0.696074
Si Si6 0.500000 0.000000 0.497175
O O1 0.324734 0.234040 0.303139
O O2 0.500000 0.000000 0.324956
O O3 0.214225 0.975206 0.357058
O O4 0.279856 0.979865 0.247240
O O5 0.500000 0.500000 0.440487
O O6 0.313001 0.727988 0.415852
O O7 0.274095 0.467238 0.366331
O O8 0.167066 0.495329 0.467942
O O9 0.419809 0.381671 0.043947
O O10 0.491779 0.149471 0.955321
O O11 0.500000 0.500000 0.703993
#
# Coordination Sequence:
#
# PCOD9556440 Si02
#       6
#     8   8   2   8   8   4
#     4  12  25  47  75 105 147 187 244 307 376 454
#     4  11  27  48  77 107 150 198 255 317 385 456
#     4  12  28  48  72 104 156 200 248 304 382 448
#     4  12  27  48  70 108 149 196 251 310 376 460
#     4  11  26  47  76 108 141 191 245 308 382 451
#     4  12  28  44  74 110 146 198 252 306 374 460
#
# _framework density 22.324107000000001
#
# number of rings (size 3 to 8) (size 9 to 14) (size 15 to 20)
#    0.000    0.421    3.158    5.053    8.842    0.000 
#    0.000    0.000    0.000    0.000    0.000    0.000 
#    0.000    0.000    0.000    0.000    0.000    0.000 
#
# Total GULP energy -212400.590277 kJ/mol
# GULP energy per Si atom -5589.489218 kJ/mol
# Density = 2.227330 g / cm^3
# Si number density = 22.324107 Si / 1000 Ang^3
#
#
#
# Elastic Constant Matrix: (Units=GPa)
#
#
# Indices 1 2 3 4 5 6 
#
# 1 103.0680 9.7759 36.4196 0.0000 0.0000 0.0000
# 2 9.7759 103.0680 36.4196 0.0000 0.0000 0.0000
# 3 36.4196 36.4196 148.4124 0.0000 0.0000 0.0000
# 4 0.0000 0.0000 0.0000 52.3375 0.0000 0.0000
# 5 0.0000 0.0000 0.0000 0.0000 52.3375 0.0000
# 6 0.0000 0.0000 0.0000 0.0000 0.0000 27.4469
#
#
#
# Elastic Compliance Matrix: (Units=1/GPa)
#
#
# Indices 1 2 3 4 5 6 
#
# 1 0.010624 -0.000095 -0.002584 0.000000 0.000000 0.000000
# 2 -0.000095 0.010624 -0.002584 0.000000 0.000000 0.000000
# 3 -0.002584 -0.002584 0.008006 0.000000 0.000000 0.000000
# 4 0.000000 0.000000 0.000000 0.019107 0.000000 0.000000
# 5 0.000000 0.000000 0.000000 0.000000 0.019107 0.000000
# 6 0.000000 0.000000 0.000000 0.000000 0.000000 0.036434
#
#
# Mechanical properties :
#
#
# Convention : Reuss Voigt Hill
#
# Bulk Modulus (GPa) = 53.39083 57.75318 55.57200
# Shear Modulus (GPa) = 41.43509 44.55328 42.99419
#
# Velocity S-wave (km/s) = 4.31289 4.47223 4.39328
# Velocity P-wave (km/s) = 6.98351 7.25219 7.11912
#
# Compressibility (1/GPa) = 0.01872981
#
# Stress axis : x y z
#
# Youngs Moduli (GPa) = 94.12337 94.12337 124.90408
#
# Poissons Ratio (x) = 0.00891 0.32274
# Poissons Ratio (y) = 0.00891 0.32274
# Poissons Ratio (z) = 0.24321 0.24321
#
# Static dielectric constant tensor:
#      x y z
#    x 1.821390 0.000000 0.000000 
#    y 0.000000 1.821390 0.000000 
#    z 0.000000 0.000000 1.806520 
# 
# From -- ./inp_files/3424.got.cif
#   From: 2010.05.17/outbox.cif.g08.bks.cpg/sg114_2_cif.got.tgz:3424.got - 2010.05.20 11:04:54.
