data_PCOD9556149
_publ_section_title
;
Structure prediction by ZEFSAII (Michael W. Deem and Ramdas Pophale) SiO2 
 PCOD9556149
Probable space group: P -4 21 C
;
_chemical_formula_sum "Si O2"
_cell_formula_units_Z 28
_cell_length_a 9.418654
_cell_length_b 9.418654
_cell_length_c 17.845742
_cell_angle_alpha 90.000000
_cell_angle_beta 90.000000
_cell_angle_gamma 90.000000
_cell_volume 1583.114389
_symmetry_space_group_name_H-M "P -4 21 C"
_symmetry_group_IT_number 114
_symmetry_cell_setting 'tetragonal'
loop_
_space_group_symop_operation_xyz
x,y,z
y,-x,-z
-x,-y,z
-y,x,-z
1/2+x,1/2-y,1/2-z
1/2-x,1/2+y,1/2-z
1/2-y,1/2-x,1/2+z
1/2+y,1/2+x,1/2+z
loop_
_atom_site_type_symbol
_atom_site_label
_atom_site_fract_x
_atom_site_fract_y
_atom_site_fract_z
Si Si1 0.000000 0.500000 0.561111
Si Si2 0.449300 0.279511 0.026899
Si Si3 0.365477 0.911292 0.792034
Si Si4 0.647683 0.420488 0.804380
O O1 0.940509 0.372425 0.511974
O O2 0.882706 0.562252 0.618841
O O3 0.421506 0.273936 0.115388
O O4 0.343191 0.393691 0.989380
O O5 0.371405 0.742798 0.779018
O O6 0.500000 0.000000 0.760178
O O7 0.230542 0.986034 0.756211
O O8 0.500000 0.500000 0.818788
#
# Coordination Sequence:
#
# PCOD9556149 Si02
#       4
#     4   8   8   8
#     4  10  22  40  60  88 124 146 210 250 296 368
#     4  11  20  39  64  86 115 160 203 244 300 363
#     4  10  23  40  58  91 119 158 201 253 309 359
#     4  12  22  39  63  89 122 161 206 254 307 378
#
# _framework density 17.686658000000001
#
# number of rings (size 3 to 8) (size 9 to 14) (size 15 to 20)
#    0.857    0.286    5.714    1.714    6.000    0.000 
#    0.000    0.000    0.000    0.000    0.000    0.000 
#    0.000    0.000    0.000    0.000    0.000    0.000 
#
# Total GULP energy -156089.884978 kJ/mol
# GULP energy per Si atom -5574.638749 kJ/mol
# Density = 1.764640 g / cm^3
# Si number density = 17.686658 Si / 1000 Ang^3
#
#
#
# Elastic Constant Matrix: (Units=GPa)
#
#
# Indices 1 2 3 4 5 6 
#
# 1 94.2355 19.8608 26.4077 0.0000 0.0000 0.0000
# 2 19.8608 94.2355 26.4077 0.0000 0.0000 0.0000
# 3 26.4077 26.4077 68.1492 0.0000 0.0000 0.0000
# 4 0.0000 0.0000 0.0000 10.2803 0.0000 0.0000
# 5 0.0000 0.0000 0.0000 0.0000 10.2803 0.0000
# 6 0.0000 0.0000 0.0000 0.0000 0.0000 24.4492
#
#
#
# Elastic Compliance Matrix: (Units=1/GPa)
#
#
# Indices 1 2 3 4 5 6 
#
# 1 0.012063 -0.001383 -0.004139 0.000000 0.000000 0.000000
# 2 -0.001383 0.012063 -0.004139 0.000000 0.000000 0.000000
# 3 -0.004139 -0.004139 0.017881 0.000000 0.000000 0.000000
# 4 0.000000 0.000000 0.000000 0.097273 0.000000 0.000000
# 5 0.000000 0.000000 0.000000 0.000000 0.097273 0.000000
# 6 0.000000 0.000000 0.000000 0.000000 0.000000 0.040901
#
#
# Mechanical properties :
#
#
# Convention : Reuss Voigt Hill
#
# Bulk Modulus (GPa) = 44.07758 44.66365 44.37061
# Shear Modulus (GPa) = 16.42918 21.26489 18.84704
#
# Velocity S-wave (km/s) = 3.05110 3.47120 3.26791
# Velocity P-wave (km/s) = 6.11455 6.43220 6.27539
#
# Compressibility (1/GPa) = 0.02268727
#
# Stress axis : x y z
#
# Youngs Moduli (GPa) = 82.89908 82.89908 55.92504
#
# Poissons Ratio (x) = 0.11461 0.23145
# Poissons Ratio (y) = 0.11461 0.23145
# Poissons Ratio (z) = 0.34309 0.34309
#
# Static dielectric constant tensor:
#      x y z
#    x 1.611800 0.000000 0.000000 
#    y 0.000000 1.611800 0.000000 
#    z 0.000000 0.000000 1.596570 
# 
# From -- ./inp_files/2435.got.cif
#   From: 2010.05.17/outbox.cif.g08.bks.cpg/sg114_2_cif.got.tgz:2435.got - 2010.05.20 11:04:54.
