data_PCOD9556396
_publ_section_title
;
Structure prediction by ZEFSAII (Michael W. Deem and Ramdas Pophale) SiO2 
 PCOD9556396
Probable space group: P -4 21 C
;
_chemical_formula_sum "Si O2"
_cell_formula_units_Z 40
_cell_length_a 8.780955
_cell_length_b 8.780955
_cell_length_c 21.852856
_cell_angle_alpha 90.000000
_cell_angle_beta 90.000000
_cell_angle_gamma 90.000000
_cell_volume 1684.968192
_symmetry_space_group_name_H-M "P -4 21 C"
_symmetry_group_IT_number 114
_symmetry_cell_setting 'tetragonal'
loop_
_space_group_symop_operation_xyz
x,y,z
y,-x,-z
-x,-y,z
-y,x,-z
1/2+x,1/2-y,1/2-z
1/2-x,1/2+y,1/2-z
1/2-y,1/2-x,1/2+z
1/2+y,1/2+x,1/2+z
loop_
_atom_site_type_symbol
_atom_site_label
_atom_site_fract_x
_atom_site_fract_y
_atom_site_fract_z
Si Si1 0.060780 0.173769 0.587234
Si Si2 0.328547 0.429548 0.427012
Si Si3 0.662915 0.859746 0.509444
Si Si4 0.111429 0.874533 0.206257
Si Si5 0.383767 0.876195 0.797930
O O1 0.996983 0.258542 0.526759
O O2 0.237120 0.163427 0.570186
O O3 0.042217 0.284361 0.645393
O O4 0.000000 0.000000 0.594431
O O5 0.500000 0.500000 0.437125
O O6 0.333176 0.262658 0.454548
O O7 0.183524 0.500300 0.462307
O O8 0.308404 0.436344 0.354595
O O9 0.244508 0.827170 0.252198
O O10 0.989907 0.750503 0.183067
O O11 0.000000 0.000000 0.236247
O O12 0.500000 0.000000 0.769466
#
# Coordination Sequence:
#
# PCOD9556396 Si02
#       5
#     8   8   8   8   8
#     4  12  26  47  66 106 150 191 241 305 374 454
#     4  11  23  42  70  99 140 182 242 301 359 441
#     4  12  22  44  66 102 143 189 235 298 375 440
#     4  11  25  49  72 108 143 195 254 312 374 455
#     4  12  27  47  79 104 148 196 250 312 381 444
#
# _framework density 23.739322000000001
#
# number of rings (size 3 to 8) (size 9 to 14) (size 15 to 20)
#    0.000    0.400    4.000    5.400    2.800    1.600 
#    3.600    0.000    0.000    0.000    0.000    0.000 
#    0.000    0.000    0.000    0.000    0.000    0.000 
#
# Total GULP energy -223043.655668 kJ/mol
# GULP energy per Si atom -5576.091392 kJ/mol
# Density = 2.368529 g / cm^3
# Si number density = 23.739322 Si / 1000 Ang^3
#
#
#
# Elastic Constant Matrix: (Units=GPa)
#
#
# Indices 1 2 3 4 5 6 
#
# 1 75.8129 45.3251 19.3801 0.0000 0.0000 0.0000
# 2 45.3251 75.8129 19.3801 0.0000 0.0000 0.0000
# 3 19.3801 19.3801 96.4279 0.0000 0.0000 0.0000
# 4 0.0000 0.0000 0.0000 34.6109 0.0000 0.0000
# 5 0.0000 0.0000 0.0000 0.0000 34.6109 0.0000
# 6 0.0000 0.0000 0.0000 0.0000 0.0000 31.3586
#
#
#
# Elastic Compliance Matrix: (Units=1/GPa)
#
#
# Indices 1 2 3 4 5 6 
#
# 1 0.020811 -0.011989 -0.001773 0.000000 0.000000 0.000000
# 2 -0.011989 0.020811 -0.001773 0.000000 0.000000 0.000000
# 3 -0.001773 -0.001773 0.011083 0.000000 0.000000 0.000000
# 4 0.000000 0.000000 0.000000 0.028893 0.000000 0.000000
# 5 0.000000 0.000000 0.000000 0.000000 0.028893 0.000000
# 6 0.000000 0.000000 0.000000 0.000000 0.000000 0.031889
#
#
# Mechanical properties :
#
#
# Convention : Reuss Voigt Hill
#
# Bulk Modulus (GPa) = 46.22046 46.24716 46.23381
# Shear Modulus (GPa) = 27.67602 31.04731 29.36167
#
# Velocity S-wave (km/s) = 3.41813 3.62033 3.52068
# Velocity P-wave (km/s) = 5.92372 6.08271 6.00374
#
# Compressibility (1/GPa) = 0.02163544
#
# Stress axis : x y z
#
# Youngs Moduli (GPa) = 48.05115 48.05115 90.22686
#
# Poissons Ratio (x) = 0.57607 0.15998
# Poissons Ratio (y) = 0.57607 0.15998
# Poissons Ratio (z) = 0.08520 0.08520
#
# Static dielectric constant tensor:
#      x y z
#    x 1.797580 0.000000 0.000000 
#    y 0.000000 1.797580 0.000000 
#    z 0.000000 0.000000 1.841000 
# 
# From -- ./inp_files/3399.got.cif
#   From: 2010.05.17/outbox.cif.g08.bks.cpg/sg114_2_cif.got.tgz:3399.got - 2010.05.20 11:04:54.
