data_PCOD9556859
_publ_section_title
;
Structure prediction by ZEFSAII (Michael W. Deem and Ramdas Pophale) SiO2 
 PCOD9556859
Probable space group: P -4 M 2
;
_chemical_formula_sum "Si O2"
_cell_formula_units_Z 40
_cell_length_a 9.195338
_cell_length_b 9.195338
_cell_length_c 26.662892
_cell_angle_alpha 90.000000
_cell_angle_beta 90.000000
_cell_angle_gamma 90.000000
_cell_volume 2254.460594
_symmetry_space_group_name_H-M "P -4 M 2"
_symmetry_group_IT_number 115
_symmetry_cell_setting 'tetragonal'
loop_
_space_group_symop_operation_xyz
x,y,z
y,-x,-z
-x,-y,z
-y,x,-z
y,x,-z
-y,-x,-z
-x,y,z
x,-y,z
loop_
_atom_site_type_symbol
_atom_site_label
_atom_site_fract_x
_atom_site_fract_y
_atom_site_fract_z
Si Si1 0.170522 0.324779 0.695870
Si Si2 0.332584 0.322695 0.797770
Si Si3 0.329167 0.825356 0.603109
Si Si4 0.326732 0.326732 0.000000
Si Si5 0.827321 0.172680 0.500000
Si Si6 0.677380 0.832433 0.101827
O O1 0.183726 0.500000 0.692082
O O2 0.247145 0.278758 0.747741
O O3 0.247628 0.251936 0.648610
O O4 0.000000 0.288750 0.697040
O O5 0.500000 0.275660 0.796196
O O6 0.331860 0.500000 0.798489
O O7 0.253886 0.274246 0.848719
O O8 0.500000 0.790941 0.604149
O O9 0.259359 0.783569 0.549713
O O10 0.312485 0.000000 0.607906
O O11 0.244251 0.278336 0.949878
O O12 0.304313 0.500000 0.006731
O O13 0.000000 0.195271 0.508416
O O14 0.500000 0.829863 0.102238
O O15 0.722935 0.000000 0.103692
#
# Coordination Sequence:
#
# PCOD9556859 Si02
#       6
#     8   8   8   4   4   8
#     4  10  20  33  51  76 105 137 173 212 254 302
#     4   9  16  27  45  70 100 131 163 204 253 300
#     4  10  21  36  54  77 105 136 170 209 254 304
#     4   9  16  26  42  65  90 116 150 193 240 288
#     4   9  18  34  54  73  96 130 170 209 250 299
#     4   9  16  26  42  65  93 124 158 197 242 293
#
# _framework density 17.742605000000001
#
# number of rings (size 3 to 8) (size 9 to 14) (size 15 to 20)
#    0.000    2.600    0.000    2.400    0.000    8.000 
#    0.000    2.000    0.000    1.500    0.000    2.800 
#    0.000    0.000    0.000    0.000    0.000    0.000 
#
# Total GULP energy -223146.390245 kJ/mol
# GULP energy per Si atom -5578.659756 kJ/mol
# Density = 1.770222 g / cm^3
# Si number density = 17.742605 Si / 1000 Ang^3
#
#
#
# Elastic Constant Matrix: (Units=GPa)
#
#
# Indices 1 2 3 4 5 6 
#
# 1 74.5141 49.7962 90.2999 0.0000 0.0000 0.0000
# 2 49.7962 74.5136 90.3000 0.0000 0.0000 0.0000
# 3 90.2999 90.3000 230.2089 0.0000 0.0000 0.0000
# 4 0.0000 0.0000 0.0000 -100.9636 0.0000 0.0000
# 5 0.0000 0.0000 0.0000 0.0000 -101.0039 0.0000
# 6 0.0000 0.0000 0.0000 0.0000 0.0000 16.6689
#
#
#
# Elastic Compliance Matrix: (Units=1/GPa)
#
#
# Indices 1 2 3 4 5 6 
#
# 1 0.029579 -0.010877 -0.007336 0.000000 0.000000 0.000000
# 2 -0.010877 0.029580 -0.007336 0.000000 0.000000 0.000000
# 3 -0.007336 -0.007336 0.010099 0.000000 0.000000 0.000000
# 4 0.000000 0.000000 0.000000 -0.009905 0.000000 0.000000
# 5 0.000000 0.000000 0.000000 0.000000 -0.009901 0.000000
# 6 0.000000 0.000000 0.000000 0.000000 0.000000 0.059992
#
#
# Mechanical properties :
#
#
# Convention : Reuss Voigt Hill
#
# Bulk Modulus (GPa) = 55.06745 93.33653 74.20199
# Shear Modulus (GPa) = 30.01261 -27.13702 1.43779
#
# Velocity S-wave (km/s) = 4.11732 -3.91510 0.90118
# Velocity P-wave (km/s) = 7.32852 5.68179 6.55706
#
# Compressibility (1/GPa) = 0.01815955
#
# Stress axis : x y z
#
# Youngs Moduli (GPa) = 33.80739 33.80692 99.01956
#
# Poissons Ratio (x) = 0.36773 0.72640
# Poissons Ratio (y) = 0.36773 0.72642
# Poissons Ratio (z) = 0.24801 0.24801
#
# Static dielectric constant tensor:
#      x y z
#    x 1.594550 0.000000 0.000000 
#    y 0.000000 1.594550 0.000000 
#    z 0.000000 0.000000 1.578000 
# 
# From -- ./inp_files/5512.got.cif
#   From: 2010.05.17/outbox.cif.g08.bks.cpg/sg115_3_cif.got.tgz:5512.got - 2010.05.20 11:07:42.
