data_PCOD9556088
_publ_section_title
;
Structure prediction by ZEFSAII (Michael W. Deem and Ramdas Pophale) SiO2 
 PCOD9556088
Probable space group: P -4 21 C
;
_chemical_formula_sum "Si O2"
_cell_formula_units_Z 48
_cell_length_a 11.421605
_cell_length_b 11.421605
_cell_length_c 17.061055
_cell_angle_alpha 90.000000
_cell_angle_beta 90.000000
_cell_angle_gamma 90.000000
_cell_volume 2225.666845
_symmetry_space_group_name_H-M "P -4 21 C"
_symmetry_group_IT_number 114
_symmetry_cell_setting 'tetragonal'
loop_
_space_group_symop_operation_xyz
x,y,z
y,-x,-z
-x,-y,z
-y,x,-z
1/2+x,1/2-y,1/2-z
1/2-x,1/2+y,1/2-z
1/2-y,1/2-x,1/2+z
1/2+y,1/2+x,1/2+z
loop_
_atom_site_type_symbol
_atom_site_label
_atom_site_fract_x
_atom_site_fract_y
_atom_site_fract_z
Si Si1 0.972433 0.819512 0.466406
Si Si2 0.951746 0.829500 0.278587
Si Si3 0.571324 0.320338 0.748956
Si Si4 0.363072 0.032496 0.131950
Si Si5 0.927008 0.605228 0.033420
Si Si6 0.734328 0.210643 0.847355
O O1 0.965560 0.816478 0.371683
O O2 0.951419 0.689507 0.496449
O O3 0.093492 0.873362 0.498765
O O4 0.862371 0.747427 0.233055
O O5 0.078415 0.831697 0.235908
O O6 0.889758 0.952831 0.262610
O O7 0.547216 0.225324 0.682600
O O8 0.608666 0.268829 0.832721
O O9 0.306827 0.163064 0.143079
O O10 0.500000 0.000000 0.153274
O O11 0.353949 0.003189 0.040437
O O12 0.882646 0.714541 0.084313
O O13 0.000000 0.500000 0.074704
#
# Coordination Sequence:
#
# PCOD9556088 Si02
#       6
#     8   8   8   8   8   8
#     4  11  22  41  73 100 133 180 232 299 354 413
#     4  10  22  41  65 100 132 173 236 279 354 428
#     4  10  21  41  65  98 131 174 225 285 355 421
#     4  10  25  44  68 102 136 185 237 290 360 432
#     4  11  26  42  63 100 139 179 242 284 354 431
#     4  11  24  43  68  93 142 184 224 301 348 418
#
# _framework density 21.566569999999999
#
# number of rings (size 3 to 8) (size 9 to 14) (size 15 to 20)
#    0.000    1.500    0.000    5.000   11.667    2.000 
#    6.000    0.833    0.000    0.000    0.000    0.000 
#    0.000    0.000    0.000    0.000    0.000    0.000 
#
# Total GULP energy -267648.535605 kJ/mol
# GULP energy per Si atom -5576.011158 kJ/mol
# Density = 2.151748 g / cm^3
# Si number density = 21.566570 Si / 1000 Ang^3
#
#
#
# Elastic Constant Matrix: (Units=GPa)
#
#
# Indices 1 2 3 4 5 6 
#
# 1 82.8153 33.7543 41.6623 0.0000 0.0000 0.0000
# 2 33.7543 82.8153 41.6623 0.0000 0.0000 0.0000
# 3 41.6623 41.6623 96.7701 0.0000 0.0000 0.0000
# 4 0.0000 0.0000 0.0000 24.3611 0.0000 0.0000
# 5 0.0000 0.0000 0.0000 0.0000 24.3611 0.0000
# 6 0.0000 0.0000 0.0000 0.0000 0.0000 20.3028
#
#
#
# Elastic Compliance Matrix: (Units=1/GPa)
#
#
# Indices 1 2 3 4 5 6 
#
# 1 0.016387 -0.003995 -0.005335 0.000000 0.000000 0.000000
# 2 -0.003995 0.016387 -0.005335 0.000000 0.000000 0.000000
# 3 -0.005335 -0.005335 0.014928 0.000000 0.000000 0.000000
# 4 0.000000 0.000000 0.000000 0.041049 0.000000 0.000000
# 5 0.000000 0.000000 0.000000 0.000000 0.041049 0.000000
# 6 0.000000 0.000000 0.000000 0.000000 0.000000 0.049254
#
#
# Mechanical properties :
#
#
# Convention : Reuss Voigt Hill
#
# Bulk Modulus (GPa) = 54.43277 55.17317 54.80297
# Shear Modulus (GPa) = 23.30895 23.49315 23.40105
#
# Velocity S-wave (km/s) = 3.29110 3.30408 3.29760
# Velocity P-wave (km/s) = 6.30365 6.33989 6.32180
#
# Compressibility (1/GPa) = 0.01837128
#
# Stress axis : x y z
#
# Youngs Moduli (GPa) = 61.02220 61.02220 66.98965
#
# Poissons Ratio (x) = 0.24380 0.35740
# Poissons Ratio (y) = 0.24380 0.35740
# Poissons Ratio (z) = 0.32557 0.32557
#
# Static dielectric constant tensor:
#      x y z
#    x 1.891370 0.000000 0.000000 
#    y 0.000000 1.891370 0.000000 
#    z 0.000000 0.000000 1.790190 
# 
# From -- ./inp_files/2617.got.cif
#   From: 2010.05.17/outbox.cif.g08.bks.cpg/sg114_2_cif.got.tgz:2617.got - 2010.05.20 11:04:54.
