data_PCOD9556804
_publ_section_title
;
Structure prediction by ZEFSAII (Michael W. Deem and Ramdas Pophale) SiO2 
 PCOD9556804
Probable space group: P -4 M 2
;
_chemical_formula_sum "Si O2"
_cell_formula_units_Z 48
_cell_length_a 9.217426
_cell_length_b 9.217426
_cell_length_c 32.375498
_cell_angle_alpha 90.000000
_cell_angle_beta 90.000000
_cell_angle_gamma 90.000000
_cell_volume 2750.652810
_symmetry_space_group_name_H-M "P -4 M 2"
_symmetry_group_IT_number 115
_symmetry_cell_setting 'tetragonal'
loop_
_space_group_symop_operation_xyz
x,y,z
y,-x,-z
-x,-y,z
-y,x,-z
y,x,-z
-y,-x,-z
-x,y,z
x,-y,z
loop_
_atom_site_type_symbol
_atom_site_label
_atom_site_fract_x
_atom_site_fract_y
_atom_site_fract_z
Si Si1 0.671949 0.173878 0.961804
Si Si2 0.174268 0.670790 0.205890
Si Si3 0.833083 0.823512 0.877720
Si Si4 0.828755 0.675160 0.718349
Si Si5 0.177112 0.831627 0.545064
Si Si6 0.176703 0.332434 0.626733
O O1 0.500000 0.199967 0.959874
O O2 0.747734 0.219854 0.918964
O O3 0.694204 0.000000 0.966638
O O4 0.744207 0.255794 0.000000
O O5 0.204331 0.500000 0.202307
O O6 0.222069 0.753060 0.164198
O O7 0.251312 0.738824 0.245532
O O8 0.000000 0.688934 0.209784
O O9 0.000000 0.774986 0.878631
O O10 0.833082 0.000000 0.877465
O O11 0.815733 0.500000 0.719808
O O12 0.780769 0.722895 0.672211
O O13 0.000000 0.709506 0.723247
O O14 0.225212 0.774789 0.500000
O O15 0.227296 0.750583 0.586076
O O16 0.000000 0.825264 0.544202
O O17 0.217309 0.000000 0.548277
O O18 0.219809 0.500000 0.623622
O O19 0.000000 0.328295 0.626725
#
# Coordination Sequence:
#
# PCOD9556804 Si02
#       6
#     8   8   8   8   8   8
#     4  10  20  34  53  77 105 136 169 205 244 286
#     4  10  20  33  50  74 103 132 162 199 245 295
#     4   9  17  31  53  78 102 130 165 204 245 289
#     4   9  18  32  49  70  95 124 162 205 243 284
#     4   8  13  21  35  58  86 113 144 184 228 274
#     4   8  14  25  41  61  86 116 150 188 230 276
#
# _framework density 17.450403999999999
#
# number of rings (size 3 to 8) (size 9 to 14) (size 15 to 20)
#    0.000    3.000    0.000    3.000    0.000    5.000 
#    0.000    2.500    0.000    6.000    0.000    2.333 
#    0.000    0.000    0.000    0.000    0.000    0.000 
#
# Total GULP energy -267432.266053 kJ/mol
# GULP energy per Si atom -5571.505543 kJ/mol
# Density = 1.741069 g / cm^3
# Si number density = 17.450404 Si / 1000 Ang^3
#
#
#
# Elastic Constant Matrix: (Units=GPa)
#
#
# Indices 1 2 3 4 5 6 
#
# 1 51.1147 37.8936 72.9260 0.0000 0.0000 0.0000
# 2 37.8936 51.1156 72.9256 0.0000 0.0000 0.0000
# 3 72.9260 72.9256 228.1536 0.0000 0.0000 0.0000
# 4 0.0000 0.0000 0.0000 -20.1636 0.0000 0.0000
# 5 0.0000 0.0000 0.0000 0.0000 -20.1619 0.0000
# 6 0.0000 0.0000 0.0000 0.0000 0.0000 16.8120
#
#
#
# Elastic Compliance Matrix: (Units=1/GPa)
#
#
# Indices 1 2 3 4 5 6 
#
# 1 0.049613 -0.026022 -0.007541 0.000000 0.000000 0.000000
# 2 -0.026022 0.049611 -0.007540 0.000000 0.000000 0.000000
# 3 -0.007541 -0.007540 0.009203 0.000000 0.000000 0.000000
# 4 0.000000 0.000000 0.000000 -0.049594 0.000000 0.000000
# 5 0.000000 0.000000 0.000000 0.000000 -0.049598 0.000000
# 6 0.000000 0.000000 0.000000 0.000000 0.000000 0.059481
#
#
# Mechanical properties :
#
#
# Convention : Reuss Voigt Hill
#
# Bulk Modulus (GPa) = 38.13421 77.54160 57.83790
# Shear Modulus (GPa) = 31.31606 5.07321 18.19463
#
# Velocity S-wave (km/s) = 4.24084 1.70691 3.23251
# Velocity P-wave (km/s) = 6.77348 6.95820 6.86646
#
# Compressibility (1/GPa) = 0.02622317
#
# Stress axis : x y z
#
# Youngs Moduli (GPa) = 20.15587 20.15671 108.65584
#
# Poissons Ratio (x) = 0.52451 0.81935
# Poissons Ratio (y) = 0.52449 0.81927
# Poissons Ratio (z) = 0.15199 0.15198
#
# Static dielectric constant tensor:
#      x y z
#    x 1.580290 0.000000 0.000000 
#    y 0.000000 1.580290 0.000000 
#    z 0.000000 0.000000 1.597370 
# 
# From -- ./inp_files/6035.got.cif
#   From: 2010.05.17/outbox.cif.g08.bks.cpg/sg115_4_cif.got.tgz:6035.got - 2010.05.20 11:07:42.
