data_PCOD9556137
_publ_section_title
;
Structure prediction by ZEFSAII (Michael W. Deem and Ramdas Pophale) SiO2 
 PCOD9556137
Probable space group: P -4 21 C
;
_chemical_formula_sum "Si O2"
_cell_formula_units_Z 52
_cell_length_a 16.788417
_cell_length_b 16.788417
_cell_length_c 8.955313
_cell_angle_alpha 90.000000
_cell_angle_beta 90.000000
_cell_angle_gamma 90.000000
_cell_volume 2524.063435
_symmetry_space_group_name_H-M "P -4 21 C"
_symmetry_group_IT_number 114
_symmetry_cell_setting 'tetragonal'
loop_
_space_group_symop_operation_xyz
x,y,z
y,-x,-z
-x,-y,z
-y,x,-z
1/2+x,1/2-y,1/2-z
1/2-x,1/2+y,1/2-z
1/2-y,1/2-x,1/2+z
1/2+y,1/2+x,1/2+z
loop_
_atom_site_type_symbol
_atom_site_label
_atom_site_fract_x
_atom_site_fract_y
_atom_site_fract_z
Si Si1 0.572086 0.149769 0.336952
Si Si2 0.344464 0.324179 0.412397
Si Si3 0.353882 0.071178 0.627307
Si Si4 0.104382 0.726041 0.678633
Si Si5 0.991952 0.773032 0.936128
Si Si6 0.243326 0.271558 0.693269
Si Si7 0.000000 0.500000 0.039773
O O1 0.547513 0.195661 0.487949
O O2 0.659393 0.177860 0.293165
O O3 0.557194 0.056822 0.364273
O O4 0.507538 0.173205 0.213164
O O5 0.432768 0.297736 0.460038
O O6 0.334741 0.419063 0.429826
O O7 0.283893 0.281149 0.530445
O O8 0.309681 0.297168 0.252170
O O9 0.295639 0.089169 0.490983
O O10 0.366587 0.144419 0.739471
O O11 0.440179 0.052720 0.556487
O O12 0.178363 0.785318 0.703989
O O13 0.029336 0.755805 0.774182
#
# Coordination Sequence:
#
# PCOD9556137 Si02
#       7
#     8   8   8   8   8   8   4
#     4  11  24  39  56  89 123 158 200 250 306 369
#     4  10  22  39  62  86 120 156 205 252 305 363
#     4  12  23  36  59  82 122 161 196 239 301 369
#     4  11  21  40  59  84 119 165 203 242 308 367
#     4  10  22  41  59  86 117 157 206 256 301 361
#     4  10  23  38  60  85 118 159 202 249 296 363
#     4  12  24  36  56  88 124 156 190 242 310 374
#
# _framework density 20.601700999999998
#
# number of rings (size 3 to 8) (size 9 to 14) (size 15 to 20)
#    0.000    1.231    3.077    3.231    6.462    0.308 
#    0.000    0.000    0.000    0.000    0.000    0.000 
#    0.000    2.462    0.000    0.000    0.000    0.000 
#
# Total GULP energy -290549.062833 kJ/mol
# GULP energy per Si atom -5587.481978 kJ/mol
# Density = 2.055481 g / cm^3
# Si number density = 20.601701 Si / 1000 Ang^3
#
#
#
# Elastic Constant Matrix: (Units=GPa)
#
#
# Indices 1 2 3 4 5 6 
#
# 1 85.5325 21.4740 17.3134 0.0000 0.0000 0.0000
# 2 21.4740 85.5325 17.3134 0.0000 0.0000 0.0000
# 3 17.3134 17.3134 70.3847 0.0000 0.0000 0.0000
# 4 0.0000 0.0000 0.0000 23.1512 0.0000 0.0000
# 5 0.0000 0.0000 0.0000 0.0000 23.1512 0.0000
# 6 0.0000 0.0000 0.0000 0.0000 0.0000 30.1510
#
#
#
# Elastic Compliance Matrix: (Units=1/GPa)
#
#
# Indices 1 2 3 4 5 6 
#
# 1 0.012882 -0.002729 -0.002498 0.000000 0.000000 0.000000
# 2 -0.002729 0.012882 -0.002498 0.000000 0.000000 0.000000
# 3 -0.002498 -0.002498 0.015436 0.000000 0.000000 0.000000
# 4 0.000000 0.000000 0.000000 0.043194 0.000000 0.000000
# 5 0.000000 0.000000 0.000000 0.000000 0.043194 0.000000
# 6 0.000000 0.000000 0.000000 0.000000 0.000000 0.033166
#
#
# Mechanical properties :
#
#
# Convention : Reuss Voigt Hill
#
# Bulk Modulus (GPa) = 38.83053 39.29460 39.06257
# Shear Modulus (GPa) = 27.05812 27.64727 27.35269
#
# Velocity S-wave (km/s) = 3.62801 3.66729 3.64770
# Velocity P-wave (km/s) = 6.03648 6.08662 6.06160
#
# Compressibility (1/GPa) = 0.02575293
#
# Stress axis : x y z
#
# Youngs Moduli (GPa) = 77.62717 77.62717 64.78215
#
# Poissons Ratio (x) = 0.21182 0.16180
# Poissons Ratio (y) = 0.21182 0.16180
# Poissons Ratio (z) = 0.19388 0.19388
#
# Static dielectric constant tensor:
#      x y z
#    x 1.759410 0.000000 0.000000 
#    y 0.000000 1.759410 0.000000 
#    z 0.000000 0.000000 1.790310 
# 
# From -- ./inp_files/979.got.cif
#   From: 2010.05.17/outbox.cif.g08.bks.cpg/sg114_1_cif.got.tgz:979.got - 2010.05.20 11:04:54.
