data_PCOD9556907
_publ_section_title
;
Structure prediction by ZEFSAII (Michael W. Deem and Ramdas Pophale) SiO2 
 PCOD9556907
Probable space group: P -4 M 2
;
_chemical_formula_sum "Si O2"
_cell_formula_units_Z 33
_cell_length_a 8.105258
_cell_length_b 8.105258
_cell_length_c 24.599566
_cell_angle_alpha 90.000000
_cell_angle_beta 90.000000
_cell_angle_gamma 90.000000
_cell_volume 1616.073587
_symmetry_space_group_name_H-M "P -4 M 2"
_symmetry_group_IT_number 115
_symmetry_cell_setting 'tetragonal'
loop_
_space_group_symop_operation_xyz
x,y,z
y,-x,-z
-x,-y,z
-y,x,-z
y,x,-z
-y,-x,-z
-x,y,z
x,-y,z
loop_
_atom_site_type_symbol
_atom_site_label
_atom_site_fract_x
_atom_site_fract_y
_atom_site_fract_z
Si Si1 0.809320 0.805017 0.732834
Si Si2 0.695669 0.304332 0.500000
Si Si3 0.678575 0.695542 0.845620
Si Si4 0.689998 0.198094 0.384142
Si Si5 0.000000 0.296517 0.915082
Si Si6 0.000000 0.000000 0.000000
O O1 0.709743 0.726810 0.781965
O O2 0.745267 0.770819 0.672034
O O3 0.000000 0.743944 0.735848
O O4 0.811132 0.000000 0.741384
O O5 0.500000 0.273617 0.498085
O O6 0.766060 0.245346 0.442314
O O7 0.500000 0.767458 0.861496
O O8 0.671207 0.500000 0.853861
O O9 0.837735 0.748616 0.879735
O O10 0.500000 0.256624 0.383150
O O11 0.690544 0.000000 0.382867
O O12 0.000000 0.500000 0.925008
O O13 0.000000 0.170983 0.965529
#
# Coordination Sequence:
#
# PCOD9556907 Si02
#       6
#     8   4   8   8   4   1
#     4  10  20  33  53  82 117 151 192 246 307 369
#     4   9  18  32  48  65  90 130 182 239 294 357
#     4  10  21  38  63  92 124 166 208 251 308 366
#     4   9  18  32  49  69  98 141 186 234 299 367
#     4  10  24  46  68  98 138 174 213 263 308 357
#     4  12  28  44  76 104 132 180 224 250 308 364
#
# _framework density 20.419861000000001
#
# number of rings (size 3 to 8) (size 9 to 14) (size 15 to 20)
#    0.000    2.303    1.212    0.727    1.697    4.364 
#    0.000    2.424    0.000    0.000    0.000    0.000 
#    0.000    0.000    0.000    0.000    0.000    0.000 
#
# Total GULP energy -183962.549112 kJ/mol
# GULP energy per Si atom -5574.622700 kJ/mol
# Density = 2.037338 g / cm^3
# Si number density = 20.419861 Si / 1000 Ang^3
#
#
#
# Elastic Constant Matrix: (Units=GPa)
#
#
# Indices 1 2 3 4 5 6 
#
# 1 84.0925 0.6525 41.7645 0.0000 0.0000 0.0000
# 2 0.6525 84.0920 41.7642 0.0000 0.0000 0.0000
# 3 41.7645 41.7642 127.6409 0.0000 0.0000 0.0000
# 4 0.0000 0.0000 0.0000 34.7070 0.0000 0.0000
# 5 0.0000 0.0000 0.0000 0.0000 34.7069 0.0000
# 6 0.0000 0.0000 0.0000 0.0000 0.0000 4.6926
#
#
#
# Elastic Compliance Matrix: (Units=1/GPa)
#
#
# Indices 1 2 3 4 5 6 
#
# 1 0.014701 0.002716 -0.005699 0.000000 0.000000 0.000000
# 2 0.002716 0.014701 -0.005699 0.000000 0.000000 0.000000
# 3 -0.005699 -0.005699 0.011564 0.000000 0.000000 0.000000
# 4 0.000000 0.000000 0.000000 0.028813 0.000000 0.000000
# 5 0.000000 0.000000 0.000000 0.000000 0.028813 0.000000
# 6 0.000000 0.000000 0.000000 0.000000 0.000000 0.213104
#
#
# Mechanical properties :
#
#
# Convention : Reuss Voigt Hill
#
# Bulk Modulus (GPa) = 42.36808 51.57641 46.97225
# Shear Modulus (GPa) = 14.84007 28.93092 21.88549
#
# Velocity S-wave (km/s) = 2.69875 3.76813 3.27735
# Velocity P-wave (km/s) = 5.52309 6.65165 6.11347
#
# Compressibility (1/GPa) = 0.02360267
#
# Stress axis : x y z
#
# Youngs Moduli (GPa) = 68.02260 68.02232 86.47587
#
# Poissons Ratio (x) = -0.18477 0.49283
# Poissons Ratio (y) = -0.18477 0.49283
# Poissons Ratio (z) = 0.38766 0.38766
#
# Static dielectric constant tensor:
#      x y z
#    x 1.739420 0.000000 0.000000 
#    y 0.000000 1.739420 0.000000 
#    z 0.000000 0.000000 1.719890 
# 
# From -- ./inp_files/4725.got.cif
#   From: 2010.05.17/outbox.cif.g08.bks.cpg/sg115_3_cif.got.tgz:4725.got - 2010.05.20 11:07:42.
