data_PCOD9556744
_publ_section_title
;
Structure prediction by ZEFSAII (Michael W. Deem and Ramdas Pophale) SiO2 
 PCOD9556744
Probable space group: P -4 M 2
;
_chemical_formula_sum "Si O2"
_cell_formula_units_Z 40
_cell_length_a 9.205199
_cell_length_b 9.205199
_cell_length_c 26.617936
_cell_angle_alpha 90.000000
_cell_angle_beta 90.000000
_cell_angle_gamma 90.000000
_cell_volume 2255.489137
_symmetry_space_group_name_H-M "P -4 M 2"
_symmetry_group_IT_number 115
_symmetry_cell_setting 'tetragonal'
loop_
_space_group_symop_operation_xyz
x,y,z
y,-x,-z
-x,-y,z
-y,x,-z
y,x,-z
-y,-x,-z
-x,y,z
x,-y,z
loop_
_atom_site_type_symbol
_atom_site_label
_atom_site_fract_x
_atom_site_fract_y
_atom_site_fract_z
Si Si1 0.177186 0.332585 0.249569
Si Si2 0.327877 0.826077 0.953493
Si Si3 0.674515 0.329105 0.443009
Si Si4 0.170213 0.825422 0.648702
Si Si5 0.822995 0.167239 0.149042
O O1 0.223522 0.500000 0.248564
O O2 0.222107 0.254084 0.300906
O O3 0.225438 0.247462 0.199778
O O4 0.000000 0.331167 0.249042
O O5 0.500000 0.800175 0.951035
O O6 0.252283 0.780679 0.901295
O O7 0.305217 0.000000 0.959497
O O8 0.256110 0.743891 0.000000
O O9 0.714746 0.285255 0.500000
O O10 0.500000 0.315612 0.439127
O O11 0.710101 0.500000 0.436827
O O12 0.751678 0.237450 0.400244
O O13 0.000000 0.792473 0.653479
O O14 0.185884 0.000000 0.644545
O O15 0.000000 0.167293 0.150000
O O16 0.775441 0.000000 0.147731
#
# Coordination Sequence:
#
# PCOD9556744 Si02
#       5
#     8   8   8   8   8
#     4   9  16  27  45  70 101 136 172 209 250 298
#     4  10  20  33  50  73 100 131 168 208 251 302
#     4   9  19  36  55  73  95 127 168 211 255 306
#     4  10  20  32  48  74 106 136 168 208 253 301
#     4   9  16  27  46  72 101 131 165 209 257 301
#
# _framework density 17.734513
#
# number of rings (size 3 to 8) (size 9 to 14) (size 15 to 20)
#    0.000    2.600    0.000    3.000    0.000    8.400 
#    0.000    3.000    0.000    1.200    0.000    0.000 
#    0.000    0.000    0.000    0.000    0.000    0.000 
#
# Total GULP energy -223147.075116 kJ/mol
# GULP energy per Si atom -5578.676878 kJ/mol
# Density = 1.769415 g / cm^3
# Si number density = 17.734513 Si / 1000 Ang^3
#
#
#
# Elastic Constant Matrix: (Units=GPa)
#
#
# Indices 1 2 3 4 5 6 
#
# 1 73.1187 51.1452 85.2973 0.0000 0.0000 0.0000
# 2 51.1452 73.1180 85.2983 0.0000 0.0000 0.0000
# 3 85.2973 85.2983 212.0823 0.0000 0.0000 0.0000
# 4 0.0000 0.0000 0.0000 -112.3686 0.0000 0.0000
# 5 0.0000 0.0000 0.0000 0.0000 -112.3741 0.0000
# 6 0.0000 0.0000 0.0000 0.0000 0.0000 20.2025
#
#
#
# Elastic Compliance Matrix: (Units=1/GPa)
#
#
# Indices 1 2 3 4 5 6 
#
# 1 0.031739 -0.013770 -0.007227 0.000000 0.000000 0.000000
# 2 -0.013770 0.031740 -0.007227 0.000000 0.000000 0.000000
# 3 -0.007227 -0.007227 0.010528 0.000000 0.000000 0.000000
# 4 0.000000 0.000000 0.000000 -0.008899 0.000000 0.000000
# 5 0.000000 0.000000 0.000000 0.000000 -0.008899 0.000000
# 6 0.000000 0.000000 0.000000 0.000000 0.000000 0.049499
#
#
# Mechanical properties :
#
#
# Convention : Reuss Voigt Hill
#
# Bulk Modulus (GPa) = 56.95253 89.08896 73.02074
# Shear Modulus (GPa) = 29.76016 -31.80283 -1.02133
#
# Velocity S-wave (km/s) = 4.10090 -4.23930 -0.75971
# Velocity P-wave (km/s) = 7.38964 5.13630 6.36351
#
# Compressibility (1/GPa) = 0.01755848
#
# Stress axis : x y z
#
# Youngs Moduli (GPa) = 31.50708 31.50592 94.98091
#
# Poissons Ratio (x) = 0.43385 0.68639
# Poissons Ratio (y) = 0.43387 0.68646
# Poissons Ratio (z) = 0.22769 0.22770
#
# Static dielectric constant tensor:
#      x y z
#    x 1.590840 0.000000 0.000000 
#    y 0.000000 1.590840 0.000000 
#    z 0.000000 0.000000 1.581000 
# 
# From -- ./inp_files/5079.got.cif
#   From: 2010.05.17/outbox.cif.g08.bks.cpg/sg115_3_cif.got.tgz:5079.got - 2010.05.20 11:07:42.
