data_PCOD9556403
_publ_section_title
;
Structure prediction by ZEFSAII (Michael W. Deem and Ramdas Pophale) SiO2 
 PCOD9556403
Probable space group: P -4 21 C
;
_chemical_formula_sum "Si O2"
_cell_formula_units_Z 40
_cell_length_a 9.152290
_cell_length_b 9.152290
_cell_length_c 18.407129
_cell_angle_alpha 90.000000
_cell_angle_beta 90.000000
_cell_angle_gamma 90.000000
_cell_volume 1541.862342
_symmetry_space_group_name_H-M "P -4 21 C"
_symmetry_group_IT_number 114
_symmetry_cell_setting 'tetragonal'
loop_
_space_group_symop_operation_xyz
x,y,z
y,-x,-z
-x,-y,z
-y,x,-z
1/2+x,1/2-y,1/2-z
1/2-x,1/2+y,1/2-z
1/2-y,1/2-x,1/2+z
1/2+y,1/2+x,1/2+z
loop_
_atom_site_type_symbol
_atom_site_label
_atom_site_fract_x
_atom_site_fract_y
_atom_site_fract_z
Si Si1 0.586547 0.855605 0.648753
Si Si2 0.154733 0.954627 0.792088
Si Si3 0.784063 0.931012 0.010117
Si Si4 0.374173 0.102462 0.383046
Si Si5 0.603997 0.394531 0.864754
O O1 0.642504 0.722633 0.701335
O O2 0.497879 0.790343 0.581264
O O3 0.736414 0.880653 0.604147
O O4 0.500000 0.000000 0.676807
O O5 0.290384 0.042828 0.826208
O O6 0.145120 0.016818 0.709861
O O7 0.000000 0.000000 0.825802
O O8 0.696301 0.832970 0.952885
O O9 0.927114 0.841416 0.034236
O O10 0.500000 0.000000 0.413806
O O11 0.251190 0.991541 0.353028
O O12 0.500000 0.500000 0.908906
#
# Coordination Sequence:
#
# PCOD9556403 Si02
#       5
#     8   8   8   8   8
#     4  12  27  48  79 117 151 212 267 330 406 498
#     4  11  26  48  75 108 154 206 269 323 402 483
#     4  11  23  45  80 119 155 203 269 338 411 499
#     4  12  24  48  78 112 162 209 266 342 411 486
#     4  11  29  46  69 113 156 209 262 335 407 476
#
# _framework density 25.942653
#
# number of rings (size 3 to 8) (size 9 to 14) (size 15 to 20)
#    0.000    0.600    4.000    1.800   11.200    2.400 
#    0.000    0.000    0.000    0.000    0.000    0.000 
#    0.000    0.000    0.000    0.000    0.000    0.000 
#
# Total GULP energy -222873.127697 kJ/mol
# GULP energy per Si atom -5571.828192 kJ/mol
# Density = 2.588361 g / cm^3
# Si number density = 25.942653 Si / 1000 Ang^3
#
#
#
# Elastic Constant Matrix: (Units=GPa)
#
#
# Indices 1 2 3 4 5 6 
#
# 1 142.7177 37.6849 9.8132 0.0000 0.0000 0.0000
# 2 37.6849 142.7177 9.8132 0.0000 0.0000 0.0000
# 3 9.8132 9.8132 90.8348 0.0000 0.0000 0.0000
# 4 0.0000 0.0000 0.0000 21.9811 0.0000 0.0000
# 5 0.0000 0.0000 0.0000 0.0000 21.9811 0.0000
# 6 0.0000 0.0000 0.0000 0.0000 0.0000 55.9856
#
#
#
# Elastic Compliance Matrix: (Units=1/GPa)
#
#
# Indices 1 2 3 4 5 6 
#
# 1 0.007565 -0.001956 -0.000606 0.000000 0.000000 0.000000
# 2 -0.001956 0.007565 -0.000606 0.000000 0.000000 0.000000
# 3 -0.000606 -0.000606 0.011140 0.000000 0.000000 0.000000
# 4 0.000000 0.000000 0.000000 0.045494 0.000000 0.000000
# 5 0.000000 0.000000 0.000000 0.000000 0.045494 0.000000
# 6 0.000000 0.000000 0.000000 0.000000 0.000000 0.017862
#
#
# Mechanical properties :
#
#
# Convention : Reuss Voigt Hill
#
# Bulk Modulus (GPa) = 50.16499 54.54364 52.35432
# Shear Modulus (GPa) = 33.76111 41.25347 37.50729
#
# Velocity S-wave (km/s) = 3.61137 3.99203 3.80646
# Velocity P-wave (km/s) = 6.06368 6.50529 6.28836
#
# Compressibility (1/GPa) = 0.01993422
#
# Stress axis : x y z
#
# Youngs Moduli (GPa) = 132.18841 132.18841 89.76719
#
# Poissons Ratio (x) = 0.25854 0.05440
# Poissons Ratio (y) = 0.25854 0.05440
# Poissons Ratio (z) = 0.08010 0.08010
#
# Static dielectric constant tensor:
#      x y z
#    x 2.220260 0.000000 0.000000 
#    y 0.000000 2.220260 0.000000 
#    z 0.000000 0.000000 2.011580 
# 
# From -- ./inp_files/3374.got.cif
#   From: 2010.05.17/outbox.cif.g08.bks.cpg/sg114_2_cif.got.tgz:3374.got - 2010.05.20 11:04:54.
