data_PCOD9556289
_publ_section_title
;
Structure prediction by ZEFSAII (Michael W. Deem and Ramdas Pophale) SiO2 
 PCOD9556289
Probable space group: P -4 21 C
;
_chemical_formula_sum "Si O2"
_cell_formula_units_Z 36
_cell_length_a 9.142457
_cell_length_b 9.142457
_cell_length_c 19.250685
_cell_angle_alpha 90.000000
_cell_angle_beta 90.000000
_cell_angle_gamma 90.000000
_cell_volume 1609.059265
_symmetry_space_group_name_H-M "P -4 21 C"
_symmetry_group_IT_number 114
_symmetry_cell_setting 'tetragonal'
loop_
_space_group_symop_operation_xyz
x,y,z
y,-x,-z
-x,-y,z
-y,x,-z
1/2+x,1/2-y,1/2-z
1/2-x,1/2+y,1/2-z
1/2-y,1/2-x,1/2+z
1/2+y,1/2+x,1/2+z
loop_
_atom_site_type_symbol
_atom_site_label
_atom_site_fract_x
_atom_site_fract_y
_atom_site_fract_z
Si Si1 0.500000 0.500000 0.800565
Si Si2 0.256250 0.108379 0.599943
Si Si3 0.471802 0.171940 0.417934
Si Si4 0.376019 0.609369 0.333206
Si Si5 0.810099 0.695171 0.471267
O O1 0.630371 0.434401 0.845760
O O2 0.565376 0.620685 0.747129
O O3 0.321741 0.961689 0.567952
O O4 0.193363 0.821120 0.463694
O O5 0.553304 0.234272 0.350687
O O6 0.547349 0.234316 0.488551
O O7 0.307754 0.230263 0.421016
O O8 0.500000 0.000000 0.421104
O O9 0.500000 0.500000 0.365181
O O10 0.216721 0.623313 0.366521
#
# Coordination Sequence:
#
# PCOD9556289 Si02
#       5
#     4   8   8   8   8
#     4  10  24  45  70 103 146 196 248 314 362 460
#     4  11  22  45  73 107 147 187 251 312 373 452
#     4  11  24  42  68 104 151 183 249 302 382 452
#     4   9  25  48  67 102 140 200 243 295 376 444
#     4  11  24  41  72 110 141 193 237 314 382 442
#
# _framework density 22.373322000000002
#
# number of rings (size 3 to 8) (size 9 to 14) (size 15 to 20)
#    0.667    0.889    2.222    1.333    9.333    1.778 
#    0.000    0.000    0.000    0.000    0.000    0.000 
#    0.000    0.000    0.000    0.000    0.000    0.000 
#
# Total GULP energy -201032.662686 kJ/mol
# GULP energy per Si atom -5584.240630 kJ/mol
# Density = 2.232240 g / cm^3
# Si number density = 22.373322 Si / 1000 Ang^3
#
#
#
# Elastic Constant Matrix: (Units=GPa)
#
#
# Indices 1 2 3 4 5 6 
#
# 1 96.8496 27.7505 18.8215 0.0000 0.0000 0.0000
# 2 27.7505 96.8496 18.8215 0.0000 0.0000 0.0000
# 3 18.8215 18.8215 80.5940 0.0000 0.0000 0.0000
# 4 0.0000 0.0000 0.0000 27.2861 0.0000 0.0000
# 5 0.0000 0.0000 0.0000 0.0000 27.2861 0.0000
# 6 0.0000 0.0000 0.0000 0.0000 0.0000 24.4129
#
#
#
# Elastic Compliance Matrix: (Units=1/GPa)
#
#
# Indices 1 2 3 4 5 6 
#
# 1 0.011553 -0.002919 -0.002017 0.000000 0.000000 0.000000
# 2 -0.002919 0.011553 -0.002017 0.000000 0.000000 0.000000
# 3 -0.002017 -0.002017 0.013350 0.000000 0.000000 0.000000
# 4 0.000000 0.000000 0.000000 0.036649 0.000000 0.000000
# 5 0.000000 0.000000 0.000000 0.000000 0.036649 0.000000
# 6 0.000000 0.000000 0.000000 0.000000 0.000000 0.040962
#
#
# Mechanical properties :
#
#
# Convention : Reuss Voigt Hill
#
# Bulk Modulus (GPa) = 44.33935 45.00893 44.67414
# Shear Modulus (GPa) = 29.04659 29.72363 29.38511
#
# Velocity S-wave (km/s) = 3.60706 3.64885 3.62802
# Velocity P-wave (km/s) = 6.09990 6.15736 6.12870
#
# Compressibility (1/GPa) = 0.02255333
#
# Stress axis : x y z
#
# Youngs Moduli (GPa) = 86.55432 86.55432 74.90778
#
# Poissons Ratio (x) = 0.25261 0.15106
# Poissons Ratio (y) = 0.25261 0.15106
# Poissons Ratio (z) = 0.17454 0.17454
#
# Static dielectric constant tensor:
#      x y z
#    x 1.874300 0.000000 0.000000 
#    y 0.000000 1.874300 0.000000 
#    z 0.000000 0.000000 1.797230 
# 
# From -- ./inp_files/2508.got.cif
#   From: 2010.05.17/outbox.cif.g08.bks.cpg/sg114_2_cif.got.tgz:2508.got - 2010.05.20 11:04:54.
