data_PCOD9556500
_publ_section_title
;
Structure prediction by ZEFSAII (Michael W. Deem and Ramdas Pophale) SiO2 
 PCOD9556500
Probable space group: P -4 21 C
;
_chemical_formula_sum "Si O2"
_cell_formula_units_Z 18
_cell_length_a 8.104817
_cell_length_b 8.104817
_cell_length_c 10.318718
_cell_angle_alpha 90.000000
_cell_angle_beta 90.000000
_cell_angle_gamma 90.000000
_cell_volume 677.816553
_symmetry_space_group_name_H-M "P -4 21 C"
_symmetry_group_IT_number 114
_symmetry_cell_setting 'tetragonal'
loop_
_space_group_symop_operation_xyz
x,y,z
y,-x,-z
-x,-y,z
-y,x,-z
1/2+x,1/2-y,1/2-z
1/2-x,1/2+y,1/2-z
1/2-y,1/2-x,1/2+z
1/2+y,1/2+x,1/2+z
loop_
_atom_site_type_symbol
_atom_site_label
_atom_site_fract_x
_atom_site_fract_y
_atom_site_fract_z
Si Si1 0.500000 0.500000 0.500000
Si Si2 0.092622 0.817420 0.320083
Si Si3 0.715178 0.178507 0.067856
O O1 0.310406 0.494187 0.452520
O O2 0.959394 0.684776 0.362775
O O3 0.224944 0.827030 0.435443
O O4 0.168657 0.756260 0.185320
O O5 0.000000 0.000000 0.305979
#
# Coordination Sequence:
#
# PCOD9556500 Si02
#       3
#     2   8   8
#     4  12  28  48  76 126 156 224 280 338 424 524
#     4  12  26  55  83 122 163 224 279 353 424 507
#     4  12  26  53  81 119 170 211 289 342 426 506
#
# _framework density 26.555857
#
# number of rings (size 3 to 8) (size 9 to 14) (size 15 to 20)
#    0.000    0.000    6.667    2.667    0.000    1.778 
#   12.000    0.000    0.000    0.000    0.000    0.000 
#    0.000    0.000    0.000    0.000    0.000    0.000 
#
# Total GULP energy -100260.864421 kJ/mol
# GULP energy per Si atom -5570.048023 kJ/mol
# Density = 2.649542 g / cm^3
# Si number density = 26.555857 Si / 1000 Ang^3
#
#
#
# Elastic Constant Matrix: (Units=GPa)
#
#
# Indices 1 2 3 4 5 6 
#
# 1 72.8888 20.5696 24.9467 0.0000 0.0000 0.0000
# 2 20.5696 72.8888 24.9467 0.0000 0.0000 0.0000
# 3 24.9467 24.9467 203.4509 0.0000 0.0000 0.0000
# 4 0.0000 0.0000 0.0000 28.6241 0.0000 0.0000
# 5 0.0000 0.0000 0.0000 0.0000 28.6241 0.0000
# 6 0.0000 0.0000 0.0000 0.0000 0.0000 62.4834
#
#
#
# Elastic Compliance Matrix: (Units=1/GPa)
#
#
# Indices 1 2 3 4 5 6 
#
# 1 0.015281 -0.003832 -0.001404 0.000000 0.000000 0.000000
# 2 -0.003832 0.015281 -0.001404 0.000000 0.000000 0.000000
# 3 -0.001404 -0.001404 0.005259 0.000000 0.000000 0.000000
# 4 0.000000 0.000000 0.000000 0.034936 0.000000 0.000000
# 5 0.000000 0.000000 0.000000 0.000000 0.034936 0.000000
# 6 0.000000 0.000000 0.000000 0.000000 0.000000 0.016004
#
#
# Mechanical properties :
#
#
# Convention : Reuss Voigt Hill
#
# Bulk Modulus (GPa) = 44.36019 54.46160 49.41090
# Shear Modulus (GPa) = 35.08975 42.53067 38.81021
#
# Velocity S-wave (km/s) = 3.63899 4.00628 3.82705
# Velocity P-wave (km/s) = 5.86490 6.47713 6.17861
#
# Compressibility (1/GPa) = 0.02254273
#
# Stress axis : x y z
#
# Youngs Moduli (GPa) = 65.43889 65.43889 190.13290
#
# Poissons Ratio (x) = 0.25076 0.26693
# Poissons Ratio (y) = 0.25076 0.26693
# Poissons Ratio (z) = 0.09187 0.09187
#
# Static dielectric constant tensor:
#      x y z
#    x 2.512350 0.000000 0.000000 
#    y 0.000000 2.512350 0.000000 
#    z 0.000000 0.000000 2.295850 
# 
# From -- ./inp_files/1156.got.cif
#   From: 2010.05.17/outbox.cif.g08.bks.cpg/sg114_1_cif.got.tgz:1156.got - 2010.05.20 11:04:54.
