data_PCOD9556000
_publ_section_title
;
Structure prediction by ZEFSAII (Michael W. Deem and Ramdas Pophale) SiO2 
 PCOD9556000
Probable space group: P -4 21 C
;
_chemical_formula_sum "Si O2"
_cell_formula_units_Z 60
_cell_length_a 16.303684
_cell_length_b 16.303684
_cell_length_c 9.545320
_cell_angle_alpha 90.000000
_cell_angle_beta 90.000000
_cell_angle_gamma 90.000000
_cell_volume 2537.242578
_symmetry_space_group_name_H-M "P -4 21 C"
_symmetry_group_IT_number 114
_symmetry_cell_setting 'tetragonal'
loop_
_space_group_symop_operation_xyz
x,y,z
y,-x,-z
-x,-y,z
-y,x,-z
1/2+x,1/2-y,1/2-z
1/2-x,1/2+y,1/2-z
1/2-y,1/2-x,1/2+z
1/2+y,1/2+x,1/2+z
loop_
_atom_site_type_symbol
_atom_site_label
_atom_site_fract_x
_atom_site_fract_y
_atom_site_fract_z
Si Si1 0.862154 0.261337 0.255066
Si Si2 0.727976 0.626043 0.125074
Si Si3 0.091731 0.915024 0.564004
Si Si4 0.393872 0.146144 0.518391
Si Si5 0.500000 0.000000 0.046313
Si Si6 0.540409 0.255504 0.614678
Si Si7 0.846443 0.597518 0.880979
Si Si8 0.462143 0.693495 0.304649
O O1 0.780230 0.212808 0.296191
O O2 0.884726 0.324899 0.376669
O O3 0.940342 0.202274 0.226322
O O4 0.852472 0.311085 0.112636
O O5 0.660113 0.641062 0.005133
O O6 0.701225 0.557306 0.238315
O O7 0.806480 0.595906 0.037399
O O8 0.114124 0.926493 0.726030
O O9 0.003641 0.891743 0.507655
O O10 0.453009 0.210723 0.598585
O O11 0.455832 0.074733 0.466971
O O12 0.461815 0.924763 0.132233
O O13 0.610302 0.185477 0.627164
O O14 0.552945 0.304114 0.470368
O O15 0.775529 0.576163 0.769218
#
# Coordination Sequence:
#
# PCOD9556000 Si02
#       8
#     8   8   8   8   4   8   8   8
#     4  11  23  42  61  95 129 176 209 274 320 404
#     4  11  24  41  64  91 136 168 225 267 333 398
#     4  10  21  42  68  89 112 164 223 275 322 386
#     4  10  24  40  66  94 135 168 222 262 334 391
#     4  10  20  40  70  98 130 172 228 278 322 396
#     4  10  23  41  58  97 129 169 205 266 325 389
#     4  10  21  39  66  94 127 177 215 266 319 399
#     4  10  20  42  63  91 129 158 217 265 329 381
#
# _framework density 23.647718999999999
#
# number of rings (size 3 to 8) (size 9 to 14) (size 15 to 20)
#    0.000    1.733    2.667    0.800    3.733    0.533 
#    4.800    0.000    0.000    1.600    0.000    0.000 
#    0.000    0.000    0.000    0.000    0.000    0.000 
#
# Total GULP energy -334984.469209 kJ/mol
# GULP energy per Si atom -5583.074487 kJ/mol
# Density = 2.359390 g / cm^3
# Si number density = 23.647719 Si / 1000 Ang^3
#
#
#
# Elastic Constant Matrix: (Units=GPa)
#
#
# Indices 1 2 3 4 5 6 
#
# 1 -690.9253 745.6750 12.7146 0.0000 0.0000 0.0000
# 2 745.6750 -690.9253 12.7146 0.0000 0.0000 0.0000
# 3 12.7146 12.7146 87.4438 0.0000 0.0000 0.0000
# 4 0.0000 0.0000 0.0000 23.6963 0.0000 0.0000
# 5 0.0000 0.0000 0.0000 0.0000 23.6963 0.0000
# 6 0.0000 0.0000 0.0000 0.0000 0.0000 30.2274
#
#
#
# Elastic Compliance Matrix: (Units=1/GPa)
#
#
# Indices 1 2 3 4 5 6 
#
# 1 0.009446 0.010142 -0.002848 0.000000 0.000000 0.000000
# 2 0.010142 0.009446 -0.002848 0.000000 0.000000 0.000000
# 3 -0.002848 -0.002848 0.012264 0.000000 0.000000 0.000000
# 4 0.000000 0.000000 0.000000 0.042201 0.000000 0.000000
# 5 0.000000 0.000000 0.000000 0.000000 0.042201 0.000000
# 6 0.000000 0.000000 0.000000 0.000000 0.000000 0.033083
#
#
# Mechanical properties :
#
#
# Convention : Reuss Voigt Hill
#
# Bulk Modulus (GPa) = 24.97050 27.53352 26.25201
# Shear Modulus (GPa) = 32.65894 -122.17672 -44.75889
#
# Velocity S-wave (km/s) = 3.72029 -7.19566 -4.35528
# Velocity P-wave (km/s) = 5.38854 7.57418 3.76376
#
# Compressibility (1/GPa) = 0.04004726
#
# Stress axis : x y z
#
# Youngs Moduli (GPa) = 105.86642 105.86642 81.53832
#
# Poissons Ratio (x) = -1.07369 0.23223
# Poissons Ratio (y) = -1.07369 0.23223
# Poissons Ratio (z) = 0.30152 0.30152
#
# Static dielectric constant tensor:
#      x y z
#    x 1.951030 0.000000 0.000000 
#    y 0.000000 1.951030 0.000000 
#    z 0.000000 0.000000 1.447320 
# 
# From -- ./inp_files/1032.got.cif
#   From: 2010.05.17/outbox.cif.g08.bks.cpg/sg114_1_cif.got.tgz:1032.got - 2010.05.20 11:04:54.
