data_PCOD9556350
_publ_section_title
;
Structure prediction by ZEFSAII (Michael W. Deem and Ramdas Pophale) SiO2 
 PCOD9556350
Probable space group: P -4 21 C
;
_chemical_formula_sum "Si O2"
_cell_formula_units_Z 48
_cell_length_a 8.778237
_cell_length_b 8.778237
_cell_length_c 27.732387
_cell_angle_alpha 90.000000
_cell_angle_beta 90.000000
_cell_angle_gamma 90.000000
_cell_volume 2136.986881
_symmetry_space_group_name_H-M "P -4 21 C"
_symmetry_group_IT_number 114
_symmetry_cell_setting 'tetragonal'
loop_
_space_group_symop_operation_xyz
x,y,z
y,-x,-z
-x,-y,z
-y,x,-z
1/2+x,1/2-y,1/2-z
1/2-x,1/2+y,1/2-z
1/2-y,1/2-x,1/2+z
1/2+y,1/2+x,1/2+z
loop_
_atom_site_type_symbol
_atom_site_label
_atom_site_fract_x
_atom_site_fract_y
_atom_site_fract_z
Si Si1 0.261004 0.299820 0.352615
Si Si2 0.120465 0.233945 0.448999
Si Si3 0.374255 0.716662 0.944420
Si Si4 0.785549 0.563564 0.156290
Si Si5 0.728452 0.478130 0.789460
Si Si6 0.000000 0.500000 0.736284
Si Si7 0.000000 0.000000 0.205504
O O1 0.209088 0.324202 0.407732
O O2 0.379669 0.416221 0.329445
O O3 0.112505 0.303246 0.319502
O O4 0.301079 0.118792 0.350128
O O5 0.154750 0.288196 0.503302
O O6 0.938309 0.224624 0.440208
O O7 0.167663 0.053852 0.446535
O O8 0.360387 0.813856 0.895649
O O9 0.623772 0.626162 0.175095
O O10 0.893534 0.595579 0.200815
O O11 0.878013 0.401491 0.766024
O O12 0.628104 0.540132 0.745468
#
# Coordination Sequence:
#
# PCOD9556350 Si02
#       7
#     8   8   8   8   8   4   4
#     4  11  21  37  62  94 134 178 227 286 349 420
#     4   8  14  28  55  95 128 160 212 279 343 401
#     4   8  14  28  56  93 128 162 209 278 347 400
#     4  11  21  39  61  93 132 177 226 284 349 406
#     4  12  24  42  63  90 138 185 232 278 340 422
#     4  12  28  38  60  98 130 178 232 284 336 402
#     4  12  24  38  62  98 136 188 236 282 344 420
#
# _framework density 22.461532999999999
#
# number of rings (size 3 to 8) (size 9 to 14) (size 15 to 20)
#    0.000    1.667    5.000    2.000    0.000    0.000 
#    0.000    0.000    0.000    1.000    8.667    3.500 
#    0.000    0.000    0.000    0.000    0.000    0.000 
#
# Total GULP energy -267683.423251 kJ/mol
# GULP energy per Si atom -5576.737984 kJ/mol
# Density = 2.241041 g / cm^3
# Si number density = 22.461533 Si / 1000 Ang^3
#
#
#
# Elastic Constant Matrix: (Units=GPa)
#
#
# Indices 1 2 3 4 5 6 
#
# 1 62.7185 34.6445 51.4582 0.0000 0.0000 0.0000
# 2 34.6445 62.7185 51.4582 0.0000 0.0000 0.0000
# 3 51.4582 51.4582 186.0032 0.0000 0.0000 0.0000
# 4 0.0000 0.0000 0.0000 1746.2464 0.0000 0.0000
# 5 0.0000 0.0000 0.0000 0.0000 1746.2464 0.0000
# 6 0.0000 0.0000 0.0000 0.0000 0.0000 33.0172
#
#
#
# Elastic Compliance Matrix: (Units=1/GPa)
#
#
# Indices 1 2 3 4 5 6 
#
# 1 0.025068 -0.010552 -0.004016 0.000000 0.000000 0.000000
# 2 -0.010552 0.025068 -0.004016 0.000000 0.000000 0.000000
# 3 -0.004016 -0.004016 0.007598 0.000000 0.000000 0.000000
# 4 0.000000 0.000000 0.000000 0.000573 0.000000 0.000000
# 5 0.000000 0.000000 0.000000 0.000000 0.000573 0.000000
# 6 0.000000 0.000000 0.000000 0.000000 0.000000 0.030287
#
#
# Mechanical properties :
#
#
# Convention : Reuss Voigt Hill
#
# Bulk Modulus (GPa) = 48.62299 65.17357 56.89828
# Shear Modulus (GPa) = 37.54042 716.69397 377.11719
#
# Velocity S-wave (km/s) = 4.09261 17.88208 12.97147
# Velocity P-wave (km/s) = 6.63527 21.34097 15.80291
#
# Compressibility (1/GPa) = 0.02056640
#
# Stress axis : x y z
#
# Youngs Moduli (GPa) = 39.89161 39.89161 131.60983
#
# Poissons Ratio (x) = 0.42095 0.52852
# Poissons Ratio (y) = 0.42095 0.52852
# Poissons Ratio (z) = 0.16020 0.16020
#
# Static dielectric constant tensor:
#      x y z
#    x -1.489270 0.000000 0.000000 
#    y 0.000000 -1.489270 0.000000 
#    z 0.000000 0.000000 1.875140 
# 
# From -- ./inp_files/4017.got.cif
#   From: 2010.05.17/outbox.cif.g08.bks.cpg/sg114_3_cif.got.tgz:4017.got - 2010.05.20 11:04:54.
