data_PCOD9556501
_publ_section_title
;
Structure prediction by ZEFSAII (Michael W. Deem and Ramdas Pophale) SiO2 
 PCOD9556501
Probable space group: P -4 21 C
;
_chemical_formula_sum "Si O2"
_cell_formula_units_Z 34
_cell_length_a 8.356891
_cell_length_b 8.356891
_cell_length_c 18.911706
_cell_angle_alpha 90.000000
_cell_angle_beta 90.000000
_cell_angle_gamma 90.000000
_cell_volume 1320.748673
_symmetry_space_group_name_H-M "P -4 21 C"
_symmetry_group_IT_number 114
_symmetry_cell_setting 'tetragonal'
loop_
_space_group_symop_operation_xyz
x,y,z
y,-x,-z
-x,-y,z
-y,x,-z
1/2+x,1/2-y,1/2-z
1/2-x,1/2+y,1/2-z
1/2-y,1/2-x,1/2+z
1/2+y,1/2+x,1/2+z
loop_
_atom_site_type_symbol
_atom_site_label
_atom_site_fract_x
_atom_site_fract_y
_atom_site_fract_z
Si Si1 0.403590 0.337408 0.678084
Si Si2 0.061910 0.654908 0.430626
Si Si3 0.500000 0.500000 0.500000
Si Si4 0.523852 0.164393 0.810310
Si Si5 0.780723 0.271597 0.564636
O O1 0.500000 0.500000 0.660777
O O2 0.419215 0.187672 0.624396
O O3 0.467605 0.297956 0.756086
O O4 0.211720 0.341419 0.675967
O O5 0.147813 0.766015 0.487189
O O6 0.000000 0.500000 0.473907
O O7 0.901030 0.734642 0.402603
O O8 0.639077 0.397416 0.541834
O O9 0.410754 0.163679 0.879376
O O10 0.500000 0.000000 0.768766
#
# Coordination Sequence:
#
# PCOD9556501 Si02
#       5
#     8   8   2   8   8
#     4  12  31  54  88 125 174 229 290 366 445 528
#     4  12  28  49  83 124 170 225 290 356 437 519
#     4  12  28  52  84 124 172 232 288 370 440 524
#     4  12  30  52  83 126 169 226 294 359 436 525
#     4  12  29  52  83 125 173 227 292 360 436 526
#
# _framework density 25.742977
#
# number of rings (size 3 to 8) (size 9 to 14) (size 15 to 20)
#    0.000    0.000    2.353    4.235   18.118    2.353 
#    0.000    0.000    0.000    0.000    0.000    0.000 
#    0.000    0.000    0.000    0.000    0.000    0.000 
#
# Total GULP energy -189764.567877 kJ/mol
# GULP energy per Si atom -5581.310820 kJ/mol
# Density = 2.568438 g / cm^3
# Si number density = 25.742977 Si / 1000 Ang^3
#
#
#
# Elastic Constant Matrix: (Units=GPa)
#
#
# Indices 1 2 3 4 5 6 
#
# 1 194.7180 87.5448 80.5666 0.0000 0.0000 0.0000
# 2 87.5448 194.7180 80.5666 0.0000 0.0000 0.0000
# 3 80.5666 80.5666 132.4619 0.0000 0.0000 0.0000
# 4 0.0000 0.0000 0.0000 -261.5444 0.0000 0.0000
# 5 0.0000 0.0000 0.0000 0.0000 -261.5444 0.0000
# 6 0.0000 0.0000 0.0000 0.0000 0.0000 41.0386
#
#
#
# Elastic Compliance Matrix: (Units=1/GPa)
#
#
# Indices 1 2 3 4 5 6 
#
# 1 0.007379 -0.001952 -0.003301 0.000000 0.000000 0.000000
# 2 -0.001952 0.007379 -0.003301 0.000000 0.000000 0.000000
# 3 -0.003301 -0.003301 0.011565 0.000000 0.000000 0.000000
# 4 0.000000 0.000000 0.000000 -0.003823 0.000000 0.000000
# 5 0.000000 0.000000 0.000000 0.000000 -0.003823 0.000000
# 6 0.000000 0.000000 0.000000 0.000000 0.000000 0.024367
#
#
# Mechanical properties :
#
#
# Convention : Reuss Voigt Hill
#
# Bulk Modulus (GPa) = 108.51453 113.25043 110.88248
# Shear Modulus (GPa) = 79.08619 -78.19537 0.44541
#
# Velocity S-wave (km/s) = 5.54871 -5.51737 0.41641
# Velocity P-wave (km/s) = 9.12663 1.87077 6.58769
#
# Compressibility (1/GPa) = 0.00921536
#
# Stress axis : x y z
#
# Youngs Moduli (GPa) = 135.52085 135.52085 86.46945
#
# Poissons Ratio (x) = 0.26450 0.28543
# Poissons Ratio (y) = 0.26450 0.28543
# Poissons Ratio (z) = 0.44735 0.44735
#
# Static dielectric constant tensor:
#      x y z
#    x 2.996510 0.000000 0.000000 
#    y 0.000000 2.996510 0.000000 
#    z 0.000000 0.000000 2.013180 
# 
# From -- ./inp_files/2983.got.cif
#   From: 2010.05.17/outbox.cif.g08.bks.cpg/sg114_2_cif.got.tgz:2983.got - 2010.05.20 11:04:54.
