data_PCOD9556564
_publ_section_title
;
Structure prediction by ZEFSAII (Michael W. Deem and Ramdas Pophale) SiO2 
 PCOD9556564
Probable space group: P -4 M 2
;
_chemical_formula_sum "Si O2"
_cell_formula_units_Z 48
_cell_length_a 14.443729
_cell_length_b 14.443729
_cell_length_c 12.664366
_cell_angle_alpha 90.000000
_cell_angle_beta 90.000000
_cell_angle_gamma 90.000000
_cell_volume 2642.056593
_symmetry_space_group_name_H-M "P -4 M 2"
_symmetry_group_IT_number 115
_symmetry_cell_setting 'tetragonal'
loop_
_space_group_symop_operation_xyz
x,y,z
y,-x,-z
-x,-y,z
-y,x,-z
y,x,-z
-y,-x,-z
-x,y,z
x,-y,z
loop_
_atom_site_type_symbol
_atom_site_label
_atom_site_fract_x
_atom_site_fract_y
_atom_site_fract_z
Si Si1 0.397234 0.887537 0.870994
Si Si2 0.606289 0.245288 0.451426
Si Si3 0.702871 0.106861 0.283000
Si Si4 0.135538 0.099602 0.620357
Si Si5 0.356906 0.106018 0.634047
Si Si6 0.889135 0.249990 0.957438
O O1 0.500000 0.859573 0.901402
O O2 0.376962 0.858455 0.751534
O O3 0.393117 0.000000 0.869440
O O4 0.324123 0.856077 0.956224
O O5 0.673580 0.326421 0.500000
O O6 0.500000 0.275270 0.427293
O O7 0.651324 0.185317 0.353960
O O8 0.602428 0.170636 0.545383
O O9 0.808722 0.102128 0.323017
O O10 0.713325 0.133752 0.159908
O O11 0.664739 0.000000 0.292866
O O12 0.103103 0.103103 0.500000
O O13 0.246583 0.104639 0.619018
O O14 0.109638 0.000000 0.668276
O O15 0.389789 0.000000 0.625249
O O16 0.000000 0.242278 0.959644
O O17 0.843791 0.156209 0.000000
#
# Coordination Sequence:
#
# PCOD9556564 Si02
#       6
#     8   8   8   8   8   8
#     4   9  18  33  54  81 108 138 183 235 286 335
#     4  12  25  41  61  86 118 152 194 245 305 370
#     4  11  22  38  58  86 122 159 200 244 293 349
#     4  11  20  32  53  80 117 155 189 228 274 338
#     4  10  18  33  59  87 115 145 183 235 289 343
#     4  10  22  37  57  82 117 161 200 241 284 336
#
# _framework density 18.167665
#
# number of rings (size 3 to 8) (size 9 to 14) (size 15 to 20)
#    0.000    1.500    3.333    2.500    0.000    6.167 
#    0.000    3.333    0.000    0.000    0.000    0.000 
#    0.000    0.333    0.000    0.000    0.000    0.000 
#
# Total GULP energy -267638.207363 kJ/mol
# GULP energy per Si atom -5575.795987 kJ/mol
# Density = 1.812631 g / cm^3
# Si number density = 18.167665 Si / 1000 Ang^3
#
#
#
# Elastic Constant Matrix: (Units=GPa)
#
#
# Indices 1 2 3 4 5 6 
#
# 1 83.7128 28.5915 32.8886 0.0000 0.0000 0.0000
# 2 28.5915 83.7177 32.8886 0.0000 0.0000 0.0000
# 3 32.8886 32.8886 119.0574 0.0000 0.0000 0.0000
# 4 0.0000 0.0000 0.0000 12.3890 0.0000 0.0000
# 5 0.0000 0.0000 0.0000 0.0000 12.3887 0.0000
# 6 0.0000 0.0000 0.0000 0.0000 0.0000 2.3709
#
#
#
# Elastic Compliance Matrix: (Units=1/GPa)
#
#
# Indices 1 2 3 4 5 6 
#
# 1 0.014382 -0.003759 -0.002935 0.000000 0.000000 0.000000
# 2 -0.003759 0.014381 -0.002934 0.000000 0.000000 0.000000
# 3 -0.002935 -0.002934 0.010021 0.000000 0.000000 0.000000
# 4 0.000000 0.000000 0.000000 0.080717 0.000000 0.000000
# 5 0.000000 0.000000 0.000000 0.000000 0.080719 0.000000
# 6 0.000000 0.000000 0.000000 0.000000 0.000000 0.421784
#
#
# Mechanical properties :
#
#
# Convention : Reuss Voigt Hill
#
# Bulk Modulus (GPa) = 51.20746 52.80281 52.00513
# Shear Modulus (GPa) = 7.71880 18.23766 12.97823
#
# Velocity S-wave (km/s) = 2.06346 3.17180 2.67565
# Velocity P-wave (km/s) = 5.82447 6.52235 6.18326
#
# Compressibility (1/GPa) = 0.01952841
#
# Stress axis : x y z
#
# Youngs Moduli (GPa) = 69.52929 69.53391 99.79475
#
# Poissons Ratio (x) = 0.26138 0.29286
# Poissons Ratio (y) = 0.26136 0.29283
# Poissons Ratio (z) = 0.20404 0.20404
#
# Static dielectric constant tensor:
#      x y z
#    x 1.658440 0.000000 0.000000 
#    y 0.000000 1.658440 0.000000 
#    z 0.000000 0.000000 1.634290 
# 
# From -- ./inp_files/2955.got.cif
#   From: 2010.05.17/outbox.cif.g08.bks.cpg/sg115_2_cif.got.tgz:2955.got - 2010.05.20 11:07:42.
