data_PCOD9556948
_publ_section_title
;
Structure prediction by ZEFSAII (Michael W. Deem and Ramdas Pophale) SiO2 
 PCOD9556948
Probable space group: P -4 M 2
;
_chemical_formula_sum "Si O2"
_cell_formula_units_Z 48
_cell_length_a 9.191402
_cell_length_b 9.191402
_cell_length_c 31.798185
_cell_angle_alpha 90.000000
_cell_angle_beta 90.000000
_cell_angle_gamma 90.000000
_cell_volume 2686.370154
_symmetry_space_group_name_H-M "P -4 M 2"
_symmetry_group_IT_number 115
_symmetry_cell_setting 'tetragonal'
loop_
_space_group_symop_operation_xyz
x,y,z
y,-x,-z
-x,-y,z
-y,x,-z
y,x,-z
-y,-x,-z
-x,y,z
x,-y,z
loop_
_atom_site_type_symbol
_atom_site_label
_atom_site_fract_x
_atom_site_fract_y
_atom_site_fract_z
Si Si1 0.827265 0.326855 0.288175
Si Si2 0.667435 0.677000 0.875150
Si Si3 0.673203 0.172426 0.461188
Si Si4 0.828185 0.674557 0.789665
Si Si5 0.672419 0.673044 0.374797
Si Si6 0.674360 0.827621 0.039100
O O1 0.799069 0.500000 0.282773
O O2 0.752964 0.240994 0.250315
O O3 0.758993 0.283801 0.333046
O O4 0.000000 0.304301 0.288347
O O5 0.500000 0.725467 0.875690
O O6 0.667692 0.500000 0.874986
O O7 0.748525 0.722268 0.832571
O O8 0.751591 0.720976 0.917338
O O9 0.756027 0.243974 0.500000
O O10 0.500000 0.199857 0.466020
O O11 0.718045 0.243077 0.416790
O O12 0.696482 0.000000 0.460258
O O13 0.807941 0.500000 0.785348
O O14 0.000000 0.702603 0.792681
O O15 0.500000 0.698726 0.368038
O O16 0.692825 0.500000 0.381362
O O17 0.500000 0.805216 0.034312
O O18 0.700486 0.000000 0.041153
O O19 0.755824 0.755824 0.000000
#
# Coordination Sequence:
#
# PCOD9556948 Si02
#       6
#     8   8   8   8   8   8
#     4  10  21  36  54  78 108 141 177 218 264 314
#     4   9  17  31  54  81 106 135 174 220 266 311
#     4  10  21  36  55  80 109 140 175 216 262 313
#     4  10  20  34  54  80 109 141 177 218 264 314
#     4   9  18  34  56  79 104 138 180 223 264 309
#     4  10  20  34  53  78 108 140 175 216 262 313
#
# _framework density 17.867978000000001
#
# number of rings (size 3 to 8) (size 9 to 14) (size 15 to 20)
#    0.000    2.333    0.000    2.500    0.000    7.333 
#    0.000    4.167    0.000    5.000    0.000    0.000 
#    0.000    0.000    0.000    0.000    0.000    0.000 
#
# Total GULP energy -267969.574150 kJ/mol
# GULP energy per Si atom -5582.699461 kJ/mol
# Density = 1.782731 g / cm^3
# Si number density = 17.867978 Si / 1000 Ang^3
#
#
#
# Elastic Constant Matrix: (Units=GPa)
#
#
# Indices 1 2 3 4 5 6 
#
# 1 71.5450 66.2110 96.0122 0.0000 0.0000 0.0000
# 2 66.2110 71.5460 96.0135 0.0000 0.0000 0.0000
# 3 96.0122 96.0135 225.4657 0.0000 0.0000 0.0000
# 4 0.0000 0.0000 0.0000 -16.0781 0.0000 0.0000
# 5 0.0000 0.0000 0.0000 0.0000 -16.0793 0.0000
# 6 0.0000 0.0000 0.0000 0.0000 0.0000 21.2127
#
#
#
# Elastic Compliance Matrix: (Units=1/GPa)
#
#
# Indices 1 2 3 4 5 6 
#
# 1 0.102661 -0.084799 -0.007606 0.000000 0.000000 0.000000
# 2 -0.084799 0.102662 -0.007607 0.000000 0.000000 0.000000
# 3 -0.007606 -0.007607 0.010914 0.000000 0.000000 0.000000
# 4 0.000000 0.000000 0.000000 -0.062196 0.000000 0.000000
# 5 0.000000 0.000000 0.000000 0.000000 -0.062192 0.000000
# 6 0.000000 0.000000 0.000000 0.000000 0.000000 0.047142
#
#
# Mechanical properties :
#
#
# Convention : Reuss Voigt Hill
#
# Bulk Modulus (GPa) = 61.68223 98.33668 80.00945
# Shear Modulus (GPa) = 14.51725 5.16573 9.84149
#
# Velocity S-wave (km/s) = 2.85348 1.70215 2.34944
# Velocity P-wave (km/s) = 6.74185 7.68230 7.22739
#
# Compressibility (1/GPa) = 0.01621212
#
# Stress axis : x y z
#
# Youngs Moduli (GPa) = 9.74079 9.74074 91.62863
#
# Poissons Ratio (x) = 0.82601 0.69691
# Poissons Ratio (y) = 0.82601 0.69704
# Poissons Ratio (z) = 0.07409 0.07410
#
# Static dielectric constant tensor:
#      x y z
#    x 1.594020 0.000000 0.000000 
#    y 0.000000 1.594010 0.000000 
#    z 0.000000 0.000000 1.576900 
# 
# From -- ./inp_files/5997.got.cif
#   From: 2010.05.17/outbox.cif.g08.bks.cpg/sg115_3_cif.got.tgz:5997.got - 2010.05.20 11:07:42.
