data_PCOD9556151
_publ_section_title
;
Structure prediction by ZEFSAII (Michael W. Deem and Ramdas Pophale) SiO2 
 PCOD9556151
Probable space group: P -4 21 C
;
_chemical_formula_sum "Si O2"
_cell_formula_units_Z 56
_cell_length_a 14.925956
_cell_length_b 14.925956
_cell_length_c 11.747013
_cell_angle_alpha 90.000000
_cell_angle_beta 90.000000
_cell_angle_gamma 90.000000
_cell_volume 2617.048453
_symmetry_space_group_name_H-M "P -4 21 C"
_symmetry_group_IT_number 114
_symmetry_cell_setting 'tetragonal'
loop_
_space_group_symop_operation_xyz
x,y,z
y,-x,-z
-x,-y,z
-y,x,-z
1/2+x,1/2-y,1/2-z
1/2-x,1/2+y,1/2-z
1/2-y,1/2-x,1/2+z
1/2+y,1/2+x,1/2+z
loop_
_atom_site_type_symbol
_atom_site_label
_atom_site_fract_x
_atom_site_fract_y
_atom_site_fract_z
Si Si1 0.773576 0.356622 0.286406
Si Si2 0.540929 0.366152 0.529560
Si Si3 0.276256 0.869178 0.713147
Si Si4 0.169627 0.458226 0.579688
Si Si5 0.654575 0.868179 0.467928
Si Si6 0.772152 0.067572 0.234841
Si Si7 0.726203 0.066125 0.475342
O O1 0.682809 0.299328 0.282644
O O2 0.816423 0.333537 0.410736
O O3 0.817356 0.332145 0.160226
O O4 0.760841 0.464640 0.281487
O O5 0.439994 0.402194 0.535691
O O6 0.541693 0.267200 0.478315
O O7 0.580659 0.357093 0.655494
O O8 0.312503 0.952707 0.785270
O O9 0.361422 0.803532 0.698831
O O10 0.238036 0.896474 0.592432
O O11 0.119353 0.547630 0.543681
O O12 0.115759 0.368449 0.549404
O O13 0.705185 0.961581 0.481734
O O14 0.788110 0.083650 0.367252
#
# Coordination Sequence:
#
# PCOD9556151 Si02
#       7
#     8   8   8   8   8   8   8
#     4  11  24  39  65  99 135 174 228 276 331 407
#     4  11  23  40  65  93 125 166 222 282 327 378
#     4  11  23  39  67  94 133 182 219 269 344 406
#     4  11  22  37  65  91 130 170 220 265 334 399
#     4  11  23  40  63  98 135 173 219 283 334 406
#     4  10  22  41  61  93 133 164 224 278 322 402
#     4  10  22  40  60  96 133 178 212 273 342 405
#
# _framework density 21.398152
#
# number of rings (size 3 to 8) (size 9 to 14) (size 15 to 20)
#    0.000    1.286    2.857    2.143    6.000    0.000 
#    0.000    4.286    0.000    0.000    0.000    0.000 
#    0.000    0.000    0.000    0.000    0.000    0.000 
#
# Total GULP energy -312495.726289 kJ/mol
# GULP energy per Si atom -5580.280827 kJ/mol
# Density = 2.134945 g / cm^3
# Si number density = 21.398152 Si / 1000 Ang^3
#
#
#
# Elastic Constant Matrix: (Units=GPa)
#
#
# Indices 1 2 3 4 5 6 
#
# 1 40.1284 14.0706 17.7830 0.0000 0.0000 0.0000
# 2 14.0706 40.1284 17.7830 0.0000 0.0000 0.0000
# 3 17.7830 17.7830 155.7499 0.0000 0.0000 0.0000
# 4 0.0000 0.0000 0.0000 31.0888 0.0000 0.0000
# 5 0.0000 0.0000 0.0000 0.0000 31.0888 0.0000
# 6 0.0000 0.0000 0.0000 0.0000 0.0000 19.7242
#
#
#
# Elastic Compliance Matrix: (Units=1/GPa)
#
#
# Indices 1 2 3 4 5 6 
#
# 1 0.029160 -0.009216 -0.002277 0.000000 0.000000 0.000000
# 2 -0.009216 0.029160 -0.002277 0.000000 0.000000 0.000000
# 3 -0.002277 -0.002277 0.006941 0.000000 0.000000 0.000000
# 4 0.000000 0.000000 0.000000 0.032166 0.000000 0.000000
# 5 0.000000 0.000000 0.000000 0.000000 0.032166 0.000000
# 6 0.000000 0.000000 0.000000 0.000000 0.000000 0.050699
#
#
# Mechanical properties :
#
#
# Convention : Reuss Voigt Hill
#
# Bulk Modulus (GPa) = 26.51018 37.25334 31.88176
# Shear Modulus (GPa) = 22.68536 28.80505 25.74521
#
# Velocity S-wave (km/s) = 3.25953 3.67297 3.47241
# Velocity P-wave (km/s) = 5.15577 5.95273 5.56853
#
# Compressibility (1/GPa) = 0.03772135
#
# Stress axis : x y z
#
# Youngs Moduli (GPa) = 34.29297 34.29297 144.08048
#
# Poissons Ratio (x) = 0.31603 0.32811
# Poissons Ratio (y) = 0.31603 0.32811
# Poissons Ratio (z) = 0.07809 0.07809
#
# Static dielectric constant tensor:
#      x y z
#    x 1.751090 0.000000 0.000000 
#    y 0.000000 1.751090 0.000000 
#    z 0.000000 0.000000 1.863970 
# 
# From -- ./inp_files/1759.got.cif
#   From: 2010.05.17/outbox.cif.g08.bks.cpg/sg114_1_cif.got.tgz:1759.got - 2010.05.20 11:04:54.
