data_PCOD9556027
_publ_section_title
;
Structure prediction by ZEFSAII (Michael W. Deem and Ramdas Pophale) SiO2 
 PCOD9556027
Probable space group: P -4 21 C
;
_chemical_formula_sum "Si O2"
_cell_formula_units_Z 36
_cell_length_a 10.493868
_cell_length_b 10.493868
_cell_length_c 17.729257
_cell_angle_alpha 90.000000
_cell_angle_beta 90.000000
_cell_angle_gamma 90.000000
_cell_volume 1952.368219
_symmetry_space_group_name_H-M "P -4 21 C"
_symmetry_group_IT_number 114
_symmetry_cell_setting 'tetragonal'
loop_
_space_group_symop_operation_xyz
x,y,z
y,-x,-z
-x,-y,z
-y,x,-z
1/2+x,1/2-y,1/2-z
1/2-x,1/2+y,1/2-z
1/2-y,1/2-x,1/2+z
1/2+y,1/2+x,1/2+z
loop_
_atom_site_type_symbol
_atom_site_label
_atom_site_fract_x
_atom_site_fract_y
_atom_site_fract_z
Si Si1 0.500000 0.500000 0.500000
Si Si2 0.289442 0.004198 0.230883
Si Si3 0.000000 0.000000 0.500000
Si Si4 0.662053 0.376352 0.626352
Si Si5 0.662053 0.376352 0.126352
Si Si6 0.210558 0.504198 0.769117
O O1 0.612408 0.449457 0.553733
O O2 0.214897 0.031749 0.307957
O O3 0.368264 0.131736 0.211669
O O4 0.198009 0.956099 0.164910
O O5 0.392107 0.892107 0.243073
O O6 0.050543 0.887592 0.553733
O O7 0.772893 0.272893 0.610024
O O8 0.714897 0.468251 0.692043
O O9 0.543901 0.301991 0.164910
#
# Coordination Sequence:
#
# PCOD9556027 Si02
#       6
#     2   8   2   8   8   8
#     4  12  24  34  48  76 112 142 164 196 252 314
#     4   9  18  35  58  78  96 127 174 219 252 288
#     4  12  24  34  48  76 112 142 164 196 252 314
#     4  10  21  35  53  77 103 134 170 208 252 300
#     4  10  21  35  53  77 103 134 170 208 252 300
#     4   9  18  35  58  78  96 127 174 219 252 288
#
# _framework density 18.439143000000001
#
# number of rings (size 3 to 8) (size 9 to 14) (size 15 to 20)
#    0.000    2.222    0.000    2.667    0.000    3.556 
#    0.000    0.000    0.000    0.000    0.000    0.000 
#    0.000    0.000    0.000    0.000    0.000    0.000 
#
# Total GULP energy -201034.180335 kJ/mol
# GULP energy per Si atom -5584.282787 kJ/mol
# Density = 1.839718 g / cm^3
# Si number density = 18.439143 Si / 1000 Ang^3
#
#
#
# Elastic Constant Matrix: (Units=GPa)
#
#
# Indices 1 2 3 4 5 6 
#
# 1 25.8680 -12.0809 0.1753 0.0000 0.0000 0.0000
# 2 -12.0809 25.8680 0.1753 0.0000 0.0000 0.0000
# 3 0.1753 0.1753 37.3077 0.0000 0.0000 0.0000
# 4 0.0000 0.0000 0.0000 2.1873 0.0000 0.0000
# 5 0.0000 0.0000 0.0000 0.0000 2.1873 0.0000
# 6 0.0000 0.0000 0.0000 0.0000 0.0000 16.5118
#
#
#
# Elastic Compliance Matrix: (Units=1/GPa)
#
#
# Indices 1 2 3 4 5 6 
#
# 1 0.049446 0.023094 -0.000341 0.000000 0.000000 0.000000
# 2 0.023094 0.049446 -0.000341 0.000000 0.000000 0.000000
# 3 -0.000341 -0.000341 0.026807 0.000000 0.000000 0.000000
# 4 0.000000 0.000000 0.000000 0.457195 0.000000 0.000000
# 5 0.000000 0.000000 0.000000 0.000000 0.457195 0.000000
# 6 0.000000 0.000000 0.000000 0.000000 0.000000 0.060563
#
#
# Mechanical properties :
#
#
# Convention : Reuss Voigt Hill
#
# Bulk Modulus (GPa) = 5.86426 7.28699 6.57563
# Shear Modulus (GPa) = 4.49371 10.89554 7.69462
#
# Velocity S-wave (km/s) = 1.56280 2.43346 2.04500
# Velocity P-wave (km/s) = 2.53844 3.44328 3.02488
#
# Compressibility (1/GPa) = 0.17052451
#
# Stress axis : x y z
#
# Youngs Moduli (GPa) = 20.22422 20.22422 37.30320
#
# Poissons Ratio (x) = -0.46707 0.01271
# Poissons Ratio (y) = -0.46707 0.01271
# Poissons Ratio (z) = 0.00689 0.00689
#
# Static dielectric constant tensor:
#      x y z
#    x 1.653580 0.000000 0.000000 
#    y 0.000000 1.653580 0.000000 
#    z 0.000000 0.000000 1.575410 
# 
# From -- ./inp_files/1499.got.cif
#   From: 2010.05.17/outbox.cif.g08.bks.cpg/sg114_1_cif.got.tgz:1499.got - 2010.05.20 11:04:54.
