data_PCOD9556112
_publ_section_title
;
Structure prediction by ZEFSAII (Michael W. Deem and Ramdas Pophale) SiO2 
 PCOD9556112
Probable space group: P -4 21 C
;
_chemical_formula_sum "Si O2"
_cell_formula_units_Z 36
_cell_length_a 8.946696
_cell_length_b 8.946696
_cell_length_c 19.079451
_cell_angle_alpha 90.000000
_cell_angle_beta 90.000000
_cell_angle_gamma 90.000000
_cell_volume 1527.183543
_symmetry_space_group_name_H-M "P -4 21 C"
_symmetry_group_IT_number 114
_symmetry_cell_setting 'tetragonal'
loop_
_space_group_symop_operation_xyz
x,y,z
y,-x,-z
-x,-y,z
-y,x,-z
1/2+x,1/2-y,1/2-z
1/2-x,1/2+y,1/2-z
1/2-y,1/2-x,1/2+z
1/2+y,1/2+x,1/2+z
loop_
_atom_site_type_symbol
_atom_site_label
_atom_site_fract_x
_atom_site_fract_y
_atom_site_fract_z
Si Si1 0.958538 0.218982 0.117038
Si Si2 0.718037 0.711612 0.105819
Si Si3 0.072178 0.163261 0.750932
Si Si4 0.437265 0.165454 0.981810
Si Si5 0.000000 0.500000 0.719368
O O1 0.870628 0.113261 0.169061
O O2 0.853923 0.276039 0.054827
O O3 0.988422 0.358910 0.168568
O O4 0.130228 0.190071 0.094829
O O5 0.681906 0.691561 0.187579
O O6 0.748948 0.548694 0.070471
O O7 0.583264 0.771668 0.059003
O O8 0.007027 0.333978 0.753520
O O9 0.000000 0.000000 0.730690
O O10 0.500000 0.000000 0.986814
#
# Coordination Sequence:
#
# PCOD9556112 Si02
#       5
#     8   8   8   8   4
#     4  10  21  47  68  95 146 182 233 313 370 447
#     4  10  23  41  70 102 142 187 249 309 377 453
#     4  11  25  43  71 104 141 194 247 312 379 461
#     4  10  21  45  67  97 139 189 239 309 367 454
#     4  10  22  44  66  96 146 184 234 304 372 440
#
# _framework density 23.572804000000001
#
# number of rings (size 3 to 8) (size 9 to 14) (size 15 to 20)
#    0.000    1.778    5.556    0.000    9.333    0.000 
#   10.000    0.000    0.000    0.000    0.000    0.000 
#    0.000    0.000    0.000    0.000    0.000    0.000 
#
# Total GULP energy -200449.748051 kJ/mol
# GULP energy per Si atom -5568.048557 kJ/mol
# Density = 2.351915 g / cm^3
# Si number density = 23.572804 Si / 1000 Ang^3
#
#
#
# Elastic Constant Matrix: (Units=GPa)
#
#
# Indices 1 2 3 4 5 6 
#
# 1 88.7096 18.8640 34.0858 0.0000 0.0000 0.0000
# 2 18.8640 88.7096 34.0858 0.0000 0.0000 0.0000
# 3 34.0858 34.0858 111.3749 0.0000 0.0000 0.0000
# 4 0.0000 0.0000 0.0000 3180.6652 0.0000 0.0000
# 5 0.0000 0.0000 0.0000 0.0000 3180.6652 0.0000
# 6 0.0000 0.0000 0.0000 0.0000 0.0000 5.3010
#
#
#
# Elastic Compliance Matrix: (Units=1/GPa)
#
#
# Indices 1 2 3 4 5 6 
#
# 1 0.012925 -0.001392 -0.003530 0.000000 0.000000 0.000000
# 2 -0.001392 0.012925 -0.003530 0.000000 0.000000 0.000000
# 3 -0.003530 -0.003530 0.011139 0.000000 0.000000 0.000000
# 4 0.000000 0.000000 0.000000 0.000314 0.000000 0.000000
# 5 0.000000 0.000000 0.000000 0.000000 0.000314 0.000000
# 6 0.000000 0.000000 0.000000 0.000000 0.000000 0.188644
#
#
# Mechanical properties :
#
#
# Convention : Reuss Voigt Hill
#
# Bulk Modulus (GPa) = 49.78507 51.42950 50.60728
# Shear Modulus (GPa) = 20.01117 1286.77682 653.39400
#
# Velocity S-wave (km/s) = 2.91677 23.38928 16.66682
# Velocity P-wave (km/s) = 5.70166 27.40941 19.79627
#
# Compressibility (1/GPa) = 0.02008634
#
# Stress axis : x y z
#
# Youngs Moduli (GPa) = 77.36945 77.36945 89.77401
#
# Poissons Ratio (x) = 0.10772 0.31686
# Poissons Ratio (y) = 0.10772 0.31686
# Poissons Ratio (z) = 0.27308 0.27308
#
# Static dielectric constant tensor:
#      x y z
#    x -0.376680 0.000000 0.000000 
#    y 0.000000 -0.376680 0.000000 
#    z 0.000000 0.000000 1.832680 
# 
# From -- ./inp_files/2940.got.cif
#   From: 2010.05.17/outbox.cif.g08.bks.cpg/sg114_2_cif.got.tgz:2940.got - 2010.05.20 11:04:54.
