data_PCOD9556694
_publ_section_title
;
Structure prediction by ZEFSAII (Michael W. Deem and Ramdas Pophale) SiO2 
 PCOD9556694
Probable space group: P -4 M 2
;
_chemical_formula_sum "Si O2"
_cell_formula_units_Z 40
_cell_length_a 14.453338
_cell_length_b 14.453338
_cell_length_c 10.269350
_cell_angle_alpha 90.000000
_cell_angle_beta 90.000000
_cell_angle_gamma 90.000000
_cell_volume 2145.256734
_symmetry_space_group_name_H-M "P -4 M 2"
_symmetry_group_IT_number 115
_symmetry_cell_setting 'tetragonal'
loop_
_space_group_symop_operation_xyz
x,y,z
y,-x,-z
-x,-y,z
-y,x,-z
y,x,-z
-y,-x,-z
-x,y,z
x,-y,z
loop_
_atom_site_type_symbol
_atom_site_label
_atom_site_fract_x
_atom_site_fract_y
_atom_site_fract_z
Si Si1 0.105238 0.741660 0.533202
Si Si2 0.636489 0.399103 0.348645
Si Si3 0.393737 0.144800 0.695571
Si Si4 0.393866 0.197788 0.254285
Si Si5 0.895013 0.388095 0.010629
O O1 0.171825 0.828176 0.500000
O O2 0.101508 0.676265 0.406184
O O3 0.152785 0.677489 0.643924
O O4 0.000000 0.767586 0.569414
O O5 0.609450 0.390551 0.500000
O O6 0.606146 0.500000 0.299336
O O7 0.747128 0.396789 0.339213
O O8 0.603664 0.307819 0.275430
O O9 0.500000 0.109920 0.685230
O O10 0.360067 0.132822 0.843865
O O11 0.500000 0.163124 0.275822
O O12 0.362897 0.170850 0.108843
O O13 0.894199 0.500000 0.014117
O O14 0.000000 0.357860 0.983011
#
# Coordination Sequence:
#
# PCOD9556694 Si02
#       5
#     8   8   8   8   8
#     4  12  24  40  60  86 116 150 195 244 299 358
#     4  11  21  35  56  86 123 161 200 241 290 351
#     4  10  19  36  61  87 115 149 194 242 294 354
#     4  11  21  37  60  89 120 154 197 243 293 351
#     4   9  19  34  54  85 120 151 186 241 305 350
#
# _framework density 18.645788
#
# number of rings (size 3 to 8) (size 9 to 14) (size 15 to 20)
#    0.000    1.400    4.000    2.400    0.000    5.600 
#    0.000    0.000    0.000    1.200    0.000   11.200 
#    0.000    4.800    0.000    0.000    0.000    0.000 
#
# Total GULP energy -223245.497083 kJ/mol
# GULP energy per Si atom -5581.137427 kJ/mol
# Density = 1.860335 g / cm^3
# Si number density = 18.645788 Si / 1000 Ang^3
#
#
#
# Elastic Constant Matrix: (Units=GPa)
#
#
# Indices 1 2 3 4 5 6 
#
# 1 116.0039 20.2039 38.0302 0.0000 0.0000 0.0000
# 2 20.2039 116.0040 38.0300 0.0000 0.0000 0.0000
# 3 38.0302 38.0300 119.0315 0.0000 0.0000 0.0000
# 4 0.0000 0.0000 0.0000 8.6994 0.0000 0.0000
# 5 0.0000 0.0000 0.0000 0.0000 8.7003 0.0000
# 6 0.0000 0.0000 0.0000 0.0000 0.0000 1.1402
#
#
#
# Elastic Compliance Matrix: (Units=1/GPa)
#
#
# Indices 1 2 3 4 5 6 
#
# 1 0.009687 -0.000751 -0.002855 0.000000 0.000000 0.000000
# 2 -0.000751 0.009687 -0.002855 0.000000 0.000000 0.000000
# 3 -0.002855 -0.002855 0.010225 0.000000 0.000000 0.000000
# 4 0.000000 0.000000 0.000000 0.114951 0.000000 0.000000
# 5 0.000000 0.000000 0.000000 0.000000 0.114939 0.000000
# 6 0.000000 0.000000 0.000000 0.000000 0.000000 0.877043
#
#
# Mechanical properties :
#
#
# Convention : Reuss Voigt Hill
#
# Bulk Modulus (GPa) = 59.96137 60.39639 60.17888
# Shear Modulus (GPa) = 4.32895 20.69299 12.51097
#
# Velocity S-wave (km/s) = 1.52536 3.33497 2.59314
# Velocity P-wave (km/s) = 5.94392 6.87686 6.42734
#
# Compressibility (1/GPa) = 0.01667740
#
# Stress axis : x y z
#
# Youngs Moduli (GPa) = 103.22887 103.22909 97.79501
#
# Poissons Ratio (x) = 0.07755 0.27921
# Poissons Ratio (y) = 0.07755 0.27920
# Poissons Ratio (z) = 0.29472 0.29472
#
# Static dielectric constant tensor:
#      x y z
#    x 1.666730 0.000000 0.000000 
#    y 0.000000 1.666730 0.000000 
#    z 0.000000 0.000000 1.635700 
# 
# From -- ./inp_files/1585.got.cif
#   From: 2010.05.17/outbox.cif.g08.bks.cpg/sg115_1_cif.got.tgz:1585.got - 2010.05.20 11:07:42.
