data_PCOD9556453
_publ_section_title
;
Structure prediction by ZEFSAII (Michael W. Deem and Ramdas Pophale) SiO2 
 PCOD9556453
Probable space group: P -4 21 C
;
_chemical_formula_sum "Si O2"
_cell_formula_units_Z 32
_cell_length_a 8.534493
_cell_length_b 8.534493
_cell_length_c 18.681283
_cell_angle_alpha 90.000000
_cell_angle_beta 90.000000
_cell_angle_gamma 90.000000
_cell_volume 1360.699273
_symmetry_space_group_name_H-M "P -4 21 C"
_symmetry_group_IT_number 114
_symmetry_cell_setting 'tetragonal'
loop_
_space_group_symop_operation_xyz
x,y,z
y,-x,-z
-x,-y,z
-y,x,-z
1/2+x,1/2-y,1/2-z
1/2-x,1/2+y,1/2-z
1/2-y,1/2-x,1/2+z
1/2+y,1/2+x,1/2+z
loop_
_atom_site_type_symbol
_atom_site_label
_atom_site_fract_x
_atom_site_fract_y
_atom_site_fract_z
Si Si1 0.214258 0.133890 0.163824
Si Si2 0.220286 0.132165 0.793301
Si Si3 0.627771 0.633578 0.895912
Si Si4 0.079766 0.652068 0.467881
O O1 0.339953 0.228026 0.211832
O O2 0.264159 0.134147 0.080155
O O3 0.046975 0.215311 0.180256
O O4 0.196018 0.954704 0.190527
O O5 0.345268 0.236250 0.836647
O O6 0.500000 0.500000 0.880484
O O7 0.790530 0.547390 0.910590
O O8 0.592637 0.720900 0.970289
O O9 0.000000 0.500000 0.501034
#
# Coordination Sequence:
#
# PCOD9556453 Si02
#       4
#     8   8   8   8
#     4  11  27  47  73 108 149 195 248 310 371 446
#     4  11  27  47  74 110 147 196 249 307 374 445
#     4  12  26  47  73 107 146 196 245 299 370 452
#     4  12  25  47  71 104 147 190 244 304 372 442
#
# _framework density 23.517320000000002
#
# number of rings (size 3 to 8) (size 9 to 14) (size 15 to 20)
#    0.000    0.500    5.000    1.500   10.500    0.000 
#    4.500    2.500    0.000    0.000    0.000    0.000 
#    0.000    0.000    0.000    0.000    0.000    0.000 
#
# Total GULP energy -179034.713184 kJ/mol
# GULP energy per Si atom -5594.834787 kJ/mol
# Density = 2.346379 g / cm^3
# Si number density = 23.517320 Si / 1000 Ang^3
#
#
#
# Elastic Constant Matrix: (Units=GPa)
#
#
# Indices 1 2 3 4 5 6 
#
# 1 102.6348 52.5271 45.5535 0.0000 0.0000 0.0000
# 2 52.5271 102.6348 45.5535 0.0000 0.0000 0.0000
# 3 45.5535 45.5535 112.7350 0.0000 0.0000 0.0000
# 4 0.0000 0.0000 0.0000 33.2066 0.0000 0.0000
# 5 0.0000 0.0000 0.0000 0.0000 33.2066 0.0000
# 6 0.0000 0.0000 0.0000 0.0000 0.0000 42.9989
#
#
#
# Elastic Compliance Matrix: (Units=1/GPa)
#
#
# Indices 1 2 3 4 5 6 
#
# 1 0.014203 -0.005754 -0.003414 0.000000 0.000000 0.000000
# 2 -0.005754 0.014203 -0.003414 0.000000 0.000000 0.000000
# 3 -0.003414 -0.003414 0.011630 0.000000 0.000000 0.000000
# 4 0.000000 0.000000 0.000000 0.030114 0.000000 0.000000
# 5 0.000000 0.000000 0.000000 0.000000 0.030114 0.000000
# 6 0.000000 0.000000 0.000000 0.000000 0.000000 0.023256
#
#
# Mechanical properties :
#
#
# Convention : Reuss Voigt Hill
#
# Bulk Modulus (GPa) = 67.24158 67.25253 67.24706
# Shear Modulus (GPa) = 32.54286 33.50713 33.02500
#
# Velocity S-wave (km/s) = 3.72396 3.77873 3.75144
# Velocity P-wave (km/s) = 6.86622 6.90634 6.88631
#
# Compressibility (1/GPa) = 0.01487175
#
# Stress axis : x y z
#
# Youngs Moduli (GPa) = 70.40600 70.40600 85.98722
#
# Poissons Ratio (x) = 0.40509 0.29359
# Poissons Ratio (y) = 0.40509 0.29359
# Poissons Ratio (z) = 0.24039 0.24039
#
# Static dielectric constant tensor:
#      x y z
#    x 1.921540 0.000000 0.000000 
#    y 0.000000 1.921540 0.000000 
#    z 0.000000 0.000000 1.918220 
# 
# From -- ./inp_files/2866.got.cif
#   From: 2010.05.17/outbox.cif.g08.bks.cpg/sg114_2_cif.got.tgz:2866.got - 2010.05.20 11:04:54.
