data_PCOD9556702
_publ_section_title
;
Structure prediction by ZEFSAII (Michael W. Deem and Ramdas Pophale) SiO2 
 PCOD9556702
Probable space group: P -4 M 2
;
_chemical_formula_sum "Si O2"
_cell_formula_units_Z 37
_cell_length_a 8.033648
_cell_length_b 8.033648
_cell_length_c 27.543457
_cell_angle_alpha 90.000000
_cell_angle_beta 90.000000
_cell_angle_gamma 90.000000
_cell_volume 1777.640948
_symmetry_space_group_name_H-M "P -4 M 2"
_symmetry_group_IT_number 115
_symmetry_cell_setting 'tetragonal'
loop_
_space_group_symop_operation_xyz
x,y,z
y,-x,-z
-x,-y,z
-y,x,-z
y,x,-z
-y,-x,-z
-x,y,z
x,-y,z
loop_
_atom_site_type_symbol
_atom_site_label
_atom_site_fract_x
_atom_site_fract_y
_atom_site_fract_z
Si Si1 0.000000 0.000000 0.000000
Si Si2 0.302998 0.805590 0.755387
Si Si3 0.297321 0.000000 0.923631
Si Si4 0.305028 0.688712 0.345854
Si Si5 0.810813 0.199170 0.448552
Si Si6 0.297572 0.317987 0.857184
O O1 0.000000 0.169868 0.031695
O O2 0.500000 0.759447 0.751032
O O3 0.230132 0.775782 0.701855
O O4 0.235298 0.709893 0.802082
O O5 0.294849 0.000000 0.767139
O O6 0.257308 0.836376 0.891529
O O7 0.500000 0.000000 0.933894
O O8 0.500000 0.683132 0.335248
O O9 0.238665 0.500000 0.350541
O O10 0.279905 0.767561 0.398345
O O11 0.737659 0.262342 0.500000
O O12 0.000000 0.262239 0.442564
O O13 0.817479 0.000000 0.454965
O O14 0.500000 0.317031 0.854337
O O15 0.244949 0.500000 0.875131
#
# Coordination Sequence:
#
# PCOD9556702 Si02
#       6
#     1   8   4   8   8   8
#     4  12  28  44  68  96 132 172 212 264 306 352
#     4   9  15  26  48  79 113 149 189 233 283 345
#     4  10  22  42  64  92 126 166 212 253 307 364
#     4  10  20  31  46  74 108 138 174 223 279 340
#     4   9  19  36  54  68  87 124 175 226 281 346
#     4   9  16  30  57  89 120 156 200 249 299 357
#
# _framework density 20.814101999999998
#
# number of rings (size 3 to 8) (size 9 to 14) (size 15 to 20)
#    0.000    2.595    1.081    1.946    0.000    6.054 
#    0.000    3.243    2.378    0.000    0.000    0.000 
#    0.000    0.000    0.000    0.000    0.000    0.000 
#
# Total GULP energy -206199.967492 kJ/mol
# GULP energy per Si atom -5572.972094 kJ/mol
# Density = 2.076673 g / cm^3
# Si number density = 20.814102 Si / 1000 Ang^3
#
#
#
# Elastic Constant Matrix: (Units=GPa)
#
#
# Indices 1 2 3 4 5 6 
#
# 1 60.2562 15.6398 48.4221 0.0000 0.0000 0.0000
# 2 15.6398 60.2561 48.4221 0.0000 0.0000 0.0000
# 3 48.4221 48.4221 143.9068 0.0000 0.0000 0.0000
# 4 0.0000 0.0000 0.0000 16.9229 0.0000 0.0000
# 5 0.0000 0.0000 0.0000 0.0000 16.9230 0.0000
# 6 0.0000 0.0000 0.0000 0.0000 0.0000 9.5377
#
#
#
# Elastic Compliance Matrix: (Units=1/GPa)
#
#
# Indices 1 2 3 4 5 6 
#
# 1 0.022751 0.000338 -0.007769 0.000000 0.000000 0.000000
# 2 0.000338 0.022751 -0.007769 0.000000 0.000000 0.000000
# 3 -0.007769 -0.007769 0.012177 0.000000 0.000000 0.000000
# 4 0.000000 0.000000 0.000000 0.059091 0.000000 0.000000
# 5 0.000000 0.000000 0.000000 0.000000 0.059091 0.000000
# 6 0.000000 0.000000 0.000000 0.000000 0.000000 0.104847
#
#
# Mechanical properties :
#
#
# Convention : Reuss Voigt Hill
#
# Bulk Modulus (GPa) = 36.65747 54.37634 45.51691
# Shear Modulus (GPa) = 15.61505 18.80573 17.21039
#
# Velocity S-wave (km/s) = 2.74198 3.00910 2.87864
# Velocity P-wave (km/s) = 5.26067 6.18502 5.74148
#
# Compressibility (1/GPa) = 0.02727957
#
# Stress axis : x y z
#
# Youngs Moduli (GPa) = 43.95325 43.95321 82.11955
#
# Poissons Ratio (x) = -0.01486 0.63801
# Poissons Ratio (y) = -0.01486 0.63801
# Poissons Ratio (z) = 0.34148 0.34148
#
# Static dielectric constant tensor:
#      x y z
#    x 1.759740 0.000000 0.000000 
#    y 0.000000 1.759740 0.000000 
#    z 0.000000 0.000000 1.774700 
# 
# From -- ./inp_files/5181.got.cif
#   From: 2010.05.17/outbox.cif.g08.bks.cpg/sg115_3_cif.got.tgz:5181.got - 2010.05.20 11:07:42.
