data_PCOD9556770
_publ_section_title
;
Structure prediction by ZEFSAII (Michael W. Deem and Ramdas Pophale) SiO2 
 PCOD9556770
Probable space group: P -4 M 2
;
_chemical_formula_sum "Si O2"
_cell_formula_units_Z 48
_cell_length_a 9.086424
_cell_length_b 9.086424
_cell_length_c 32.018562
_cell_angle_alpha 90.000000
_cell_angle_beta 90.000000
_cell_angle_gamma 90.000000
_cell_volume 2643.551772
_symmetry_space_group_name_H-M "P -4 M 2"
_symmetry_group_IT_number 115
_symmetry_cell_setting 'tetragonal'
loop_
_space_group_symop_operation_xyz
x,y,z
y,-x,-z
-x,-y,z
-y,x,-z
y,x,-z
-y,-x,-z
-x,y,z
x,-y,z
loop_
_atom_site_type_symbol
_atom_site_label
_atom_site_fract_x
_atom_site_fract_y
_atom_site_fract_z
Si Si1 0.175278 0.325128 0.460072
Si Si2 0.679415 0.330431 0.125312
Si Si3 0.323998 0.174124 0.039564
Si Si4 0.825883 0.323234 0.619382
Si Si5 0.169859 0.679778 0.789985
Si Si6 0.669260 0.679280 0.705378
O O1 0.250790 0.250790 0.500000
O O2 0.202795 0.500000 0.460486
O O3 0.242206 0.254550 0.418357
O O4 0.000000 0.301348 0.461680
O O5 0.500000 0.328230 0.125765
O O6 0.726035 0.500000 0.125214
O O7 0.724683 0.249378 0.082872
O O8 0.727992 0.248827 0.167442
O O9 0.500000 0.198385 0.035271
O O10 0.298501 0.000000 0.041711
O O11 0.244030 0.244030 0.000000
O O12 0.805250 0.500000 0.614882
O O13 0.757624 0.277980 0.663908
O O14 0.000000 0.294240 0.618523
O O15 0.172211 0.500000 0.789979
O O16 0.253934 0.728144 0.748218
O O17 0.000000 0.725000 0.789191
O O18 0.500000 0.727342 0.703283
O O19 0.669559 0.500000 0.706183
#
# Coordination Sequence:
#
# PCOD9556770 Si02
#       6
#     8   8   8   8   8   8
#     4  11  24  40  58  81 107 136 172 213 258 310
#     4   9  16  26  42  65  94 128 165 206 254 307
#     4  10  20  33  49  70  96 127 164 206 253 305
#     4  10  20  34  53  78 107 139 176 217 262 312
#     4   9  15  23  37  61  96 134 170 211 259 309
#     4   9  16  26  42  66  98 136 176 217 262 310
#
# _framework density 18.157388999999998
#
# number of rings (size 3 to 8) (size 9 to 14) (size 15 to 20)
#    0.000    2.333    0.000    3.500    0.000   11.333 
#    0.000    0.000    0.000    0.000    0.000    1.167 
#    0.000    9.333    0.000    0.000    0.000    0.000 
#
# Total GULP energy -267924.469084 kJ/mol
# GULP energy per Si atom -5581.759773 kJ/mol
# Density = 1.811606 g / cm^3
# Si number density = 18.157389 Si / 1000 Ang^3
#
#
#
# Elastic Constant Matrix: (Units=GPa)
#
#
# Indices 1 2 3 4 5 6 
#
# 1 85.2039 67.4003 90.5176 0.0000 0.0000 0.0000
# 2 67.4003 85.2039 90.5176 0.0000 0.0000 0.0000
# 3 90.5176 90.5176 229.7314 0.0000 0.0000 0.0000
# 4 0.0000 0.0000 0.0000 -19.7972 0.0000 0.0000
# 5 0.0000 0.0000 0.0000 0.0000 -19.7972 0.0000
# 6 0.0000 0.0000 0.0000 0.0000 0.0000 15.6711
#
#
#
# Elastic Compliance Matrix: (Units=1/GPa)
#
#
# Indices 1 2 3 4 5 6 
#
# 1 0.034236 -0.021932 -0.004848 0.000000 0.000000 0.000000
# 2 -0.021932 0.034236 -0.004848 0.000000 0.000000 0.000000
# 3 -0.004848 -0.004848 0.008173 0.000000 0.000000 0.000000
# 4 0.000000 0.000000 0.000000 -0.050512 0.000000 0.000000
# 5 0.000000 0.000000 0.000000 0.000000 -0.050512 0.000000
# 6 0.000000 0.000000 0.000000 0.000000 0.000000 0.063812
#
#
# Mechanical properties :
#
#
# Convention : Reuss Voigt Hill
#
# Bulk Modulus (GPa) = 74.68546 99.66782 87.17664
# Shear Modulus (GPa) = 46.66268 5.32895 25.99581
#
# Velocity S-wave (km/s) = 5.07492 1.71500 3.78788
# Velocity P-wave (km/s) = 8.69260 7.67671 8.20040
#
# Compressibility (1/GPa) = 0.01338949
#
# Stress axis : x y z
#
# Youngs Moduli (GPa) = 29.20887 29.20887 122.34992
#
# Poissons Ratio (x) = 0.64061 0.59315
# Poissons Ratio (y) = 0.64061 0.59315
# Poissons Ratio (z) = 0.14160 0.14160
#
# Static dielectric constant tensor:
#      x y z
#    x 1.605720 0.000000 0.000000 
#    y 0.000000 1.605720 0.000000 
#    z 0.000000 0.000000 1.595500 
# 
# From -- ./inp_files/5958.got.cif
#   From: 2010.05.17/outbox.cif.g08.bks.cpg/sg115_3_cif.got.tgz:5958.got - 2010.05.20 11:07:42.
