data_PCOD9556412
_publ_section_title
;
Structure prediction by ZEFSAII (Michael W. Deem and Ramdas Pophale) SiO2 
 PCOD9556412
Probable space group: P -4 21 C
;
_chemical_formula_sum "Si O2"
_cell_formula_units_Z 32
_cell_length_a 8.924981
_cell_length_b 8.924981
_cell_length_c 16.458311
_cell_angle_alpha 90.000000
_cell_angle_beta 90.000000
_cell_angle_gamma 90.000000
_cell_volume 1310.991467
_symmetry_space_group_name_H-M "P -4 21 C"
_symmetry_group_IT_number 114
_symmetry_cell_setting 'tetragonal'
loop_
_space_group_symop_operation_xyz
x,y,z
y,-x,-z
-x,-y,z
-y,x,-z
1/2+x,1/2-y,1/2-z
1/2-x,1/2+y,1/2-z
1/2-y,1/2-x,1/2+z
1/2+y,1/2+x,1/2+z
loop_
_atom_site_type_symbol
_atom_site_label
_atom_site_fract_x
_atom_site_fract_y
_atom_site_fract_z
Si Si1 0.064452 0.236632 0.490911
Si Si2 0.423590 0.252838 0.718190
Si Si3 0.096368 0.176033 0.049654
Si Si4 0.938002 0.710114 0.307930
O O1 0.153687 0.349739 0.547726
O O2 0.044326 0.310657 0.403767
O O3 0.907203 0.172477 0.519278
O O4 0.393589 0.339176 0.632614
O O5 0.588054 0.182447 0.722188
O O6 0.370600 0.371188 0.784995
O O7 0.323039 0.102181 0.726257
O O8 0.921159 0.164183 0.026461
#
# Coordination Sequence:
#
# PCOD9556412 Si02
#       4
#     8   8   8   8
#     4  11  24  43  70 101 136 181 227 282 338 402
#     4  11  26  46  69 102 141 181 226 285 346 411
#     4  11  24  43  70 101 136 181 227 282 338 402
#     4  11  26  46  69 102 141 181 226 285 346 411
#
# _framework density 24.409009000000001
#
# number of rings (size 3 to 8) (size 9 to 14) (size 15 to 20)
#    0.000    1.000    5.000    0.000    7.000    2.000 
#    0.000    0.000    0.000    0.000    0.000    0.000 
#    0.000    0.000    0.000    0.000    0.000    0.000 
#
# Total GULP energy -178968.216623 kJ/mol
# GULP energy per Si atom -5592.756769 kJ/mol
# Density = 2.435345 g / cm^3
# Si number density = 24.409009 Si / 1000 Ang^3
#
#
#
# Elastic Constant Matrix: (Units=GPa)
#
#
# Indices 1 2 3 4 5 6 
#
# 1 42.5722 56.5662 1.1326 0.0000 0.0000 0.0000
# 2 56.5662 42.5722 1.1326 0.0000 0.0000 0.0000
# 3 1.1326 1.1326 50.6449 0.0000 0.0000 0.0000
# 4 0.0000 0.0000 0.0000 33.1684 0.0000 0.0000
# 5 0.0000 0.0000 0.0000 0.0000 33.1684 0.0000
# 6 0.0000 0.0000 0.0000 0.0000 0.0000 60.9657
#
#
#
# Elastic Compliance Matrix: (Units=1/GPa)
#
#
# Indices 1 2 3 4 5 6 
#
# 1 -0.030684 0.040776 -0.000226 0.000000 0.000000 0.000000
# 2 0.040776 -0.030684 -0.000226 0.000000 0.000000 0.000000
# 3 -0.000226 -0.000226 0.019755 0.000000 0.000000 0.000000
# 4 0.000000 0.000000 0.000000 0.030149 0.000000 0.000000
# 5 0.000000 0.000000 0.000000 0.000000 0.030149 0.000000
# 6 0.000000 0.000000 0.000000 0.000000 0.000000 0.016403
#
#
# Mechanical properties :
#
#
# Convention : Reuss Voigt Hill
#
# Bulk Modulus (GPa) = 25.61688 28.16135 26.88912
# Shear Modulus (GPa) = -153.62176 30.59102 -61.51537
#
# Velocity S-wave (km/s) = -7.94186 3.54399 -5.02560
# Velocity P-wave (km/s) = 8.57787 5.32060 4.75768
#
# Compressibility (1/GPa) = 0.03903676
#
# Stress axis : x y z
#
# Youngs Moduli (GPa) = -32.59056 -32.59056 50.61898
#
# Poissons Ratio (x) = 1.32891 0.01142
# Poissons Ratio (y) = 1.32891 0.01142
# Poissons Ratio (z) = -0.00736 -0.00736
#
# Static dielectric constant tensor:
#      x y z
#    x 1.962490 0.000000 0.000000 
#    y 0.000000 1.962490 0.000000 
#    z 0.000000 0.000000 1.878450 
# 
# From -- ./inp_files/2851.got.cif
#   From: 2010.05.17/outbox.cif.g08.bks.cpg/sg114_2_cif.got.tgz:2851.got - 2010.05.20 11:04:54.
