data_PCOD9556842
_publ_section_title
;
Structure prediction by ZEFSAII (Michael W. Deem and Ramdas Pophale) SiO2 
 PCOD9556842
Probable space group: P -4 M 2
;
_chemical_formula_sum "Si O2"
_cell_formula_units_Z 40
_cell_length_a 9.251082
_cell_length_b 9.251082
_cell_length_c 26.546503
_cell_angle_alpha 90.000000
_cell_angle_beta 90.000000
_cell_angle_gamma 90.000000
_cell_volume 2271.916575
_symmetry_space_group_name_H-M "P -4 M 2"
_symmetry_group_IT_number 115
_symmetry_cell_setting 'tetragonal'
loop_
_space_group_symop_operation_xyz
x,y,z
y,-x,-z
-x,-y,z
-y,x,-z
y,x,-z
-y,-x,-z
-x,y,z
x,-y,z
loop_
_atom_site_type_symbol
_atom_site_label
_atom_site_fract_x
_atom_site_fract_y
_atom_site_fract_z
Si Si1 0.826462 0.329927 0.454030
Si Si2 0.824199 0.166417 0.353492
Si Si3 0.672475 0.171254 0.954039
Si Si4 0.169807 0.825650 0.240928
Si Si5 0.673131 0.330383 0.850266
O O1 0.750332 0.249669 0.500000
O O2 0.796687 0.500000 0.455463
O O3 0.778916 0.262909 0.400512
O O4 0.000000 0.309235 0.458045
O O5 0.780567 0.215714 0.297513
O O6 0.000000 0.165915 0.352481
O O7 0.778164 0.000000 0.361027
O O8 0.500000 0.193942 0.961353
O O9 0.713533 0.247045 0.901478
O O10 0.698772 0.000000 0.951223
O O11 0.757700 0.242301 0.000000
O O12 0.261326 0.752411 0.197362
O O13 0.000000 0.787126 0.235278
O O14 0.179313 0.000000 0.238109
O O15 0.500000 0.314996 0.843952
O O16 0.706466 0.500000 0.855105
#
# Coordination Sequence:
#
# PCOD9556842 Si02
#       5
#     8   8   8   8   8
#     4  10  20  33  51  76 103 133 171 212 256 307
#     4   8  15  30  52  76 101 131 169 212 256 302
#     4  10  21  37  57  80 105 136 174 214 258 306
#     4   9  18  33  54  80 107 134 168 212 259 305
#     4  10  21  36  54  77 106 141 178 212 250 301
#
# _framework density 17.606282
#
# number of rings (size 3 to 8) (size 9 to 14) (size 15 to 20)
#    0.000    2.600    0.000    3.000    0.000    5.600 
#    0.000    3.000    0.000    1.200    0.000    0.000 
#    0.000    0.000    0.000    0.000    0.000    0.000 
#
# Total GULP energy -223150.822853 kJ/mol
# GULP energy per Si atom -5578.770571 kJ/mol
# Density = 1.756621 g / cm^3
# Si number density = 17.606282 Si / 1000 Ang^3
#
#
#
# Elastic Constant Matrix: (Units=GPa)
#
#
# Indices 1 2 3 4 5 6 
#
# 1 60.9385 55.1870 84.9725 0.0000 0.0000 0.0000
# 2 55.1870 60.9413 84.9755 0.0000 0.0000 0.0000
# 3 84.9725 84.9755 208.9972 0.0000 0.0000 0.0000
# 4 0.0000 0.0000 0.0000 -301.5944 0.0000 0.0000
# 5 0.0000 0.0000 0.0000 0.0000 -301.3575 0.0000
# 6 0.0000 0.0000 0.0000 0.0000 0.0000 25.3411
#
#
#
# Elastic Compliance Matrix: (Units=1/GPa)
#
#
# Indices 1 2 3 4 5 6 
#
# 1 0.097545 -0.076281 -0.008644 0.000000 0.000000 0.000000
# 2 -0.076281 0.097544 -0.008646 0.000000 0.000000 0.000000
# 3 -0.008644 -0.008646 0.011815 0.000000 0.000000 0.000000
# 4 0.000000 0.000000 0.000000 -0.003316 0.000000 0.000000
# 5 0.000000 0.000000 0.000000 0.000000 -0.003318 0.000000
# 6 0.000000 0.000000 0.000000 0.000000 0.000000 0.039462
#
#
# Mechanical properties :
#
#
# Convention : Reuss Voigt Hill
#
# Bulk Modulus (GPa) = 50.60633 86.79412 68.70023
# Shear Modulus (GPa) = 11.53508 -108.47269 -48.46881
#
# Velocity S-wave (km/s) = 2.56240 -7.85773 -5.25253
# Velocity P-wave (km/s) = 6.12864 5.73769 1.52303
#
# Compressibility (1/GPa) = 0.01976037
#
# Stress axis : x y z
#
# Youngs Moduli (GPa) = 10.25169 10.25183 84.64042
#
# Poissons Ratio (x) = 0.78202 0.73165
# Poissons Ratio (y) = 0.78201 0.73182
# Poissons Ratio (z) = 0.08862 0.08864
#
# Static dielectric constant tensor:
#      x y z
#    x 1.587360 0.000000 0.000000 
#    y 0.000000 1.587360 0.000000 
#    z 0.000000 0.000000 1.582610 
# 
# From -- ./inp_files/5054.got.cif
#   From: 2010.05.17/outbox.cif.g08.bks.cpg/sg115_3_cif.got.tgz:5054.got - 2010.05.20 11:07:42.
