data_PCOD9556638
_publ_section_title
;
Structure prediction by ZEFSAII (Michael W. Deem and Ramdas Pophale) SiO2 
 PCOD9556638
Probable space group: P -4 M 2
;
_chemical_formula_sum "Si O2"
_cell_formula_units_Z 64
_cell_length_a 20.019634
_cell_length_b 20.019634
_cell_length_c 8.886117
_cell_angle_alpha 90.000000
_cell_angle_beta 90.000000
_cell_angle_gamma 90.000000
_cell_volume 3561.429026
_symmetry_space_group_name_H-M "P -4 M 2"
_symmetry_group_IT_number 115
_symmetry_cell_setting 'tetragonal'
loop_
_space_group_symop_operation_xyz
x,y,z
y,-x,-z
-x,-y,z
-y,x,-z
y,x,-z
-y,-x,-z
-x,y,z
x,-y,z
loop_
_atom_site_type_symbol
_atom_site_label
_atom_site_fract_x
_atom_site_fract_y
_atom_site_fract_z
Si Si1 0.876965 0.573696 0.620632
Si Si2 0.574713 0.768695 0.631525
Si Si3 0.574041 0.609283 0.660686
Si Si4 0.925856 0.290364 0.487484
Si Si5 0.155342 0.694967 0.203046
Si Si6 0.634166 0.183302 0.111959
Si Si7 0.575454 0.672641 0.087670
Si Si8 0.206547 0.748537 0.649651
O O1 0.904395 0.500000 0.590944
O O2 0.805429 0.577006 0.531232
O O3 0.918693 0.635134 0.555532
O O4 0.866004 0.585584 0.797672
O O5 0.500000 0.783958 0.692105
O O6 0.581828 0.689109 0.636143
O O7 0.633979 0.801838 0.725693
O O8 0.575792 0.575792 0.500000
O O9 0.500000 0.596870 0.729313
O O10 0.637930 0.581740 0.749923
O O11 0.909103 0.298263 0.310194
O O12 0.867108 0.248552 0.572399
O O13 0.000000 0.264075 0.511983
O O14 0.194437 0.763391 0.242774
O O15 0.152379 0.674909 0.028210
O O16 0.594948 0.250425 0.071007
O O17 0.685618 0.205509 0.242125
O O18 0.500000 0.663868 0.034529
O O19 0.629575 0.629575 0.000000
O O20 0.253201 0.746800 0.500000
#
# Coordination Sequence:
#
# PCOD9556638 Si02
#       8
#     8   8   8   8   8   8   8   8
#     4   9  18  32  51  74 100 132 171 215 263 322
#     4   9  18  32  49  70  94 124 165 215 271 326
#     4  11  22  34  47  61  80 111 155 208 261 314
#     4   9  19  35  54  75 102 139 177 213 257 315
#     4  10  19  32  52  79 108 131 163 214 269 320
#     4  11  20  32  52  77 100 124 161 216 274 322
#     4  12  25  36  46  60  85 122 161 204 260 325
#     4   9  18  33  54  78 103 133 169 208 256 311
#
# _framework density 17.970314999999999
#
# number of rings (size 3 to 8) (size 9 to 14) (size 15 to 20)
#    0.000    2.000    0.000    5.250    0.000    7.750 
#    0.000    2.500    0.000    0.000    0.000    0.000 
#    0.000   20.250    0.000    0.000    0.000  119.250 
#
# Total GULP energy -356565.077067 kJ/mol
# GULP energy per Si atom -5571.329329 kJ/mol
# Density = 1.792941 g / cm^3
# Si number density = 17.970315 Si / 1000 Ang^3
#
#
#
# Elastic Constant Matrix: (Units=GPa)
#
#
# Indices 1 2 3 4 5 6 
#
# 1 56.3650 7.7725 9.3399 0.0000 0.0000 0.0000
# 2 7.7725 56.3661 9.3395 0.0000 0.0000 0.0000
# 3 9.3399 9.3395 83.8538 0.0000 0.0000 0.0000
# 4 0.0000 0.0000 0.0000 6.4569 0.0000 0.0000
# 5 0.0000 0.0000 0.0000 0.0000 6.4568 0.0000
# 6 0.0000 0.0000 0.0000 0.0000 0.0000 5.5504
#
#
#
# Elastic Compliance Matrix: (Units=1/GPa)
#
#
# Indices 1 2 3 4 5 6 
#
# 1 0.018347 -0.002232 -0.001795 0.000000 0.000000 0.000000
# 2 -0.002232 0.018346 -0.001795 0.000000 0.000000 0.000000
# 3 -0.001795 -0.001795 0.012325 0.000000 0.000000 0.000000
# 4 0.000000 0.000000 0.000000 0.154874 0.000000 0.000000
# 5 0.000000 0.000000 0.000000 0.000000 0.154874 0.000000
# 6 0.000000 0.000000 0.000000 0.000000 0.000000 0.180167
#
#
# Mechanical properties :
#
#
# Convention : Reuss Voigt Hill
#
# Bulk Modulus (GPa) = 26.75634 27.72096 27.23865
# Shear Modulus (GPa) = 8.88042 15.03502 11.95772
#
# Velocity S-wave (km/s) = 2.22541 2.89564 2.58236
# Velocity P-wave (km/s) = 4.63948 5.16131 4.90734
#
# Compressibility (1/GPa) = 0.03737431
#
# Stress axis : x y z
#
# Youngs Moduli (GPa) = 54.50554 54.50663 81.13372
#
# Poissons Ratio (x) = 0.12168 0.14562
# Poissons Ratio (y) = 0.12168 0.14561
# Poissons Ratio (z) = 0.09783 0.09783
#
# Static dielectric constant tensor:
#      x y z
#    x 1.626150 0.000000 0.000000 
#    y 0.000000 1.626150 0.000000 
#    z 0.000000 0.000000 1.709410 
# 
# From -- ./inp_files/2183.got.cif
#   From: 2010.05.17/outbox.cif.g08.bks.cpg/sg115_2_cif.got.tgz:2183.got - 2010.05.20 11:07:42.
