data_PCOD9556202
_publ_section_title
;
Structure prediction by ZEFSAII (Michael W. Deem and Ramdas Pophale) SiO2 
 PCOD9556202
Probable space group: P -4 21 C
;
_chemical_formula_sum "Si O2"
_cell_formula_units_Z 40
_cell_length_a 8.406406
_cell_length_b 8.406406
_cell_length_c 22.262325
_cell_angle_alpha 90.000000
_cell_angle_beta 90.000000
_cell_angle_gamma 90.000000
_cell_volume 1573.226455
_symmetry_space_group_name_H-M "P -4 21 C"
_symmetry_group_IT_number 114
_symmetry_cell_setting 'tetragonal'
loop_
_space_group_symop_operation_xyz
x,y,z
y,-x,-z
-x,-y,z
-y,x,-z
1/2+x,1/2-y,1/2-z
1/2-x,1/2+y,1/2-z
1/2-y,1/2-x,1/2+z
1/2+y,1/2+x,1/2+z
loop_
_atom_site_type_symbol
_atom_site_label
_atom_site_fract_x
_atom_site_fract_y
_atom_site_fract_z
Si Si1 0.756922 0.587350 0.559307
Si Si2 0.922584 0.836280 0.706757
Si Si3 0.265260 0.066622 0.405988
Si Si4 0.877891 0.637334 0.937622
Si Si5 0.427444 0.262480 0.667275
O O1 0.838014 0.423040 0.577068
O O2 0.726683 0.591006 0.487931
O O3 0.637489 0.624321 0.613585
O O4 0.894438 0.725666 0.562874
O O5 0.734900 0.817584 0.693472
O O6 0.020249 0.717727 0.664017
O O7 0.973766 0.821782 0.775615
O O8 0.000000 0.000000 0.684884
O O9 0.127073 0.188341 0.426651
O O10 0.000000 0.500000 0.959721
O O11 0.945623 0.665320 0.871237
#
# Coordination Sequence:
#
# PCOD9556202 Si02
#       5
#     8   8   8   8   8
#     4  10  23  44  70  99 141 186 243 298 364 434
#     4  11  25  46  67 102 143 184 245 299 366 442
#     4  10  22  44  67  97 140 185 232 298 357 434
#     4  12  23  42  70 103 142 184 241 296 366 444
#     4  11  26  42  71 104 139 193 239 303 372 433
#
# _framework density 25.425454999999999
#
# number of rings (size 3 to 8) (size 9 to 14) (size 15 to 20)
#    0.000    1.200    2.000    3.600    5.600    0.000 
#    3.600    2.000    0.000    0.000    0.000    0.000 
#    0.000    0.000    0.000    0.000    0.000    0.000 
#
# Total GULP energy -223027.254347 kJ/mol
# GULP energy per Si atom -5575.681359 kJ/mol
# Density = 2.536759 g / cm^3
# Si number density = 25.425455 Si / 1000 Ang^3
#
#
#
# Elastic Constant Matrix: (Units=GPa)
#
#
# Indices 1 2 3 4 5 6 
#
# 1 89.5235 18.9098 29.5549 0.0000 0.0000 0.0000
# 2 18.9098 89.5235 29.5549 0.0000 0.0000 0.0000
# 3 29.5549 29.5549 190.8259 0.0000 0.0000 0.0000
# 4 0.0000 0.0000 0.0000 23.9597 0.0000 0.0000
# 5 0.0000 0.0000 0.0000 0.0000 23.9597 0.0000
# 6 0.0000 0.0000 0.0000 0.0000 0.0000 30.1814
#
#
#
# Elastic Compliance Matrix: (Units=1/GPa)
#
#
# Indices 1 2 3 4 5 6 
#
# 1 0.012117 -0.002044 -0.001560 0.000000 0.000000 0.000000
# 2 -0.002044 0.012117 -0.001560 0.000000 0.000000 0.000000
# 3 -0.001560 -0.001560 0.005724 0.000000 0.000000 0.000000
# 4 0.000000 0.000000 0.000000 0.041737 0.000000 0.000000
# 5 0.000000 0.000000 0.000000 0.000000 0.041737 0.000000
# 6 0.000000 0.000000 0.000000 0.000000 0.000000 0.033133
#
#
# Mechanical properties :
#
#
# Convention : Reuss Voigt Hill
#
# Bulk Modulus (GPa) = 50.94554 58.43467 54.69010
# Shear Modulus (GPa) = 30.59298 35.07706 32.83502
#
# Velocity S-wave (km/s) = 3.47254 3.71833 3.59754
# Velocity P-wave (km/s) = 6.01322 6.43951 6.23001
#
# Compressibility (1/GPa) = 0.01962880
#
# Stress axis : x y z
#
# Youngs Moduli (GPa) = 82.52786 82.52786 174.71472
#
# Poissons Ratio (x) = 0.16872 0.27256
# Poissons Ratio (y) = 0.16872 0.27256
# Poissons Ratio (z) = 0.12875 0.12875
#
# Static dielectric constant tensor:
#      x y z
#    x 2.146290 0.000000 0.000000 
#    y 0.000000 2.146290 0.000000 
#    z 0.000000 0.000000 1.976160 
# 
# From -- ./inp_files/3401.got.cif
#   From: 2010.05.17/outbox.cif.g08.bks.cpg/sg114_2_cif.got.tgz:3401.got - 2010.05.20 11:04:54.
