data_PCOD9556069
_publ_section_title
;
Structure prediction by ZEFSAII (Michael W. Deem and Ramdas Pophale) SiO2 
 PCOD9556069
Probable space group: P -4 21 C
;
_chemical_formula_sum "Si O2"
_cell_formula_units_Z 56
_cell_length_a 10.909442
_cell_length_b 10.909442
_cell_length_c 20.715433
_cell_angle_alpha 90.000000
_cell_angle_beta 90.000000
_cell_angle_gamma 90.000000
_cell_volume 2465.466415
_symmetry_space_group_name_H-M "P -4 21 C"
_symmetry_group_IT_number 114
_symmetry_cell_setting 'tetragonal'
loop_
_space_group_symop_operation_xyz
x,y,z
y,-x,-z
-x,-y,z
-y,x,-z
1/2+x,1/2-y,1/2-z
1/2-x,1/2+y,1/2-z
1/2-y,1/2-x,1/2+z
1/2+y,1/2+x,1/2+z
loop_
_atom_site_type_symbol
_atom_site_label
_atom_site_fract_x
_atom_site_fract_y
_atom_site_fract_z
Si Si1 0.224376 0.427600 0.920180
Si Si2 0.131010 0.707928 0.527779
Si Si3 0.670611 0.888867 0.844224
Si Si4 0.760335 0.064697 0.134779
Si Si5 0.100310 0.857876 0.966942
Si Si6 0.511630 0.704541 0.222337
Si Si7 0.007778 0.795419 0.730233
O O1 0.337462 0.334313 0.934314
O O2 0.099599 0.349077 0.912869
O O3 0.241389 0.486144 0.848907
O O4 0.216376 0.517762 0.980169
O O5 0.128620 0.598752 0.581046
O O6 0.248902 0.690700 0.481636
O O7 0.805513 0.826999 0.853502
O O8 0.701655 0.977216 0.783097
O O9 0.563910 0.799634 0.819092
O O10 0.845746 0.964817 0.101321
O O11 0.723576 0.013222 0.203297
O O12 0.990232 0.846911 0.019062
O O13 0.633369 0.619036 0.215927
O O14 0.400643 0.611095 0.237889
#
# Coordination Sequence:
#
# PCOD9556069 Si02
#       7
#     8   8   8   8   8   8   8
#     4  11  24  46  68 105 146 186 232 290 367 434
#     4  11  25  43  69 103 149 181 235 289 355 440
#     4  10  21  44  62 104 137 167 239 294 339 428
#     4  10  22  43  67  97 135 176 233 285 354 416
#     4  11  23  42  71  96 129 181 234 283 343 416
#     4  10  22  39  72  97 133 186 232 285 358 423
#     4  10  21  39  70  97 131 177 229 287 346 424
#
# _framework density 22.713753000000001
#
# number of rings (size 3 to 8) (size 9 to 14) (size 15 to 20)
#    0.000    1.571    5.714    0.000    6.000    2.000 
#    0.000    0.000    6.286    0.000    0.000    0.000 
#    0.000    0.000    0.000    0.000    0.000    0.000 
#
# Total GULP energy -312280.910445 kJ/mol
# GULP energy per Si atom -5576.444829 kJ/mol
# Density = 2.266206 g / cm^3
# Si number density = 22.713753 Si / 1000 Ang^3
#
#
#
# Elastic Constant Matrix: (Units=GPa)
#
#
# Indices 1 2 3 4 5 6 
#
# 1 19.0750 12.6654 26.8101 0.0000 0.0000 0.0000
# 2 12.6654 19.0750 26.8101 0.0000 0.0000 0.0000
# 3 26.8101 26.8101 140.7318 0.0000 0.0000 0.0000
# 4 0.0000 0.0000 0.0000 39.8197 0.0000 0.0000
# 5 0.0000 0.0000 0.0000 0.0000 39.8197 0.0000
# 6 0.0000 0.0000 0.0000 0.0000 0.0000 19.2043
#
#
#
# Elastic Compliance Matrix: (Units=1/GPa)
#
#
# Indices 1 2 3 4 5 6 
#
# 1 0.101237 -0.054780 -0.008850 0.000000 0.000000 0.000000
# 2 -0.054780 0.101237 -0.008850 0.000000 0.000000 0.000000
# 3 -0.008850 -0.008850 0.010478 0.000000 0.000000 0.000000
# 4 0.000000 0.000000 0.000000 0.025113 0.000000 0.000000
# 5 0.000000 0.000000 0.000000 0.000000 0.025113 0.000000
# 6 0.000000 0.000000 0.000000 0.000000 0.000000 0.052072
#
#
# Mechanical properties :
#
#
# Convention : Reuss Voigt Hill
#
# Bulk Modulus (GPa) = 14.70802 34.60590 24.65696
# Shear Modulus (GPa) = 10.35469 27.27516 18.81492
#
# Velocity S-wave (km/s) = 2.13745 3.46905 2.88123
# Velocity P-wave (km/s) = 3.54697 5.59593 4.68484
#
# Compressibility (1/GPa) = 0.06799011
#
# Stress axis : x y z
#
# Youngs Moduli (GPa) = 9.87785 9.87785 95.44037
#
# Poissons Ratio (x) = 0.54111 0.84467
# Poissons Ratio (y) = 0.54111 0.84467
# Poissons Ratio (z) = 0.08742 0.08742
#
# Static dielectric constant tensor:
#      x y z
#    x 1.866210 0.000000 0.000000 
#    y 0.000000 1.866210 0.000000 
#    z 0.000000 0.000000 1.902970 
# 
# From -- ./inp_files/3132.got.cif
#   From: 2010.05.17/outbox.cif.g08.bks.cpg/sg114_2_cif.got.tgz:3132.got - 2010.05.20 11:04:54.
