data_PCOD9556390
_publ_section_title
;
Structure prediction by ZEFSAII (Michael W. Deem and Ramdas Pophale) SiO2 
 PCOD9556390
Probable space group: P -4 21 C
;
_chemical_formula_sum "Si O2"
_cell_formula_units_Z 32
_cell_length_a 12.789796
_cell_length_b 12.789796
_cell_length_c 7.189623
_cell_angle_alpha 90.000000
_cell_angle_beta 90.000000
_cell_angle_gamma 90.000000
_cell_volume 1176.070490
_symmetry_space_group_name_H-M "P -4 21 C"
_symmetry_group_IT_number 114
_symmetry_cell_setting 'tetragonal'
loop_
_space_group_symop_operation_xyz
x,y,z
y,-x,-z
-x,-y,z
-y,x,-z
1/2+x,1/2-y,1/2-z
1/2-x,1/2+y,1/2-z
1/2-y,1/2-x,1/2+z
1/2+y,1/2+x,1/2+z
loop_
_atom_site_type_symbol
_atom_site_label
_atom_site_fract_x
_atom_site_fract_y
_atom_site_fract_z
Si Si1 0.541244 0.173429 0.221758
Si Si2 0.562254 0.255315 0.604203
Si Si3 0.597490 0.816042 0.864935
Si Si4 0.122102 0.110394 0.564348
O O1 0.570350 0.256973 0.383255
O O2 0.648115 0.112413 0.182102
O O3 0.496386 0.174198 0.012311
O O4 0.433544 0.129415 0.317391
O O5 0.609656 0.349565 0.726039
O O6 0.443513 0.241353 0.679422
O O7 0.663038 0.724543 0.971044
O O8 0.015052 0.131341 0.452878
#
# Coordination Sequence:
#
# PCOD9556390 Si02
#       4
#     8   8   8   8
#     4  12  23  38  66 111 140 172 223 288 369 414
#     4  11  23  40  67 101 141 181 221 287 349 415
#     4  11  23  40  67 101 141 181 221 287 349 415
#     4   9  22  48  68  88 132 193 230 270 330 403
#
# _framework density 27.209254999999999
#
# number of rings (size 3 to 8) (size 9 to 14) (size 15 to 20)
#    0.000    1.250    5.000    0.750    0.000    2.000 
#    0.000   12.500    0.000    3.000    0.000    0.000 
#    0.000    0.000    0.000    0.000    0.000    0.000 
#
# Total GULP energy -178387.194488 kJ/mol
# GULP energy per Si atom -5574.599828 kJ/mol
# Density = 2.714733 g / cm^3
# Si number density = 27.209255 Si / 1000 Ang^3
#
#
#
# Elastic Constant Matrix: (Units=GPa)
#
#
# Indices 1 2 3 4 5 6 
#
# 1 119.3310 23.8048 27.5930 0.0000 0.0000 0.0000
# 2 23.8048 119.3310 27.5930 0.0000 0.0000 0.0000
# 3 27.5930 27.5930 183.5228 0.0000 0.0000 0.0000
# 4 0.0000 0.0000 0.0000 27.3999 0.0000 0.0000
# 5 0.0000 0.0000 0.0000 0.0000 27.3999 0.0000
# 6 0.0000 0.0000 0.0000 0.0000 0.0000 10.0175
#
#
#
# Elastic Compliance Matrix: (Units=1/GPa)
#
#
# Indices 1 2 3 4 5 6 
#
# 1 0.008942 -0.001526 -0.001115 0.000000 0.000000 0.000000
# 2 -0.001526 0.008942 -0.001115 0.000000 0.000000 0.000000
# 3 -0.001115 -0.001115 0.005784 0.000000 0.000000 0.000000
# 4 0.000000 0.000000 0.000000 0.036496 0.000000 0.000000
# 5 0.000000 0.000000 0.000000 0.000000 0.036496 0.000000
# 6 0.000000 0.000000 0.000000 0.000000 0.000000 0.099825
#
#
# Mechanical properties :
#
#
# Convention : Reuss Voigt Hill
#
# Bulk Modulus (GPa) = 61.89432 64.46291 63.17861
# Shear Modulus (GPa) = 23.87949 35.84307 29.86128
#
# Velocity S-wave (km/s) = 2.96569 3.63342 3.31640
# Velocity P-wave (km/s) = 5.87571 6.43003 6.15911
#
# Compressibility (1/GPa) = 0.01615657
#
# Stress axis : x y z
#
# Youngs Moduli (GPa) = 111.82794 111.82794 172.88430
#
# Poissons Ratio (x) = 0.17065 0.19277
# Poissons Ratio (y) = 0.17065 0.19277
# Poissons Ratio (z) = 0.12469 0.12469
#
# Static dielectric constant tensor:
#      x y z
#    x 2.429610 0.000000 0.000000 
#    y 0.000000 2.429610 0.000000 
#    z 0.000000 0.000000 2.157160 
# 
# From -- ./inp_files/651.got.cif
#   From: 2010.05.17/outbox.cif.g08.bks.cpg/sg114_1_cif.got.tgz:651.got - 2010.05.20 11:04:54.
