data_PCOD9556424
_publ_section_title
;
Structure prediction by ZEFSAII (Michael W. Deem and Ramdas Pophale) SiO2 
 PCOD9556424
Probable space group: P -4 21 C
;
_chemical_formula_sum "Si O2"
_cell_formula_units_Z 40
_cell_length_a 8.101717
_cell_length_b 8.101717
_cell_length_c 24.617223
_cell_angle_alpha 90.000000
_cell_angle_beta 90.000000
_cell_angle_gamma 90.000000
_cell_volume 1615.820812
_symmetry_space_group_name_H-M "P -4 21 C"
_symmetry_group_IT_number 114
_symmetry_cell_setting 'tetragonal'
loop_
_space_group_symop_operation_xyz
x,y,z
y,-x,-z
-x,-y,z
-y,x,-z
1/2+x,1/2-y,1/2-z
1/2-x,1/2+y,1/2-z
1/2-y,1/2-x,1/2+z
1/2+y,1/2+x,1/2+z
loop_
_atom_site_type_symbol
_atom_site_label
_atom_site_fract_x
_atom_site_fract_y
_atom_site_fract_z
Si Si1 0.887528 0.364570 0.588204
Si Si2 0.860458 0.144991 0.383384
Si Si3 0.707566 0.312773 0.491696
Si Si4 0.903367 0.216878 0.191844
Si Si5 0.775008 0.394293 0.291142
O O1 0.809800 0.246596 0.543492
O O2 0.745782 0.425631 0.627531
O O3 0.000000 0.500000 0.559337
O O4 0.020483 0.289177 0.629108
O O5 0.796791 0.239210 0.438296
O O6 0.868921 0.282335 0.336328
O O7 0.000000 0.000000 0.388196
O O8 0.512871 0.279979 0.501572
O O9 0.854265 0.360135 0.233244
O O10 0.083330 0.160215 0.210705
O O11 0.752713 0.085857 0.195700
#
# Coordination Sequence:
#
# PCOD9556424 Si02
#       5
#     8   8   8   8   8
#     4  12  24  45  70 101 146 190 236 300 365 432
#     4  12  28  45  71 107 151 190 246 304 370 441
#     4  11  24  46  76 104 141 193 249 299 366 441
#     4  11  25  45  74 104 146 192 246 302 364 439
#     4  11  25  46  73 106 145 195 245 300 366 436
#
# _framework density 24.755222
#
# number of rings (size 3 to 8) (size 9 to 14) (size 15 to 20)
#    0.000    0.600    4.000    2.400    8.400    3.200 
#    0.000    2.000    0.000    0.000    0.000    0.000 
#    0.000    0.000    0.000    0.000    0.000    0.000 
#
# Total GULP energy -222919.025335 kJ/mol
# GULP energy per Si atom -5572.975633 kJ/mol
# Density = 2.469888 g / cm^3
# Si number density = 24.755222 Si / 1000 Ang^3
#
#
#
# Elastic Constant Matrix: (Units=GPa)
#
#
# Indices 1 2 3 4 5 6 
#
# 1 89.0758 57.1539 43.2382 0.0000 0.0000 0.0000
# 2 57.1539 89.0758 43.2382 0.0000 0.0000 0.0000
# 3 43.2382 43.2382 154.8054 0.0000 0.0000 0.0000
# 4 0.0000 0.0000 0.0000 17.7362 0.0000 0.0000
# 5 0.0000 0.0000 0.0000 0.0000 17.7362 0.0000
# 6 0.0000 0.0000 0.0000 0.0000 0.0000 37.4674
#
#
#
# Elastic Compliance Matrix: (Units=1/GPa)
#
#
# Indices 1 2 3 4 5 6 
#
# 1 0.019759 -0.011567 -0.002288 0.000000 0.000000 0.000000
# 2 -0.011567 0.019759 -0.002288 0.000000 0.000000 0.000000
# 3 -0.002288 -0.002288 0.007738 0.000000 0.000000 0.000000
# 4 0.000000 0.000000 0.000000 0.056382 0.000000 0.000000
# 5 0.000000 0.000000 0.000000 0.000000 0.056382 0.000000
# 6 0.000000 0.000000 0.000000 0.000000 0.000000 0.026690
#
#
# Mechanical properties :
#
#
# Convention : Reuss Voigt Hill
#
# Bulk Modulus (GPa) = 66.80412 68.91306 67.85859
# Shear Modulus (GPa) = 22.32284 27.20974 24.76629
#
# Velocity S-wave (km/s) = 3.00616 3.31894 3.16642
# Velocity P-wave (km/s) = 6.25250 6.52575 6.39059
#
# Compressibility (1/GPa) = 0.01496914
#
# Stress axis : x y z
#
# Youngs Moduli (GPa) = 50.60976 50.60976 129.23552
#
# Poissons Ratio (x) = 0.58543 0.29569
# Poissons Ratio (y) = 0.58543 0.29569
# Poissons Ratio (z) = 0.11579 0.11579
#
# Static dielectric constant tensor:
#      x y z
#    x 2.093250 0.000000 0.000000 
#    y 0.000000 2.093250 0.000000 
#    z 0.000000 0.000000 1.900710 
# 
# From -- ./inp_files/3352.got.cif
#   From: 2010.05.17/outbox.cif.g08.bks.cpg/sg114_2_cif.got.tgz:3352.got - 2010.05.20 11:04:54.
