data_PCOD9556268
_publ_section_title
;
Structure prediction by ZEFSAII (Michael W. Deem and Ramdas Pophale) SiO2 
 PCOD9556268
Probable space group: P -4 21 C
;
_chemical_formula_sum "Si O2"
_cell_formula_units_Z 38
_cell_length_a 9.274388
_cell_length_b 9.274388
_cell_length_c 21.106584
_cell_angle_alpha 90.000000
_cell_angle_beta 90.000000
_cell_angle_gamma 90.000000
_cell_volume 1815.467474
_symmetry_space_group_name_H-M "P -4 21 C"
_symmetry_group_IT_number 114
_symmetry_cell_setting 'tetragonal'
loop_
_space_group_symop_operation_xyz
x,y,z
y,-x,-z
-x,-y,z
-y,x,-z
1/2+x,1/2-y,1/2-z
1/2-x,1/2+y,1/2-z
1/2-y,1/2-x,1/2+z
1/2+y,1/2+x,1/2+z
loop_
_atom_site_type_symbol
_atom_site_label
_atom_site_fract_x
_atom_site_fract_y
_atom_site_fract_z
Si Si1 0.198822 0.638325 0.383854
Si Si2 0.000000 0.500000 0.285583
Si Si3 0.847301 0.171744 0.099723
Si Si4 0.118876 0.799024 0.506450
Si Si5 0.562526 0.146286 0.335410
Si Si6 0.500000 0.500000 0.500000
O O1 0.079794 0.612489 0.330390
O O2 0.277287 0.482751 0.386971
O O3 0.135633 0.679240 0.452075
O O4 0.304945 0.767431 0.364113
O O5 0.095743 0.409650 0.235339
O O6 0.929311 0.242281 0.158596
O O7 0.965316 0.134301 0.045046
O O8 0.741135 0.285798 0.067306
O O9 0.951062 0.822569 0.520360
O O10 0.500000 0.000000 0.368677
#
# Coordination Sequence:
#
# PCOD9556268 Si02
#       6
#     8   4   8   8   8   2
#     4  12  23  45  69  99 139 182 237 291 359 425
#     4  10  28  42  64 100 130 194 228 296 346 414
#     4  12  21  41  68 102 133 179 226 293 350 429
#     4  11  25  43  68 107 145 183 226 288 370 436
#     4  10  24  42  68  98 136 181 239 292 353 413
#     4  12  20  36  60 108 128 156 228 264 366 400
#
# _framework density 20.931249000000001
#
# number of rings (size 3 to 8) (size 9 to 14) (size 15 to 20)
#    0.632    0.211    4.211    2.526    2.947    0.000 
#    1.895    0.000    0.000    0.000    0.000    0.000 
#    0.000    0.000    0.000    0.000    0.000    0.000 
#
# Total GULP energy -211982.991543 kJ/mol
# GULP energy per Si atom -5578.499777 kJ/mol
# Density = 2.088361 g / cm^3
# Si number density = 20.931249 Si / 1000 Ang^3
#
#
#
# Elastic Constant Matrix: (Units=GPa)
#
#
# Indices 1 2 3 4 5 6 
#
# 1 71.6274 13.6075 3.3759 0.0000 0.0000 0.0000
# 2 13.6075 71.6274 3.3759 0.0000 0.0000 0.0000
# 3 3.3759 3.3759 44.0627 0.0000 0.0000 0.0000
# 4 0.0000 0.0000 0.0000 25.5299 0.0000 0.0000
# 5 0.0000 0.0000 0.0000 0.0000 25.5299 0.0000
# 6 0.0000 0.0000 0.0000 0.0000 0.0000 41.0402
#
#
#
# Elastic Compliance Matrix: (Units=1/GPa)
#
#
# Indices 1 2 3 4 5 6 
#
# 1 0.014520 -0.002716 -0.000904 0.000000 0.000000 0.000000
# 2 -0.002716 0.014520 -0.000904 0.000000 0.000000 0.000000
# 3 -0.000904 -0.000904 0.022833 0.000000 0.000000 0.000000
# 4 0.000000 0.000000 0.000000 0.039170 0.000000 0.000000
# 5 0.000000 0.000000 0.000000 0.000000 0.039170 0.000000
# 6 0.000000 0.000000 0.000000 0.000000 0.000000 0.024366
#
#
# Mechanical properties :
#
#
# Convention : Reuss Voigt Hill
#
# Bulk Modulus (GPa) = 23.35143 25.33732 24.34437
# Shear Modulus (GPa) = 28.10532 29.55056 28.82794
#
# Velocity S-wave (km/s) = 3.66832 3.76146 3.71518
# Velocity P-wave (km/s) = 5.39654 5.56741 5.48264
#
# Compressibility (1/GPa) = 0.04282393
#
# Stress axis : x y z
#
# Youngs Moduli (GPa) = 68.87199 68.87199 43.79531
#
# Poissons Ratio (x) = 0.18704 0.03961
# Poissons Ratio (y) = 0.18704 0.03961
# Poissons Ratio (z) = 0.06228 0.06228
#
# Static dielectric constant tensor:
#      x y z
#    x 1.791610 0.000000 0.000000 
#    y 0.000000 1.791610 0.000000 
#    z 0.000000 0.000000 1.769390 
# 
# From -- ./inp_files/3417.got.cif
#   From: 2010.05.17/outbox.cif.g08.bks.cpg/sg114_2_cif.got.tgz:3417.got - 2010.05.20 11:04:54.
