data_PCOD9556922
_publ_section_title
;
Structure prediction by ZEFSAII (Michael W. Deem and Ramdas Pophale) SiO2 
 PCOD9556922
Probable space group: P -4 M 2
;
_chemical_formula_sum "Si O2"
_cell_formula_units_Z 40
_cell_length_a 8.095091
_cell_length_b 8.095091
_cell_length_c 30.328369
_cell_angle_alpha 90.000000
_cell_angle_beta 90.000000
_cell_angle_gamma 90.000000
_cell_volume 1987.433133
_symmetry_space_group_name_H-M "P -4 M 2"
_symmetry_group_IT_number 115
_symmetry_cell_setting 'tetragonal'
loop_
_space_group_symop_operation_xyz
x,y,z
y,-x,-z
-x,-y,z
-y,x,-z
y,x,-z
-y,-x,-z
-x,y,z
x,-y,z
loop_
_atom_site_type_symbol
_atom_site_label
_atom_site_fract_x
_atom_site_fract_y
_atom_site_fract_z
Si Si1 0.317191 0.808724 0.544079
Si Si2 0.000000 0.699473 0.107408
Si Si3 0.307987 0.797345 0.268422
Si Si4 0.800502 0.000000 0.791162
Si Si5 0.700504 0.688195 0.949135
Si Si6 0.304086 0.183587 0.364183
O O1 0.212468 0.787533 0.500000
O O2 0.500000 0.754669 0.530907
O O3 0.267308 0.721318 0.589012
O O4 0.317913 0.000000 0.555793
O O5 0.000000 0.745749 0.158423
O O6 0.167120 0.759699 0.083111
O O7 0.000000 0.500000 0.103611
O O8 0.500000 0.747467 0.259530
O O9 0.168421 0.745789 0.233638
O O10 0.251330 0.740159 0.317482
O O11 0.309393 0.000000 0.270066
O O12 0.000000 0.000000 0.789513
O O13 0.500000 0.681506 0.945993
O O14 0.760505 0.500000 0.940511
O O15 0.734614 0.734614 0.000000
O O16 0.500000 0.168991 0.358193
O O17 0.229653 0.000000 0.367897
#
# Coordination Sequence:
#
# PCOD9556922 Si02
#       6
#     8   4   8   4   8   8
#     4  11  24  38  52  75 106 138 171 211 261 319
#     4  10  20  34  52  78 110 144 182 230 280 327
#     4   8  16  32  54  78 104 138 180 225 270 326
#     4  10  20  34  52  76 110 144 180 220 276 325
#     4   8  15  31  54  76 102 141 185 226 273 333
#     4   9  18  34  57  82 102 127 173 223 265 316
#
# _framework density 20.126465
#
# number of rings (size 3 to 8) (size 9 to 14) (size 15 to 20)
#    0.000    2.800    0.000    3.000    1.400    5.200 
#    1.800    1.000    0.000    1.200    0.000    0.000 
#    0.000    0.000    0.000    0.000    0.000    0.000 
#
# Total GULP energy -222822.535563 kJ/mol
# GULP energy per Si atom -5570.563389 kJ/mol
# Density = 2.008066 g / cm^3
# Si number density = 20.126465 Si / 1000 Ang^3
#
#
#
# Elastic Constant Matrix: (Units=GPa)
#
#
# Indices 1 2 3 4 5 6 
#
# 1 46.2516 15.2147 40.6045 0.0000 0.0000 0.0000
# 2 15.2147 46.2508 40.6043 0.0000 0.0000 0.0000
# 3 40.6045 40.6043 147.6368 0.0000 0.0000 0.0000
# 4 0.0000 0.0000 0.0000 38.4999 0.0000 0.0000
# 5 0.0000 0.0000 0.0000 0.0000 38.5000 0.0000
# 6 0.0000 0.0000 0.0000 0.0000 0.0000 11.2371
#
#
#
# Elastic Compliance Matrix: (Units=1/GPa)
#
#
# Indices 1 2 3 4 5 6 
#
# 1 0.028887 -0.003332 -0.007028 0.000000 0.000000 0.000000
# 2 -0.003332 0.028888 -0.007028 0.000000 0.000000 0.000000
# 3 -0.007028 -0.007028 0.010639 0.000000 0.000000 0.000000
# 4 0.000000 0.000000 0.000000 0.025974 0.000000 0.000000
# 5 0.000000 0.000000 0.000000 0.000000 0.025974 0.000000
# 6 0.000000 0.000000 0.000000 0.000000 0.000000 0.088991
#
#
# Mechanical properties :
#
#
# Convention : Reuss Voigt Hill
#
# Bulk Modulus (GPa) = 29.73001 48.10958 38.91980
# Shear Modulus (GPa) = 19.58143 27.22846 23.40494
#
# Velocity S-wave (km/s) = 3.12255 3.68213 3.41382
# Velocity P-wave (km/s) = 5.27296 6.48328 5.90919
#
# Compressibility (1/GPa) = 0.03363604
#
# Stress axis : x y z
#
# Youngs Moduli (GPa) = 34.61730 34.61658 93.99019
#
# Poissons Ratio (x) = 0.11536 0.66059
# Poissons Ratio (y) = 0.11536 0.66061
# Poissons Ratio (z) = 0.24330 0.24330
#
# Static dielectric constant tensor:
#      x y z
#    x 1.744210 0.000000 0.000000 
#    y 0.000000 1.744210 0.000000 
#    z 0.000000 0.000000 1.705070 
# 
# From -- ./inp_files/5555.got.cif
#   From: 2010.05.17/outbox.cif.g08.bks.cpg/sg115_3_cif.got.tgz:5555.got - 2010.05.20 11:07:42.
