data_PCOD9556698
_publ_section_title
;
Structure prediction by ZEFSAII (Michael W. Deem and Ramdas Pophale) SiO2 
 PCOD9556698
Probable space group: P -4 M 2
;
_chemical_formula_sum "Si O2"
_cell_formula_units_Z 56
_cell_length_a 15.087397
_cell_length_b 15.087397
_cell_length_c 11.475995
_cell_angle_alpha 90.000000
_cell_angle_beta 90.000000
_cell_angle_gamma 90.000000
_cell_volume 2612.275557
_symmetry_space_group_name_H-M "P -4 M 2"
_symmetry_group_IT_number 115
_symmetry_cell_setting 'tetragonal'
loop_
_space_group_symop_operation_xyz
x,y,z
y,-x,-z
-x,-y,z
-y,x,-z
y,x,-z
-y,-x,-z
-x,y,z
x,-y,z
loop_
_atom_site_type_symbol
_atom_site_label
_atom_site_fract_x
_atom_site_fract_y
_atom_site_fract_z
Si Si1 0.864760 0.399909 0.067226
Si Si2 0.399279 0.896322 0.374930
Si Si3 0.674345 0.400299 0.377464
Si Si4 0.340486 0.624428 0.121098
Si Si5 0.096255 0.779730 0.188369
Si Si6 0.171761 0.703442 0.845224
Si Si7 0.162363 0.719742 0.419885
O O1 0.899709 0.500000 0.071611
O O2 0.760151 0.408058 0.099956
O O3 0.900037 0.323598 0.151374
O O4 0.880991 0.351988 0.942559
O O5 0.500000 0.859514 0.369513
O O6 0.333709 0.853913 0.280456
O O7 0.354261 0.883117 0.500222
O O8 0.404039 0.000000 0.349629
O O9 0.626692 0.373309 0.500000
O O10 0.707352 0.500000 0.394283
O O11 0.625521 0.400271 0.250906
O O12 0.755015 0.332071 0.361246
O O13 0.328461 0.729541 0.127724
O O14 0.392841 0.607160 0.000000
O O15 0.188746 0.826606 0.146987
O O16 0.104192 0.770741 0.326874
O O17 0.000000 0.816955 0.152408
O O18 0.207066 0.792935 0.500000
#
# Coordination Sequence:
#
# PCOD9556698 Si02
#       7
#     8   8   8   8   8   8   8
#     4  10  20  35  59  90 126 164 204 261 329 400
#     4  11  23  37  58  92 130 167 211 271 341 408
#     4  11  21  35  57  81 113 159 207 262 322 389
#     4   9  18  34  58  83 114 154 212 259 307 387
#     4  11  22  37  62  92 127 167 213 267 320 385
#     4  10  19  40  60  85 125 170 215 254 321 396
#     4  11  20  38  60  85 121 166 218 264 326 405
#
# _framework density 21.437246999999999
#
# number of rings (size 3 to 8) (size 9 to 14) (size 15 to 20)
#    0.000    1.571    4.286    3.857    0.000    1.571 
#    0.000    3.571    0.000    0.429    0.000    1.000 
#    0.000   73.143    0.000    0.000    0.000    0.000 
#
# Total GULP energy -312005.199296 kJ/mol
# GULP energy per Si atom -5571.521416 kJ/mol
# Density = 2.138846 g / cm^3
# Si number density = 21.437247 Si / 1000 Ang^3
#
#
#
# Elastic Constant Matrix: (Units=GPa)
#
#
# Indices 1 2 3 4 5 6 
#
# 1 61.2862 3.3937 7.7290 0.0000 0.0000 0.0000
# 2 3.3937 61.2858 7.7304 0.0000 0.0000 0.0000
# 3 7.7290 7.7304 119.6665 0.0000 0.0000 0.0000
# 4 0.0000 0.0000 0.0000 7.5066 0.0000 0.0000
# 5 0.0000 0.0000 0.0000 0.0000 7.5020 0.0000
# 6 0.0000 0.0000 0.0000 0.0000 0.0000 6.9429
#
#
#
# Elastic Compliance Matrix: (Units=1/GPa)
#
#
# Indices 1 2 3 4 5 6 
#
# 1 0.016488 -0.000785 -0.001014 0.000000 0.000000 0.000000
# 2 -0.000785 0.016488 -0.001014 0.000000 0.000000 0.000000
# 3 -0.001014 -0.001014 0.008488 0.000000 0.000000 0.000000
# 4 0.000000 0.000000 0.000000 0.133215 0.000000 0.000000
# 5 0.000000 0.000000 0.000000 0.000000 0.133298 0.000000
# 6 0.000000 0.000000 0.000000 0.000000 0.000000 0.144032
#
#
# Mechanical properties :
#
#
# Convention : Reuss Voigt Hill
#
# Bulk Modulus (GPa) = 27.90432 31.10498 29.50465
# Shear Modulus (GPa) = 10.64775 19.28266 14.96521
#
# Velocity S-wave (km/s) = 2.23108 3.00241 2.64501
# Velocity P-wave (km/s) = 4.43644 5.15369 4.80846
#
# Compressibility (1/GPa) = 0.03583674
#
# Stress axis : x y z
#
# Youngs Moduli (GPa) = 60.64914 60.64858 117.81900
#
# Poissons Ratio (x) = 0.04762 0.11950
# Poissons Ratio (y) = 0.04762 0.11952
# Poissons Ratio (z) = 0.06151 0.06152
#
# Static dielectric constant tensor:
#      x y z
#    x 1.770210 0.000000 0.000000 
#    y 0.000000 1.770180 0.000000 
#    z 0.000000 0.000000 1.915530 
# 
# From -- ./inp_files/3058.got.cif
#   From: 2010.05.17/outbox.cif.g08.bks.cpg/sg115_2_cif.got.tgz:3058.got - 2010.05.20 11:07:42.
