data_PCOD9556675
_publ_section_title
;
Structure prediction by ZEFSAII (Michael W. Deem and Ramdas Pophale) SiO2 
 PCOD9556675
Probable space group: P -4 M 2
;
_chemical_formula_sum "Si O2"
_cell_formula_units_Z 60
_cell_length_a 13.580118
_cell_length_b 13.580118
_cell_length_c 19.126866
_cell_angle_alpha 90.000000
_cell_angle_beta 90.000000
_cell_angle_gamma 90.000000
_cell_volume 3527.369071
_symmetry_space_group_name_H-M "P -4 M 2"
_symmetry_group_IT_number 115
_symmetry_cell_setting 'tetragonal'
loop_
_space_group_symop_operation_xyz
x,y,z
y,-x,-z
-x,-y,z
-y,x,-z
y,x,-z
-y,-x,-z
-x,y,z
x,-y,z
loop_
_atom_site_type_symbol
_atom_site_label
_atom_site_fract_x
_atom_site_fract_y
_atom_site_fract_z
Si Si1 0.741688 0.883848 0.038771
Si Si2 0.239410 0.250569 0.822319
Si Si3 0.114990 0.114670 0.281140
Si Si4 0.384514 0.614310 0.252896
Si Si5 0.202981 0.115917 0.570923
Si Si6 0.609381 0.768191 0.619030
Si Si7 0.387208 0.116931 0.906345
Si Si8 0.393159 0.606841 0.500000
O O1 0.727222 0.833074 0.113269
O O2 0.754085 0.000000 0.046658
O O3 0.835576 0.835576 0.000000
O O4 0.652983 0.864230 0.984547
O O5 0.179716 0.193303 0.761636
O O6 0.300807 0.346214 0.798745
O O7 0.319815 0.174531 0.852291
O O8 0.130314 0.127772 0.364449
O O9 0.000000 0.143620 0.266855
O O10 0.125588 0.000000 0.262073
O O11 0.500000 0.627959 0.271585
O O12 0.375655 0.500000 0.227750
O O13 0.306411 0.624187 0.316378
O O14 0.172516 0.172516 0.500000
O O15 0.305509 0.154084 0.603956
O O16 0.207486 0.000000 0.554881
O O17 0.500000 0.812680 0.626190
O O18 0.610340 0.695491 0.552974
O O19 0.500000 0.146592 0.899472
O O20 0.378871 0.000000 0.894432
O O21 0.500000 0.610529 0.463026
#
# Coordination Sequence:
#
# PCOD9556675 Si02
#       8
#     8   8   8   8   8   8   8   4
#     4   9  19  33  51  77 107 141 181 220 265 323
#     4  11  19  33  55  81 108 139 179 227 279 322
#     4  10  21  36  55  80 109 142 182 228 275 326
#     4  10  21  36  54  78 108 142 181 225 275 331
#     4  11  22  38  58  81 109 146 188 224 267 328
#     4  10  19  34  55  79 107 139 175 222 275 322
#     4   9  18  33  52  75 106 141 175 214 265 327
#     4   9  16  28  52  80 101 128 172 218 261 316
#
# _framework density 17.009844999999999
#
# number of rings (size 3 to 8) (size 9 to 14) (size 15 to 20)
#    0.000    2.067    2.000    2.000    0.000    3.733 
#    0.000    0.000    0.000    1.200    0.000    6.533 
#    0.000    0.000    0.000    0.000    0.000    0.000 
#
# Total GULP energy -334322.407264 kJ/mol
# GULP energy per Si atom -5572.040121 kJ/mol
# Density = 1.697113 g / cm^3
# Si number density = 17.009845 Si / 1000 Ang^3
#
#
#
# Elastic Constant Matrix: (Units=GPa)
#
#
# Indices 1 2 3 4 5 6 
#
# 1 78.6177 35.8880 29.4292 0.0000 0.0000 0.0000
# 2 35.8880 78.6177 29.4292 0.0000 0.0000 0.0000
# 3 29.4292 29.4292 64.7685 0.0000 0.0000 0.0000
# 4 0.0000 0.0000 0.0000 12.9448 0.0000 0.0000
# 5 0.0000 0.0000 0.0000 0.0000 12.9448 0.0000
# 6 0.0000 0.0000 0.0000 0.0000 0.0000 26.5995
#
#
#
# Elastic Compliance Matrix: (Units=1/GPa)
#
#
# Indices 1 2 3 4 5 6 
#
# 1 0.017399 -0.006004 -0.005177 0.000000 0.000000 0.000000
# 2 -0.006004 0.017399 -0.005177 0.000000 0.000000 0.000000
# 3 -0.005177 -0.005177 0.020145 0.000000 0.000000 0.000000
# 4 0.000000 0.000000 0.000000 0.077251 0.000000 0.000000
# 5 0.000000 0.000000 0.000000 0.000000 0.077251 0.000000
# 6 0.000000 0.000000 0.000000 0.000000 0.000000 0.037595
#
#
# Mechanical properties :
#
#
# Convention : Reuss Voigt Hill
#
# Bulk Modulus (GPa) = 44.99638 45.72186 45.35912
# Shear Modulus (GPa) = 17.41161 18.98166 18.19664
#
# Velocity S-wave (km/s) = 3.20288 3.34417 3.27428
# Velocity P-wave (km/s) = 6.33944 6.46910 6.40460
#
# Compressibility (1/GPa) = 0.02222401
#
# Stress axis : x y z
#
# Youngs Moduli (GPa) = 57.47558 57.47558 49.64129
#
# Poissons Ratio (x) = 0.34510 0.25701
# Poissons Ratio (y) = 0.34510 0.25701
# Poissons Ratio (z) = 0.29757 0.29757
#
# Static dielectric constant tensor:
#      x y z
#    x 1.573710 0.000000 0.000000 
#    y 0.000000 1.573710 0.000000 
#    z 0.000000 0.000000 1.580440 
# 
# From -- ./inp_files/4992.got.cif
#   From: 2010.05.17/outbox.cif.g08.bks.cpg/sg115_3_cif.got.tgz:4992.got - 2010.05.20 11:07:42.
