data_PCOD9556054
_publ_section_title
;
Structure prediction by ZEFSAII (Michael W. Deem and Ramdas Pophale) SiO2 
 PCOD9556054
Probable space group: P -4 21 C
;
_chemical_formula_sum "Si O2"
_cell_formula_units_Z 34
_cell_length_a 12.108063
_cell_length_b 12.108063
_cell_length_c 8.010626
_cell_angle_alpha 90.000000
_cell_angle_beta 90.000000
_cell_angle_gamma 90.000000
_cell_volume 1174.399344
_symmetry_space_group_name_H-M "P -4 21 C"
_symmetry_group_IT_number 114
_symmetry_cell_setting 'tetragonal'
loop_
_space_group_symop_operation_xyz
x,y,z
y,-x,-z
-x,-y,z
-y,x,-z
1/2+x,1/2-y,1/2-z
1/2-x,1/2+y,1/2-z
1/2-y,1/2-x,1/2+z
1/2+y,1/2+x,1/2+z
loop_
_atom_site_type_symbol
_atom_site_label
_atom_site_fract_x
_atom_site_fract_y
_atom_site_fract_z
Si Si1 0.582924 0.811168 0.120279
Si Si2 0.184110 0.479101 0.216066
Si Si3 0.000000 0.000000 0.500000
Si Si4 0.095637 0.916308 0.795407
Si Si5 0.295802 0.302533 0.407198
O O1 0.601556 0.933153 0.199513
O O2 0.601712 0.730229 0.282212
O O3 0.486928 0.827113 0.982984
O O4 0.687877 0.777234 0.003474
O O5 0.300686 0.534750 0.263073
O O6 0.200751 0.356824 0.292266
O O7 0.961073 0.893305 0.394965
O O8 0.177149 0.888649 0.944873
O O9 0.000000 0.000000 0.843998
#
# Coordination Sequence:
#
# PCOD9556054 Si02
#       5
#     8   8   2   8   8
#     4   9  22  42  59  94 133 175 231 256 340 406
#     4  10  21  39  61  86 133 178 208 277 323 403
#     4   8  20  32  46  92 138 152 208 252 334 444
#     4   9  21  33  54  94 137 161 206 254 354 428
#     4  10  21  40  63  87 135 182 211 282 326 404
#
# _framework density 28.950969000000001
#
# number of rings (size 3 to 8) (size 9 to 14) (size 15 to 20)
#    0.706    1.882    0.000    0.000    9.882    0.000 
#    8.471    0.000    0.000    4.235    0.000    0.000 
#    0.000    0.000    0.000    0.000    0.000    0.000 
#
# Total GULP energy -189778.936125 kJ/mol
# GULP energy per Si atom -5581.733415 kJ/mol
# Density = 2.888508 g / cm^3
# Si number density = 28.950969 Si / 1000 Ang^3
#
#
#
# Elastic Constant Matrix: (Units=GPa)
#
#
# Indices 1 2 3 4 5 6 
#
# 1 91.7536 28.0009 74.6288 0.0000 0.0000 0.0000
# 2 28.0009 91.7536 74.6288 0.0000 0.0000 0.0000
# 3 74.6288 74.6288 227.6363 0.0000 0.0000 0.0000
# 4 0.0000 0.0000 0.0000 74.6975 0.0000 0.0000
# 5 0.0000 0.0000 0.0000 0.0000 74.6975 0.0000
# 6 0.0000 0.0000 0.0000 0.0000 0.0000 35.7192
#
#
#
# Elastic Compliance Matrix: (Units=1/GPa)
#
#
# Indices 1 2 3 4 5 6 
#
# 1 0.014903 -0.000783 -0.004629 0.000000 0.000000 0.000000
# 2 -0.000783 0.014903 -0.004629 0.000000 0.000000 0.000000
# 3 -0.004629 -0.004629 0.007428 0.000000 0.000000 0.000000
# 4 0.000000 0.000000 0.000000 0.013387 0.000000 0.000000
# 5 0.000000 0.000000 0.000000 0.000000 0.013387 0.000000
# 6 0.000000 0.000000 0.000000 0.000000 0.000000 0.027996
#
#
# Mechanical properties :
#
#
# Convention : Reuss Voigt Hill
#
# Bulk Modulus (GPa) = 58.30330 85.07340 71.68835
# Shear Modulus (GPa) = 42.44337 52.61518 47.52927
#
# Velocity S-wave (km/s) = 3.83305 4.26771 4.05621
# Velocity P-wave (km/s) = 6.30651 7.33032 6.83760
#
# Compressibility (1/GPa) = 0.01715169
#
# Stress axis : x y z
#
# Youngs Moduli (GPa) = 67.10145 67.10145 134.62171
#
# Poissons Ratio (x) = 0.05253 0.62318
# Poissons Ratio (y) = 0.05253 0.62318
# Poissons Ratio (z) = 0.31062 0.31062
#
# Static dielectric constant tensor:
#      x y z
#    x 2.346400 0.000000 0.000000 
#    y 0.000000 2.346400 0.000000 
#    z 0.000000 0.000000 2.409750 
# 
# From -- ./inp_files/670.got.cif
#   From: 2010.05.17/outbox.cif.g08.bks.cpg/sg114_1_cif.got.tgz:670.got - 2010.05.20 11:04:54.
