data_PCOD9556798
_publ_section_title
;
Structure prediction by ZEFSAII (Michael W. Deem and Ramdas Pophale) SiO2 
 PCOD9556798
Probable space group: P -4 M 2
;
_chemical_formula_sum "Si O2"
_cell_formula_units_Z 48
_cell_length_a 9.139763
_cell_length_b 9.139763
_cell_length_c 31.887186
_cell_angle_alpha 90.000000
_cell_angle_beta 90.000000
_cell_angle_gamma 90.000000
_cell_volume 2663.704619
_symmetry_space_group_name_H-M "P -4 M 2"
_symmetry_group_IT_number 115
_symmetry_cell_setting 'tetragonal'
loop_
_space_group_symop_operation_xyz
x,y,z
y,-x,-z
-x,-y,z
-y,x,-z
y,x,-z
-y,-x,-z
-x,y,z
x,-y,z
loop_
_atom_site_type_symbol
_atom_site_label
_atom_site_fract_x
_atom_site_fract_y
_atom_site_fract_z
Si Si1 0.172840 0.174569 0.794756
Si Si2 0.175060 0.673072 0.539302
Si Si3 0.821615 0.831669 0.625025
Si Si4 0.673234 0.824962 0.881730
Si Si5 0.331478 0.821554 0.290717
Si Si6 0.826100 0.674278 0.960339
O O1 0.261949 0.214911 0.836273
O O2 0.222977 0.255978 0.752734
O O3 0.000000 0.205892 0.801454
O O4 0.186653 0.000000 0.788305
O O5 0.255141 0.744860 0.500000
O O6 0.201143 0.500000 0.540952
O O7 0.222573 0.746878 0.583020
O O8 0.000000 0.696610 0.534917
O O9 0.772304 0.754111 0.667801
O O10 0.000000 0.829830 0.625678
O O11 0.774878 0.000000 0.623604
O O12 0.500000 0.797148 0.883539
O O13 0.755826 0.739613 0.918294
O O14 0.696107 0.000000 0.887330
O O15 0.500000 0.776338 0.292323
O O16 0.327799 0.000000 0.291042
O O17 0.802642 0.500000 0.962429
O O18 0.000000 0.701612 0.960819
O O19 0.751205 0.751205 0.000000
#
# Coordination Sequence:
#
# PCOD9556798 Si02
#       6
#     8   8   8   8   8   8
#     4   9  17  30  49  73 102 137 176 217 262 311
#     4  10  20  33  50  73 101 133 170 212 259 311
#     4   9  16  27  46  72 101 132 167 210 260 311
#     4  10  21  37  57  81 109 142 181 223 267 315
#     4   9  16  26  43  70 103 135 169 213 262 310
#     4  11  24  40  59  84 112 142 178 219 264 316
#
# _framework density 18.020015999999998
#
# number of rings (size 3 to 8) (size 9 to 14) (size 15 to 20)
#    0.000    2.333    0.000    3.000    0.000   10.000 
#    0.000    1.667    0.000    1.000    0.000    2.333 
#    0.000    0.000    0.000    0.000    0.000    0.000 
#
# Total GULP energy -267941.289241 kJ/mol
# GULP energy per Si atom -5582.110193 kJ/mol
# Density = 1.797900 g / cm^3
# Si number density = 18.020016 Si / 1000 Ang^3
#
#
#
# Elastic Constant Matrix: (Units=GPa)
#
#
# Indices 1 2 3 4 5 6 
#
# 1 81.5117 70.4614 97.8260 0.0000 0.0000 0.0000
# 2 70.4614 81.5112 97.8267 0.0000 0.0000 0.0000
# 3 97.8260 97.8267 222.8402 0.0000 0.0000 0.0000
# 4 0.0000 0.0000 0.0000 -18.6914 0.0000 0.0000
# 5 0.0000 0.0000 0.0000 0.0000 -18.6926 0.0000
# 6 0.0000 0.0000 0.0000 0.0000 0.0000 17.5340
#
#
#
# Elastic Compliance Matrix: (Units=1/GPa)
#
#
# Indices 1 2 3 4 5 6 
#
# 1 0.052814 -0.037682 -0.006643 0.000000 0.000000 0.000000
# 2 -0.037682 0.052816 -0.006644 0.000000 0.000000 0.000000
# 3 -0.006643 -0.006644 0.010320 0.000000 0.000000 0.000000
# 4 0.000000 0.000000 0.000000 -0.053501 0.000000 0.000000
# 5 0.000000 0.000000 0.000000 0.000000 -0.053497 0.000000
# 6 0.000000 0.000000 0.000000 0.000000 0.000000 0.057032
#
#
# Mechanical properties :
#
#
# Convention : Reuss Voigt Hill
#
# Bulk Modulus (GPa) = 71.36331 102.01016 86.68673
# Shear Modulus (GPa) = 28.96992 4.01328 16.49160
#
# Velocity S-wave (km/s) = 4.01390 1.49397 3.02848
# Velocity P-wave (km/s) = 7.82113 7.72711 7.77426
#
# Compressibility (1/GPa) = 0.01401280
#
# Stress axis : x y z
#
# Youngs Moduli (GPa) = 18.93429 18.93375 96.89666
#
# Poissons Ratio (x) = 0.71347 0.64366
# Poissons Ratio (y) = 0.71349 0.64376
# Poissons Ratio (z) = 0.12578 0.12579
#
# Static dielectric constant tensor:
#      x y z
#    x 1.600080 0.000000 0.000000 
#    y 0.000000 1.600080 0.000000 
#    z 0.000000 0.000000 1.588730 
# 
# From -- ./inp_files/6093.got.cif
#   From: 2010.05.17/outbox.cif.g08.bks.cpg/sg115_4_cif.got.tgz:6093.got - 2010.05.20 11:07:42.
