data_PCOD9556546
_publ_section_title
;
Structure prediction by ZEFSAII (Michael W. Deem and Ramdas Pophale) SiO2 
 PCOD9556546
Probable space group: P -4 M 2
;
_chemical_formula_sum "Si O2"
_cell_formula_units_Z 64
_cell_length_a 18.379529
_cell_length_b 18.379529
_cell_length_c 13.019012
_cell_angle_alpha 90.000000
_cell_angle_beta 90.000000
_cell_angle_gamma 90.000000
_cell_volume 4397.914510
_symmetry_space_group_name_H-M "P -4 M 2"
_symmetry_group_IT_number 115
_symmetry_cell_setting 'tetragonal'
loop_
_space_group_symop_operation_xyz
x,y,z
y,-x,-z
-x,-y,z
-y,x,-z
y,x,-z
-y,-x,-z
-x,y,z
x,-y,z
loop_
_atom_site_type_symbol
_atom_site_label
_atom_site_fract_x
_atom_site_fract_y
_atom_site_fract_z
Si Si1 0.582630 0.911914 0.864484
Si Si2 0.173404 0.177835 0.383100
Si Si3 0.088467 0.695272 0.718934
Si Si4 0.676594 0.912014 0.661199
Si Si5 0.913328 0.918772 0.269436
Si Si6 0.084687 0.834549 0.075326
Si Si7 0.689958 0.911658 0.040597
Si Si8 0.912415 0.582549 0.541694
O O1 0.500000 0.885001 0.856445
O O2 0.630198 0.896058 0.763482
O O3 0.579470 0.000000 0.868755
O O4 0.623631 0.887701 0.967958
O O5 0.193414 0.193414 0.500000
O O6 0.240474 0.138521 0.326203
O O7 0.136014 0.250754 0.339861
O O8 0.111746 0.115421 0.375264
O O9 0.106586 0.685155 0.839302
O O10 0.104358 0.625832 0.646363
O O11 0.000000 0.709493 0.710501
O O12 0.629606 0.893907 0.559447
O O13 0.692870 0.000000 0.660112
O O14 0.884677 0.863197 0.182503
O O15 0.000000 0.921130 0.262012
O O16 0.885034 0.000000 0.251780
O O17 0.000000 0.819798 0.092631
O O18 0.097777 0.902224 0.000000
O O19 0.114120 0.764008 0.016181
O O20 0.691686 0.000000 0.038436
O O21 0.883500 0.500000 0.538598
O O22 0.000000 0.577530 0.538327
#
# Coordination Sequence:
#
# PCOD9556546 Si02
#       8
#     8   8   8   8   8   8   8   8
#     4   9  17  30  49  70  89 110 141 189 245 292
#     4  12  22  32  46  61  85 121 157 195 237 279
#     4  10  20  33  46  66  93 122 158 196 235 284
#     4  10  19  32  48  68  90 116 156 201 241 282
#     4  10  21  32  41  56  77 107 154 206 249 280
#     4  10  18  29  43  58  77 108 147 191 236 278
#     4   9  18  30  44  62  85 109 138 179 232 288
#     4   9  17  30  48  67  86 111 146 193 243 283
#
# _framework density 14.552352000000001
#
# number of rings (size 3 to 8) (size 9 to 14) (size 15 to 20)
#    0.000    2.125    1.250    3.000    0.000    7.125 
#    0.000    3.125    0.000    0.000    0.000    0.000 
#    0.000    0.000    0.000    0.000    0.000   10.625 
#
# Total GULP energy -356313.129748 kJ/mol
# GULP energy per Si atom -5567.392652 kJ/mol
# Density = 1.451923 g / cm^3
# Si number density = 14.552352 Si / 1000 Ang^3
#
#
#
# Elastic Constant Matrix: (Units=GPa)
#
#
# Indices 1 2 3 4 5 6 
#
# 1 92.6029 11.3970 49.1351 0.0000 0.0000 0.0000
# 2 11.3970 92.6076 49.1368 0.0000 0.0000 0.0000
# 3 49.1351 49.1368 110.8677 0.0000 0.0000 0.0000
# 4 0.0000 0.0000 0.0000 13.9080 0.0000 0.0000
# 5 0.0000 0.0000 0.0000 0.0000 13.9082 0.0000
# 6 0.0000 0.0000 0.0000 0.0000 0.0000 8.9645
#
#
#
# Elastic Compliance Matrix: (Units=1/GPa)
#
#
# Indices 1 2 3 4 5 6 
#
# 1 0.014429 0.002114 -0.007332 0.000000 0.000000 0.000000
# 2 0.002114 0.014428 -0.007332 0.000000 0.000000 0.000000
# 3 -0.007332 -0.007332 0.015519 0.000000 0.000000 0.000000
# 4 0.000000 0.000000 0.000000 0.071901 0.000000 0.000000
# 5 0.000000 0.000000 0.000000 0.000000 0.071900 0.000000
# 6 0.000000 0.000000 0.000000 0.000000 0.000000 0.111551
#
#
# Mechanical properties :
#
#
# Convention : Reuss Voigt Hill
#
# Bulk Modulus (GPa) = 51.87404 57.26842 54.57123
# Shear Modulus (GPa) = 15.09427 19.78343 17.43885
#
# Velocity S-wave (km/s) = 3.22411 3.69109 3.46548
# Velocity P-wave (km/s) = 7.04157 7.58975 7.32080
#
# Compressibility (1/GPa) = 0.01927747
#
# Stress axis : x y z
#
# Youngs Moduli (GPa) = 69.30585 69.30889 64.43912
#
# Poissons Ratio (x) = -0.14655 0.47245
# Poissons Ratio (y) = -0.14654 0.47245
# Poissons Ratio (z) = 0.50814 0.50815
#
# Static dielectric constant tensor:
#      x y z
#    x 1.482740 0.000000 0.000000 
#    y 0.000000 1.482740 0.000000 
#    z 0.000000 0.000000 1.523480 
# 
# From -- ./inp_files/3201.got.cif
#   From: 2010.05.17/outbox.cif.g08.bks.cpg/sg115_2_cif.got.tgz:3201.got - 2010.05.20 11:07:42.
