data_PCOD9556346
_publ_section_title
;
Structure prediction by ZEFSAII (Michael W. Deem and Ramdas Pophale) SiO2 
 PCOD9556346
Probable space group: P -4 21 C
;
_chemical_formula_sum "Si O2"
_cell_formula_units_Z 52
_cell_length_a 15.162936
_cell_length_b 15.162936
_cell_length_c 8.893871
_cell_angle_alpha 90.000000
_cell_angle_beta 90.000000
_cell_angle_gamma 90.000000
_cell_volume 2044.831044
_symmetry_space_group_name_H-M "P -4 21 C"
_symmetry_group_IT_number 114
_symmetry_cell_setting 'tetragonal'
loop_
_space_group_symop_operation_xyz
x,y,z
y,-x,-z
-x,-y,z
-y,x,-z
1/2+x,1/2-y,1/2-z
1/2-x,1/2+y,1/2-z
1/2-y,1/2-x,1/2+z
1/2+y,1/2+x,1/2+z
loop_
_atom_site_type_symbol
_atom_site_label
_atom_site_fract_x
_atom_site_fract_y
_atom_site_fract_z
Si Si1 0.751986 0.814921 0.773645
Si Si2 0.639947 0.948221 0.397754
Si Si3 0.657362 0.998615 0.080493
Si Si4 0.241344 0.852185 0.932278
Si Si5 0.000000 0.000000 0.500000
Si Si6 0.562793 0.651117 0.686114
Si Si7 0.500000 0.500000 0.500000
Si Si8 0.035494 0.808924 0.459518
O O1 0.650287 0.828191 0.830654
O O2 0.766303 0.727969 0.674494
O O3 0.785378 0.890920 0.662965
O O4 0.811507 0.800428 0.917689
O O5 0.625093 0.007639 0.251715
O O6 0.559298 0.914370 0.495552
O O7 0.501212 0.790510 0.007265
O O8 0.754097 0.951414 0.103140
O O9 0.682563 0.082912 0.982856
O O10 0.158502 0.891776 0.842842
O O11 0.094323 0.000934 0.585091
O O12 0.495537 0.584176 0.609146
O O13 0.552066 0.670469 0.861989
#
# Coordination Sequence:
#
# PCOD9556346 Si02
#       8
#     8   8   8   8   2   8   2   8
#     4  12  21  43  68  94 135 191 233 291 351 439
#     4  11  20  43  65  94 132 188 235 282 347 430
#     4  11  23  39  67  96 126 176 246 282 344 422
#     4  12  23  40  68  98 127 178 247 285 355 422
#     4  12  30  40  64 118 150 188 212 310 382 440
#     4  11  21  37  58  95 135 185 216 282 338 430
#     4  12  22  32  60  98 158 176 204 270 382 416
#     4  11  24  42  61  96 152 179 236 272 357 441
#
# _framework density 25.429971999999999
#
# number of rings (size 3 to 8) (size 9 to 14) (size 15 to 20)
#    0.000    0.615    9.231    0.462    4.308    2.462 
#    0.000    1.538    0.000    2.769    0.000    0.000 
#    0.000    0.000    0.000    0.000    0.000    0.000 
#
# Total GULP energy -290195.862749 kJ/mol
# GULP energy per Si atom -5580.689668 kJ/mol
# Density = 2.537209 g / cm^3
# Si number density = 25.429972 Si / 1000 Ang^3
#
#
#
# Elastic Constant Matrix: (Units=GPa)
#
#
# Indices 1 2 3 4 5 6 
#
# 1 81.1269 -2.4690 14.0195 0.0000 0.0000 0.0000
# 2 -2.4690 81.1269 14.0195 0.0000 0.0000 0.0000
# 3 14.0195 14.0195 97.6306 0.0000 0.0000 0.0000
# 4 0.0000 0.0000 0.0000 24.9584 0.0000 0.0000
# 5 0.0000 0.0000 0.0000 0.0000 24.9584 0.0000
# 6 0.0000 0.0000 0.0000 0.0000 0.0000 33.2719
#
#
#
# Elastic Compliance Matrix: (Units=1/GPa)
#
#
# Indices 1 2 3 4 5 6 
#
# 1 0.012681 0.000718 -0.001924 0.000000 0.000000 0.000000
# 2 0.000718 0.012681 -0.001924 0.000000 0.000000 0.000000
# 3 -0.001924 -0.001924 0.010795 0.000000 0.000000 0.000000
# 4 0.000000 0.000000 0.000000 0.040067 0.000000 0.000000
# 5 0.000000 0.000000 0.000000 0.000000 0.040067 0.000000
# 6 0.000000 0.000000 0.000000 0.000000 0.000000 0.030055
#
#
# Mechanical properties :
#
#
# Convention : Reuss Voigt Hill
#
# Bulk Modulus (GPa) = 33.44791 34.55829 34.00310
# Shear Modulus (GPa) = 30.75583 32.25869 31.50726
#
# Velocity S-wave (km/s) = 3.48146 3.56551 3.52374
# Velocity P-wave (km/s) = 5.41685 5.52897 5.47320
#
# Compressibility (1/GPa) = 0.02989724
#
# Stress axis : x y z
#
# Youngs Moduli (GPa) = 78.85977 78.85977 92.63312
#
# Poissons Ratio (x) = -0.05665 0.17823
# Poissons Ratio (y) = -0.05665 0.17823
# Poissons Ratio (z) = 0.15173 0.15173
#
# Static dielectric constant tensor:
#      x y z
#    x 2.105450 0.000000 0.000000 
#    y 0.000000 2.105450 0.000000 
#    z 0.000000 0.000000 1.984630 
# 
# From -- ./inp_files/1000.got.cif
#   From: 2010.05.17/outbox.cif.g08.bks.cpg/sg114_1_cif.got.tgz:1000.got - 2010.05.20 11:04:54.
