data_PCOD9556103
_publ_section_title
;
Structure prediction by ZEFSAII (Michael W. Deem and Ramdas Pophale) SiO2 
 PCOD9556103
Probable space group: P -4 21 C
;
_chemical_formula_sum "Si O2"
_cell_formula_units_Z 56
_cell_length_a 13.719384
_cell_length_b 13.719384
_cell_length_c 13.727429
_cell_angle_alpha 90.000000
_cell_angle_beta 90.000000
_cell_angle_gamma 90.000000
_cell_volume 2583.797241
_symmetry_space_group_name_H-M "P -4 21 C"
_symmetry_group_IT_number 114
_symmetry_cell_setting 'tetragonal'
loop_
_space_group_symop_operation_xyz
x,y,z
y,-x,-z
-x,-y,z
-y,x,-z
1/2+x,1/2-y,1/2-z
1/2-x,1/2+y,1/2-z
1/2-y,1/2-x,1/2+z
1/2+y,1/2+x,1/2+z
loop_
_atom_site_type_symbol
_atom_site_label
_atom_site_fract_x
_atom_site_fract_y
_atom_site_fract_z
Si Si1 0.250728 0.467095 0.426771
Si Si2 0.898003 0.951981 0.217070
Si Si3 0.108597 0.261319 0.140249
Si Si4 0.770264 0.415130 0.148041
Si Si5 0.436186 0.096658 0.036809
Si Si6 0.705761 0.265196 0.715494
Si Si7 0.668621 0.939141 0.746089
O O1 0.350364 0.511269 0.384346
O O2 0.257170 0.408383 0.527494
O O3 0.172992 0.553414 0.445868
O O4 0.229615 0.387193 0.343615
O O5 0.910238 0.837606 0.199702
O O6 0.820322 0.970307 0.304067
O O7 0.000000 0.000000 0.237133
O O8 0.213656 0.292363 0.179439
O O9 0.027819 0.336009 0.179530
O O10 0.738941 0.300802 0.149707
O O11 0.858237 0.412269 0.226673
O O12 0.823171 0.441566 0.048266
O O13 0.469292 0.148644 0.136418
O O14 0.500000 0.000000 0.017525
O O15 0.730191 0.379285 0.734882
#
# Coordination Sequence:
#
# PCOD9556103 Si02
#       7
#     8   8   8   8   8   8   8
#     4  12  23  39  68 105 133 173 245 295 354 431
#     4  11  25  42  68 101 137 174 234 301 363 434
#     4  11  23  40  64  97 135 175 228 294 361 422
#     4   9  22  44  63  93 144 186 230 294 368 425
#     4  12  24  40  70 103 137 196 246 298 359 439
#     4   9  22  38  61  92 136 186 218 288 368 435
#     4  10  21  43  62  92 144 178 221 302 362 416
#
# _framework density 21.673527
#
# number of rings (size 3 to 8) (size 9 to 14) (size 15 to 20)
#    0.857    0.571    2.857    1.714    8.000    1.714 
#    0.000    0.000    6.286    0.000    0.000    0.000 
#    0.000    0.000    0.000    0.000    0.000    0.000 
#
# Total GULP energy -312230.362094 kJ/mol
# GULP energy per Si atom -5575.542180 kJ/mol
# Density = 2.162420 g / cm^3
# Si number density = 21.673527 Si / 1000 Ang^3
#
#
#
# Elastic Constant Matrix: (Units=GPa)
#
#
# Indices 1 2 3 4 5 6 
#
# 1 73.3541 8.7950 39.3037 0.0000 0.0000 0.0000
# 2 8.7950 73.3541 39.3037 0.0000 0.0000 0.0000
# 3 39.3037 39.3037 128.3666 0.0000 0.0000 0.0000
# 4 0.0000 0.0000 0.0000 23.0112 0.0000 0.0000
# 5 0.0000 0.0000 0.0000 0.0000 23.0112 0.0000
# 6 0.0000 0.0000 0.0000 0.0000 0.0000 28.9619
#
#
#
# Elastic Compliance Matrix: (Units=1/GPa)
#
#
# Indices 1 2 3 4 5 6 
#
# 1 0.016354 0.000864 -0.005272 0.000000 0.000000 0.000000
# 2 0.000864 0.016354 -0.005272 0.000000 0.000000 0.000000
# 3 -0.005272 -0.005272 0.011018 0.000000 0.000000 0.000000
# 4 0.000000 0.000000 0.000000 0.043457 0.000000 0.000000
# 5 0.000000 0.000000 0.000000 0.000000 0.043457 0.000000
# 6 0.000000 0.000000 0.000000 0.000000 0.000000 0.034528
#
#
# Mechanical properties :
#
#
# Convention : Reuss Voigt Hill
#
# Bulk Modulus (GPa) = 41.04000 49.98663 45.51331
# Shear Modulus (GPa) = 25.95392 27.50834 26.73113
#
# Velocity S-wave (km/s) = 3.46424 3.56647 3.51572
# Velocity P-wave (km/s) = 5.91421 6.33033 6.12581
#
# Compressibility (1/GPa) = 0.02436647
#
# Stress axis : x y z
#
# Youngs Moduli (GPa) = 61.14880 61.14880 90.75726
#
# Poissons Ratio (x) = -0.05282 0.47844
# Poissons Ratio (y) = -0.05282 0.47844
# Poissons Ratio (z) = 0.32236 0.32236
#
# Static dielectric constant tensor:
#      x y z
#    x 1.857450 0.000000 0.000000 
#    y 0.000000 1.857450 0.000000 
#    z 0.000000 0.000000 1.767970 
# 
# From -- ./inp_files/1763.got.cif
#   From: 2010.05.17/outbox.cif.g08.bks.cpg/sg114_1_cif.got.tgz:1763.got - 2010.05.20 11:04:54.
