data_PCOD9556256
_publ_section_title
;
Structure prediction by ZEFSAII (Michael W. Deem and Ramdas Pophale) SiO2 
 PCOD9556256
Probable space group: P -4 21 C
;
_chemical_formula_sum "Si O2"
_cell_formula_units_Z 42
_cell_length_a 8.834395
_cell_length_b 8.834395
_cell_length_c 27.647310
_cell_angle_alpha 90.000000
_cell_angle_beta 90.000000
_cell_angle_gamma 90.000000
_cell_volume 2157.776748
_symmetry_space_group_name_H-M "P -4 21 C"
_symmetry_group_IT_number 114
_symmetry_cell_setting 'tetragonal'
loop_
_space_group_symop_operation_xyz
x,y,z
y,-x,-z
-x,-y,z
-y,x,-z
1/2+x,1/2-y,1/2-z
1/2-x,1/2+y,1/2-z
1/2-y,1/2-x,1/2+z
1/2+y,1/2+x,1/2+z
loop_
_atom_site_type_symbol
_atom_site_label
_atom_site_fract_x
_atom_site_fract_y
_atom_site_fract_z
Si Si1 0.000000 0.500000 0.755326
Si Si2 0.000000 0.000000 0.500000
Si Si3 0.503717 0.756751 0.326432
Si Si4 0.729122 0.199385 0.471271
Si Si5 0.974172 0.675606 0.938936
Si Si6 0.762375 0.997621 0.168812
Si Si7 0.000000 0.500000 0.592724
O O1 0.860030 0.531031 0.719700
O O2 0.032958 0.639087 0.790623
O O3 0.106169 0.879816 0.472146
O O4 0.359724 0.654017 0.340185
O O5 0.630795 0.634075 0.314170
O O6 0.553276 0.867082 0.370422
O O7 0.660648 0.221255 0.525142
O O8 0.739528 0.368693 0.450707
O O9 0.621730 0.085347 0.441068
O O10 0.000000 0.500000 0.948997
O O11 0.946894 0.696241 0.882272
#
# Coordination Sequence:
#
# PCOD9556256 Si02
#       7
#     4   2   8   8   8   8   4
#     4  11  22  43  66  90 126 161 210 271 326 394
#     4  12  24  40  64  88 132 176 216 268 320 384
#     4  10  24  40  65  92 124 166 212 268 330 384
#     4  12  25  42  65  94 136 175 218 267 327 390
#     4  12  25  41  65  99 130 175 218 270 323 387
#     4  11  23  41  65  93 126 163 216 266 326 387
#     4  11  22  43  62  94 130 171 218 265 322 396
#
# _framework density 19.464478
#
# number of rings (size 3 to 8) (size 9 to 14) (size 15 to 20)
#    0.000    0.762    5.714    1.143    5.333    0.381 
#    0.000    0.000    0.000    0.000    0.000    0.000 
#    0.000    0.000    0.000    0.000    0.000    0.000 
#
# Total GULP energy -234482.056858 kJ/mol
# GULP energy per Si atom -5582.906116 kJ/mol
# Density = 1.942018 g / cm^3
# Si number density = 19.464478 Si / 1000 Ang^3
#
#
#
# Elastic Constant Matrix: (Units=GPa)
#
#
# Indices 1 2 3 4 5 6 
#
# 1 66.6095 5.6221 17.2588 0.0000 0.0000 0.0000
# 2 5.6221 66.6095 17.2588 0.0000 0.0000 0.0000
# 3 17.2588 17.2588 100.4190 0.0000 0.0000 0.0000
# 4 0.0000 0.0000 0.0000 28.8693 0.0000 0.0000
# 5 0.0000 0.0000 0.0000 0.0000 28.8693 0.0000
# 6 0.0000 0.0000 0.0000 0.0000 0.0000 25.9506
#
#
#
# Elastic Compliance Matrix: (Units=1/GPa)
#
#
# Indices 1 2 3 4 5 6 
#
# 1 0.015740 -0.000657 -0.002592 0.000000 0.000000 0.000000
# 2 -0.000657 0.015740 -0.002592 0.000000 0.000000 0.000000
# 3 -0.002592 -0.002592 0.010849 0.000000 0.000000 0.000000
# 4 0.000000 0.000000 0.000000 0.034639 0.000000 0.000000
# 5 0.000000 0.000000 0.000000 0.000000 0.034639 0.000000
# 6 0.000000 0.000000 0.000000 0.000000 0.000000 0.038535
#
#
# Mechanical properties :
#
#
# Convention : Reuss Voigt Hill
#
# Bulk Modulus (GPa) = 32.63024 34.87971 33.75498
# Shear Modulus (GPa) = 29.06298 29.63773 29.35035
#
# Velocity S-wave (km/s) = 3.86829 3.90636 3.88737
# Velocity P-wave (km/s) = 6.06234 6.18908 6.12604
#
# Compressibility (1/GPa) = 0.03064642
#
# Stress axis : x y z
#
# Youngs Moduli (GPa) = 63.53246 63.53246 92.17149
#
# Poissons Ratio (x) = 0.04173 0.23894
# Poissons Ratio (y) = 0.04173 0.23894
# Poissons Ratio (z) = 0.16470 0.16470
#
# Static dielectric constant tensor:
#      x y z
#    x 1.680040 0.000000 0.000000 
#    y 0.000000 1.680040 0.000000 
#    z 0.000000 0.000000 1.667790 
# 
# From -- ./inp_files/3700.got.cif
#   From: 2010.05.17/outbox.cif.g08.bks.cpg/sg114_2_cif.got.tgz:3700.got - 2010.05.20 11:04:54.
