data_PCOD9556864
_publ_section_title
;
Structure prediction by ZEFSAII (Michael W. Deem and Ramdas Pophale) SiO2 
 PCOD9556864
Probable space group: P -4 M 2
;
_chemical_formula_sum "Si O2"
_cell_formula_units_Z 48
_cell_length_a 9.120845
_cell_length_b 9.120845
_cell_length_c 31.925568
_cell_angle_alpha 90.000000
_cell_angle_beta 90.000000
_cell_angle_gamma 90.000000
_cell_volume 2655.882048
_symmetry_space_group_name_H-M "P -4 M 2"
_symmetry_group_IT_number 115
_symmetry_cell_setting 'tetragonal'
loop_
_space_group_symop_operation_xyz
x,y,z
y,-x,-z
-x,-y,z
-y,x,-z
y,x,-z
-y,-x,-z
-x,y,z
x,-y,z
loop_
_atom_site_type_symbol
_atom_site_label
_atom_site_fract_x
_atom_site_fract_y
_atom_site_fract_z
Si Si1 0.674107 0.674304 0.284586
Si Si2 0.175472 0.673712 0.881202
Si Si3 0.669939 0.321071 0.546082
Si Si4 0.827757 0.175382 0.206189
Si Si5 0.831910 0.321322 0.629894
Si Si6 0.674707 0.825706 0.960204
O O1 0.500000 0.706070 0.279603
O O2 0.692459 0.500000 0.285435
O O3 0.760157 0.744204 0.246061
O O4 0.722650 0.742199 0.328961
O O5 0.204456 0.500000 0.881563
O O6 0.215537 0.742797 0.836361
O O7 0.260488 0.753395 0.918386
O O8 0.000000 0.694757 0.887053
O O9 0.724829 0.275172 0.500000
O O10 0.500000 0.277682 0.551049
O O11 0.672066 0.500000 0.545219
O O12 0.761203 0.271689 0.586183
O O13 0.000000 0.207786 0.201683
O O14 0.811225 0.000000 0.211899
O O15 0.828662 0.500000 0.628972
O O16 0.000000 0.275007 0.633433
O O17 0.500000 0.802605 0.962545
O O18 0.702387 0.000000 0.960093
O O19 0.752071 0.752071 0.000000
#
# Coordination Sequence:
#
# PCOD9556864 Si02
#       6
#     8   8   8   8   8   8
#     4  10  20  33  51  76 105 137 174 217 264 312
#     4  10  21  38  61  87 113 143 181 223 267 317
#     4   8  13  22  38  61  89 121 158 201 249 302
#     4  10  21  37  57  80 107 141 179 218 264 318
#     4   9  16  26  43  68  97 128 164 208 256 306
#     4  11  24  40  59  85 116 150 188 228 271 319
#
# _framework density 18.073091000000002
#
# number of rings (size 3 to 8) (size 9 to 14) (size 15 to 20)
#    0.000    2.333    0.000    3.500    0.000    9.000 
#    0.000    0.000    0.000    1.000    0.000    2.333 
#    0.000    0.000    0.000    0.000    0.000    0.000 
#
# Total GULP energy -267925.926999 kJ/mol
# GULP energy per Si atom -5581.790146 kJ/mol
# Density = 1.803196 g / cm^3
# Si number density = 18.073091 Si / 1000 Ang^3
#
#
#
# Elastic Constant Matrix: (Units=GPa)
#
#
# Indices 1 2 3 4 5 6 
#
# 1 73.7412 64.6118 85.8477 0.0000 0.0000 0.0000
# 2 64.6118 73.7413 85.8478 0.0000 0.0000 0.0000
# 3 85.8477 85.8478 205.3387 0.0000 0.0000 0.0000
# 4 0.0000 0.0000 0.0000 79.4266 0.0000 0.0000
# 5 0.0000 0.0000 0.0000 0.0000 79.4278 0.0000
# 6 0.0000 0.0000 0.0000 0.0000 0.0000 21.8169
#
#
#
# Elastic Compliance Matrix: (Units=1/GPa)
#
#
# Indices 1 2 3 4 5 6 
#
# 1 0.062279 -0.047257 -0.006280 0.000000 0.000000 0.000000
# 2 -0.047257 0.062279 -0.006280 0.000000 0.000000 0.000000
# 3 -0.006280 -0.006280 0.010121 0.000000 0.000000 0.000000
# 4 0.000000 0.000000 0.000000 0.012590 0.000000 0.000000
# 5 0.000000 0.000000 0.000000 0.000000 0.012590 0.000000
# 6 0.000000 0.000000 0.000000 0.000000 0.000000 0.045836
#
#
# Mechanical properties :
#
#
# Convention : Reuss Voigt Hill
#
# Bulk Modulus (GPa) = 66.47344 91.71509 79.09427
# Shear Modulus (GPa) = 15.13571 43.90182 29.51876
#
# Velocity S-wave (km/s) = 2.89705 4.93396 4.04579
# Velocity P-wave (km/s) = 6.93186 9.12774 8.10451
#
# Compressibility (1/GPa) = 0.01504360
#
# Stress axis : x y z
#
# Youngs Moduli (GPa) = 16.05683 16.05688 98.80195
#
# Poissons Ratio (x) = 0.75880 0.62050
# Poissons Ratio (y) = 0.75880 0.62050
# Poissons Ratio (z) = 0.10084 0.10084
#
# Static dielectric constant tensor:
#      x y z
#    x 1.605170 0.000000 0.000000 
#    y 0.000000 1.605170 0.000000 
#    z 0.000000 0.000000 1.598160 
# 
# From -- ./inp_files/6053.got.cif
#   From: 2010.05.17/outbox.cif.g08.bks.cpg/sg115_4_cif.got.tgz:6053.got - 2010.05.20 11:07:42.
