data_PCOD9556136
_publ_section_title
;
Structure prediction by ZEFSAII (Michael W. Deem and Ramdas Pophale) SiO2 
 PCOD9556136
Probable space group: P -4 21 C
;
_chemical_formula_sum "Si O2"
_cell_formula_units_Z 40
_cell_length_a 8.746022
_cell_length_b 8.746022
_cell_length_c 25.078113
_cell_angle_alpha 90.000000
_cell_angle_beta 90.000000
_cell_angle_gamma 90.000000
_cell_volume 1918.297611
_symmetry_space_group_name_H-M "P -4 21 C"
_symmetry_group_IT_number 114
_symmetry_cell_setting 'tetragonal'
loop_
_space_group_symop_operation_xyz
x,y,z
y,-x,-z
-x,-y,z
-y,x,-z
1/2+x,1/2-y,1/2-z
1/2-x,1/2+y,1/2-z
1/2-y,1/2-x,1/2+z
1/2+y,1/2+x,1/2+z
loop_
_atom_site_type_symbol
_atom_site_label
_atom_site_fract_x
_atom_site_fract_y
_atom_site_fract_z
Si Si1 0.981412 0.183530 0.754792
Si Si2 0.669031 0.197085 0.941171
Si Si3 0.829090 0.691101 0.177235
Si Si4 0.681965 0.830044 0.955121
Si Si5 0.642334 0.381884 0.643274
O O1 0.814934 0.215670 0.778267
O O2 0.033920 0.276976 0.703643
O O3 0.085478 0.215850 0.807022
O O4 0.000000 0.000000 0.744764
O O5 0.718782 0.240593 0.881330
O O6 0.488230 0.227657 0.943398
O O7 0.684452 0.014770 0.952013
O O8 0.765649 0.273870 0.987579
O O9 0.007227 0.722360 0.164570
O O10 0.801285 0.790211 0.908000
O O11 0.500000 0.500000 0.630632
#
# Coordination Sequence:
#
# PCOD9556136 Si02
#       5
#     8   8   8   8   8
#     4   9  19  36  57  88 116 150 195 242 298 366
#     4  10  23  39  61  89 121 155 211 248 312 365
#     4   9  19  37  57  86 119 152 198 248 294 368
#     4  10  22  39  61  90 117 159 200 262 299 376
#     4   8  18  36  60  89 114 153 204 244 300 362
#
# _framework density 20.851823
#
# number of rings (size 3 to 8) (size 9 to 14) (size 15 to 20)
#    0.000    3.200    0.000    0.000   11.200    0.400 
#    7.200    0.000    0.000    0.000    0.000    0.000 
#    0.000    0.000    0.000    0.000    0.000    0.000 
#
# Total GULP energy -222907.823941 kJ/mol
# GULP energy per Si atom -5572.695599 kJ/mol
# Density = 2.080436 g / cm^3
# Si number density = 20.851823 Si / 1000 Ang^3
#
#
#
# Elastic Constant Matrix: (Units=GPa)
#
#
# Indices 1 2 3 4 5 6 
#
# 1 36.3099 41.3087 48.4317 0.0000 0.0000 0.0000
# 2 41.3087 36.3099 48.4317 0.0000 0.0000 0.0000
# 3 48.4317 48.4317 142.7937 0.0000 0.0000 0.0000
# 4 0.0000 0.0000 0.0000 23.2901 0.0000 0.0000
# 5 0.0000 0.0000 0.0000 0.0000 23.2901 0.0000
# 6 0.0000 0.0000 0.0000 0.0000 0.0000 23.0595
#
#
#
# Elastic Compliance Matrix: (Units=1/GPa)
#
#
# Indices 1 2 3 4 5 6 
#
# 1 -0.088855 0.111193 -0.007577 0.000000 0.000000 0.000000
# 2 0.111193 -0.088855 -0.007577 0.000000 0.000000 0.000000
# 3 -0.007577 -0.007577 0.012143 0.000000 0.000000 0.000000
# 4 0.000000 0.000000 0.000000 0.042937 0.000000 0.000000
# 5 0.000000 0.000000 0.000000 0.000000 0.042937 0.000000
# 6 0.000000 0.000000 0.000000 0.000000 0.000000 0.043366
#
#
# Mechanical properties :
#
#
# Convention : Reuss Voigt Hill
#
# Bulk Modulus (GPa) = 37.71666 54.63975 46.17821
# Shear Modulus (GPa) = -22.77189 19.07737 -1.84726
#
# Velocity S-wave (km/s) = -3.30825 3.02802 -0.94224
# Velocity P-wave (km/s) = 1.88003 6.20370 4.58369
#
# Compressibility (1/GPa) = 0.02651348
#
# Stress axis : x y z
#
# Youngs Moduli (GPa) = -11.25435 -11.25435 82.35383
#
# Poissons Ratio (x) = 1.25141 0.62397
# Poissons Ratio (y) = 1.25141 0.62397
# Poissons Ratio (z) = -0.08527 -0.08527
#
# Static dielectric constant tensor:
#      x y z
#    x 1.791350 0.000000 0.000000 
#    y 0.000000 1.791350 0.000000 
#    z 0.000000 0.000000 1.752620 
# 
# From -- ./inp_files/3653.got.cif
#   From: 2010.05.17/outbox.cif.g08.bks.cpg/sg114_2_cif.got.tgz:3653.got - 2010.05.20 11:04:54.
