data_PCOD9556838
_publ_section_title
;
Structure prediction by ZEFSAII (Michael W. Deem and Ramdas Pophale) SiO2 
 PCOD9556838
Probable space group: P -4 M 2
;
_chemical_formula_sum "Si O2"
_cell_formula_units_Z 48
_cell_length_a 9.307850
_cell_length_b 9.307850
_cell_length_c 32.177378
_cell_angle_alpha 90.000000
_cell_angle_beta 90.000000
_cell_angle_gamma 90.000000
_cell_volume 2787.721625
_symmetry_space_group_name_H-M "P -4 M 2"
_symmetry_group_IT_number 115
_symmetry_cell_setting 'tetragonal'
loop_
_space_group_symop_operation_xyz
x,y,z
y,-x,-z
-x,-y,z
-y,x,-z
y,x,-z
-y,-x,-z
-x,y,z
x,-y,z
loop_
_atom_site_type_symbol
_atom_site_label
_atom_site_fract_x
_atom_site_fract_y
_atom_site_fract_z
Si Si1 0.673159 0.831246 0.537011
Si Si2 0.168693 0.171964 0.288195
Si Si3 0.828031 0.329943 0.128917
Si Si4 0.669998 0.828045 0.203983
Si Si5 0.834342 0.825204 0.954212
Si Si6 0.334012 0.174853 0.629101
O O1 0.743597 0.743597 0.500000
O O2 0.500000 0.820585 0.535702
O O3 0.718278 0.780152 0.583294
O O4 0.710149 0.000000 0.532884
O O5 0.258639 0.215286 0.247802
O O6 0.219915 0.243795 0.330955
O O7 0.000000 0.208977 0.281958
O O8 0.177898 0.000000 0.292345
O O9 0.802755 0.500000 0.129152
O O10 0.746253 0.253294 0.166367
O O11 0.782610 0.261239 0.084868
O O12 0.000000 0.305731 0.133440
O O13 0.500000 0.800925 0.204370
O O14 0.692494 0.000000 0.199179
O O15 0.000000 0.778648 0.948326
O O16 0.835811 0.000000 0.955655
O O17 0.780719 0.780719 0.000000
O O18 0.500000 0.218404 0.633969
O O19 0.331491 0.000000 0.628175
#
# Coordination Sequence:
#
# PCOD9556838 Si02
#       6
#     8   8   8   8   8   8
#     4   9  18  32  49  71  99 130 164 201 241 286
#     4   9  17  30  50  74  96 120 155 199 244 290
#     4  10  20  33  51  76 103 131 165 204 244 287
#     4  10  21  36  52  71  98 132 166 200 243 293
#     4   8  14  27  49  74  98 127 164 204 243 283
#     4   8  15  29  48  69  94 123 156 196 240 286
#
# _framework density 17.218363
#
# number of rings (size 3 to 8) (size 9 to 14) (size 15 to 20)
#    0.000    3.000    0.000    2.500    0.000    3.667 
#    0.000    5.000    0.000    6.000    0.000    0.000 
#    0.000    0.000    0.000    0.000    0.000    0.000 
#
# Total GULP energy -267472.779386 kJ/mol
# GULP energy per Si atom -5572.349571 kJ/mol
# Density = 1.717917 g / cm^3
# Si number density = 17.218363 Si / 1000 Ang^3
#
#
#
# Elastic Constant Matrix: (Units=GPa)
#
#
# Indices 1 2 3 4 5 6 
#
# 1 41.9746 40.1554 72.6289 0.0000 0.0000 0.0000
# 2 40.1554 41.9746 72.6289 0.0000 0.0000 0.0000
# 3 72.6289 72.6289 218.6967 0.0000 0.0000 0.0000
# 4 0.0000 0.0000 0.0000 -18.2662 0.0000 0.0000
# 5 0.0000 0.0000 0.0000 0.0000 -18.2662 0.0000
# 6 0.0000 0.0000 0.0000 0.0000 0.0000 18.0695
#
#
#
# Elastic Compliance Matrix: (Units=1/GPa)
#
#
# Indices 1 2 3 4 5 6 
#
# 1 0.289591 -0.260084 -0.009799 0.000000 0.000000 0.000000
# 2 -0.260084 0.289591 -0.009799 0.000000 0.000000 0.000000
# 3 -0.009799 -0.009799 0.011081 0.000000 0.000000 0.000000
# 4 0.000000 0.000000 0.000000 -0.054746 0.000000 0.000000
# 5 0.000000 0.000000 0.000000 0.000000 -0.054746 0.000000
# 6 0.000000 0.000000 0.000000 0.000000 0.000000 0.055342
#
#
# Mechanical properties :
#
#
# Convention : Reuss Voigt Hill
#
# Bulk Modulus (GPa) = 32.36418 74.83026 53.59722
# Shear Modulus (GPa) = 4.52171 4.12293 4.32232
#
# Velocity S-wave (km/s) = 1.62228 1.54909 1.58611
# Velocity P-wave (km/s) = 4.72718 6.83765 5.87791
#
# Compressibility (1/GPa) = 0.03089835
#
# Stress axis : x y z
#
# Youngs Moduli (GPa) = 3.45315 3.45315 90.24295
#
# Poissons Ratio (x) = 0.89811 0.88432
# Poissons Ratio (y) = 0.89811 0.88432
# Poissons Ratio (z) = 0.03384 0.03384
#
# Static dielectric constant tensor:
#      x y z
#    x 1.571220 0.000000 0.000000 
#    y 0.000000 1.571220 0.000000 
#    z 0.000000 0.000000 1.584450 
# 
# From -- ./inp_files/6086.got.cif
#   From: 2010.05.17/outbox.cif.g08.bks.cpg/sg115_4_cif.got.tgz:6086.got - 2010.05.20 11:07:42.
