data_PCOD9556371
_publ_section_title
;
Structure prediction by ZEFSAII (Michael W. Deem and Ramdas Pophale) SiO2 
 PCOD9556371
Probable space group: P -4 21 C
;
_chemical_formula_sum "Si O2"
_cell_formula_units_Z 26
_cell_length_a 7.543235
_cell_length_b 7.543235
_cell_length_c 21.893668
_cell_angle_alpha 90.000000
_cell_angle_beta 90.000000
_cell_angle_gamma 90.000000
_cell_volume 1245.758341
_symmetry_space_group_name_H-M "P -4 21 C"
_symmetry_group_IT_number 114
_symmetry_cell_setting 'tetragonal'
loop_
_space_group_symop_operation_xyz
x,y,z
y,-x,-z
-x,-y,z
-y,x,-z
1/2+x,1/2-y,1/2-z
1/2-x,1/2+y,1/2-z
1/2-y,1/2-x,1/2+z
1/2+y,1/2+x,1/2+z
loop_
_atom_site_type_symbol
_atom_site_label
_atom_site_fract_x
_atom_site_fract_y
_atom_site_fract_z
Si Si1 0.688301 0.947592 0.090384
Si Si2 0.255944 0.847156 0.319661
Si Si3 0.000000 0.000000 0.000000
Si Si4 0.670882 0.753427 0.319488
O O1 0.656384 0.775752 0.132296
O O2 0.842158 0.922805 0.041225
O O3 0.500000 0.000000 0.062148
O O4 0.757955 0.102558 0.135698
O O5 0.461579 0.788670 0.327006
O O6 0.201703 0.805020 0.250331
O O7 0.238569 0.056192 0.329991
#
# Coordination Sequence:
#
# PCOD9556371 Si02
#       4
#     8   8   2   8
#     4  12  26  46  72 100 134 188 234 281 346 412
#     4  11  22  38  66 104 142 178 223 285 353 410
#     4  12  28  52  68  96 148 188 236 282 336 420
#     4  11  22  38  66 104 142 178 223 285 353 410
#
# _framework density 20.870823000000001
#
# number of rings (size 3 to 8) (size 9 to 14) (size 15 to 20)
#    0.000    0.615    6.154    1.846    0.000    6.154 
#    0.000    0.000    0.000    0.000    0.000    0.000 
#    0.000    0.000    0.000    0.000    0.000    0.000 
#
# Total GULP energy -145562.562459 kJ/mol
# GULP energy per Si atom -5598.560095 kJ/mol
# Density = 2.082332 g / cm^3
# Si number density = 20.870823 Si / 1000 Ang^3
#
#
#
# Elastic Constant Matrix: (Units=GPa)
#
#
# Indices 1 2 3 4 5 6 
#
# 1 79.4830 -16.1328 10.0259 0.0000 0.0000 0.0000
# 2 -16.1328 79.4830 10.0259 0.0000 0.0000 0.0000
# 3 10.0259 10.0259 63.3671 0.0000 0.0000 0.0000
# 4 0.0000 0.0000 0.0000 4.3267 0.0000 0.0000
# 5 0.0000 0.0000 0.0000 0.0000 4.3267 0.0000
# 6 0.0000 0.0000 0.0000 0.0000 0.0000 28.5163
#
#
#
# Elastic Compliance Matrix: (Units=1/GPa)
#
#
# Indices 1 2 3 4 5 6 
#
# 1 0.013538 0.003079 -0.002629 0.000000 0.000000 0.000000
# 2 0.003079 0.013538 -0.002629 0.000000 0.000000 0.000000
# 3 -0.002629 -0.002629 0.016613 0.000000 0.000000 0.000000
# 4 0.000000 0.000000 0.000000 0.231124 0.000000 0.000000
# 5 0.000000 0.000000 0.000000 0.000000 0.231124 0.000000
# 6 0.000000 0.000000 0.000000 0.000000 0.000000 0.035068
#
#
# Mechanical properties :
#
#
# Convention : Reuss Voigt Hill
#
# Bulk Modulus (GPa) = 25.42512 25.57455 25.49984
# Shear Modulus (GPa) = 8.95298 21.99487 15.47392
#
# Velocity S-wave (km/s) = 2.07341 3.24984 2.72585
# Velocity P-wave (km/s) = 4.23564 5.13442 4.70653
#
# Compressibility (1/GPa) = 0.03933119
#
# Stress axis : x y z
#
# Youngs Moduli (GPa) = 73.86617 73.86617 60.19373
#
# Poissons Ratio (x) = -0.22747 0.15826
# Poissons Ratio (y) = -0.22747 0.15826
# Poissons Ratio (z) = 0.19421 0.19421
#
# Static dielectric constant tensor:
#      x y z
#    x 1.755910 0.000000 0.000000 
#    y 0.000000 1.755910 0.000000 
#    z 0.000000 0.000000 1.688940 
# 
# From -- ./inp_files/2376.got.cif
#   From: 2010.05.17/outbox.cif.g08.bks.cpg/sg114_2_cif.got.tgz:2376.got - 2010.05.20 11:04:54.
