data_PCOD9556565
_publ_section_title
;
Structure prediction by ZEFSAII (Michael W. Deem and Ramdas Pophale) SiO2 
 PCOD9556565
Probable space group: P -4 M 2
;
_chemical_formula_sum "Si O2"
_cell_formula_units_Z 29
_cell_length_a 11.697544
_cell_length_b 11.697544
_cell_length_c 12.852231
_cell_angle_alpha 90.000000
_cell_angle_beta 90.000000
_cell_angle_gamma 90.000000
_cell_volume 1758.603356
_symmetry_space_group_name_H-M "P -4 M 2"
_symmetry_group_IT_number 115
_symmetry_cell_setting 'tetragonal'
loop_
_space_group_symop_operation_xyz
x,y,z
y,-x,-z
-x,-y,z
-y,x,-z
y,x,-z
-y,-x,-z
-x,y,z
x,-y,z
loop_
_atom_site_type_symbol
_atom_site_label
_atom_site_fract_x
_atom_site_fract_y
_atom_site_fract_z
Si Si1 0.500000 0.500000 0.000000
Si Si2 0.242185 0.500000 0.040418
Si Si3 0.864132 0.747139 0.716151
Si Si4 0.864443 0.739946 0.095230
Si Si5 0.136361 0.500000 0.811211
Si Si6 0.135278 0.135278 0.500000
O O1 0.378252 0.500000 0.058129
O O2 0.187165 0.386420 0.086596
O O3 0.210630 0.500000 0.916853
O O4 0.797827 0.824536 0.798428
O O5 0.841282 0.614979 0.745682
O O6 0.836838 0.786932 0.599442
O O7 0.000000 0.765336 0.730037
O O8 0.000000 0.736122 0.085976
O O9 0.811734 0.811734 0.000000
O O10 0.000000 0.500000 0.839714
O O11 0.000000 0.150348 0.474586
#
# Coordination Sequence:
#
# PCOD9556565 Si02
#       6
#     1   4   8   8   4   4
#     4  12  20  36  60  72 100 154 196 224 260 340
#     4  12  22  38  55  81 114 149 192 236 284 336
#     4  10  20  35  56  81 110 148 192 233 286 351
#     4  12  23  35  54  82 116 148 184 232 286 343
#     4  10  18  34  55  78 111 148 186 233 284 340
#     4   9  18  34  54  76 106 143 188 242 290 339
#
# _framework density 16.490358000000001
#
# number of rings (size 3 to 8) (size 9 to 14) (size 15 to 20)
#    0.000    1.241    4.138    2.897    0.000    3.034 
#    0.000    1.379    0.000    3.310    0.000    0.000 
#    0.000    0.000    0.000    0.000    0.000    0.000 
#
# Total GULP energy -161939.082395 kJ/mol
# GULP energy per Si atom -5584.106289 kJ/mol
# Density = 1.645282 g / cm^3
# Si number density = 16.490358 Si / 1000 Ang^3
#
#
#
# Elastic Constant Matrix: (Units=GPa)
#
#
# Indices 1 2 3 4 5 6 
#
# 1 109.9342 56.2688 49.4926 0.0000 0.0000 0.0000
# 2 56.2688 109.9342 49.4926 0.0000 0.0000 0.0000
# 3 49.4926 49.4926 113.9872 0.0000 0.0000 0.0000
# 4 0.0000 0.0000 0.0000 -400.2715 0.0000 0.0000
# 5 0.0000 0.0000 0.0000 0.0000 -400.2715 0.0000
# 6 0.0000 0.0000 0.0000 0.0000 0.0000 14.1352
#
#
#
# Elastic Compliance Matrix: (Units=1/GPa)
#
#
# Indices 1 2 3 4 5 6 
#
# 1 0.013375 -0.005259 -0.003524 0.000000 0.000000 0.000000
# 2 -0.005259 0.013375 -0.003524 0.000000 0.000000 0.000000
# 3 -0.003524 -0.003524 0.011833 0.000000 0.000000 0.000000
# 4 0.000000 0.000000 0.000000 -0.002498 0.000000 0.000000
# 5 0.000000 0.000000 0.000000 0.000000 -0.002498 0.000000
# 6 0.000000 0.000000 0.000000 0.000000 0.000000 0.070745
#
#
# Mechanical properties :
#
#
# Convention : Reuss Voigt Hill
#
# Bulk Modulus (GPa) = 71.58755 71.59594 71.59175
# Shear Modulus (GPa) = 37.42509 -145.37480 -53.97485
#
# Velocity S-wave (km/s) = 4.76911 -9.39941 -5.72732
# Velocity P-wave (km/s) = 8.59255 8.61901 0.47721
#
# Compressibility (1/GPa) = 0.01396891
#
# Stress axis : x y z
#
# Youngs Moduli (GPa) = 74.76842 74.76842 84.51097
#
# Poissons Ratio (x) = 0.39323 0.29778
# Poissons Ratio (y) = 0.39323 0.29778
# Poissons Ratio (z) = 0.26345 0.26345
#
# Static dielectric constant tensor:
#      x y z
#    x 1.551820 0.000000 0.000000 
#    y 0.000000 1.551820 0.000000 
#    z 0.000000 0.000000 1.528150 
# 
# From -- ./inp_files/2470.got.cif
#   From: 2010.05.17/outbox.cif.g08.bks.cpg/sg115_2_cif.got.tgz:2470.got - 2010.05.20 11:07:42.
