data_PCOD9556213
_publ_section_title
;
Structure prediction by ZEFSAII (Michael W. Deem and Ramdas Pophale) SiO2 
 PCOD9556213
Probable space group: P -4 21 C
;
_chemical_formula_sum "Si O2"
_cell_formula_units_Z 48
_cell_length_a 10.645549
_cell_length_b 10.645549
_cell_length_c 16.825957
_cell_angle_alpha 90.000000
_cell_angle_beta 90.000000
_cell_angle_gamma 90.000000
_cell_volume 1906.847234
_symmetry_space_group_name_H-M "P -4 21 C"
_symmetry_group_IT_number 114
_symmetry_cell_setting 'tetragonal'
loop_
_space_group_symop_operation_xyz
x,y,z
y,-x,-z
-x,-y,z
-y,x,-z
1/2+x,1/2-y,1/2-z
1/2-x,1/2+y,1/2-z
1/2-y,1/2-x,1/2+z
1/2+y,1/2+x,1/2+z
loop_
_atom_site_type_symbol
_atom_site_label
_atom_site_fract_x
_atom_site_fract_y
_atom_site_fract_z
Si Si1 0.983319 0.210335 0.211935
Si Si2 0.179438 0.067996 0.966847
Si Si3 0.104203 0.606914 0.916781
Si Si4 0.248478 0.627848 0.258497
Si Si5 0.534539 0.305521 0.007340
Si Si6 0.627181 0.060408 0.367011
O O1 0.099537 0.132276 0.249148
O O2 0.070186 0.330346 0.187425
O O3 0.850796 0.252978 0.251185
O O4 0.936971 0.161008 0.126870
O O5 0.313118 0.106918 0.001902
O O6 0.072622 0.154889 0.003147
O O7 0.085802 0.708190 0.847163
O O8 0.000000 0.500000 0.910793
O O9 0.230385 0.523555 0.919040
O O10 0.197851 0.534734 0.191072
O O11 0.594914 0.214580 0.941312
O O12 0.414657 0.372596 0.967322
O O13 0.500000 0.000000 0.400270
#
# Coordination Sequence:
#
# PCOD9556213 Si02
#       6
#     8   8   8   8   8   8
#     4  11  23  46  70 103 143 194 239 310 364 445
#     4  11  25  46  72 103 143 185 245 304 367 432
#     4  12  24  41  73 105 136 187 243 293 355 451
#     4  11  25  43  70 103 143 188 245 294 377 441
#     4  11  25  42  66 101 137 179 232 292 358 429
#     4  10  22  46  66  94 139 186 224 289 365 432
#
# _framework density 25.172440999999999
#
# number of rings (size 3 to 8) (size 9 to 14) (size 15 to 20)
#    0.000    1.000    1.667    6.000    4.667    2.667 
#    0.000    0.000    0.000    0.000    0.000    0.000 
#    0.000    0.000    0.000    0.000    0.000    0.000 
#
# Total GULP energy -268288.504247 kJ/mol
# GULP energy per Si atom -5589.343838 kJ/mol
# Density = 2.511515 g / cm^3
# Si number density = 25.172441 Si / 1000 Ang^3
#
#
#
# Elastic Constant Matrix: (Units=GPa)
#
#
# Indices 1 2 3 4 5 6 
#
# 1 70.4525 17.4777 -0.0680 0.0000 0.0000 0.0000
# 2 17.4777 70.4525 -0.0680 0.0000 0.0000 0.0000
# 3 -0.0680 -0.0680 62.6341 0.0000 0.0000 0.0000
# 4 0.0000 0.0000 0.0000 26.2425 0.0000 0.0000
# 5 0.0000 0.0000 0.0000 0.0000 26.2425 0.0000
# 6 0.0000 0.0000 0.0000 0.0000 0.0000 41.0032
#
#
#
# Elastic Compliance Matrix: (Units=1/GPa)
#
#
# Indices 1 2 3 4 5 6 
#
# 1 0.015125 -0.003752 0.000012 0.000000 0.000000 0.000000
# 2 -0.003752 0.015125 0.000012 0.000000 0.000000 0.000000
# 3 0.000012 0.000012 0.015966 0.000000 0.000000 0.000000
# 4 0.000000 0.000000 0.000000 0.038106 0.000000 0.000000
# 5 0.000000 0.000000 0.000000 0.000000 0.038106 0.000000
# 6 0.000000 0.000000 0.000000 0.000000 0.000000 0.024388
#
#
# Mechanical properties :
#
#
# Convention : Reuss Voigt Hill
#
# Bulk Modulus (GPa) = 25.79946 26.46917 26.13431
# Shear Modulus (GPa) = 29.90593 31.11080 30.50837
#
# Velocity S-wave (km/s) = 3.45054 3.51936 3.48512
# Velocity P-wave (km/s) = 5.11334 5.20120 5.15746
#
# Compressibility (1/GPa) = 0.03876051
#
# Stress axis : x y z
#
# Youngs Moduli (GPa) = 66.11670 66.11670 62.63396
#
# Poissons Ratio (x) = 0.24808 -0.00077
# Poissons Ratio (y) = 0.24808 -0.00077
# Poissons Ratio (z) = -0.00082 -0.00082
#
# Static dielectric constant tensor:
#      x y z
#    x 2.096140 0.000000 0.000000 
#    y 0.000000 2.096140 0.000000 
#    z 0.000000 0.000000 1.975780 
# 
# From -- ./inp_files/2614.got.cif
#   From: 2010.05.17/outbox.cif.g08.bks.cpg/sg114_2_cif.got.tgz:2614.got - 2010.05.20 11:04:54.
