data_PCOD9556851
_publ_section_title
;
Structure prediction by ZEFSAII (Michael W. Deem and Ramdas Pophale) SiO2 
 PCOD9556851
Probable space group: P -4 M 2
;
_chemical_formula_sum "Si O2"
_cell_formula_units_Z 48
_cell_length_a 9.084894
_cell_length_b 9.084894
_cell_length_c 32.098980
_cell_angle_alpha 90.000000
_cell_angle_beta 90.000000
_cell_angle_gamma 90.000000
_cell_volume 2649.298912
_symmetry_space_group_name_H-M "P -4 M 2"
_symmetry_group_IT_number 115
_symmetry_cell_setting 'tetragonal'
loop_
_space_group_symop_operation_xyz
x,y,z
y,-x,-z
-x,-y,z
-y,x,-z
y,x,-z
-y,-x,-z
-x,y,z
x,-y,z
loop_
_atom_site_type_symbol
_atom_site_label
_atom_site_fract_x
_atom_site_fract_y
_atom_site_fract_z
Si Si1 0.326045 0.176496 0.675657
Si Si2 0.326293 0.824569 0.245341
Si Si3 0.674060 0.323915 0.079063
Si Si4 0.825303 0.174698 0.000000
Si Si5 0.171732 0.820629 0.590475
Si Si6 0.173549 0.676339 0.166312
Si Si7 0.176625 0.823376 0.500000
O O1 0.500000 0.203021 0.677771
O O2 0.245007 0.256818 0.713264
O O3 0.262521 0.224683 0.630867
O O4 0.301921 0.000000 0.679419
O O5 0.500000 0.792105 0.243490
O O6 0.247257 0.757148 0.205056
O O7 0.306398 0.000000 0.246093
O O8 0.500000 0.294391 0.080633
O O9 0.694145 0.500000 0.073297
O O10 0.749188 0.283022 0.122829
O O11 0.747874 0.240641 0.040745
O O12 0.000000 0.200641 0.002426
O O13 0.230552 0.769615 0.545140
O O14 0.000000 0.778129 0.595061
O O15 0.174455 0.000000 0.589215
O O16 0.190947 0.500000 0.171794
O O17 0.000000 0.708480 0.164356
O O18 0.000000 0.800757 0.501381
#
# Coordination Sequence:
#
# PCOD9556851 Si02
#       7
#     8   8   8   4   8   8   4
#     4  10  20  33  51  76 104 135 173 215 260 312
#     4  11  24  39  55  77 105 138 177 219 264 315
#     4  10  21  38  61  87 114 147 186 225 268 319
#     4  11  24  39  56  82 116 153 192 233 276 318
#     4   8  13  23  42  68  97 129 167 212 259 305
#     4  10  21  38  61  87 113 142 177 217 264 319
#     4   7  10  18  36  64  94 125 164 208 254 303
#
# _framework density 18.118002000000001
#
# number of rings (size 3 to 8) (size 9 to 14) (size 15 to 20)
#    0.000    2.333    0.000    4.000    0.000    8.667 
#    0.000    0.000    0.000    1.000    0.000    4.667 
#    0.000    0.000    0.000    0.000    0.000    0.000 
#
# Total GULP energy -267868.975130 kJ/mol
# GULP energy per Si atom -5580.603649 kJ/mol
# Density = 1.807676 g / cm^3
# Si number density = 18.118002 Si / 1000 Ang^3
#
#
#
# Elastic Constant Matrix: (Units=GPa)
#
#
# Indices 1 2 3 4 5 6 
#
# 1 70.6871 69.4627 92.2847 0.0000 0.0000 0.0000
# 2 69.4627 70.6868 92.2846 0.0000 0.0000 0.0000
# 3 92.2847 92.2846 228.3389 0.0000 0.0000 0.0000
# 4 0.0000 0.0000 0.0000 70.4685 0.0000 0.0000
# 5 0.0000 0.0000 0.0000 0.0000 70.4637 0.0000
# 6 0.0000 0.0000 0.0000 0.0000 0.0000 23.4662
#
#
#
# Elastic Compliance Matrix: (Units=1/GPa)
#
#
# Indices 1 2 3 4 5 6 
#
# 1 0.416032 -0.400778 -0.006165 0.000000 0.000000 0.000000
# 2 -0.400778 0.416033 -0.006165 0.000000 0.000000 0.000000
# 3 -0.006165 -0.006165 0.009363 0.000000 0.000000 0.000000
# 4 0.000000 0.000000 0.000000 0.014191 0.000000 0.000000
# 5 0.000000 0.000000 0.000000 0.000000 0.014192 0.000000
# 6 0.000000 0.000000 0.000000 0.000000 0.000000 0.042615
#
#
# Mechanical properties :
#
#
# Convention : Reuss Voigt Hill
#
# Bulk Modulus (GPa) = 65.74191 97.53076 81.63633
# Shear Modulus (GPa) = 2.86745 40.59174 21.72959
#
# Velocity S-wave (km/s) = 1.25940 4.73843 3.46690
# Velocity P-wave (km/s) = 6.20314 9.15886 7.82188
#
# Compressibility (1/GPa) = 0.01521100
#
# Stress axis : x y z
#
# Youngs Moduli (GPa) = 2.40366 2.40365 106.80510
#
# Poissons Ratio (x) = 0.96333 0.65848
# Poissons Ratio (y) = 0.96333 0.65846
# Poissons Ratio (z) = 0.01482 0.01482
#
# Static dielectric constant tensor:
#      x y z
#    x 1.603940 0.000000 0.000000 
#    y 0.000000 1.603940 0.000000 
#    z 0.000000 0.000000 1.613570 
# 
# From -- ./inp_files/6154.got.cif
#   From: 2010.05.17/outbox.cif.g08.bks.cpg/sg115_4_cif.got.tgz:6154.got - 2010.05.20 11:07:42.
