data_PCOD9556227
_publ_section_title
;
Structure prediction by ZEFSAII (Michael W. Deem and Ramdas Pophale) SiO2 
 PCOD9556227
Probable space group: P -4 21 C
;
_chemical_formula_sum "Si O2"
_cell_formula_units_Z 28
_cell_length_a 8.775101
_cell_length_b 8.775101
_cell_length_c 17.824048
_cell_angle_alpha 90.000000
_cell_angle_beta 90.000000
_cell_angle_gamma 90.000000
_cell_volume 1372.494430
_symmetry_space_group_name_H-M "P -4 21 C"
_symmetry_group_IT_number 114
_symmetry_cell_setting 'tetragonal'
loop_
_space_group_symop_operation_xyz
x,y,z
y,-x,-z
-x,-y,z
-y,x,-z
1/2+x,1/2-y,1/2-z
1/2-x,1/2+y,1/2-z
1/2-y,1/2-x,1/2+z
1/2+y,1/2+x,1/2+z
loop_
_atom_site_type_symbol
_atom_site_label
_atom_site_fract_x
_atom_site_fract_y
_atom_site_fract_z
Si Si1 0.476302 0.172291 0.590236
Si Si2 0.141904 0.112877 0.805061
Si Si3 0.177100 0.322855 0.660564
Si Si4 0.000000 0.500000 0.555472
O O1 0.605583 0.282811 0.622914
O O2 0.317980 0.244981 0.617131
O O3 0.500000 0.000000 0.621762
O O4 0.480067 0.142600 0.501270
O O5 0.150978 0.222534 0.733779
O O6 0.279114 0.995465 0.815675
O O7 0.000000 0.000000 0.793726
O O8 0.037067 0.351241 0.604632
#
# Coordination Sequence:
#
# PCOD9556227 Si02
#       4
#     8   8   8   4
#     4   9  22  43  61  95 124 170 213 274 333 406
#     4  10  23  40  69  92 124 172 223 277 329 404
#     4  11  23  42  65  96 127 173 220 276 338 396
#     4  10  26  36  68  90 136 166 216 274 342 402
#
# _framework density 20.400808999999999
#
# number of rings (size 3 to 8) (size 9 to 14) (size 15 to 20)
#    0.857    1.143    0.000    1.714   14.000    0.000 
#    5.143    0.000    0.000    0.000    0.000    0.000 
#    0.000    0.000    0.000    0.000    0.000    0.000 
#
# Total GULP energy -156126.111531 kJ/mol
# GULP energy per Si atom -5575.932555 kJ/mol
# Density = 2.035438 g / cm^3
# Si number density = 20.400809 Si / 1000 Ang^3
#
#
#
# Elastic Constant Matrix: (Units=GPa)
#
#
# Indices 1 2 3 4 5 6 
#
# 1 96.1286 38.1417 50.7320 0.0000 0.0000 0.0000
# 2 38.1417 96.1286 50.7320 0.0000 0.0000 0.0000
# 3 50.7320 50.7320 105.8113 0.0000 0.0000 0.0000
# 4 0.0000 0.0000 0.0000 11.7423 0.0000 0.0000
# 5 0.0000 0.0000 0.0000 0.0000 11.7423 0.0000
# 6 0.0000 0.0000 0.0000 0.0000 0.0000 17.4387
#
#
#
# Elastic Compliance Matrix: (Units=1/GPa)
#
#
# Indices 1 2 3 4 5 6 
#
# 1 0.014462 -0.002783 -0.005600 0.000000 0.000000 0.000000
# 2 -0.002783 0.014462 -0.005600 0.000000 0.000000 0.000000
# 3 -0.005600 -0.005600 0.014820 0.000000 0.000000 0.000000
# 4 0.000000 0.000000 0.000000 0.085162 0.000000 0.000000
# 5 0.000000 0.000000 0.000000 0.000000 0.085162 0.000000
# 6 0.000000 0.000000 0.000000 0.000000 0.000000 0.057344
#
#
# Mechanical properties :
#
#
# Convention : Reuss Voigt Hill
#
# Bulk Modulus (GPa) = 63.37107 64.14218 63.75662
# Shear Modulus (GPa) = 16.41295 18.74886 17.58090
#
# Velocity S-wave (km/s) = 2.83949 3.03483 2.93878
# Velocity P-wave (km/s) = 6.47153 6.61737 6.54486
#
# Compressibility (1/GPa) = 0.01578007
#
# Stress axis : x y z
#
# Youngs Moduli (GPa) = 69.14572 69.14572 67.47470
#
# Poissons Ratio (x) = 0.19244 0.37783
# Poissons Ratio (y) = 0.19244 0.37783
# Poissons Ratio (z) = 0.38719 0.38719
#
# Static dielectric constant tensor:
#      x y z
#    x 1.750540 0.000000 0.000000 
#    y 0.000000 1.750540 0.000000 
#    z 0.000000 0.000000 1.755250 
# 
# From -- ./inp_files/2427.got.cif
#   From: 2010.05.17/outbox.cif.g08.bks.cpg/sg114_2_cif.got.tgz:2427.got - 2010.05.20 11:04:54.
