data_PCOD9556009
_publ_section_title
;
Structure prediction by ZEFSAII (Michael W. Deem and Ramdas Pophale) SiO2 
 PCOD9556009
Probable space group: P -4 21 C
;
_chemical_formula_sum "Si O2"
_cell_formula_units_Z 60
_cell_length_a 12.180109
_cell_length_b 12.180109
_cell_length_c 21.344485
_cell_angle_alpha 90.000000
_cell_angle_beta 90.000000
_cell_angle_gamma 90.000000
_cell_volume 3166.562251
_symmetry_space_group_name_H-M "P -4 21 C"
_symmetry_group_IT_number 114
_symmetry_cell_setting 'tetragonal'
loop_
_space_group_symop_operation_xyz
x,y,z
y,-x,-z
-x,-y,z
-y,x,-z
1/2+x,1/2-y,1/2-z
1/2-x,1/2+y,1/2-z
1/2-y,1/2-x,1/2+z
1/2+y,1/2+x,1/2+z
loop_
_atom_site_type_symbol
_atom_site_label
_atom_site_fract_x
_atom_site_fract_y
_atom_site_fract_z
Si Si1 0.791103 0.733825 0.164444
Si Si2 0.206293 0.037046 0.663184
Si Si3 0.000000 0.000000 0.746128
Si Si4 0.076193 0.398367 0.260655
Si Si5 0.716104 0.495413 0.324620
Si Si6 0.873267 0.499952 0.436154
Si Si7 0.875600 0.700073 0.530080
Si Si8 0.255676 0.095414 0.520994
O O1 0.665846 0.702676 0.182176
O O2 0.885908 0.682614 0.206320
O O3 0.792246 0.864328 0.169927
O O4 0.810072 0.685654 0.095523
O O5 0.208607 0.043301 0.586727
O O6 0.103647 0.981324 0.699066
O O7 0.318953 0.981363 0.687907
O O8 0.971738 0.898785 0.792785
O O9 0.187842 0.457769 0.281379
O O10 0.000000 0.500000 0.242026
O O11 0.770764 0.528284 0.391399
O O12 0.872754 0.589296 0.490631
O O13 0.861300 0.376261 0.460566
O O14 0.000000 0.500000 0.408970
O O15 0.815988 0.803358 0.498319
O O16 0.003001 0.732961 0.531545
#
# Coordination Sequence:
#
# PCOD9556009 Si02
#       8
#     8   8   4   8   8   8   8   8
#     4  11  23  41  63  91 135 164 212 281 320 375
#     4  11  22  42  64  94 129 175 212 266 330 391
#     4  12  26  38  62 102 140 166 210 272 338 390
#     4  12  22  37  70  97 124 176 224 254 330 408
#     4  12  22  42  63  93 131 176 212 261 328 398
#     4  10  20  41  69  89 119 173 221 259 314 396
#     4  10  22  40  63  95 121 164 214 267 316 379
#     4  10  21  40  65  87 125 166 209 267 323 375
#
# _framework density 18.947994999999999
#
# number of rings (size 3 to 8) (size 9 to 14) (size 15 to 20)
#    0.000    1.067    6.667    2.000    0.000    4.000 
#    2.400    1.333    0.000    0.000    0.000    0.000 
#    0.000    0.000    0.000    0.000    0.000    0.000 
#
# Total GULP energy -334222.481953 kJ/mol
# GULP energy per Si atom -5570.374699 kJ/mol
# Density = 1.890487 g / cm^3
# Si number density = 18.947995 Si / 1000 Ang^3
#
#
#
# Elastic Constant Matrix: (Units=GPa)
#
#
# Indices 1 2 3 4 5 6 
#
# 1 78.2836 33.4698 35.8418 0.0000 0.0000 0.0000
# 2 33.4698 78.2836 35.8418 0.0000 0.0000 0.0000
# 3 35.8418 35.8418 37.6706 0.0000 0.0000 0.0000
# 4 0.0000 0.0000 0.0000 25.9949 0.0000 0.0000
# 5 0.0000 0.0000 0.0000 0.0000 25.9949 0.0000
# 6 0.0000 0.0000 0.0000 0.0000 0.0000 28.9381
#
#
#
# Elastic Compliance Matrix: (Units=1/GPa)
#
#
# Indices 1 2 3 4 5 6 
#
# 1 0.022638 0.000324 -0.021847 0.000000 0.000000 0.000000
# 2 0.000324 0.022638 -0.021847 0.000000 0.000000 0.000000
# 3 -0.021847 -0.021847 0.068119 0.000000 0.000000 0.000000
# 4 0.000000 0.000000 0.000000 0.038469 0.000000 0.000000
# 5 0.000000 0.000000 0.000000 0.000000 0.038469 0.000000
# 6 0.000000 0.000000 0.000000 0.000000 0.000000 0.034556
#
#
# Mechanical properties :
#
#
# Convention : Reuss Voigt Hill
#
# Bulk Modulus (GPa) = 37.51767 44.94942 41.23355
# Shear Modulus (GPa) = 15.59977 22.12454 18.86216
#
# Velocity S-wave (km/s) = 2.87242 3.42079 3.15853
# Velocity P-wave (km/s) = 5.55377 6.27506 5.92540
#
# Compressibility (1/GPa) = 0.02665411
#
# Stress axis : x y z
#
# Youngs Moduli (GPa) = 44.17284 44.17284 14.68011
#
# Poissons Ratio (x) = -0.01430 0.32072
# Poissons Ratio (y) = -0.01430 0.32072
# Poissons Ratio (z) = 0.96506 0.96506
#
# Static dielectric constant tensor:
#      x y z
#    x 1.681930 0.000000 0.000000 
#    y 0.000000 1.681930 0.000000 
#    z 0.000000 0.000000 1.680770 
# 
# From -- ./inp_files/3226.got.cif
#   From: 2010.05.17/outbox.cif.g08.bks.cpg/sg114_2_cif.got.tgz:3226.got - 2010.05.20 11:04:54.
