data_PCOD9556250
_publ_section_title
;
Structure prediction by ZEFSAII (Michael W. Deem and Ramdas Pophale) SiO2 
 PCOD9556250
Probable space group: P -4 21 C
;
_chemical_formula_sum "Si O2"
_cell_formula_units_Z 50
_cell_length_a 15.378947
_cell_length_b 15.378947
_cell_length_c 7.906985
_cell_angle_alpha 90.000000
_cell_angle_beta 90.000000
_cell_angle_gamma 90.000000
_cell_volume 1870.096922
_symmetry_space_group_name_H-M "P -4 21 C"
_symmetry_group_IT_number 114
_symmetry_cell_setting 'tetragonal'
loop_
_space_group_symop_operation_xyz
x,y,z
y,-x,-z
-x,-y,z
-y,x,-z
1/2+x,1/2-y,1/2-z
1/2-x,1/2+y,1/2-z
1/2-y,1/2-x,1/2+z
1/2+y,1/2+x,1/2+z
loop_
_atom_site_type_symbol
_atom_site_label
_atom_site_fract_x
_atom_site_fract_y
_atom_site_fract_z
Si Si1 0.000000 0.000000 0.000000
Si Si2 0.640844 0.429564 0.705259
Si Si3 0.721355 0.683081 0.081828
Si Si4 0.424102 0.805516 0.618777
Si Si5 0.259894 0.413045 0.738116
Si Si6 0.385262 0.198688 0.544868
Si Si7 0.594410 0.998740 0.623401
O O1 0.050231 0.072675 0.892163
O O2 0.644546 0.371965 0.869755
O O3 0.654306 0.529895 0.749641
O O4 0.723895 0.398508 0.591984
O O5 0.782550 0.629724 0.213727
O O6 0.844374 0.761154 0.389400
O O7 0.713540 0.787155 0.108571
O O8 0.390009 0.750277 0.459161
O O9 0.526351 0.789061 0.654094
O O10 0.415793 0.904217 0.547777
O O11 0.181110 0.482181 0.771307
O O12 0.390815 0.091653 0.520950
O O13 0.500000 0.000000 0.717123
#
# Coordination Sequence:
#
# PCOD9556250 Si02
#       7
#     2   8   8   8   8   8   8
#     4  12  28  56  82 108 168 230 288 344 410 508
#     4  11  26  51  79 115 161 223 281 350 420 495
#     4  12  27  50  83 119 166 216 276 353 422 509
#     4  10  26  49  80 120 164 214 267 340 430 507
#     4  11  26  48  76 120 157 208 277 332 421 499
#     4  10  24  52  78 123 165 210 282 349 422 510
#     4  10  23  47  81 117 161 207 261 335 420 504
#
# _framework density 26.73658
#
# number of rings (size 3 to 8) (size 9 to 14) (size 15 to 20)
#    0.000    1.280    1.600    1.920    4.480    7.040 
#    2.880    3.200    0.000    0.000    0.000    0.000 
#    0.000    0.000    0.000    0.000    0.000    0.000 
#
# Total GULP energy -278967.365521 kJ/mol
# GULP energy per Si atom -5579.347310 kJ/mol
# Density = 2.667573 g / cm^3
# Si number density = 26.736580 Si / 1000 Ang^3
#
#
#
# Elastic Constant Matrix: (Units=GPa)
#
#
# Indices 1 2 3 4 5 6 
#
# 1 133.0314 75.4496 64.2946 0.0000 0.0000 0.0000
# 2 75.4496 133.0314 64.2946 0.0000 0.0000 0.0000
# 3 64.2946 64.2946 119.4859 0.0000 0.0000 0.0000
# 4 0.0000 0.0000 0.0000 42.7723 0.0000 0.0000
# 5 0.0000 0.0000 0.0000 0.0000 42.7723 0.0000
# 6 0.0000 0.0000 0.0000 0.0000 0.0000 52.3908
#
#
#
# Elastic Compliance Matrix: (Units=1/GPa)
#
#
# Indices 1 2 3 4 5 6 
#
# 1 0.012273 -0.005094 -0.003863 0.000000 0.000000 0.000000
# 2 -0.005094 0.012273 -0.003863 0.000000 0.000000 0.000000
# 3 -0.003863 -0.003863 0.012527 0.000000 0.000000 0.000000
# 4 0.000000 0.000000 0.000000 0.023380 0.000000 0.000000
# 5 0.000000 0.000000 0.000000 0.000000 0.023380 0.000000
# 6 0.000000 0.000000 0.000000 0.000000 0.000000 0.019087
#
#
# Mechanical properties :
#
#
# Convention : Reuss Voigt Hill
#
# Bulk Modulus (GPa) = 87.46816 88.18071 87.82443
# Shear Modulus (GPa) = 37.77290 39.68774 38.73032
#
# Velocity S-wave (km/s) = 3.76277 3.85697 3.81016
# Velocity P-wave (km/s) = 7.18775 7.27240 7.23020
#
# Compressibility (1/GPa) = 0.01143273
#
# Stress axis : x y z
#
# Youngs Moduli (GPa) = 81.47973 81.47973 79.82958
#
# Poissons Ratio (x) = 0.41503 0.30840
# Poissons Ratio (y) = 0.41503 0.30840
# Poissons Ratio (z) = 0.31477 0.31477
#
# Static dielectric constant tensor:
#      x y z
#    x 2.185720 0.000000 0.000000 
#    y 0.000000 2.185720 0.000000 
#    z 0.000000 0.000000 2.038480 
# 
# From -- ./inp_files/1691.got.cif
#   From: 2010.05.17/outbox.cif.g08.bks.cpg/sg114_1_cif.got.tgz:1691.got - 2010.05.20 11:04:54.
