data_PCOD9556826
_publ_section_title
;
Structure prediction by ZEFSAII (Michael W. Deem and Ramdas Pophale) SiO2 
 PCOD9556826
Probable space group: P -4 M 2
;
_chemical_formula_sum "Si O2"
_cell_formula_units_Z 44
_cell_length_a 9.246300
_cell_length_b 9.246300
_cell_length_c 29.415419
_cell_angle_alpha 90.000000
_cell_angle_beta 90.000000
_cell_angle_gamma 90.000000
_cell_volume 2514.843705
_symmetry_space_group_name_H-M "P -4 M 2"
_symmetry_group_IT_number 115
_symmetry_cell_setting 'tetragonal'
loop_
_space_group_symop_operation_xyz
x,y,z
y,-x,-z
-x,-y,z
-y,x,-z
y,x,-z
-y,-x,-z
-x,y,z
x,-y,z
loop_
_atom_site_type_symbol
_atom_site_label
_atom_site_fract_x
_atom_site_fract_y
_atom_site_fract_z
Si Si1 0.328104 0.328104 0.500000
Si Si2 0.330203 0.325820 0.231858
Si Si3 0.165883 0.676262 0.140082
Si Si4 0.829921 0.173792 0.315077
Si Si5 0.323583 0.332618 0.949764
Si Si6 0.329903 0.173154 0.407610
O O1 0.303988 0.500000 0.494760
O O2 0.280779 0.248076 0.454155
O O3 0.500000 0.290980 0.231745
O O4 0.315783 0.500000 0.235625
O O5 0.257055 0.280723 0.184283
O O6 0.250895 0.251157 0.273846
O O7 0.166978 0.500000 0.139216
O O8 0.238303 0.724562 0.092929
O O9 0.000000 0.723210 0.143853
O O10 0.759770 0.217055 0.363264
O O11 0.000000 0.207123 0.314244
O O12 0.812744 0.000000 0.310843
O O13 0.500000 0.332004 0.950475
O O14 0.279584 0.500000 0.943779
O O15 0.279647 0.279647 0.000000
O O16 0.500000 0.208213 0.400662
O O17 0.318192 0.000000 0.412594
#
# Coordination Sequence:
#
# PCOD9556826 Si02
#       6
#     4   8   8   8   8   8
#     4   9  18  32  50  73 100 128 160 201 246 289
#     4  10  20  33  51  75 101 130 166 208 252 298
#     4   9  16  26  42  66  96 126 156 196 246 294
#     4  10  21  36  53  74 101 133 168 206 250 299
#     4   8  13  22  38  60  85 115 153 194 234 281
#     4   9  18  33  51  70  95 128 163 198 240 292
#
# _framework density 17.496117999999999
#
# number of rings (size 3 to 8) (size 9 to 14) (size 15 to 20)
#    0.000    2.818    0.000    2.182    0.000    5.818 
#    0.000    1.818    0.000    1.091    0.000    2.545 
#    0.000    0.000    0.000    0.000    0.000    0.000 
#
# Total GULP energy -245318.566824 kJ/mol
# GULP energy per Si atom -5575.421973 kJ/mol
# Density = 1.745630 g / cm^3
# Si number density = 17.496118 Si / 1000 Ang^3
#
#
#
# Elastic Constant Matrix: (Units=GPa)
#
#
# Indices 1 2 3 4 5 6 
#
# 1 60.7661 40.7820 80.1097 0.0000 0.0000 0.0000
# 2 40.7820 60.7661 80.1097 0.0000 0.0000 0.0000
# 3 80.1097 80.1097 221.3379 0.0000 0.0000 0.0000
# 4 0.0000 0.0000 0.0000 -27.4916 0.0000 0.0000
# 5 0.0000 0.0000 0.0000 0.0000 -27.4916 0.0000
# 6 0.0000 0.0000 0.0000 0.0000 0.0000 17.2462
#
#
#
# Elastic Compliance Matrix: (Units=1/GPa)
#
#
# Indices 1 2 3 4 5 6 
#
# 1 0.036499 -0.013541 -0.008309 0.000000 0.000000 0.000000
# 2 -0.013541 0.036499 -0.008309 0.000000 0.000000 0.000000
# 3 -0.008309 -0.008309 0.010533 0.000000 0.000000 0.000000
# 4 0.000000 0.000000 0.000000 -0.036375 0.000000 0.000000
# 5 0.000000 0.000000 0.000000 0.000000 -0.036375 0.000000
# 6 0.000000 0.000000 0.000000 0.000000 0.000000 0.057984
#
#
# Mechanical properties :
#
#
# Convention : Reuss Voigt Hill
#
# Bulk Modulus (GPa) = 43.08282 82.76366 62.92324
# Shear Modulus (GPa) = 36.54449 1.91051 19.22750
#
# Velocity S-wave (km/s) = 4.57521 1.04610 3.31865
# Velocity P-wave (km/s) = 7.25174 6.99041 7.12227
#
# Compressibility (1/GPa) = 0.02321111
#
# Stress axis : x y z
#
# Youngs Moduli (GPa) = 27.39836 27.39836 94.94308
#
# Poissons Ratio (x) = 0.37101 0.78889
# Poissons Ratio (y) = 0.37101 0.78889
# Poissons Ratio (z) = 0.22765 0.22765
#
# Static dielectric constant tensor:
#      x y z
#    x 1.584560 0.000000 0.000000 
#    y 0.000000 1.584560 0.000000 
#    z 0.000000 0.000000 1.580580 
# 
# From -- ./inp_files/5741.got.cif
#   From: 2010.05.17/outbox.cif.g08.bks.cpg/sg115_3_cif.got.tgz:5741.got - 2010.05.20 11:07:42.
