data_PCOD9556529
_publ_section_title
;
Structure prediction by ZEFSAII (Michael W. Deem and Ramdas Pophale) SiO2 
 PCOD9556529
Probable space group: P -4 M 2
;
_chemical_formula_sum "Si O2"
_cell_formula_units_Z 40
_cell_length_a 21.361086
_cell_length_b 21.361086
_cell_length_c 4.994924
_cell_angle_alpha 90.000000
_cell_angle_beta 90.000000
_cell_angle_gamma 90.000000
_cell_volume 2279.163817
_symmetry_space_group_name_H-M "P -4 M 2"
_symmetry_group_IT_number 115
_symmetry_cell_setting 'tetragonal'
loop_
_space_group_symop_operation_xyz
x,y,z
y,-x,-z
-x,-y,z
-y,x,-z
y,x,-z
-y,-x,-z
-x,y,z
x,-y,z
loop_
_atom_site_type_symbol
_atom_site_label
_atom_site_fract_x
_atom_site_fract_y
_atom_site_fract_z
Si Si1 0.636167 0.257193 0.000949
Si Si2 0.071100 0.250560 0.623304
Si Si3 0.929922 0.833251 0.122547
Si Si4 0.571053 0.366743 0.750072
Si Si5 0.798212 0.690032 0.495314
O O1 0.580012 0.296783 0.871336
O O2 0.660673 0.205230 0.797587
O O3 0.689736 0.310265 0.000000
O O4 0.639154 0.230167 0.297777
O O5 0.079931 0.191280 0.422696
O O6 0.131369 0.292764 0.571555
O O7 0.000000 0.274419 0.569323
O O8 0.072804 0.226783 0.927494
O O9 0.000000 0.859798 0.104670
O O10 0.880608 0.880608 0.000000
O O11 0.616690 0.383311 0.500000
O O12 0.500000 0.376478 0.661324
O O13 0.588765 0.411236 0.000000
O O14 0.751902 0.751902 0.500000
#
# Coordination Sequence:
#
# PCOD9556529 Si02
#       5
#     8   8   8   8   8
#     4   9  18  31  47  70  94 121 160 204 239 271
#     4  10  20  31  44  65  91 116 148 195 248 304
#     4  10  19  30  42  57  81 113 151 193 236 286
#     4  11  22  36  53  75 108 143 174 206 233 264
#     4  10  17  28  48  67  89 121 157 196 246 301
#
# _framework density 17.550294999999998
#
# number of rings (size 3 to 8) (size 9 to 14) (size 15 to 20)
#    0.000    2.000    0.000    6.600    0.000    3.000 
#    0.000    0.000    0.000    3.600    0.000    0.000 
#    0.000    4.800    0.000    0.000    0.000    0.400 
#
# Total GULP energy -222819.656903 kJ/mol
# GULP energy per Si atom -5570.491423 kJ/mol
# Density = 1.751035 g / cm^3
# Si number density = 17.550295 Si / 1000 Ang^3
#
#
#
# Elastic Constant Matrix: (Units=GPa)
#
#
# Indices 1 2 3 4 5 6 
#
# 1 49.8804 27.1794 3.4686 0.0000 0.0000 0.0000
# 2 27.1794 49.8797 3.4703 0.0000 0.0000 0.0000
# 3 3.4686 3.4703 67.3181 0.0000 0.0000 0.0000
# 4 0.0000 0.0000 0.0000 19.3523 0.0000 0.0000
# 5 0.0000 0.0000 0.0000 0.0000 19.3516 0.0000
# 6 0.0000 0.0000 0.0000 0.0000 0.0000 12.3141
#
#
#
# Elastic Compliance Matrix: (Units=1/GPa)
#
#
# Indices 1 2 3 4 5 6 
#
# 1 0.028544 -0.015507 -0.000671 0.000000 0.000000 0.000000
# 2 -0.015507 0.028545 -0.000672 0.000000 0.000000 0.000000
# 3 -0.000671 -0.000672 0.014924 0.000000 0.000000 0.000000
# 4 0.000000 0.000000 0.000000 0.051673 0.000000 0.000000
# 5 0.000000 0.000000 0.000000 0.000000 0.051675 0.000000
# 6 0.000000 0.000000 0.000000 0.000000 0.000000 0.081207
#
#
# Mechanical properties :
#
#
# Convention : Reuss Voigt Hill
#
# Bulk Modulus (GPa) = 26.10192 26.14611 26.12401
# Shear Modulus (GPa) = 16.49938 19.06760 17.78349
#
# Velocity S-wave (km/s) = 3.06946 3.29972 3.18667
# Velocity P-wave (km/s) = 5.24090 5.42657 5.33454
#
# Compressibility (1/GPa) = 0.03831136
#
# Stress axis : x y z
#
# Youngs Moduli (GPa) = 35.03324 35.03262 67.00570
#
# Poissons Ratio (x) = 0.54325 0.04499
# Poissons Ratio (y) = 0.54326 0.04506
# Poissons Ratio (z) = 0.02352 0.02356
#
# Static dielectric constant tensor:
#      x y z
#    x 1.620270 0.000000 0.000000 
#    y 0.000000 1.620280 0.000000 
#    z 0.000000 0.000000 1.623930 
# 
# From -- ./inp_files/582.got.cif
#   From: 2010.05.17/outbox.cif.g08.bks.cpg/sg115_1_cif.got.tgz:582.got - 2010.05.20 11:07:42.
