data_PCOD9556083
_publ_section_title
;
Structure prediction by ZEFSAII (Michael W. Deem and Ramdas Pophale) SiO2 
 PCOD9556083
Probable space group: P -4 21 C
;
_chemical_formula_sum "Si O2"
_cell_formula_units_Z 36
_cell_length_a 9.703006
_cell_length_b 9.703006
_cell_length_c 15.458388
_cell_angle_alpha 90.000000
_cell_angle_beta 90.000000
_cell_angle_gamma 90.000000
_cell_volume 1455.381344
_symmetry_space_group_name_H-M "P -4 21 C"
_symmetry_group_IT_number 114
_symmetry_cell_setting 'tetragonal'
loop_
_space_group_symop_operation_xyz
x,y,z
y,-x,-z
-x,-y,z
-y,x,-z
1/2+x,1/2-y,1/2-z
1/2-x,1/2+y,1/2-z
1/2-y,1/2-x,1/2+z
1/2+y,1/2+x,1/2+z
loop_
_atom_site_type_symbol
_atom_site_label
_atom_site_fract_x
_atom_site_fract_y
_atom_site_fract_z
Si Si1 0.514564 0.797754 0.065381
Si Si2 0.000000 0.000000 0.500000
Si Si3 0.640905 0.066942 0.763837
Si Si4 0.106056 0.123408 0.788715
Si Si5 0.000000 0.000000 0.000000
Si Si6 0.226731 0.471503 0.469657
O O1 0.471288 0.842292 0.161702
O O2 0.385029 0.855068 0.011406
O O3 0.645301 0.885663 0.035636
O O4 0.527225 0.635961 0.055942
O O5 0.636715 0.235761 0.768562
O O6 0.500000 0.000000 0.796049
O O7 0.757170 0.966074 0.800746
O O8 0.052909 0.194863 0.877623
O O9 0.000000 0.000000 0.759883
O O10 0.850798 0.038364 0.963409
#
# Coordination Sequence:
#
# PCOD9556083 Si02
#       6
#     8   2   8   8   2   8
#     4  10  22  43  60  90 130 171 203 275 323 385
#     4  12  24  40  66  92 124 172 236 254 320 412
#     4  11  22  41  65  91 133 167 208 275 334 394
#     4  11  22  39  64  95 126 169 214 265 327 408
#     4  12  20  32  70  88 112 176 212 278 300 392
#     4  10  21  41  63  89 129 161 216 262 333 374
#
# _framework density 24.735786999999998
#
# number of rings (size 3 to 8) (size 9 to 14) (size 15 to 20)
#    0.000    1.333    5.556    2.667    1.556    0.000 
#    0.000    0.000    4.889    0.000    0.000    0.000 
#    0.000    0.000    0.000    0.000    0.000    0.000 
#
# Total GULP energy -200669.186097 kJ/mol
# GULP energy per Si atom -5574.144058 kJ/mol
# Density = 2.467949 g / cm^3
# Si number density = 24.735787 Si / 1000 Ang^3
#
#
#
# Elastic Constant Matrix: (Units=GPa)
#
#
# Indices 1 2 3 4 5 6 
#
# 1 246.1240 98.1160 23.9872 0.0000 0.0000 0.0000
# 2 98.1160 246.1240 23.9872 0.0000 0.0000 0.0000
# 3 23.9872 23.9872 27.7690 0.0000 0.0000 0.0000
# 4 0.0000 0.0000 0.0000 24.3131 0.0000 0.0000
# 5 0.0000 0.0000 0.0000 0.0000 24.3131 0.0000
# 6 0.0000 0.0000 0.0000 0.0000 0.0000 46.9491
#
#
#
# Elastic Compliance Matrix: (Units=1/GPa)
#
#
# Indices 1 2 3 4 5 6 
#
# 1 0.005029 -0.001727 -0.002853 0.000000 0.000000 0.000000
# 2 -0.001727 0.005029 -0.002853 0.000000 0.000000 0.000000
# 3 -0.002853 -0.002853 0.040940 0.000000 0.000000 0.000000
# 4 0.000000 0.000000 0.000000 0.041130 0.000000 0.000000
# 5 0.000000 0.000000 0.000000 0.000000 0.041130 0.000000
# 6 0.000000 0.000000 0.000000 0.000000 0.000000 0.021300
#
#
# Mechanical properties :
#
#
# Convention : Reuss Voigt Hill
#
# Bulk Modulus (GPa) = 27.67490 90.24421 58.95955
# Shear Modulus (GPa) = 27.55307 44.04352 35.79830
#
# Velocity S-wave (km/s) = 3.34113 4.22424 3.80837
# Velocity P-wave (km/s) = 5.10849 7.76883 6.57463
#
# Compressibility (1/GPa) = 0.03613383
#
# Stress axis : x y z
#
# Youngs Moduli (GPa) = 198.82877 198.82877 24.42611
#
# Poissons Ratio (x) = 0.34336 0.06968
# Poissons Ratio (y) = 0.34336 0.06968
# Poissons Ratio (z) = 0.56721 0.56721
#
# Static dielectric constant tensor:
#      x y z
#    x 1.996740 0.000000 0.000000 
#    y 0.000000 1.996740 0.000000 
#    z 0.000000 0.000000 2.222260 
# 
# From -- ./inp_files/2993.got.cif
#   From: 2010.05.17/outbox.cif.g08.bks.cpg/sg114_2_cif.got.tgz:2993.got - 2010.05.20 11:04:54.
