data_PCOD9556711
_publ_section_title
;
Structure prediction by ZEFSAII (Michael W. Deem and Ramdas Pophale) SiO2 
 PCOD9556711
Probable space group: P -4 M 2
;
_chemical_formula_sum "Si O2"
_cell_formula_units_Z 56
_cell_length_a 15.110090
_cell_length_b 15.110090
_cell_length_c 14.674058
_cell_angle_alpha 90.000000
_cell_angle_beta 90.000000
_cell_angle_gamma 90.000000
_cell_volume 3350.304908
_symmetry_space_group_name_H-M "P -4 M 2"
_symmetry_group_IT_number 115
_symmetry_cell_setting 'tetragonal'
loop_
_space_group_symop_operation_xyz
x,y,z
y,-x,-z
-x,-y,z
-y,x,-z
y,x,-z
-y,-x,-z
-x,y,z
x,-y,z
loop_
_atom_site_type_symbol
_atom_site_label
_atom_site_fract_x
_atom_site_fract_y
_atom_site_fract_z
Si Si1 0.395578 0.715723 0.071543
Si Si2 0.281019 0.657047 0.403813
Si Si3 0.396022 0.100923 0.155007
Si Si4 0.398872 0.597438 0.246524
Si Si5 0.603874 0.098141 0.508109
Si Si6 0.144747 0.717260 0.667294
Si Si7 0.099612 0.105324 0.399942
O O1 0.500000 0.702206 0.049760
O O2 0.379206 0.820535 0.083183
O O3 0.379928 0.670514 0.170205
O O4 0.333110 0.666891 0.000000
O O5 0.331645 0.668356 0.500000
O O6 0.333648 0.598674 0.331854
O O7 0.181019 0.628561 0.427963
O O8 0.283314 0.751997 0.355397
O O9 0.500000 0.109732 0.181835
O O10 0.334681 0.118025 0.242416
O O11 0.382965 0.000000 0.122538
O O12 0.500000 0.612325 0.278614
O O13 0.395171 0.500000 0.202661
O O14 0.500000 0.107341 0.482426
O O15 0.665684 0.102455 0.418806
O O16 0.615411 0.000000 0.549709
O O17 0.121076 0.821125 0.669377
O O18 0.134679 0.134679 0.500000
O O19 0.000000 0.140551 0.381837
O O20 0.091185 0.000000 0.409440
#
# Coordination Sequence:
#
# PCOD9556711 Si02
#       7
#     8   8   8   8   8   8   8
#     4  10  20  36  59  85 109 134 170 216 269 324
#     4  10  21  32  46  70 104 143 180 220 260 306
#     4  10  20  34  55  83 113 139 166 212 269 321
#     4  10  20  34  52  75 104 136 173 217 263 313
#     4  10  20  32  47  68  98 141 190 231 266 314
#     4  11  19  30  49  72 100 137 181 225 271 318
#     4   9  17  28  42  63  93 130 176 230 276 308
#
# _framework density 16.714896
#
# number of rings (size 3 to 8) (size 9 to 14) (size 15 to 20)
#    0.000    2.000    1.429    4.286    0.000    6.429 
#    0.000    0.714    0.000    1.714    0.000    2.000 
#    0.000    0.000    0.000    0.000    0.000    0.000 
#
# Total GULP energy -312073.928489 kJ/mol
# GULP energy per Si atom -5572.748723 kJ/mol
# Density = 1.667685 g / cm^3
# Si number density = 16.714896 Si / 1000 Ang^3
#
#
#
# Elastic Constant Matrix: (Units=GPa)
#
#
# Indices 1 2 3 4 5 6 
#
# 1 105.3873 43.1860 43.3135 0.0000 0.0000 0.0000
# 2 43.1860 105.3888 43.3125 0.0000 0.0000 0.0000
# 3 43.3135 43.3125 57.9114 0.0000 0.0000 0.0000
# 4 0.0000 0.0000 0.0000 13.3296 0.0000 0.0000
# 5 0.0000 0.0000 0.0000 0.0000 13.3288 0.0000
# 6 0.0000 0.0000 0.0000 0.0000 0.0000 22.4305
#
#
#
# Elastic Compliance Matrix: (Units=1/GPa)
#
#
# Indices 1 2 3 4 5 6 
#
# 1 0.014006 -0.002071 -0.008927 0.000000 0.000000 0.000000
# 2 -0.002071 0.014006 -0.008926 0.000000 0.000000 0.000000
# 3 -0.008927 -0.008926 0.030621 0.000000 0.000000 0.000000
# 4 0.000000 0.000000 0.000000 0.075021 0.000000 0.000000
# 5 0.000000 0.000000 0.000000 0.000000 0.075025 0.000000
# 6 0.000000 0.000000 0.000000 0.000000 0.000000 0.044582
#
#
# Mechanical properties :
#
#
# Convention : Reuss Voigt Hill
#
# Bulk Modulus (GPa) = 53.23503 58.70127 55.96815
# Shear Modulus (GPa) = 16.70172 19.07616 17.88894
#
# Velocity S-wave (km/s) = 3.16446 3.38193 3.27500
# Velocity P-wave (km/s) = 6.72828 7.10249 6.91791
#
# Compressibility (1/GPa) = 0.01878463
#
# Stress axis : x y z
#
# Youngs Moduli (GPa) = 71.39663 71.39952 32.65780
#
# Poissons Ratio (x) = 0.14784 0.29154
# Poissons Ratio (y) = 0.14784 0.29151
# Poissons Ratio (z) = 0.63736 0.63733
#
# Static dielectric constant tensor:
#      x y z
#    x 1.611480 0.000000 0.000000 
#    y 0.000000 1.611480 0.000000 
#    z 0.000000 0.000000 1.534390 
# 
# From -- ./inp_files/3780.got.cif
#   From: 2010.05.17/outbox.cif.g08.bks.cpg/sg115_2_cif.got.tgz:3780.got - 2010.05.20 11:07:42.
