data_PCOD9556089
_publ_section_title
;
Structure prediction by ZEFSAII (Michael W. Deem and Ramdas Pophale) SiO2 
 PCOD9556089
Probable space group: P -4 21 C
;
_chemical_formula_sum "Si O2"
_cell_formula_units_Z 48
_cell_length_a 8.742118
_cell_length_b 8.742118
_cell_length_c 28.995280
_cell_angle_alpha 90.000000
_cell_angle_beta 90.000000
_cell_angle_gamma 90.000000
_cell_volume 2215.953462
_symmetry_space_group_name_H-M "P -4 21 C"
_symmetry_group_IT_number 114
_symmetry_cell_setting 'tetragonal'
loop_
_space_group_symop_operation_xyz
x,y,z
y,-x,-z
-x,-y,z
-y,x,-z
1/2+x,1/2-y,1/2-z
1/2-x,1/2+y,1/2-z
1/2-y,1/2-x,1/2+z
1/2+y,1/2+x,1/2+z
loop_
_atom_site_type_symbol
_atom_site_label
_atom_site_fract_x
_atom_site_fract_y
_atom_site_fract_z
Si Si1 0.825150 0.822609 0.489353
Si Si2 0.887421 0.864747 0.058134
Si Si3 0.055355 0.678735 0.279172
Si Si4 0.263147 0.234779 0.312285
Si Si5 0.886789 0.364463 0.097720
Si Si6 0.959244 0.322509 0.862123
O O1 0.740284 0.688152 0.518182
O O2 0.747477 0.836402 0.439220
O O3 0.008425 0.799100 0.488070
O O4 0.748970 0.922592 0.089218
O O5 0.995411 0.773890 0.093481
O O6 0.000000 0.000000 0.043729
O O7 0.130200 0.731904 0.232126
O O8 0.171539 0.671095 0.322587
O O9 0.000000 0.500000 0.272982
O O10 0.910030 0.778949 0.293991
O O11 0.317395 0.117276 0.351461
O O12 0.261207 0.396655 0.339001
O O13 0.000000 0.500000 0.083743
O O14 0.000000 0.500000 0.869613
#
# Coordination Sequence:
#
# PCOD9556089 Si02
#       6
#     8   8   8   8   8   8
#     4  11  28  51  73 101 146 189 236 296 366 439
#     4  12  26  43  75 105 136 180 233 290 354 423
#     4   9  21  40  65  94 135 183 228 288 344 420
#     4  10  21  41  66  96 138 180 233 286 359 405
#     4  12  26  45  70 106 141 180 235 300 348 431
#     4   9  22  42  65  99 136 179 227 285 344 413
#
# _framework density 21.661104999999999
#
# number of rings (size 3 to 8) (size 9 to 14) (size 15 to 20)
#    0.000    1.833    3.333    0.500    9.333    0.667 
#    0.000    0.000    7.333    0.000    0.000    0.000 
#    0.000    0.000    0.000    0.000    0.000    0.000 
#
# Total GULP energy -267922.772945 kJ/mol
# GULP energy per Si atom -5581.724436 kJ/mol
# Density = 2.161180 g / cm^3
# Si number density = 21.661105 Si / 1000 Ang^3
#
#
#
# Elastic Constant Matrix: (Units=GPa)
#
#
# Indices 1 2 3 4 5 6 
#
# 1 63.8991 34.9317 27.9569 0.0000 0.0000 0.0000
# 2 34.9317 63.8991 27.9569 0.0000 0.0000 0.0000
# 3 27.9569 27.9569 119.8262 0.0000 0.0000 0.0000
# 4 0.0000 0.0000 0.0000 3.4275 0.0000 0.0000
# 5 0.0000 0.0000 0.0000 0.0000 3.4275 0.0000
# 6 0.0000 0.0000 0.0000 0.0000 0.0000 31.5626
#
#
#
# Elastic Compliance Matrix: (Units=1/GPa)
#
#
# Indices 1 2 3 4 5 6 
#
# 1 0.023089 -0.011432 -0.002720 0.000000 0.000000 0.000000
# 2 -0.011432 0.023089 -0.002720 0.000000 0.000000 0.000000
# 3 -0.002720 -0.002720 0.009615 0.000000 0.000000 0.000000
# 4 0.000000 0.000000 0.000000 0.291757 0.000000 0.000000
# 5 0.000000 0.000000 0.000000 0.000000 0.291757 0.000000
# 6 0.000000 0.000000 0.000000 0.000000 0.000000 0.031683
#
#
# Mechanical properties :
#
#
# Convention : Reuss Voigt Hill
#
# Bulk Modulus (GPa) = 45.35227 47.70172 46.52699
# Shear Modulus (GPa) = 7.02165 18.13545 12.57855
#
# Velocity S-wave (km/s) = 1.80240 2.89664 2.41238
# Velocity P-wave (km/s) = 5.03132 5.76689 5.41162
#
# Compressibility (1/GPa) = 0.02204961
#
# Stress axis : x y z
#
# Youngs Moduli (GPa) = 43.31008 43.31008 104.00949
#
# Poissons Ratio (x) = 0.49513 0.28288
# Poissons Ratio (y) = 0.49513 0.28288
# Poissons Ratio (z) = 0.11779 0.11779
#
# Static dielectric constant tensor:
#      x y z
#    x 1.800650 0.000000 0.000000 
#    y 0.000000 1.800650 0.000000 
#    z 0.000000 0.000000 1.788670 
# 
# From -- ./inp_files/3911.got.cif
#   From: 2010.05.17/outbox.cif.g08.bks.cpg/sg114_2_cif.got.tgz:3911.got - 2010.05.20 11:04:54.
