data_PCOD9556589
_publ_section_title
;
Structure prediction by ZEFSAII (Michael W. Deem and Ramdas Pophale) SiO2 
 PCOD9556589
Probable space group: P -4 M 2
;
_chemical_formula_sum "Si O2"
_cell_formula_units_Z 37
_cell_length_a 7.933048
_cell_length_b 7.933048
_cell_length_c 27.885589
_cell_angle_alpha 90.000000
_cell_angle_beta 90.000000
_cell_angle_gamma 90.000000
_cell_volume 1754.930760
_symmetry_space_group_name_H-M "P -4 M 2"
_symmetry_group_IT_number 115
_symmetry_cell_setting 'tetragonal'
loop_
_space_group_symop_operation_xyz
x,y,z
y,-x,-z
-x,-y,z
-y,x,-z
y,x,-z
-y,-x,-z
-x,y,z
x,-y,z
loop_
_atom_site_type_symbol
_atom_site_label
_atom_site_fract_x
_atom_site_fract_y
_atom_site_fract_z
Si Si1 0.203037 0.195150 0.551187
Si Si2 0.700439 0.681595 0.858482
Si Si3 0.000000 0.000000 0.000000
Si Si4 0.299623 0.193854 0.653058
Si Si5 0.806340 0.799588 0.244289
Si Si6 0.000000 0.292810 0.077305
O O1 0.265548 0.265548 0.500000
O O2 0.247280 0.274005 0.602403
O O3 0.000000 0.191525 0.547811
O O4 0.264457 0.000000 0.553718
O O5 0.500000 0.675516 0.864844
O O6 0.773453 0.500000 0.872339
O O7 0.732898 0.713841 0.802418
O O8 0.755765 0.837552 0.890695
O O9 0.171762 0.000000 0.968561
O O10 0.500000 0.185611 0.653292
O O11 0.244159 0.269441 0.703746
O O12 0.229383 0.000000 0.653260
O O13 0.000000 0.732947 0.243185
O O14 0.812277 0.000000 0.240491
O O15 0.000000 0.500000 0.069162
#
# Coordination Sequence:
#
# PCOD9556589 Si02
#       6
#     8   8   1   8   8   4
#     4   8  13  22  37  57  83 118 167 225 280 340
#     4  10  21  38  62  90 124 167 207 247 303 363
#     4  12  28  44  76 104 132 172 228 256 306 368
#     4   9  16  25  40  65  98 135 175 224 285 352
#     4  10  19  30  50  80 115 150 191 241 295 356
#     4  10  24  46  68  98 138 172 212 267 309 354
#
# _framework density 21.083452000000001
#
# number of rings (size 3 to 8) (size 9 to 14) (size 15 to 20)
#    0.000    2.595    1.081    1.946    1.514    4.757 
#    0.000    0.000    0.000    1.297    0.000    3.027 
#    0.000    0.000    0.000    0.000    0.000    0.000 
#
# Total GULP energy -206251.506270 kJ/mol
# GULP energy per Si atom -5574.365034 kJ/mol
# Density = 2.103547 g / cm^3
# Si number density = 21.083452 Si / 1000 Ang^3
#
#
#
# Elastic Constant Matrix: (Units=GPa)
#
#
# Indices 1 2 3 4 5 6 
#
# 1 56.1158 22.6895 43.1285 0.0000 0.0000 0.0000
# 2 22.6895 56.1158 43.1285 0.0000 0.0000 0.0000
# 3 43.1285 43.1285 164.3015 0.0000 0.0000 0.0000
# 4 0.0000 0.0000 0.0000 36.1597 0.0000 0.0000
# 5 0.0000 0.0000 0.0000 0.0000 36.1597 0.0000
# 6 0.0000 0.0000 0.0000 0.0000 0.0000 -1.0365
#
#
#
# Elastic Compliance Matrix: (Units=1/GPa)
#
#
# Indices 1 2 3 4 5 6 
#
# 1 0.023861 -0.006056 -0.004674 0.000000 0.000000 0.000000
# 2 -0.006056 0.023861 -0.004674 0.000000 0.000000 0.000000
# 3 -0.004674 -0.004674 0.008540 0.000000 0.000000 0.000000
# 4 0.000000 0.000000 0.000000 0.027655 0.000000 0.000000
# 5 0.000000 0.000000 0.000000 0.000000 0.027655 0.000000
# 6 0.000000 0.000000 0.000000 0.000000 0.000000 -0.964801
#
#
# Mechanical properties :
#
#
# Convention : Reuss Voigt Hill
#
# Bulk Modulus (GPa) = 39.28444 54.93622 47.11033
# Shear Modulus (GPa) = -6.14298 25.42900 9.64301
#
# Velocity S-wave (km/s) = -1.70879 3.47668 2.14095
# Velocity P-wave (km/s) = 3.84447 6.49843 5.33898
#
# Compressibility (1/GPa) = 0.02545537
#
# Stress axis : x y z
#
# Youngs Moduli (GPa) = 41.90951 41.90951 117.09485
#
# Poissons Ratio (x) = 0.25379 0.54728
# Poissons Ratio (y) = 0.25379 0.54728
# Poissons Ratio (z) = 0.19588 0.19588
#
# Static dielectric constant tensor:
#      x y z
#    x 1.777210 0.000000 0.000000 
#    y 0.000000 1.777210 0.000000 
#    z 0.000000 0.000000 1.780660 
# 
# From -- ./inp_files/5211.got.cif
#   From: 2010.05.17/outbox.cif.g08.bks.cpg/sg115_3_cif.got.tgz:5211.got - 2010.05.20 11:07:42.
