data_PCOD9556300
_publ_section_title
;
Structure prediction by ZEFSAII (Michael W. Deem and Ramdas Pophale) SiO2 
 PCOD9556300
Probable space group: P -4 21 C
;
_chemical_formula_sum "Si O2"
_cell_formula_units_Z 26
_cell_length_a 9.193366
_cell_length_b 9.193366
_cell_length_c 13.569995
_cell_angle_alpha 90.000000
_cell_angle_beta 90.000000
_cell_angle_gamma 90.000000
_cell_volume 1146.908544
_symmetry_space_group_name_H-M "P -4 21 C"
_symmetry_group_IT_number 114
_symmetry_cell_setting 'tetragonal'
loop_
_space_group_symop_operation_xyz
x,y,z
y,-x,-z
-x,-y,z
-y,x,-z
1/2+x,1/2-y,1/2-z
1/2-x,1/2+y,1/2-z
1/2-y,1/2-x,1/2+z
1/2+y,1/2+x,1/2+z
loop_
_atom_site_type_symbol
_atom_site_label
_atom_site_fract_x
_atom_site_fract_y
_atom_site_fract_z
Si Si1 0.000000 0.000000 0.000000
Si Si2 0.779759 0.377082 0.546838
Si Si3 0.322295 0.764352 0.356329
Si Si4 0.654817 0.453154 0.180991
O O1 0.103836 0.895044 0.061379
O O2 0.827179 0.538371 0.582629
O O3 0.782279 0.319674 0.434164
O O4 0.857194 0.255094 0.609841
O O5 0.371314 0.646251 0.276475
O O6 0.242194 0.897142 0.303734
O O7 0.500000 0.500000 0.137690
#
# Coordination Sequence:
#
# PCOD9556300 Si02
#       4
#     2   8   8   8
#     4   8  20  44  84  96 140 214 260 296 388 464
#     4  10  24  46  75 107 151 207 251 323 385 461
#     4  11  27  47  81 106 157 209 265 316 399 461
#     4  12  28  47  75 120 154 201 265 329 382 468
#
# _framework density 22.669637999999999
#
# number of rings (size 3 to 8) (size 9 to 14) (size 15 to 20)
#    0.000    1.231    0.000    2.769   30.154    0.000 
#    0.000    3.077    0.000    0.000    0.000    0.000 
#    0.000    0.000    0.000    0.000    0.000    0.000 
#
# Total GULP energy -145012.339077 kJ/mol
# GULP energy per Si atom -5577.397657 kJ/mol
# Density = 2.261804 g / cm^3
# Si number density = 22.669638 Si / 1000 Ang^3
#
#
#
# Elastic Constant Matrix: (Units=GPa)
#
#
# Indices 1 2 3 4 5 6 
#
# 1 117.3701 60.4253 21.3374 0.0000 0.0000 0.0000
# 2 60.4253 117.3701 21.3374 0.0000 0.0000 0.0000
# 3 21.3374 21.3374 54.8214 0.0000 0.0000 0.0000
# 4 0.0000 0.0000 0.0000 34.1230 0.0000 0.0000
# 5 0.0000 0.0000 0.0000 0.0000 34.1230 0.0000
# 6 0.0000 0.0000 0.0000 0.0000 0.0000 51.7288
#
#
#
# Elastic Compliance Matrix: (Units=1/GPa)
#
#
# Indices 1 2 3 4 5 6 
#
# 1 0.011882 -0.005678 -0.002415 0.000000 0.000000 0.000000
# 2 -0.005678 0.011882 -0.002415 0.000000 0.000000 0.000000
# 3 -0.002415 -0.002415 0.020121 0.000000 0.000000 0.000000
# 4 0.000000 0.000000 0.000000 0.029306 0.000000 0.000000
# 5 0.000000 0.000000 0.000000 0.000000 0.029306 0.000000
# 6 0.000000 0.000000 0.000000 0.000000 0.000000 0.019332
#
#
# Mechanical properties :
#
#
# Convention : Reuss Voigt Hill
#
# Bulk Modulus (GPa) = 43.72549 55.08465 49.40507
# Shear Modulus (GPa) = 33.22972 36.42573 34.82772
#
# Velocity S-wave (km/s) = 3.83276 4.01285 3.92384
# Velocity P-wave (km/s) = 6.23833 6.76921 6.50918
#
# Compressibility (1/GPa) = 0.02286996
#
# Stress axis : x y z
#
# Youngs Moduli (GPa) = 84.15773 84.15773 49.69997
#
# Poissons Ratio (x) = 0.47788 0.12001
# Poissons Ratio (y) = 0.47788 0.12001
# Poissons Ratio (z) = 0.20322 0.20322
#
# Static dielectric constant tensor:
#      x y z
#    x 1.880080 0.000000 0.000000 
#    y 0.000000 1.880080 0.000000 
#    z 0.000000 0.000000 1.881890 
# 
# From -- ./inp_files/2391.got.cif
#   From: 2010.05.17/outbox.cif.g08.bks.cpg/sg114_2_cif.got.tgz:2391.got - 2010.05.20 11:04:54.
