data_PCOD9556117
_publ_section_title
;
Structure prediction by ZEFSAII (Michael W. Deem and Ramdas Pophale) SiO2 
 PCOD9556117
Probable space group: P -4 21 C
;
_chemical_formula_sum "Si O2"
_cell_formula_units_Z 40
_cell_length_a 17.538472
_cell_length_b 17.538472
_cell_length_c 5.683901
_cell_angle_alpha 90.000000
_cell_angle_beta 90.000000
_cell_angle_gamma 90.000000
_cell_volume 1748.356580
_symmetry_space_group_name_H-M "P -4 21 C"
_symmetry_group_IT_number 114
_symmetry_cell_setting 'tetragonal'
loop_
_space_group_symop_operation_xyz
x,y,z
y,-x,-z
-x,-y,z
-y,x,-z
1/2+x,1/2-y,1/2-z
1/2-x,1/2+y,1/2-z
1/2-y,1/2-x,1/2+z
1/2+y,1/2+x,1/2+z
loop_
_atom_site_type_symbol
_atom_site_label
_atom_site_fract_x
_atom_site_fract_y
_atom_site_fract_z
Si Si1 0.113772 0.623567 0.250000
Si Si2 0.798478 0.866903 0.250000
Si Si3 0.739747 0.091844 0.750000
Si Si4 0.909975 0.590025 0.500000
Si Si5 0.699748 0.435672 0.750000
O O1 0.089508 0.589508 0.500000
O O2 0.206272 0.626841 0.250000
O O3 0.083448 0.709704 0.250000
O O4 0.826793 0.779771 0.250000
O O5 0.827309 0.902626 0.498247
O O6 0.827309 0.902626 0.001753
O O7 0.681572 0.080408 0.533230
O O8 0.681572 0.080408 0.966770
O O9 0.803346 0.026936 0.750000
O O10 0.933648 0.558280 0.250000
#
# Coordination Sequence:
#
# PCOD9556117 Si02
#       5
#     8   8   8   8   8
#     4   8  16  30  47  75 102 134 168 219 271 319
#     4  10  22  32  57  78 112 144 184 231 282 322
#     4  10  22  35  57  83 119 139 191 233 281 332
#     4   8  20  30  54  78 109 142 166 231 288 322
#     4  10  22  33  53  83 113 147 181 230 282 329
#
# _framework density 22.878627999999999
#
# number of rings (size 3 to 8) (size 9 to 14) (size 15 to 20)
#    1.200    1.600    0.000    0.000   14.000    0.000 
#    0.000    0.000    0.000    3.600    0.000   37.800 
#    0.000    0.000    0.000    0.000    0.000    0.000 
#
# Total GULP energy -222839.526701 kJ/mol
# GULP energy per Si atom -5570.988168 kJ/mol
# Density = 2.282656 g / cm^3
# Si number density = 22.878628 Si / 1000 Ang^3
#
#
#
# Elastic Constant Matrix: (Units=GPa)
#
#
# Indices 1 2 3 4 5 6 
#
# 1 51.0036 22.3302 44.7548 0.0000 0.0000 0.0000
# 2 22.3302 51.0036 44.7548 0.0000 0.0000 0.0000
# 3 44.7548 44.7548 266.4798 0.0000 0.0000 0.0000
# 4 0.0000 0.0000 0.0000 5.1482 0.0000 0.0000
# 5 0.0000 0.0000 0.0000 0.0000 5.1482 0.0000
# 6 0.0000 0.0000 0.0000 0.0000 0.0000 13.5498
#
#
#
# Elastic Compliance Matrix: (Units=1/GPa)
#
#
# Indices 1 2 3 4 5 6 
#
# 1 0.026014 -0.008862 -0.002881 0.000000 0.000000 0.000000
# 2 -0.008862 0.026014 -0.002881 0.000000 0.000000 0.000000
# 3 -0.002881 -0.002881 0.004720 0.000000 0.000000 0.000000
# 4 0.000000 0.000000 0.000000 0.194242 0.000000 0.000000
# 5 0.000000 0.000000 0.000000 0.000000 0.194242 0.000000
# 6 0.000000 0.000000 0.000000 0.000000 0.000000 0.073802
#
#
# Mechanical properties :
#
#
# Convention : Reuss Voigt Hill
#
# Bulk Modulus (GPa) = 36.36069 65.79630 51.07849
# Shear Modulus (GPa) = 8.96945 21.87904 15.42425
#
# Velocity S-wave (km/s) = 1.98216 3.09578 2.59931
# Velocity P-wave (km/s) = 4.60065 6.44979 5.60204
#
# Compressibility (1/GPa) = 0.02750223
#
# Stress axis : x y z
#
# Youngs Moduli (GPa) = 38.44087 38.44087 211.85300
#
# Poissons Ratio (x) = 0.34065 0.61029
# Poissons Ratio (y) = 0.34065 0.61029
# Poissons Ratio (z) = 0.11074 0.11074
#
# Static dielectric constant tensor:
#      x y z
#    x 1.861800 0.000000 0.000000 
#    y 0.000000 1.861800 0.000000 
#    z 0.000000 0.000000 1.925470 
# 
# From -- ./inp_files/192.got.cif
#   From: 2010.05.17/outbox.cif.g08.bks.cpg/sg114_1_cif.got.tgz:192.got - 2010.05.20 11:04:54.
