data_PCOD9556128
_publ_section_title
;
Structure prediction by ZEFSAII (Michael W. Deem and Ramdas Pophale) SiO2 
 PCOD9556128
Probable space group: P -4 21 C
;
_chemical_formula_sum "Si O2"
_cell_formula_units_Z 60
_cell_length_a 11.695553
_cell_length_b 11.695553
_cell_length_c 22.095503
_cell_angle_alpha 90.000000
_cell_angle_beta 90.000000
_cell_angle_gamma 90.000000
_cell_volume 3022.354589
_symmetry_space_group_name_H-M "P -4 21 C"
_symmetry_group_IT_number 114
_symmetry_cell_setting 'tetragonal'
loop_
_space_group_symop_operation_xyz
x,y,z
y,-x,-z
-x,-y,z
-y,x,-z
1/2+x,1/2-y,1/2-z
1/2-x,1/2+y,1/2-z
1/2-y,1/2-x,1/2+z
1/2+y,1/2+x,1/2+z
loop_
_atom_site_type_symbol
_atom_site_label
_atom_site_fract_x
_atom_site_fract_y
_atom_site_fract_z
Si Si1 0.933053 0.786213 0.937752
Si Si2 0.782357 0.084508 0.287085
Si Si3 0.362456 0.363993 0.638170
Si Si4 0.682572 0.876950 0.337759
Si Si5 0.327694 0.856295 0.670660
Si Si6 0.000000 0.000000 0.777074
Si Si7 0.975062 0.269389 0.063848
Si Si8 0.878708 0.322224 0.299976
O O1 0.894630 0.697849 0.885735
O O2 0.835495 0.883271 0.945195
O O3 0.039902 0.855875 0.911790
O O4 0.974033 0.716988 0.996699
O O5 0.698016 0.126376 0.233703
O O6 0.852998 0.190083 0.311511
O O7 0.716580 0.008548 0.334532
O O8 0.883608 0.011107 0.258173
O O9 0.391338 0.471602 0.681558
O O10 0.252874 0.410423 0.603679
O O11 0.368929 0.240523 0.670919
O O12 0.797640 0.797702 0.337620
O O13 0.601775 0.852477 0.394719
O O14 0.624981 0.849246 0.271997
O O15 0.343682 0.993346 0.675285
#
# Coordination Sequence:
#
# PCOD9556128 Si02
#       8
#     8   8   8   8   8   4   8   8
#     4  11  20  37  64  91 125 166 208 271 316 373
#     4  11  22  37  62  90 127 173 206 263 327 387
#     4  12  21  35  61  93 122 166 207 255 319 376
#     4  10  22  38  61  93 127 168 211 260 319 391
#     4  10  22  40  59  93 127 170 213 262 323 381
#     4  12  18  36  59  92 116 161 214 242 306 392
#     4  11  22  36  63  97 127 160 214 267 318 376
#     4  11  24  38  60  88 134 166 207 264 318 395
#
# _framework density 19.852073000000001
#
# number of rings (size 3 to 8) (size 9 to 14) (size 15 to 20)
#    0.000    1.067    5.333    2.400    5.600    2.133 
#    0.000    0.000    5.867    0.000    0.000    0.000 
#    0.000    0.000    0.000    0.000    0.000    0.000 
#
# Total GULP energy -334176.003416 kJ/mol
# GULP energy per Si atom -5569.600057 kJ/mol
# Density = 1.980689 g / cm^3
# Si number density = 19.852073 Si / 1000 Ang^3
#
#
#
# Elastic Constant Matrix: (Units=GPa)
#
#
# Indices 1 2 3 4 5 6 
#
# 1 65.7933 -6.5447 25.9458 0.0000 0.0000 0.0000
# 2 -6.5447 65.7933 25.9458 0.0000 0.0000 0.0000
# 3 25.9458 25.9458 63.1592 0.0000 0.0000 0.0000
# 4 0.0000 0.0000 0.0000 17.2265 0.0000 0.0000
# 5 0.0000 0.0000 0.0000 0.0000 17.2265 0.0000
# 6 0.0000 0.0000 0.0000 0.0000 0.0000 18.7082
#
#
#
# Elastic Compliance Matrix: (Units=1/GPa)
#
#
# Indices 1 2 3 4 5 6 
#
# 1 0.020094 0.006270 -0.010830 0.000000 0.000000 0.000000
# 2 0.006270 0.020094 -0.010830 0.000000 0.000000 0.000000
# 3 -0.010830 -0.010830 0.024731 0.000000 0.000000 0.000000
# 4 0.000000 0.000000 0.000000 0.058050 0.000000 0.000000
# 5 0.000000 0.000000 0.000000 0.000000 0.058050 0.000000
# 6 0.000000 0.000000 0.000000 0.000000 0.000000 0.053452
#
#
# Mechanical properties :
#
#
# Convention : Reuss Voigt Hill
#
# Bulk Modulus (GPa) = 29.29340 31.71550 30.50445
# Shear Modulus (GPa) = 18.07464 20.59218 19.33341
#
# Velocity S-wave (km/s) = 3.02067 3.22418 3.12408
# Velocity P-wave (km/s) = 5.19170 5.46544 5.33033
#
# Compressibility (1/GPa) = 0.03413738
#
# Stress axis : x y z
#
# Youngs Moduli (GPa) = 49.76702 49.76702 40.43515
#
# Poissons Ratio (x) = -0.31202 0.43791
# Poissons Ratio (y) = -0.31202 0.43791
# Poissons Ratio (z) = 0.53898 0.53898
#
# Static dielectric constant tensor:
#      x y z
#    x 1.738300 0.000000 0.000000 
#    y 0.000000 1.738300 0.000000 
#    z 0.000000 0.000000 1.738130 
# 
# From -- ./inp_files/3247.got.cif
#   From: 2010.05.17/outbox.cif.g08.bks.cpg/sg114_2_cif.got.tgz:3247.got - 2010.05.20 11:04:54.
