data_PCOD9556034
_publ_section_title
;
Structure prediction by ZEFSAII (Michael W. Deem and Ramdas Pophale) SiO2 
 PCOD9556034
Probable space group: P -4 21 C
;
_chemical_formula_sum "Si O2"
_cell_formula_units_Z 36
_cell_length_a 7.191175
_cell_length_b 7.191175
_cell_length_c 28.267283
_cell_angle_alpha 90.000000
_cell_angle_beta 90.000000
_cell_angle_gamma 90.000000
_cell_volume 1461.785946
_symmetry_space_group_name_H-M "P -4 21 C"
_symmetry_group_IT_number 114
_symmetry_cell_setting 'tetragonal'
loop_
_space_group_symop_operation_xyz
x,y,z
y,-x,-z
-x,-y,z
-y,x,-z
1/2+x,1/2-y,1/2-z
1/2-x,1/2+y,1/2-z
1/2-y,1/2-x,1/2+z
1/2+y,1/2+x,1/2+z
loop_
_atom_site_type_symbol
_atom_site_label
_atom_site_fract_x
_atom_site_fract_y
_atom_site_fract_z
Si Si1 0.500000 0.500000 0.000000
Si Si2 0.287079 0.127336 0.825195
Si Si3 0.215668 0.706776 0.442077
Si Si4 0.000000 0.500000 0.091191
Si Si5 0.500000 0.500000 0.500000
Si Si6 0.782098 0.374154 0.333964
Si Si7 0.500000 0.000000 0.743017
O O1 0.556073 0.680787 0.030851
O O2 0.394269 0.146391 0.874582
O O3 0.088360 0.222449 0.825636
O O4 0.236160 0.906820 0.824102
O O5 0.425433 0.154725 0.781168
O O6 0.316039 0.534909 0.468153
O O7 0.162424 0.657118 0.388213
O O8 0.386841 0.851485 0.437792
O O9 0.942700 0.339885 0.295735
#
# Coordination Sequence:
#
# PCOD9556034 Si02
#       7
#     2   8   8   4   2   8   4
#     4  12  28  44  64 100 138 160 216 300 356 380
#     4   9  19  36  57  85 122 162 207 254 308 387
#     4  11  24  42  65  93 125 169 219 280 338 397
#     4   9  18  38  63  86 120 164 211 266 328 387
#     4  12  24  44  72  88 114 176 236 264 328 420
#     4  10  21  37  57  84 121 164 208 251 317 396
#     4  11  20  32  57  88 120 158 201 260 312 369
#
# _framework density 24.627407000000002
#
# number of rings (size 3 to 8) (size 9 to 14) (size 15 to 20)
#    0.000    1.778    0.000    5.333    0.000    3.556 
#    0.000    4.444    0.000    0.000    0.000    0.000 
#    0.000    0.000    0.000    0.000    0.000    0.000 
#
# Total GULP energy -200430.398413 kJ/mol
# GULP energy per Si atom -5567.511067 kJ/mol
# Density = 2.457135 g / cm^3
# Si number density = 24.627407 Si / 1000 Ang^3
#
#
#
# Elastic Constant Matrix: (Units=GPa)
#
#
# Indices 1 2 3 4 5 6 
#
# 1 65.8932 19.1198 29.8863 0.0000 0.0000 0.0000
# 2 19.1198 65.8932 29.8863 0.0000 0.0000 0.0000
# 3 29.8863 29.8863 138.0125 0.0000 0.0000 0.0000
# 4 0.0000 0.0000 0.0000 -1.8422 0.0000 0.0000
# 5 0.0000 0.0000 0.0000 0.0000 -1.8422 0.0000
# 6 0.0000 0.0000 0.0000 0.0000 0.0000 33.5376
#
#
#
# Elastic Compliance Matrix: (Units=1/GPa)
#
#
# Indices 1 2 3 4 5 6 
#
# 1 0.017628 -0.003752 -0.003005 0.000000 0.000000 0.000000
# 2 -0.003752 0.017628 -0.003005 0.000000 0.000000 0.000000
# 3 -0.003005 -0.003005 0.008547 0.000000 0.000000 0.000000
# 4 0.000000 0.000000 0.000000 -0.542821 0.000000 0.000000
# 5 0.000000 0.000000 0.000000 0.000000 -0.542821 0.000000
# 6 0.000000 0.000000 0.000000 0.000000 0.000000 0.029817
#
#
# Mechanical properties :
#
#
# Convention : Reuss Voigt Hill
#
# Bulk Modulus (GPa) = 41.18748 47.50931 44.34840
# Shear Modulus (GPa) = -5.07920 18.69773 6.80926
#
# Velocity S-wave (km/s) = -1.43767 2.75839 1.66461
# Velocity P-wave (km/s) = 3.74228 5.42937 4.66277
#
# Compressibility (1/GPa) = 0.02427922
#
# Stress axis : x y z
#
# Youngs Moduli (GPa) = 56.72925 56.72925 116.99945
#
# Poissons Ratio (x) = 0.21285 0.35155
# Poissons Ratio (y) = 0.21285 0.35155
# Poissons Ratio (z) = 0.17045 0.17045
#
# Static dielectric constant tensor:
#      x y z
#    x 2.220370 0.000000 0.000000 
#    y 0.000000 2.220370 0.000000 
#    z 0.000000 0.000000 1.976890 
# 
# From -- ./inp_files/3627.got.cif
#   From: 2010.05.17/outbox.cif.g08.bks.cpg/sg114_2_cif.got.tgz:3627.got - 2010.05.20 11:04:54.
