data_PCOD9556481
_publ_section_title
;
Structure prediction by ZEFSAII (Michael W. Deem and Ramdas Pophale) SiO2 
 PCOD9556481
Probable space group: P -4 21 C
;
_chemical_formula_sum "Si O2"
_cell_formula_units_Z 42
_cell_length_a 13.930891
_cell_length_b 13.930891
_cell_length_c 9.392272
_cell_angle_alpha 90.000000
_cell_angle_beta 90.000000
_cell_angle_gamma 90.000000
_cell_volume 1822.755635
_symmetry_space_group_name_H-M "P -4 21 C"
_symmetry_group_IT_number 114
_symmetry_cell_setting 'tetragonal'
loop_
_space_group_symop_operation_xyz
x,y,z
y,-x,-z
-x,-y,z
-y,x,-z
1/2+x,1/2-y,1/2-z
1/2-x,1/2+y,1/2-z
1/2-y,1/2-x,1/2+z
1/2+y,1/2+x,1/2+z
loop_
_atom_site_type_symbol
_atom_site_label
_atom_site_fract_x
_atom_site_fract_y
_atom_site_fract_z
Si Si1 0.960681 0.801134 0.162758
Si Si2 0.137307 0.681339 0.127595
Si Si3 0.260576 0.252686 0.122291
Si Si4 0.500000 0.500000 0.500000
Si Si5 0.912294 0.686616 0.421230
Si Si6 0.109459 0.479568 0.208111
O O1 0.847112 0.790802 0.132617
O O2 0.967970 0.766525 0.328033
O O3 0.029102 0.717275 0.098987
O O4 0.992786 0.904041 0.099724
O O5 0.189867 0.761365 0.224718
O O6 0.156325 0.584302 0.216409
O O7 0.187224 0.674023 0.977498
O O8 0.247409 0.345821 0.026425
O O9 0.864997 0.611964 0.306331
O O10 0.961485 0.619928 0.539233
O O11 0.000000 0.500000 0.244135
#
# Coordination Sequence:
#
# PCOD9556481 Si02
#       6
#     8   8   8   2   8   8
#     4  12  25  47  73 102 144 190 254 296 360 443
#     4  12  26  44  73 107 145 190 239 304 368 437
#     4  12  25  47  71 104 146 193 241 295 371 436
#     4  12  28  48  76 102 140 212 260 294 356 460
#     4  12  24  47  72 111 149 188 240 307 376 449
#     4  12  25  41  76 114 150 182 237 308 389 444
#
# _framework density 23.042036
#
# number of rings (size 3 to 8) (size 9 to 14) (size 15 to 20)
#    0.000    0.000    7.619    1.714    5.333    0.000 
#    3.429    0.000    0.000    0.000    0.000    0.000 
#    0.000    0.000    0.000    0.000    0.000    0.000 
#
# Total GULP energy -234026.352082 kJ/mol
# GULP energy per Si atom -5572.056002 kJ/mol
# Density = 2.298959 g / cm^3
# Si number density = 23.042036 Si / 1000 Ang^3
#
#
#
# Elastic Constant Matrix: (Units=GPa)
#
#
# Indices 1 2 3 4 5 6 
#
# 1 72.3983 16.6129 22.6102 0.0000 0.0000 0.0000
# 2 16.6129 72.3983 22.6102 0.0000 0.0000 0.0000
# 3 22.6102 22.6102 121.9306 0.0000 0.0000 0.0000
# 4 0.0000 0.0000 0.0000 30.3591 0.0000 0.0000
# 5 0.0000 0.0000 0.0000 0.0000 30.3591 0.0000
# 6 0.0000 0.0000 0.0000 0.0000 0.0000 31.9563
#
#
#
# Elastic Compliance Matrix: (Units=1/GPa)
#
#
# Indices 1 2 3 4 5 6 
#
# 1 0.015164 -0.002761 -0.002300 0.000000 0.000000 0.000000
# 2 -0.002761 0.015164 -0.002300 0.000000 0.000000 0.000000
# 3 -0.002300 -0.002300 0.009054 0.000000 0.000000 0.000000
# 4 0.000000 0.000000 0.000000 0.032939 0.000000 0.000000
# 5 0.000000 0.000000 0.000000 0.000000 0.032939 0.000000
# 6 0.000000 0.000000 0.000000 0.000000 0.000000 0.031293
#
#
# Mechanical properties :
#
#
# Convention : Reuss Voigt Hill
#
# Bulk Modulus (GPa) = 40.55062 43.37710 41.96386
# Shear Modulus (GPa) = 31.34859 32.19450 31.77154
#
# Velocity S-wave (km/s) = 3.69249 3.74198 3.71732
# Velocity P-wave (km/s) = 5.98465 6.12666 6.05607
#
# Compressibility (1/GPa) = 0.02466054
#
# Stress axis : x y z
#
# Youngs Moduli (GPa) = 65.94392 65.94392 110.44389
#
# Poissons Ratio (x) = 0.18210 0.25402
# Poissons Ratio (y) = 0.18210 0.25402
# Poissons Ratio (z) = 0.15167 0.15167
#
# Static dielectric constant tensor:
#      x y z
#    x 2.011240 0.000000 0.000000 
#    y 0.000000 2.011240 0.000000 
#    z 0.000000 0.000000 1.845070 
# 
# From -- ./inp_files/821.got.cif
#   From: 2010.05.17/outbox.cif.g08.bks.cpg/sg114_1_cif.got.tgz:821.got - 2010.05.20 11:04:54.
