data_PCOD9556450
_publ_section_title
;
Structure prediction by ZEFSAII (Michael W. Deem and Ramdas Pophale) SiO2 
 PCOD9556450
Probable space group: P -4 21 C
;
_chemical_formula_sum "Si O2"
_cell_formula_units_Z 34
_cell_length_a 9.110062
_cell_length_b 9.110062
_cell_length_c 17.839378
_cell_angle_alpha 90.000000
_cell_angle_beta 90.000000
_cell_angle_gamma 90.000000
_cell_volume 1480.547595
_symmetry_space_group_name_H-M "P -4 21 C"
_symmetry_group_IT_number 114
_symmetry_cell_setting 'tetragonal'
loop_
_space_group_symop_operation_xyz
x,y,z
y,-x,-z
-x,-y,z
-y,x,-z
1/2+x,1/2-y,1/2-z
1/2-x,1/2+y,1/2-z
1/2-y,1/2-x,1/2+z
1/2+y,1/2+x,1/2+z
loop_
_atom_site_type_symbol
_atom_site_label
_atom_site_fract_x
_atom_site_fract_y
_atom_site_fract_z
Si Si1 0.500000 0.500000 0.500000
Si Si2 0.943353 0.332058 0.317432
Si Si3 0.624130 0.369112 0.075343
Si Si4 0.423136 0.143962 0.346997
Si Si5 0.273679 0.308022 0.564524
O O1 0.438083 0.356205 0.540703
O O2 0.908590 0.274663 0.232767
O O3 0.799715 0.298261 0.366303
O O4 0.000000 0.500000 0.325685
O O5 0.064430 0.239092 0.361326
O O6 0.500000 0.500000 0.071104
O O7 0.779793 0.412382 0.110112
O O8 0.675079 0.275962 0.999926
O O9 0.537395 0.212525 0.404973
O O10 0.500000 0.000000 0.318403
#
# Coordination Sequence:
#
# PCOD9556450 Si02
#       5
#     2   8   8   8   8
#     4  12  24  48  76 112 152 208 262 316 388 468
#     4  11  27  48  74 115 157 206 260 323 398 468
#     4  12  28  47  79 117 157 206 264 331 394 469
#     4  11  26  50  74 107 156 206 262 324 392 474
#     4  12  26  46  78 113 155 207 264 327 391 470
#
# _framework density 22.964478
#
# number of rings (size 3 to 8) (size 9 to 14) (size 15 to 20)
#    0.000    0.471    2.353    4.235    6.588    1.882 
#    4.235    0.000    0.000    0.000    0.000    0.000 
#    0.000    0.000    0.000    0.000    0.000    0.000 
#
# Total GULP energy -189282.768929 kJ/mol
# GULP energy per Si atom -5567.140263 kJ/mol
# Density = 2.291221 g / cm^3
# Si number density = 22.964478 Si / 1000 Ang^3
#
#
#
# Elastic Constant Matrix: (Units=GPa)
#
#
# Indices 1 2 3 4 5 6 
#
# 1 110.3426 35.1510 53.8982 0.0000 0.0000 0.0000
# 2 35.1510 110.3426 53.8982 0.0000 0.0000 0.0000
# 3 53.8982 53.8982 175.3191 0.0000 0.0000 0.0000
# 4 0.0000 0.0000 0.0000 38.3715 0.0000 0.0000
# 5 0.0000 0.0000 0.0000 0.0000 38.3715 0.0000
# 6 0.0000 0.0000 0.0000 0.0000 0.0000 51.3314
#
#
#
# Elastic Compliance Matrix: (Units=1/GPa)
#
#
# Indices 1 2 3 4 5 6 
#
# 1 0.011100 -0.002199 -0.002736 0.000000 0.000000 0.000000
# 2 -0.002199 0.011100 -0.002736 0.000000 0.000000 0.000000
# 3 -0.002736 -0.002736 0.007386 0.000000 0.000000 0.000000
# 4 0.000000 0.000000 0.000000 0.026061 0.000000 0.000000
# 5 0.000000 0.000000 0.000000 0.000000 0.026061 0.000000
# 6 0.000000 0.000000 0.000000 0.000000 0.000000 0.019481
#
#
# Mechanical properties :
#
#
# Convention : Reuss Voigt Hill
#
# Bulk Modulus (GPa) = 70.21405 75.76658 72.99032
# Shear Modulus (GPa) = 41.22667 42.48534 41.85601
#
# Velocity S-wave (km/s) = 4.24162 4.30588 4.27387
# Velocity P-wave (km/s) = 7.39120 7.60167 7.49718
#
# Compressibility (1/GPa) = 0.01424216
#
# Stress axis : x y z
#
# Youngs Moduli (GPa) = 90.09086 90.09086 135.38577
#
# Poissons Ratio (x) = 0.19815 0.37045
# Poissons Ratio (y) = 0.19815 0.37045
# Poissons Ratio (z) = 0.24651 0.24651
#
# Static dielectric constant tensor:
#      x y z
#    x 2.871160 0.000000 0.000000 
#    y 0.000000 2.871160 0.000000 
#    z 0.000000 0.000000 1.986070 
# 
# From -- ./inp_files/2954.got.cif
#   From: 2010.05.17/outbox.cif.g08.bks.cpg/sg114_2_cif.got.tgz:2954.got - 2010.05.20 11:04:54.
