data_PCOD9556273
_publ_section_title
;
Structure prediction by ZEFSAII (Michael W. Deem and Ramdas Pophale) SiO2 
 PCOD9556273
Probable space group: P -4 21 C
;
_chemical_formula_sum "Si O2"
_cell_formula_units_Z 36
_cell_length_a 14.910623
_cell_length_b 14.910623
_cell_length_c 7.632422
_cell_angle_alpha 90.000000
_cell_angle_beta 90.000000
_cell_angle_gamma 90.000000
_cell_volume 1696.891030
_symmetry_space_group_name_H-M "P -4 21 C"
_symmetry_group_IT_number 114
_symmetry_cell_setting 'tetragonal'
loop_
_space_group_symop_operation_xyz
x,y,z
y,-x,-z
-x,-y,z
-y,x,-z
1/2+x,1/2-y,1/2-z
1/2-x,1/2+y,1/2-z
1/2-y,1/2-x,1/2+z
1/2+y,1/2+x,1/2+z
loop_
_atom_site_type_symbol
_atom_site_label
_atom_site_fract_x
_atom_site_fract_y
_atom_site_fract_z
Si Si1 0.888363 0.910465 0.441775
Si Si2 0.019717 0.657856 0.148655
Si Si3 0.818717 0.225233 0.263558
Si Si4 0.132420 0.195953 0.104610
Si Si5 0.500000 0.000000 0.610900
O O1 0.816821 0.858212 0.559187
O O2 0.882413 0.887700 0.235997
O O3 0.985221 0.879870 0.513581
O O4 0.115964 0.693254 0.210169
O O5 0.028931 0.589328 0.989301
O O6 0.954798 0.741041 0.112876
O O7 0.974187 0.589875 0.286018
O O8 0.717832 0.253745 0.308597
O O9 0.823464 0.158767 0.096143
#
# Coordination Sequence:
#
# PCOD9556273 Si02
#       5
#     8   8   8   8   4
#     4  11  26  46  68  98 138 181 226 282 340 407
#     4  11  24  46  65 106 136 176 233 280 342 417
#     4  12  25  44  70 104 138 182 228 280 347 409
#     4  12  25  44  70 104 138 182 228 280 347 409
#     4  10  24  42  72  94 140 178 220 290 348 394
#
# _framework density 21.215268999999999
#
# number of rings (size 3 to 8) (size 9 to 14) (size 15 to 20)
#    0.000    0.667    4.444    2.667    3.111    0.000 
#    4.000    2.222    0.000    0.000    0.000    0.000 
#    0.000    0.000    0.000    0.000    0.000    0.000 
#
# Total GULP energy -201137.553401 kJ/mol
# GULP energy per Si atom -5587.154261 kJ/mol
# Density = 2.116698 g / cm^3
# Si number density = 21.215269 Si / 1000 Ang^3
#
#
#
# Elastic Constant Matrix: (Units=GPa)
#
#
# Indices 1 2 3 4 5 6 
#
# 1 81.2628 -47.8736 -9.6362 0.0000 0.0000 0.0000
# 2 -47.8736 81.2628 -9.6362 0.0000 0.0000 0.0000
# 3 -9.6362 -9.6362 59.7042 0.0000 0.0000 0.0000
# 4 0.0000 0.0000 0.0000 27.2926 0.0000 0.0000
# 5 0.0000 0.0000 0.0000 0.0000 27.2926 0.0000
# 6 0.0000 0.0000 0.0000 0.0000 0.0000 64.4499
#
#
#
# Elastic Compliance Matrix: (Units=1/GPa)
#
#
# Indices 1 2 3 4 5 6 
#
# 1 0.020385 0.012641 0.005330 0.000000 0.000000 0.000000
# 2 0.012641 0.020385 0.005330 0.000000 0.000000 0.000000
# 3 0.005330 0.005330 0.018470 0.000000 0.000000 0.000000
# 4 0.000000 0.000000 0.000000 0.036640 0.000000 0.000000
# 5 0.000000 0.000000 0.000000 0.000000 0.036640 0.000000
# 6 0.000000 0.000000 0.000000 0.000000 0.000000 0.015516
#
#
# Mechanical properties :
#
#
# Convention : Reuss Voigt Hill
#
# Bulk Modulus (GPa) = 9.44782 9.77090 9.60936
# Shear Modulus (GPa) = 36.57293 43.09872 39.83582
#
# Velocity S-wave (km/s) = 4.15649 4.51210 4.33794
# Velocity P-wave (km/s) = 5.24387 5.63569 5.44331
#
# Compressibility (1/GPa) = 0.10584452
#
# Stress axis : x y z
#
# Youngs Moduli (GPa) = 49.05538 49.05538 54.14223
#
# Poissons Ratio (x) = -0.62013 -0.28860
# Poissons Ratio (y) = -0.62013 -0.28860
# Poissons Ratio (z) = -0.26149 -0.26149
#
# Static dielectric constant tensor:
#      x y z
#    x 1.722840 0.000000 0.000000 
#    y 0.000000 1.722840 0.000000 
#    z 0.000000 0.000000 1.804990 
# 
# From -- ./inp_files/705.got.cif
#   From: 2010.05.17/outbox.cif.g08.bks.cpg/sg114_1_cif.got.tgz:705.got - 2010.05.20 11:04:54.
