data_PCOD9556253
_publ_section_title
;
Structure prediction by ZEFSAII (Michael W. Deem and Ramdas Pophale) SiO2 
 PCOD9556253
Probable space group: P -4 21 C
;
_chemical_formula_sum "Si O2"
_cell_formula_units_Z 52
_cell_length_a 17.359969
_cell_length_b 17.359969
_cell_length_c 7.397642
_cell_angle_alpha 90.000000
_cell_angle_beta 90.000000
_cell_angle_gamma 90.000000
_cell_volume 2229.416448
_symmetry_space_group_name_H-M "P -4 21 C"
_symmetry_group_IT_number 114
_symmetry_cell_setting 'tetragonal'
loop_
_space_group_symop_operation_xyz
x,y,z
y,-x,-z
-x,-y,z
-y,x,-z
1/2+x,1/2-y,1/2-z
1/2-x,1/2+y,1/2-z
1/2-y,1/2-x,1/2+z
1/2+y,1/2+x,1/2+z
loop_
_atom_site_type_symbol
_atom_site_label
_atom_site_fract_x
_atom_site_fract_y
_atom_site_fract_z
Si Si1 0.500000 0.000000 0.322837
Si Si2 0.051722 0.796042 0.852307
Si Si3 0.133579 0.773000 0.499747
Si Si4 0.876549 0.508938 0.921491
Si Si5 0.783588 0.648158 0.880399
Si Si6 0.618196 0.291448 0.500439
Si Si7 0.802508 0.390500 0.645672
O O1 0.452110 0.940658 0.204772
O O2 0.431132 0.034966 0.439358
O O3 0.127187 0.843231 0.931029
O O4 0.066831 0.716390 0.959367
O O5 0.063390 0.792707 0.635689
O O6 0.964405 0.813899 0.913258
O O7 0.202459 0.830988 0.533961
O O8 0.163075 0.691237 0.584605
O O9 0.124465 0.769528 0.284054
O O10 0.823367 0.577338 0.983976
O O11 0.841403 0.447288 0.788849
O O12 0.760852 0.614559 0.683276
O O13 0.832865 0.728009 0.881610
#
# Coordination Sequence:
#
# PCOD9556253 Si02
#       7
#     4   8   8   8   8   8   8
#     4  10  24  38  52  88 130 176 206 254 332 406
#     4  11  25  44  66 101 136 176 226 284 340 400
#     4  11  23  40  68  96 130 175 224 281 335 394
#     4  11  23  38  59  87 131 170 214 264 326 404
#     4  11  22  40  66  95 129 169 227 277 325 401
#     4  11  24  44  70 100 137 177 230 281 346 398
#     4  12  21  40  63  94 128 173 219 274 333 401
#
# _framework density 23.324489
#
# number of rings (size 3 to 8) (size 9 to 14) (size 15 to 20)
#    0.000    0.923    4.615    2.769    0.000    4.000 
#    0.000    0.000    0.000    0.000    0.000    2.154 
#    0.000    0.000    0.000    0.000    0.000    0.000 
#
# Total GULP energy -289485.649443 kJ/mol
# GULP energy per Si atom -5567.031720 kJ/mol
# Density = 2.327140 g / cm^3
# Si number density = 23.324489 Si / 1000 Ang^3
#
#
#
# Elastic Constant Matrix: (Units=GPa)
#
#
# Indices 1 2 3 4 5 6 
#
# 1 71.9393 17.0021 -5.1491 0.0000 0.0000 0.0000
# 2 17.0021 71.9393 -5.1491 0.0000 0.0000 0.0000
# 3 -5.1491 -5.1491 68.8804 0.0000 0.0000 0.0000
# 4 0.0000 0.0000 0.0000 24.5026 0.0000 0.0000
# 5 0.0000 0.0000 0.0000 0.0000 24.5026 0.0000
# 6 0.0000 0.0000 0.0000 0.0000 0.0000 28.6546
#
#
#
# Elastic Compliance Matrix: (Units=1/GPa)
#
#
# Indices 1 2 3 4 5 6 
#
# 1 0.014772 -0.003431 0.000848 0.000000 0.000000 0.000000
# 2 -0.003431 0.014772 0.000848 0.000000 0.000000 0.000000
# 3 0.000848 0.000848 0.014645 0.000000 0.000000 0.000000
# 4 0.000000 0.000000 0.000000 0.040812 0.000000 0.000000
# 5 0.000000 0.000000 0.000000 0.000000 0.040812 0.000000
# 6 0.000000 0.000000 0.000000 0.000000 0.000000 0.034898
#
#
# Mechanical properties :
#
#
# Convention : Reuss Voigt Hill
#
# Bulk Modulus (GPa) = 24.55853 25.12964 24.84409
# Shear Modulus (GPa) = 28.12875 29.26897 28.69886
#
# Velocity S-wave (km/s) = 3.47648 3.54624 3.51154
# Velocity P-wave (km/s) = 5.16396 5.25025 5.20728
#
# Compressibility (1/GPa) = 0.04071904
#
# Stress axis : x y z
#
# Youngs Moduli (GPa) = 67.69539 67.69539 68.28424
#
# Poissons Ratio (x) = 0.23223 -0.05789
# Poissons Ratio (y) = 0.23223 -0.05789
# Poissons Ratio (z) = -0.05739 -0.05739
#
# Static dielectric constant tensor:
#      x y z
#    x 2.031660 0.000000 0.000000 
#    y 0.000000 2.031660 0.000000 
#    z 0.000000 0.000000 1.972370 
# 
# From -- ./inp_files/994.got.cif
#   From: 2010.05.17/outbox.cif.g08.bks.cpg/sg114_1_cif.got.tgz:994.got - 2010.05.20 11:04:54.
