data_PCOD9556428
_publ_section_title
;
Structure prediction by ZEFSAII (Michael W. Deem and Ramdas Pophale) SiO2 
 PCOD9556428
Probable space group: P -4 21 C
;
_chemical_formula_sum "Si O2"
_cell_formula_units_Z 34
_cell_length_a 8.512128
_cell_length_b 8.512128
_cell_length_c 19.651743
_cell_angle_alpha 90.000000
_cell_angle_beta 90.000000
_cell_angle_gamma 90.000000
_cell_volume 1423.893040
_symmetry_space_group_name_H-M "P -4 21 C"
_symmetry_group_IT_number 114
_symmetry_cell_setting 'tetragonal'
loop_
_space_group_symop_operation_xyz
x,y,z
y,-x,-z
-x,-y,z
-y,x,-z
1/2+x,1/2-y,1/2-z
1/2-x,1/2+y,1/2-z
1/2-y,1/2-x,1/2+z
1/2+y,1/2+x,1/2+z
loop_
_atom_site_type_symbol
_atom_site_label
_atom_site_fract_x
_atom_site_fract_y
_atom_site_fract_z
Si Si1 0.202568 0.378115 0.328499
Si Si2 0.285752 0.144445 0.714082
Si Si3 0.294772 0.236990 0.460409
Si Si4 0.176768 0.925816 0.411882
Si Si5 0.000000 0.000000 0.000000
O O1 0.234922 0.557678 0.309499
O O2 0.326012 0.267778 0.290525
O O3 0.194167 0.345267 0.408561
O O4 0.036480 0.326781 0.297819
O O5 0.146106 0.189125 0.662847
O O6 0.209151 0.204267 0.531981
O O7 0.454959 0.335943 0.464444
O O8 0.297012 0.066364 0.426181
O O9 0.000000 0.000000 0.419380
#
# Coordination Sequence:
#
# PCOD9556428 Si02
#       5
#     8   8   8   8   2
#     4  11  25  44  71 104 153 196 252 320 378 464
#     4  11  25  44  71 109 146 199 253 313 389 452
#     4  12  24  47  72 109 145 195 251 317 386 457
#     4  12  22  46  81 108 140 200 262 314 379 464
#     4  12  32  44  64 112 156 192 236 326 388 468
#
# _framework density 23.878195999999999
#
# number of rings (size 3 to 8) (size 9 to 14) (size 15 to 20)
#    0.000    0.471    4.706    2.824    0.000    6.588 
#    0.000    0.000    0.000    0.000    0.000    0.000 
#    0.000    0.000    0.000    0.000    0.000    0.000 
#
# Total GULP energy -190205.789761 kJ/mol
# GULP energy per Si atom -5594.287934 kJ/mol
# Density = 2.382385 g / cm^3
# Si number density = 23.878196 Si / 1000 Ang^3
#
#
#
# Elastic Constant Matrix: (Units=GPa)
#
#
# Indices 1 2 3 4 5 6 
#
# 1 60.7187 21.6206 11.5961 0.0000 0.0000 0.0000
# 2 21.6206 60.7187 11.5961 0.0000 0.0000 0.0000
# 3 11.5961 11.5961 87.6454 0.0000 0.0000 0.0000
# 4 0.0000 0.0000 0.0000 29.5047 0.0000 0.0000
# 5 0.0000 0.0000 0.0000 0.0000 29.5047 0.0000
# 6 0.0000 0.0000 0.0000 0.0000 0.0000 48.8252
#
#
#
# Elastic Compliance Matrix: (Units=1/GPa)
#
#
# Indices 1 2 3 4 5 6 
#
# 1 0.019096 -0.006481 -0.001669 0.000000 0.000000 0.000000
# 2 -0.006481 0.019096 -0.001669 0.000000 0.000000 0.000000
# 3 -0.001669 -0.001669 0.011851 0.000000 0.000000 0.000000
# 4 0.000000 0.000000 0.000000 0.033893 0.000000 0.000000
# 5 0.000000 0.000000 0.000000 0.000000 0.033893 0.000000
# 6 0.000000 0.000000 0.000000 0.000000 0.000000 0.020481
#
#
# Mechanical properties :
#
#
# Convention : Reuss Voigt Hill
#
# Bulk Modulus (GPa) = 32.88930 33.18983 33.03956
# Shear Modulus (GPa) = 29.74722 32.51825 31.13274
#
# Velocity S-wave (km/s) = 3.53340 3.69431 3.61475
# Velocity P-wave (km/s) = 5.51818 5.66808 5.59363
#
# Compressibility (1/GPa) = 0.03040503
#
# Stress axis : x y z
#
# Youngs Moduli (GPa) = 52.36742 52.36742 84.37919
#
# Poissons Ratio (x) = 0.33939 0.14083
# Poissons Ratio (y) = 0.33939 0.14083
# Poissons Ratio (z) = 0.08740 0.08740
#
# Static dielectric constant tensor:
#      x y z
#    x 1.965780 0.000000 0.000000 
#    y 0.000000 1.965780 0.000000 
#    z 0.000000 0.000000 1.884490 
# 
# From -- ./inp_files/2921.got.cif
#   From: 2010.05.17/outbox.cif.g08.bks.cpg/sg114_2_cif.got.tgz:2921.got - 2010.05.20 11:04:54.
