data_PCOD9556170
_publ_section_title
;
Structure prediction by ZEFSAII (Michael W. Deem and Ramdas Pophale) SiO2 
 PCOD9556170
Probable space group: P -4 21 C
;
_chemical_formula_sum "Si O2"
_cell_formula_units_Z 48
_cell_length_a 9.024710
_cell_length_b 9.024710
_cell_length_c 28.573301
_cell_angle_alpha 90.000000
_cell_angle_beta 90.000000
_cell_angle_gamma 90.000000
_cell_volume 2327.163660
_symmetry_space_group_name_H-M "P -4 21 C"
_symmetry_group_IT_number 114
_symmetry_cell_setting 'tetragonal'
loop_
_space_group_symop_operation_xyz
x,y,z
y,-x,-z
-x,-y,z
-y,x,-z
1/2+x,1/2-y,1/2-z
1/2-x,1/2+y,1/2-z
1/2-y,1/2-x,1/2+z
1/2+y,1/2+x,1/2+z
loop_
_atom_site_type_symbol
_atom_site_label
_atom_site_fract_x
_atom_site_fract_y
_atom_site_fract_z
Si Si1 0.635299 0.757700 0.067124
Si Si2 0.010148 0.331711 0.528932
Si Si3 0.151826 0.157605 0.394368
Si Si4 0.588269 0.348824 0.728127
Si Si5 0.671201 0.012241 0.138206
Si Si6 0.340890 0.068347 0.305051
O O1 0.764101 0.668268 0.041850
O O2 0.525920 0.654393 0.098071
O O3 0.695186 0.882052 0.101482
O O4 0.533645 0.820362 0.025301
O O5 0.901146 0.230201 0.559296
O O6 0.000000 0.500000 0.544292
O O7 0.183143 0.331754 0.387726
O O8 0.229658 0.085527 0.349086
O O9 0.500000 0.500000 0.739087
O O10 0.515821 0.282415 0.681061
O O11 0.766035 0.360274 0.718258
O O12 0.545919 0.233984 0.768857
O O13 0.500000 0.000000 0.155347
O O14 0.500000 0.000000 0.318884
#
# Coordination Sequence:
#
# PCOD9556170 Si02
#       6
#     8   8   8   8   8   8
#     4  11  23  41  66  92 129 170 219 271 333 394
#     4  12  24  39  63  92 126 167 215 274 324 389
#     4  10  22  41  66  95 128 164 219 266 329 391
#     4  11  24  41  68  97 136 176 223 277 337 400
#     4   9  21  42  66  91 127 176 212 268 326 397
#     4  11  24  44  67  99 136 175 224 278 334 407
#
# _framework density 20.625965000000001
#
# number of rings (size 3 to 8) (size 9 to 14) (size 15 to 20)
#    0.000    1.333    1.667    4.000    0.000    9.333 
#    0.000    0.000    0.000    0.000    0.000    0.000 
#    0.000    0.000    0.000    0.000    0.000    0.000 
#
# Total GULP energy -268204.611578 kJ/mol
# GULP energy per Si atom -5587.596075 kJ/mol
# Density = 2.057902 g / cm^3
# Si number density = 20.625965 Si / 1000 Ang^3
#
#
#
# Elastic Constant Matrix: (Units=GPa)
#
#
# Indices 1 2 3 4 5 6 
#
# 1 78.5328 22.3201 21.8581 0.0000 0.0000 0.0000
# 2 22.3201 78.5328 21.8581 0.0000 0.0000 0.0000
# 3 21.8581 21.8581 81.9605 0.0000 0.0000 0.0000
# 4 0.0000 0.0000 0.0000 27.5036 0.0000 0.0000
# 5 0.0000 0.0000 0.0000 0.0000 27.5036 0.0000
# 6 0.0000 0.0000 0.0000 0.0000 0.0000 26.0488
#
#
#
# Elastic Compliance Matrix: (Units=1/GPa)
#
#
# Indices 1 2 3 4 5 6 
#
# 1 0.014501 -0.003289 -0.002990 0.000000 0.000000 0.000000
# 2 -0.003289 0.014501 -0.002990 0.000000 0.000000 0.000000
# 3 -0.002990 -0.002990 0.013796 0.000000 0.000000 0.000000
# 4 0.000000 0.000000 0.000000 0.036359 0.000000 0.000000
# 5 0.000000 0.000000 0.000000 0.000000 0.036359 0.000000
# 6 0.000000 0.000000 0.000000 0.000000 0.000000 0.038390
#
#
# Mechanical properties :
#
#
# Convention : Reuss Voigt Hill
#
# Bulk Modulus (GPa) = 41.22218 41.23320 41.22769
# Shear Modulus (GPa) = 27.69646 27.74385 27.72016
#
# Velocity S-wave (km/s) = 3.66839 3.67153 3.66996
# Velocity P-wave (km/s) = 6.16212 6.16505 6.16359
#
# Compressibility (1/GPa) = 0.02425879
#
# Stress axis : x y z
#
# Youngs Moduli (GPa) = 68.96300 68.96300 72.48579
#
# Poissons Ratio (x) = 0.22682 0.21673
# Poissons Ratio (y) = 0.22682 0.21673
# Poissons Ratio (z) = 0.20620 0.20620
#
# Static dielectric constant tensor:
#      x y z
#    x 1.770900 0.000000 0.000000 
#    y 0.000000 1.770900 0.000000 
#    z 0.000000 0.000000 1.722180 
# 
# From -- ./inp_files/3975.got.cif
#   From: 2010.05.17/outbox.cif.g08.bks.cpg/sg114_2_cif.got.tgz:3975.got - 2010.05.20 11:04:54.
