data_PCOD9556677
_publ_section_title
;
Structure prediction by ZEFSAII (Michael W. Deem and Ramdas Pophale) SiO2 
 PCOD9556677
Probable space group: P -4 M 2
;
_chemical_formula_sum "Si O2"
_cell_formula_units_Z 64
_cell_length_a 18.291492
_cell_length_b 18.291492
_cell_length_c 10.452340
_cell_angle_alpha 90.000000
_cell_angle_beta 90.000000
_cell_angle_gamma 90.000000
_cell_volume 3497.130116
_symmetry_space_group_name_H-M "P -4 M 2"
_symmetry_group_IT_number 115
_symmetry_cell_setting 'tetragonal'
loop_
_space_group_symop_operation_xyz
x,y,z
y,-x,-z
-x,-y,z
-y,x,-z
y,x,-z
-y,-x,-z
-x,y,z
x,-y,z
loop_
_atom_site_type_symbol
_atom_site_label
_atom_site_fract_x
_atom_site_fract_y
_atom_site_fract_z
Si Si1 0.147808 0.302541 0.012678
Si Si2 0.412132 0.085280 0.588838
Si Si3 0.300817 0.296049 0.649996
Si Si4 0.077686 0.421599 0.875987
Si Si5 0.810803 0.583283 0.645021
Si Si6 0.086358 0.084023 0.652327
Si Si7 0.208426 0.586951 0.199822
Si Si8 0.804963 0.190709 0.790271
O O1 0.203612 0.363016 0.072119
O O2 0.136748 0.245337 0.125889
O O3 0.082795 0.353818 0.968995
O O4 0.172732 0.254656 0.890720
O O5 0.500000 0.080424 0.571500
O O6 0.385905 0.138309 0.471696
O O7 0.400867 0.133097 0.718068
O O8 0.385366 0.000000 0.590021
O O9 0.306022 0.306022 0.500000
O O10 0.258943 0.369947 0.686545
O O11 0.376482 0.273137 0.716317
O O12 0.245333 0.230296 0.685830
O O13 0.084194 0.500000 0.945305
O O14 0.138509 0.417712 0.769290
O O15 0.000000 0.420804 0.807462
O O16 0.790869 0.500000 0.609782
O O17 0.095556 0.095556 0.500000
O O18 0.130164 0.145121 0.729097
O O19 0.000000 0.089069 0.679599
O O20 0.109390 0.000000 0.680951
O O21 0.216910 0.500000 0.179807
#
# Coordination Sequence:
#
# PCOD9556677 Si02
#       8
#     8   8   8   8   8   8   8   8
#     4  10  21  36  53  73 111 151 188 228 279 335
#     4   9  17  31  51  76 108 144 184 230 281 344
#     4  11  20  34  58  84 113 144 181 238 296 356
#     4  10  20  34  54  80 110 146 188 230 275 337
#     4  10  19  34  55  82 112 146 186 232 292 352
#     4   9  19  39  65  86 108 147 200 253 302 352
#     4  10  21  36  56  81 111 152 195 235 284 347
#     4  10  21  37  56  82 113 146 189 243 290 343
#
# _framework density 18.300720999999999
#
# number of rings (size 3 to 8) (size 9 to 14) (size 15 to 20)
#    0.000    2.125    2.500    1.500    0.000    3.000 
#    0.000    5.000    0.000    3.375    0.000    0.875 
#    0.000    0.000    0.000    0.000    0.000    0.000 
#
# Total GULP energy -356270.336820 kJ/mol
# GULP energy per Si atom -5566.724013 kJ/mol
# Density = 1.825907 g / cm^3
# Si number density = 18.300721 Si / 1000 Ang^3
#
#
#
# Elastic Constant Matrix: (Units=GPa)
#
#
# Indices 1 2 3 4 5 6 
#
# 1 85.8189 52.3675 35.2746 0.0000 0.0000 0.0000
# 2 52.3675 85.8189 35.2746 0.0000 0.0000 0.0000
# 3 35.2746 35.2746 48.3671 0.0000 0.0000 0.0000
# 4 0.0000 0.0000 0.0000 22.7176 0.0000 0.0000
# 5 0.0000 0.0000 0.0000 0.0000 22.7176 0.0000
# 6 0.0000 0.0000 0.0000 0.0000 0.0000 23.7665
#
#
#
# Elastic Compliance Matrix: (Units=1/GPa)
#
#
# Indices 1 2 3 4 5 6 
#
# 1 0.020712 -0.009182 -0.008409 0.000000 0.000000 0.000000
# 2 -0.009182 0.020712 -0.008409 0.000000 0.000000 0.000000
# 3 -0.008409 -0.008409 0.032940 0.000000 0.000000 0.000000
# 4 0.000000 0.000000 0.000000 0.044019 0.000000 0.000000
# 5 0.000000 0.000000 0.000000 0.000000 0.044019 0.000000
# 6 0.000000 0.000000 0.000000 0.000000 0.000000 0.042076
#
#
# Mechanical properties :
#
#
# Convention : Reuss Voigt Hill
#
# Bulk Modulus (GPa) = 44.71309 51.75981 48.23645
# Shear Modulus (GPa) = 18.94432 20.31287 19.62859
#
# Velocity S-wave (km/s) = 3.22089 3.33520 3.27855
# Velocity P-wave (km/s) = 6.19013 6.57083 6.38332
#
# Compressibility (1/GPa) = 0.02236482
#
# Stress axis : x y z
#
# Youngs Moduli (GPa) = 48.28156 48.28156 30.35808
#
# Poissons Ratio (x) = 0.44334 0.25527
# Poissons Ratio (y) = 0.44334 0.25527
# Poissons Ratio (z) = 0.40598 0.40598
#
# Static dielectric constant tensor:
#      x y z
#    x 1.672240 0.000000 0.000000 
#    y 0.000000 1.672240 0.000000 
#    z 0.000000 0.000000 1.675790 
# 
# From -- ./inp_files/3210.got.cif
#   From: 2010.05.17/outbox.cif.g08.bks.cpg/sg115_2_cif.got.tgz:3210.got - 2010.05.20 11:07:42.
