data_PCOD9556913
_publ_section_title
;
Structure prediction by ZEFSAII (Michael W. Deem and Ramdas Pophale) SiO2 
 PCOD9556913
Probable space group: P -4 M 2
;
_chemical_formula_sum "Si O2"
_cell_formula_units_Z 48
_cell_length_a 8.059245
_cell_length_b 8.059245
_cell_length_c 35.964368
_cell_angle_alpha 90.000000
_cell_angle_beta 90.000000
_cell_angle_gamma 90.000000
_cell_volume 2335.937130
_symmetry_space_group_name_H-M "P -4 M 2"
_symmetry_group_IT_number 115
_symmetry_cell_setting 'tetragonal'
loop_
_space_group_symop_operation_xyz
x,y,z
y,-x,-z
-x,-y,z
-y,x,-z
y,x,-z
-y,-x,-z
-x,y,z
x,-y,z
loop_
_atom_site_type_symbol
_atom_site_label
_atom_site_fract_x
_atom_site_fract_y
_atom_site_fract_z
Si Si1 0.313159 0.803950 0.539621
Si Si2 0.810737 0.197268 0.222774
Si Si3 0.309512 0.696183 0.617365
Si Si4 0.187472 0.700954 0.040379
Si Si5 0.299540 0.500000 0.909848
Si Si6 0.500000 0.800087 0.175650
Si Si7 0.310314 0.801272 0.695852
O O1 0.234954 0.765047 0.500000
O O2 0.500000 0.731236 0.538698
O O3 0.230498 0.743102 0.577864
O O4 0.323033 0.000000 0.542977
O O5 0.667846 0.263930 0.195621
O O6 0.755029 0.226067 0.265425
O O7 0.000000 0.264691 0.217999
O O8 0.821844 0.000000 0.216867
O O9 0.500000 0.767591 0.616961
O O10 0.320787 0.500000 0.618298
O O11 0.232230 0.750464 0.656472
O O12 0.197543 0.500000 0.036765
O O13 0.334063 0.754308 0.068166
O O14 0.000000 0.742460 0.052659
O O15 0.222828 0.777173 0.000000
O O16 0.500000 0.500000 0.909798
O O17 0.239896 0.500000 0.867708
O O18 0.500000 0.000000 0.180195
O O19 0.500000 0.736248 0.696588
O O20 0.315573 0.000000 0.695668
#
# Coordination Sequence:
#
# PCOD9556913 Si02
#       7
#     8   8   8   8   4   4   8
#     4  10  20  34  52  72  97 131 168 206 252 309
#     4   9  19  36  55  75 104 144 186 230 284 340
#     4   9  17  29  48  75 103 130 163 206 256 312
#     4  10  20  36  61  89 120 160 202 246 302 364
#     4  10  22  38  58  86 124 158 194 250 306 350
#     4  10  22  38  56  78 108 150 196 236 284 346
#     4   9  17  30  50  77 105 133 169 216 267 319
#
# _framework density 20.548500000000001
#
# number of rings (size 3 to 8) (size 9 to 14) (size 15 to 20)
#    0.000    2.500    0.833    1.000    1.167    5.167 
#    0.000    0.833    0.000    3.000    0.000    0.000 
#    0.000    0.000    0.000    0.000    0.000    0.000 
#
# Total GULP energy -267625.469552 kJ/mol
# GULP energy per Si atom -5575.530616 kJ/mol
# Density = 2.050173 g / cm^3
# Si number density = 20.548500 Si / 1000 Ang^3
#
#
#
# Elastic Constant Matrix: (Units=GPa)
#
#
# Indices 1 2 3 4 5 6 
#
# 1 55.1755 26.4904 51.4731 0.0000 0.0000 0.0000
# 2 26.4904 55.1757 51.4720 0.0000 0.0000 0.0000
# 3 51.4731 51.4720 184.9396 0.0000 0.0000 0.0000
# 4 0.0000 0.0000 0.0000 31.2230 0.0000 0.0000
# 5 0.0000 0.0000 0.0000 0.0000 31.2236 0.0000
# 6 0.0000 0.0000 0.0000 0.0000 0.0000 8.4334
#
#
#
# Elastic Compliance Matrix: (Units=1/GPa)
#
#
# Indices 1 2 3 4 5 6 
#
# 1 0.026862 -0.007999 -0.005250 0.000000 0.000000 0.000000
# 2 -0.007999 0.026862 -0.005250 0.000000 0.000000 0.000000
# 3 -0.005250 -0.005250 0.008329 0.000000 0.000000 0.000000
# 4 0.000000 0.000000 0.000000 0.032028 0.000000 0.000000
# 5 0.000000 0.000000 0.000000 0.000000 0.032027 0.000000
# 6 0.000000 0.000000 0.000000 0.000000 0.000000 0.118577
#
#
# Mechanical properties :
#
#
# Convention : Reuss Voigt Hill
#
# Bulk Modulus (GPa) = 39.91140 61.57353 50.74247
# Shear Modulus (GPa) = 17.23930 25.23303 21.23617
#
# Velocity S-wave (km/s) = 2.89962 3.50805 3.21824
# Velocity P-wave (km/s) = 5.53855 6.81458 6.20943
#
# Compressibility (1/GPa) = 0.02505550
#
# Stress axis : x y z
#
# Youngs Moduli (GPa) = 37.22690 37.22761 120.05530
#
# Poissons Ratio (x) = 0.29779 0.63030
# Poissons Ratio (y) = 0.29779 0.63026
# Poissons Ratio (z) = 0.19544 0.19544
#
# Static dielectric constant tensor:
#      x y z
#    x 1.748060 0.000000 0.000000 
#    y 0.000000 1.748060 0.000000 
#    z 0.000000 0.000000 1.731640 
# 
# From -- ./inp_files/6267.got.cif
#   From: 2010.05.17/outbox.cif.g08.bks.cpg/sg115_4_cif.got.tgz:6267.got - 2010.05.20 11:07:42.
