data_PCOD9556782
_publ_section_title
;
Structure prediction by ZEFSAII (Michael W. Deem and Ramdas Pophale) SiO2 
 PCOD9556782
Probable space group: P -4 M 2
;
_chemical_formula_sum "Si O2"
_cell_formula_units_Z 40
_cell_length_a 9.190327
_cell_length_b 9.190327
_cell_length_c 26.638079
_cell_angle_alpha 90.000000
_cell_angle_beta 90.000000
_cell_angle_gamma 90.000000
_cell_volume 2249.908368
_symmetry_space_group_name_H-M "P -4 M 2"
_symmetry_group_IT_number 115
_symmetry_cell_setting 'tetragonal'
loop_
_space_group_symop_operation_xyz
x,y,z
y,-x,-z
-x,-y,z
-y,x,-z
y,x,-z
-y,-x,-z
-x,y,z
x,-y,z
loop_
_atom_site_type_symbol
_atom_site_label
_atom_site_fract_x
_atom_site_fract_y
_atom_site_fract_z
Si Si1 0.677415 0.333366 0.148208
Si Si2 0.826991 0.673103 0.453061
Si Si3 0.322840 0.167751 0.247371
Si Si4 0.325768 0.828197 0.046495
Si Si5 0.825040 0.327074 0.639648
O O1 0.500000 0.331061 0.149247
O O2 0.723879 0.500000 0.143532
O O3 0.727110 0.263654 0.200662
O O4 0.721142 0.242315 0.099348
O O5 0.748544 0.748544 0.500000
O O6 0.801314 0.500000 0.454205
O O7 0.762065 0.741953 0.402482
O O8 0.000000 0.698117 0.455931
O O9 0.500000 0.168665 0.247273
O O10 0.281158 0.215448 0.303506
O O11 0.278274 0.000000 0.240189
O O12 0.500000 0.805623 0.041592
O O13 0.298343 0.000000 0.047142
O O14 0.246922 0.753079 0.000000
O O15 0.795121 0.500000 0.633989
O O16 0.000000 0.309348 0.634777
#
# Coordination Sequence:
#
# PCOD9556782 Si02
#       5
#     8   8   8   8   8
#     4   9  16  26  44  72 103 133 167 208 253 301
#     4  11  24  39  55  77 104 134 171 214 259 308
#     4   8  14  26  45  71 104 137 167 203 248 298
#     4  10  20  33  50  72  99 132 169 210 257 307
#     4   9  18  33  54  80 108 138 173 211 251 299
#
# _framework density 17.778502
#
# number of rings (size 3 to 8) (size 9 to 14) (size 15 to 20)
#    0.000    2.600    0.000    3.600    0.000    8.800 
#    0.000    2.000    0.000    1.200    0.000    5.600 
#    0.000    0.000    0.000    0.000    0.000    0.000 
#
# Total GULP energy -223124.423227 kJ/mol
# GULP energy per Si atom -5578.110581 kJ/mol
# Density = 1.773804 g / cm^3
# Si number density = 17.778502 Si / 1000 Ang^3
#
#
#
# Elastic Constant Matrix: (Units=GPa)
#
#
# Indices 1 2 3 4 5 6 
#
# 1 68.2577 61.9287 88.5142 0.0000 0.0000 0.0000
# 2 61.9287 68.2601 88.5149 0.0000 0.0000 0.0000
# 3 88.5142 88.5149 211.0394 0.0000 0.0000 0.0000
# 4 0.0000 0.0000 0.0000 1263.5480 0.0000 0.0000
# 5 0.0000 0.0000 0.0000 0.0000 1265.1185 0.0000
# 6 0.0000 0.0000 0.0000 0.0000 0.0000 20.2272
#
#
#
# Elastic Compliance Matrix: (Units=1/GPa)
#
#
# Indices 1 2 3 4 5 6 
#
# 1 0.087928 -0.070048 -0.007499 0.000000 0.000000 0.000000
# 2 -0.070048 0.087923 -0.007497 0.000000 0.000000 0.000000
# 3 -0.007499 -0.007497 0.011028 0.000000 0.000000 0.000000
# 4 0.000000 0.000000 0.000000 0.000791 0.000000 0.000000
# 5 0.000000 0.000000 0.000000 0.000000 0.000790 0.000000
# 6 0.000000 0.000000 0.000000 0.000000 0.000000 0.049438
#
#
# Mechanical properties :
#
#
# Convention : Reuss Voigt Hill
#
# Bulk Modulus (GPa) = 59.55892 91.71921 75.63907
# Shear Modulus (GPa) = 12.08942 517.01871 264.55406
#
# Velocity S-wave (km/s) = 2.61051 17.07169 12.21182
# Velocity P-wave (km/s) = 6.53143 20.98313 15.53949
#
# Compressibility (1/GPa) = 0.01679010
#
# Stress axis : x y z
#
# Youngs Moduli (GPa) = 11.37293 11.37362 90.67732
#
# Poissons Ratio (x) = 0.79670 0.67998
# Poissons Ratio (y) = 0.79666 0.67982
# Poissons Ratio (z) = 0.08528 0.08527
#
# Static dielectric constant tensor:
#      x y z
#    x 1.583000 0.000000 0.000000 
#    y 0.000000 1.583010 0.000000 
#    z 0.000000 0.000000 1.597400 
# 
# From -- ./inp_files/5095.got.cif
#   From: 2010.05.17/outbox.cif.g08.bks.cpg/sg115_3_cif.got.tgz:5095.got - 2010.05.20 11:07:42.
