data_PCOD9556654
_publ_section_title
;
Structure prediction by ZEFSAII (Michael W. Deem and Ramdas Pophale) SiO2 
 PCOD9556654
Probable space group: P -4 M 2
;
_chemical_formula_sum "Si O2"
_cell_formula_units_Z 40
_cell_length_a 8.174836
_cell_length_b 8.174836
_cell_length_c 29.298856
_cell_angle_alpha 90.000000
_cell_angle_beta 90.000000
_cell_angle_gamma 90.000000
_cell_volume 1957.982297
_symmetry_space_group_name_H-M "P -4 M 2"
_symmetry_group_IT_number 115
_symmetry_cell_setting 'tetragonal'
loop_
_space_group_symop_operation_xyz
x,y,z
y,-x,-z
-x,-y,z
-y,x,-z
y,x,-z
-y,-x,-z
-x,y,z
x,-y,z
loop_
_atom_site_type_symbol
_atom_site_label
_atom_site_fract_x
_atom_site_fract_y
_atom_site_fract_z
Si Si1 0.689086 0.805899 0.451072
Si Si2 0.000000 0.198996 0.108682
Si Si3 0.323865 0.805743 0.265220
Si Si4 0.201029 0.000000 0.786010
Si Si5 0.801727 0.686192 0.951001
Si Si6 0.183412 0.306902 0.355415
O O1 0.764102 0.764102 0.500000
O O2 0.500000 0.754863 0.451662
O O3 0.774486 0.723450 0.407987
O O4 0.698155 0.000000 0.444171
O O5 0.000000 0.250665 0.161244
O O6 0.166246 0.249254 0.082610
O O7 0.000000 0.000000 0.108432
O O8 0.500000 0.737376 0.250676
O O9 0.300772 0.777851 0.319183
O O10 0.163829 0.740581 0.239540
O O11 0.326574 0.000000 0.256835
O O12 0.000000 0.000000 0.784354
O O13 0.763504 0.500000 0.935982
O O14 0.000000 0.696425 0.956026
O O15 0.722191 0.722191 0.000000
O O16 0.189184 0.500000 0.346769
O O17 0.000000 0.244925 0.346719
#
# Coordination Sequence:
#
# PCOD9556654 Si02
#       6
#     8   4   8   4   8   8
#     4  11  24  40  58  83 114 147 185 230 286 350
#     4   9  18  32  55  85 123 160 199 251 304 356
#     4  10  20  35  58  85 114 152 198 246 298 358
#     4   9  18  34  55  85 121 157 194 248 304 350
#     4  10  19  32  55  84 116 158 204 250 303 364
#     4  11  23  38  58  84 112 146 192 240 291 354
#
# _framework density 20.429195
#
# number of rings (size 3 to 8) (size 9 to 14) (size 15 to 20)
#    0.000    1.800    2.000    2.400    0.000    9.000 
#    0.000    4.000    0.000    2.400    0.000    2.800 
#    0.000    0.000    0.000    0.000    0.000    0.000 
#
# Total GULP energy -223404.954541 kJ/mol
# GULP energy per Si atom -5585.123864 kJ/mol
# Density = 2.038270 g / cm^3
# Si number density = 20.429195 Si / 1000 Ang^3
#
#
#
# Elastic Constant Matrix: (Units=GPa)
#
#
# Indices 1 2 3 4 5 6 
#
# 1 75.8554 34.8796 32.0467 0.0000 0.0000 0.0000
# 2 34.8796 75.8554 32.0467 0.0000 0.0000 0.0000
# 3 32.0467 32.0467 117.1901 0.0000 0.0000 0.0000
# 4 0.0000 0.0000 0.0000 -23.5165 0.0000 0.0000
# 5 0.0000 0.0000 0.0000 0.0000 -23.5165 0.0000
# 6 0.0000 0.0000 0.0000 0.0000 0.0000 1.1304
#
#
#
# Elastic Compliance Matrix: (Units=1/GPa)
#
#
# Indices 1 2 3 4 5 6 
#
# 1 0.017567 -0.006838 -0.002934 0.000000 0.000000 0.000000
# 2 -0.006838 0.017567 -0.002934 0.000000 0.000000 0.000000
# 3 -0.002934 -0.002934 0.010138 0.000000 0.000000 0.000000
# 4 0.000000 0.000000 0.000000 -0.042523 0.000000 0.000000
# 5 0.000000 0.000000 0.000000 0.000000 -0.042523 0.000000
# 6 0.000000 0.000000 0.000000 0.000000 0.000000 0.884608
#
#
# Mechanical properties :
#
#
# Convention : Reuss Voigt Hill
#
# Bulk Modulus (GPa) = 50.35331 51.87187 51.11259
# Shear Modulus (GPa) = 5.70214 2.14802 3.92508
#
# Velocity S-wave (km/s) = 1.67249 1.02651 1.38762
# Velocity P-wave (km/s) = 5.33206 5.18181 5.25747
#
# Compressibility (1/GPa) = 0.01985967
#
# Stress axis : x y z
#
# Youngs Moduli (GPa) = 56.92607 56.92607 98.64151
#
# Poissons Ratio (x) = 0.38926 0.28940
# Poissons Ratio (y) = 0.38926 0.28940
# Poissons Ratio (z) = 0.16701 0.16701
#
# Static dielectric constant tensor:
#      x y z
#    x 1.741130 0.000000 0.000000 
#    y 0.000000 1.741130 0.000000 
#    z 0.000000 0.000000 1.706870 
# 
# From -- ./inp_files/5523.got.cif
#   From: 2010.05.17/outbox.cif.g08.bks.cpg/sg115_3_cif.got.tgz:5523.got - 2010.05.20 11:07:42.
