data_PCOD9556515
_publ_section_title
;
Structure prediction by ZEFSAII (Michael W. Deem and Ramdas Pophale) SiO2 
 PCOD9556515
Probable space group: P -4 21 C
;
_chemical_formula_sum "Si O2"
_cell_formula_units_Z 40
_cell_length_a 9.000000
_cell_length_b 9.000000
_cell_length_c 24.000000
_cell_angle_alpha 90.000000
_cell_angle_beta 90.000000
_cell_angle_gamma 90.000000
_cell_volume 1944.000000
_symmetry_space_group_name_H-M "P -4 21 C"
_symmetry_group_IT_number 114
_symmetry_cell_setting 'tetragonal'
loop_
_space_group_symop_operation_xyz
x,y,z
y,-x,-z
-x,-y,z
-y,x,-z
1/2+x,1/2-y,1/2-z
1/2-x,1/2+y,1/2-z
1/2-y,1/2-x,1/2+z
1/2+y,1/2+x,1/2+z
loop_
_atom_site_type_symbol
_atom_site_label
_atom_site_fract_x
_atom_site_fract_y
_atom_site_fract_z
Si Si1 0.322269 0.025644 0.930570
Si Si2 0.173162 0.052271 0.578442
Si Si3 0.834777 0.564305 0.692652
Si Si4 0.295416 0.798811 0.511804
Si Si5 0.158765 0.081826 0.705688
O O1 0.280136 0.195118 0.942020
O O2 0.500000 0.000000 0.932380
O O3 0.270492 0.969275 0.869566
O O4 0.255672 0.952949 0.986988
O O5 0.181280 0.207685 0.546598
O O6 0.215362 0.047781 0.643050
O O7 0.285718 0.955363 0.542290
O O8 0.000000 0.000000 0.573125
O O9 0.845374 0.739235 0.706063
O O10 0.750706 0.481083 0.742514
O O11 0.000000 0.500000 0.690870
O O12 0.000000 0.000000 0.709164
#
# Coordination Sequence:
#
# PCOD9556515 Si02
#       5
#     8   8   8   8   8
#     4  11  24  41  67  96 133 166 213 270 325 388
#     4  11  20  37  69  94 123 164 224 260 313 398
#     4  11  25  46  68  95 132 174 227 279 336 399
#     4  12  21  41  63  98 130 168 209 268 326 394
#     4  11  25  44  69  97 130 176 225 279 334 399
#
# _framework density 20.576132000000001
#
# number of rings (size 3 to 8) (size 9 to 14) (size 15 to 20)
#    0.000    0.800    6.000    1.200   11.200    0.400 
#    7.200    0.000    0.000    0.000    0.000    0.000 
#    0.000    0.000    0.000    0.000    0.000    0.000 
#
# Total GULP energy -223060.913895 kJ/mol
# GULP energy per Si atom -5576.522847 kJ/mol
# Density = 2.052930 g / cm^3
# Si number density = 20.576132 Si / 1000 Ang^3
#
#
#
# Elastic Constant Matrix: (Units=GPa)
#
#
# Indices 1 2 3 4 5 6 
#
# 1 50.5932 6.6805 40.0431 0.0000 0.0000 0.0000
# 2 6.6805 50.5932 40.0431 0.0000 0.0000 0.0000
# 3 40.0431 40.0431 171.1366 0.0000 0.0000 0.0000
# 4 0.0000 0.0000 0.0000 38.6474 0.0000 0.0000
# 5 0.0000 0.0000 0.0000 0.0000 38.6474 0.0000
# 6 0.0000 0.0000 0.0000 0.0000 0.0000 25.2976
#
#
#
# Elastic Compliance Matrix: (Units=1/GPa)
#
#
# Indices 1 2 3 4 5 6 
#
# 1 0.024361 0.001589 -0.006072 0.000000 0.000000 0.000000
# 2 0.001589 0.024361 -0.006072 0.000000 0.000000 0.000000
# 3 -0.006072 -0.006072 0.008685 0.000000 0.000000 0.000000
# 4 0.000000 0.000000 0.000000 0.025875 0.000000 0.000000
# 5 0.000000 0.000000 0.000000 0.000000 0.025875 0.000000
# 6 0.000000 0.000000 0.000000 0.000000 0.000000 0.039529
#
#
# Mechanical properties :
#
#
# Convention : Reuss Voigt Hill
#
# Bulk Modulus (GPa) = 27.54984 49.53962 38.54473
# Shear Modulus (GPa) = 27.48819 32.88890 30.18855
#
# Velocity S-wave (km/s) = 3.65900 4.00234 3.83451
# Velocity P-wave (km/s) = 5.59190 6.74439 6.19500
#
# Compressibility (1/GPa) = 0.03629785
#
# Stress axis : x y z
#
# Youngs Moduli (GPa) = 41.04840 41.04840 115.14407
#
# Poissons Ratio (x) = -0.06523 0.69915
# Poissons Ratio (y) = -0.06523 0.69915
# Poissons Ratio (z) = 0.24925 0.24925
#
# Static dielectric constant tensor:
#      x y z
#    x 1.717720 0.000000 0.000000 
#    y 0.000000 1.717720 0.000000 
#    z 0.000000 0.000000 1.703750 
# 
# From -- ./inp_files/3333.got.cif
#   From: 2010.05.17/outbox.ucp.g08.bks.cvg/sg114_2_cif.got.tgz:3333.got - 2010.06.11 11:33:27.
