data_PCOD9556763
_publ_section_title
;
Structure prediction by ZEFSAII (Michael W. Deem and Ramdas Pophale) SiO2 
 PCOD9556763
Probable space group: P -4 M 2
;
_chemical_formula_sum "Si O2"
_cell_formula_units_Z 56
_cell_length_a 14.619161
_cell_length_b 14.619161
_cell_length_c 11.753065
_cell_angle_alpha 90.000000
_cell_angle_beta 90.000000
_cell_angle_gamma 90.000000
_cell_volume 2511.863504
_symmetry_space_group_name_H-M "P -4 M 2"
_symmetry_group_IT_number 115
_symmetry_cell_setting 'tetragonal'
loop_
_space_group_symop_operation_xyz
x,y,z
y,-x,-z
-x,-y,z
-y,x,-z
y,x,-z
-y,-x,-z
-x,y,z
x,-y,z
loop_
_atom_site_type_symbol
_atom_site_label
_atom_site_fract_x
_atom_site_fract_y
_atom_site_fract_z
Si Si1 0.845642 0.103255 0.129281
Si Si2 0.603184 0.244094 0.323680
Si Si3 0.243694 0.391217 0.287236
Si Si4 0.605072 0.901573 0.875349
Si Si5 0.894627 0.109434 0.623462
Si Si6 0.099066 0.371142 0.858179
Si Si7 0.896971 0.389735 0.490048
O O1 0.875873 0.148111 0.250303
O O2 0.737534 0.099560 0.142797
O O3 0.885168 0.000000 0.128983
O O4 0.861912 0.138089 0.000000
O O5 0.500000 0.269516 0.361110
O O6 0.669163 0.330266 0.315814
O O7 0.596802 0.188156 0.206876
O O8 0.643521 0.166670 0.407547
O O9 0.266516 0.500000 0.285037
O O10 0.193764 0.358336 0.171714
O O11 0.162537 0.375660 0.377755
O O12 0.500000 0.904594 0.832017
O O13 0.648570 0.000000 0.843077
O O14 0.601838 0.899180 0.010535
O O15 0.856485 0.143516 0.500000
O O16 0.000000 0.144468 0.632848
O O17 0.897969 0.000000 0.609322
O O18 0.000000 0.400638 0.808320
O O19 0.904157 0.500000 0.504915
O O20 0.000000 0.352771 0.485517
#
# Coordination Sequence:
#
# PCOD9556763 Si02
#       7
#     8   8   8   8   8   8   8
#     4  10  20  32  51  78 109 148 195 257 326 394
#     4  11  23  38  61  90 125 172 214 256 314 380
#     4  10  21  37  61  94 131 169 208 257 316 381
#     4   9  18  35  61  89 116 153 201 255 321 386
#     4   8  14  27  48  72 101 143 194 243 298 375
#     4  10  22  38  57  82 115 152 205 268 329 387
#     4   9  18  36  63  93 124 160 206 258 313 370
#
# _framework density 22.294203
#
# number of rings (size 3 to 8) (size 9 to 14) (size 15 to 20)
#    0.000    2.429    0.000    2.571    2.000    4.143 
#    0.000    1.429    0.000    4.286    0.000    2.000 
#    0.000   21.143    0.000    0.000    0.000    0.000 
#
# Total GULP energy -312354.111278 kJ/mol
# GULP energy per Si atom -5577.751987 kJ/mol
# Density = 2.224346 g / cm^3
# Si number density = 22.294203 Si / 1000 Ang^3
#
#
#
# Elastic Constant Matrix: (Units=GPa)
#
#
# Indices 1 2 3 4 5 6 
#
# 1 108.2041 43.4348 31.7956 0.0000 0.0000 0.0000
# 2 43.4348 108.2044 31.7953 0.0000 0.0000 0.0000
# 3 31.7956 31.7953 125.1310 0.0000 0.0000 0.0000
# 4 0.0000 0.0000 0.0000 16.4009 0.0000 0.0000
# 5 0.0000 0.0000 0.0000 0.0000 16.4010 0.0000
# 6 0.0000 0.0000 0.0000 0.0000 0.0000 6.8184
#
#
#
# Elastic Compliance Matrix: (Units=1/GPa)
#
#
# Indices 1 2 3 4 5 6 
#
# 1 0.011410 -0.004029 -0.001876 0.000000 0.000000 0.000000
# 2 -0.004029 0.011410 -0.001875 0.000000 0.000000 0.000000
# 3 -0.001876 -0.001875 0.008945 0.000000 0.000000 0.000000
# 4 0.000000 0.000000 0.000000 0.060972 0.000000 0.000000
# 5 0.000000 0.000000 0.000000 0.000000 0.060972 0.000000
# 6 0.000000 0.000000 0.000000 0.000000 0.000000 0.146663
#
#
# Mechanical properties :
#
#
# Convention : Reuss Voigt Hill
#
# Bulk Modulus (GPa) = 61.70971 61.73232 61.72101
# Shear Modulus (GPa) = 15.56014 23.55831 19.55922
#
# Velocity S-wave (km/s) = 2.64473 3.25422 2.96518
# Velocity P-wave (km/s) = 6.08818 6.47070 6.28235
#
# Compressibility (1/GPa) = 0.01620491
#
# Stress axis : x y z
#
# Youngs Moduli (GPa) = 87.64028 87.64069 111.79733
#
# Poissons Ratio (x) = 0.35312 0.20968
# Poissons Ratio (y) = 0.35311 0.20968
# Poissons Ratio (z) = 0.16437 0.16437
#
# Static dielectric constant tensor:
#      x y z
#    x 1.804010 0.000000 0.000000 
#    y 0.000000 1.804010 0.000000 
#    z 0.000000 0.000000 1.925970 
# 
# From -- ./inp_files/3076.got.cif
#   From: 2010.05.17/outbox.cif.g08.bks.cpg/sg115_2_cif.got.tgz:3076.got - 2010.05.20 11:07:42.
