data_PCOD9556735
_publ_section_title
;
Structure prediction by ZEFSAII (Michael W. Deem and Ramdas Pophale) SiO2 
 PCOD9556735
Probable space group: P -4 M 2
;
_chemical_formula_sum "Si O2"
_cell_formula_units_Z 37
_cell_length_a 8.535912
_cell_length_b 8.535912
_cell_length_c 27.078346
_cell_angle_alpha 90.000000
_cell_angle_beta 90.000000
_cell_angle_gamma 90.000000
_cell_volume 1972.976859
_symmetry_space_group_name_H-M "P -4 M 2"
_symmetry_group_IT_number 115
_symmetry_cell_setting 'tetragonal'
loop_
_space_group_symop_operation_xyz
x,y,z
y,-x,-z
-x,-y,z
-y,x,-z
y,x,-z
-y,-x,-z
-x,y,z
x,-y,z
loop_
_atom_site_type_symbol
_atom_site_label
_atom_site_fract_x
_atom_site_fract_y
_atom_site_fract_z
Si Si1 0.324378 0.500000 0.903441
Si Si2 0.824676 0.688431 0.656699
Si Si3 0.814398 0.676032 0.245762
Si Si4 0.181209 0.816073 0.140982
Si Si5 0.500000 0.500000 0.000000
Si Si6 0.308676 0.317489 0.446239
O O1 0.500000 0.500000 0.881409
O O2 0.249258 0.333937 0.887581
O O3 0.353868 0.500000 0.962563
O O4 0.826130 0.500000 0.653733
O O5 0.720748 0.734176 0.703173
O O6 0.767678 0.745740 0.603178
O O7 0.000000 0.745605 0.666331
O O8 0.769937 0.500000 0.231010
O O9 0.783804 0.785669 0.198927
O O10 0.000000 0.680978 0.254768
O O11 0.000000 0.753490 0.131837
O O12 0.174394 0.000000 0.131282
O O13 0.256264 0.256264 0.500000
O O14 0.500000 0.310844 0.447580
O O15 0.265817 0.500000 0.442044
#
# Coordination Sequence:
#
# PCOD9556735 Si02
#       6
#     4   8   8   8   1   8
#     4  10  21  41  66  92 127 169 214 257 306 356
#     4  10  20  32  48  73 106 140 176 225 284 347
#     4  10  21  36  54  79 110 149 192 235 290 353
#     4  10  21  38  62  93 129 168 210 259 316 376
#     4   8  24  44  64 100 128 168 220 252 302 344
#     4   8  14  27  47  67  89 125 175 229 281 336
#
# _framework density 18.753387
#
# number of rings (size 3 to 8) (size 9 to 14) (size 15 to 20)
#    0.324    2.162    0.000    2.919    1.514    3.892 
#    0.000    3.243    0.000    5.189    0.000    0.000 
#    0.000    0.000    0.000    0.000    0.000    0.000 
#
# Total GULP energy -205980.444358 kJ/mol
# GULP energy per Si atom -5567.039037 kJ/mol
# Density = 1.871070 g / cm^3
# Si number density = 18.753387 Si / 1000 Ang^3
#
#
#
# Elastic Constant Matrix: (Units=GPa)
#
#
# Indices 1 2 3 4 5 6 
#
# 1 56.5675 35.9128 33.9573 0.0000 0.0000 0.0000
# 2 35.9128 56.5675 33.9573 0.0000 0.0000 0.0000
# 3 33.9573 33.9573 108.4596 0.0000 0.0000 0.0000
# 4 0.0000 0.0000 0.0000-2106.3987 0.0000 0.0000
# 5 0.0000 0.0000 0.0000 0.0000-2106.3987 0.0000
# 6 0.0000 0.0000 0.0000 0.0000 0.0000 22.9626
#
#
#
# Elastic Compliance Matrix: (Units=1/GPa)
#
#
# Indices 1 2 3 4 5 6 
#
# 1 0.031228 -0.017187 -0.004396 0.000000 0.000000 0.000000
# 2 -0.017187 0.031228 -0.004396 0.000000 0.000000 0.000000
# 3 -0.004396 -0.004396 0.011973 0.000000 0.000000 0.000000
# 4 0.000000 0.000000 0.000000 -0.000475 0.000000 0.000000
# 5 0.000000 0.000000 0.000000 0.000000 -0.000475 0.000000
# 6 0.000000 0.000000 0.000000 0.000000 0.000000 0.043549
#
#
# Mechanical properties :
#
#
# Convention : Reuss Voigt Hill
#
# Bulk Modulus (GPa) = 44.50175 47.69439 46.09807
# Shear Modulus (GPa) = 28.33217 -830.11580 -400.89182
#
# Velocity S-wave (km/s) = 3.89109 -21.06204 -14.63675
# Velocity P-wave (km/s) = 6.63091 23.79058 16.15585
#
# Compressibility (1/GPa) = 0.02247103
#
# Stress axis : x y z
#
# Youngs Moduli (GPa) = 32.02221 32.02221 83.52243
#
# Poissons Ratio (x) = 0.55036 0.36718
# Poissons Ratio (y) = 0.55036 0.36718
# Poissons Ratio (z) = 0.14078 0.14078
#
# Static dielectric constant tensor:
#      x y z
#    x 2.160150 0.000000 0.000000 
#    y 0.000000 2.160150 0.000000 
#    z 0.000000 0.000000 1.635480 
# 
# From -- ./inp_files/5185.got.cif
#   From: 2010.05.17/outbox.cif.g08.bks.cpg/sg115_3_cif.got.tgz:5185.got - 2010.05.20 11:07:42.
