data_PCOD9556862
_publ_section_title
;
Structure prediction by ZEFSAII (Michael W. Deem and Ramdas Pophale) SiO2 
 PCOD9556862
Probable space group: P -4 M 2
;
_chemical_formula_sum "Si O2"
_cell_formula_units_Z 48
_cell_length_a 9.174375
_cell_length_b 9.174375
_cell_length_c 31.821884
_cell_angle_alpha 90.000000
_cell_angle_beta 90.000000
_cell_angle_gamma 90.000000
_cell_volume 2678.421139
_symmetry_space_group_name_H-M "P -4 M 2"
_symmetry_group_IT_number 115
_symmetry_cell_setting 'tetragonal'
loop_
_space_group_symop_operation_xyz
x,y,z
y,-x,-z
-x,-y,z
-y,x,-z
y,x,-z
-y,-x,-z
-x,y,z
x,-y,z
loop_
_atom_site_type_symbol
_atom_site_label
_atom_site_fract_x
_atom_site_fract_y
_atom_site_fract_z
Si Si1 0.173672 0.171893 0.295320
Si Si2 0.822437 0.168492 0.046134
Si Si3 0.326250 0.173429 0.460476
Si Si4 0.826046 0.672368 0.130990
Si Si5 0.327317 0.825687 0.617720
Si Si6 0.327846 0.825998 0.208915
O O1 0.212691 0.263260 0.336567
O O2 0.256819 0.218392 0.253287
O O3 0.000000 0.186706 0.288374
O O4 0.204026 0.000000 0.302855
O O5 0.777079 0.260353 0.086447
O O6 0.000000 0.169406 0.044686
O O7 0.777152 0.000000 0.051401
O O8 0.776206 0.223795 0.000000
O O9 0.248697 0.248697 0.500000
O O10 0.500000 0.196789 0.462676
O O11 0.260934 0.243803 0.418397
O O12 0.299290 0.000000 0.460995
O O13 0.802377 0.500000 0.131208
O O14 0.746142 0.746461 0.169907
O O15 0.000000 0.699548 0.134782
O O16 0.500000 0.798017 0.615723
O O17 0.304513 0.000000 0.611719
O O18 0.500000 0.798865 0.209547
O O19 0.303719 0.000000 0.204594
#
# Coordination Sequence:
#
# PCOD9556862 Si02
#       6
#     8   8   8   8   8   8
#     4   9  18  34  56  80 107 141 180 221 264 311
#     4   8  14  27  49  74  98 128 169 215 259 304
#     4  11  24  40  59  84 113 146 185 227 270 317
#     4  10  20  33  51  76 105 137 173 213 259 312
#     4  10  21  37  58  85 115 145 179 219 264 317
#     4  10  21  36  54  77 105 138 177 220 265 313
#
# _framework density 17.921005999999998
#
# number of rings (size 3 to 8) (size 9 to 14) (size 15 to 20)
#    0.000    2.333    0.000    3.000    0.000    7.667 
#    0.000    4.167    0.000    3.000    0.000    0.000 
#    0.000    0.000    0.000    0.000    0.000    0.000 
#
# Total GULP energy -267945.785345 kJ/mol
# GULP energy per Si atom -5582.203861 kJ/mol
# Density = 1.788022 g / cm^3
# Si number density = 17.921006 Si / 1000 Ang^3
#
#
#
# Elastic Constant Matrix: (Units=GPa)
#
#
# Indices 1 2 3 4 5 6 
#
# 1 73.3876 71.9840 98.1591 0.0000 0.0000 0.0000
# 2 71.9840 73.3875 98.1590 0.0000 0.0000 0.0000
# 3 98.1591 98.1590 218.7113 0.0000 0.0000 0.0000
# 4 0.0000 0.0000 0.0000 -21.8254 0.0000 0.0000
# 5 0.0000 0.0000 0.0000 0.0000 -21.8256 0.0000
# 6 0.0000 0.0000 0.0000 0.0000 0.0000 21.9071
#
#
#
# Elastic Compliance Matrix: (Units=1/GPa)
#
#
# Indices 1 2 3 4 5 6 
#
# 1 0.364963 -0.347500 -0.007837 0.000000 0.000000 0.000000
# 2 -0.347500 0.364965 -0.007838 0.000000 0.000000 0.000000
# 3 -0.007837 -0.007838 0.011607 0.000000 0.000000 0.000000
# 4 0.000000 0.000000 0.000000 -0.045818 0.000000 0.000000
# 5 0.000000 0.000000 0.000000 0.000000 -0.045818 0.000000
# 6 0.000000 0.000000 0.000000 0.000000 0.000000 0.045647
#
#
# Mechanical properties :
#
#
# Convention : Reuss Voigt Hill
#
# Bulk Modulus (GPa) = 65.86101 100.23229 83.04665
# Shear Modulus (GPa) = 3.50395 2.13016 2.81706
#
# Velocity S-wave (km/s) = 1.39981 1.09143 1.25513
# Velocity P-wave (km/s) = 6.28038 7.59209 6.96717
#
# Compressibility (1/GPa) = 0.01518349
#
# Stress axis : x y z
#
# Youngs Moduli (GPa) = 2.74000 2.73999 86.15159
#
# Poissons Ratio (x) = 0.95215 0.67520
# Poissons Ratio (y) = 0.95215 0.67525
# Poissons Ratio (z) = 0.02147 0.02148
#
# Static dielectric constant tensor:
#      x y z
#    x 1.595440 0.000000 0.000000 
#    y 0.000000 1.595440 0.000000 
#    z 0.000000 0.000000 1.592260 
# 
# From -- ./inp_files/5956.got.cif
#   From: 2010.05.17/outbox.cif.g08.bks.cpg/sg115_3_cif.got.tgz:5956.got - 2010.05.20 11:07:42.
