data_PCOD9556986
_publ_section_title
;
Structure prediction by ZEFSAII (Michael W. Deem and Ramdas Pophale) SiO2 
 PCOD9556986
Probable space group: P -4 M 2
;
_chemical_formula_sum "Si O2"
_cell_formula_units_Z 48
_cell_length_a 9.180889
_cell_length_b 9.180889
_cell_length_c 31.794063
_cell_angle_alpha 90.000000
_cell_angle_beta 90.000000
_cell_angle_gamma 90.000000
_cell_volume 2679.880964
_symmetry_space_group_name_H-M "P -4 M 2"
_symmetry_group_IT_number 115
_symmetry_cell_setting 'tetragonal'
loop_
_space_group_symop_operation_xyz
x,y,z
y,-x,-z
-x,-y,z
-y,x,-z
y,x,-z
-y,-x,-z
-x,y,z
x,-y,z
loop_
_atom_site_type_symbol
_atom_site_label
_atom_site_fract_x
_atom_site_fract_y
_atom_site_fract_z
Si Si1 0.822756 0.168064 0.046292
Si Si2 0.173505 0.827891 0.374598
Si Si3 0.328289 0.175060 0.868668
Si Si4 0.673594 0.172458 0.209611
Si Si5 0.327373 0.826682 0.461114
Si Si6 0.327643 0.174255 0.712179
O O1 0.779792 0.264189 0.086032
O O2 0.000000 0.166703 0.044800
O O3 0.775785 0.000000 0.052174
O O4 0.777389 0.222612 0.000000
O O5 0.256597 0.781906 0.416714
O O6 0.214761 0.738528 0.333149
O O7 0.000000 0.810673 0.381257
O O8 0.201983 0.000000 0.367404
O O9 0.500000 0.204751 0.866178
O O10 0.244180 0.254445 0.831358
O O11 0.307888 0.000000 0.864601
O O12 0.500000 0.193860 0.208959
O O13 0.741992 0.246974 0.250674
O O14 0.703689 0.000000 0.210201
O O15 0.256263 0.743738 0.500000
O O16 0.500000 0.803595 0.460096
O O17 0.299651 0.000000 0.465971
O O18 0.500000 0.202146 0.713510
O O19 0.305212 0.000000 0.717586
#
# Coordination Sequence:
#
# PCOD9556986 Si02
#       6
#     8   8   8   8   8   8
#     4   8  14  27  49  75 102 135 176 219 260 303
#     4   9  18  34  56  80 107 141 180 220 261 308
#     4  10  20  34  54  80 108 139 176 217 263 315
#     4  11  24  39  55  77 105 139 179 221 265 313
#     4  10  21  36  55  80 110 144 182 224 268 314
#     4  10  21  37  58  84 111 139 173 214 262 317
#
# _framework density 17.911242000000001
#
# number of rings (size 3 to 8) (size 9 to 14) (size 15 to 20)
#    0.000    2.333    0.000    3.000    0.000    7.667 
#    0.000    4.167    0.000    3.000    0.000    0.000 
#    0.000    0.000    0.000    0.000    0.000    0.000 
#
# Total GULP energy -267957.113956 kJ/mol
# GULP energy per Si atom -5582.439874 kJ/mol
# Density = 1.787048 g / cm^3
# Si number density = 17.911242 Si / 1000 Ang^3
#
#
#
# Elastic Constant Matrix: (Units=GPa)
#
#
# Indices 1 2 3 4 5 6 
#
# 1 75.7465 68.4251 96.4376 0.0000 0.0000 0.0000
# 2 68.4251 75.7474 96.4390 0.0000 0.0000 0.0000
# 3 96.4376 96.4390 218.0883 0.0000 0.0000 0.0000
# 4 0.0000 0.0000 0.0000 -22.6719 0.0000 0.0000
# 5 0.0000 0.0000 0.0000 0.0000 -22.6737 0.0000
# 6 0.0000 0.0000 0.0000 0.0000 0.0000 21.6216
#
#
#
# Elastic Compliance Matrix: (Units=1/GPa)
#
#
# Indices 1 2 3 4 5 6 
#
# 1 0.076780 -0.059798 -0.007509 0.000000 0.000000 0.000000
# 2 -0.059798 0.076781 -0.007510 0.000000 0.000000 0.000000
# 3 -0.007509 -0.007510 0.011227 0.000000 0.000000 0.000000
# 4 0.000000 0.000000 0.000000 -0.044107 0.000000 0.000000
# 5 0.000000 0.000000 0.000000 0.000000 -0.044104 0.000000
# 6 0.000000 0.000000 0.000000 0.000000 0.000000 0.046250
#
#
# Mechanical properties :
#
#
# Convention : Reuss Voigt Hill
#
# Bulk Modulus (GPa) = 65.99099 99.13174 82.56137
# Shear Modulus (GPa) = 18.01715 2.47390 10.24552
#
# Velocity S-wave (km/s) = 3.17505 1.17652 2.39428
# Velocity P-wave (km/s) = 7.09680 7.57046 7.33745
#
# Compressibility (1/GPa) = 0.01515358
#
# Stress axis : x y z
#
# Youngs Moduli (GPa) = 13.02415 13.02403 89.07099
#
# Poissons Ratio (x) = 0.77881 0.66886
# Poissons Ratio (y) = 0.77882 0.66896
# Poissons Ratio (z) = 0.09780 0.09782
#
# Static dielectric constant tensor:
#      x y z
#    x 1.594610 0.000000 0.000000 
#    y 0.000000 1.594610 0.000000 
#    z 0.000000 0.000000 1.590910 
# 
# From -- ./inp_files/5936.got.cif
#   From: 2010.05.17/outbox.cif.g08.bks.cpg/sg115_3_cif.got.tgz:5936.got - 2010.05.20 11:07:42.
