data_PCOD9556475
_publ_section_title
;
Structure prediction by ZEFSAII (Michael W. Deem and Ramdas Pophale) SiO2 
 PCOD9556475
Probable space group: P -4 21 C
;
_chemical_formula_sum "Si O2"
_cell_formula_units_Z 40
_cell_length_a 9.312008
_cell_length_b 9.312008
_cell_length_c 20.885023
_cell_angle_alpha 90.000000
_cell_angle_beta 90.000000
_cell_angle_gamma 90.000000
_cell_volume 1811.013296
_symmetry_space_group_name_H-M "P -4 21 C"
_symmetry_group_IT_number 114
_symmetry_cell_setting 'tetragonal'
loop_
_space_group_symop_operation_xyz
x,y,z
y,-x,-z
-x,-y,z
-y,x,-z
1/2+x,1/2-y,1/2-z
1/2-x,1/2+y,1/2-z
1/2-y,1/2-x,1/2+z
1/2+y,1/2+x,1/2+z
loop_
_atom_site_type_symbol
_atom_site_label
_atom_site_fract_x
_atom_site_fract_y
_atom_site_fract_z
Si Si1 0.630368 0.276821 0.401445
Si Si2 0.000000 0.000000 0.500000
Si Si3 0.784991 0.459380 0.925152
Si Si4 0.500000 0.500000 0.500000
Si Si5 0.000000 0.500000 0.535960
Si Si6 0.102763 0.374160 0.804270
Si Si7 0.113724 0.104539 0.229470
O O1 0.803007 0.267872 0.392715
O O2 0.589617 0.391437 0.455723
O O3 0.572469 0.123146 0.422605
O O4 0.555067 0.327978 0.336452
O O5 0.016344 0.136320 0.453681
O O6 0.857184 0.571588 0.875946
O O7 0.882467 0.436434 0.987592
O O8 0.256488 0.348909 0.771089
O O9 0.000000 0.500000 0.776384
O O10 0.001877 0.237939 0.794430
O O11 0.000000 0.000000 0.263315
#
# Coordination Sequence:
#
# PCOD9556475 Si02
#       7
#     8   2   8   2   4   8   8
#     4  12  25  44  72 108 148 191 246 300 378 445
#     4  12  28  40  74 116 148 192 256 294 380 468
#     4  12  25  47  72 108 149 196 240 308 375 448
#     4  12  24  44  74 104 148 196 232 310 364 452
#     4  12  24  42  74 108 152 192 238 306 370 462
#     4  12  27  50  78 103 153 200 248 315 385 441
#     4  12  28  49  73 110 140 196 259 313 375 454
#
# _framework density 22.087081000000001
#
# number of rings (size 3 to 8) (size 9 to 14) (size 15 to 20)
#    0.000    0.000    8.000    1.200    2.800    1.600 
#    0.000    0.000    0.000    0.000    0.000    0.000 
#    0.000    0.000    0.000    0.000    0.000    0.000 
#
# Total GULP energy -223677.128884 kJ/mol
# GULP energy per Si atom -5591.928222 kJ/mol
# Density = 2.203681 g / cm^3
# Si number density = 22.087081 Si / 1000 Ang^3
#
#
#
# Elastic Constant Matrix: (Units=GPa)
#
#
# Indices 1 2 3 4 5 6 
#
# 1 129.8286 39.5552 28.6264 0.0000 0.0000 0.0000
# 2 39.5552 129.8286 28.6264 0.0000 0.0000 0.0000
# 3 28.6264 28.6264 59.2394 0.0000 0.0000 0.0000
# 4 0.0000 0.0000 0.0000 20.7295 0.0000 0.0000
# 5 0.0000 0.0000 0.0000 0.0000 20.7295 0.0000
# 6 0.0000 0.0000 0.0000 0.0000 0.0000 42.0941
#
#
#
# Elastic Compliance Matrix: (Units=1/GPa)
#
#
# Indices 1 2 3 4 5 6 
#
# 1 0.009067 -0.002011 -0.003410 0.000000 0.000000 0.000000
# 2 -0.002011 0.009067 -0.003410 0.000000 0.000000 0.000000
# 3 -0.003410 -0.003410 0.020176 0.000000 0.000000 0.000000
# 4 0.000000 0.000000 0.000000 0.048240 0.000000 0.000000
# 5 0.000000 0.000000 0.000000 0.000000 0.048240 0.000000
# 6 0.000000 0.000000 0.000000 0.000000 0.000000 0.023756
#
#
# Mechanical properties :
#
#
# Convention : Reuss Voigt Hill
#
# Bulk Modulus (GPa) = 48.42753 56.94583 52.68668
# Shear Modulus (GPa) = 27.30890 31.51654 29.41272
#
# Velocity S-wave (km/s) = 3.52009 3.78156 3.65317
# Velocity P-wave (km/s) = 6.20441 6.70114 6.45755
#
# Compressibility (1/GPa) = 0.02064941
#
# Stress axis : x y z
#
# Youngs Moduli (GPa) = 110.29158 110.29158 49.56352
#
# Poissons Ratio (x) = 0.22175 0.16900
# Poissons Ratio (y) = 0.22175 0.16900
# Poissons Ratio (z) = 0.37608 0.37608
#
# Static dielectric constant tensor:
#      x y z
#    x 1.839180 0.000000 0.000000 
#    y 0.000000 1.839180 0.000000 
#    z 0.000000 0.000000 1.788090 
# 
# From -- ./inp_files/3455.got.cif
#   From: 2010.05.17/outbox.cif.g08.bks.cpg/sg114_2_cif.got.tgz:3455.got - 2010.05.20 11:04:54.
