data_PCOD9556705
_publ_section_title
;
Structure prediction by ZEFSAII (Michael W. Deem and Ramdas Pophale) SiO2 
 PCOD9556705
Probable space group: P -4 M 2
;
_chemical_formula_sum "Si O2"
_cell_formula_units_Z 52
_cell_length_a 20.389575
_cell_length_b 20.389575
_cell_length_c 6.102628
_cell_angle_alpha 90.000000
_cell_angle_beta 90.000000
_cell_angle_gamma 90.000000
_cell_volume 2537.074640
_symmetry_space_group_name_H-M "P -4 M 2"
_symmetry_group_IT_number 115
_symmetry_cell_setting 'tetragonal'
loop_
_space_group_symop_operation_xyz
x,y,z
y,-x,-z
-x,-y,z
-y,x,-z
y,x,-z
-y,-x,-z
-x,y,z
x,-y,z
loop_
_atom_site_type_symbol
_atom_site_label
_atom_site_fract_x
_atom_site_fract_y
_atom_site_fract_z
Si Si1 0.178229 0.178229 0.000000
Si Si2 0.570753 0.570753 0.500000
Si Si3 0.701668 0.701668 0.000000
Si Si4 0.426740 0.710287 0.295378
Si Si5 0.929030 0.785618 0.329138
Si Si6 0.638505 0.795690 0.657283
Si Si7 0.641573 0.927044 0.896719
Si Si8 0.874519 0.712826 0.714061
O O1 0.125135 0.175062 0.194035
O O2 0.248214 0.168840 0.111995
O O3 0.573934 0.500000 0.383546
O O4 0.633058 0.573328 0.654107
O O5 0.631982 0.716684 0.122802
O O6 0.751873 0.689236 0.203149
O O7 0.500000 0.729736 0.219011
O O8 0.411174 0.748682 0.523823
O O9 0.930752 0.713355 0.217371
O O10 0.914958 0.767599 0.580995
O O11 0.000000 0.816673 0.304987
O O12 0.612080 0.858883 0.798494
O O13 0.678640 0.829633 0.462462
O O14 0.610954 0.000000 0.863065
O O15 0.659444 0.916030 0.152073
#
# Coordination Sequence:
#
# PCOD9556705 Si02
#       8
#     4   4   4   8   8   8   8   8
#     4  10  20  31  48  75 102 138 180 225 282 350
#     4   9  18  38  64  86 116 158 204 254 304 356
#     4  12  24  39  58  91 124 166 208 251 312 378
#     4  11  24  41  62  89 124 164 210 260 312 369
#     4   9  18  31  47  71 102 136 176 226 283 340
#     4  11  23  38  57  87 123 158 199 247 310 373
#     4   9  19  34  55  83 114 149 191 240 294 362
#     4  10  20  33  52  78 114 149 184 230 293 362
#
# _framework density 20.496044000000001
#
# number of rings (size 3 to 8) (size 9 to 14) (size 15 to 20)
#    0.000    1.923    1.538    1.846    0.000   17.231 
#    0.000    0.000    0.000    0.692    0.000    0.000 
#    0.000    0.000    0.000    0.000    0.000    0.000 
#
# Total GULP energy -289531.914348 kJ/mol
# GULP energy per Si atom -5567.921430 kJ/mol
# Density = 2.044939 g / cm^3
# Si number density = 20.496044 Si / 1000 Ang^3
#
#
#
# Elastic Constant Matrix: (Units=GPa)
#
#
# Indices 1 2 3 4 5 6 
#
# 1 84.3165 3.5271 25.0714 0.0000 0.0000 0.0000
# 2 3.5271 84.3165 25.0714 0.0000 0.0000 0.0000
# 3 25.0714 25.0714 93.9035 0.0000 0.0000 0.0000
# 4 0.0000 0.0000 0.0000 16.4934 0.0000 0.0000
# 5 0.0000 0.0000 0.0000 0.0000 16.4934 0.0000
# 6 0.0000 0.0000 0.0000 0.0000 0.0000 12.9840
#
#
#
# Elastic Compliance Matrix: (Units=1/GPa)
#
#
# Indices 1 2 3 4 5 6 
#
# 1 0.012904 0.000526 -0.003586 0.000000 0.000000 0.000000
# 2 0.000526 0.012904 -0.003586 0.000000 0.000000 0.000000
# 3 -0.003586 -0.003586 0.012564 0.000000 0.000000 0.000000
# 4 0.000000 0.000000 0.000000 0.060630 0.000000 0.000000
# 5 0.000000 0.000000 0.000000 0.000000 0.060630 0.000000
# 6 0.000000 0.000000 0.000000 0.000000 0.000000 0.077018
#
#
# Mechanical properties :
#
#
# Convention : Reuss Voigt Hill
#
# Bulk Modulus (GPa) = 39.86927 41.09738 40.48333
# Shear Modulus (GPa) = 19.35718 23.11862 21.23790
#
# Velocity S-wave (km/s) = 3.07650 3.36215 3.22249
# Velocity P-wave (km/s) = 5.66694 5.93017 5.80005
#
# Compressibility (1/GPa) = 0.02508197
#
# Stress axis : x y z
#
# Youngs Moduli (GPa) = 77.49350 77.49350 79.59228
#
# Poissons Ratio (x) = -0.04080 0.28541
# Poissons Ratio (y) = -0.04080 0.28541
# Poissons Ratio (z) = 0.27788 0.27788
#
# Static dielectric constant tensor:
#      x y z
#    x 1.813830 0.000000 0.000000 
#    y 0.000000 1.813830 0.000000 
#    z 0.000000 0.000000 1.800730 
# 
# From -- ./inp_files/724.got.cif
#   From: 2010.05.17/outbox.cif.g08.bks.cpg/sg115_1_cif.got.tgz:724.got - 2010.05.20 11:07:42.
