data_PCOD9556753
_publ_section_title
;
Structure prediction by ZEFSAII (Michael W. Deem and Ramdas Pophale) SiO2 
 PCOD9556753
Probable space group: P -4 M 2
;
_chemical_formula_sum "Si O2"
_cell_formula_units_Z 32
_cell_length_a 9.486357
_cell_length_b 9.486357
_cell_length_c 21.120685
_cell_angle_alpha 90.000000
_cell_angle_beta 90.000000
_cell_angle_gamma 90.000000
_cell_volume 1900.670912
_symmetry_space_group_name_H-M "P -4 M 2"
_symmetry_group_IT_number 115
_symmetry_cell_setting 'tetragonal'
loop_
_space_group_symop_operation_xyz
x,y,z
y,-x,-z
-x,-y,z
-y,x,-z
y,x,-z
-y,-x,-z
-x,y,z
x,-y,z
loop_
_atom_site_type_symbol
_atom_site_label
_atom_site_fract_x
_atom_site_fract_y
_atom_site_fract_z
Si Si1 0.838051 0.328633 0.804024
Si Si2 0.833587 0.831959 0.573281
Si Si3 0.334249 0.669441 0.680665
Si Si4 0.169393 0.666135 0.946140
O O1 0.839377 0.500000 0.805217
O O2 0.739049 0.285071 0.746457
O O3 0.792397 0.285687 0.874682
O O4 0.000000 0.283231 0.793232
O O5 0.798943 0.798943 0.500000
O O6 0.741769 0.745508 0.622583
O O7 0.000000 0.802362 0.582734
O O8 0.813687 0.000000 0.581741
O O9 0.500000 0.700226 0.681628
O O10 0.316678 0.500000 0.675044
O O11 0.203979 0.500000 0.952173
O O12 0.000000 0.679038 0.951139
O O13 0.246391 0.753610 0.000000
#
# Coordination Sequence:
#
# PCOD9556753 Si02
#       4
#     8   8   8   8
#     4   8  15  30  50  69  93 129 169 203 237 284
#     4   9  19  36  55  73  95 127 167 205 240 285
#     4  10  20  32  49  76 105 129 158 200 246 291
#     4   9  18  32  50  73  99 127 163 205 245 289
#
# _framework density 16.836161000000001
#
# number of rings (size 3 to 8) (size 9 to 14) (size 15 to 20)
#    0.000    3.000    0.000    3.000    0.000    4.500 
#    0.000    7.500    0.000    1.500    0.000    0.000 
#    0.000    0.000    0.000    0.000    0.000    0.000 
#
# Total GULP energy -178345.048168 kJ/mol
# GULP energy per Si atom -5573.282755 kJ/mol
# Density = 1.679784 g / cm^3
# Si number density = 16.836161 Si / 1000 Ang^3
#
#
#
# Elastic Constant Matrix: (Units=GPa)
#
#
# Indices 1 2 3 4 5 6 
#
# 1 56.4618 49.6925 88.4279 0.0000 0.0000 0.0000
# 2 49.6925 56.4592 88.4269 0.0000 0.0000 0.0000
# 3 88.4279 88.4269 194.0354 0.0000 0.0000 0.0000
# 4 0.0000 0.0000 0.0000 35.6296 0.0000 0.0000
# 5 0.0000 0.0000 0.0000 0.0000 35.6297 0.0000
# 6 0.0000 0.0000 0.0000 0.0000 0.0000 28.0030
#
#
#
# Elastic Compliance Matrix: (Units=1/GPa)
#
#
# Indices 1 2 3 4 5 6 
#
# 1 0.093438 -0.054312 -0.017831 0.000000 0.000000 0.000000
# 2 -0.054312 0.093448 -0.017835 0.000000 0.000000 0.000000
# 3 -0.017831 -0.017835 0.021408 0.000000 0.000000 0.000000
# 4 0.000000 0.000000 0.000000 0.028067 0.000000 0.000000
# 5 0.000000 0.000000 0.000000 0.000000 0.028066 0.000000
# 6 0.000000 0.000000 0.000000 0.000000 0.000000 0.035710
#
#
# Mechanical properties :
#
#
# Convention : Reuss Voigt Hill
#
# Bulk Modulus (GPa) = 35.28908 84.45012 59.86960
# Shear Modulus (GPa) = 10.21366 25.21306 17.71336
#
# Velocity S-wave (km/s) = 2.46570 3.87402 3.24713
# Velocity P-wave (km/s) = 5.39556 8.38329 7.04953
#
# Compressibility (1/GPa) = 0.02833738
#
# Stress axis : x y z
#
# Youngs Moduli (GPa) = 10.70224 10.70111 46.71191
#
# Poissons Ratio (x) = 0.58120 0.83293
# Poissons Ratio (y) = 0.58126 0.83311
# Poissons Ratio (z) = 0.19083 0.19085
#
# Static dielectric constant tensor:
#      x y z
#    x 1.554080 0.000000 0.000000 
#    y 0.000000 1.554080 0.000000 
#    z 0.000000 0.000000 1.563130 
# 
# From -- ./inp_files/4577.got.cif
#   From: 2010.05.17/outbox.cif.g08.bks.cpg/sg115_3_cif.got.tgz:4577.got - 2010.05.20 11:07:42.
