data_PCOD9556422
_publ_section_title
;
Structure prediction by ZEFSAII (Michael W. Deem and Ramdas Pophale) SiO2 
 PCOD9556422
Probable space group: P -4 21 C
;
_chemical_formula_sum "Si O2"
_cell_formula_units_Z 48
_cell_length_a 8.412689
_cell_length_b 8.412689
_cell_length_c 30.751940
_cell_angle_alpha 90.000000
_cell_angle_beta 90.000000
_cell_angle_gamma 90.000000
_cell_volume 2176.417389
_symmetry_space_group_name_H-M "P -4 21 C"
_symmetry_group_IT_number 114
_symmetry_cell_setting 'tetragonal'
loop_
_space_group_symop_operation_xyz
x,y,z
y,-x,-z
-x,-y,z
-y,x,-z
1/2+x,1/2-y,1/2-z
1/2-x,1/2+y,1/2-z
1/2-y,1/2-x,1/2+z
1/2+y,1/2+x,1/2+z
loop_
_atom_site_type_symbol
_atom_site_label
_atom_site_fract_x
_atom_site_fract_y
_atom_site_fract_z
Si Si1 0.572796 0.746277 0.211482
Si Si2 0.592554 0.336119 0.616652
Si Si3 0.517480 0.239653 0.001093
Si Si4 0.053917 0.661627 0.591062
Si Si5 0.929769 0.753714 0.785890
Si Si6 0.000000 0.500000 0.420917
Si Si7 0.500000 0.500000 0.862888
O O1 0.410045 0.835836 0.222965
O O2 0.631781 0.619187 0.246790
O O3 0.533826 0.653235 0.167192
O O4 0.705660 0.885284 0.209173
O O5 0.500000 0.500000 0.607810
O O6 0.755871 0.345115 0.590106
O O7 0.625816 0.326519 0.668265
O O8 0.509419 0.165833 0.605399
O O9 0.498086 0.145021 0.045338
O O10 0.358976 0.339021 0.993855
O O11 0.536999 0.153894 0.955025
O O12 0.000000 0.500000 0.615982
O O13 0.018922 0.836305 0.610604
#
# Coordination Sequence:
#
# PCOD9556422 Si02
#       7
#     8   8   8   8   8   4   4
#     4  11  25  47  73 108 148 198 254 313 389 455
#     4  12  30  49  76 111 155 204 255 319 390 463
#     4  11  24  45  76 107 149 196 247 312 379 454
#     4  12  28  47  75 117 146 203 261 312 383 467
#     4  11  26  46  75 107 149 198 255 317 381 464
#     4  12  26  50  78 110 154 202 256 314 396 468
#     4  12  26  48  77 106 160 200 256 321 386 462
#
# _framework density 22.054590999999999
#
# number of rings (size 3 to 8) (size 9 to 14) (size 15 to 20)
#    0.000    0.500    4.167    3.000    8.167    0.000 
#    0.000    0.000    0.000    0.000    0.000    0.000 
#    0.000    0.000    0.000    0.000    0.000    0.000 
#
# Total GULP energy -268268.587550 kJ/mol
# GULP energy per Si atom -5588.928907 kJ/mol
# Density = 2.200439 g / cm^3
# Si number density = 22.054591 Si / 1000 Ang^3
#
#
#
# Elastic Constant Matrix: (Units=GPa)
#
#
# Indices 1 2 3 4 5 6 
#
# 1 114.3982 42.0530 18.5403 0.0000 0.0000 0.0000
# 2 42.0530 114.3982 18.5403 0.0000 0.0000 0.0000
# 3 18.5403 18.5403 78.7495 0.0000 0.0000 0.0000
# 4 0.0000 0.0000 0.0000 -16.1874 0.0000 0.0000
# 5 0.0000 0.0000 0.0000 0.0000 -16.1874 0.0000
# 6 0.0000 0.0000 0.0000 0.0000 0.0000 46.5252
#
#
#
# Elastic Compliance Matrix: (Units=1/GPa)
#
#
# Indices 1 2 3 4 5 6 
#
# 1 0.010296 -0.003527 -0.001594 0.000000 0.000000 0.000000
# 2 -0.003527 0.010296 -0.001594 0.000000 0.000000 0.000000
# 3 -0.001594 -0.001594 0.013449 0.000000 0.000000 0.000000
# 4 0.000000 0.000000 0.000000 -0.061776 0.000000 0.000000
# 5 0.000000 0.000000 0.000000 0.000000 -0.061776 0.000000
# 6 0.000000 0.000000 0.000000 0.000000 0.000000 0.021494
#
#
# Mechanical properties :
#
#
# Convention : Reuss Voigt Hill
#
# Bulk Modulus (GPa) = 48.51333 51.75700 50.13517
# Shear Modulus (GPa) = -104.78007 18.05758 -43.36125
#
# Velocity S-wave (km/s) = -6.90018 2.86452 -4.43887
# Velocity P-wave (km/s) = 6.43729 5.87020 1.86809
#
# Compressibility (1/GPa) = 0.02061289
#
# Stress axis : x y z
#
# Youngs Moduli (GPa) = 97.12452 97.12452 74.35525
#
# Poissons Ratio (x) = 0.34251 0.11851
# Poissons Ratio (y) = 0.34251 0.11851
# Poissons Ratio (z) = 0.15479 0.15479
#
# Static dielectric constant tensor:
#      x y z
#    x 1.859660 0.000000 0.000000 
#    y 0.000000 1.859660 0.000000 
#    z 0.000000 0.000000 1.786080 
# 
# From -- ./inp_files/4030.got.cif
#   From: 2010.05.17/outbox.cif.g08.bks.cpg/sg114_3_cif.got.tgz:4030.got - 2010.05.20 11:04:54.
