data_PCOD9556623
_publ_section_title
;
Structure prediction by ZEFSAII (Michael W. Deem and Ramdas Pophale) SiO2 
 PCOD9556623
Probable space group: P -4 M 2
;
_chemical_formula_sum "Si O2"
_cell_formula_units_Z 64
_cell_length_a 13.653607
_cell_length_b 13.653607
_cell_length_c 18.677728
_cell_angle_alpha 90.000000
_cell_angle_beta 90.000000
_cell_angle_gamma 90.000000
_cell_volume 3481.920435
_symmetry_space_group_name_H-M "P -4 M 2"
_symmetry_group_IT_number 115
_symmetry_cell_setting 'tetragonal'
loop_
_space_group_symop_operation_xyz
x,y,z
y,-x,-z
-x,-y,z
-y,x,-z
y,x,-z
-y,-x,-z
-x,y,z
x,-y,z
loop_
_atom_site_type_symbol
_atom_site_label
_atom_site_fract_x
_atom_site_fract_y
_atom_site_fract_z
Si Si1 0.889390 0.618647 0.526811
Si Si2 0.886906 0.114970 0.708386
Si Si3 0.244698 0.769897 0.179940
Si Si4 0.611202 0.710943 0.717699
Si Si5 0.389127 0.114941 0.900364
Si Si6 0.615818 0.312261 0.423069
Si Si7 0.263280 0.115648 0.037926
Si Si8 0.689716 0.887141 0.633329
O O1 0.889505 0.500000 0.522515
O O2 0.801787 0.648930 0.579229
O O3 0.864362 0.658499 0.447651
O O4 0.000000 0.649859 0.545759
O O5 0.845855 0.185522 0.770282
O O6 0.806041 0.125185 0.645822
O O7 0.000000 0.136096 0.690036
O O8 0.882418 0.000000 0.731013
O O9 0.314074 0.699649 0.227827
O O10 0.170443 0.689751 0.147213
O O11 0.285356 0.830291 0.112615
O O12 0.500000 0.699402 0.743902
O O13 0.626855 0.654049 0.643524
O O14 0.633173 0.821559 0.690880
O O15 0.500000 0.150741 0.890885
O O16 0.386391 0.000000 0.883107
O O17 0.352585 0.125500 0.982152
O O18 0.647367 0.352634 0.500000
O O19 0.500000 0.313314 0.420684
O O20 0.242880 0.000000 0.047853
O O21 0.171696 0.171696 0.000000
O O22 0.665007 0.000000 0.645597
#
# Coordination Sequence:
#
# PCOD9556623 Si02
#       8
#     8   8   8   8   8   8   8   8
#     4   9  17  32  55  78  99 125 162 215 274 326
#     4   9  17  28  43  67 102 142 177 205 240 296
#     4  10  19  32  49  72 105 139 173 214 259 311
#     4  11  22  35  52  77 106 136 176 226 277 329
#     4   9  17  31  52  77 102 128 165 213 260 303
#     4  11  22  37  57  78 103 135 176 227 285 344
#     4   9  18  32  51  77 108 142 178 212 251 306
#     4   9  17  30  49  72  98 129 167 213 264 317
#
# _framework density 18.380661
#
# number of rings (size 3 to 8) (size 9 to 14) (size 15 to 20)
#    0.000    2.375    1.250    1.875    0.000    2.750 
#    0.000    3.750    0.000    0.750    0.000    0.000 
#    0.000   12.250    0.000    0.000    0.000    0.000 
#
# Total GULP energy -356734.031225 kJ/mol
# GULP energy per Si atom -5573.969238 kJ/mol
# Density = 1.833883 g / cm^3
# Si number density = 18.380661 Si / 1000 Ang^3
#
#
#
# Elastic Constant Matrix: (Units=GPa)
#
#
# Indices 1 2 3 4 5 6 
#
# 1 52.4155 0.9965 18.0343 0.0000 0.0000 0.0000
# 2 0.9965 52.4129 18.0347 0.0000 0.0000 0.0000
# 3 18.0343 18.0347 47.8772 0.0000 0.0000 0.0000
# 4 0.0000 0.0000 0.0000 11.8313 0.0000 0.0000
# 5 0.0000 0.0000 0.0000 0.0000 11.8315 0.0000
# 6 0.0000 0.0000 0.0000 0.0000 0.0000 18.0634
#
#
#
# Elastic Compliance Matrix: (Units=1/GPa)
#
#
# Indices 1 2 3 4 5 6 
#
# 1 0.022279 0.002831 -0.009458 0.000000 0.000000 0.000000
# 2 0.002831 0.022280 -0.009459 0.000000 0.000000 0.000000
# 3 -0.009458 -0.009459 0.028013 0.000000 0.000000 0.000000
# 4 0.000000 0.000000 0.000000 0.084521 0.000000 0.000000
# 5 0.000000 0.000000 0.000000 0.000000 0.084520 0.000000
# 6 0.000000 0.000000 0.000000 0.000000 0.000000 0.055361
#
#
# Mechanical properties :
#
#
# Convention : Reuss Voigt Hill
#
# Bulk Modulus (GPa) = 24.75321 25.20406 24.97864
# Shear Modulus (GPa) = 14.59373 16.05458 15.32415
#
# Velocity S-wave (km/s) = 2.82081 2.95862 2.89054
# Velocity P-wave (km/s) = 4.90973 5.04116 4.97588
#
# Compressibility (1/GPa) = 0.04039881
#
# Stress axis : x y z
#
# Youngs Moduli (GPa) = 44.88571 44.88290 35.69820
#
# Poissons Ratio (x) = -0.12706 0.33765
# Poissons Ratio (y) = -0.12707 0.33767
# Poissons Ratio (z) = 0.42454 0.42455
#
# Static dielectric constant tensor:
#      x y z
#    x 1.647320 0.000000 0.000000 
#    y 0.000000 1.647320 0.000000 
#    z 0.000000 0.000000 1.660420 
# 
# From -- ./inp_files/4470.got.cif
#   From: 2010.05.17/outbox.cif.g08.bks.cpg/sg115_3_cif.got.tgz:4470.got - 2010.05.20 11:07:42.
