data_PCOD9556118
_publ_section_title
;
Structure prediction by ZEFSAII (Michael W. Deem and Ramdas Pophale) SiO2 
 PCOD9556118
Probable space group: P -4 21 C
;
_chemical_formula_sum "Si O2"
_cell_formula_units_Z 40
_cell_length_a 10.949873
_cell_length_b 10.949873
_cell_length_c 12.106546
_cell_angle_alpha 90.000000
_cell_angle_beta 90.000000
_cell_angle_gamma 90.000000
_cell_volume 1451.571460
_symmetry_space_group_name_H-M "P -4 21 C"
_symmetry_group_IT_number 114
_symmetry_cell_setting 'tetragonal'
loop_
_space_group_symop_operation_xyz
x,y,z
y,-x,-z
-x,-y,z
-y,x,-z
1/2+x,1/2-y,1/2-z
1/2-x,1/2+y,1/2-z
1/2-y,1/2-x,1/2+z
1/2+y,1/2+x,1/2+z
loop_
_atom_site_type_symbol
_atom_site_label
_atom_site_fract_x
_atom_site_fract_y
_atom_site_fract_z
Si Si1 0.753656 0.543350 0.655962
Si Si2 0.400681 0.889850 0.147709
Si Si3 0.240820 0.090988 0.069838
Si Si4 0.530231 0.303762 0.968442
Si Si5 0.595299 0.347603 0.723404
O O1 0.871015 0.543058 0.732046
O O2 0.755140 0.447850 0.555786
O O3 0.716859 0.676138 0.604862
O O4 0.659718 0.476343 0.740685
O O5 0.363469 0.030985 0.123099
O O6 0.266746 0.827545 0.175533
O O7 0.449900 0.818024 0.040929
O O8 0.140444 0.001762 0.125010
O O9 0.534990 0.299511 0.835786
O O10 0.401158 0.364507 0.999940
#
# Coordination Sequence:
#
# PCOD9556118 Si02
#       5
#     8   8   8   8   8
#     4  12  19  39  58  87 122 147 203 251 295 347
#     4  10  23  35  56  90 119 157 193 244 297 362
#     4  10  22  33  61  88 115 153 191 253 295 343
#     4  11  21  36  58  88 122 153 193 247 305 345
#     4  10  22  33  57  89 116 152 192 242 298 346
#
# _framework density 27.556341
#
# number of rings (size 3 to 8) (size 9 to 14) (size 15 to 20)
#    1.200    0.200    4.000    3.000    2.800    0.000 
#    0.000    0.000    0.000    1.200    5.200    0.000 
#    0.000    0.000    0.000    0.000    0.000    0.000 
#
# Total GULP energy -223146.580952 kJ/mol
# GULP energy per Si atom -5578.664524 kJ/mol
# Density = 2.749362 g / cm^3
# Si number density = 27.556341 Si / 1000 Ang^3
#
#
#
# Elastic Constant Matrix: (Units=GPa)
#
#
# Indices 1 2 3 4 5 6 
#
# 1 34.6823 101.2031 55.0711 0.0000 0.0000 0.0000
# 2 101.2031 34.6823 55.0711 0.0000 0.0000 0.0000
# 3 55.0711 55.0711 202.1175 0.0000 0.0000 0.0000
# 4 0.0000 0.0000 0.0000 42.7886 0.0000 0.0000
# 5 0.0000 0.0000 0.0000 0.0000 42.7886 0.0000
# 6 0.0000 0.0000 0.0000 0.0000 0.0000 35.6739
#
#
#
# Elastic Compliance Matrix: (Units=1/GPa)
#
#
# Indices 1 2 3 4 5 6 
#
# 1 -0.002794 0.012239 -0.002574 0.000000 0.000000 0.000000
# 2 0.012239 -0.002794 -0.002574 0.000000 0.000000 0.000000
# 3 -0.002574 -0.002574 0.006350 0.000000 0.000000 0.000000
# 4 0.000000 0.000000 0.000000 0.023371 0.000000 0.000000
# 5 0.000000 0.000000 0.000000 0.000000 0.023371 0.000000
# 6 0.000000 0.000000 0.000000 0.000000 0.000000 0.028032
#
#
# Mechanical properties :
#
#
# Convention : Reuss Voigt Hill
#
# Bulk Modulus (GPa) = 66.90668 77.13031 72.01850
# Shear Modulus (GPa) = 75.37664 28.25932 51.81798
#
# Velocity S-wave (km/s) = 5.23575 3.20583 4.34111
# Velocity P-wave (km/s) = 7.80278 6.46173 7.16370
#
# Compressibility (1/GPa) = 0.01494619
#
# Stress axis : x y z
#
# Youngs Moduli (GPa) = -357.92471 -357.92471 157.47946
#
# Poissons Ratio (x) = 4.38064 0.40528
# Poissons Ratio (y) = 4.38064 0.40528
# Poissons Ratio (z) = -0.92113 -0.92113
#
# Static dielectric constant tensor:
#      x y z
#    x 2.290790 0.000000 0.000000 
#    y 0.000000 2.290790 0.000000 
#    z 0.000000 0.000000 2.071390 
# 
# From -- ./inp_files/1533.got.cif
#   From: 2010.05.17/outbox.cif.g08.bks.cpg/sg114_1_cif.got.tgz:1533.got - 2010.05.20 11:04:54.
