data_PCOD9556362
_publ_section_title
;
Structure prediction by ZEFSAII (Michael W. Deem and Ramdas Pophale) SiO2 
 PCOD9556362
Probable space group: P -4 21 C
;
_chemical_formula_sum "Si O2"
_cell_formula_units_Z 40
_cell_length_a 9.068949
_cell_length_b 9.068949
_cell_length_c 22.800696
_cell_angle_alpha 90.000000
_cell_angle_beta 90.000000
_cell_angle_gamma 90.000000
_cell_volume 1875.262303
_symmetry_space_group_name_H-M "P -4 21 C"
_symmetry_group_IT_number 114
_symmetry_cell_setting 'tetragonal'
loop_
_space_group_symop_operation_xyz
x,y,z
y,-x,-z
-x,-y,z
-y,x,-z
1/2+x,1/2-y,1/2-z
1/2-x,1/2+y,1/2-z
1/2-y,1/2-x,1/2+z
1/2+y,1/2+x,1/2+z
loop_
_atom_site_type_symbol
_atom_site_label
_atom_site_fract_x
_atom_site_fract_y
_atom_site_fract_z
Si Si1 0.262646 0.427565 0.497767
Si Si2 0.121145 0.372646 0.870950
Si Si3 0.838082 0.949601 0.206348
Si Si4 0.768650 0.388918 0.168881
Si Si5 0.603943 0.178664 0.373138
O O1 0.323108 0.593858 0.503042
O O2 0.176756 0.407524 0.437431
O O3 0.173596 0.393775 0.556724
O O4 0.298395 0.365003 0.861733
O O5 0.000000 0.500000 0.858810
O O6 0.082664 0.250106 0.822196
O O7 0.753143 0.882339 0.261316
O O8 0.853115 0.836391 0.152639
O O9 0.000000 0.000000 0.225607
O O10 0.780897 0.561452 0.152442
O O11 0.934277 0.343067 0.147959
#
# Coordination Sequence:
#
# PCOD9556362 Si02
#       5
#     8   8   8   8   8
#     4  11  21  43  73 102 136 183 251 303 353 434
#     4  12  27  42  71 110 140 185 244 300 363 440
#     4  12  24  46  70 101 139 193 243 293 361 448
#     4  11  26  42  68 103 147 184 235 299 377 427
#     4  11  24  44  72 101 140 191 239 304 369 429
#
# _framework density 21.330349999999999
#
# number of rings (size 3 to 8) (size 9 to 14) (size 15 to 20)
#    0.000    0.600    6.000    1.200    8.400    0.000 
#    0.000    0.000    0.000    0.000    0.000    0.000 
#    0.000    0.000    0.000    0.000    0.000    0.000 
#
# Total GULP energy -223238.113244 kJ/mol
# GULP energy per Si atom -5580.952831 kJ/mol
# Density = 2.128180 g / cm^3
# Si number density = 21.330350 Si / 1000 Ang^3
#
#
#
# Elastic Constant Matrix: (Units=GPa)
#
#
# Indices 1 2 3 4 5 6 
#
# 1 51.1605 8.8254 11.6181 0.0000 0.0000 0.0000
# 2 8.8254 51.1605 11.6181 0.0000 0.0000 0.0000
# 3 11.6181 11.6181 136.1371 0.0000 0.0000 0.0000
# 4 0.0000 0.0000 0.0000 14.4693 0.0000 0.0000
# 5 0.0000 0.0000 0.0000 0.0000 14.4693 0.0000
# 6 0.0000 0.0000 0.0000 0.0000 0.0000 37.3799
#
#
#
# Elastic Compliance Matrix: (Units=1/GPa)
#
#
# Indices 1 2 3 4 5 6 
#
# 1 0.020431 -0.003190 -0.001471 0.000000 0.000000 0.000000
# 2 -0.003190 0.020431 -0.001471 0.000000 0.000000 0.000000
# 3 -0.001471 -0.001471 0.007597 0.000000 0.000000 0.000000
# 4 0.000000 0.000000 0.000000 0.069112 0.000000 0.000000
# 5 0.000000 0.000000 0.000000 0.000000 0.069112 0.000000
# 6 0.000000 0.000000 0.000000 0.000000 0.000000 0.026752
#
#
# Mechanical properties :
#
#
# Convention : Reuss Voigt Hill
#
# Bulk Modulus (GPa) = 27.63012 33.62014 30.62513
# Shear Modulus (GPa) = 21.02921 27.02347 24.02634
#
# Velocity S-wave (km/s) = 3.14328 3.56322 3.35982
# Velocity P-wave (km/s) = 5.11421 5.72054 5.42585
#
# Compressibility (1/GPa) = 0.03619239
#
# Stress axis : x y z
#
# Youngs Moduli (GPa) = 48.94579 48.94579 131.63668
#
# Poissons Ratio (x) = 0.15615 0.19368
# Poissons Ratio (y) = 0.15615 0.19368
# Poissons Ratio (z) = 0.07202 0.07202
#
# Static dielectric constant tensor:
#      x y z
#    x 1.846720 0.000000 0.000000 
#    y 0.000000 1.846720 0.000000 
#    z 0.000000 0.000000 1.709590 
# 
# From -- ./inp_files/3373.got.cif
#   From: 2010.05.17/outbox.cif.g08.bks.cpg/sg114_2_cif.got.tgz:3373.got - 2010.05.20 11:04:54.
