data_PCOD9556322
_publ_section_title
;
Structure prediction by ZEFSAII (Michael W. Deem and Ramdas Pophale) SiO2 
 PCOD9556322
Probable space group: P -4 21 C
;
_chemical_formula_sum "Si O2"
_cell_formula_units_Z 30
_cell_length_a 9.485052
_cell_length_b 9.485052
_cell_length_c 15.982184
_cell_angle_alpha 90.000000
_cell_angle_beta 90.000000
_cell_angle_gamma 90.000000
_cell_volume 1437.856545
_symmetry_space_group_name_H-M "P -4 21 C"
_symmetry_group_IT_number 114
_symmetry_cell_setting 'tetragonal'
loop_
_space_group_symop_operation_xyz
x,y,z
y,-x,-z
-x,-y,z
-y,x,-z
1/2+x,1/2-y,1/2-z
1/2-x,1/2+y,1/2-z
1/2-y,1/2-x,1/2+z
1/2+y,1/2+x,1/2+z
loop_
_atom_site_type_symbol
_atom_site_label
_atom_site_fract_x
_atom_site_fract_y
_atom_site_fract_z
Si Si1 0.584262 0.863689 0.654937
Si Si2 0.000000 0.500000 0.182659
Si Si3 0.249242 0.367528 0.076205
Si Si4 0.087083 0.184282 0.959441
Si Si5 0.500000 0.500000 0.000000
O O1 0.738104 0.831166 0.620044
O O2 0.489084 0.730148 0.625805
O O3 0.500000 0.000000 0.618091
O O4 0.590851 0.904504 0.752392
O O5 0.885664 0.582461 0.128377
O O6 0.190697 0.304826 0.989697
O O7 0.361044 0.487938 0.056288
O O8 0.963660 0.167165 0.030351
#
# Coordination Sequence:
#
# PCOD9556322 Si02
#       5
#     8   4   8   8   2
#     4   9  21  43  63  94 133 175 220 281 331 397
#     4  10  26  38  66  98 136 178 212 278 344 416
#     4  11  24  42  66  98 130 181 223 280 331 401
#     4   9  19  36  66  95 123 172 230 275 319 388
#     4  12  28  40  68 100 132 180 230 292 328 388
#
# _framework density 20.864388000000002
#
# number of rings (size 3 to 8) (size 9 to 14) (size 15 to 20)
#    0.800    1.333    0.000    1.600    9.333    4.267 
#    0.000    2.667    0.000    0.000    0.000    0.000 
#    0.000    0.000    0.000    0.000    0.000    0.000 
#
# Total GULP energy -167051.843621 kJ/mol
# GULP energy per Si atom -5568.394787 kJ/mol
# Density = 2.081690 g / cm^3
# Si number density = 20.864388 Si / 1000 Ang^3
#
#
#
# Elastic Constant Matrix: (Units=GPa)
#
#
# Indices 1 2 3 4 5 6 
#
# 1 89.5248 62.3531 39.2048 0.0000 0.0000 0.0000
# 2 62.3531 89.5248 39.2048 0.0000 0.0000 0.0000
# 3 39.2048 39.2048 51.1594 0.0000 0.0000 0.0000
# 4 0.0000 0.0000 0.0000 -323.0621 0.0000 0.0000
# 5 0.0000 0.0000 0.0000 0.0000 -323.0621 0.0000
# 6 0.0000 0.0000 0.0000 0.0000 0.0000 49.2014
#
#
#
# Elastic Compliance Matrix: (Units=1/GPa)
#
#
# Indices 1 2 3 4 5 6 
#
# 1 0.023849 -0.012954 -0.008349 0.000000 0.000000 0.000000
# 2 -0.012954 0.023849 -0.008349 0.000000 0.000000 0.000000
# 3 -0.008349 -0.008349 0.032342 0.000000 0.000000 0.000000
# 4 0.000000 0.000000 0.000000 -0.003095 0.000000 0.000000
# 5 0.000000 0.000000 0.000000 0.000000 -0.003095 0.000000
# 6 0.000000 0.000000 0.000000 0.000000 0.000000 0.020325
#
#
# Mechanical properties :
#
#
# Convention : Reuss Voigt Hill
#
# Bulk Modulus (GPa) = 48.22420 56.85940 52.54180
# Shear Modulus (GPa) = 31.17425 -113.42147 -41.12361
#
# Velocity S-wave (km/s) = 3.86960 -7.38101 -4.44441
# Velocity P-wave (km/s) = 6.56722 6.73261 1.04871
#
# Compressibility (1/GPa) = 0.02073648
#
# Stress axis : x y z
#
# Youngs Moduli (GPa) = 41.93105 41.93105 30.91929
#
# Poissons Ratio (x) = 0.54319 0.25813
# Poissons Ratio (y) = 0.54319 0.25813
# Poissons Ratio (z) = 0.35007 0.35007
#
# Static dielectric constant tensor:
#      x y z
#    x 8.291510 0.000000 0.000000 
#    y 0.000000 8.291510 0.000000 
#    z 0.000000 0.000000 1.754950 
# 
# From -- ./inp_files/2800.got.cif
#   From: 2010.05.17/outbox.cif.g08.bks.cpg/sg114_2_cif.got.tgz:2800.got - 2010.05.20 11:04:54.
