data_PCOD9556771
_publ_section_title
;
Structure prediction by ZEFSAII (Michael W. Deem and Ramdas Pophale) SiO2 
 PCOD9556771
Probable space group: P -4 M 2
;
_chemical_formula_sum "Si O2"
_cell_formula_units_Z 44
_cell_length_a 9.078541
_cell_length_b 9.078541
_cell_length_c 29.831915
_cell_angle_alpha 90.000000
_cell_angle_beta 90.000000
_cell_angle_gamma 90.000000
_cell_volume 2458.743651
_symmetry_space_group_name_H-M "P -4 M 2"
_symmetry_group_IT_number 115
_symmetry_cell_setting 'tetragonal'
loop_
_space_group_symop_operation_xyz
x,y,z
y,-x,-z
-x,-y,z
-y,x,-z
y,x,-z
-y,-x,-z
-x,y,z
x,-y,z
loop_
_atom_site_type_symbol
_atom_site_label
_atom_site_fract_x
_atom_site_fract_y
_atom_site_fract_z
Si Si1 0.825140 0.174861 0.500000
Si Si2 0.327205 0.323001 0.231145
Si Si3 0.174908 0.822559 0.146254
Si Si4 0.830548 0.320638 0.322606
Si Si5 0.175216 0.178534 0.951830
Si Si6 0.326032 0.323032 0.414630
O O1 0.755365 0.248076 0.543969
O O2 0.000000 0.201096 0.499054
O O3 0.500000 0.290611 0.234700
O O4 0.309722 0.500000 0.227902
O O5 0.259074 0.249837 0.187230
O O6 0.245503 0.272691 0.276465
O O7 0.227290 0.768469 0.096859
O O8 0.000000 0.791552 0.150072
O O9 0.191531 0.000000 0.147550
O O10 0.828389 0.500000 0.322207
O O11 0.743951 0.275703 0.367255
O O12 0.000000 0.273093 0.324495
O O13 0.000000 0.209405 0.951764
O O14 0.188841 0.000000 0.952078
O O15 0.233867 0.233867 0.000000
O O16 0.500000 0.293562 0.414946
O O17 0.305808 0.500000 0.418899
#
# Coordination Sequence:
#
# PCOD9556771 Si02
#       6
#     4   8   8   8   8   8
#     4  11  24  39  54  76 108 143 176 209 246 288
#     4  10  20  33  49  70  98 133 171 207 244 292
#     4   9  17  29  47  72  98 123 156 201 251 300
#     4   9  17  31  53  78 102 130 165 207 254 299
#     4   7  10  19  38  64  91 117 148 191 243 295
#     4  10  20  35  57  83 107 132 166 207 250 298
#
# _framework density 17.895319000000001
#
# number of rings (size 3 to 8) (size 9 to 14) (size 15 to 20)
#    0.000    2.818    0.000    3.818    0.000    6.545 
#    0.000    0.909    0.000    6.545    0.000    6.364 
#    0.000    0.000    0.000    0.000    0.000    0.000 
#
# Total GULP energy -245203.948928 kJ/mol
# GULP energy per Si atom -5572.817021 kJ/mol
# Density = 1.785459 g / cm^3
# Si number density = 17.895319 Si / 1000 Ang^3
#
#
#
# Elastic Constant Matrix: (Units=GPa)
#
#
# Indices 1 2 3 4 5 6 
#
# 1 51.9408 49.9544 73.5086 0.0000 0.0000 0.0000
# 2 49.9544 51.9404 73.5086 0.0000 0.0000 0.0000
# 3 73.5086 73.5086 235.1875 0.0000 0.0000 0.0000
# 4 0.0000 0.0000 0.0000 35.7776 0.0000 0.0000
# 5 0.0000 0.0000 0.0000 0.0000 35.7763 0.0000
# 6 0.0000 0.0000 0.0000 0.0000 0.0000 20.9453
#
#
#
# Elastic Compliance Matrix: (Units=1/GPa)
#
#
# Indices 1 2 3 4 5 6 
#
# 1 0.260675 -0.242801 -0.005586 0.000000 0.000000 0.000000
# 2 -0.242801 0.260678 -0.005587 0.000000 0.000000 0.000000
# 3 -0.005586 -0.005587 0.007744 0.000000 0.000000 0.000000
# 4 0.000000 0.000000 0.000000 0.027950 0.000000 0.000000
# 5 0.000000 0.000000 0.000000 0.000000 0.027951 0.000000
# 6 0.000000 0.000000 0.000000 0.000000 0.000000 0.047743
#
#
# Mechanical properties :
#
#
# Convention : Reuss Voigt Hill
#
# Bulk Modulus (GPa) = 47.28869 81.44577 64.36723
# Shear Modulus (GPa) = 4.35638 27.97297 16.16468
#
# Velocity S-wave (km/s) = 1.56194 3.95795 3.00874
# Velocity P-wave (km/s) = 5.45302 8.15465 6.93663
#
# Compressibility (1/GPa) = 0.02114671
#
# Stress axis : x y z
#
# Youngs Moduli (GPa) = 3.83619 3.83615 129.12695
#
# Poissons Ratio (x) = 0.93142 0.72137
# Poissons Ratio (y) = 0.93143 0.72147
# Poissons Ratio (z) = 0.02143 0.02143
#
# Static dielectric constant tensor:
#      x y z
#    x 1.599080 0.000000 0.000000 
#    y 0.000000 1.599080 0.000000 
#    z 0.000000 0.000000 1.624290 
# 
# From -- ./inp_files/5737.got.cif
#   From: 2010.05.17/outbox.cif.g08.bks.cpg/sg115_3_cif.got.tgz:5737.got - 2010.05.20 11:07:42.
