data_PCOD9556370
_publ_section_title
;
Structure prediction by ZEFSAII (Michael W. Deem and Ramdas Pophale) SiO2 
 PCOD9556370
Probable space group: P -4 21 C
;
_chemical_formula_sum "Si O2"
_cell_formula_units_Z 18
_cell_length_a 4.870873
_cell_length_b 4.870873
_cell_length_c 25.290271
_cell_angle_alpha 90.000000
_cell_angle_beta 90.000000
_cell_angle_gamma 90.000000
_cell_volume 600.021891
_symmetry_space_group_name_H-M "P -4 21 C"
_symmetry_group_IT_number 114
_symmetry_cell_setting 'tetragonal'
loop_
_space_group_symop_operation_xyz
x,y,z
y,-x,-z
-x,-y,z
-y,x,-z
1/2+x,1/2-y,1/2-z
1/2-x,1/2+y,1/2-z
1/2-y,1/2-x,1/2+z
1/2+y,1/2+x,1/2+z
loop_
_atom_site_type_symbol
_atom_site_label
_atom_site_fract_x
_atom_site_fract_y
_atom_site_fract_z
Si Si1 0.000000 0.000000 0.000000
Si Si2 0.000000 0.500000 0.251569
Si Si3 0.000000 0.500000 0.071984
Si Si4 0.775174 0.230137 0.166290
O O1 0.749988 0.099765 0.963676
O O2 0.218397 0.233039 0.265134
O O3 0.000000 0.500000 0.185402
O O4 0.000000 0.500000 0.323069
O O5 0.756621 0.370165 0.108926
O O6 0.000000 0.000000 0.159900
#
# Coordination Sequence:
#
# PCOD9556370 Si02
#       4
#     2   4   4   8
#     4  12  28  60  76 112 140 208 272 348 384 442
#     4  11  22  37  70 108 166 195 238 293 380 478
#     4  11  28  53  80 104 152 193 274 327 396 450
#     4  11  22  43  69 115 153 202 243 302 381 475
#
# _framework density 29.998912000000001
#
# number of rings (size 3 to 8) (size 9 to 14) (size 15 to 20)
#    0.000    0.889    6.667    0.000    0.000    2.667 
#    8.000    0.000    0.000    0.000    0.000    0.000 
#    0.000    0.000    0.000    0.000    0.000    0.000 
#
# Total GULP energy -100359.481496 kJ/mol
# GULP energy per Si atom -5575.526750 kJ/mol
# Density = 2.993063 g / cm^3
# Si number density = 29.998912 Si / 1000 Ang^3
#
#
#
# Elastic Constant Matrix: (Units=GPa)
#
#
# Indices 1 2 3 4 5 6 
#
# 1 271.0918 83.2072 87.7907 0.0000 0.0000 0.0000
# 2 83.2072 271.0918 87.7907 0.0000 0.0000 0.0000
# 3 87.7907 87.7907 203.8443 0.0000 0.0000 0.0000
# 4 0.0000 0.0000 0.0000 10.4008 0.0000 0.0000
# 5 0.0000 0.0000 0.0000 0.0000 10.4008 0.0000
# 6 0.0000 0.0000 0.0000 0.0000 0.0000 86.1457
#
#
#
# Elastic Compliance Matrix: (Units=1/GPa)
#
#
# Indices 1 2 3 4 5 6 
#
# 1 0.004455 -0.000867 -0.001545 0.000000 0.000000 0.000000
# 2 -0.000867 0.004455 -0.001545 0.000000 0.000000 0.000000
# 3 -0.001545 -0.001545 0.006237 0.000000 0.000000 0.000000
# 4 0.000000 0.000000 0.000000 0.096146 0.000000 0.000000
# 5 0.000000 0.000000 0.000000 0.000000 0.096146 0.000000
# 6 0.000000 0.000000 0.000000 0.000000 0.000000 0.011608
#
#
# Mechanical properties :
#
#
# Convention : Reuss Voigt Hill
#
# Bulk Modulus (GPa) = 138.27647 140.40054 139.33850
# Shear Modulus (GPa) = 21.79835 53.87209 37.83522
#
# Velocity S-wave (km/s) = 2.69855 4.24229 3.55522
# Velocity P-wave (km/s) = 7.47686 8.42018 7.96250
#
# Compressibility (1/GPa) = 0.00723189
#
# Stress axis : x y z
#
# Youngs Moduli (GPa) = 224.44784 224.44784 160.33752
#
# Poissons Ratio (x) = 0.19461 0.24779
# Poissons Ratio (y) = 0.19461 0.24779
# Poissons Ratio (z) = 0.34686 0.34686
#
# Static dielectric constant tensor:
#      x y z
#    x 3.188340 0.000000 0.000000 
#    y 0.000000 3.188340 0.000000 
#    z 0.000000 0.000000 2.268210 
# 
# From -- ./inp_files/1167.got.cif
#   From: 2010.05.17/outbox.cif.g08.bks.cpg/sg114_1_cif.got.tgz:1167.got - 2010.05.20 11:04:54.
