data_PCOD9556023
_publ_section_title
;
Structure prediction by ZEFSAII (Michael W. Deem and Ramdas Pophale) SiO2 
 PCOD9556023
Probable space group: P -4 21 C
;
_chemical_formula_sum "Si O2"
_cell_formula_units_Z 56
_cell_length_a 11.086623
_cell_length_b 11.086623
_cell_length_c 24.224775
_cell_angle_alpha 90.000000
_cell_angle_beta 90.000000
_cell_angle_gamma 90.000000
_cell_volume 2977.544846
_symmetry_space_group_name_H-M "P -4 21 C"
_symmetry_group_IT_number 114
_symmetry_cell_setting 'tetragonal'
loop_
_space_group_symop_operation_xyz
x,y,z
y,-x,-z
-x,-y,z
-y,x,-z
1/2+x,1/2-y,1/2-z
1/2-x,1/2+y,1/2-z
1/2-y,1/2-x,1/2+z
1/2+y,1/2+x,1/2+z
loop_
_atom_site_type_symbol
_atom_site_label
_atom_site_fract_x
_atom_site_fract_y
_atom_site_fract_z
Si Si1 0.642018 0.232972 0.850463
Si Si2 0.144841 0.500000 0.955402
Si Si3 0.732972 0.857982 0.350463
Si Si4 0.360903 0.780281 0.463979
Si Si5 0.219719 0.639097 0.536021
Si Si6 0.228057 0.000000 0.663790
Si Si7 0.356140 0.000000 0.779091
O O1 0.500000 0.213025 0.861499
O O2 0.712064 0.212332 0.907610
O O3 0.658816 0.371562 0.831932
O O4 0.682961 0.125148 0.809186
O O5 0.208693 0.500000 0.896290
O O6 0.000000 0.500000 0.946855
O O7 0.176114 0.385949 0.993699
O O8 0.176113 0.614051 0.993699
O O9 0.712332 0.787936 0.407610
O O10 0.871562 0.841184 0.331932
O O11 0.625148 0.817039 0.309186
O O12 0.338420 0.661580 0.500000
O O13 0.500000 0.798613 0.449427
O O14 0.316794 1.000000 0.715840
O O15 0.500000 0.000000 0.781745
#
# Coordination Sequence:
#
# PCOD9556023 Si02
#       7
#     8   8   8   8   8   8   8
#     4  11  22  38  61  89 117 160 202 252 304 375
#     4  10  21  33  57  86 115 149 195 241 293 365
#     4  11  22  38  61  89 117 160 202 252 304 375
#     4  11  21  37  60  87 119 158 202 245 304 371
#     4  11  21  37  60  87 119 158 202 245 304 371
#     4  12  22  38  58  90 126 150 196 258 318 339
#     4  10  23  41  63  82 115 165 211 240 294 383
#
# _framework density 18.807441000000001
#
# number of rings (size 3 to 8) (size 9 to 14) (size 15 to 20)
#    0.000    1.143    5.714    1.714    0.000    0.286 
#    0.000    0.000    0.000    1.714    0.000    0.000 
#    0.000    0.000    0.000    0.000    0.000    0.000 
#
# Total GULP energy -312164.459419 kJ/mol
# GULP energy per Si atom -5574.365347 kJ/mol
# Density = 1.876463 g / cm^3
# Si number density = 18.807441 Si / 1000 Ang^3
#
#
#
# Elastic Constant Matrix: (Units=GPa)
#
#
# Indices 1 2 3 4 5 6 
#
# 1 67.5903 11.9207 25.2167 0.0000 0.0000 0.0000
# 2 11.9207 67.5903 25.2167 0.0000 0.0000 0.0000
# 3 25.2167 25.2167 93.3046 0.0000 0.0000 0.0000
# 4 0.0000 0.0000 0.0000 25.2737 0.0000 0.0000
# 5 0.0000 0.0000 0.0000 0.0000 25.2737 0.0000
# 6 0.0000 0.0000 0.0000 0.0000 0.0000 25.6354
#
#
#
# Elastic Compliance Matrix: (Units=1/GPa)
#
#
# Indices 1 2 3 4 5 6 
#
# 1 0.016571 -0.001392 -0.004102 0.000000 0.000000 0.000000
# 2 -0.001392 0.016571 -0.004102 0.000000 0.000000 0.000000
# 3 -0.004102 -0.004102 0.012935 0.000000 0.000000 0.000000
# 4 0.000000 0.000000 0.000000 0.039567 0.000000 0.000000
# 5 0.000000 0.000000 0.000000 0.000000 0.039567 0.000000
# 6 0.000000 0.000000 0.000000 0.000000 0.000000 0.039009
#
#
# Mechanical properties :
#
#
# Convention : Reuss Voigt Hill
#
# Bulk Modulus (GPa) = 37.19728 39.24370 38.22049
# Shear Modulus (GPa) = 25.99108 26.31198 26.15153
#
# Velocity S-wave (km/s) = 3.72150 3.74440 3.73297
# Velocity P-wave (km/s) = 6.18765 6.29329 6.24069
#
# Compressibility (1/GPa) = 0.02688368
#
# Stress axis : x y z
#
# Youngs Moduli (GPa) = 60.34631 60.34631 77.30985
#
# Poissons Ratio (x) = 0.08401 0.31715
# Poissons Ratio (y) = 0.08401 0.31715
# Poissons Ratio (z) = 0.24756 0.24756
#
# Static dielectric constant tensor:
#      x y z
#    x 1.681300 0.000000 0.000000 
#    y 0.000000 1.681300 0.000000 
#    z 0.000000 0.000000 1.616540 
# 
# From -- ./inp_files/3139.got.cif
#   From: 2010.05.17/outbox.cif.g08.bks.cpg/sg114_2_cif.got.tgz:3139.got - 2010.05.20 11:04:54.
