data_PCOD9556620
_publ_section_title
;
Structure prediction by ZEFSAII (Michael W. Deem and Ramdas Pophale) SiO2 
 PCOD9556620
Probable space group: P -4 M 2
;
_chemical_formula_sum "Si O2"
_cell_formula_units_Z 56
_cell_length_a 18.328797
_cell_length_b 18.328797
_cell_length_c 11.367488
_cell_angle_alpha 90.000000
_cell_angle_beta 90.000000
_cell_angle_gamma 90.000000
_cell_volume 3818.848477
_symmetry_space_group_name_H-M "P -4 M 2"
_symmetry_group_IT_number 115
_symmetry_cell_setting 'tetragonal'
loop_
_space_group_symop_operation_xyz
x,y,z
y,-x,-z
-x,-y,z
-y,x,-z
y,x,-z
-y,-x,-z
-x,y,z
x,-y,z
loop_
_atom_site_type_symbol
_atom_site_label
_atom_site_fract_x
_atom_site_fract_y
_atom_site_fract_z
Si Si1 0.413458 0.706971 0.708910
Si Si2 0.415243 0.360209 0.125109
Si Si3 0.664524 0.775751 0.490532
Si Si4 0.150318 0.586811 0.158854
Si Si5 0.411006 0.916892 0.085300
Si Si6 0.084536 0.586090 0.411036
Si Si7 0.585185 0.211858 0.249582
O O1 0.500000 0.715820 0.695029
O O2 0.396610 0.630735 0.770273
O O3 0.377093 0.723718 0.584043
O O4 0.385893 0.770800 0.797880
O O5 0.500000 0.381368 0.128857
O O6 0.410835 0.273710 0.149275
O O7 0.382752 0.382752 0.000000
O O8 0.748096 0.748096 0.500000
O O9 0.639510 0.857347 0.527567
O O10 0.634061 0.766238 0.359577
O O11 0.159343 0.500000 0.140586
O O12 0.097150 0.595370 0.270832
O O13 0.117370 0.615750 0.037909
O O14 0.500000 0.917419 0.081575
O O15 0.391496 0.864434 0.192807
O O16 0.386790 0.000000 0.098440
O O17 0.101778 0.500000 0.437115
O O18 0.000000 0.598493 0.441447
O O19 0.500000 0.207428 0.286503
#
# Coordination Sequence:
#
# PCOD9556620 Si02
#       7
#     8   8   8   8   8   8   8
#     4  10  19  32  49  65  82 113 155 199 244 284
#     4  11  22  34  47  61  81 109 149 202 252 290
#     4  11  20  34  49  66  91 125 157 190 230 286
#     4   8  14  26  45  69  92 112 141 183 235 289
#     4   9  16  26  43  67  93 117 141 177 230 288
#     4   9  17  29  49  74  96 120 154 198 240 281
#     4  10  20  33  46  62  85 116 152 192 235 283
#
# _framework density 14.664107
#
# number of rings (size 3 to 8) (size 9 to 14) (size 15 to 20)
#    0.000    2.286    1.429    3.857    0.000    5.571 
#    0.000    1.429    0.000    0.000    0.000    0.000 
#    0.000    0.286    0.000    0.000    0.000    0.000 
#
# Total GULP energy -312000.327348 kJ/mol
# GULP energy per Si atom -5571.434417 kJ/mol
# Density = 1.463073 g / cm^3
# Si number density = 14.664107 Si / 1000 Ang^3
#
#
#
# Elastic Constant Matrix: (Units=GPa)
#
#
# Indices 1 2 3 4 5 6 
#
# 1 66.5683 31.2543 36.0296 0.0000 0.0000 0.0000
# 2 31.2543 66.5683 36.0296 0.0000 0.0000 0.0000
# 3 36.0296 36.0296 79.3945 0.0000 0.0000 0.0000
# 4 0.0000 0.0000 0.0000 12.8224 0.0000 0.0000
# 5 0.0000 0.0000 0.0000 0.0000 12.8224 0.0000
# 6 0.0000 0.0000 0.0000 0.0000 0.0000 12.0927
#
#
#
# Elastic Compliance Matrix: (Units=1/GPa)
#
#
# Indices 1 2 3 4 5 6 
#
# 1 0.021837 -0.006481 -0.006969 0.000000 0.000000 0.000000
# 2 -0.006481 0.021837 -0.006969 0.000000 0.000000 0.000000
# 3 -0.006969 -0.006969 0.018920 0.000000 0.000000 0.000000
# 4 0.000000 0.000000 0.000000 0.077989 0.000000 0.000000
# 5 0.000000 0.000000 0.000000 0.000000 0.077989 0.000000
# 6 0.000000 0.000000 0.000000 0.000000 0.000000 0.082694
#
#
# Mechanical properties :
#
#
# Convention : Reuss Voigt Hill
#
# Bulk Modulus (GPa) = 45.96111 46.57312 46.26712
# Shear Modulus (GPa) = 14.31216 14.82867 14.57042
#
# Velocity S-wave (km/s) = 3.12749 3.18342 3.15558
# Velocity P-wave (km/s) = 6.66725 6.73358 6.70050
#
# Compressibility (1/GPa) = 0.02175752
#
# Stress axis : x y z
#
# Youngs Moduli (GPa) = 45.79462 45.79462 52.85404
#
# Poissons Ratio (x) = 0.29679 0.36832
# Poissons Ratio (y) = 0.29679 0.36832
# Poissons Ratio (z) = 0.31912 0.31912
#
# Static dielectric constant tensor:
#      x y z
#    x 1.492850 0.000000 0.000000 
#    y 0.000000 1.492850 0.000000 
#    z 0.000000 0.000000 1.503980 
# 
# From -- ./inp_files/3140.got.cif
#   From: 2010.05.17/outbox.cif.g08.bks.cpg/sg115_2_cif.got.tgz:3140.got - 2010.05.20 11:07:42.
