data_PCOD9556854
_publ_section_title
;
Structure prediction by ZEFSAII (Michael W. Deem and Ramdas Pophale) SiO2 
 PCOD9556854
Probable space group: P -4 M 2
;
_chemical_formula_sum "Si O2"
_cell_formula_units_Z 40
_cell_length_a 9.174791
_cell_length_b 9.174791
_cell_length_c 26.677429
_cell_angle_alpha 90.000000
_cell_angle_beta 90.000000
_cell_angle_gamma 90.000000
_cell_volume 2245.620336
_symmetry_space_group_name_H-M "P -4 M 2"
_symmetry_group_IT_number 115
_symmetry_cell_setting 'tetragonal'
loop_
_space_group_symop_operation_xyz
x,y,z
y,-x,-z
-x,-y,z
-y,x,-z
y,x,-z
-y,-x,-z
-x,y,z
x,-y,z
loop_
_atom_site_type_symbol
_atom_site_label
_atom_site_fract_x
_atom_site_fract_y
_atom_site_fract_z
Si Si1 0.167117 0.677676 0.344909
Si Si2 0.329569 0.675772 0.243364
Si Si3 0.668798 0.677822 0.444713
Si Si4 0.173905 0.327446 0.953509
Si Si5 0.825069 0.828857 0.849651
O O1 0.168826 0.500000 0.345806
O O2 0.259245 0.721689 0.296310
O O3 0.237846 0.726360 0.397250
O O4 0.000000 0.724475 0.340299
O O5 0.500000 0.713640 0.241884
O O6 0.317263 0.500000 0.240028
O O7 0.245582 0.747427 0.197261
O O8 0.722672 0.722672 0.500000
O O9 0.500000 0.721723 0.438352
O O10 0.669942 0.500000 0.445619
O O11 0.200153 0.500000 0.949977
O O12 0.216336 0.249655 0.901565
O O13 0.000000 0.304508 0.960559
O O14 0.258442 0.258442 0.000000
O O15 0.000000 0.814249 0.844155
O O16 0.789747 0.000000 0.852086
#
# Coordination Sequence:
#
# PCOD9556854 Si02
#       5
#     8   8   8   8   8
#     4   9  16  26  42  66  96 128 162 203 251 302
#     4  10  20  33  51  76 105 136 171 213 259 305
#     4   8  13  22  38  60  85 115 154 199 245 295
#     4  10  21  37  57  80 105 135 171 210 253 301
#     4  10  21  37  57  79 104 137 175 213 255 305
#
# _framework density 17.812449999999998
#
# number of rings (size 3 to 8) (size 9 to 14) (size 15 to 20)
#    0.000    2.600    0.000    3.000    0.000    6.800 
#    0.000    0.000    0.000    1.200    0.000    2.800 
#    0.000    0.000    0.000    0.000    0.000    0.000 
#
# Total GULP energy -223136.448488 kJ/mol
# GULP energy per Si atom -5578.411212 kJ/mol
# Density = 1.777191 g / cm^3
# Si number density = 17.812450 Si / 1000 Ang^3
#
#
#
# Elastic Constant Matrix: (Units=GPa)
#
#
# Indices 1 2 3 4 5 6 
#
# 1 68.6909 48.0950 80.3398 0.0000 0.0000 0.0000
# 2 48.0950 68.6909 80.3398 0.0000 0.0000 0.0000
# 3 80.3398 80.3398 210.0979 0.0000 0.0000 0.0000
# 4 0.0000 0.0000 0.0000 -486.0326 0.0000 0.0000
# 5 0.0000 0.0000 0.0000 0.0000 -486.0326 0.0000
# 6 0.0000 0.0000 0.0000 0.0000 0.0000 20.0193
#
#
#
# Elastic Compliance Matrix: (Units=1/GPa)
#
#
# Indices 1 2 3 4 5 6 
#
# 1 0.033311 -0.015242 -0.006909 0.000000 0.000000 0.000000
# 2 -0.015242 0.033311 -0.006909 0.000000 0.000000 0.000000
# 3 -0.006909 -0.006909 0.010044 0.000000 0.000000 0.000000
# 4 0.000000 0.000000 0.000000 -0.002057 0.000000 0.000000
# 5 0.000000 0.000000 0.000000 0.000000 -0.002057 0.000000
# 6 0.000000 0.000000 0.000000 0.000000 0.000000 0.049952
#
#
# Mechanical properties :
#
#
# Convention : Reuss Voigt Hill
#
# Bulk Modulus (GPa) = 53.92525 85.00321 69.46423
# Shear Modulus (GPa) = 26.76562 -181.16218 -77.19828
#
# Velocity S-wave (km/s) = 3.88059 -10.09585 -6.59042
# Velocity P-wave (km/s) = 7.10058 9.38492 4.33927
#
# Compressibility (1/GPa) = 0.01854419
#
# Stress axis : x y z
#
# Youngs Moduli (GPa) = 30.01991 30.01991 99.56242
#
# Poissons Ratio (x) = 0.45757 0.68792
# Poissons Ratio (y) = 0.45757 0.68792
# Poissons Ratio (z) = 0.20742 0.20742
#
# Static dielectric constant tensor:
#      x y z
#    x 1.601880 0.000000 0.000000 
#    y 0.000000 1.601880 0.000000 
#    z 0.000000 0.000000 1.588880 
# 
# From -- ./inp_files/5090.got.cif
#   From: 2010.05.17/outbox.cif.g08.bks.cpg/sg115_3_cif.got.tgz:5090.got - 2010.05.20 11:07:42.
