data_PCOD9556640
_publ_section_title
;
Structure prediction by ZEFSAII (Michael W. Deem and Ramdas Pophale) SiO2 
 PCOD9556640
Probable space group: P -4 M 2
;
_chemical_formula_sum "Si O2"
_cell_formula_units_Z 64
_cell_length_a 14.099279
_cell_length_b 14.099279
_cell_length_c 18.921823
_cell_angle_alpha 90.000000
_cell_angle_beta 90.000000
_cell_angle_gamma 90.000000
_cell_volume 3761.462918
_symmetry_space_group_name_H-M "P -4 M 2"
_symmetry_group_IT_number 115
_symmetry_cell_setting 'tetragonal'
loop_
_space_group_symop_operation_xyz
x,y,z
y,-x,-z
-x,-y,z
-y,x,-z
y,x,-z
-y,-x,-z
-x,y,z
x,-y,z
loop_
_atom_site_type_symbol
_atom_site_label
_atom_site_fract_x
_atom_site_fract_y
_atom_site_fract_z
Si Si1 0.300954 0.112319 0.634287
Si Si2 0.698516 0.888419 0.224840
Si Si3 0.232893 0.613712 0.493507
Si Si4 0.891214 0.107273 0.702863
Si Si5 0.730975 0.112872 0.075763
Si Si6 0.267347 0.112459 0.919541
Si Si7 0.391551 0.885008 0.785646
Si Si8 0.109230 0.386427 0.630594
O O1 0.346791 0.175162 0.573688
O O2 0.187454 0.123359 0.642938
O O3 0.342895 0.139518 0.711231
O O4 0.321193 0.000000 0.622420
O O5 0.811456 0.880156 0.238633
O O6 0.674910 0.854775 0.146104
O O7 0.651339 0.848567 0.295577
O O8 0.672967 0.000000 0.226518
O O9 0.332522 0.667479 0.500000
O O10 0.241542 0.500000 0.489146
O O11 0.171672 0.638890 0.563186
O O12 0.000000 0.112849 0.677607
O O13 0.874648 0.000000 0.730444
O O14 0.828704 0.170594 0.079004
O O15 0.747170 0.000000 0.082741
O O16 0.687950 0.128325 0.997844
O O17 0.332167 0.144957 0.854311
O O18 0.250503 0.000000 0.912344
O O19 0.500000 0.851511 0.787787
O O20 0.393228 0.000000 0.787724
O O21 0.105688 0.500000 0.634420
O O22 0.000000 0.351771 0.622242
#
# Coordination Sequence:
#
# PCOD9556640 Si02
#       8
#     8   8   8   8   8   8   8   8
#     4  10  19  32  53  78 101 127 162 201 239 288
#     4   9  16  27  43  62  88 122 158 193 225 266
#     4  11  23  37  53  73  96 123 158 199 245 294
#     4   9  17  28  44  70 103 135 163 191 231 285
#     4   9  17  27  40  60  86 118 156 193 229 278
#     4   9  17  28  40  58  87 120 154 193 236 278
#     4   9  17  29  45  65  90 121 157 199 246 290
#     4   9  18  33  52  72  93 117 148 191 241 287
#
# _framework density 17.014657
#
# number of rings (size 3 to 8) (size 9 to 14) (size 15 to 20)
#    0.000    2.625    0.000    2.250    0.000    3.125 
#    0.000    3.750    0.000    4.500    0.000    3.500 
#    0.000    0.000    0.000    0.000    0.000    1.625 
#
# Total GULP energy -356407.584463 kJ/mol
# GULP energy per Si atom -5568.868507 kJ/mol
# Density = 1.697593 g / cm^3
# Si number density = 17.014657 Si / 1000 Ang^3
#
#
#
# Elastic Constant Matrix: (Units=GPa)
#
#
# Indices 1 2 3 4 5 6 
#
# 1 49.2438 19.2908 42.1542 0.0000 0.0000 0.0000
# 2 19.2908 49.2461 42.1551 0.0000 0.0000 0.0000
# 3 42.1542 42.1551 160.5140 0.0000 0.0000 0.0000
# 4 0.0000 0.0000 0.0000 14.8148 0.0000 0.0000
# 5 0.0000 0.0000 0.0000 0.0000 14.8146 0.0000
# 6 0.0000 0.0000 0.0000 0.0000 0.0000 15.9963
#
#
#
# Elastic Compliance Matrix: (Units=1/GPa)
#
#
# Indices 1 2 3 4 5 6 
#
# 1 0.027470 -0.005915 -0.005661 0.000000 0.000000 0.000000
# 2 -0.005915 0.027469 -0.005661 0.000000 0.000000 0.000000
# 3 -0.005661 -0.005661 0.009203 0.000000 0.000000 0.000000
# 4 0.000000 0.000000 0.000000 0.067500 0.000000 0.000000
# 5 0.000000 0.000000 0.000000 0.000000 0.067501 0.000000
# 6 0.000000 0.000000 0.000000 0.000000 0.000000 0.062514
#
#
# Mechanical properties :
#
#
# Convention : Reuss Voigt Hill
#
# Bulk Modulus (GPa) = 33.70480 51.80045 42.75263
# Shear Modulus (GPa) = 16.33880 19.48539 17.91210
#
# Velocity S-wave (km/s) = 3.10220 3.38777 3.24812
# Velocity P-wave (km/s) = 5.71697 6.76856 6.26487
#
# Compressibility (1/GPa) = 0.02966936
#
# Stress axis : x y z
#
# Youngs Moduli (GPa) = 36.40333 36.40504 108.65744
#
# Poissons Ratio (x) = 0.21533 0.61508
# Poissons Ratio (y) = 0.21532 0.61507
# Poissons Ratio (z) = 0.20607 0.20607
#
# Static dielectric constant tensor:
#      x y z
#    x 1.579670 0.000000 0.000000 
#    y 0.000000 1.579670 0.000000 
#    z 0.000000 0.000000 1.620540 
# 
# From -- ./inp_files/4475.got.cif
#   From: 2010.05.17/outbox.cif.g08.bks.cpg/sg115_3_cif.got.tgz:4475.got - 2010.05.20 11:07:42.
