data_PCOD9556214
_publ_section_title
;
Structure prediction by ZEFSAII (Michael W. Deem and Ramdas Pophale) SiO2 
 PCOD9556214
Probable space group: P -4 21 C
;
_chemical_formula_sum "Si O2"
_cell_formula_units_Z 22
_cell_length_a 8.334146
_cell_length_b 8.334146
_cell_length_c 12.698706
_cell_angle_alpha 90.000000
_cell_angle_beta 90.000000
_cell_angle_gamma 90.000000
_cell_volume 882.026589
_symmetry_space_group_name_H-M "P -4 21 C"
_symmetry_group_IT_number 114
_symmetry_cell_setting 'tetragonal'
loop_
_space_group_symop_operation_xyz
x,y,z
y,-x,-z
-x,-y,z
-y,x,-z
1/2+x,1/2-y,1/2-z
1/2-x,1/2+y,1/2-z
1/2-y,1/2-x,1/2+z
1/2+y,1/2+x,1/2+z
loop_
_atom_site_type_symbol
_atom_site_label
_atom_site_fract_x
_atom_site_fract_y
_atom_site_fract_z
Si Si1 0.000000 0.500000 0.562203
Si Si2 0.287482 0.645588 0.167244
Si Si3 0.000000 0.000000 0.500000
Si Si4 0.998125 0.689847 0.862964
O O1 0.989259 0.337396 0.627956
O O2 0.844539 0.482165 0.486418
O O3 0.232890 0.826117 0.155386
O O4 0.295598 0.616218 0.292243
O O5 0.434042 0.629416 0.084176
O O6 0.000000 0.500000 0.825844
#
# Coordination Sequence:
#
# PCOD9556214 Si02
#       4
#     4   8   2   8
#     4  10  22  46  66  98 142 182 228 294 340 420
#     4  12  24  43  71 101 140 187 233 287 357 415
#     4  12  24  40  72 100 142 192 228 280 364 424
#     4  10  25  43  68 102 142 178 236 292 345 422
#
# _framework density 24.942557000000001
#
# number of rings (size 3 to 8) (size 9 to 14) (size 15 to 20)
#    1.091    0.000    5.455    0.000   10.182    0.000 
#    0.000    0.000    0.000    0.000    0.000    0.000 
#    0.000    0.000    0.000    0.000    0.000    0.000 
#
# Total GULP energy -122498.844174 kJ/mol
# GULP energy per Si atom -5568.129281 kJ/mol
# Density = 2.488579 g / cm^3
# Si number density = 24.942557 Si / 1000 Ang^3
#
#
#
# Elastic Constant Matrix: (Units=GPa)
#
#
# Indices 1 2 3 4 5 6 
#
# 1 45.2461 0.2912 23.3007 0.0000 0.0000 0.0000
# 2 0.2912 45.2461 23.3007 0.0000 0.0000 0.0000
# 3 23.3007 23.3007 79.1956 0.0000 0.0000 0.0000
# 4 0.0000 0.0000 0.0000 22.0116 0.0000 0.0000
# 5 0.0000 0.0000 0.0000 0.0000 22.0116 0.0000
# 6 0.0000 0.0000 0.0000 0.0000 0.0000 28.2947
#
#
#
# Elastic Compliance Matrix: (Units=1/GPa)
#
#
# Indices 1 2 3 4 5 6 
#
# 1 0.026833 0.004588 -0.009244 0.000000 0.000000 0.000000
# 2 0.004588 0.026833 -0.009244 0.000000 0.000000 0.000000
# 3 -0.009244 -0.009244 0.018067 0.000000 0.000000 0.000000
# 4 0.000000 0.000000 0.000000 0.045431 0.000000 0.000000
# 5 0.000000 0.000000 0.000000 0.000000 0.045431 0.000000
# 6 0.000000 0.000000 0.000000 0.000000 0.000000 0.035342
#
#
# Mechanical properties :
#
#
# Convention : Reuss Voigt Hill
#
# Bulk Modulus (GPa) = 22.76352 29.27477 26.01915
# Shear Modulus (GPa) = 20.80036 22.64992 21.72514
#
# Velocity S-wave (km/s) = 2.89092 3.01671 2.95448
# Velocity P-wave (km/s) = 4.50438 4.88840 4.70031
#
# Compressibility (1/GPa) = 0.04392993
#
# Stress axis : x y z
#
# Youngs Moduli (GPa) = 37.26820 37.26820 55.35034
#
# Poissons Ratio (x) = -0.17099 0.51168
# Poissons Ratio (y) = -0.17099 0.51168
# Poissons Ratio (z) = 0.34452 0.34452
#
# Static dielectric constant tensor:
#      x y z
#    x 1.941560 0.000000 0.000000 
#    y 0.000000 1.941560 0.000000 
#    z 0.000000 0.000000 2.060600 
# 
# From -- ./inp_files/1855.got.cif
#   From: 2010.05.17/outbox.cif.g08.bks.cpg/sg114_1_cif.got.tgz:1855.got - 2010.05.20 11:04:54.
