data_PCOD9556783
_publ_section_title
;
Structure prediction by ZEFSAII (Michael W. Deem and Ramdas Pophale) SiO2 
 PCOD9556783
Probable space group: P -4 M 2
;
_chemical_formula_sum "Si O2"
_cell_formula_units_Z 48
_cell_length_a 9.105986
_cell_length_b 9.105986
_cell_length_c 31.958433
_cell_angle_alpha 90.000000
_cell_angle_beta 90.000000
_cell_angle_gamma 90.000000
_cell_volume 2649.960700
_symmetry_space_group_name_H-M "P -4 M 2"
_symmetry_group_IT_number 115
_symmetry_cell_setting 'tetragonal'
loop_
_space_group_symop_operation_xyz
x,y,z
y,-x,-z
-x,-y,z
-y,x,-z
y,x,-z
-y,-x,-z
-x,y,z
x,-y,z
loop_
_atom_site_type_symbol
_atom_site_label
_atom_site_fract_x
_atom_site_fract_y
_atom_site_fract_z
Si Si1 0.825389 0.325345 0.880386
Si Si2 0.172592 0.676151 0.460629
Si Si3 0.176745 0.325357 0.198222
Si Si4 0.668306 0.320864 0.375564
Si Si5 0.678815 0.169523 0.707900
Si Si6 0.824920 0.675114 0.039980
O O1 0.798803 0.500000 0.882334
O O2 0.763866 0.259582 0.837261
O O3 0.743408 0.245442 0.918433
O O4 0.000000 0.300552 0.883663
O O5 0.249476 0.750525 0.500000
O O6 0.193015 0.500000 0.463683
O O7 0.242018 0.725065 0.416512
O O8 0.000000 0.706874 0.460735
O O9 0.206499 0.500000 0.193528
O O10 0.219193 0.278695 0.245470
O O11 0.000000 0.307239 0.194529
O O12 0.500000 0.275356 0.379361
O O13 0.672400 0.500000 0.374822
O O14 0.736957 0.270622 0.331650
O O15 0.500000 0.171167 0.707918
O O16 0.723274 0.000000 0.702484
O O17 0.800208 0.500000 0.038869
O O18 0.000000 0.700488 0.039577
O O19 0.750708 0.750708 0.000000
#
# Coordination Sequence:
#
# PCOD9556783 Si02
#       6
#     8   8   8   8   8   8
#     4  11  24  39  55  79 111 146 185 226 268 316
#     4  10  20  33  50  72  99 132 169 210 258 310
#     4   9  18  33  54  80 108 140 180 223 266 314
#     4   9  16  26  44  72 103 133 167 209 257 309
#     4   8  14  26  45  71 104 137 169 210 260 313
#     4  11  24  41  62  88 115 143 179 221 265 317
#
# _framework density 18.113475999999999
#
# number of rings (size 3 to 8) (size 9 to 14) (size 15 to 20)
#    0.000    2.333    0.000    4.000    0.000   10.667 
#    0.000    1.667    0.000    1.000    0.000    4.667 
#    0.000    0.000    0.000    0.000    0.000    0.000 
#
# Total GULP energy -267905.628482 kJ/mol
# GULP energy per Si atom -5581.367260 kJ/mol
# Density = 1.807225 g / cm^3
# Si number density = 18.113476 Si / 1000 Ang^3
#
#
#
# Elastic Constant Matrix: (Units=GPa)
#
#
# Indices 1 2 3 4 5 6 
#
# 1 72.2283 67.0219 80.3907 0.0000 0.0000 0.0000
# 2 67.0219 72.2371 80.3963 0.0000 0.0000 0.0000
# 3 80.3907 80.3963 196.8746 0.0000 0.0000 0.0000
# 4 0.0000 0.0000 0.0000 84.8025 0.0000 0.0000
# 5 0.0000 0.0000 0.0000 0.0000 84.8051 0.0000
# 6 0.0000 0.0000 0.0000 0.0000 0.0000 22.2605
#
#
#
# Elastic Compliance Matrix: (Units=1/GPa)
#
#
# Indices 1 2 3 4 5 6 
#
# 1 0.102753 -0.089160 -0.005548 0.000000 0.000000 0.000000
# 2 -0.089160 0.102742 -0.005549 0.000000 0.000000 0.000000
# 3 -0.005548 -0.005549 0.009611 0.000000 0.000000 0.000000
# 4 0.000000 0.000000 0.000000 0.011792 0.000000 0.000000
# 5 0.000000 0.000000 0.000000 0.000000 0.011792 0.000000
# 6 0.000000 0.000000 0.000000 0.000000 0.000000 0.044923
#
#
# Mechanical properties :
#
#
# Convention : Reuss Voigt Hill
#
# Bulk Modulus (GPa) = 68.53083 88.55085 78.54084
# Shear Modulus (GPa) = 10.22516 45.94237 28.08377
#
# Velocity S-wave (km/s) = 2.37851 5.04170 3.94183
# Velocity P-wave (km/s) = 6.74236 9.10409 8.01074
#
# Compressibility (1/GPa) = 0.01459197
#
# Stress axis : x y z
#
# Youngs Moduli (GPa) = 9.73209 9.73312 104.05012
#
# Poissons Ratio (x) = 0.86780 0.57726
# Poissons Ratio (y) = 0.86771 0.57736
# Poissons Ratio (z) = 0.05399 0.05401
#
# Static dielectric constant tensor:
#      x y z
#    x 1.604700 0.000000 0.000000 
#    y 0.000000 1.604700 0.000000 
#    z 0.000000 0.000000 1.607670 
# 
# From -- ./inp_files/6078.got.cif
#   From: 2010.05.17/outbox.cif.g08.bks.cpg/sg115_4_cif.got.tgz:6078.got - 2010.05.20 11:07:42.
