data_PCOD9556796
_publ_section_title
;
Structure prediction by ZEFSAII (Michael W. Deem and Ramdas Pophale) SiO2 
 PCOD9556796
Probable space group: P -4 M 2
;
_chemical_formula_sum "Si O2"
_cell_formula_units_Z 28
_cell_length_a 9.177590
_cell_length_b 9.177590
_cell_length_c 18.743871
_cell_angle_alpha 90.000000
_cell_angle_beta 90.000000
_cell_angle_gamma 90.000000
_cell_volume 1578.761732
_symmetry_space_group_name_H-M "P -4 M 2"
_symmetry_group_IT_number 115
_symmetry_cell_setting 'tetragonal'
loop_
_space_group_symop_operation_xyz
x,y,z
y,-x,-z
-x,-y,z
-y,x,-z
y,x,-z
-y,-x,-z
-x,y,z
x,-y,z
loop_
_atom_site_type_symbol
_atom_site_label
_atom_site_fract_x
_atom_site_fract_y
_atom_site_fract_z
Si Si1 0.325597 0.172497 0.066386
Si Si2 0.322252 0.167905 0.354995
Si Si3 0.673601 0.673601 0.500000
Si Si4 0.332343 0.322407 0.787965
O O1 0.500000 0.195535 0.058377
O O2 0.279240 0.247078 0.140669
O O3 0.299557 0.000000 0.069460
O O4 0.244442 0.244442 0.000000
O O5 0.500000 0.170880 0.354462
O O6 0.277588 0.244406 0.428581
O O7 0.273527 0.253867 0.284541
O O8 0.276919 0.000000 0.352380
O O9 0.696162 0.500000 0.490665
O O10 0.500000 0.275219 0.790302
O O11 0.331453 0.500000 0.786718
#
# Coordination Sequence:
#
# PCOD9556796 Si02
#       4
#     8   8   4   8
#     4  10  20  33  50  73 101 133 169 208 251 300
#     4   9  16  26  42  66  96 127 159 198 244 291
#     4   9  16  26  42  65  92 122 158 199 242 288
#     4   9  16  27  46  72 100 128 160 202 250 295
#
# _framework density 17.735420000000001
#
# number of rings (size 3 to 8) (size 9 to 14) (size 15 to 20)
#    0.000    2.714    0.000    2.571    0.000    8.571 
#    0.000    0.000    0.000    2.143    0.000    4.000 
#    0.000    0.000    0.000    0.000    0.000    0.000 
#
# Total GULP energy -156149.622682 kJ/mol
# GULP energy per Si atom -5576.772239 kJ/mol
# Density = 1.769505 g / cm^3
# Si number density = 17.735420 Si / 1000 Ang^3
#
#
#
# Elastic Constant Matrix: (Units=GPa)
#
#
# Indices 1 2 3 4 5 6 
#
# 1 66.6383 50.6960 85.1424 0.0000 0.0000 0.0000
# 2 50.6960 66.6383 85.1424 0.0000 0.0000 0.0000
# 3 85.1424 85.1424 233.3648 0.0000 0.0000 0.0000
# 4 0.0000 0.0000 0.0000 -6.8309 0.0000 0.0000
# 5 0.0000 0.0000 0.0000 0.0000 -6.8309 0.0000
# 6 0.0000 0.0000 0.0000 0.0000 0.0000 11.0429
#
#
#
# Elastic Compliance Matrix: (Units=1/GPa)
#
#
# Indices 1 2 3 4 5 6 
#
# 1 0.040420 -0.022306 -0.006609 0.000000 0.000000 0.000000
# 2 -0.022306 0.040420 -0.006609 0.000000 0.000000 0.000000
# 3 -0.006609 -0.006609 0.009108 0.000000 0.000000 0.000000
# 4 0.000000 0.000000 0.000000 -0.146394 0.000000 0.000000
# 5 0.000000 0.000000 0.000000 0.000000 -0.146394 0.000000
# 6 0.000000 0.000000 0.000000 0.000000 0.000000 0.090556
#
#
# Mechanical properties :
#
#
# Convention : Reuss Voigt Hill
#
# Bulk Modulus (GPa) = 52.90980 89.84479 71.37730
# Shear Modulus (GPa) = -143.11323 9.18693 -66.96315
#
# Velocity S-wave (km/s) = -8.99270 2.27843 -6.15132
# Velocity P-wave (km/s) = 8.82764 7.59539 3.18098
#
# Compressibility (1/GPa) = 0.01890009
#
# Stress axis : x y z
#
# Youngs Moduli (GPa) = 24.74016 24.74016 109.79932
#
# Poissons Ratio (x) = 0.55186 0.72564
# Poissons Ratio (y) = 0.55186 0.72564
# Poissons Ratio (z) = 0.16350 0.16350
#
# Static dielectric constant tensor:
#      x y z
#    x 1.588110 0.000000 0.000000 
#    y 0.000000 1.588110 0.000000 
#    z 0.000000 0.000000 1.583440 
# 
# From -- ./inp_files/4504.got.cif
#   From: 2010.05.17/outbox.cif.g08.bks.cpg/sg115_3_cif.got.tgz:4504.got - 2010.05.20 11:07:42.
