data_PCOD9556008
_publ_section_title
;
Structure prediction by ZEFSAII (Michael W. Deem and Ramdas Pophale) SiO2 
 PCOD9556008
Probable space group: P -4 21 C
;
_chemical_formula_sum "Si O2"
_cell_formula_units_Z 34
_cell_length_a 8.191615
_cell_length_b 8.191615
_cell_length_c 21.006657
_cell_angle_alpha 90.000000
_cell_angle_beta 90.000000
_cell_angle_gamma 90.000000
_cell_volume 1409.600384
_symmetry_space_group_name_H-M "P -4 21 C"
_symmetry_group_IT_number 114
_symmetry_cell_setting 'tetragonal'
loop_
_space_group_symop_operation_xyz
x,y,z
y,-x,-z
-x,-y,z
-y,x,-z
1/2+x,1/2-y,1/2-z
1/2-x,1/2+y,1/2-z
1/2-y,1/2-x,1/2+z
1/2+y,1/2+x,1/2+z
loop_
_atom_site_type_symbol
_atom_site_label
_atom_site_fract_x
_atom_site_fract_y
_atom_site_fract_z
Si Si1 0.500000 0.500000 0.500000
Si Si2 0.344324 0.118130 0.033845
Si Si3 0.515385 0.197042 0.278371
Si Si4 0.885112 0.334713 0.608416
Si Si5 0.358615 0.328911 0.158496
O O1 0.663758 0.460539 0.460013
O O2 0.379048 0.231816 0.093370
O O3 0.500000 0.000000 0.031329
O O4 0.332785 0.199195 0.963468
O O5 0.387932 0.237200 0.335602
O O6 0.484897 0.293373 0.214133
O O7 0.691615 0.230806 0.307187
O O8 0.500000 0.000000 0.265070
O O9 0.000000 0.500000 0.603857
O O10 0.990633 0.186602 0.635010
#
# Coordination Sequence:
#
# PCOD9556008 Si02
#       5
#     2   8   8   8   8
#     4  12  24  44  76 120 140 208 256 294 396 456
#     4  11  22  42  70 108 149 191 255 320 367 460
#     4   9  19  40  63  92 139 184 242 310 381 450
#     4   8  18  39  62  87 138 184 227 311 372 432
#     4  10  20  41  67  98 135 200 243 306 394 441
#
# _framework density 24.12031
#
# number of rings (size 3 to 8) (size 9 to 14) (size 15 to 20)
#    0.000    2.824    0.000    4.941    0.000    0.000 
#   29.647    0.000    0.000    6.353    0.000    0.000 
#    0.000    0.000    0.000    0.000    0.000    0.000 
#
# Total GULP energy -189909.706400 kJ/mol
# GULP energy per Si atom -5585.579600 kJ/mol
# Density = 2.406541 g / cm^3
# Si number density = 24.120310 Si / 1000 Ang^3
#
#
#
# Elastic Constant Matrix: (Units=GPa)
#
#
# Indices 1 2 3 4 5 6 
#
# 1 66.4602 20.1634 62.9726 0.0000 0.0000 0.0000
# 2 20.1634 66.4602 62.9726 0.0000 0.0000 0.0000
# 3 62.9726 62.9726 245.1121 0.0000 0.0000 0.0000
# 4 0.0000 0.0000 0.0000 24.3509 0.0000 0.0000
# 5 0.0000 0.0000 0.0000 0.0000 24.3509 0.0000
# 6 0.0000 0.0000 0.0000 0.0000 0.0000 19.9026
#
#
#
# Elastic Compliance Matrix: (Units=1/GPa)
#
#
# Indices 1 2 3 4 5 6 
#
# 1 0.020014 -0.001586 -0.004734 0.000000 0.000000 0.000000
# 2 -0.001586 0.020014 -0.004734 0.000000 0.000000 0.000000
# 3 -0.004734 -0.004734 0.006512 0.000000 0.000000 0.000000
# 4 0.000000 0.000000 0.000000 0.041066 0.000000 0.000000
# 5 0.000000 0.000000 0.000000 0.000000 0.041066 0.000000
# 6 0.000000 0.000000 0.000000 0.000000 0.000000 0.050245
#
#
# Mechanical properties :
#
#
# Convention : Reuss Voigt Hill
#
# Bulk Modulus (GPa) = 40.93271 74.47216 57.70243
# Shear Modulus (GPa) = 23.90403 29.18247 26.54325
#
# Velocity S-wave (km/s) = 3.15148 3.48209 3.32091
# Velocity P-wave (km/s) = 5.49996 6.86360 6.21926
#
# Compressibility (1/GPa) = 0.02443034
#
# Stress axis : x y z
#
# Youngs Moduli (GPa) = 49.96586 49.96586 153.55397
#
# Poissons Ratio (x) = 0.07925 0.72697
# Poissons Ratio (y) = 0.07925 0.72697
# Poissons Ratio (z) = 0.23655 0.23655
#
# Static dielectric constant tensor:
#      x y z
#    x 2.002780 0.000000 0.000000 
#    y 0.000000 2.002780 0.000000 
#    z 0.000000 0.000000 1.898170 
# 
# From -- ./inp_files/2929.got.cif
#   From: 2010.05.17/outbox.cif.g08.bks.cpg/sg114_2_cif.got.tgz:2929.got - 2010.05.20 11:04:54.
