data_PCOD9556109
_publ_section_title
;
Structure prediction by ZEFSAII (Michael W. Deem and Ramdas Pophale) SiO2 
 PCOD9556109
Probable space group: P -4 21 C
;
_chemical_formula_sum "Si O2"
_cell_formula_units_Z 36
_cell_length_a 8.824767
_cell_length_b 8.824767
_cell_length_c 18.131573
_cell_angle_alpha 90.000000
_cell_angle_beta 90.000000
_cell_angle_gamma 90.000000
_cell_volume 1412.023673
_symmetry_space_group_name_H-M "P -4 21 C"
_symmetry_group_IT_number 114
_symmetry_cell_setting 'tetragonal'
loop_
_space_group_symop_operation_xyz
x,y,z
y,-x,-z
-x,-y,z
-y,x,-z
1/2+x,1/2-y,1/2-z
1/2-x,1/2+y,1/2-z
1/2-y,1/2-x,1/2+z
1/2+y,1/2+x,1/2+z
loop_
_atom_site_type_symbol
_atom_site_label
_atom_site_fract_x
_atom_site_fract_y
_atom_site_fract_z
Si Si1 0.262519 0.882667 0.268905
Si Si2 0.478564 0.743908 0.022997
Si Si3 0.994878 0.172333 0.162714
Si Si4 0.851592 0.440688 0.113271
Si Si5 0.500000 0.000000 0.647248
O O1 0.107747 0.821597 0.235870
O O2 0.347362 0.747960 0.313408
O O3 0.223395 0.013674 0.328944
O O4 0.360422 0.951089 0.200621
O O5 0.515262 0.849478 0.092909
O O6 0.619183 0.654783 0.980876
O O7 0.446793 0.854146 0.955321
O O8 0.893459 0.267262 0.105112
O O9 0.000000 0.000000 0.138783
O O10 0.000000 0.500000 0.159141
#
# Coordination Sequence:
#
# PCOD9556109 Si02
#       5
#     8   8   8   8   4
#     4  11  24  43  67 104 136 178 229 291 342 418
#     4  11  26  45  70  98 135 186 236 288 355 422
#     4  11  23  39  70 102 134 175 225 279 354 406
#     4  10  21  44  64  92 140 175 219 289 341 406
#     4  12  24  46  72 100 142 182 244 290 352 426
#
# _framework density 25.495325000000001
#
# number of rings (size 3 to 8) (size 9 to 14) (size 15 to 20)
#    0.000    1.111    4.444    2.667    3.111    1.778 
#    0.000    0.000    0.000    0.000    0.000    0.000 
#    0.000    0.000    0.000    0.000    0.000    0.000 
#
# Total GULP energy -200464.872949 kJ/mol
# GULP energy per Si atom -5568.468693 kJ/mol
# Density = 2.543730 g / cm^3
# Si number density = 25.495325 Si / 1000 Ang^3
#
#
#
# Elastic Constant Matrix: (Units=GPa)
#
#
# Indices 1 2 3 4 5 6 
#
# 1 68.9214 -4.6025 -1.1350 0.0000 0.0000 0.0000
# 2 -4.6025 68.9214 -1.1350 0.0000 0.0000 0.0000
# 3 -1.1350 -1.1350 111.7351 0.0000 0.0000 0.0000
# 4 0.0000 0.0000 0.0000 -24.5082 0.0000 0.0000
# 5 0.0000 0.0000 0.0000 0.0000 -24.5082 0.0000
# 6 0.0000 0.0000 0.0000 0.0000 0.0000 41.3962
#
#
#
# Elastic Compliance Matrix: (Units=1/GPa)
#
#
# Indices 1 2 3 4 5 6 
#
# 1 0.014577 0.000976 0.000158 0.000000 0.000000 0.000000
# 2 0.000976 0.014577 0.000158 0.000000 0.000000 0.000000
# 3 0.000158 0.000158 0.008953 0.000000 0.000000 0.000000
# 4 0.000000 0.000000 0.000000 -0.040803 0.000000 0.000000
# 5 0.000000 0.000000 0.000000 0.000000 -0.040803 0.000000
# 6 0.000000 0.000000 0.000000 0.000000 0.000000 0.024157
#
#
# Mechanical properties :
#
#
# Convention : Reuss Voigt Hill
#
# Bulk Modulus (GPa) = 24.57543 26.20370 25.38957
# Shear Modulus (GPa) = -597.94740 15.57267 -291.18737
#
# Velocity S-wave (km/s) = -15.33106 2.47413 -10.69860
# Velocity P-wave (km/s) = 17.42780 4.29673 11.94291
#
# Compressibility (1/GPa) = 0.04069104
#
# Stress axis : x y z
#
# Youngs Moduli (GPa) = 68.60098 68.60098 111.69509
#
# Poissons Ratio (x) = -0.06696 -0.01765
# Poissons Ratio (y) = -0.06696 -0.01765
# Poissons Ratio (z) = -0.01084 -0.01084
#
# Static dielectric constant tensor:
#      x y z
#    x 3.713290 0.000000 0.000000 
#    y 0.000000 3.713290 0.000000 
#    z 0.000000 0.000000 2.216820 
# 
# From -- ./inp_files/2924.got.cif
#   From: 2010.05.17/outbox.cif.g08.bks.cpg/sg114_2_cif.got.tgz:2924.got - 2010.05.20 11:04:54.
