data_PCOD9556650
_publ_section_title
;
Structure prediction by ZEFSAII (Michael W. Deem and Ramdas Pophale) SiO2 
 PCOD9556650
Probable space group: P -4 M 2
;
_chemical_formula_sum "Si O2"
_cell_formula_units_Z 48
_cell_length_a 7.870188
_cell_length_b 7.870188
_cell_length_c 36.521087
_cell_angle_alpha 90.000000
_cell_angle_beta 90.000000
_cell_angle_gamma 90.000000
_cell_volume 2262.110985
_symmetry_space_group_name_H-M "P -4 M 2"
_symmetry_group_IT_number 115
_symmetry_cell_setting 'tetragonal'
loop_
_space_group_symop_operation_xyz
x,y,z
y,-x,-z
-x,-y,z
-y,x,-z
y,x,-z
-y,-x,-z
-x,y,z
x,-y,z
loop_
_atom_site_type_symbol
_atom_site_label
_atom_site_fract_x
_atom_site_fract_y
_atom_site_fract_z
Si Si1 0.301041 0.308540 0.803711
Si Si2 0.807437 0.796989 0.882577
Si Si3 0.207618 0.000000 0.591302
Si Si4 0.798575 0.792168 0.039337
Si Si5 0.209336 0.000000 0.675582
Si Si6 0.310065 0.205691 0.459484
Si Si7 0.305585 0.799900 0.274307
O O1 0.500000 0.312296 0.795943
O O2 0.232275 0.500000 0.806513
O O3 0.278556 0.232287 0.843794
O O4 0.219376 0.234320 0.767102
O O5 0.732543 0.730234 0.921171
O O6 0.000000 0.731225 0.879190
O O7 0.815754 0.000000 0.887317
O O8 0.262543 0.165865 0.568733
O O9 0.261913 0.000000 0.633352
O O10 0.000000 0.000000 0.591476
O O11 0.000000 0.752267 0.038152
O O12 0.785517 0.000000 0.040210
O O13 0.730505 0.730505 0.000000
O O14 0.268582 0.831313 0.697030
O O15 0.000000 0.000000 0.676540
O O16 0.274808 0.274808 0.500000
O O17 0.500000 0.252140 0.447694
O O18 0.300368 0.000000 0.461906
O O19 0.500000 0.729459 0.275698
O O20 0.320164 0.000000 0.281571
#
# Coordination Sequence:
#
# PCOD9556650 Si02
#       7
#     8   8   4   8   4   8   8
#     4  10  21  35  49  67  94 128 166 208 255 308
#     4   9  17  28  46  73  98 119 151 198 247 298
#     4   9  18  32  53  83 121 150 185 241 286 331
#     4   7  10  19  37  62  91 119 146 182 233 290
#     4   9  18  32  53  83 111 143 182 226 278 331
#     4  10  19  32  55  83 114 156 198 237 286 339
#     4   9  18  33  53  75 102 137 179 228 274 322
#
# _framework density 21.219116
#
# number of rings (size 3 to 8) (size 9 to 14) (size 15 to 20)
#    0.000    3.000    0.833    2.000    1.167    2.167 
#    0.000    3.333    0.000    3.000    0.000    8.167 
#    0.000    0.000    0.000    0.000    0.000    0.000 
#
# Total GULP energy -267418.932494 kJ/mol
# GULP energy per Si atom -5571.227760 kJ/mol
# Density = 2.117082 g / cm^3
# Si number density = 21.219116 Si / 1000 Ang^3
#
#
#
# Elastic Constant Matrix: (Units=GPa)
#
#
# Indices 1 2 3 4 5 6 
#
# 1 49.8535 21.5190 47.4199 0.0000 0.0000 0.0000
# 2 21.5190 49.8535 47.4199 0.0000 0.0000 0.0000
# 3 47.4199 47.4199 201.9510 0.0000 0.0000 0.0000
# 4 0.0000 0.0000 0.0000 -59.2047 0.0000 0.0000
# 5 0.0000 0.0000 0.0000 0.0000 -59.2047 0.0000
# 6 0.0000 0.0000 0.0000 0.0000 0.0000 5.6335
#
#
#
# Elastic Compliance Matrix: (Units=1/GPa)
#
#
# Indices 1 2 3 4 5 6 
#
# 1 0.027829 -0.007464 -0.004782 0.000000 0.000000 0.000000
# 2 -0.007464 0.027829 -0.004782 0.000000 0.000000 0.000000
# 3 -0.004782 -0.004782 0.007197 0.000000 0.000000 0.000000
# 4 0.000000 0.000000 0.000000 -0.016891 0.000000 0.000000
# 5 0.000000 0.000000 0.000000 0.000000 -0.016891 0.000000
# 6 0.000000 0.000000 0.000000 0.000000 0.000000 0.177509
#
#
# Mechanical properties :
#
#
# Convention : Reuss Voigt Hill
#
# Bulk Modulus (GPa) = 34.72211 59.37509 47.04860
# Shear Modulus (GPa) = 19.98096 -10.20189 4.88953
#
# Velocity S-wave (km/s) = 3.07196 -2.19507 1.51964
# Velocity P-wave (km/s) = 5.38347 4.64954 5.02991
#
# Compressibility (1/GPa) = 0.02880009
#
# Stress axis : x y z
#
# Youngs Moduli (GPa) = 35.93377 35.93377 138.93944
#
# Poissons Ratio (x) = 0.26820 0.66440
# Poissons Ratio (y) = 0.26820 0.66440
# Poissons Ratio (z) = 0.17183 0.17183
#
# Static dielectric constant tensor:
#      x y z
#    x 1.847960 0.000000 0.000000 
#    y 0.000000 1.847960 0.000000 
#    z 0.000000 0.000000 1.781960 
# 
# From -- ./inp_files/6280.got.cif
#   From: 2010.05.17/outbox.cif.g08.bks.cpg/sg115_4_cif.got.tgz:6280.got - 2010.05.20 11:07:42.
