data_PCOD9556026
_publ_section_title
;
Structure prediction by ZEFSAII (Michael W. Deem and Ramdas Pophale) SiO2 
 PCOD9556026
Probable space group: P -4 21 C
;
_chemical_formula_sum "Si O2"
_cell_formula_units_Z 54
_cell_length_a 12.052209
_cell_length_b 12.052209
_cell_length_c 20.066242
_cell_angle_alpha 90.000000
_cell_angle_beta 90.000000
_cell_angle_gamma 90.000000
_cell_volume 2914.736866
_symmetry_space_group_name_H-M "P -4 21 C"
_symmetry_group_IT_number 114
_symmetry_cell_setting 'tetragonal'
loop_
_space_group_symop_operation_xyz
x,y,z
y,-x,-z
-x,-y,z
-y,x,-z
1/2+x,1/2-y,1/2-z
1/2-x,1/2+y,1/2-z
1/2-y,1/2-x,1/2+z
1/2+y,1/2+x,1/2+z
loop_
_atom_site_type_symbol
_atom_site_label
_atom_site_fract_x
_atom_site_fract_y
_atom_site_fract_z
Si Si1 0.501474 0.257026 0.060902
Si Si2 0.325060 0.356367 0.155657
Si Si3 0.792842 0.443184 0.085343
Si Si4 0.000000 0.500000 0.177390
Si Si5 0.211551 0.290999 0.862435
Si Si6 0.000000 0.000000 0.500000
Si Si7 0.579062 0.604237 0.301937
Si Si8 0.783569 0.605076 0.720193
O O1 0.408865 0.276253 0.117194
O O2 0.604136 0.187083 0.090287
O O3 0.458604 0.200266 0.993657
O O4 0.528778 0.386395 0.040354
O O5 0.293490 0.463355 0.111672
O O6 0.376702 0.398053 0.225517
O O7 0.210556 0.292848 0.171649
O O8 0.758563 0.319866 0.103442
O O9 0.902995 0.462392 0.128109
O O10 0.051062 0.404804 0.223048
O O11 0.126944 0.190037 0.845927
O O12 0.247200 0.345004 0.791719
O O13 0.500000 0.500000 0.317242
O O14 0.493136 0.705992 0.304874
#
# Coordination Sequence:
#
# PCOD9556026 Si02
#       8
#     8   8   8   4   8   2   8   8
#     4  12  20  34  58  96 128 154 206 258 319 379
#     4  10  21  34  57  91 124 164 200 263 320 373
#     4  11  20  36  60  87 124 165 201 258 317 379
#     4  10  22  40  58  84 116 166 214 250 316 370
#     4  11  21  36  59  92 125 160 207 261 318 382
#     4  12  20  28  56  96 124 160 176 252 310 380
#     4  11  22  38  60  88 124 171 209 258 318 389
#     4  10  21  38  61  85 124 164 211 257 312 383
#
# _framework density 18.526544999999999
#
# number of rings (size 3 to 8) (size 9 to 14) (size 15 to 20)
#    0.000    1.185    5.926    0.889    1.037    0.000 
#    0.000    2.222    0.000    0.000    0.000    0.000 
#    0.000    0.000    0.000    0.000    0.000    0.000 
#
# Total GULP energy -301097.973210 kJ/mol
# GULP energy per Si atom -5575.888393 kJ/mol
# Density = 1.848438 g / cm^3
# Si number density = 18.526545 Si / 1000 Ang^3
#
#
#
# Elastic Constant Matrix: (Units=GPa)
#
#
# Indices 1 2 3 4 5 6 
#
# 1 44.7948 35.5007 21.9843 0.0000 0.0000 0.0000
# 2 35.5007 44.7948 21.9843 0.0000 0.0000 0.0000
# 3 21.9843 21.9843 77.1821 0.0000 0.0000 0.0000
# 4 0.0000 0.0000 0.0000 25.6356 0.0000 0.0000
# 5 0.0000 0.0000 0.0000 0.0000 25.6356 0.0000
# 6 0.0000 0.0000 0.0000 0.0000 0.0000 25.5389
#
#
#
# Elastic Compliance Matrix: (Units=1/GPa)
#
#
# Indices 1 2 3 4 5 6 
#
# 1 0.061176 -0.046420 -0.004203 0.000000 0.000000 0.000000
# 2 -0.046420 0.061176 -0.004203 0.000000 0.000000 0.000000
# 3 -0.004203 -0.004203 0.015351 0.000000 0.000000 0.000000
# 4 0.000000 0.000000 0.000000 0.039008 0.000000 0.000000
# 5 0.000000 0.000000 0.000000 0.000000 0.039008 0.000000
# 6 0.000000 0.000000 0.000000 0.000000 0.000000 0.039156
#
#
# Mechanical properties :
#
#
# Convention : Reuss Voigt Hill
#
# Bulk Modulus (GPa) = 35.65069 36.19004 35.92037
# Shear Modulus (GPa) = 13.37342 21.18218 17.27780
#
# Velocity S-wave (km/s) = 2.68964 3.38500 3.05716
# Velocity P-wave (km/s) = 5.37870 5.90375 5.64733
#
# Compressibility (1/GPa) = 0.02804995
#
# Stress axis : x y z
#
# Youngs Moduli (GPa) = 16.34639 16.34639 65.14381
#
# Poissons Ratio (x) = 0.75880 0.27379
# Poissons Ratio (y) = 0.75880 0.27379
# Poissons Ratio (z) = 0.06870 0.06870
#
# Static dielectric constant tensor:
#      x y z
#    x 1.586000 0.000000 0.000000 
#    y 0.000000 1.586000 0.000000 
#    z 0.000000 0.000000 1.630500 
# 
# From -- ./inp_files/3197.got.cif
#   From: 2010.05.17/outbox.cif.g08.bks.cpg/sg114_2_cif.got.tgz:3197.got - 2010.05.20 11:04:54.
