data_PCOD9556633
_publ_section_title
;
Structure prediction by ZEFSAII (Michael W. Deem and Ramdas Pophale) SiO2 
 PCOD9556633
Probable space group: P -4 M 2
;
_chemical_formula_sum "Si O2"
_cell_formula_units_Z 48
_cell_length_a 7.879467
_cell_length_b 7.879467
_cell_length_c 36.365133
_cell_angle_alpha 90.000000
_cell_angle_beta 90.000000
_cell_angle_gamma 90.000000
_cell_volume 2257.765655
_symmetry_space_group_name_H-M "P -4 M 2"
_symmetry_group_IT_number 115
_symmetry_cell_setting 'tetragonal'
loop_
_space_group_symop_operation_xyz
x,y,z
y,-x,-z
-x,-y,z
-y,x,-z
y,x,-z
-y,-x,-z
-x,y,z
x,-y,z
loop_
_atom_site_type_symbol
_atom_site_label
_atom_site_fract_x
_atom_site_fract_y
_atom_site_fract_z
Si Si1 0.208447 0.695594 0.698386
Si Si2 0.695014 0.802776 0.960840
Si Si3 0.685242 0.707652 0.116695
Si Si4 0.795805 0.000000 0.749954
Si Si5 0.196480 0.707635 0.617454
Si Si6 0.000000 0.704530 0.164879
Si Si7 0.691040 0.202408 0.460435
O O1 0.259104 0.500000 0.705402
O O2 0.269528 0.748897 0.657437
O O3 0.000000 0.695223 0.697333
O O4 0.263915 0.831288 0.728577
O O5 0.500000 0.746958 0.966491
O O6 0.767084 0.707637 0.925416
O O7 0.693781 0.000000 0.950273
O O8 0.782438 0.782438 0.000000
O O9 0.500000 0.754407 0.130628
O O10 0.694912 0.500000 0.114870
O O11 0.834511 0.766896 0.143084
O O12 0.749475 0.000000 0.792525
O O13 0.000000 0.000000 0.747397
O O14 0.196323 0.500000 0.615797
O O15 0.270190 0.766731 0.578152
O O16 0.000000 0.764780 0.618880
O O17 0.000000 0.500000 0.162316
O O18 0.772474 0.227527 0.500000
O O19 0.500000 0.270531 0.463621
O O20 0.682330 0.000000 0.454930
#
# Coordination Sequence:
#
# PCOD9556633 Si02
#       7
#     8   8   8   4   8   4   8
#     4   8  14  27  47  70  97 125 158 205 257 308
#     4  10  19  32  51  77 107 137 175 222 265 310
#     4   9  17  32  55  78 101 136 182 225 262 310
#     4  10  20  32  50  78 102 124 164 210 262 318
#     4   7  11  23  43  63  85 117 153 192 238 285
#     4  10  20  36  54  74 104 140 174 214 266 326
#     4   9  17  29  44  64  92 123 157 197 241 290
#
# _framework density 21.259955999999999
#
# number of rings (size 3 to 8) (size 9 to 14) (size 15 to 20)
#    0.000    3.167    0.833    2.500    0.000    2.000 
#    1.500    0.833    0.000    2.000    0.000    2.333 
#    0.000    0.000    0.000    0.000    0.000    0.000 
#
# Total GULP energy -267466.359930 kJ/mol
# GULP energy per Si atom -5572.215832 kJ/mol
# Density = 2.121157 g / cm^3
# Si number density = 21.259956 Si / 1000 Ang^3
#
#
#
# Elastic Constant Matrix: (Units=GPa)
#
#
# Indices 1 2 3 4 5 6 
#
# 1 54.3953 15.3365 47.2022 0.0000 0.0000 0.0000
# 2 15.3365 54.3954 47.2025 0.0000 0.0000 0.0000
# 3 47.2022 47.2025 193.9938 0.0000 0.0000 0.0000
# 4 0.0000 0.0000 0.0000 26.4504 0.0000 0.0000
# 5 0.0000 0.0000 0.0000 0.0000 26.4504 0.0000
# 6 0.0000 0.0000 0.0000 0.0000 0.0000 9.1634
#
#
#
# Elastic Compliance Matrix: (Units=1/GPa)
#
#
# Indices 1 2 3 4 5 6 
#
# 1 0.023494 -0.002109 -0.005203 0.000000 0.000000 0.000000
# 2 -0.002109 0.023494 -0.005203 0.000000 0.000000 0.000000
# 3 -0.005203 -0.005203 0.007687 0.000000 0.000000 0.000000
# 4 0.000000 0.000000 0.000000 0.037807 0.000000 0.000000
# 5 0.000000 0.000000 0.000000 0.000000 0.037807 0.000000
# 6 0.000000 0.000000 0.000000 0.000000 0.000000 0.109130
#
#
# Mechanical properties :
#
#
# Convention : Reuss Voigt Hill
#
# Bulk Modulus (GPa) = 33.73405 58.02965 45.88185
# Shear Modulus (GPa) = 18.22623 25.28239 21.75431
#
# Velocity S-wave (km/s) = 2.93115 3.45222 3.20230
# Velocity P-wave (km/s) = 5.23043 6.57609 5.94148
#
# Compressibility (1/GPa) = 0.02964363
#
# Stress axis : x y z
#
# Youngs Moduli (GPa) = 42.56447 42.56447 130.09011
#
# Poissons Ratio (x) = 0.08975 0.67691
# Poissons Ratio (y) = 0.08975 0.67691
# Poissons Ratio (z) = 0.22148 0.22148
#
# Static dielectric constant tensor:
#      x y z
#    x 1.795380 0.000000 0.000000 
#    y 0.000000 1.795380 0.000000 
#    z 0.000000 0.000000 1.774180 
# 
# From -- ./inp_files/6257.got.cif
#   From: 2010.05.17/outbox.cif.g08.bks.cpg/sg115_4_cif.got.tgz:6257.got - 2010.05.20 11:07:42.
