data_PCOD9556918
_publ_section_title
;
Structure prediction by ZEFSAII (Michael W. Deem and Ramdas Pophale) SiO2 
 PCOD9556918
Probable space group: P -4 M 2
;
_chemical_formula_sum "Si O2"
_cell_formula_units_Z 44
_cell_length_a 8.084123
_cell_length_b 8.084123
_cell_length_c 32.960716
_cell_angle_alpha 90.000000
_cell_angle_beta 90.000000
_cell_angle_gamma 90.000000
_cell_volume 2154.083145
_symmetry_space_group_name_H-M "P -4 M 2"
_symmetry_group_IT_number 115
_symmetry_cell_setting 'tetragonal'
loop_
_space_group_symop_operation_xyz
x,y,z
y,-x,-z
-x,-y,z
-y,x,-z
y,x,-z
-y,-x,-z
-x,y,z
x,-y,z
loop_
_atom_site_type_symbol
_atom_site_label
_atom_site_fract_x
_atom_site_fract_y
_atom_site_fract_z
Si Si1 0.296447 0.500000 0.733417
Si Si2 0.302399 0.302399 0.500000
Si Si3 0.183176 0.702092 0.412016
Si Si4 0.799084 0.185394 0.129062
Si Si5 0.702279 0.500000 0.639527
Si Si6 0.685086 0.801944 0.957066
Si Si7 0.812437 0.693788 0.215801
O O1 0.500000 0.500000 0.735268
O O2 0.248667 0.500000 0.686400
O O3 0.237746 0.666416 0.756159
O O4 0.277229 0.500000 0.505193
O O5 0.248431 0.215359 0.541365
O O6 0.186716 0.500000 0.411792
O O7 0.334886 0.757402 0.384005
O O8 0.000000 0.754011 0.398687
O O9 0.736841 0.235849 0.084581
O O10 0.759703 0.291576 0.168592
O O11 0.000000 0.187876 0.126490
O O12 0.744869 0.000000 0.137847
O O13 0.500000 0.500000 0.638429
O O14 0.500000 0.736184 0.959478
O O15 0.679434 0.000000 0.952852
O O16 0.768763 0.768763 0.000000
O O17 0.825625 0.500000 0.225497
O O18 0.000000 0.764849 0.220028
#
# Coordination Sequence:
#
# PCOD9556918 Si02
#       7
#     4   4   8   8   4   8   8
#     4   9  18  30  47  71 103 139 177 217 271 325
#     4   9  14  24  42  63  94 134 170 215 270 313
#     4   9  16  25  41  68 100 138 181 220 267 323
#     4   9  17  31  53  77  99 127 165 211 259 306
#     4   9  16  28  42  67 105 141 175 222 272 322
#     4  10  20  34  52  75 104 138 174 210 253 311
#     4   9  17  31  50  73 101 134 172 216 270 325
#
# _framework density 20.426324000000001
#
# number of rings (size 3 to 8) (size 9 to 14) (size 15 to 20)
#    0.000    2.818    0.909    1.091    0.000    4.000 
#    1.636    4.091    0.000    0.273    0.000    2.545 
#    0.000    0.000    0.000    0.000    0.000    0.000 
#
# Total GULP energy -245233.379996 kJ/mol
# GULP energy per Si atom -5573.485909 kJ/mol
# Density = 2.037983 g / cm^3
# Si number density = 20.426324 Si / 1000 Ang^3
#
#
#
# Elastic Constant Matrix: (Units=GPa)
#
#
# Indices 1 2 3 4 5 6 
#
# 1 55.3863 24.4592 46.3317 0.0000 0.0000 0.0000
# 2 24.4592 55.3863 46.3317 0.0000 0.0000 0.0000
# 3 46.3317 46.3317 156.8679 0.0000 0.0000 0.0000
# 4 0.0000 0.0000 0.0000 6.5389 0.0000 0.0000
# 5 0.0000 0.0000 0.0000 0.0000 6.5389 0.0000
# 6 0.0000 0.0000 0.0000 0.0000 0.0000 1.6637
#
#
#
# Elastic Compliance Matrix: (Units=1/GPa)
#
#
# Indices 1 2 3 4 5 6 
#
# 1 0.025695 -0.006639 -0.005628 0.000000 0.000000 0.000000
# 2 -0.006639 0.025695 -0.005628 0.000000 0.000000 0.000000
# 3 -0.005628 -0.005628 0.009699 0.000000 0.000000 0.000000
# 4 0.000000 0.000000 0.000000 0.152931 0.000000 0.000000
# 5 0.000000 0.000000 0.000000 0.000000 0.152931 0.000000
# 6 0.000000 0.000000 0.000000 0.000000 0.000000 0.601085
#
#
# Mechanical properties :
#
#
# Convention : Reuss Voigt Hill
#
# Bulk Modulus (GPa) = 39.52828 55.76508 47.64668
# Shear Modulus (GPa) = 4.93944 12.98281 8.96112
#
# Velocity S-wave (km/s) = 1.55673 2.52383 2.09680
# Velocity P-wave (km/s) = 4.75656 5.98772 5.40730
#
# Compressibility (1/GPa) = 0.02529834
#
# Stress axis : x y z
#
# Youngs Moduli (GPa) = 38.91795 38.91795 103.09844
#
# Poissons Ratio (x) = 0.25838 0.58027
# Poissons Ratio (y) = 0.25838 0.58027
# Poissons Ratio (z) = 0.21904 0.21904
#
# Static dielectric constant tensor:
#      x y z
#    x 1.747160 0.000000 0.000000 
#    y 0.000000 1.747160 0.000000 
#    z 0.000000 0.000000 1.732040 
# 
# From -- ./inp_files/5864.got.cif
#   From: 2010.05.17/outbox.cif.g08.bks.cpg/sg115_3_cif.got.tgz:5864.got - 2010.05.20 11:07:42.
