data_PCOD9556361
_publ_section_title
;
Structure prediction by ZEFSAII (Michael W. Deem and Ramdas Pophale) SiO2 
 PCOD9556361
Probable space group: P -4 21 C
;
_chemical_formula_sum "Si O2"
_cell_formula_units_Z 40
_cell_length_a 13.467786
_cell_length_b 13.467786
_cell_length_c 9.347741
_cell_angle_alpha 90.000000
_cell_angle_beta 90.000000
_cell_angle_gamma 90.000000
_cell_volume 1695.505038
_symmetry_space_group_name_H-M "P -4 21 C"
_symmetry_group_IT_number 114
_symmetry_cell_setting 'tetragonal'
loop_
_space_group_symop_operation_xyz
x,y,z
y,-x,-z
-x,-y,z
-y,x,-z
1/2+x,1/2-y,1/2-z
1/2-x,1/2+y,1/2-z
1/2-y,1/2-x,1/2+z
1/2+y,1/2+x,1/2+z
loop_
_atom_site_type_symbol
_atom_site_label
_atom_site_fract_x
_atom_site_fract_y
_atom_site_fract_z
Si Si1 0.052900 0.248465 0.100232
Si Si2 0.468130 0.112744 0.177534
Si Si3 0.902369 0.071792 0.644807
Si Si4 0.104320 0.279342 0.557306
Si Si5 0.261324 0.032169 0.194033
O O1 0.037929 0.168752 0.225405
O O2 0.163548 0.289275 0.059477
O O3 0.997701 0.343191 0.168889
O O4 0.000629 0.215678 0.955572
O O5 0.349516 0.109157 0.166059
O O6 0.500000 0.000000 0.170319
O O7 0.528470 0.165664 0.050910
O O8 0.833706 0.093606 0.503656
O O9 0.927854 0.180787 0.698259
O O10 0.000000 0.000000 0.639769
O O11 0.065670 0.294867 0.718833
#
# Coordination Sequence:
#
# PCOD9556361 Si02
#       5
#     8   8   8   8   8
#     4  11  24  46  75 108 151 196 264 320 392 475
#     4  11  21  43  71 113 148 186 243 331 402 454
#     4  11  30  51  70 106 158 212 256 329 398 480
#     4  11  24  46  75 108 151 196 264 320 392 475
#     4  12  25  40  77 105 142 202 251 317 388 461
#
# _framework density 23.591792999999999
#
# number of rings (size 3 to 8) (size 9 to 14) (size 15 to 20)
#    0.000    0.800    4.000    2.400    5.600    3.200 
#    7.200    0.000    0.000    0.000    0.000    0.000 
#    0.000    0.000    0.000    0.000    0.000    0.000 
#
# Total GULP energy -223304.378426 kJ/mol
# GULP energy per Si atom -5582.609461 kJ/mol
# Density = 2.353810 g / cm^3
# Si number density = 23.591793 Si / 1000 Ang^3
#
#
#
# Elastic Constant Matrix: (Units=GPa)
#
#
# Indices 1 2 3 4 5 6 
#
# 1 85.7412 32.2953 12.7988 0.0000 0.0000 0.0000
# 2 32.2953 85.7412 12.7988 0.0000 0.0000 0.0000
# 3 12.7988 12.7988 130.9286 0.0000 0.0000 0.0000
# 4 0.0000 0.0000 0.0000 20.0226 0.0000 0.0000
# 5 0.0000 0.0000 0.0000 0.0000 20.0226 0.0000
# 6 0.0000 0.0000 0.0000 0.0000 0.0000 30.2523
#
#
#
# Elastic Compliance Matrix: (Units=1/GPa)
#
#
# Indices 1 2 3 4 5 6 
#
# 1 0.013683 -0.005028 -0.000846 0.000000 0.000000 0.000000
# 2 -0.005028 0.013683 -0.000846 0.000000 0.000000 0.000000
# 3 -0.000846 -0.000846 0.007803 0.000000 0.000000 0.000000
# 4 0.000000 0.000000 0.000000 0.049943 0.000000 0.000000
# 5 0.000000 0.000000 0.000000 0.000000 0.049943 0.000000
# 6 0.000000 0.000000 0.000000 0.000000 0.000000 0.033055
#
#
# Mechanical properties :
#
#
# Convention : Reuss Voigt Hill
#
# Bulk Modulus (GPa) = 46.02010 46.46632 46.24321
# Shear Modulus (GPa) = 26.48389 30.36073 28.42231
#
# Velocity S-wave (km/s) = 3.35414 3.59126 3.47472
# Velocity P-wave (km/s) = 5.87788 6.07741 5.97848
#
# Compressibility (1/GPa) = 0.02172963
#
# Stress axis : x y z
#
# Youngs Moduli (GPa) = 73.08355 73.08355 128.15307
#
# Poissons Ratio (x) = 0.36743 0.10843
# Poissons Ratio (y) = 0.36743 0.10843
# Poissons Ratio (z) = 0.06184 0.06184
#
# Static dielectric constant tensor:
#      x y z
#    x 2.067410 0.000000 0.000000 
#    y 0.000000 2.067410 0.000000 
#    z 0.000000 0.000000 1.866630 
# 
# From -- ./inp_files/796.got.cif
#   From: 2010.05.17/outbox.cif.g08.bks.cpg/sg114_1_cif.got.tgz:796.got - 2010.05.20 11:04:54.
