data_PCOD9556839
_publ_section_title
;
Structure prediction by ZEFSAII (Michael W. Deem and Ramdas Pophale) SiO2 
 PCOD9556839
Probable space group: P -4 M 2
;
_chemical_formula_sum "Si O2"
_cell_formula_units_Z 44
_cell_length_a 9.114642
_cell_length_b 9.114642
_cell_length_c 29.715736
_cell_angle_alpha 90.000000
_cell_angle_beta 90.000000
_cell_angle_gamma 90.000000
_cell_volume 2468.685249
_symmetry_space_group_name_H-M "P -4 M 2"
_symmetry_group_IT_number 115
_symmetry_cell_setting 'tetragonal'
loop_
_space_group_symop_operation_xyz
x,y,z
y,-x,-z
-x,-y,z
-y,x,-z
y,x,-z
-y,-x,-z
-x,y,z
x,-y,z
loop_
_atom_site_type_symbol
_atom_site_label
_atom_site_fract_x
_atom_site_fract_y
_atom_site_fract_z
Si Si1 0.823853 0.672843 0.859140
Si Si2 0.830522 0.821352 0.049439
Si Si3 0.823884 0.673136 0.689483
Si Si4 0.176032 0.176032 0.500000
Si Si5 0.826222 0.325683 0.225628
Si Si6 0.171160 0.178799 0.402247
O O1 0.794785 0.500000 0.856490
O O2 0.777070 0.736281 0.907606
O O3 0.745256 0.755703 0.818656
O O4 0.000000 0.694556 0.855200
O O5 0.000000 0.774948 0.055370
O O6 0.830749 0.000000 0.047837
O O7 0.775100 0.775100 0.000000
O O8 0.795762 0.500000 0.691513
O O9 0.745401 0.754003 0.730370
O O10 0.775809 0.738079 0.641307
O O11 0.000000 0.695418 0.693352
O O12 0.229742 0.229579 0.451233
O O13 0.000000 0.198585 0.498515
O O14 0.801791 0.500000 0.225600
O O15 0.000000 0.297655 0.225943
O O16 0.000000 0.221174 0.397272
O O17 0.173833 0.000000 0.403573
#
# Coordination Sequence:
#
# PCOD9556839 Si02
#       6
#     8   8   8   4   8   8
#     4  10  20  34  54  80 107 135 168 205 248 298
#     4   8  14  27  49  75 102 134 171 208 244 282
#     4  10  20  33  51  76 103 131 165 204 248 300
#     4   7  10  18  36  64  94 123 158 200 244 285
#     4  11  24  39  54  73  97 128 168 211 255 303
#     4   8  13  23  42  68  96 126 162 204 246 286
#
# _framework density 17.823250999999999
#
# number of rings (size 3 to 8) (size 9 to 14) (size 15 to 20)
#    0.000    2.818    0.000    3.818    0.000    5.818 
#    0.000    0.909    0.000    4.364    0.000    5.091 
#    0.000    0.000    0.000    0.000    0.000    0.000 
#
# Total GULP energy -245232.661597 kJ/mol
# GULP energy per Si atom -5573.469582 kJ/mol
# Density = 1.778268 g / cm^3
# Si number density = 17.823251 Si / 1000 Ang^3
#
#
#
# Elastic Constant Matrix: (Units=GPa)
#
#
# Indices 1 2 3 4 5 6 
#
# 1 57.1123 54.1668 79.5181 0.0000 0.0000 0.0000
# 2 54.1668 57.1123 79.5181 0.0000 0.0000 0.0000
# 3 79.5181 79.5181 233.1590 0.0000 0.0000 0.0000
# 4 0.0000 0.0000 0.0000 -11.7078 0.0000 0.0000
# 5 0.0000 0.0000 0.0000 0.0000 -11.7078 0.0000
# 6 0.0000 0.0000 0.0000 0.0000 0.0000 16.1327
#
#
#
# Elastic Compliance Matrix: (Units=1/GPa)
#
#
# Indices 1 2 3 4 5 6 
#
# 1 0.178516 -0.160985 -0.005979 0.000000 0.000000 0.000000
# 2 -0.160985 0.178516 -0.005979 0.000000 0.000000 0.000000
# 3 -0.005979 -0.005979 0.008367 0.000000 0.000000 0.000000
# 4 0.000000 0.000000 0.000000 -0.085413 0.000000 0.000000
# 5 0.000000 0.000000 0.000000 0.000000 -0.085413 0.000000
# 6 0.000000 0.000000 0.000000 0.000000 0.000000 0.061986
#
#
# Mechanical properties :
#
#
# Convention : Reuss Voigt Hill
#
# Bulk Modulus (GPa) = 51.24552 85.97667 68.61109
# Shear Modulus (GPa) = 8.21087 7.48881 7.84984
#
# Velocity S-wave (km/s) = 2.14868 2.05203 2.10091
# Velocity P-wave (km/s) = 5.91357 7.34559 6.66813
#
# Compressibility (1/GPa) = 0.01951390
#
# Stress axis : x y z
#
# Youngs Moduli (GPa) = 5.60173 5.60173 119.51448
#
# Poissons Ratio (x) = 0.90179 0.71458
# Poissons Ratio (y) = 0.90179 0.71458
# Poissons Ratio (z) = 0.03349 0.03349
#
# Static dielectric constant tensor:
#      x y z
#    x 1.588490 0.000000 0.000000 
#    y 0.000000 1.588490 0.000000 
#    z 0.000000 0.000000 1.625300 
# 
# From -- ./inp_files/5796.got.cif
#   From: 2010.05.17/outbox.cif.g08.bks.cpg/sg115_3_cif.got.tgz:5796.got - 2010.05.20 11:07:42.
