data_PCOD9556237
_publ_section_title
;
Structure prediction by ZEFSAII (Michael W. Deem and Ramdas Pophale) SiO2 
 PCOD9556237
Probable space group: P -4 21 C
;
_chemical_formula_sum "Si O2"
_cell_formula_units_Z 32
_cell_length_a 9.174670
_cell_length_b 9.174670
_cell_length_c 18.933436
_cell_angle_alpha 90.000000
_cell_angle_beta 90.000000
_cell_angle_gamma 90.000000
_cell_volume 1593.713827
_symmetry_space_group_name_H-M "P -4 21 C"
_symmetry_group_IT_number 114
_symmetry_cell_setting 'tetragonal'
loop_
_space_group_symop_operation_xyz
x,y,z
y,-x,-z
-x,-y,z
-y,x,-z
1/2+x,1/2-y,1/2-z
1/2-x,1/2+y,1/2-z
1/2-y,1/2-x,1/2+z
1/2+y,1/2+x,1/2+z
loop_
_atom_site_type_symbol
_atom_site_label
_atom_site_fract_x
_atom_site_fract_y
_atom_site_fract_z
Si Si1 0.170894 0.502204 0.448411
Si Si2 0.000411 0.670477 0.712264
Si Si3 0.753924 0.377823 0.600661
Si Si4 0.168441 0.172306 0.167826
O O1 0.250839 0.354837 0.423176
O O2 0.197748 0.535462 0.530629
O O3 0.247372 0.628119 0.402957
O O4 0.000000 0.500000 0.434189
O O5 0.106735 0.675979 0.644449
O O6 0.064271 0.775099 0.771836
O O7 0.000000 0.500000 0.736396
O O8 0.835783 0.706749 0.691851
O O9 0.673410 0.496758 0.650071
#
# Coordination Sequence:
#
# PCOD9556237 Si02
#       4
#     8   8   8   8
#     4  12  24  42  68 100 135 176 222 283 336 407
#     4  10  23  43  67 101 140 180 225 288 335 405
#     4  11  24  44  71  99 135 180 230 276 344 408
#     4  11  22  41  68 100 133 180 227 275 339 404
#
# _framework density 20.078887999999999
#
# number of rings (size 3 to 8) (size 9 to 14) (size 15 to 20)
#    0.000    1.000    2.500    5.250    0.000    4.000 
#    0.000    6.250    0.000    0.000    0.000    0.000 
#    0.000    0.000    0.000    0.000    0.000    0.000 
#
# Total GULP energy -179032.506504 kJ/mol
# GULP energy per Si atom -5594.765828 kJ/mol
# Density = 2.003319 g / cm^3
# Si number density = 20.078888 Si / 1000 Ang^3
#
#
#
# Elastic Constant Matrix: (Units=GPa)
#
#
# Indices 1 2 3 4 5 6 
#
# 1 86.3257 34.5706 17.2117 0.0000 0.0000 0.0000
# 2 34.5706 86.3257 17.2117 0.0000 0.0000 0.0000
# 3 17.2117 17.2117 93.5315 0.0000 0.0000 0.0000
# 4 0.0000 0.0000 0.0000 37.0499 0.0000 0.0000
# 5 0.0000 0.0000 0.0000 0.0000 37.0499 0.0000
# 6 0.0000 0.0000 0.0000 0.0000 0.0000 29.4851
#
#
#
# Elastic Compliance Matrix: (Units=1/GPa)
#
#
# Indices 1 2 3 4 5 6 
#
# 1 0.014025 -0.005296 -0.001606 0.000000 0.000000 0.000000
# 2 -0.005296 0.014025 -0.001606 0.000000 0.000000 0.000000
# 3 -0.001606 -0.001606 0.011283 0.000000 0.000000 0.000000
# 4 0.000000 0.000000 0.000000 0.026991 0.000000 0.000000
# 5 0.000000 0.000000 0.000000 0.000000 0.026991 0.000000
# 6 0.000000 0.000000 0.000000 0.000000 0.000000 0.033915
#
#
# Mechanical properties :
#
#
# Convention : Reuss Voigt Hill
#
# Bulk Modulus (GPa) = 44.81207 44.90787 44.85997
# Shear Modulus (GPa) = 32.96267 33.86289 33.41278
#
# Velocity S-wave (km/s) = 4.05613 4.11115 4.08373
# Velocity P-wave (km/s) = 6.65603 6.70445 6.68028
#
# Compressibility (1/GPa) = 0.02231542
#
# Stress axis : x y z
#
# Youngs Moduli (GPa) = 71.29948 71.29948 88.63077
#
# Poissons Ratio (x) = 0.37763 0.14237
# Poissons Ratio (y) = 0.37763 0.14237
# Poissons Ratio (z) = 0.11453 0.11453
#
# Static dielectric constant tensor:
#      x y z
#    x 1.701220 0.000000 0.000000 
#    y 0.000000 1.701220 0.000000 
#    z 0.000000 0.000000 1.706480 
# 
# From -- ./inp_files/2818.got.cif
#   From: 2010.05.17/outbox.cif.g08.bks.cpg/sg114_2_cif.got.tgz:2818.got - 2010.05.20 11:04:54.
