data_PCOD9556272
_publ_section_title
;
Structure prediction by ZEFSAII (Michael W. Deem and Ramdas Pophale) SiO2 
 PCOD9556272
Probable space group: P -4 21 C
;
_chemical_formula_sum "Si O2"
_cell_formula_units_Z 36
_cell_length_a 8.020696
_cell_length_b 8.020696
_cell_length_c 23.635787
_cell_angle_alpha 90.000000
_cell_angle_beta 90.000000
_cell_angle_gamma 90.000000
_cell_volume 1520.527152
_symmetry_space_group_name_H-M "P -4 21 C"
_symmetry_group_IT_number 114
_symmetry_cell_setting 'tetragonal'
loop_
_space_group_symop_operation_xyz
x,y,z
y,-x,-z
-x,-y,z
-y,x,-z
1/2+x,1/2-y,1/2-z
1/2-x,1/2+y,1/2-z
1/2-y,1/2-x,1/2+z
1/2+y,1/2+x,1/2+z
loop_
_atom_site_type_symbol
_atom_site_label
_atom_site_fract_x
_atom_site_fract_y
_atom_site_fract_z
Si Si1 0.217678 0.766679 0.623045
Si Si2 0.000000 0.500000 0.585921
Si Si3 0.887375 0.763613 0.995364
Si Si4 0.323044 0.470762 0.699098
Si Si5 0.574383 0.822487 0.187318
O O1 0.050238 0.658683 0.622368
O O2 0.279227 0.789950 0.558378
O O3 0.328840 0.617508 0.651518
O O4 0.206068 0.942634 0.653934
O O5 0.134432 0.423196 0.543941
O O6 0.072885 0.811250 0.975483
O O7 0.500000 0.500000 0.729109
O O8 0.192574 0.527726 0.746452
O O9 0.304874 0.275377 0.682027
O O10 0.500000 0.000000 0.166859
#
# Coordination Sequence:
#
# PCOD9556272 Si02
#       5
#     8   4   8   8   8
#     4  11  25  44  73 100 142 195 235 305 373 432
#     4  10  24  42  72 100 142 182 246 302 370 436
#     4   9  21  42  69  97 131 180 243 303 356 430
#     4  12  25  43  70 104 143 191 238 300 360 446
#     4  12  25  44  69 105 146 187 244 293 363 441
#
# _framework density 23.675999999999998
#
# number of rings (size 3 to 8) (size 9 to 14) (size 15 to 20)
#    0.000    1.111    4.444    0.000    9.333    1.778 
#    8.000    0.000    9.778    0.000    0.000    0.000 
#    0.000    0.000    0.000    0.000    0.000    0.000 
#
# Total GULP energy -200690.381536 kJ/mol
# GULP energy per Si atom -5574.732820 kJ/mol
# Density = 2.362211 g / cm^3
# Si number density = 23.676000 Si / 1000 Ang^3
#
#
#
# Elastic Constant Matrix: (Units=GPa)
#
#
# Indices 1 2 3 4 5 6 
#
# 1 108.8699 24.7453 18.5251 0.0000 0.0000 0.0000
# 2 24.7453 108.8699 18.5251 0.0000 0.0000 0.0000
# 3 18.5251 18.5251 47.8599 0.0000 0.0000 0.0000
# 4 0.0000 0.0000 0.0000 24.1444 0.0000 0.0000
# 5 0.0000 0.0000 0.0000 0.0000 24.1444 0.0000
# 6 0.0000 0.0000 0.0000 0.0000 0.0000 29.1155
#
#
#
# Elastic Compliance Matrix: (Units=1/GPa)
#
#
# Indices 1 2 3 4 5 6 
#
# 1 0.010136 -0.001752 -0.003245 0.000000 0.000000 0.000000
# 2 -0.001752 0.010136 -0.003245 0.000000 0.000000 0.000000
# 3 -0.003245 -0.003245 0.023407 0.000000 0.000000 0.000000
# 4 0.000000 0.000000 0.000000 0.041417 0.000000 0.000000
# 5 0.000000 0.000000 0.000000 0.000000 0.041417 0.000000
# 6 0.000000 0.000000 0.000000 0.000000 0.000000 0.034346
#
#
# Mechanical properties :
#
#
# Convention : Reuss Voigt Hill
#
# Bulk Modulus (GPa) = 36.77309 43.24343 40.00826
# Shear Modulus (GPa) = 26.82301 29.06782 27.94542
#
# Velocity S-wave (km/s) = 3.36954 3.50770 3.43932
# Velocity P-wave (km/s) = 5.54111 5.89149 5.71898
#
# Compressibility (1/GPa) = 0.02719380
#
# Stress axis : x y z
#
# Youngs Moduli (GPa) = 98.66233 98.66233 42.72308
#
# Poissons Ratio (x) = 0.17281 0.13865
# Poissons Ratio (y) = 0.17281 0.13865
# Poissons Ratio (z) = 0.32018 0.32018
#
# Static dielectric constant tensor:
#      x y z
#    x 1.973030 0.000000 0.000000 
#    y 0.000000 1.973030 0.000000 
#    z 0.000000 0.000000 1.892410 
# 
# From -- ./inp_files/2958.got.cif
#   From: 2010.05.17/outbox.cif.g08.bks.cpg/sg114_2_cif.got.tgz:2958.got - 2010.05.20 11:04:54.
