data_PCOD9556431
_publ_section_title
;
Structure prediction by ZEFSAII (Michael W. Deem and Ramdas Pophale) SiO2 
 PCOD9556431
Probable space group: P -4 21 C
;
_chemical_formula_sum "Si O2"
_cell_formula_units_Z 42
_cell_length_a 12.830577
_cell_length_b 12.830577
_cell_length_c 9.924673
_cell_angle_alpha 90.000000
_cell_angle_beta 90.000000
_cell_angle_gamma 90.000000
_cell_volume 1633.836452
_symmetry_space_group_name_H-M "P -4 21 C"
_symmetry_group_IT_number 114
_symmetry_cell_setting 'tetragonal'
loop_
_space_group_symop_operation_xyz
x,y,z
y,-x,-z
-x,-y,z
-y,x,-z
1/2+x,1/2-y,1/2-z
1/2-x,1/2+y,1/2-z
1/2-y,1/2-x,1/2+z
1/2+y,1/2+x,1/2+z
loop_
_atom_site_type_symbol
_atom_site_label
_atom_site_fract_x
_atom_site_fract_y
_atom_site_fract_z
Si Si1 0.159528 0.360227 0.085650
Si Si2 0.706266 0.838563 0.087788
Si Si3 0.524195 0.115599 0.175166
Si Si4 0.821566 0.986322 0.296172
Si Si5 0.000000 0.000000 0.500000
Si Si6 0.371077 0.571103 0.572468
O O1 0.222811 0.460110 0.135600
O O2 0.080183 0.326754 0.202609
O O3 0.106458 0.391948 0.945775
O O4 0.895740 0.246841 0.044835
O O5 0.584360 0.840790 0.118689
O O6 0.768473 0.896433 0.207928
O O7 0.751503 0.724650 0.068569
O O8 0.500000 0.000000 0.226930
O O9 0.880097 0.074527 0.203369
O O10 0.908103 0.955139 0.405555
O O11 0.616320 0.551858 0.546460
#
# Coordination Sequence:
#
# PCOD9556431 Si02
#       6
#     8   8   8   8   2   8
#     4  12  29  49  79 115 160 211 272 330 410 489
#     4  11  26  47  84 112 156 214 270 338 411 485
#     4  12  28  56  77 119 160 213 272 333 409 494
#     4  11  25  46  70 116 157 213 262 336 402 482
#     4  12  28  44  74 116 176 196 276 350 404 472
#     4   9  19  42  73 108 150 203 267 321 398 480
#
# _framework density 25.706365000000002
#
# number of rings (size 3 to 8) (size 9 to 14) (size 15 to 20)
#    0.000    0.952    1.905    4.000    8.000    3.048 
#    0.000    0.000    0.000    0.000    0.000    0.000 
#    0.000    0.000    0.000    0.000    0.000    0.000 
#
# Total GULP energy -235308.325245 kJ/mol
# GULP energy per Si atom -5602.579172 kJ/mol
# Density = 2.564786 g / cm^3
# Si number density = 25.706365 Si / 1000 Ang^3
#
#
#
# Elastic Constant Matrix: (Units=GPa)
#
#
# Indices 1 2 3 4 5 6 
#
# 1 108.4008 2.9237 23.8188 0.0000 0.0000 0.0000
# 2 2.9237 108.4008 23.8188 0.0000 0.0000 0.0000
# 3 23.8188 23.8188 99.7981 0.0000 0.0000 0.0000
# 4 0.0000 0.0000 0.0000 31.4534 0.0000 0.0000
# 5 0.0000 0.0000 0.0000 0.0000 31.4534 0.0000
# 6 0.0000 0.0000 0.0000 0.0000 0.0000 37.5225
#
#
#
# Elastic Compliance Matrix: (Units=1/GPa)
#
#
# Indices 1 2 3 4 5 6 
#
# 1 0.009743 0.000262 -0.002388 0.000000 0.000000 0.000000
# 2 0.000262 0.009743 -0.002388 0.000000 0.000000 0.000000
# 3 -0.002388 -0.002388 0.011160 0.000000 0.000000 0.000000
# 4 0.000000 0.000000 0.000000 0.031793 0.000000 0.000000
# 5 0.000000 0.000000 0.000000 0.000000 0.031793 0.000000
# 6 0.000000 0.000000 0.000000 0.000000 0.000000 0.026651
#
#
# Mechanical properties :
#
#
# Convention : Reuss Voigt Hill
#
# Bulk Modulus (GPa) = 46.25786 46.41357 46.33571
# Shear Modulus (GPa) = 36.46565 37.82176 37.14370
#
# Velocity S-wave (km/s) = 3.77044 3.83991 3.80534
# Velocity P-wave (km/s) = 6.08184 6.14446 6.11323
#
# Compressibility (1/GPa) = 0.02161795
#
# Stress axis : x y z
#
# Youngs Moduli (GPa) = 102.64175 102.64175 89.60567
#
# Poissons Ratio (x) = -0.02688 0.21396
# Poissons Ratio (y) = -0.02688 0.21396
# Poissons Ratio (z) = 0.24509 0.24509
#
# Static dielectric constant tensor:
#      x y z
#    x 2.069630 0.000000 0.000000 
#    y 0.000000 2.069630 0.000000 
#    z 0.000000 0.000000 2.059700 
# 
# From -- ./inp_files/818.got.cif
#   From: 2010.05.17/outbox.cif.g08.bks.cpg/sg114_1_cif.got.tgz:818.got - 2010.05.20 11:04:54.
