data_PCOD9556228
_publ_section_title
;
Structure prediction by ZEFSAII (Michael W. Deem and Ramdas Pophale) SiO2 
 PCOD9556228
Probable space group: P -4 21 C
;
_chemical_formula_sum "Si O2"
_cell_formula_units_Z 40
_cell_length_a 9.083496
_cell_length_b 9.083496
_cell_length_c 24.188046
_cell_angle_alpha 90.000000
_cell_angle_beta 90.000000
_cell_angle_gamma 90.000000
_cell_volume 1995.753247
_symmetry_space_group_name_H-M "P -4 21 C"
_symmetry_group_IT_number 114
_symmetry_cell_setting 'tetragonal'
loop_
_space_group_symop_operation_xyz
x,y,z
y,-x,-z
-x,-y,z
-y,x,-z
1/2+x,1/2-y,1/2-z
1/2-x,1/2+y,1/2-z
1/2-y,1/2-x,1/2+z
1/2+y,1/2+x,1/2+z
loop_
_atom_site_type_symbol
_atom_site_label
_atom_site_fract_x
_atom_site_fract_y
_atom_site_fract_z
Si Si1 0.839227 0.312514 0.055265
Si Si2 0.106258 0.135631 0.649133
Si Si3 0.165371 0.322396 0.546009
Si Si4 0.829873 0.526231 0.769730
Si Si5 0.199877 0.678252 0.181471
O O1 0.827973 0.487707 0.044238
O O2 0.790282 0.276378 0.117596
O O3 0.012107 0.276745 0.053208
O O4 0.739724 0.237938 0.009131
O O5 0.187452 0.216874 0.598842
O O6 0.991835 0.245672 0.679695
O O7 0.224515 0.068527 0.690404
O O8 0.000000 0.000000 0.629486
O O9 0.773640 0.690039 0.781265
O O10 0.810436 0.461125 0.708076
O O11 0.000000 0.500000 0.784294
#
# Coordination Sequence:
#
# PCOD9556228 Si02
#       5
#     8   8   8   8   8
#     4  10  24  41  65  93 124 166 213 259 325 377
#     4   9  21  41  63  94 126 165 212 257 314 378
#     4  10  23  41  66  90 126 166 207 267 313 385
#     4  11  23  38  65  92 129 163 210 261 308 375
#     4  10  23  41  64  94 127 167 210 258 317 377
#
# _framework density 20.042558
#
# number of rings (size 3 to 8) (size 9 to 14) (size 15 to 20)
#    0.000    2.000    0.000    1.200   16.800    2.000 
#    0.000    0.000    4.400    0.000    0.000    0.000 
#    0.000    0.000    0.000    0.000    0.000    0.000 
#
# Total GULP energy -223327.625402 kJ/mol
# GULP energy per Si atom -5583.190635 kJ/mol
# Density = 1.999694 g / cm^3
# Si number density = 20.042558 Si / 1000 Ang^3
#
#
#
# Elastic Constant Matrix: (Units=GPa)
#
#
# Indices 1 2 3 4 5 6 
#
# 1 55.3602 19.4277 43.1244 0.0000 0.0000 0.0000
# 2 19.4277 55.3602 43.1244 0.0000 0.0000 0.0000
# 3 43.1244 43.1244 105.3845 0.0000 0.0000 0.0000
# 4 0.0000 0.0000 0.0000 30.1327 0.0000 0.0000
# 5 0.0000 0.0000 0.0000 0.0000 30.1327 0.0000
# 6 0.0000 0.0000 0.0000 0.0000 0.0000 20.8959
#
#
#
# Elastic Compliance Matrix: (Units=1/GPa)
#
#
# Indices 1 2 3 4 5 6 
#
# 1 0.026575 -0.001255 -0.010361 0.000000 0.000000 0.000000
# 2 -0.001255 0.026575 -0.010361 0.000000 0.000000 0.000000
# 3 -0.010361 -0.010361 0.017969 0.000000 0.000000 0.000000
# 4 0.000000 0.000000 0.000000 0.033187 0.000000 0.000000
# 5 0.000000 0.000000 0.000000 0.000000 0.033187 0.000000
# 6 0.000000 0.000000 0.000000 0.000000 0.000000 0.047856
#
#
# Mechanical properties :
#
#
# Convention : Reuss Voigt Hill
#
# Bulk Modulus (GPa) = 36.81305 47.49532 42.15418
# Shear Modulus (GPa) = 20.97683 23.59416 22.28550
#
# Velocity S-wave (km/s) = 3.23865 3.43476 3.33815
# Velocity P-wave (km/s) = 5.69144 6.28322 5.99463
#
# Compressibility (1/GPa) = 0.02716428
#
# Stress axis : x y z
#
# Youngs Moduli (GPa) = 37.62916 37.62916 55.65153
#
# Poissons Ratio (x) = 0.04722 0.57662
# Poissons Ratio (y) = 0.04722 0.57662
# Poissons Ratio (z) = 0.38989 0.38989
#
# Static dielectric constant tensor:
#      x y z
#    x 1.716790 0.000000 0.000000 
#    y 0.000000 1.716790 0.000000 
#    z 0.000000 0.000000 1.690590 
# 
# From -- ./inp_files/3342.got.cif
#   From: 2010.05.17/outbox.cif.g08.bks.cpg/sg114_2_cif.got.tgz:3342.got - 2010.05.20 11:04:54.
