data_PCOD9556482
_publ_section_title
;
Structure prediction by ZEFSAII (Michael W. Deem and Ramdas Pophale) SiO2 
 PCOD9556482
Probable space group: P -4 21 C
;
_chemical_formula_sum "Si O2"
_cell_formula_units_Z 30
_cell_length_a 10.559839
_cell_length_b 10.559839
_cell_length_c 13.037017
_cell_angle_alpha 90.000000
_cell_angle_beta 90.000000
_cell_angle_gamma 90.000000
_cell_volume 1453.760369
_symmetry_space_group_name_H-M "P -4 21 C"
_symmetry_group_IT_number 114
_symmetry_cell_setting 'tetragonal'
loop_
_space_group_symop_operation_xyz
x,y,z
y,-x,-z
-x,-y,z
-y,x,-z
1/2+x,1/2-y,1/2-z
1/2-x,1/2+y,1/2-z
1/2-y,1/2-x,1/2+z
1/2+y,1/2+x,1/2+z
loop_
_atom_site_type_symbol
_atom_site_label
_atom_site_fract_x
_atom_site_fract_y
_atom_site_fract_z
Si Si1 0.110629 0.743215 0.524893
Si Si2 0.500000 0.000000 0.075454
Si Si3 0.878604 0.078066 0.330765
Si Si4 0.000000 0.000000 0.000000
Si Si5 0.763843 0.116250 0.121672
O O1 0.086269 0.830505 0.424990
O O2 0.257271 0.749392 0.554438
O O3 0.063250 0.606191 0.494514
O O4 0.027054 0.788537 0.619722
O O5 0.376596 0.943776 0.132948
O O6 0.815883 0.146958 0.234925
O O7 0.000000 0.000000 0.294455
O O8 0.872473 0.030164 0.066512
#
# Coordination Sequence:
#
# PCOD9556482 Si02
#       5
#     8   4   8   2   8
#     4  12  25  49  73 104 149 189 249 313 372 454
#     4  12  26  48  72 108 148 192 244 316 372 442
#     4  12  24  48  76 101 143 203 243 302 384 454
#     4  12  24  48  72 102 152 192 248 324 372 446
#     4  12  27  45  77 109 146 197 259 311 380 451
#
# _framework density 20.636136
#
# number of rings (size 3 to 8) (size 9 to 14) (size 15 to 20)
#    0.000    0.000    9.333    0.000    3.733    1.067 
#    9.600    0.000    0.000    0.000    0.000    0.000 
#    0.000    0.000    0.000    0.000    0.000    0.000 
#
# Total GULP energy -167629.829229 kJ/mol
# GULP energy per Si atom -5587.660974 kJ/mol
# Density = 2.058917 g / cm^3
# Si number density = 20.636136 Si / 1000 Ang^3
#
#
#
# Elastic Constant Matrix: (Units=GPa)
#
#
# Indices 1 2 3 4 5 6 
#
# 1 90.2675 7.9244 8.0604 0.0000 0.0000 0.0000
# 2 7.9244 90.2675 8.0604 0.0000 0.0000 0.0000
# 3 8.0604 8.0604 68.0895 0.0000 0.0000 0.0000
# 4 0.0000 0.0000 0.0000 20.3311 0.0000 0.0000
# 5 0.0000 0.0000 0.0000 0.0000 20.3311 0.0000
# 6 0.0000 0.0000 0.0000 0.0000 0.0000 39.4276
#
#
#
# Elastic Compliance Matrix: (Units=1/GPa)
#
#
# Indices 1 2 3 4 5 6 
#
# 1 0.011265 -0.000879 -0.001229 0.000000 0.000000 0.000000
# 2 -0.000879 0.011265 -0.001229 0.000000 0.000000 0.000000
# 3 -0.001229 -0.001229 0.014978 0.000000 0.000000 0.000000
# 4 0.000000 0.000000 0.000000 0.049186 0.000000 0.000000
# 5 0.000000 0.000000 0.000000 0.000000 0.049186 0.000000
# 6 0.000000 0.000000 0.000000 0.000000 0.000000 0.025363
#
#
# Mechanical properties :
#
#
# Convention : Reuss Voigt Hill
#
# Bulk Modulus (GPa) = 32.43419 32.96833 32.70126
# Shear Modulus (GPa) = 28.05902 30.98991 29.52446
#
# Velocity S-wave (km/s) = 3.69142 3.87942 3.78658
# Velocity P-wave (km/s) = 5.82409 6.00643 5.91596
#
# Compressibility (1/GPa) = 0.03083167
#
# Stress axis : x y z
#
# Youngs Moduli (GPa) = 88.76933 88.76933 66.76615
#
# Poissons Ratio (x) = 0.07804 0.08209
# Poissons Ratio (y) = 0.07804 0.08209
# Poissons Ratio (z) = 0.10914 0.10914
#
# Static dielectric constant tensor:
#      x y z
#    x 1.767480 0.000000 0.000000 
#    y 0.000000 1.767480 0.000000 
#    z 0.000000 0.000000 1.687340 
# 
# From -- ./inp_files/1331.got.cif
#   From: 2010.05.17/outbox.cif.g08.bks.cpg/sg114_1_cif.got.tgz:1331.got - 2010.05.20 11:04:54.
