data_PCOD9556298
_publ_section_title
;
Structure prediction by ZEFSAII (Michael W. Deem and Ramdas Pophale) SiO2 
 PCOD9556298
Probable space group: P -4 21 C
;
_chemical_formula_sum "Si O2"
_cell_formula_units_Z 28
_cell_length_a 12.040712
_cell_length_b 12.040712
_cell_length_c 8.516330
_cell_angle_alpha 90.000000
_cell_angle_beta 90.000000
_cell_angle_gamma 90.000000
_cell_volume 1234.686839
_symmetry_space_group_name_H-M "P -4 21 C"
_symmetry_group_IT_number 114
_symmetry_cell_setting 'tetragonal'
loop_
_space_group_symop_operation_xyz
x,y,z
y,-x,-z
-x,-y,z
-y,x,-z
1/2+x,1/2-y,1/2-z
1/2-x,1/2+y,1/2-z
1/2-y,1/2-x,1/2+z
1/2+y,1/2+x,1/2+z
loop_
_atom_site_type_symbol
_atom_site_label
_atom_site_fract_x
_atom_site_fract_y
_atom_site_fract_z
Si Si1 0.289922 0.710079 0.840681
Si Si2 0.179400 0.500000 1.000000
Si Si3 0.632354 0.367646 0.502406
Si Si4 0.500000 0.000000 0.750000
O O1 0.248510 0.599409 0.927378
O O2 0.317871 0.682129 0.662042
O O3 0.400591 0.751490 0.927378
O O4 0.195744 0.804256 0.862761
O O5 0.097793 0.457575 0.861887
O O6 0.097793 0.542425 0.138113
O O7 0.500000 0.348257 0.500000
#
# Coordination Sequence:
#
# PCOD9556298 Si02
#       4
#     8   8   8   4
#     4  12  28  47  79 111 149 199 249 309 372 448
#     4  11  26  45  74 110 152 193 253 302 374 442
#     4  11  30  53  77 108 157 197 251 312 382 442
#     4  10  24  46  72 110 148 198 248 310 360 442
#
# _framework density 22.677814000000001
#
# number of rings (size 3 to 8) (size 9 to 14) (size 15 to 20)
#    0.000    0.857    0.000    3.429   24.000    2.857 
#    0.000    0.000    0.000    0.000    0.000    0.000 
#    0.000    0.000    0.000    0.000    0.000    0.000 
#
# Total GULP energy -157057.495666 kJ/mol
# GULP energy per Si atom -5609.196274 kJ/mol
# Density = 2.262620 g / cm^3
# Si number density = 22.677814 Si / 1000 Ang^3
#
#
#
# Elastic Constant Matrix: (Units=GPa)
#
#
# Indices 1 2 3 4 5 6 
#
# 1 115.3955 65.4404 53.9141 0.0000 0.0000 0.0000
# 2 65.4404 115.3955 53.9141 0.0000 0.0000 0.0000
# 3 53.9141 53.9141 149.9490 0.0000 0.0000 0.0000
# 4 0.0000 0.0000 0.0000 33.4918 0.0000 0.0000
# 5 0.0000 0.0000 0.0000 0.0000 33.4918 0.0000
# 6 0.0000 0.0000 0.0000 0.0000 0.0000 47.6015
#
#
#
# Elastic Compliance Matrix: (Units=1/GPa)
#
#
# Indices 1 2 3 4 5 6 
#
# 1 0.013528 -0.006490 -0.002531 0.000000 0.000000 0.000000
# 2 -0.006490 0.013528 -0.002531 0.000000 0.000000 0.000000
# 3 -0.002531 -0.002531 0.008489 0.000000 0.000000 0.000000
# 4 0.000000 0.000000 0.000000 0.029858 0.000000 0.000000
# 5 0.000000 0.000000 0.000000 0.000000 0.029858 0.000000
# 6 0.000000 0.000000 0.000000 0.000000 0.000000 0.021008
#
#
# Mechanical properties :
#
#
# Convention : Reuss Voigt Hill
#
# Bulk Modulus (GPa) = 80.36405 80.80857 80.58631
# Shear Modulus (GPa) = 34.83839 36.74846 35.79343
#
# Velocity S-wave (km/s) = 3.92373 4.02986 3.97715
# Velocity P-wave (km/s) = 7.48611 7.57388 7.53012
#
# Compressibility (1/GPa) = 0.01244337
#
# Stress axis : x y z
#
# Youngs Moduli (GPa) = 73.91823 73.91823 117.80132
#
# Poissons Ratio (x) = 0.47969 0.29814
# Poissons Ratio (y) = 0.47969 0.29814
# Poissons Ratio (z) = 0.18708 0.18708
#
# Static dielectric constant tensor:
#      x y z
#    x 1.822340 0.000000 0.000000 
#    y 0.000000 1.822340 0.000000 
#    z 0.000000 0.000000 1.840070 
# 
# From -- ./inp_files/520.got.cif
#   From: 2010.05.17/outbox.cif.g08.bks.cpg/sg114_1_cif.got.tgz:520.got - 2010.05.20 11:04:54.
