data_PCOD9556488
_publ_section_title
;
Structure prediction by ZEFSAII (Michael W. Deem and Ramdas Pophale) SiO2 
 PCOD9556488
Probable space group: P -4 21 C
;
_chemical_formula_sum "Si O2"
_cell_formula_units_Z 48
_cell_length_a 8.446128
_cell_length_b 8.446128
_cell_length_c 26.466910
_cell_angle_alpha 90.000000
_cell_angle_beta 90.000000
_cell_angle_gamma 90.000000
_cell_volume 1888.072028
_symmetry_space_group_name_H-M "P -4 21 C"
_symmetry_group_IT_number 114
_symmetry_cell_setting 'tetragonal'
loop_
_space_group_symop_operation_xyz
x,y,z
y,-x,-z
-x,-y,z
-y,x,-z
1/2+x,1/2-y,1/2-z
1/2-x,1/2+y,1/2-z
1/2-y,1/2-x,1/2+z
1/2+y,1/2+x,1/2+z
loop_
_atom_site_type_symbol
_atom_site_label
_atom_site_fract_x
_atom_site_fract_y
_atom_site_fract_z
Si Si1 0.895821 0.368676 0.469818
Si Si2 0.355467 0.785122 0.709057
Si Si3 0.337908 0.091429 0.860131
Si Si4 0.375905 0.297104 0.624877
Si Si5 0.860992 0.130487 0.560295
Si Si6 0.904579 0.157700 0.309142
O O1 0.755900 0.417981 0.432194
O O2 0.851314 0.227488 0.507518
O O3 0.000000 0.500000 0.499132
O O4 0.031131 0.298487 0.433283
O O5 0.212682 0.672854 0.691303
O O6 0.492545 0.745460 0.667658
O O7 0.387538 0.717215 0.764450
O O8 0.290535 0.964213 0.706737
O O9 0.365107 0.233606 0.898820
O O10 0.500000 0.000000 0.855947
O O11 0.192913 0.974901 0.875451
O O12 0.226836 0.195259 0.644889
O O13 0.000000 0.000000 0.560803
O O14 0.000000 0.000000 0.322359
#
# Coordination Sequence:
#
# PCOD9556488 Si02
#       6
#     8   8   8   8   8   8
#     4  12  25  45  73 104 146 198 245 319 386 464
#     4  12  26  48  72 110 153 204 251 327 392 474
#     4  12  26  43  73 107 148 195 256 317 387 468
#     4  12  27  48  74 110 157 200 256 326 402 474
#     4  12  25  47  73 104 146 193 255 317 377 465
#     4  12  25  45  75 107 148 201 262 314 390 470
#
# _framework density 25.422757000000001
#
# number of rings (size 3 to 8) (size 9 to 14) (size 15 to 20)
#    0.000    0.000    1.667    9.500    2.333    3.333 
#    0.000    0.000    0.000    0.000    0.000    0.000 
#    0.000    0.000    0.000    0.000    0.000    0.000 
#
# Total GULP energy -268863.450886 kJ/mol
# GULP energy per Si atom -5601.321893 kJ/mol
# Density = 2.536489 g / cm^3
# Si number density = 25.422757 Si / 1000 Ang^3
#
#
#
# Elastic Constant Matrix: (Units=GPa)
#
#
# Indices 1 2 3 4 5 6 
#
# 1 107.1110 17.6963 10.2934 0.0000 0.0000 0.0000
# 2 17.6963 107.1110 10.2934 0.0000 0.0000 0.0000
# 3 10.2934 10.2934 91.6534 0.0000 0.0000 0.0000
# 4 0.0000 0.0000 0.0000 41.9972 0.0000 0.0000
# 5 0.0000 0.0000 0.0000 0.0000 41.9972 0.0000
# 6 0.0000 0.0000 0.0000 0.0000 0.0000 50.5993
#
#
#
# Elastic Compliance Matrix: (Units=1/GPa)
#
#
# Indices 1 2 3 4 5 6 
#
# 1 0.009674 -0.001510 -0.000917 0.000000 0.000000 0.000000
# 2 -0.001510 0.009674 -0.000917 0.000000 0.000000 0.000000
# 3 -0.000917 -0.000917 0.011117 0.000000 0.000000 0.000000
# 4 0.000000 0.000000 0.000000 0.023811 0.000000 0.000000
# 5 0.000000 0.000000 0.000000 0.000000 0.023811 0.000000
# 6 0.000000 0.000000 0.000000 0.000000 0.000000 0.019763
#
#
# Mechanical properties :
#
#
# Convention : Reuss Voigt Hill
#
# Bulk Modulus (GPa) = 42.05845 42.49351 42.27598
# Shear Modulus (GPa) = 44.45925 44.75820 44.60873
#
# Velocity S-wave (km/s) = 4.18640 4.20045 4.19343
# Velocity P-wave (km/s) = 6.32040 6.34634 6.33339
#
# Compressibility (1/GPa) = 0.02377643
#
# Stress axis : x y z
#
# Youngs Moduli (GPa) = 103.37288 103.37288 89.95547
#
# Poissons Ratio (x) = 0.15611 0.08247
# Poissons Ratio (y) = 0.15611 0.08247
# Poissons Ratio (z) = 0.09478 0.09478
#
# Static dielectric constant tensor:
#      x y z
#    x 2.063930 0.000000 0.000000 
#    y 0.000000 2.063930 0.000000 
#    z 0.000000 0.000000 1.994630 
# 
# From -- ./inp_files/3964.got.cif
#   From: 2010.05.17/outbox.cif.g08.bks.cpg/sg114_2_cif.got.tgz:3964.got - 2010.05.20 11:04:54.
