data_PCOD9556689
_publ_section_title
;
Structure prediction by ZEFSAII (Michael W. Deem and Ramdas Pophale) SiO2 
 PCOD9556689
Probable space group: P -4 M 2
;
_chemical_formula_sum "Si O2"
_cell_formula_units_Z 40
_cell_length_a 19.745450
_cell_length_b 19.745450
_cell_length_c 5.102501
_cell_angle_alpha 90.000000
_cell_angle_beta 90.000000
_cell_angle_gamma 90.000000
_cell_volume 1989.377355
_symmetry_space_group_name_H-M "P -4 M 2"
_symmetry_group_IT_number 115
_symmetry_cell_setting 'tetragonal'
loop_
_space_group_symop_operation_xyz
x,y,z
y,-x,-z
-x,-y,z
-y,x,-z
y,x,-z
-y,-x,-z
-x,y,z
x,-y,z
loop_
_atom_site_type_symbol
_atom_site_label
_atom_site_fract_x
_atom_site_fract_y
_atom_site_fract_z
Si Si1 0.862159 0.921604 0.236915
Si Si2 0.582495 0.693509 0.042580
Si Si3 0.780658 0.580441 0.457622
Si Si4 0.921114 0.732454 0.063502
Si Si5 0.350094 0.080059 0.443985
O O1 0.883746 0.883746 0.500000
O O2 0.795266 0.892051 0.095987
O O3 0.851457 0.000000 0.310966
O O4 0.915940 0.915940 0.000000
O O5 0.500000 0.682948 0.040209
O O6 0.601653 0.746561 0.814124
O O7 0.624363 0.624363 0.000000
O O8 0.603711 0.731253 0.309218
O O9 0.777392 0.500000 0.463498
O O10 0.859112 0.599146 0.496332
O O11 0.915704 0.670518 0.860125
O O12 0.000000 0.750461 0.089096
O O13 0.901820 0.711411 0.355604
O O14 0.367939 0.000000 0.496013
#
# Coordination Sequence:
#
# PCOD9556689 Si02
#       5
#     8   8   8   8   8
#     4  11  22  36  53  73 100 132 171 224 284 343
#     4  10  21  39  61  85 117 155 193 235 287 342
#     4  10  21  37  58  87 122 153 181 227 286 328
#     4   9  19  35  53  73 100 137 180 227 273 317
#     4  10  19  35  58  80 108 149 192 227 267 330
#
# _framework density 20.106794000000001
#
# number of rings (size 3 to 8) (size 9 to 14) (size 15 to 20)
#    0.000    2.000    0.000    3.600    0.000    5.000 
#    0.000   10.000    0.000   10.800    0.000    0.000 
#    0.000    0.000    0.000    0.000    0.000    0.000 
#
# Total GULP energy -222821.596739 kJ/mol
# GULP energy per Si atom -5570.539918 kJ/mol
# Density = 2.006103 g / cm^3
# Si number density = 20.106794 Si / 1000 Ang^3
#
#
#
# Elastic Constant Matrix: (Units=GPa)
#
#
# Indices 1 2 3 4 5 6 
#
# 1 34.9942 17.4129 1.2411 0.0000 0.0000 0.0000
# 2 17.4129 34.9942 1.2411 0.0000 0.0000 0.0000
# 3 1.2411 1.2411 85.7106 0.0000 0.0000 0.0000
# 4 0.0000 0.0000 0.0000 20.6832 0.0000 0.0000
# 5 0.0000 0.0000 0.0000 0.0000 20.6832 0.0000
# 6 0.0000 0.0000 0.0000 0.0000 0.0000 28.8828
#
#
#
# Elastic Compliance Matrix: (Units=1/GPa)
#
#
# Indices 1 2 3 4 5 6 
#
# 1 0.037987 -0.018892 -0.000276 0.000000 0.000000 0.000000
# 2 -0.018892 0.037987 -0.000276 0.000000 0.000000 0.000000
# 3 -0.000276 -0.000276 0.011675 0.000000 0.000000 0.000000
# 4 0.000000 0.000000 0.000000 0.048348 0.000000 0.000000
# 5 0.000000 0.000000 0.000000 0.000000 0.048348 0.000000
# 6 0.000000 0.000000 0.000000 0.000000 0.000000 0.034623
#
#
# Mechanical properties :
#
#
# Convention : Reuss Voigt Hill
#
# Bulk Modulus (GPa) = 20.50937 21.72101 21.11519
# Shear Modulus (GPa) = 18.24081 23.10344 20.67213
#
# Velocity S-wave (km/s) = 3.01524 3.39342 3.20990
# Velocity P-wave (km/s) = 4.72700 5.11664 4.92568
#
# Compressibility (1/GPa) = 0.04875820
#
# Stress axis : x y z
#
# Youngs Moduli (GPa) = 26.32508 26.32508 85.65180
#
# Poissons Ratio (x) = 0.49734 0.02368
# Poissons Ratio (y) = 0.49734 0.02368
# Poissons Ratio (z) = 0.00728 0.00728
#
# Static dielectric constant tensor:
#      x y z
#    x 1.746690 0.000000 0.000000 
#    y 0.000000 1.746690 0.000000 
#    z 0.000000 0.000000 1.750290 
# 
# From -- ./inp_files/502.got.cif
#   From: 2010.05.17/outbox.cif.g08.bks.cpg/sg115_1_cif.got.tgz:502.got - 2010.05.20 11:07:42.
