data_PCOD9556644
_publ_section_title
;
Structure prediction by ZEFSAII (Michael W. Deem and Ramdas Pophale) SiO2 
 PCOD9556644
Probable space group: P -4 M 2
;
_chemical_formula_sum "Si O2"
_cell_formula_units_Z 28
_cell_length_a 7.852421
_cell_length_b 7.852421
_cell_length_c 22.299050
_cell_angle_alpha 90.000000
_cell_angle_beta 90.000000
_cell_angle_gamma 90.000000
_cell_volume 1374.970920
_symmetry_space_group_name_H-M "P -4 M 2"
_symmetry_group_IT_number 115
_symmetry_cell_setting 'tetragonal'
loop_
_space_group_symop_operation_xyz
x,y,z
y,-x,-z
-x,-y,z
-y,x,-z
y,x,-z
-y,-x,-z
-x,y,z
x,-y,z
loop_
_atom_site_type_symbol
_atom_site_label
_atom_site_fract_x
_atom_site_fract_y
_atom_site_fract_z
Si Si1 0.208082 0.687155 0.630791
Si Si2 0.793876 0.690164 0.933531
Si Si3 0.203404 0.203404 0.500000
Si Si4 0.208383 0.000000 0.849975
Si Si5 0.791168 0.000000 0.712465
O O1 0.258258 0.500000 0.651360
O O2 0.263974 0.716526 0.562185
O O3 0.000000 0.694727 0.629149
O O4 0.264500 0.835044 0.675171
O O5 0.746794 0.500000 0.914336
O O6 0.000000 0.699777 0.937314
O O7 0.736978 0.834182 0.887163
O O8 0.725507 0.725507 0.000000
O O9 0.000000 0.230717 0.494860
O O10 0.264912 0.000000 0.781234
O O11 0.000000 0.000000 0.849290
O O12 0.000000 0.000000 0.712794
#
# Coordination Sequence:
#
# PCOD9556644 Si02
#       5
#     8   8   4   4   4
#     4   9  16  25  41  67 100 139 184 230 276 331
#     4  10  19  32  53  79 107 146 190 232 283 334
#     4   9  14  24  42  63  90 130 176 223 282 333
#     4   9  18  30  49  73 111 150 184 231 279 334
#     4   9  16  28  42  69 107 147 181 221 278 329
#
# _framework density 20.364066000000001
#
# number of rings (size 3 to 8) (size 9 to 14) (size 15 to 20)
#    0.000    2.714    2.857    0.000    0.000    1.429 
#    0.000    5.714    0.000    0.429    0.000    4.000 
#    0.000    0.000    0.000    0.000    0.000    0.000 
#
# Total GULP energy -156332.330056 kJ/mol
# GULP energy per Si atom -5583.297502 kJ/mol
# Density = 2.031772 g / cm^3
# Si number density = 20.364066 Si / 1000 Ang^3
#
#
#
# Elastic Constant Matrix: (Units=GPa)
#
#
# Indices 1 2 3 4 5 6 
#
# 1 77.8251 47.4969 65.9323 0.0000 0.0000 0.0000
# 2 47.4969 77.8251 65.9323 0.0000 0.0000 0.0000
# 3 65.9323 65.9323 183.7859 0.0000 0.0000 0.0000
# 4 0.0000 0.0000 0.0000 -8.7000 0.0000 0.0000
# 5 0.0000 0.0000 0.0000 0.0000 -8.7000 0.0000
# 6 0.0000 0.0000 0.0000 0.0000 0.0000 1.2098
#
#
#
# Elastic Compliance Matrix: (Units=1/GPa)
#
#
# Indices 1 2 3 4 5 6 
#
# 1 0.022895 -0.010077 -0.004598 0.000000 0.000000 0.000000
# 2 -0.010077 0.022895 -0.004598 0.000000 0.000000 0.000000
# 3 -0.004598 -0.004598 0.008740 0.000000 0.000000 0.000000
# 4 0.000000 0.000000 0.000000 -0.114942 0.000000 0.000000
# 5 0.000000 0.000000 0.000000 0.000000 -0.114942 0.000000
# 6 0.000000 0.000000 0.000000 0.000000 0.000000 0.826565
#
#
# Mechanical properties :
#
#
# Convention : Reuss Voigt Hill
#
# Bulk Modulus (GPa) = 62.56759 77.57321 70.07040
# Shear Modulus (GPa) = 7.19335 7.43360 7.31347
#
# Velocity S-wave (km/s) = 1.88150 1.91266 1.89714
# Velocity P-wave (km/s) = 5.95913 6.56152 6.26757
#
# Compressibility (1/GPa) = 0.01598272
#
# Stress axis : x y z
#
# Youngs Moduli (GPa) = 43.67719 43.67718 114.41160
#
# Poissons Ratio (x) = 0.44015 0.52610
# Poissons Ratio (y) = 0.44015 0.52610
# Poissons Ratio (z) = 0.20084 0.20084
#
# Static dielectric constant tensor:
#      x y z
#    x 1.734990 0.000000 0.000000 
#    y 0.000000 1.734990 0.000000 
#    z 0.000000 0.000000 1.667570 
# 
# From -- ./inp_files/4530.got.cif
#   From: 2010.05.17/outbox.cif.g08.bks.cpg/sg115_3_cif.got.tgz:4530.got - 2010.05.20 11:07:42.
