data_PCOD9556315
_publ_section_title
;
Structure prediction by ZEFSAII (Michael W. Deem and Ramdas Pophale) SiO2 
 PCOD9556315
Probable space group: P -4 21 C
;
_chemical_formula_sum "Si O2"
_cell_formula_units_Z 36
_cell_length_a 8.367865
_cell_length_b 8.367865
_cell_length_c 22.785074
_cell_angle_alpha 90.000000
_cell_angle_beta 90.000000
_cell_angle_gamma 90.000000
_cell_volume 1595.437418
_symmetry_space_group_name_H-M "P -4 21 C"
_symmetry_group_IT_number 114
_symmetry_cell_setting 'tetragonal'
loop_
_space_group_symop_operation_xyz
x,y,z
y,-x,-z
-x,-y,z
-y,x,-z
1/2+x,1/2-y,1/2-z
1/2-x,1/2+y,1/2-z
1/2-y,1/2-x,1/2+z
1/2+y,1/2+x,1/2+z
loop_
_atom_site_type_symbol
_atom_site_label
_atom_site_fract_x
_atom_site_fract_y
_atom_site_fract_z
Si Si1 0.249187 0.605143 0.496528
Si Si2 0.639245 0.621818 0.798803
Si Si3 0.568388 0.824698 0.123207
Si Si4 0.500000 0.000000 0.413072
Si Si5 0.333692 0.854756 0.308468
O O1 0.415779 0.699115 0.509426
O O2 0.163853 0.670156 0.437728
O O3 0.107935 0.610715 0.544785
O O4 0.500000 0.500000 0.780608
O O5 0.702346 0.577255 0.863718
O O6 0.779827 0.609339 0.752024
O O7 0.539303 0.784303 0.798697
O O8 0.690045 0.762419 0.172490
O O9 0.500000 0.000000 0.132542
O O10 0.569684 0.132229 0.368697
#
# Coordination Sequence:
#
# PCOD9556315 Si02
#       5
#     8   8   8   4   8
#     4  11  25  47  68 101 141 190 244 292 360 431
#     4  10  25  43  69 103 140 183 237 293 362 434
#     4  11  23  44  72  96 138 188 236 297 362 425
#     4  12  26  40  68 100 138 178 232 292 344 430
#     4  11  25  44  68 107 139 185 235 295 363 431
#
# _framework density 22.564346
#
# number of rings (size 3 to 8) (size 9 to 14) (size 15 to 20)
#    0.000    1.111    3.333    1.333   10.889    1.778 
#    0.000    0.000    0.000    0.000    0.000    0.000 
#    0.000    0.000    0.000    0.000    0.000    0.000 
#
# Total GULP energy -200634.462225 kJ/mol
# GULP energy per Si atom -5573.179506 kJ/mol
# Density = 2.251299 g / cm^3
# Si number density = 22.564346 Si / 1000 Ang^3
#
#
#
# Elastic Constant Matrix: (Units=GPa)
#
#
# Indices 1 2 3 4 5 6 
#
# 1 60.1180 49.5887 57.6799 0.0000 0.0000 0.0000
# 2 49.5887 60.1180 57.6799 0.0000 0.0000 0.0000
# 3 57.6799 57.6799 152.8992 0.0000 0.0000 0.0000
# 4 0.0000 0.0000 0.0000 38.8203 0.0000 0.0000
# 5 0.0000 0.0000 0.0000 0.0000 38.8203 0.0000
# 6 0.0000 0.0000 0.0000 0.0000 0.0000 47.6183
#
#
#
# Elastic Compliance Matrix: (Units=1/GPa)
#
#
# Indices 1 2 3 4 5 6 
#
# 1 0.055041 -0.039932 -0.005700 0.000000 0.000000 0.000000
# 2 -0.039932 0.055041 -0.005700 0.000000 0.000000 0.000000
# 3 -0.005700 -0.005700 0.010840 0.000000 0.000000 0.000000
# 4 0.000000 0.000000 0.000000 0.025760 0.000000 0.000000
# 5 0.000000 0.000000 0.000000 0.000000 0.025760 0.000000
# 6 0.000000 0.000000 0.000000 0.000000 0.000000 0.021000
#
#
# Mechanical properties :
#
#
# Convention : Reuss Voigt Hill
#
# Bulk Modulus (GPa) = 54.76689 67.00356 60.88522
# Shear Modulus (GPa) = 16.54588 32.26422 24.40505
#
# Velocity S-wave (km/s) = 2.71084 3.78547 3.29230
# Velocity P-wave (km/s) = 5.84143 6.99037 6.44157
#
# Compressibility (1/GPa) = 0.01825921
#
# Stress axis : x y z
#
# Youngs Moduli (GPa) = 18.16843 18.16843 92.24721
#
# Poissons Ratio (x) = 0.72550 0.52576
# Poissons Ratio (y) = 0.72550 0.52576
# Poissons Ratio (z) = 0.10355 0.10355
#
# Static dielectric constant tensor:
#      x y z
#    x 1.975850 0.000000 0.000000 
#    y 0.000000 1.975850 0.000000 
#    z 0.000000 0.000000 1.797850 
# 
# From -- ./inp_files/2933.got.cif
#   From: 2010.05.17/outbox.cif.g08.bks.cpg/sg114_2_cif.got.tgz:2933.got - 2010.05.20 11:04:54.
