data_PCOD9556820
_publ_section_title
;
Structure prediction by ZEFSAII (Michael W. Deem and Ramdas Pophale) SiO2 
 PCOD9556820
Probable space group: P -4 M 2
;
_chemical_formula_sum "Si O2"
_cell_formula_units_Z 56
_cell_length_a 15.704158
_cell_length_b 15.704158
_cell_length_c 13.246704
_cell_angle_alpha 90.000000
_cell_angle_beta 90.000000
_cell_angle_gamma 90.000000
_cell_volume 3266.909804
_symmetry_space_group_name_H-M "P -4 M 2"
_symmetry_group_IT_number 115
_symmetry_cell_setting 'tetragonal'
loop_
_space_group_symop_operation_xyz
x,y,z
y,-x,-z
-x,-y,z
-y,x,-z
y,x,-z
-y,-x,-z
-x,y,z
x,-y,z
loop_
_atom_site_type_symbol
_atom_site_label
_atom_site_fract_x
_atom_site_fract_y
_atom_site_fract_z
Si Si1 0.601326 0.097585 0.025356
Si Si2 0.674719 0.401070 0.399955
Si Si3 0.902347 0.903760 0.378889
Si Si4 0.406048 0.898922 0.796033
Si Si5 0.804336 0.734803 0.313984
Si Si6 0.755005 0.704068 0.893073
Si Si7 0.594741 0.399360 0.824661
O O1 0.500000 0.096754 0.039301
O O2 0.615297 0.129372 0.910020
O O3 0.632067 0.000000 0.034138
O O4 0.644746 0.162342 0.100714
O O5 0.620950 0.379051 0.500000
O O6 0.706589 0.500000 0.408484
O O7 0.742803 0.323786 0.384025
O O8 0.621627 0.398469 0.295051
O O9 0.906188 0.906188 0.500000
O O10 0.843427 0.823097 0.352972
O O11 0.000000 0.890406 0.341988
O O12 0.875171 0.000000 0.345725
O O13 0.500000 0.863784 0.769434
O O14 0.333620 0.875338 0.718425
O O15 0.412840 0.000000 0.802559
O O16 0.758207 0.756932 0.208653
O O17 0.668798 0.649480 0.882134
O O18 0.752787 0.752787 0.000000
O O19 0.500000 0.371437 0.857483
O O20 0.602049 0.500000 0.839627
#
# Coordination Sequence:
#
# PCOD9556820 Si02
#       7
#     8   8   8   8   8   8   8
#     4   9  18  33  51  68  91 132 181 218 255 307
#     4  10  20  33  51  74 103 141 181 223 271 322
#     4   9  19  37  60  83 105 132 168 211 267 335
#     4   9  17  30  49  72  99 133 173 218 264 310
#     4  11  20  32  52  78 109 134 175 218 269 322
#     4  11  21  32  46  72 103 137 168 213 265 308
#     4   9  19  33  48  69  96 132 179 223 264 313
#
# _framework density 17.141580999999999
#
# number of rings (size 3 to 8) (size 9 to 14) (size 15 to 20)
#    0.000    2.286    1.429    3.429    0.000    3.000 
#    0.000    0.714    0.000    0.000    0.000    1.000 
#    0.000    4.571    0.000    0.000    0.000    0.000 
#
# Total GULP energy -311843.159649 kJ/mol
# GULP energy per Si atom -5568.627851 kJ/mol
# Density = 1.710257 g / cm^3
# Si number density = 17.141581 Si / 1000 Ang^3
#
#
#
# Elastic Constant Matrix: (Units=GPa)
#
#
# Indices 1 2 3 4 5 6 
#
# 1 84.7044 45.2368 25.8064 0.0000 0.0000 0.0000
# 2 45.2368 84.7041 25.8063 0.0000 0.0000 0.0000
# 3 25.8064 25.8063 56.0644 0.0000 0.0000 0.0000
# 4 0.0000 0.0000 0.0000 20.3535 0.0000 0.0000
# 5 0.0000 0.0000 0.0000 0.0000 20.3533 0.0000
# 6 0.0000 0.0000 0.0000 0.0000 0.0000 31.1406
#
#
#
# Elastic Compliance Matrix: (Units=1/GPa)
#
#
# Indices 1 2 3 4 5 6 
#
# 1 0.017377 -0.007960 -0.004335 0.000000 0.000000 0.000000
# 2 -0.007960 0.017377 -0.004335 0.000000 0.000000 0.000000
# 3 -0.004335 -0.004335 0.021827 0.000000 0.000000 0.000000
# 4 0.000000 0.000000 0.000000 0.049132 0.000000 0.000000
# 5 0.000000 0.000000 0.000000 0.000000 0.049132 0.000000
# 6 0.000000 0.000000 0.000000 0.000000 0.000000 0.032112
#
#
# Mechanical properties :
#
#
# Convention : Reuss Voigt Hill
#
# Bulk Modulus (GPa) = 42.87627 46.57466 44.72546
# Shear Modulus (GPa) = 21.93060 22.94439 22.43749
#
# Velocity S-wave (km/s) = 3.58072 3.66255 3.62187
# Velocity P-wave (km/s) = 6.49329 6.71679 6.60598
#
# Compressibility (1/GPa) = 0.02332292
#
# Stress axis : x y z
#
# Youngs Moduli (GPa) = 57.54592 57.54569 45.81410
#
# Poissons Ratio (x) = 0.45805 0.19860
# Poissons Ratio (y) = 0.45806 0.19860
# Poissons Ratio (z) = 0.24946 0.24946
#
# Static dielectric constant tensor:
#      x y z
#    x 1.602150 0.000000 0.000000 
#    y 0.000000 1.602150 0.000000 
#    z 0.000000 0.000000 1.573520 
# 
# From -- ./inp_files/3051.got.cif
#   From: 2010.05.17/outbox.cif.g08.bks.cpg/sg115_2_cif.got.tgz:3051.got - 2010.05.20 11:07:42.
