data_PCOD9556470
_publ_section_title
;
Structure prediction by ZEFSAII (Michael W. Deem and Ramdas Pophale) SiO2 
 PCOD9556470
Probable space group: P -4 21 C
;
_chemical_formula_sum "Si O2"
_cell_formula_units_Z 42
_cell_length_a 14.581346
_cell_length_b 14.581346
_cell_length_c 8.389614
_cell_angle_alpha 90.000000
_cell_angle_beta 90.000000
_cell_angle_gamma 90.000000
_cell_volume 1783.763244
_symmetry_space_group_name_H-M "P -4 21 C"
_symmetry_group_IT_number 114
_symmetry_cell_setting 'tetragonal'
loop_
_space_group_symop_operation_xyz
x,y,z
y,-x,-z
-x,-y,z
-y,x,-z
1/2+x,1/2-y,1/2-z
1/2-x,1/2+y,1/2-z
1/2-y,1/2-x,1/2+z
1/2+y,1/2+x,1/2+z
loop_
_atom_site_type_symbol
_atom_site_label
_atom_site_fract_x
_atom_site_fract_y
_atom_site_fract_z
Si Si1 0.501115 0.898255 0.452259
Si Si2 0.500000 0.500000 0.000000
Si Si3 0.418115 0.185272 0.157179
Si Si4 0.287590 0.682243 0.283280
Si Si5 0.304822 0.839272 0.497320
Si Si6 0.503755 0.301430 0.869442
O O1 0.516402 0.828494 0.307711
O O2 0.588319 0.900443 0.567926
O O3 0.403898 0.880875 0.534632
O O4 0.500000 0.000000 0.378750
O O5 0.408209 0.478188 0.099521
O O6 0.319135 0.209143 0.226672
O O7 0.454209 0.255611 0.025041
O O8 0.319712 0.735504 0.439448
O O9 0.294535 0.572924 0.268004
O O10 0.339313 0.730308 0.136747
O O11 0.259142 0.904002 0.360041
#
# Coordination Sequence:
#
# PCOD9556470 Si02
#       6
#     8   2   8   8   8   8
#     4  12  25  39  70 104 142 173 220 284 357 412
#     4  12  24  44  64  96 122 192 232 264 322 420
#     4  12  23  45  67 103 140 180 222 287 347 413
#     4  12  24  45  66 100 135 183 228 278 340 408
#     4  12  26  43  69 102 137 179 228 282 346 409
#     4  12  24  45  70  94 139 179 232 286 335 411
#
# _framework density 23.545725999999998
#
# number of rings (size 3 to 8) (size 9 to 14) (size 15 to 20)
#    0.000    0.000    7.619    1.714    5.333    0.000 
#    0.000    0.000    0.000    0.000    0.000    2.667 
#    0.000    0.000    0.000    0.000    0.000    0.000 
#
# Total GULP energy -235005.235810 kJ/mol
# GULP energy per Si atom -5595.362757 kJ/mol
# Density = 2.349213 g / cm^3
# Si number density = 23.545726 Si / 1000 Ang^3
#
#
#
# Elastic Constant Matrix: (Units=GPa)
#
#
# Indices 1 2 3 4 5 6 
#
# 1 121.4446 5.0210 9.1980 0.0000 0.0000 0.0000
# 2 5.0210 121.4446 9.1980 0.0000 0.0000 0.0000
# 3 9.1980 9.1980 36.8707 0.0000 0.0000 0.0000
# 4 0.0000 0.0000 0.0000 38.1659 0.0000 0.0000
# 5 0.0000 0.0000 0.0000 0.0000 38.1659 0.0000
# 6 0.0000 0.0000 0.0000 0.0000 0.0000 39.7501
#
#
#
# Elastic Compliance Matrix: (Units=1/GPa)
#
#
# Indices 1 2 3 4 5 6 
#
# 1 0.008397 -0.000192 -0.002047 0.000000 0.000000 0.000000
# 2 -0.000192 0.008397 -0.002047 0.000000 0.000000 0.000000
# 3 -0.002047 -0.002047 0.028143 0.000000 0.000000 0.000000
# 4 0.000000 0.000000 0.000000 0.026201 0.000000 0.000000
# 5 0.000000 0.000000 0.000000 0.000000 0.026201 0.000000
# 6 0.000000 0.000000 0.000000 0.000000 0.000000 0.025157
#
#
# Mechanical properties :
#
#
# Convention : Reuss Voigt Hill
#
# Bulk Modulus (GPa) = 27.49850 36.28819 31.89335
# Shear Modulus (GPa) = 34.91839 40.30592 37.61215
#
# Velocity S-wave (km/s) = 3.85516 4.14190 4.00110
# Velocity P-wave (km/s) = 5.61431 6.19023 5.90929
#
# Compressibility (1/GPa) = 0.03636561
#
# Stress axis : x y z
#
# Youngs Moduli (GPa) = 119.08762 119.08762 35.53275
#
# Poissons Ratio (x) = 0.02288 0.07273
# Poissons Ratio (y) = 0.02288 0.07273
# Poissons Ratio (z) = 0.24376 0.24376
#
# Static dielectric constant tensor:
#      x y z
#    x 1.913080 0.000000 0.000000 
#    y 0.000000 1.913080 0.000000 
#    z 0.000000 0.000000 1.899270 
# 
# From -- ./inp_files/814.got.cif
#   From: 2010.05.17/outbox.cif.g08.bks.cpg/sg114_1_cif.got.tgz:814.got - 2010.05.20 11:04:54.
