data_PCOD9556563
_publ_section_title
;
Structure prediction by ZEFSAII (Michael W. Deem and Ramdas Pophale) SiO2 
 PCOD9556563
Probable space group: P -4 M 2
;
_chemical_formula_sum "Si O2"
_cell_formula_units_Z 52
_cell_length_a 21.381517
_cell_length_b 21.381517
_cell_length_c 5.606719
_cell_angle_alpha 90.000000
_cell_angle_beta 90.000000
_cell_angle_gamma 90.000000
_cell_volume 2563.219628
_symmetry_space_group_name_H-M "P -4 M 2"
_symmetry_group_IT_number 115
_symmetry_cell_setting 'tetragonal'
loop_
_space_group_symop_operation_xyz
x,y,z
y,-x,-z
-x,-y,z
-y,x,-z
y,x,-z
-y,-x,-z
-x,y,z
x,-y,z
loop_
_atom_site_type_symbol
_atom_site_label
_atom_site_fract_x
_atom_site_fract_y
_atom_site_fract_z
Si Si1 0.071897 0.758966 0.750000
Si Si2 0.181624 0.181624 0.000000
Si Si3 0.165768 0.285443 0.376013
Si Si4 0.500000 0.815983 0.563110
Si Si5 0.112700 0.368234 0.994104
Si Si6 0.628083 0.575070 0.753201
Si Si7 0.891164 0.500000 0.936785
Si Si8 0.380395 0.235322 0.328825
O O1 0.112756 0.752820 0.513505
O O2 0.079638 0.690016 0.867087
O O3 0.000000 0.774436 0.718535
O O4 0.112014 0.806861 0.907138
O O5 0.236797 0.192391 0.811314
O O6 0.218516 0.317027 0.535103
O O7 0.129234 0.343375 0.254687
O O8 0.500000 0.865033 0.337266
O O9 0.561830 0.775849 0.510254
O O10 0.500000 0.843499 0.831039
O O11 0.076594 0.433150 0.973199
O O12 0.180254 0.381558 0.869737
O O13 0.596522 0.596522 0.500000
O O14 0.636803 0.500000 0.745378
O O15 0.695287 0.610081 0.766818
O O16 0.592019 0.592019 0.000000
#
# Coordination Sequence:
#
# PCOD9556563 Si02
#       8
#     8   4   8   4   8   8   4   8
#     4  10  22  41  64  93 130 175 218 260 318 388
#     4  10  22  40  64  97 134 170 212 263 320 380
#     4  10  20  37  61  95 135 166 205 261 327 389
#     4  10  18  32  62  86 124 166 210 268 327 406
#     4   9  20  35  61  90 130 172 210 264 326 387
#     4  12  29  48  68  90 119 165 224 288 354 424
#     4  10  18  32  57  90 126 176 223 258 327 374
#     4  10  21  39  61  92 126 160 210 275 341 407
#
# _framework density 20.286985000000001
#
# number of rings (size 3 to 8) (size 9 to 14) (size 15 to 20)
#    0.000    1.846    2.308    0.923    2.154    7.077 
#    5.538    0.385    0.000    0.231    0.000    0.000 
#    0.000    0.000    0.000    0.000    0.000    0.000 
#
# Total GULP energy -289967.113256 kJ/mol
# GULP energy per Si atom -5576.290640 kJ/mol
# Density = 2.024081 g / cm^3
# Si number density = 20.286985 Si / 1000 Ang^3
#
#
#
# Elastic Constant Matrix: (Units=GPa)
#
#
# Indices 1 2 3 4 5 6 
#
# 1 100.6030 66.4697 39.1643 0.0000 0.0000 0.0000
# 2 66.4697 100.6030 39.1643 0.0000 0.0000 0.0000
# 3 39.1643 39.1643 93.5165 0.0000 0.0000 0.0000
# 4 0.0000 0.0000 0.0000 -0.0977 0.0000 0.0000
# 5 0.0000 0.0000 0.0000 0.0000 -0.0977 0.0000
# 6 0.0000 0.0000 0.0000 0.0000 0.0000 10.2990
#
#
#
# Elastic Compliance Matrix: (Units=1/GPa)
#
#
# Indices 1 2 3 4 5 6 
#
# 1 0.018372 -0.010925 -0.003119 0.000000 0.000000 0.000000
# 2 -0.010925 0.018372 -0.003119 0.000000 0.000000 0.000000
# 3 -0.003119 -0.003119 0.013306 0.000000 0.000000 0.000000
# 4 0.000000 0.000000 0.000000-10.230395 0.000000 0.000000
# 5 0.000000 0.000000 0.000000 0.000000-10.230395 0.000000
# 6 0.000000 0.000000 0.000000 0.000000 0.000000 0.097097
#
#
# Mechanical properties :
#
#
# Convention : Reuss Voigt Hill
#
# Bulk Modulus (GPa) = 63.59312 64.92433 64.25873
# Shear Modulus (GPa) = -0.24662 12.01564 5.88451
#
# Velocity S-wave (km/s) = -0.34904 2.43633 1.70497
# Velocity P-wave (km/s) = 5.59038 6.32350 5.96821
#
# Compressibility (1/GPa) = 0.01572497
#
# Stress axis : x y z
#
# Youngs Moduli (GPa) = 54.42972 54.42972 75.15516
#
# Poissons Ratio (x) = 0.59462 0.23441
# Poissons Ratio (y) = 0.59462 0.23441
# Poissons Ratio (z) = 0.16977 0.16977
#
# Static dielectric constant tensor:
#      x y z
#    x 1.720150 0.000000 0.000000 
#    y 0.000000 1.720150 0.000000 
#    z 0.000000 0.000000 1.789750 
# 
# From -- ./inp_files/721.got.cif
#   From: 2010.05.17/outbox.cif.g08.bks.cpg/sg115_1_cif.got.tgz:721.got - 2010.05.20 11:07:42.
