data_PCOD9556395
_publ_section_title
;
Structure prediction by ZEFSAII (Michael W. Deem and Ramdas Pophale) SiO2 
 PCOD9556395
Probable space group: P -4 21 C
;
_chemical_formula_sum "Si O2"
_cell_formula_units_Z 48
_cell_length_a 8.921307
_cell_length_b 8.921307
_cell_length_c 29.000240
_cell_angle_alpha 90.000000
_cell_angle_beta 90.000000
_cell_angle_gamma 90.000000
_cell_volume 2308.120941
_symmetry_space_group_name_H-M "P -4 21 C"
_symmetry_group_IT_number 114
_symmetry_cell_setting 'tetragonal'
loop_
_space_group_symop_operation_xyz
x,y,z
y,-x,-z
-x,-y,z
-y,x,-z
1/2+x,1/2-y,1/2-z
1/2-x,1/2+y,1/2-z
1/2-y,1/2-x,1/2+z
1/2+y,1/2+x,1/2+z
loop_
_atom_site_type_symbol
_atom_site_label
_atom_site_fract_x
_atom_site_fract_y
_atom_site_fract_z
Si Si1 0.658336 0.423165 0.795616
Si Si2 0.475626 0.677338 0.376661
Si Si3 0.162364 0.433986 0.716507
Si Si4 0.167740 0.479366 0.968839
Si Si5 0.786436 0.363507 0.064320
Si Si6 0.834422 0.159601 0.396456
O O1 0.500000 0.500000 0.784597
O O2 0.783818 0.504066 0.765459
O O3 0.683809 0.431096 0.850440
O O4 0.655595 0.246109 0.784119
O O5 0.500000 0.500000 0.383333
O O6 0.489119 0.722252 0.322843
O O7 0.588338 0.776709 0.407074
O O8 0.312130 0.737668 0.390706
O O9 0.000000 0.500000 0.704622
O O10 0.235550 0.316956 0.958682
O O11 0.284735 0.582766 0.941727
O O12 0.000000 0.500000 0.949878
O O13 0.163305 0.532348 0.021632
O O14 0.706855 0.484602 0.097849
#
# Coordination Sequence:
#
# PCOD9556395 Si02
#       6
#     8   8   8   8   8   8
#     4  11  23  42  67  99 134 181 233 291 349 428
#     4  11  24  45  69 100 138 183 229 294 356 430
#     4  11  24  42  69 100 139 183 236 288 362 429
#     4  12  25  41  64  99 131 180 233 291 348 418
#     4  12  24  44  69  96 140 181 237 290 355 423
#     4  11  24  44  68  98 136 182 234 287 359 412
#
# _framework density 20.796136000000001
#
# number of rings (size 3 to 8) (size 9 to 14) (size 15 to 20)
#    0.000    0.667    1.667    7.500    0.000    3.333 
#    0.000    0.000    0.000    0.000    0.000    0.000 
#    0.000    0.000    0.000    0.000    0.000    0.000 
#
# Total GULP energy -268433.514643 kJ/mol
# GULP energy per Si atom -5592.364888 kJ/mol
# Density = 2.074880 g / cm^3
# Si number density = 20.796136 Si / 1000 Ang^3
#
#
#
# Elastic Constant Matrix: (Units=GPa)
#
#
# Indices 1 2 3 4 5 6 
#
# 1 83.5091 19.4628 23.1138 0.0000 0.0000 0.0000
# 2 19.4628 83.5091 23.1138 0.0000 0.0000 0.0000
# 3 23.1138 23.1138 110.5176 0.0000 0.0000 0.0000
# 4 0.0000 0.0000 0.0000 30.8075 0.0000 0.0000
# 5 0.0000 0.0000 0.0000 0.0000 30.8075 0.0000
# 6 0.0000 0.0000 0.0000 0.0000 0.0000 36.5122
#
#
#
# Elastic Compliance Matrix: (Units=1/GPa)
#
#
# Indices 1 2 3 4 5 6 
#
# 1 0.013166 -0.002448 -0.002242 0.000000 0.000000 0.000000
# 2 -0.002448 0.013166 -0.002242 0.000000 0.000000 0.000000
# 3 -0.002242 -0.002242 0.009986 0.000000 0.000000 0.000000
# 4 0.000000 0.000000 0.000000 0.032460 0.000000 0.000000
# 5 0.000000 0.000000 0.000000 0.000000 0.032460 0.000000
# 6 0.000000 0.000000 0.000000 0.000000 0.000000 0.027388
#
#
# Mechanical properties :
#
#
# Convention : Reuss Voigt Hill
#
# Bulk Modulus (GPa) = 44.53306 45.43519 44.98413
# Shear Modulus (GPa) = 33.33959 33.74846 33.54402
#
# Velocity S-wave (km/s) = 4.00830 4.03280 4.02057
# Velocity P-wave (km/s) = 6.54847 6.60151 6.57505
#
# Compressibility (1/GPa) = 0.02245523
#
# Stress axis : x y z
#
# Youngs Moduli (GPa) = 75.95498 75.95498 100.14106
#
# Poissons Ratio (x) = 0.18594 0.22447
# Poissons Ratio (y) = 0.18594 0.22447
# Poissons Ratio (z) = 0.17025 0.17025
#
# Static dielectric constant tensor:
#      x y z
#    x 1.730030 0.000000 0.000000 
#    y 0.000000 1.730030 0.000000 
#    z 0.000000 0.000000 1.736740 
# 
# From -- ./inp_files/3917.got.cif
#   From: 2010.05.17/outbox.cif.g08.bks.cpg/sg114_2_cif.got.tgz:3917.got - 2010.05.20 11:04:54.
