data_PCOD9556038
_publ_section_title
;
Structure prediction by ZEFSAII (Michael W. Deem and Ramdas Pophale) SiO2 
 PCOD9556038
Probable space group: P -4 21 C
;
_chemical_formula_sum "Si O2"
_cell_formula_units_Z 60
_cell_length_a 11.618899
_cell_length_b 11.618899
_cell_length_c 25.261485
_cell_angle_alpha 90.000000
_cell_angle_beta 90.000000
_cell_angle_gamma 90.000000
_cell_volume 3410.270514
_symmetry_space_group_name_H-M "P -4 21 C"
_symmetry_group_IT_number 114
_symmetry_cell_setting 'tetragonal'
loop_
_space_group_symop_operation_xyz
x,y,z
y,-x,-z
-x,-y,z
-y,x,-z
1/2+x,1/2-y,1/2-z
1/2-x,1/2+y,1/2-z
1/2-y,1/2-x,1/2+z
1/2+y,1/2+x,1/2+z
loop_
_atom_site_type_symbol
_atom_site_label
_atom_site_fract_x
_atom_site_fract_y
_atom_site_fract_z
Si Si1 0.575837 0.613761 0.776267
Si Si2 0.155645 0.815068 0.839608
Si Si3 0.392613 0.776117 0.788851
Si Si4 0.495247 0.307282 0.497994
Si Si5 0.702079 0.211879 0.674966
Si Si6 0.361648 0.992734 0.096888
Si Si7 0.000000 0.500000 0.177144
Si Si8 0.047765 0.737577 0.118863
O O1 0.500000 0.500000 0.770198
O O2 0.597537 0.666182 0.717850
O O3 0.491825 0.694898 0.809204
O O4 0.697125 0.623962 0.806487
O O5 0.285045 0.775405 0.827367
O O6 0.091754 0.716445 0.873337
O O7 0.174886 0.944921 0.862588
O O8 0.349628 0.744243 0.730645
O O9 0.453236 0.899183 0.785948
O O10 0.390414 0.394576 0.512227
O O11 0.522679 0.213679 0.543277
O O12 0.457400 0.245342 0.444121
O O13 0.612328 0.148357 0.637819
O O14 0.732830 0.327957 0.643098
O O15 0.500000 0.000000 0.086378
O O16 0.974386 0.390166 0.140760
#
# Coordination Sequence:
#
# PCOD9556038 Si02
#       8
#     8   8   8   8   8   8   4   8
#     4  11  22  37  59  87 126 170 212 246 299 386
#     4  10  23  38  60  88 122 167 199 256 312 373
#     4  10  21  37  58  88 119 162 207 245 305 371
#     4  11  23  41  66  90 117 153 208 263 320 370
#     4  11  23  38  60  90 126 164 202 255 316 371
#     4  12  26  41  59  93 130 161 200 267 327 372
#     4  10  22  38  62  86 122 162 204 256 300 380
#     4  11  21  41  64  88 121 157 211 258 315 369
#
# _framework density 17.593910999999999
#
# number of rings (size 3 to 8) (size 9 to 14) (size 15 to 20)
#    0.000    1.200    5.333    0.800    3.733    0.000 
#    0.000    0.000    0.000    0.000    0.000    0.000 
#    0.000    0.000    0.000    0.000    0.000    0.000 
#
# Total GULP energy -334026.970104 kJ/mol
# GULP energy per Si atom -5567.116168 kJ/mol
# Density = 1.755387 g / cm^3
# Si number density = 17.593911 Si / 1000 Ang^3
#
#
#
# Elastic Constant Matrix: (Units=GPa)
#
#
# Indices 1 2 3 4 5 6 
#
# 1 60.0749 20.7211 3.4431 0.0000 0.0000 0.0000
# 2 20.7211 60.0749 3.4431 0.0000 0.0000 0.0000
# 3 3.4431 3.4431 62.3817 0.0000 0.0000 0.0000
# 4 0.0000 0.0000 0.0000 30.8985 0.0000 0.0000
# 5 0.0000 0.0000 0.0000 0.0000 30.8985 0.0000
# 6 0.0000 0.0000 0.0000 0.0000 0.0000 13.6040
#
#
#
# Elastic Compliance Matrix: (Units=1/GPa)
#
#
# Indices 1 2 3 4 5 6 
#
# 1 0.018923 -0.006488 -0.000686 0.000000 0.000000 0.000000
# 2 -0.006488 0.018923 -0.000686 0.000000 0.000000 0.000000
# 3 -0.000686 -0.000686 0.016106 0.000000 0.000000 0.000000
# 4 0.000000 0.000000 0.000000 0.032364 0.000000 0.000000
# 5 0.000000 0.000000 0.000000 0.000000 0.032364 0.000000
# 6 0.000000 0.000000 0.000000 0.000000 0.000000 0.073508
#
#
# Mechanical properties :
#
#
# Convention : Reuss Voigt Hill
#
# Bulk Modulus (GPa) = 26.15653 26.41623 26.28638
# Shear Modulus (GPa) = 22.66010 25.40848 24.03429
#
# Velocity S-wave (km/s) = 3.59270 3.80434 3.70003
# Velocity P-wave (km/s) = 5.66648 5.86040 5.76426
#
# Compressibility (1/GPa) = 0.03823138
#
# Stress axis : x y z
#
# Youngs Moduli (GPa) = 52.84598 52.84598 62.08826
#
# Poissons Ratio (x) = 0.34284 0.04261
# Poissons Ratio (y) = 0.34284 0.04261
# Poissons Ratio (z) = 0.03627 0.03627
#
# Static dielectric constant tensor:
#      x y z
#    x 1.640960 0.000000 0.000000 
#    y 0.000000 1.640960 0.000000 
#    z 0.000000 0.000000 1.579870 
# 
# From -- ./inp_files/3240.got.cif
#   From: 2010.05.17/outbox.cif.g08.bks.cpg/sg114_2_cif.got.tgz:3240.got - 2010.05.20 11:04:54.
