data_PCOD9556075
_publ_section_title
;
Structure prediction by ZEFSAII (Michael W. Deem and Ramdas Pophale) SiO2 
 PCOD9556075
Probable space group: P -4 21 C
;
_chemical_formula_sum "Si O2"
_cell_formula_units_Z 42
_cell_length_a 11.825717
_cell_length_b 11.825717
_cell_length_c 12.358979
_cell_angle_alpha 90.000000
_cell_angle_beta 90.000000
_cell_angle_gamma 90.000000
_cell_volume 1728.373336
_symmetry_space_group_name_H-M "P -4 21 C"
_symmetry_group_IT_number 114
_symmetry_cell_setting 'tetragonal'
loop_
_space_group_symop_operation_xyz
x,y,z
y,-x,-z
-x,-y,z
-y,x,-z
1/2+x,1/2-y,1/2-z
1/2-x,1/2+y,1/2-z
1/2-y,1/2-x,1/2+z
1/2+y,1/2+x,1/2+z
loop_
_atom_site_type_symbol
_atom_site_label
_atom_site_fract_x
_atom_site_fract_y
_atom_site_fract_z
Si Si1 0.735778 0.400580 0.077317
Si Si2 0.000000 0.000000 0.500000
Si Si3 0.403069 0.335821 0.255431
Si Si4 0.219096 0.288358 0.571825
Si Si5 0.384917 0.027987 0.882992
Si Si6 0.146491 0.072839 0.202308
O O1 0.630741 0.477898 0.040120
O O2 0.865819 0.414944 0.037783
O O3 0.739424 0.419182 0.204932
O O4 0.708341 0.273502 0.041914
O O5 0.309464 0.316845 0.160945
O O6 0.427428 0.220530 0.315384
O O7 0.532354 0.381681 0.234212
O O8 0.363181 0.441951 0.327737
O O9 0.153126 0.405988 0.573189
O O10 0.345835 0.323756 0.604981
O O11 0.500000 0.000000 0.819828
#
# Coordination Sequence:
#
# PCOD9556075 Si02
#       6
#     8   2   8   8   8   8
#     4  12  23  43  68  98 138 177 234 294 336 429
#     4  12  24  40  76 100 128 186 244 284 352 428
#     4  10  21  41  67  95 133 182 226 283 346 427
#     4  11  24  40  67 100 131 184 226 279 364 411
#     4  11  24  42  65 100 144 173 224 297 350 419
#     4  10  21  40  65  96 132 179 237 277 343 422
#
# _framework density 24.300305999999999
#
# number of rings (size 3 to 8) (size 9 to 14) (size 15 to 20)
#    0.000    1.143    1.905    5.714    0.000    1.524 
#    0.000    0.952    0.000    0.000    0.000    0.000 
#    0.000    0.000    0.000    0.000    0.000    0.000 
#
# Total GULP energy -233803.803736 kJ/mol
# GULP energy per Si atom -5566.757232 kJ/mol
# Density = 2.424500 g / cm^3
# Si number density = 24.300306 Si / 1000 Ang^3
#
#
#
# Elastic Constant Matrix: (Units=GPa)
#
#
# Indices 1 2 3 4 5 6 
#
# 1 208.7149 39.8488 26.3946 0.0000 0.0000 0.0000
# 2 39.8488 208.7149 26.3946 0.0000 0.0000 0.0000
# 3 26.3946 26.3946 21.3888 0.0000 0.0000 0.0000
# 4 0.0000 0.0000 0.0000 20.4542 0.0000 0.0000
# 5 0.0000 0.0000 0.0000 0.0000 20.4542 0.0000
# 6 0.0000 0.0000 0.0000 0.0000 0.0000 45.5222
#
#
#
# Elastic Compliance Matrix: (Units=1/GPa)
#
#
# Indices 1 2 3 4 5 6 
#
# 1 0.005687 -0.000235 -0.006728 0.000000 0.000000 0.000000
# 2 -0.000235 0.005687 -0.006728 0.000000 0.000000 0.000000
# 3 -0.006728 -0.006728 0.063359 0.000000 0.000000 0.000000
# 4 0.000000 0.000000 0.000000 0.048890 0.000000 0.000000
# 5 0.000000 0.000000 0.000000 0.000000 0.048890 0.000000
# 6 0.000000 0.000000 0.000000 0.000000 0.000000 0.021967
#
#
# Mechanical properties :
#
#
# Convention : Reuss Voigt Hill
#
# Bulk Modulus (GPa) = 21.11902 69.34386 45.23144
# Shear Modulus (GPa) = 21.03984 40.36482 30.70233
#
# Velocity S-wave (km/s) = 2.94568 4.08006 3.55837
# Velocity P-wave (km/s) = 4.50323 7.12699 5.96126
#
# Compressibility (1/GPa) = 0.04735068
#
# Stress axis : x y z
#
# Youngs Moduli (GPa) = 175.84238 175.84238 15.78320
#
# Poissons Ratio (x) = 0.04131 0.10619
# Poissons Ratio (y) = 0.04131 0.10619
# Poissons Ratio (z) = 1.18306 1.18306
#
# Static dielectric constant tensor:
#      x y z
#    x 2.013870 0.000000 0.000000 
#    y 0.000000 2.013870 0.000000 
#    z 0.000000 0.000000 1.992600 
# 
# From -- ./inp_files/2565.got.cif
#   From: 2010.05.17/outbox.cif.g08.bks.cpg/sg114_2_cif.got.tgz:2565.got - 2010.05.20 11:04:54.
