data_PCOD9556229
_publ_section_title
;
Structure prediction by ZEFSAII (Michael W. Deem and Ramdas Pophale) SiO2 
 PCOD9556229
Probable space group: P -4 21 C
;
_chemical_formula_sum "Si O2"
_cell_formula_units_Z 36
_cell_length_a 11.334837
_cell_length_b 11.334837
_cell_length_c 12.830983
_cell_angle_alpha 90.000000
_cell_angle_beta 90.000000
_cell_angle_gamma 90.000000
_cell_volume 1648.505832
_symmetry_space_group_name_H-M "P -4 21 C"
_symmetry_group_IT_number 114
_symmetry_cell_setting 'tetragonal'
loop_
_space_group_symop_operation_xyz
x,y,z
y,-x,-z
-x,-y,z
-y,x,-z
1/2+x,1/2-y,1/2-z
1/2-x,1/2+y,1/2-z
1/2-y,1/2-x,1/2+z
1/2+y,1/2+x,1/2+z
loop_
_atom_site_type_symbol
_atom_site_label
_atom_site_fract_x
_atom_site_fract_y
_atom_site_fract_z
Si Si1 0.000000 0.000000 0.500000
Si Si2 0.500000 0.500000 0.500000
Si Si3 0.460630 0.178609 0.772514
Si Si4 0.875417 0.823801 0.364524
Si Si5 0.309758 0.967751 0.829552
Si Si6 0.255049 0.418832 0.434111
O O1 0.119462 0.978421 0.566624
O O2 0.397448 0.433362 0.434309
O O3 0.433174 0.289740 0.842959
O O4 0.574214 0.111403 0.814082
O O5 0.491145 0.207919 0.653389
O O6 0.347466 0.095500 0.787411
O O7 0.958544 0.719313 0.049641
O O8 0.804630 0.709654 0.410960
O O9 0.213628 0.918548 0.750243
#
# Coordination Sequence:
#
# PCOD9556229 Si02
#       6
#     2   2   8   8   8   8
#     4  12  28  46  68  94 132 176 220 282 340 402
#     4  12  24  38  68  96 124 174 216 266 336 400
#     4  10  23  41  65  95 129 171 220 272 333 405
#     4  11  25  43  66  97 131 172 223 276 340 408
#     4  10  23  42  67  95 130 175 222 272 336 406
#     4  11  24  43  66  97 134 173 220 281 336 398
#
# _framework density 21.837955000000001
#
# number of rings (size 3 to 8) (size 9 to 14) (size 15 to 20)
#    0.000    1.333    0.000    4.000    0.000   19.556 
#    0.000    0.000    0.000    0.000    0.000    0.000 
#    0.000    0.000    0.000    0.000    0.000    0.000 
#
# Total GULP energy -201042.779106 kJ/mol
# GULP energy per Si atom -5584.521642 kJ/mol
# Density = 2.178825 g / cm^3
# Si number density = 21.837955 Si / 1000 Ang^3
#
#
#
# Elastic Constant Matrix: (Units=GPa)
#
#
# Indices 1 2 3 4 5 6 
#
# 1 60.5696 26.7643 51.8751 0.0000 0.0000 0.0000
# 2 26.7643 60.5696 51.8751 0.0000 0.0000 0.0000
# 3 51.8751 51.8751 165.1216 0.0000 0.0000 0.0000
# 4 0.0000 0.0000 0.0000 19.1211 0.0000 0.0000
# 5 0.0000 0.0000 0.0000 0.0000 19.1211 0.0000
# 6 0.0000 0.0000 0.0000 0.0000 0.0000 19.1207
#
#
#
# Elastic Compliance Matrix: (Units=1/GPa)
#
#
# Indices 1 2 3 4 5 6 
#
# 1 0.023925 -0.005656 -0.005739 0.000000 0.000000 0.000000
# 2 -0.005656 0.023925 -0.005739 0.000000 0.000000 0.000000
# 3 -0.005739 -0.005739 0.009662 0.000000 0.000000 0.000000
# 4 0.000000 0.000000 0.000000 0.052298 0.000000 0.000000
# 5 0.000000 0.000000 0.000000 0.000000 0.052298 0.000000
# 6 0.000000 0.000000 0.000000 0.000000 0.000000 0.052299
#
#
# Mechanical properties :
#
#
# Convention : Reuss Voigt Hill
#
# Bulk Modulus (GPa) = 43.02555 60.80997 51.91776
# Shear Modulus (GPa) = 19.49889 21.85566 20.67727
#
# Velocity S-wave (km/s) = 2.99137 3.16699 3.08043
# Velocity P-wave (km/s) = 5.62814 6.42492 6.03968
#
# Compressibility (1/GPa) = 0.02324200
#
# Stress axis : x y z
#
# Youngs Moduli (GPa) = 41.79770 41.79770 103.49558
#
# Poissons Ratio (x) = 0.23643 0.59399
# Poissons Ratio (y) = 0.23643 0.59399
# Poissons Ratio (z) = 0.23989 0.23989
#
# Static dielectric constant tensor:
#      x y z
#    x 1.950520 0.000000 0.000000 
#    y 0.000000 1.950520 0.000000 
#    z 0.000000 0.000000 1.760900 
# 
# From -- ./inp_files/2087.got.cif
#   From: 2010.05.17/outbox.cif.g08.bks.cpg/sg114_2_cif.got.tgz:2087.got - 2010.05.20 11:04:54.
