data_PCOD9556187
_publ_section_title
;
Structure prediction by ZEFSAII (Michael W. Deem and Ramdas Pophale) SiO2 
 PCOD9556187
Probable space group: P -4 21 C
;
_chemical_formula_sum "Si O2"
_cell_formula_units_Z 58
_cell_length_a 18.209148
_cell_length_b 18.209148
_cell_length_c 8.135755
_cell_angle_alpha 90.000000
_cell_angle_beta 90.000000
_cell_angle_gamma 90.000000
_cell_volume 2697.597269
_symmetry_space_group_name_H-M "P -4 21 C"
_symmetry_group_IT_number 114
_symmetry_cell_setting 'tetragonal'
loop_
_space_group_symop_operation_xyz
x,y,z
y,-x,-z
-x,-y,z
-y,x,-z
1/2+x,1/2-y,1/2-z
1/2-x,1/2+y,1/2-z
1/2-y,1/2-x,1/2+z
1/2+y,1/2+x,1/2+z
loop_
_atom_site_type_symbol
_atom_site_label
_atom_site_fract_x
_atom_site_fract_y
_atom_site_fract_z
Si Si1 0.042152 0.341215 0.185456
Si Si2 0.751555 0.376365 0.150680
Si Si3 0.579278 0.015989 0.114045
Si Si4 0.500000 0.500000 0.000000
Si Si5 0.152946 0.611370 0.831248
Si Si6 0.518824 0.343405 0.835682
Si Si7 0.943453 0.889678 0.003825
Si Si8 0.896675 0.800611 0.332950
O O1 0.059799 0.421322 0.257838
O O2 0.092030 0.281920 0.272273
O O3 0.956708 0.321322 0.219798
O O4 0.048279 0.354894 0.993666
O O5 0.805648 0.335737 0.275430
O O6 0.709662 0.450515 0.203868
O O7 0.684816 0.322230 0.112633
O O8 0.805631 0.397757 0.002279
O O9 0.500000 0.000000 0.027749
O O10 0.603675 0.935305 0.167438
O O11 0.495870 0.427279 0.886109
O O12 0.568132 0.348926 0.671552
O O13 0.554410 0.315281 0.005535
O O14 0.919553 0.847865 0.169942
O O15 0.031105 0.904572 0.008375
#
# Coordination Sequence:
#
# PCOD9556187 Si02
#       8
#     8   8   8   2   8   8   8   8
#     4  11  24  42  71  99 137 181 239 299 369 430
#     4  12  26  46  70 107 143 191 247 295 378 442
#     4  10  22  42  71 101 127 175 242 299 352 440
#     4  12  20  44  74 108 152 198 248 308 354 436
#     4  11  24  45  72 100 142 185 235 301 370 449
#     4  12  23  42  72 103 150 197 244 299 359 432
#     4  11  23  40  68 105 145 196 254 293 345 435
#     4  12  27  44  68 110 147 192 239 303 373 431
#
# _framework density 21.500615
#
# number of rings (size 3 to 8) (size 9 to 14) (size 15 to 20)
#    0.000    0.690    5.517    2.897    3.862    1.103 
#    2.483    0.000    0.000    0.000    0.000    0.000 
#    0.000    0.000    0.000    0.000    0.000    0.000 
#
# Total GULP energy -323704.124890 kJ/mol
# GULP energy per Si atom -5581.105602 kJ/mol
# Density = 2.145168 g / cm^3
# Si number density = 21.500615 Si / 1000 Ang^3
#
#
#
# Elastic Constant Matrix: (Units=GPa)
#
#
# Indices 1 2 3 4 5 6 
#
# 1 50.8365 8.7798 -3.6796 0.0000 0.0000 0.0000
# 2 8.7798 50.8365 -3.6796 0.0000 0.0000 0.0000
# 3 -3.6796 -3.6796 71.0773 0.0000 0.0000 0.0000
# 4 0.0000 0.0000 0.0000 17.8932 0.0000 0.0000
# 5 0.0000 0.0000 0.0000 0.0000 17.8932 0.0000
# 6 0.0000 0.0000 0.0000 0.0000 0.0000 23.9825
#
#
#
# Elastic Compliance Matrix: (Units=1/GPa)
#
#
# Indices 1 2 3 4 5 6 
#
# 1 0.020330 -0.003448 0.000874 0.000000 0.000000 0.000000
# 2 -0.003448 0.020330 0.000874 0.000000 0.000000 0.000000
# 3 0.000874 0.000874 0.014160 0.000000 0.000000 0.000000
# 4 0.000000 0.000000 0.000000 0.055887 0.000000 0.000000
# 5 0.000000 0.000000 0.000000 0.000000 0.055887 0.000000
# 6 0.000000 0.000000 0.000000 0.000000 0.000000 0.041697
#
#
# Mechanical properties :
#
#
# Convention : Reuss Voigt Hill
#
# Bulk Modulus (GPa) = 19.44803 19.51018 19.47911
# Shear Modulus (GPa) = 21.85031 23.37576 22.61303
#
# Velocity S-wave (km/s) = 3.19135 3.30087 3.24657
# Velocity P-wave (km/s) = 4.75863 4.86020 4.80969
#
# Compressibility (1/GPa) = 0.05141909
#
# Stress axis : x y z
#
# Youngs Moduli (GPa) = 49.18932 49.18932 70.62304
#
# Poissons Ratio (x) = 0.16960 -0.06172
# Poissons Ratio (y) = 0.16960 -0.06172
# Poissons Ratio (z) = -0.04299 -0.04299
#
# Static dielectric constant tensor:
#      x y z
#    x 1.813560 0.000000 0.000000 
#    y 0.000000 1.813560 0.000000 
#    z 0.000000 0.000000 1.839370 
# 
# From -- ./inp_files/1026.got.cif
#   From: 2010.05.17/outbox.cif.g08.bks.cpg/sg114_1_cif.got.tgz:1026.got - 2010.05.20 11:04:54.
