data_PCOD9556636
_publ_section_title
;
Structure prediction by ZEFSAII (Michael W. Deem and Ramdas Pophale) SiO2 
 PCOD9556636
Probable space group: P -4 M 2
;
_chemical_formula_sum "Si O2"
_cell_formula_units_Z 40
_cell_length_a 8.047071
_cell_length_b 8.047071
_cell_length_c 30.254385
_cell_angle_alpha 90.000000
_cell_angle_beta 90.000000
_cell_angle_gamma 90.000000
_cell_volume 1959.133341
_symmetry_space_group_name_H-M "P -4 M 2"
_symmetry_group_IT_number 115
_symmetry_cell_setting 'tetragonal'
loop_
_space_group_symop_operation_xyz
x,y,z
y,-x,-z
-x,-y,z
-y,x,-z
y,x,-z
-y,-x,-z
-x,y,z
x,-y,z
loop_
_atom_site_type_symbol
_atom_site_label
_atom_site_fract_x
_atom_site_fract_y
_atom_site_fract_z
Si Si1 0.185538 0.802094 0.857732
Si Si2 0.701925 0.310640 0.449218
Si Si3 0.308869 0.299482 0.047314
Si Si4 0.319280 0.796594 0.765398
Si Si5 0.299317 0.000000 0.391546
Si Si6 0.200790 0.000000 0.289720
O O1 0.249865 0.773107 0.906964
O O2 0.293253 0.742084 0.816329
O O3 0.000000 0.732298 0.853763
O O4 0.176099 0.000000 0.852062
O O5 0.737893 0.262108 0.500000
O O6 0.500000 0.316923 0.446588
O O7 0.761744 0.500000 0.440818
O O8 0.760954 0.167409 0.416170
O O9 0.500000 0.243718 0.050359
O O10 0.307415 0.500000 0.044399
O O11 0.238548 0.238548 0.000000
O O12 0.500000 0.741931 0.749317
O O13 0.164657 0.740700 0.735992
O O14 0.318432 0.000000 0.764746
O O15 0.500000 0.000000 0.394990
O O16 0.252093 0.000000 0.340446
O O17 0.000000 0.000000 0.287408
#
# Coordination Sequence:
#
# PCOD9556636 Si02
#       6
#     8   8   8   8   4   4
#     4  10  19  32  52  78 102 127 170 224 270 321
#     4   8  15  31  54  77 105 144 185 223 269 327
#     4   9  19  35  51  69  99 137 172 209 260 324
#     4   9  17  32  55  76  99 138 179 220 274 330
#     4  10  20  34  54  80 110 146 182 226 280 327
#     4  10  20  36  52  74 110 138 176 226 272 323
#
# _framework density 20.417193000000001
#
# number of rings (size 3 to 8) (size 9 to 14) (size 15 to 20)
#    0.000    2.800    1.000    1.800    0.000    3.200 
#    1.800    4.000    0.000    1.200    0.000    0.000 
#    0.000    0.000    0.000    0.000    0.000    0.000 
#
# Total GULP energy -223016.472120 kJ/mol
# GULP energy per Si atom -5575.411803 kJ/mol
# Density = 2.037072 g / cm^3
# Si number density = 20.417193 Si / 1000 Ang^3
#
#
#
# Elastic Constant Matrix: (Units=GPa)
#
#
# Indices 1 2 3 4 5 6 
#
# 1 65.5639 21.7979 53.5185 0.0000 0.0000 0.0000
# 2 21.7979 65.5641 53.5186 0.0000 0.0000 0.0000
# 3 53.5185 53.5186 165.0260 0.0000 0.0000 0.0000
# 4 0.0000 0.0000 0.0000 33.5719 0.0000 0.0000
# 5 0.0000 0.0000 0.0000 0.0000 33.5719 0.0000
# 6 0.0000 0.0000 0.0000 0.0000 0.0000 7.0330
#
#
#
# Elastic Compliance Matrix: (Units=1/GPa)
#
#
# Indices 1 2 3 4 5 6 
#
# 1 0.020921 -0.001928 -0.006160 0.000000 0.000000 0.000000
# 2 -0.001928 0.020921 -0.006160 0.000000 0.000000 0.000000
# 3 -0.006160 -0.006160 0.010055 0.000000 0.000000 0.000000
# 4 0.000000 0.000000 0.000000 0.029787 0.000000 0.000000
# 5 0.000000 0.000000 0.000000 0.000000 0.029787 0.000000
# 6 0.000000 0.000000 0.000000 0.000000 0.000000 0.142186
#
#
# Mechanical properties :
#
#
# Convention : Reuss Voigt Hill
#
# Bulk Modulus (GPa) = 42.72903 61.53598 52.13251
# Shear Modulus (GPa) = 17.24423 25.98995 21.61709
#
# Velocity S-wave (km/s) = 2.90934 3.57171 3.25740
# Velocity P-wave (km/s) = 5.67971 6.87126 6.30370
#
# Compressibility (1/GPa) = 0.02340329
#
# Stress axis : x y z
#
# Youngs Moduli (GPa) = 47.79841 47.79855 99.45418
#
# Poissons Ratio (x) = 0.09213 0.61261
# Poissons Ratio (y) = 0.09213 0.61261
# Poissons Ratio (z) = 0.29442 0.29442
#
# Static dielectric constant tensor:
#      x y z
#    x 1.739490 0.000000 0.000000 
#    y 0.000000 1.739490 0.000000 
#    z 0.000000 0.000000 1.707770 
# 
# From -- ./inp_files/5515.got.cif
#   From: 2010.05.17/outbox.cif.g08.bks.cpg/sg115_3_cif.got.tgz:5515.got - 2010.05.20 11:07:42.
