data_PCOD9556661
_publ_section_title
;
Structure prediction by ZEFSAII (Michael W. Deem and Ramdas Pophale) SiO2 
 PCOD9556661
Probable space group: P -4 M 2
;
_chemical_formula_sum "Si O2"
_cell_formula_units_Z 33
_cell_length_a 13.054871
_cell_length_b 13.054871
_cell_length_c 12.151185
_cell_angle_alpha 90.000000
_cell_angle_beta 90.000000
_cell_angle_gamma 90.000000
_cell_volume 2070.922290
_symmetry_space_group_name_H-M "P -4 M 2"
_symmetry_group_IT_number 115
_symmetry_cell_setting 'tetragonal'
loop_
_space_group_symop_operation_xyz
x,y,z
y,-x,-z
-x,-y,z
-y,x,-z
y,x,-z
-y,-x,-z
-x,y,z
x,-y,z
loop_
_atom_site_type_symbol
_atom_site_label
_atom_site_fract_x
_atom_site_fract_y
_atom_site_fract_z
Si Si1 0.122441 0.613100 0.765789
Si Si2 0.785897 0.615432 0.524690
Si Si3 0.000000 0.836453 0.294306
Si Si4 0.000000 0.000000 0.500000
Si Si5 0.000000 0.382984 0.393296
Si Si6 0.182340 0.878666 0.121878
O O1 0.136476 0.500000 0.814826
O O2 0.183136 0.618506 0.652184
O O3 0.157646 0.706648 0.839555
O O4 0.000000 0.624270 0.742802
O O5 0.703671 0.703671 0.500000
O O6 0.747452 0.500000 0.498516
O O7 0.894851 0.627644 0.462617
O O8 0.000000 0.715438 0.316139
O O9 0.901473 0.858840 0.217416
O O10 0.000000 0.903700 0.410366
O O11 0.000000 0.500000 0.347978
O O12 0.186173 0.000000 0.111325
O O13 0.159614 0.840387 0.000000
#
# Coordination Sequence:
#
# PCOD9556661 Si02
#       6
#     8   8   4   1   4   8
#     4   9  18  33  53  77 101 136 186 223 256 309
#     4  10  19  33  53  77 109 144 179 223 268 320
#     4  12  24  35  53  81 112 146 178 214 269 332
#     4  12  28  32  50  88 116 140 180 218 260 336
#     4  10  22  36  50  74 112 146 175 217 271 319
#     4  11  21  36  54  76 110 143 174 219 274 322
#
# _framework density 15.934929
#
# number of rings (size 3 to 8) (size 9 to 14) (size 15 to 20)
#    0.000    1.697    3.636    1.455    5.091    0.242 
#    0.000    1.212    0.000    1.455    0.000    0.000 
#    0.000    0.000    0.000    0.000    0.000    0.000 
#
# Total GULP energy -183739.612949 kJ/mol
# GULP energy per Si atom -5567.867059 kJ/mol
# Density = 1.589866 g / cm^3
# Si number density = 15.934929 Si / 1000 Ang^3
#
#
#
# Elastic Constant Matrix: (Units=GPa)
#
#
# Indices 1 2 3 4 5 6 
#
# 1 89.6682 48.6448 36.6321 0.0000 0.0000 0.0000
# 2 48.6448 89.6662 36.6325 0.0000 0.0000 0.0000
# 3 36.6321 36.6325 81.8160 0.0000 0.0000 0.0000
# 4 0.0000 0.0000 0.0000 22.6081 0.0000 0.0000
# 5 0.0000 0.0000 0.0000 0.0000 22.6076 0.0000
# 6 0.0000 0.0000 0.0000 0.0000 0.0000 23.9729
#
#
#
# Elastic Compliance Matrix: (Units=1/GPa)
#
#
# Indices 1 2 3 4 5 6 
#
# 1 0.016927 -0.007450 -0.004243 0.000000 0.000000 0.000000
# 2 -0.007450 0.016928 -0.004244 0.000000 0.000000 0.000000
# 3 -0.004243 -0.004244 0.016023 0.000000 0.000000 0.000000
# 4 0.000000 0.000000 0.000000 0.044232 0.000000 0.000000
# 5 0.000000 0.000000 0.000000 0.000000 0.044233 0.000000
# 6 0.000000 0.000000 0.000000 0.000000 0.000000 0.041714
#
#
# Mechanical properties :
#
#
# Convention : Reuss Voigt Hill
#
# Bulk Modulus (GPa) = 55.54352 56.10770 55.82561
# Shear Modulus (GPa) = 22.94306 23.12046 23.03176
#
# Velocity S-wave (km/s) = 3.79858 3.81324 3.80592
# Velocity P-wave (km/s) = 7.36010 7.39423 7.37719
#
# Compressibility (1/GPa) = 0.01800390
#
# Stress axis : x y z
#
# Youngs Moduli (GPa) = 59.07669 59.07479 62.41162
#
# Poissons Ratio (x) = 0.44008 0.26484
# Poissons Ratio (y) = 0.44009 0.26486
# Poissons Ratio (z) = 0.25069 0.25070
#
# Static dielectric constant tensor:
#      x y z
#    x 1.565020 0.000000 0.000000 
#    y 0.000000 1.565020 0.000000 
#    z 0.000000 0.000000 1.628340 
# 
# From -- ./inp_files/2667.got.cif
#   From: 2010.05.17/outbox.cif.g08.bks.cpg/sg115_2_cif.got.tgz:2667.got - 2010.05.20 11:07:42.
