data_PCOD9556200
_publ_section_title
;
Structure prediction by ZEFSAII (Michael W. Deem and Ramdas Pophale) SiO2 
 PCOD9556200
Probable space group: P -4 21 C
;
_chemical_formula_sum "Si O2"
_cell_formula_units_Z 56
_cell_length_a 11.390744
_cell_length_b 11.390744
_cell_length_c 20.664846
_cell_angle_alpha 90.000000
_cell_angle_beta 90.000000
_cell_angle_gamma 90.000000
_cell_volume 2681.244114
_symmetry_space_group_name_H-M "P -4 21 C"
_symmetry_group_IT_number 114
_symmetry_cell_setting 'tetragonal'
loop_
_space_group_symop_operation_xyz
x,y,z
y,-x,-z
-x,-y,z
-y,x,-z
1/2+x,1/2-y,1/2-z
1/2-x,1/2+y,1/2-z
1/2-y,1/2-x,1/2+z
1/2+y,1/2+x,1/2+z
loop_
_atom_site_type_symbol
_atom_site_label
_atom_site_fract_x
_atom_site_fract_y
_atom_site_fract_z
Si Si1 0.442702 0.376259 0.417376
Si Si2 0.608295 0.213064 0.061024
Si Si3 0.035869 0.789721 0.225281
Si Si4 0.768324 0.834529 0.559297
Si Si5 0.507579 0.777012 0.541681
Si Si6 0.703983 0.699131 0.799202
Si Si7 0.618681 0.545465 0.159751
O O1 0.500000 0.500000 0.433366
O O2 0.480309 0.336833 0.346887
O O3 0.473328 0.278928 0.470660
O O4 0.309185 0.418568 0.420876
O O5 0.474624 0.255816 0.056325
O O6 0.610197 0.075218 0.042303
O O7 0.656937 0.240003 0.132670
O O8 0.685533 0.281384 0.007722
O O9 0.164006 0.723806 0.220188
O O10 0.068017 0.885530 0.278999
O O11 0.904282 0.751427 0.249632
O O12 0.636458 0.787291 0.572110
O O13 0.865078 0.810877 0.614426
O O14 0.565186 0.688282 0.813412
O O15 0.500000 0.500000 0.123750
#
# Coordination Sequence:
#
# PCOD9556200 Si02
#       7
#     8   8   8   8   8   8   8
#     4  12  21  42  69  97 136 191 229 286 351 428
#     4  12  24  43  68 102 144 180 232 297 351 422
#     4  11  24  43  72  99 140 184 232 295 345 425
#     4  12  24  40  73 103 133 188 229 293 355 414
#     4  12  23  42  65 105 140 174 241 290 354 419
#     4  11  23  47  67 105 140 183 242 287 355 428
#     4  10  22  44  67 101 132 183 245 274 341 450
#
# _framework density 20.885825000000001
#
# number of rings (size 3 to 8) (size 9 to 14) (size 15 to 20)
#    0.000    0.571    7.143    2.571    0.000    3.429 
#    0.000    0.714    0.000    0.000    0.000    0.000 
#    0.000    0.000    0.000    0.000    0.000    0.000 
#
# Total GULP energy -312084.308699 kJ/mol
# GULP energy per Si atom -5572.934084 kJ/mol
# Density = 2.083829 g / cm^3
# Si number density = 20.885825 Si / 1000 Ang^3
#
#
#
# Elastic Constant Matrix: (Units=GPa)
#
#
# Indices 1 2 3 4 5 6 
#
# 1 77.0772 2.8625 -0.5017 0.0000 0.0000 0.0000
# 2 2.8625 77.0772 -0.5017 0.0000 0.0000 0.0000
# 3 -0.5017 -0.5017 52.1128 0.0000 0.0000 0.0000
# 4 0.0000 0.0000 0.0000 24.2531 0.0000 0.0000
# 5 0.0000 0.0000 0.0000 0.0000 24.2531 0.0000
# 6 0.0000 0.0000 0.0000 0.0000 0.0000 -395.5904
#
#
#
# Elastic Compliance Matrix: (Units=1/GPa)
#
#
# Indices 1 2 3 4 5 6 
#
# 1 0.012993 -0.000482 0.000120 0.000000 0.000000 0.000000
# 2 -0.000482 0.012993 0.000120 0.000000 0.000000 0.000000
# 3 0.000120 0.000120 0.019191 0.000000 0.000000 0.000000
# 4 0.000000 0.000000 0.000000 0.041232 0.000000 0.000000
# 5 0.000000 0.000000 0.000000 0.000000 0.041232 0.000000
# 6 0.000000 0.000000 0.000000 0.000000 0.000000 -0.002528
#
#
# Mechanical properties :
#
#
# Convention : Reuss Voigt Hill
#
# Bulk Modulus (GPa) = 22.37382 23.33173 22.85278
# Shear Modulus (GPa) = 35.58903 -55.78964 -10.10030
#
# Velocity S-wave (km/s) = 4.13241 -5.17395 -2.20147
# Velocity P-wave (km/s) = 5.78833 4.94951 2.12216
#
# Compressibility (1/GPa) = 0.04469509
#
# Stress axis : x y z
#
# Youngs Moduli (GPa) = 76.96643 76.96643 52.10648
#
# Poissons Ratio (x) = 0.03708 -0.00628
# Poissons Ratio (y) = 0.03708 -0.00628
# Poissons Ratio (z) = -0.00927 -0.00927
#
# Static dielectric constant tensor:
#      x y z
#    x 1.484880 0.000000 0.000000 
#    y 0.000000 1.484880 0.000000 
#    z 0.000000 0.000000 1.919370 
# 
# From -- ./inp_files/3129.got.cif
#   From: 2010.05.17/outbox.cif.g08.bks.cpg/sg114_2_cif.got.tgz:3129.got - 2010.05.20 11:04:54.
