data_PCOD9556410
_publ_section_title
;
Structure prediction by ZEFSAII (Michael W. Deem and Ramdas Pophale) SiO2 
 PCOD9556410
Probable space group: P -4 21 C
;
_chemical_formula_sum "Si O2"
_cell_formula_units_Z 52
_cell_length_a 15.767310
_cell_length_b 15.767310
_cell_length_c 9.820818
_cell_angle_alpha 90.000000
_cell_angle_beta 90.000000
_cell_angle_gamma 90.000000
_cell_volume 2441.534556
_symmetry_space_group_name_H-M "P -4 21 C"
_symmetry_group_IT_number 114
_symmetry_cell_setting 'tetragonal'
loop_
_space_group_symop_operation_xyz
x,y,z
y,-x,-z
-x,-y,z
-y,x,-z
1/2+x,1/2-y,1/2-z
1/2-x,1/2+y,1/2-z
1/2-y,1/2-x,1/2+z
1/2+y,1/2+x,1/2+z
loop_
_atom_site_type_symbol
_atom_site_label
_atom_site_fract_x
_atom_site_fract_y
_atom_site_fract_z
Si Si1 0.613922 0.818263 0.987211
Si Si2 0.000000 0.000000 0.000000
Si Si3 0.687624 0.522451 0.115034
Si Si4 0.335886 0.421525 0.640556
Si Si5 0.000000 0.000000 0.500000
Si Si6 0.574846 0.787886 0.288699
Si Si7 0.168044 0.219575 0.395738
Si Si8 0.353514 0.713304 0.650017
O O1 0.545748 0.760886 0.908736
O O2 0.645574 0.900486 0.906399
O O3 0.691947 0.751934 0.978316
O O4 0.582205 0.830169 0.140484
O O5 0.968369 0.922855 0.096644
O O6 0.589284 0.498599 0.082654
O O7 0.698022 0.562665 0.262623
O O8 0.710604 0.593120 0.001972
O O9 0.264183 0.489302 0.684851
O O10 0.338470 0.356065 0.765967
O O11 0.307257 0.374356 0.504967
O O12 0.647035 0.714998 0.291677
O O13 0.193483 0.312149 0.340223
#
# Coordination Sequence:
#
# PCOD9556410 Si02
#       8
#     8   2   8   8   2   8   8   8
#     4  11  25  41  67  93 134 178 225 267 338 409
#     4  12  28  38  64 114 144 178 204 282 376 398
#     4  12  23  41  66  98 135 170 215 280 332 409
#     4  12  26  42  65  99 144 171 220 286 338 416
#     4  12  24  38  68 106 136 166 208 274 364 406
#     4  11  24  43  63  97 132 180 222 268 336 411
#     4  11  24  43  65  91 133 182 227 266 325 410
#     4  11  25  40  65  94 130 182 224 265 332 403
#
# _framework density 21.298081
#
# number of rings (size 3 to 8) (size 9 to 14) (size 15 to 20)
#    0.000    0.615    6.154    0.923   10.769    1.231 
#    0.000    0.000    0.000    5.538    0.000    0.000 
#    0.000    0.000    0.000    0.000    0.000    0.000 
#
# Total GULP energy -290508.917884 kJ/mol
# GULP energy per Si atom -5586.709959 kJ/mol
# Density = 2.124961 g / cm^3
# Si number density = 21.298081 Si / 1000 Ang^3
#
#
#
# Elastic Constant Matrix: (Units=GPa)
#
#
# Indices 1 2 3 4 5 6 
#
# 1 46.4672 18.0967 5.3987 0.0000 0.0000 0.0000
# 2 18.0967 46.4672 5.3987 0.0000 0.0000 0.0000
# 3 5.3987 5.3987 96.7641 0.0000 0.0000 0.0000
# 4 0.0000 0.0000 0.0000 23.8408 0.0000 0.0000
# 5 0.0000 0.0000 0.0000 0.0000 23.8408 0.0000
# 6 0.0000 0.0000 0.0000 0.0000 0.0000 38.0114
#
#
#
# Elastic Compliance Matrix: (Units=1/GPa)
#
#
# Indices 1 2 3 4 5 6 
#
# 1 0.025441 -0.009807 -0.000872 0.000000 0.000000 0.000000
# 2 -0.009807 0.025441 -0.000872 0.000000 0.000000 0.000000
# 3 -0.000872 -0.000872 0.010432 0.000000 0.000000 0.000000
# 4 0.000000 0.000000 0.000000 0.041945 0.000000 0.000000
# 5 0.000000 0.000000 0.000000 0.000000 0.041945 0.000000
# 6 0.000000 0.000000 0.000000 0.000000 0.000000 0.026308
#
#
# Mechanical properties :
#
#
# Convention : Reuss Voigt Hill
#
# Bulk Modulus (GPa) = 26.17018 27.49853 26.83435
# Shear Modulus (GPa) = 24.11365 27.85890 25.98628
#
# Velocity S-wave (km/s) = 3.36847 3.62062 3.49682
# Velocity P-wave (km/s) = 5.23861 5.51523 5.37870
#
# Compressibility (1/GPa) = 0.03821143
#
# Stress axis : x y z
#
# Youngs Moduli (GPa) = 39.30641 39.30641 95.86127
#
# Poissons Ratio (x) = 0.38547 0.08362
# Poissons Ratio (y) = 0.38547 0.08362
# Poissons Ratio (z) = 0.03429 0.03429
#
# Static dielectric constant tensor:
#      x y z
#    x 1.834450 0.000000 0.000000 
#    y 0.000000 1.834450 0.000000 
#    z 0.000000 0.000000 1.758880 
# 
# From -- ./inp_files/1005.got.cif
#   From: 2010.05.17/outbox.cif.g08.bks.cpg/sg114_1_cif.got.tgz:1005.got - 2010.05.20 11:04:54.
