data_PCOD9556607
_publ_section_title
;
Structure prediction by ZEFSAII (Michael W. Deem and Ramdas Pophale) SiO2 
 PCOD9556607
Probable space group: P -4 M 2
;
_chemical_formula_sum "Si O2"
_cell_formula_units_Z 48
_cell_length_a 8.124208
_cell_length_b 8.124208
_cell_length_c 35.218438
_cell_angle_alpha 90.000000
_cell_angle_beta 90.000000
_cell_angle_gamma 90.000000
_cell_volume 2324.513957
_symmetry_space_group_name_H-M "P -4 M 2"
_symmetry_group_IT_number 115
_symmetry_cell_setting 'tetragonal'
loop_
_space_group_symop_operation_xyz
x,y,z
y,-x,-z
-x,-y,z
-y,x,-z
y,x,-z
-y,-x,-z
-x,y,z
x,-y,z
loop_
_atom_site_type_symbol
_atom_site_label
_atom_site_fract_x
_atom_site_fract_y
_atom_site_fract_z
Si Si1 0.799239 0.192593 0.541130
Si Si2 0.699700 0.500000 0.744016
Si Si3 0.307885 0.810918 0.960524
Si Si4 0.314473 0.198936 0.377312
Si Si5 0.500000 0.199655 0.168647
Si Si6 0.805798 0.188612 0.878906
Si Si7 0.697060 0.177407 0.700181
O O1 0.742357 0.257644 0.500000
O O2 0.744265 0.276674 0.579915
O O3 0.000000 0.202490 0.539962
O O4 0.756604 0.000000 0.543900
O O5 0.500000 0.500000 0.741865
O O6 0.751296 0.500000 0.787585
O O7 0.761520 0.335699 0.722757
O O8 0.500000 0.806106 0.951170
O O9 0.216117 0.754955 0.922622
O O10 0.257107 0.000000 0.967255
O O11 0.279672 0.720329 0.000000
O O12 0.500000 0.247357 0.367223
O O13 0.199075 0.264885 0.344323
O O14 0.302987 0.000000 0.377456
O O15 0.332802 0.261264 0.148062
O O16 0.500000 0.000000 0.165623
O O17 0.000000 0.176306 0.871240
O O18 0.737908 0.000000 0.875353
O O19 0.500000 0.176981 0.704697
O O20 0.761480 0.000000 0.713401
#
# Coordination Sequence:
#
# PCOD9556607 Si02
#       7
#     8   4   8   8   4   8   8
#     4   8  14  26  44  66  96 136 180 223 267 320
#     4  10  22  40  58  82 114 144 178 228 288 344
#     4  10  21  35  53  80 113 149 191 238 284 332
#     4  10  19  31  51  79 109 141 179 227 282 333
#     4  10  22  38  60  86 112 146 188 234 284 342
#     4   9  19  37  58  80 111 151 191 232 282 340
#     4  10  21  38  59  81 108 145 185 225 279 345
#
# _framework density 20.649480000000001
#
# number of rings (size 3 to 8) (size 9 to 14) (size 15 to 20)
#    0.000    2.500    0.833    1.500    1.167    4.000 
#    0.000    0.833    0.000    3.000    0.000    0.000 
#    0.000    0.000    0.000    0.000    0.000    0.000 
#
# Total GULP energy -267714.766877 kJ/mol
# GULP energy per Si atom -5577.390977 kJ/mol
# Density = 2.060248 g / cm^3
# Si number density = 20.649480 Si / 1000 Ang^3
#
#
#
# Elastic Constant Matrix: (Units=GPa)
#
#
# Indices 1 2 3 4 5 6 
#
# 1 54.2430 24.3050 37.9184 0.0000 0.0000 0.0000
# 2 24.3050 54.2429 37.9189 0.0000 0.0000 0.0000
# 3 37.9184 37.9189 125.8553 0.0000 0.0000 0.0000
# 4 0.0000 0.0000 0.0000 31.3492 0.0000 0.0000
# 5 0.0000 0.0000 0.0000 0.0000 31.3492 0.0000
# 6 0.0000 0.0000 0.0000 0.0000 0.0000 8.1412
#
#
#
# Elastic Compliance Matrix: (Units=1/GPa)
#
#
# Indices 1 2 3 4 5 6 
#
# 1 0.025678 -0.007724 -0.005409 0.000000 0.000000 0.000000
# 2 -0.007724 0.025678 -0.005409 0.000000 0.000000 0.000000
# 3 -0.005409 -0.005409 0.011205 0.000000 0.000000 0.000000
# 4 0.000000 0.000000 0.000000 0.031899 0.000000 0.000000
# 5 0.000000 0.000000 0.000000 0.000000 0.031899 0.000000
# 6 0.000000 0.000000 0.000000 0.000000 0.000000 0.122832
#
#
# Mechanical properties :
#
#
# Convention : Reuss Voigt Hill
#
# Bulk Modulus (GPa) = 39.25341 48.29174 43.77258
# Shear Modulus (GPa) = 16.96246 23.11451 20.03848
#
# Velocity S-wave (km/s) = 2.86920 3.34934 3.11852
# Velocity P-wave (km/s) = 5.47970 6.19634 5.84900
#
# Compressibility (1/GPa) = 0.02547549
#
# Stress axis : x y z
#
# Youngs Moduli (GPa) = 38.94396 38.94365 89.24524
#
# Poissons Ratio (x) = 0.30082 0.48274
# Poissons Ratio (y) = 0.30082 0.48275
# Poissons Ratio (z) = 0.21065 0.21066
#
# Static dielectric constant tensor:
#      x y z
#    x 1.750220 0.000000 0.000000 
#    y 0.000000 1.750220 0.000000 
#    z 0.000000 0.000000 1.710640 
# 
# From -- ./inp_files/6165.got.cif
#   From: 2010.05.17/outbox.cif.g08.bks.cpg/sg115_4_cif.got.tgz:6165.got - 2010.05.20 11:07:42.
