data_PCOD9556349
_publ_section_title
;
Structure prediction by ZEFSAII (Michael W. Deem and Ramdas Pophale) SiO2 
 PCOD9556349
Probable space group: P -4 21 C
;
_chemical_formula_sum "Si O2"
_cell_formula_units_Z 56
_cell_length_a 11.907001
_cell_length_b 11.907001
_cell_length_c 21.063659
_cell_angle_alpha 90.000000
_cell_angle_beta 90.000000
_cell_angle_gamma 90.000000
_cell_volume 2986.335490
_symmetry_space_group_name_H-M "P -4 21 C"
_symmetry_group_IT_number 114
_symmetry_cell_setting 'tetragonal'
loop_
_space_group_symop_operation_xyz
x,y,z
y,-x,-z
-x,-y,z
-y,x,-z
1/2+x,1/2-y,1/2-z
1/2-x,1/2+y,1/2-z
1/2-y,1/2-x,1/2+z
1/2+y,1/2+x,1/2+z
loop_
_atom_site_type_symbol
_atom_site_label
_atom_site_fract_x
_atom_site_fract_y
_atom_site_fract_z
Si Si1 0.871385 0.889476 0.517540
Si Si2 0.867973 0.612376 0.398083
Si Si3 0.699389 0.807886 0.920145
Si Si4 0.844989 0.743943 0.635019
Si Si5 0.039405 0.371278 0.042826
Si Si6 0.536239 0.872030 0.805081
Si Si7 0.386303 0.125984 0.163614
O O1 0.763298 0.848322 0.479623
O O2 0.897315 0.829053 0.583423
O O3 0.977834 0.865030 0.472895
O O4 0.764227 0.697826 0.391773
O O5 0.876992 0.595659 0.473766
O O6 0.846685 0.488132 0.370628
O O7 0.987017 0.647534 0.364614
O O8 0.613369 0.826442 0.862045
O O9 0.710676 0.932697 0.949437
O O10 0.833478 0.630412 0.594246
O O11 0.729364 0.803642 0.652112
O O12 0.926859 0.708841 0.692408
O O13 0.000000 0.500000 0.052311
O O14 0.598545 0.881418 0.738130
O O15 0.500000 0.000000 0.817401
#
# Coordination Sequence:
#
# PCOD9556349 Si02
#       7
#     8   8   8   8   8   8   8
#     4  11  21  36  61  99 137 160 209 286 348 379
#     4  11  24  42  69  96 133 174 217 280 330 398
#     4  12  23  39  67  98 132 174 222 273 331 398
#     4  12  23  41  68  97 132 171 222 280 329 403
#     4  12  21  39  67  99 133 170 217 268 344 393
#     4  12  24  45  67  94 131 185 224 266 328 408
#     4  11  26  44  67  95 133 176 231 267 331 403
#
# _framework density 18.752078999999998
#
# number of rings (size 3 to 8) (size 9 to 14) (size 15 to 20)
#    0.000    0.429    8.571    1.714    2.000    0.000 
#    0.000    0.714    0.000    3.429    0.000    0.000 
#    0.000    0.000    0.000    0.000    0.000    0.000 
#
# Total GULP energy -312359.154356 kJ/mol
# GULP energy per Si atom -5577.842042 kJ/mol
# Density = 1.870940 g / cm^3
# Si number density = 18.752079 Si / 1000 Ang^3
#
#
#
# Elastic Constant Matrix: (Units=GPa)
#
#
# Indices 1 2 3 4 5 6 
#
# 1 121.8388 57.2217 31.6428 0.0000 0.0000 0.0000
# 2 57.2217 121.8388 31.6428 0.0000 0.0000 0.0000
# 3 31.6428 31.6428 85.6055 0.0000 0.0000 0.0000
# 4 0.0000 0.0000 0.0000 24.1385 0.0000 0.0000
# 5 0.0000 0.0000 0.0000 0.0000 24.1385 0.0000
# 6 0.0000 0.0000 0.0000 0.0000 0.0000 38.3488
#
#
#
# Elastic Compliance Matrix: (Units=1/GPa)
#
#
# Indices 1 2 3 4 5 6 
#
# 1 0.010950 -0.004526 -0.002375 0.000000 0.000000 0.000000
# 2 -0.004526 0.010950 -0.002375 0.000000 0.000000 0.000000
# 3 -0.002375 -0.002375 0.013437 0.000000 0.000000 0.000000
# 4 0.000000 0.000000 0.000000 0.041428 0.000000 0.000000
# 5 0.000000 0.000000 0.000000 0.000000 0.041428 0.000000
# 6 0.000000 0.000000 0.000000 0.000000 0.000000 0.026076
#
#
# Mechanical properties :
#
#
# Convention : Reuss Voigt Hill
#
# Bulk Modulus (GPa) = 59.57088 63.36639 61.46864
# Shear Modulus (GPa) = 29.68879 31.24355 30.46617
#
# Velocity S-wave (km/s) = 3.98329 4.08626 4.03511
# Velocity P-wave (km/s) = 7.27957 7.49189 7.38649
#
# Compressibility (1/GPa) = 0.01678672
#
# Stress axis : x y z
#
# Youngs Moduli (GPa) = 91.32545 91.32545 74.42193
#
# Poissons Ratio (x) = 0.41333 0.17672
# Poissons Ratio (y) = 0.41333 0.17672
# Poissons Ratio (z) = 0.21685 0.21685
#
# Static dielectric constant tensor:
#      x y z
#    x 1.669560 0.000000 0.000000 
#    y 0.000000 1.669560 0.000000 
#    z 0.000000 0.000000 1.693270 
# 
# From -- ./inp_files/3125.got.cif
#   From: 2010.05.17/outbox.cif.g08.bks.cpg/sg114_2_cif.got.tgz:3125.got - 2010.05.20 11:04:54.
