data_PCOD9556188
_publ_section_title
;
Structure prediction by ZEFSAII (Michael W. Deem and Ramdas Pophale) SiO2 
 PCOD9556188
Probable space group: P -4 21 C
;
_chemical_formula_sum "Si O2"
_cell_formula_units_Z 48
_cell_length_a 9.096659
_cell_length_b 9.096659
_cell_length_c 20.548945
_cell_angle_alpha 90.000000
_cell_angle_beta 90.000000
_cell_angle_gamma 90.000000
_cell_volume 1700.408862
_symmetry_space_group_name_H-M "P -4 21 C"
_symmetry_group_IT_number 114
_symmetry_cell_setting 'tetragonal'
loop_
_space_group_symop_operation_xyz
x,y,z
y,-x,-z
-x,-y,z
-y,x,-z
1/2+x,1/2-y,1/2-z
1/2-x,1/2+y,1/2-z
1/2-y,1/2-x,1/2+z
1/2+y,1/2+x,1/2+z
loop_
_atom_site_type_symbol
_atom_site_label
_atom_site_fract_x
_atom_site_fract_y
_atom_site_fract_z
Si Si1 0.585271 0.688692 0.540000
Si Si2 0.215224 0.201551 0.777893
Si Si3 0.838464 0.487801 0.823446
Si Si4 0.000000 0.000000 0.672365
Si Si5 0.335264 0.039947 0.357917
Si Si6 0.500000 0.500000 0.337807
Si Si7 0.765645 0.953478 0.497617
O O1 0.681505 0.570204 0.498498
O O2 0.562459 0.622249 0.612346
O O3 0.658402 0.848353 0.538709
O O4 0.162674 0.366515 0.777503
O O5 0.285365 0.175661 0.849830
O O6 0.106673 0.065620 0.783254
O O7 0.328009 0.157572 0.721529
O O8 0.673995 0.497272 0.853469
O O9 0.000000 0.500000 0.855631
O O10 0.004270 0.185061 0.679054
O O11 0.316986 0.996914 0.432303
O O12 0.500000 0.000000 0.336521
O O13 0.899988 0.845376 0.478480
#
# Coordination Sequence:
#
# PCOD9556188 Si02
#       7
#     8   8   8   4   8   4   8
#     4   9  20  41  68  99 139 181 236 295 359 445
#     4  11  26  45  72 107 144 191 248 303 385 452
#     4  11  27  47  73 111 147 196 248 308 388 450
#     4  10  25  50  77 109 162 193 249 328 361 456
#     4  11  25  46  75 108 144 200 250 300 383 452
#     4  10  22  42  72 105 138 185 246 304 364 448
#     4  11  25  43  66 104 143 188 241 299 374 435
#
# _framework density 28.228507
#
# number of rings (size 3 to 8) (size 9 to 14) (size 15 to 20)
#    0.000    1.667    0.000    4.000   14.000    0.000 
#    6.000    0.000    0.000    0.000    0.000    0.000 
#    0.000    0.000    0.000    0.000    0.000    0.000 
#
# Total GULP energy -267471.558806 kJ/mol
# GULP energy per Si atom -5572.324142 kJ/mol
# Density = 2.816426 g / cm^3
# Si number density = 28.228507 Si / 1000 Ang^3
#
#
#
# Elastic Constant Matrix: (Units=GPa)
#
#
# Indices 1 2 3 4 5 6 
#
# 1 153.2521 40.9087 15.1338 0.0000 0.0000 0.0000
# 2 40.9087 153.2521 15.1338 0.0000 0.0000 0.0000
# 3 15.1338 15.1338 77.3517 0.0000 0.0000 0.0000
# 4 0.0000 0.0000 0.0000 37.3588 0.0000 0.0000
# 5 0.0000 0.0000 0.0000 0.0000 37.3588 0.0000
# 6 0.0000 0.0000 0.0000 0.0000 0.0000 50.2347
#
#
#
# Elastic Compliance Matrix: (Units=1/GPa)
#
#
# Indices 1 2 3 4 5 6 
#
# 1 0.007107 -0.001794 -0.001039 0.000000 0.000000 0.000000
# 2 -0.001794 0.007107 -0.001039 0.000000 0.000000 0.000000
# 3 -0.001039 -0.001039 0.013335 0.000000 0.000000 0.000000
# 4 0.000000 0.000000 0.000000 0.026767 0.000000 0.000000
# 5 0.000000 0.000000 0.000000 0.000000 0.026767 0.000000
# 6 0.000000 0.000000 0.000000 0.000000 0.000000 0.019907
#
#
# Mechanical properties :
#
#
# Convention : Reuss Voigt Hill
#
# Bulk Modulus (GPa) = 50.49995 58.46760 54.48378
# Shear Modulus (GPa) = 43.35128 45.83576 44.59352
#
# Velocity S-wave (km/s) = 3.92309 4.03394 3.97890
# Velocity P-wave (km/s) = 6.20075 6.51568 6.36017
#
# Compressibility (1/GPa) = 0.01980200
#
# Stress axis : x y z
#
# Youngs Moduli (GPa) = 140.70951 140.70951 74.99247
#
# Poissons Ratio (x) = 0.25250 0.07794
# Poissons Ratio (y) = 0.25250 0.07794
# Poissons Ratio (z) = 0.14625 0.14625
#
# Static dielectric constant tensor:
#      x y z
#    x 1.900400 0.000000 0.000000 
#    y 0.000000 1.900400 0.000000 
#    z 0.000000 0.000000 2.351880 
# 
# From -- ./inp_files/4027.got.cif
#   From: 2010.05.17/outbox.cif.g08.bks.cpg/sg114_3_cif.got.tgz:4027.got - 2010.05.20 11:04:54.
