data_PCOD9556452
_publ_section_title
;
Structure prediction by ZEFSAII (Michael W. Deem and Ramdas Pophale) SiO2 
 PCOD9556452
Probable space group: P -4 21 C
;
_chemical_formula_sum "Si O2"
_cell_formula_units_Z 34
_cell_length_a 8.808477
_cell_length_b 8.808477
_cell_length_c 17.561322
_cell_angle_alpha 90.000000
_cell_angle_beta 90.000000
_cell_angle_gamma 90.000000
_cell_volume 1362.570103
_symmetry_space_group_name_H-M "P -4 21 C"
_symmetry_group_IT_number 114
_symmetry_cell_setting 'tetragonal'
loop_
_space_group_symop_operation_xyz
x,y,z
y,-x,-z
-x,-y,z
-y,x,-z
1/2+x,1/2-y,1/2-z
1/2-x,1/2+y,1/2-z
1/2-y,1/2-x,1/2+z
1/2+y,1/2+x,1/2+z
loop_
_atom_site_type_symbol
_atom_site_label
_atom_site_fract_x
_atom_site_fract_y
_atom_site_fract_z
Si Si1 0.500000 0.500000 0.000000
Si Si2 0.877618 0.783508 0.000010
Si Si3 0.474935 0.819470 0.086285
Si Si4 0.842776 0.918960 0.728264
Si Si5 0.846287 0.592553 0.663041
O O1 0.664028 0.471448 0.957668
O O2 0.860247 0.684138 0.076029
O O3 0.805761 0.704550 0.927022
O O4 0.054602 0.806678 0.985105
O O5 0.532790 0.791527 0.170626
O O6 0.500000 0.000000 0.064335
O O7 0.857298 0.740159 0.716643
O O8 0.792176 0.987654 0.808553
O O9 0.000000 0.000000 0.705678
O O10 0.000000 0.500000 0.666707
#
# Coordination Sequence:
#
# PCOD9556452 Si02
#       5
#     2   8   8   8   8
#     4  12  24  44  76 116 148 208 274 332 408 488
#     4  11  27  46  78 115 160 214 266 342 404 490
#     4  12  25  46  76 112 158 206 268 325 412 488
#     4  12  28  48  80 113 157 211 266 341 409 496
#     4  12  28  50  78 117 156 212 271 336 416 493
#
# _framework density 24.952846999999998
#
# number of rings (size 3 to 8) (size 9 to 14) (size 15 to 20)
#    0.000    0.235    1.176    7.059    9.882    0.000 
#    0.000    0.000    0.000    0.000    0.000    0.000 
#    0.000    0.000    0.000    0.000    0.000    0.000 
#
# Total GULP energy -190097.729332 kJ/mol
# GULP energy per Si atom -5591.109686 kJ/mol
# Density = 2.489605 g / cm^3
# Si number density = 24.952847 Si / 1000 Ang^3
#
#
#
# Elastic Constant Matrix: (Units=GPa)
#
#
# Indices 1 2 3 4 5 6 
#
# 1 111.9279 96.4958 28.9208 0.0000 0.0000 0.0000
# 2 96.4958 111.9279 28.9208 0.0000 0.0000 0.0000
# 3 28.9208 28.9208 43.0107 0.0000 0.0000 0.0000
# 4 0.0000 0.0000 0.0000 24.2723 0.0000 0.0000
# 5 0.0000 0.0000 0.0000 0.0000 24.2723 0.0000
# 6 0.0000 0.0000 0.0000 0.0000 0.0000 7.6186
#
#
#
# Elastic Compliance Matrix: (Units=1/GPa)
#
#
# Indices 1 2 3 4 5 6 
#
# 1 0.035349 -0.029451 -0.003966 0.000000 0.000000 0.000000
# 2 -0.029451 0.035349 -0.003966 0.000000 0.000000 0.000000
# 3 -0.003966 -0.003966 0.028584 0.000000 0.000000 0.000000
# 4 0.000000 0.000000 0.000000 0.041199 0.000000 0.000000
# 5 0.000000 0.000000 0.000000 0.000000 0.041199 0.000000
# 6 0.000000 0.000000 0.000000 0.000000 0.000000 0.131257
#
#
# Mechanical properties :
#
#
# Convention : Reuss Voigt Hill
#
# Bulk Modulus (GPa) = 40.78955 63.94904 52.36929
# Shear Modulus (GPa) = 12.63019 18.73457 15.68238
#
# Velocity S-wave (km/s) = 2.25225 2.74304 2.50967
# Velocity P-wave (km/s) = 4.81099 5.97628 5.42502
#
# Compressibility (1/GPa) = 0.02451608
#
# Stress axis : x y z
#
# Youngs Moduli (GPa) = 28.28910 28.28910 34.98460
#
# Poissons Ratio (x) = 0.83313 0.13876
# Poissons Ratio (y) = 0.83313 0.13876
# Poissons Ratio (z) = 0.11220 0.11220
#
# Static dielectric constant tensor:
#      x y z
#    x 1.990750 0.000000 0.000000 
#    y 0.000000 1.990750 0.000000 
#    z 0.000000 0.000000 1.940260 
# 
# From -- ./inp_files/2915.got.cif
#   From: 2010.05.17/outbox.cif.g08.bks.cpg/sg114_2_cif.got.tgz:2915.got - 2010.05.20 11:04:54.
