data_PCOD9556383
_publ_section_title
;
Structure prediction by ZEFSAII (Michael W. Deem and Ramdas Pophale) SiO2 
 PCOD9556383
Probable space group: P -4 21 C
;
_chemical_formula_sum "Si O2"
_cell_formula_units_Z 52
_cell_length_a 16.049757
_cell_length_b 16.049757
_cell_length_c 9.061414
_cell_angle_alpha 90.000000
_cell_angle_beta 90.000000
_cell_angle_gamma 90.000000
_cell_volume 2334.172219
_symmetry_space_group_name_H-M "P -4 21 C"
_symmetry_group_IT_number 114
_symmetry_cell_setting 'tetragonal'
loop_
_space_group_symop_operation_xyz
x,y,z
y,-x,-z
-x,-y,z
-y,x,-z
1/2+x,1/2-y,1/2-z
1/2-x,1/2+y,1/2-z
1/2-y,1/2-x,1/2+z
1/2+y,1/2+x,1/2+z
loop_
_atom_site_type_symbol
_atom_site_label
_atom_site_fract_x
_atom_site_fract_y
_atom_site_fract_z
Si Si1 0.682591 0.255496 0.335093
Si Si2 0.668142 0.070904 0.323924
Si Si3 0.690156 0.557279 0.405968
Si Si4 0.729832 0.819372 0.437876
Si Si5 0.312946 0.012132 0.600845
Si Si6 0.198016 0.077247 0.854662
Si Si7 0.000000 0.500000 0.771974
O O1 0.650055 0.166268 0.282823
O O2 0.621442 0.286801 0.462148
O O3 0.769614 0.238216 0.419283
O O4 0.706053 0.314098 0.198239
O O5 0.733216 0.040496 0.202626
O O6 0.699821 0.064943 0.490664
O O7 0.583447 0.019042 0.317156
O O8 0.674041 0.473877 0.497526
O O9 0.621537 0.610192 0.314756
O O10 0.705750 0.909769 0.493056
O O11 0.647518 0.767570 0.389676
O O12 0.245482 0.021060 0.732684
O O13 0.410434 0.015198 0.648577
#
# Coordination Sequence:
#
# PCOD9556383 Si02
#       7
#     8   8   8   8   8   8   4
#     4  11  22  43  68  97 135 185 237 282 345 442
#     4  12  24  42  64 103 143 187 233 290 368 432
#     4  11  25  43  71  94 136 185 242 301 366 426
#     4  11  22  43  69  98 135 187 240 285 349 443
#     4  12  25  41  68 103 145 186 237 290 365 437
#     4  11  24  45  66  99 131 183 242 300 357 439
#     4  12  26  42  64 110 160 190 222 302 372 448
#
# _framework density 22.277705000000001
#
# number of rings (size 3 to 8) (size 9 to 14) (size 15 to 20)
#    0.000    0.615    4.615    4.154    6.462    0.308 
#    0.000    0.000    0.000    0.000    0.000    0.000 
#    0.000    0.000    0.000    0.000    0.000    0.000 
#
# Total GULP energy -290395.109652 kJ/mol
# GULP energy per Si atom -5584.521339 kJ/mol
# Density = 2.222700 g / cm^3
# Si number density = 22.277705 Si / 1000 Ang^3
#
#
#
# Elastic Constant Matrix: (Units=GPa)
#
#
# Indices 1 2 3 4 5 6 
#
# 1 70.5345 33.2637 35.5108 0.0000 0.0000 0.0000
# 2 33.2637 70.5345 35.5108 0.0000 0.0000 0.0000
# 3 35.5108 35.5108 120.1820 0.0000 0.0000 0.0000
# 4 0.0000 0.0000 0.0000 36.7165 0.0000 0.0000
# 5 0.0000 0.0000 0.0000 0.0000 36.7165 0.0000
# 6 0.0000 0.0000 0.0000 0.0000 0.0000 36.5845
#
#
#
# Elastic Compliance Matrix: (Units=1/GPa)
#
#
# Indices 1 2 3 4 5 6 
#
# 1 0.019453 -0.007378 -0.003568 0.000000 0.000000 0.000000
# 2 -0.007378 0.019453 -0.003568 0.000000 0.000000 0.000000
# 3 -0.003568 -0.003568 0.010429 0.000000 0.000000 0.000000
# 4 0.000000 0.000000 0.000000 0.027236 0.000000 0.000000
# 5 0.000000 0.000000 0.000000 0.000000 0.027236 0.000000
# 6 0.000000 0.000000 0.000000 0.000000 0.000000 0.027334
#
#
# Mechanical properties :
#
#
# Convention : Reuss Voigt Hill
#
# Bulk Modulus (GPa) = 49.24149 52.20239 50.72194
# Shear Modulus (GPa) = 29.95140 32.46789 31.20965
#
# Velocity S-wave (km/s) = 3.67066 3.82175 3.74697
# Velocity P-wave (km/s) = 6.33376 6.55422 6.44493
#
# Compressibility (1/GPa) = 0.02030808
#
# Stress axis : x y z
#
# Youngs Moduli (GPa) = 51.40593 51.40593 95.88450
#
# Poissons Ratio (x) = 0.37925 0.34211
# Poissons Ratio (y) = 0.37925 0.34211
# Poissons Ratio (z) = 0.18342 0.18342
#
# Static dielectric constant tensor:
#      x y z
#    x 1.871330 0.000000 0.000000 
#    y 0.000000 1.871330 0.000000 
#    z 0.000000 0.000000 1.831470 
# 
# From -- ./inp_files/966.got.cif
#   From: 2010.05.17/outbox.cif.g08.bks.cpg/sg114_1_cif.got.tgz:966.got - 2010.05.20 11:04:54.
