data_PCOD9556359
_publ_section_title
;
Structure prediction by ZEFSAII (Michael W. Deem and Ramdas Pophale) SiO2 
 PCOD9556359
Probable space group: P -4 21 C
;
_chemical_formula_sum "Si O2"
_cell_formula_units_Z 48
_cell_length_a 8.907428
_cell_length_b 8.907428
_cell_length_c 26.994603
_cell_angle_alpha 90.000000
_cell_angle_beta 90.000000
_cell_angle_gamma 90.000000
_cell_volume 2141.813176
_symmetry_space_group_name_H-M "P -4 21 C"
_symmetry_group_IT_number 114
_symmetry_cell_setting 'tetragonal'
loop_
_space_group_symop_operation_xyz
x,y,z
y,-x,-z
-x,-y,z
-y,x,-z
1/2+x,1/2-y,1/2-z
1/2-x,1/2+y,1/2-z
1/2-y,1/2-x,1/2+z
1/2+y,1/2+x,1/2+z
loop_
_atom_site_type_symbol
_atom_site_label
_atom_site_fract_x
_atom_site_fract_y
_atom_site_fract_z
Si Si1 0.466187 0.161533 0.706444
Si Si2 0.270902 0.169752 0.802678
Si Si3 0.967689 0.177499 0.620562
Si Si4 0.688410 0.418081 0.471541
Si Si5 0.226265 0.089008 0.487016
Si Si6 0.773002 0.133290 0.866009
O O1 0.373170 0.126877 0.756109
O O2 0.616771 0.256603 0.716035
O O3 0.369051 0.263965 0.670556
O O4 0.500000 0.000000 0.682724
O O5 0.360607 0.295884 0.833115
O O6 0.246532 0.027790 0.839252
O O7 0.888330 0.239674 0.571326
O O8 0.115457 0.279863 0.627076
O O9 0.000000 0.000000 0.613673
O O10 0.590402 0.337796 0.515110
O O11 0.857014 0.366284 0.481263
O O12 0.630838 0.359028 0.418802
O O13 0.083782 0.182980 0.506175
#
# Coordination Sequence:
#
# PCOD9556359 Si02
#       6
#     8   8   8   8   8   8
#     4  12  27  48  72 106 140 185 244 304 370 448
#     4  12  27  46  77 101 146 186 240 305 379 444
#     4  12  23  42  72 102 144 189 243 297 364 436
#     4  11  26  43  68  99 146 186 244 288 362 430
#     4  11  21  43  65  99 139 186 235 292 347 421
#     4  12  26  48  70 109 145 196 245 305 376 449
#
# _framework density 22.410917999999999
#
# number of rings (size 3 to 8) (size 9 to 14) (size 15 to 20)
#    0.000    0.333    3.333    6.000    7.000    2.000 
#    0.000    0.000    0.000    0.000    0.000    0.000 
#    0.000    0.000    0.000    0.000    0.000    0.000 
#
# Total GULP energy -268657.097582 kJ/mol
# GULP energy per Si atom -5597.022866 kJ/mol
# Density = 2.235991 g / cm^3
# Si number density = 22.410918 Si / 1000 Ang^3
#
#
#
# Elastic Constant Matrix: (Units=GPa)
#
#
# Indices 1 2 3 4 5 6 
#
# 1 76.8810 38.4381 30.9624 0.0000 0.0000 0.0000
# 2 38.4381 76.8810 30.9624 0.0000 0.0000 0.0000
# 3 30.9624 30.9624 111.6331 0.0000 0.0000 0.0000
# 4 0.0000 0.0000 0.0000 22.3478 0.0000 0.0000
# 5 0.0000 0.0000 0.0000 0.0000 22.3478 0.0000
# 6 0.0000 0.0000 0.0000 0.0000 0.0000 33.2419
#
#
#
# Elastic Compliance Matrix: (Units=1/GPa)
#
#
# Indices 1 2 3 4 5 6 
#
# 1 0.018101 -0.007912 -0.002826 0.000000 0.000000 0.000000
# 2 -0.007912 0.018101 -0.002826 0.000000 0.000000 0.000000
# 3 -0.002826 -0.002826 0.010526 0.000000 0.000000 0.000000
# 4 0.000000 0.000000 0.000000 0.044747 0.000000 0.000000
# 5 0.000000 0.000000 0.000000 0.000000 0.044747 0.000000
# 6 0.000000 0.000000 0.000000 0.000000 0.000000 0.030083
#
#
# Mechanical properties :
#
#
# Convention : Reuss Voigt Hill
#
# Bulk Modulus (GPa) = 51.02127 51.79121 51.40624
# Shear Modulus (GPa) = 25.00438 26.58965 25.79701
#
# Velocity S-wave (km/s) = 3.34387 3.44824 3.39645
# Velocity P-wave (km/s) = 6.14201 6.24610 6.19427
#
# Compressibility (1/GPa) = 0.01959967
#
# Stress axis : x y z
#
# Youngs Moduli (GPa) = 55.24595 55.24595 95.00668
#
# Poissons Ratio (x) = 0.43709 0.26849
# Poissons Ratio (y) = 0.43709 0.26849
# Poissons Ratio (z) = 0.15613 0.15613
#
# Static dielectric constant tensor:
#      x y z
#    x 1.849330 0.000000 0.000000 
#    y 0.000000 1.849330 0.000000 
#    z 0.000000 0.000000 1.833060 
# 
# From -- ./inp_files/3957.got.cif
#   From: 2010.05.17/outbox.cif.g08.bks.cpg/sg114_2_cif.got.tgz:3957.got - 2010.05.20 11:04:54.
