data_PCOD9556299
_publ_section_title
;
Structure prediction by ZEFSAII (Michael W. Deem and Ramdas Pophale) SiO2 
 PCOD9556299
Probable space group: P -4 21 C
;
_chemical_formula_sum "Si O2"
_cell_formula_units_Z 40
_cell_length_a 11.312472
_cell_length_b 11.312472
_cell_length_c 13.356315
_cell_angle_alpha 90.000000
_cell_angle_beta 90.000000
_cell_angle_gamma 90.000000
_cell_volume 1709.234647
_symmetry_space_group_name_H-M "P -4 21 C"
_symmetry_group_IT_number 114
_symmetry_cell_setting 'tetragonal'
loop_
_space_group_symop_operation_xyz
x,y,z
y,-x,-z
-x,-y,z
-y,x,-z
1/2+x,1/2-y,1/2-z
1/2-x,1/2+y,1/2-z
1/2-y,1/2-x,1/2+z
1/2+y,1/2+x,1/2+z
loop_
_atom_site_type_symbol
_atom_site_label
_atom_site_fract_x
_atom_site_fract_y
_atom_site_fract_z
Si Si1 0.630679 0.853676 0.113233
Si Si2 0.000000 0.000000 0.275673
Si Si3 0.863968 0.731738 0.079122
Si Si4 0.777215 0.080042 0.147709
Si Si5 0.588694 0.271651 0.206064
Si Si6 0.000000 0.500000 0.553974
O O1 0.723466 0.751731 0.084312
O O2 0.522796 0.808224 0.178499
O O3 0.697120 0.963525 0.165676
O O4 0.575185 0.910735 0.014316
O O5 0.896266 0.061112 0.209306
O O6 0.065030 0.100764 0.340979
O O7 0.907847 0.799762 0.176310
O O8 0.915029 0.600424 0.099502
O O9 0.909293 0.784116 0.973721
O O10 0.705344 0.197873 0.178954
#
# Coordination Sequence:
#
# PCOD9556299 Si02
#       6
#     8   4   8   8   8   4
#     4  11  22  49  72 107 145 186 251 307 362 448
#     4  12  28  43  76 109 144 204 246 303 378 435
#     4  11  25  45  77 105 146 199 241 309 385 433
#     4  11  26  50  71 109 147 191 254 306 362 461
#     4  12  25  48  71 108 150 186 247 310 367 447
#     4  10  24  46  74 104 142 198 242 300 374 446
#
# _framework density 23.402284999999999
#
# number of rings (size 3 to 8) (size 9 to 14) (size 15 to 20)
#    0.000    0.800    6.000    1.200    8.400    0.800 
#    7.200    0.000    0.000    1.200    0.000    0.000 
#    0.000    0.000    0.000    0.000    0.000    0.000 
#
# Total GULP energy -223373.860251 kJ/mol
# GULP energy per Si atom -5584.346506 kJ/mol
# Density = 2.334902 g / cm^3
# Si number density = 23.402285 Si / 1000 Ang^3
#
#
#
# Elastic Constant Matrix: (Units=GPa)
#
#
# Indices 1 2 3 4 5 6 
#
# 1 126.1116 57.4094 4.3942 0.0000 0.0000 0.0000
# 2 57.4094 126.1116 4.3942 0.0000 0.0000 0.0000
# 3 4.3942 4.3942 35.0275 0.0000 0.0000 0.0000
# 4 0.0000 0.0000 0.0000 7.0591 0.0000 0.0000
# 5 0.0000 0.0000 0.0000 0.0000 7.0591 0.0000
# 6 0.0000 0.0000 0.0000 0.0000 0.0000 73.9854
#
#
#
# Elastic Compliance Matrix: (Units=1/GPa)
#
#
# Indices 1 2 3 4 5 6 
#
# 1 0.010019 -0.004537 -0.000688 0.000000 0.000000 0.000000
# 2 -0.004537 0.010019 -0.000688 0.000000 0.000000 0.000000
# 3 -0.000688 -0.000688 0.028722 0.000000 0.000000 0.000000
# 4 0.000000 0.000000 0.000000 0.141661 0.000000 0.000000
# 5 0.000000 0.000000 0.000000 0.000000 0.141661 0.000000
# 6 0.000000 0.000000 0.000000 0.000000 0.000000 0.013516
#
#
# Mechanical properties :
#
#
# Convention : Reuss Voigt Hill
#
# Bulk Modulus (GPa) = 27.07497 46.62740 36.85119
# Shear Modulus (GPa) = 13.52325 32.35758 22.94041
#
# Velocity S-wave (km/s) = 2.40648 3.72246 3.13431
# Velocity P-wave (km/s) = 4.39500 6.20025 5.37397
#
# Compressibility (1/GPa) = 0.03693448
#
# Stress axis : x y z
#
# Youngs Moduli (GPa) = 99.81294 99.81294 34.81710
#
# Poissons Ratio (x) = 0.45284 0.02394
# Poissons Ratio (y) = 0.45284 0.02394
# Poissons Ratio (z) = 0.06864 0.06864
#
# Static dielectric constant tensor:
#      x y z
#    x 2.023650 0.000000 0.000000 
#    y 0.000000 2.023650 0.000000 
#    z 0.000000 0.000000 1.881440 
# 
# From -- ./inp_files/2187.got.cif
#   From: 2010.05.17/outbox.cif.g08.bks.cpg/sg114_2_cif.got.tgz:2187.got - 2010.05.20 11:04:54.
