data_PCOD9556970
_publ_section_title
;
Structure prediction by ZEFSAII (Michael W. Deem and Ramdas Pophale) SiO2 
 PCOD9556970
Probable space group: P -4 M 2
;
_chemical_formula_sum "Si O2"
_cell_formula_units_Z 40
_cell_length_a 9.247482
_cell_length_b 9.247482
_cell_length_c 26.554799
_cell_angle_alpha 90.000000
_cell_angle_beta 90.000000
_cell_angle_gamma 90.000000
_cell_volume 2270.858156
_symmetry_space_group_name_H-M "P -4 M 2"
_symmetry_group_IT_number 115
_symmetry_cell_setting 'tetragonal'
loop_
_space_group_symop_operation_xyz
x,y,z
y,-x,-z
-x,-y,z
-y,x,-z
y,x,-z
-y,-x,-z
-x,y,z
x,-y,z
loop_
_atom_site_type_symbol
_atom_site_label
_atom_site_fract_x
_atom_site_fract_y
_atom_site_fract_z
Si Si1 0.326488 0.831281 0.044992
Si Si2 0.173378 0.327725 0.841193
Si Si3 0.329163 0.173649 0.343199
Si Si4 0.672001 0.828298 0.749326
Si Si5 0.166725 0.175895 0.444522
O O1 0.500000 0.821249 0.042461
O O2 0.285019 0.784810 0.101704
O O3 0.287186 0.000000 0.039832
O O4 0.256931 0.743070 0.000000
O O5 0.199642 0.500000 0.835201
O O6 0.257728 0.239754 0.799220
O O7 0.000000 0.306777 0.836133
O O8 0.500000 0.201831 0.341015
O O9 0.247321 0.254572 0.298589
O O10 0.263486 0.217985 0.397205
O O11 0.307945 0.000000 0.337775
O O12 0.500000 0.803518 0.749009
O O13 0.698358 0.000000 0.747678
O O14 0.220673 0.220673 0.500000
O O15 0.000000 0.223022 0.437286
O O16 0.164819 0.000000 0.446319
#
# Coordination Sequence:
#
# PCOD9556970 Si02
#       5
#     8   8   8   8   8
#     4   9  19  35  54  78 108 139 172 211 253 300
#     4   9  19  37  58  78 102 135 174 213 255 305
#     4  10  20  34  54  79 105 136 174 212 253 305
#     4  11  24  38  52  75 105 135 170 214 263 310
#     4   8  14  27  49  75 102 134 172 212 252 295
#
# _framework density 17.614484999999998
#
# number of rings (size 3 to 8) (size 9 to 14) (size 15 to 20)
#    0.000    2.600    0.000    3.600    0.000    7.600 
#    0.000    7.000    0.000    3.600    0.000    0.000 
#    0.000    0.000    0.000    0.000    0.000    0.000 
#
# Total GULP energy -223138.615543 kJ/mol
# GULP energy per Si atom -5578.465389 kJ/mol
# Density = 1.757439 g / cm^3
# Si number density = 17.614485 Si / 1000 Ang^3
#
#
#
# Elastic Constant Matrix: (Units=GPa)
#
#
# Indices 1 2 3 4 5 6 
#
# 1 65.3705 57.8526 85.6375 0.0000 0.0000 0.0000
# 2 57.8526 65.3732 85.6399 0.0000 0.0000 0.0000
# 3 85.6375 85.6399 205.8069 0.0000 0.0000 0.0000
# 4 0.0000 0.0000 0.0000 147.0351 0.0000 0.0000
# 5 0.0000 0.0000 0.0000 0.0000 147.0206 0.0000
# 6 0.0000 0.0000 0.0000 0.0000 0.0000 26.0672
#
#
#
# Elastic Compliance Matrix: (Units=1/GPa)
#
#
# Indices 1 2 3 4 5 6 
#
# 1 0.076121 -0.056872 -0.008009 0.000000 0.000000 0.000000
# 2 -0.056872 0.076119 -0.008010 0.000000 0.000000 0.000000
# 3 -0.008009 -0.008010 0.011524 0.000000 0.000000 0.000000
# 4 0.000000 0.000000 0.000000 0.006801 0.000000 0.000000
# 5 0.000000 0.000000 0.000000 0.000000 0.006802 0.000000
# 6 0.000000 0.000000 0.000000 0.000000 0.000000 0.038362
#
#
# Mechanical properties :
#
#
# Convention : Reuss Voigt Hill
#
# Bulk Modulus (GPa) = 55.60788 88.31228 71.96008
# Shear Modulus (GPa) = 13.60528 71.18596 42.39562
#
# Velocity S-wave (km/s) = 2.78221 6.36404 4.91130
# Velocity P-wave (km/s) = 6.47757 10.21011 8.55001
#
# Compressibility (1/GPa) = 0.01798306
#
# Stress axis : x y z
#
# Youngs Moduli (GPa) = 13.13705 13.13735 86.77241
#
# Poissons Ratio (x) = 0.74715 0.69495
# Poissons Ratio (y) = 0.74713 0.69502
# Poissons Ratio (z) = 0.10521 0.10523
#
# Static dielectric constant tensor:
#      x y z
#    x 1.582590 0.000000 0.000000 
#    y 0.000000 1.582590 0.000000 
#    z 0.000000 0.000000 1.596240 
# 
# From -- ./inp_files/5080.got.cif
#   From: 2010.05.17/outbox.cif.g08.bks.cpg/sg115_3_cif.got.tgz:5080.got - 2010.05.20 11:07:42.
