data_PCOD9556539
_publ_section_title
;
Structure prediction by ZEFSAII (Michael W. Deem and Ramdas Pophale) SiO2 
 PCOD9556539
Probable space group: P -4 M 2
;
_chemical_formula_sum "Si O2"
_cell_formula_units_Z 64
_cell_length_a 14.466692
_cell_length_b 14.466692
_cell_length_c 19.390362
_cell_angle_alpha 90.000000
_cell_angle_beta 90.000000
_cell_angle_gamma 90.000000
_cell_volume 4058.115351
_symmetry_space_group_name_H-M "P -4 M 2"
_symmetry_group_IT_number 115
_symmetry_cell_setting 'tetragonal'
loop_
_space_group_symop_operation_xyz
x,y,z
y,-x,-z
-x,-y,z
-y,x,-z
y,x,-z
-y,-x,-z
-x,y,z
x,-y,z
loop_
_atom_site_type_symbol
_atom_site_label
_atom_site_fract_x
_atom_site_fract_y
_atom_site_fract_z
Si Si1 0.895210 0.388500 0.445877
Si Si2 0.612349 0.106097 0.280145
Si Si3 0.611491 0.217248 0.418005
Si Si4 0.608264 0.285467 0.629712
Si Si5 0.222928 0.611304 0.853526
Si Si6 0.612087 0.103089 0.859688
Si Si7 0.391505 0.709425 0.791556
Si Si8 0.387604 0.106093 0.017117
O O1 0.902411 0.500000 0.450051
O O2 0.843155 0.358942 0.516019
O O3 0.822521 0.370074 0.384776
O O4 0.000000 0.352792 0.438962
O O5 0.500000 0.104301 0.279567
O O6 0.638682 0.162528 0.348419
O O7 0.641348 0.158525 0.210712
O O8 0.643906 0.000000 0.282169
O O9 0.500000 0.224823 0.419714
O O10 0.655054 0.318826 0.413356
O O11 0.500000 0.300302 0.610705
O O12 0.618956 0.308992 0.710289
O O13 0.223112 0.500000 0.854482
O O14 0.325070 0.646287 0.836917
O O15 0.177873 0.644243 0.925105
O O16 0.500000 0.099467 0.860375
O O17 0.636568 0.185206 0.808615
O O18 0.644736 0.000000 0.841478
O O19 0.641289 0.125006 0.938383
O O20 0.500000 0.697889 0.808701
O O21 0.500000 0.108344 0.017458
O O22 0.361770 0.000000 0.034460
#
# Coordination Sequence:
#
# PCOD9556539 Si02
#       8
#     8   8   8   8   8   8   8   8
#     4   9  18  32  49  67  87 113 148 194 243 278
#     4   9  16  26  42  64  89 118 152 190 235 278
#     4  10  18  30  47  68  94 124 155 189 227 269
#     4  10  20  32  45  65  95 130 162 190 217 261
#     4  10  18  28  42  63  93 127 158 190 227 266
#     4   8  15  29  47  64  82 110 151 199 245 279
#     4  10  20  31  43  62  92 129 166 192 215 259
#     4   8  14  26  45  66  86 111 148 195 244 283
#
# _framework density 15.770867000000001
#
# number of rings (size 3 to 8) (size 9 to 14) (size 15 to 20)
#    0.000    2.750    1.250    1.875    0.000    4.500 
#    0.000    3.750    0.000    2.250    0.000    3.500 
#    0.000   11.500    0.000    5.500    0.000    0.500 
#
# Total GULP energy -356290.718442 kJ/mol
# GULP energy per Si atom -5567.042476 kJ/mol
# Density = 1.573497 g / cm^3
# Si number density = 15.770867 Si / 1000 Ang^3
#
#
#
# Elastic Constant Matrix: (Units=GPa)
#
#
# Indices 1 2 3 4 5 6 
#
# 1 41.8042 11.9424 0.0030 0.0000 0.0000 0.0000
# 2 11.9424 41.8042 0.0030 0.0000 0.0000 0.0000
# 3 0.0030 0.0030 10.8740 0.0000 0.0000 0.0000
# 4 0.0000 0.0000 0.0000 19.8436 0.0000 0.0000
# 5 0.0000 0.0000 0.0000 0.0000 19.8436 0.0000
# 6 0.0000 0.0000 0.0000 0.0000 0.0000 -2.2650
#
#
#
# Elastic Compliance Matrix: (Units=1/GPa)
#
#
# Indices 1 2 3 4 5 6 
#
# 1 0.026047 -0.007441 -0.000005 0.000000 0.000000 0.000000
# 2 -0.007441 0.026047 -0.000005 0.000000 0.000000 0.000000
# 3 -0.000005 -0.000005 0.091962 0.000000 0.000000 0.000000
# 4 0.000000 0.000000 0.000000 0.050394 0.000000 0.000000
# 5 0.000000 0.000000 0.000000 0.000000 0.050394 0.000000
# 6 0.000000 0.000000 0.000000 0.000000 0.000000 -0.441492
#
#
# Mechanical properties :
#
#
# Convention : Reuss Voigt Hill
#
# Bulk Modulus (GPa) = 7.74274 13.15327 10.44800
# Shear Modulus (GPa) = -36.05042 12.98668 -11.53187
#
# Velocity S-wave (km/s) = -4.78628 2.87271 -2.70703
# Velocity P-wave (km/s) = 5.06206 4.40019 1.76958
#
# Compressibility (1/GPa) = 0.12915320
#
# Stress axis : x y z
#
# Youngs Moduli (GPa) = 38.39251 38.39251 10.87401
#
# Poissons Ratio (x) = 0.28568 0.00006
# Poissons Ratio (y) = 0.28568 0.00006
# Poissons Ratio (z) = 0.00020 0.00020
#
# Static dielectric constant tensor:
#      x y z
#    x 1.525290 0.000000 0.000000 
#    y 0.000000 1.525290 0.000000 
#    z 0.000000 0.000000 1.547250 
# 
# From -- ./inp_files/4444.got.cif
#   From: 2010.05.17/outbox.cif.g08.bks.cpg/sg115_3_cif.got.tgz:4444.got - 2010.05.20 11:07:42.
