data_PCOD9556829
_publ_section_title
;
Structure prediction by ZEFSAII (Michael W. Deem and Ramdas Pophale) SiO2 
 PCOD9556829
Probable space group: P -4 M 2
;
_chemical_formula_sum "Si O2"
_cell_formula_units_Z 40
_cell_length_a 9.259629
_cell_length_b 9.259629
_cell_length_c 26.543798
_cell_angle_alpha 90.000000
_cell_angle_beta 90.000000
_cell_angle_gamma 90.000000
_cell_volume 2275.884597
_symmetry_space_group_name_H-M "P -4 M 2"
_symmetry_group_IT_number 115
_symmetry_cell_setting 'tetragonal'
loop_
_space_group_symop_operation_xyz
x,y,z
y,-x,-z
-x,-y,z
-y,x,-z
y,x,-z
-y,-x,-z
-x,y,z
x,-y,z
loop_
_atom_site_type_symbol
_atom_site_label
_atom_site_fract_x
_atom_site_fract_y
_atom_site_fract_z
Si Si1 0.331307 0.326570 0.149468
Si Si2 0.327510 0.828834 0.954050
Si Si3 0.833575 0.824413 0.353774
Si Si4 0.827667 0.827551 0.759224
Si Si5 0.173425 0.330105 0.545881
O O1 0.500000 0.288247 0.145375
O O2 0.320561 0.500000 0.154516
O O3 0.247314 0.285919 0.098411
O O4 0.258880 0.252808 0.197543
O O5 0.500000 0.806497 0.961251
O O6 0.301141 0.000000 0.951235
O O7 0.242489 0.757511 0.000000
O O8 0.786893 0.779704 0.297618
O O9 0.736371 0.778706 0.400545
O O10 0.000000 0.779568 0.361692
O O11 0.833038 0.000000 0.352910
O O12 0.000000 0.803348 0.763025
O O13 0.803641 0.000000 0.764586
O O14 0.249368 0.249368 0.500000
O O15 0.203225 0.500000 0.544243
O O16 0.000000 0.309512 0.541947
#
# Coordination Sequence:
#
# PCOD9556829 Si02
#       5
#     8   8   8   8   8
#     4  10  21  36  54  77 106 141 178 212 250 301
#     4  10  21  37  57  79 103 134 172 213 258 306
#     4   8  15  30  52  76 101 131 169 212 256 302
#     4   9  18  33  54  80 107 134 168 212 259 305
#     4  10  20  33  51  75 101 131 169 211 256 307
#
# _framework density 17.575585
#
# number of rings (size 3 to 8) (size 9 to 14) (size 15 to 20)
#    0.000    2.600    0.000    3.000    0.000    5.600 
#    0.000    3.000    0.000    1.200    0.000    0.000 
#    0.000    0.000    0.000    0.000    0.000    0.000 
#
# Total GULP energy -223141.736118 kJ/mol
# GULP energy per Si atom -5578.543403 kJ/mol
# Density = 1.753558 g / cm^3
# Si number density = 17.575585 Si / 1000 Ang^3
#
#
#
# Elastic Constant Matrix: (Units=GPa)
#
#
# Indices 1 2 3 4 5 6 
#
# 1 59.8896 58.0290 87.8588 0.0000 0.0000 0.0000
# 2 58.0290 59.8896 87.8588 0.0000 0.0000 0.0000
# 3 87.8588 87.8588 208.9790 0.0000 0.0000 0.0000
# 4 0.0000 0.0000 0.0000 -282.8088 0.0000 0.0000
# 5 0.0000 0.0000 0.0000 0.0000 -282.8088 0.0000
# 6 0.0000 0.0000 0.0000 0.0000 0.0000 25.6529
#
#
#
# Elastic Compliance Matrix: (Units=1/GPa)
#
#
# Indices 1 2 3 4 5 6 
#
# 1 0.280075 -0.257370 -0.009546 0.000000 0.000000 0.000000
# 2 -0.257370 0.280075 -0.009546 0.000000 0.000000 0.000000
# 3 -0.009546 -0.009546 0.012811 0.000000 0.000000 0.000000
# 4 0.000000 0.000000 0.000000 -0.003536 0.000000 0.000000
# 5 0.000000 0.000000 0.000000 0.000000 -0.003536 0.000000
# 6 0.000000 0.000000 0.000000 0.000000 0.000000 0.038982
#
#
# Mechanical properties :
#
#
# Convention : Reuss Voigt Hill
#
# Bulk Modulus (GPa) = 49.90296 88.47241 69.18769
# Shear Modulus (GPa) = 4.29378 -101.65884 -48.68253
#
# Velocity S-wave (km/s) = 1.56472 -7.61357 -5.26869
# Velocity P-wave (km/s) = 5.63200 5.18084 1.56178
#
# Compressibility (1/GPa) = 0.02003889
#
# Stress axis : x y z
#
# Youngs Moduli (GPa) = 3.57047 3.57047 78.05525
#
# Poissons Ratio (x) = 0.91893 0.74508
# Poissons Ratio (y) = 0.91893 0.74508
# Poissons Ratio (z) = 0.03408 0.03408
#
# Static dielectric constant tensor:
#      x y z
#    x 1.584160 0.000000 0.000000 
#    y 0.000000 1.584160 0.000000 
#    z 0.000000 0.000000 1.581050 
# 
# From -- ./inp_files/5064.got.cif
#   From: 2010.05.17/outbox.cif.g08.bks.cpg/sg115_3_cif.got.tgz:5064.got - 2010.05.20 11:07:42.
