data_PCOD9556331
_publ_section_title
;
Structure prediction by ZEFSAII (Michael W. Deem and Ramdas Pophale) SiO2 
 PCOD9556331
Probable space group: P -4 21 C
;
_chemical_formula_sum "Si O2"
_cell_formula_units_Z 40
_cell_length_a 8.368979
_cell_length_b 8.368979
_cell_length_c 24.073345
_cell_angle_alpha 90.000000
_cell_angle_beta 90.000000
_cell_angle_gamma 90.000000
_cell_volume 1686.092498
_symmetry_space_group_name_H-M "P -4 21 C"
_symmetry_group_IT_number 114
_symmetry_cell_setting 'tetragonal'
loop_
_space_group_symop_operation_xyz
x,y,z
y,-x,-z
-x,-y,z
-y,x,-z
1/2+x,1/2-y,1/2-z
1/2-x,1/2+y,1/2-z
1/2-y,1/2-x,1/2+z
1/2+y,1/2+x,1/2+z
loop_
_atom_site_type_symbol
_atom_site_label
_atom_site_fract_x
_atom_site_fract_y
_atom_site_fract_z
Si Si1 0.743333 0.124422 0.700968
Si Si2 0.664436 0.093447 0.502284
Si Si3 0.676789 0.563180 0.581027
Si Si4 0.117574 0.734392 0.811681
Si Si5 0.234647 0.135504 0.408125
O O1 0.816034 0.161047 0.760885
O O2 0.576308 0.221206 0.690582
O O3 0.873316 0.176451 0.654707
O O4 0.691288 0.941367 0.695263
O O5 0.639068 0.268436 0.476821
O O6 0.742554 0.114398 0.561627
O O7 0.500000 0.000000 0.508720
O O8 0.760991 0.007706 0.452518
O O9 0.500000 0.500000 0.577518
O O10 0.676041 0.688805 0.630979
O O11 0.795749 0.415365 0.593200
#
# Coordination Sequence:
#
# PCOD9556331 Si02
#       5
#     8   8   8   8   8
#     4  11  26  46  73 102 146 186 238 301 358 434
#     4  10  27  44  70 107 144 188 243 294 362 435
#     4  11  24  44  74  99 137 186 239 293 361 432
#     4  11  26  46  73 107 139 187 240 295 366 433
#     4  11  25  46  70 101 148 186 235 297 358 431
#
# _framework density 23.723490000000002
#
# number of rings (size 3 to 8) (size 9 to 14) (size 15 to 20)
#    0.000    1.200    2.000    1.200   14.000    0.400 
#    0.000    0.000    0.000    0.000    0.000    0.000 
#    0.000    0.000    0.000    0.000    0.000    0.000 
#
# Total GULP energy -224124.945900 kJ/mol
# GULP energy per Si atom -5603.123647 kJ/mol
# Density = 2.366949 g / cm^3
# Si number density = 23.723490 Si / 1000 Ang^3
#
#
#
# Elastic Constant Matrix: (Units=GPa)
#
#
# Indices 1 2 3 4 5 6 
#
# 1 57.3614 20.0779 12.2227 0.0000 0.0000 0.0000
# 2 20.0779 57.3614 12.2227 0.0000 0.0000 0.0000
# 3 12.2227 12.2227 64.2556 0.0000 0.0000 0.0000
# 4 0.0000 0.0000 0.0000 27.1843 0.0000 0.0000
# 5 0.0000 0.0000 0.0000 0.0000 27.1843 0.0000
# 6 0.0000 0.0000 0.0000 0.0000 0.0000 30.8650
#
#
#
# Elastic Compliance Matrix: (Units=1/GPa)
#
#
# Indices 1 2 3 4 5 6 
#
# 1 0.020280 -0.006542 -0.002613 0.000000 0.000000 0.000000
# 2 -0.006542 0.020280 -0.002613 0.000000 0.000000 0.000000
# 3 -0.002613 -0.002613 0.016557 0.000000 0.000000 0.000000
# 4 0.000000 0.000000 0.000000 0.036786 0.000000 0.000000
# 5 0.000000 0.000000 0.000000 0.000000 0.036786 0.000000
# 6 0.000000 0.000000 0.000000 0.000000 0.000000 0.032399
#
#
# Mechanical properties :
#
#
# Convention : Reuss Voigt Hill
#
# Bulk Modulus (GPa) = 29.77924 29.78055 29.77989
# Shear Modulus (GPa) = 25.27579 26.01039 25.64309
#
# Velocity S-wave (km/s) = 3.26764 3.31478 3.29129
# Velocity P-wave (km/s) = 5.17847 5.21832 5.19843
#
# Compressibility (1/GPa) = 0.03358044
#
# Stress axis : x y z
#
# Youngs Moduli (GPa) = 49.30994 49.30994 60.39723
#
# Poissons Ratio (x) = 0.32257 0.15784
# Poissons Ratio (y) = 0.32257 0.15784
# Poissons Ratio (z) = 0.12886 0.12886
#
# Static dielectric constant tensor:
#      x y z
#    x 1.936030 0.000000 0.000000 
#    y 0.000000 1.936030 0.000000 
#    z 0.000000 0.000000 1.803060 
# 
# From -- ./inp_files/3334.got.cif
#   From: 2010.05.17/outbox.cif.g08.bks.cpg/sg114_2_cif.got.tgz:3334.got - 2010.05.20 11:04:54.
