data_PCOD9556693
_publ_section_title
;
Structure prediction by ZEFSAII (Michael W. Deem and Ramdas Pophale) SiO2 
 PCOD9556693
Probable space group: P -4 M 2
;
_chemical_formula_sum "Si O2"
_cell_formula_units_Z 52
_cell_length_a 21.863018
_cell_length_b 21.863018
_cell_length_c 5.455253
_cell_angle_alpha 90.000000
_cell_angle_beta 90.000000
_cell_angle_gamma 90.000000
_cell_volume 2607.564870
_symmetry_space_group_name_H-M "P -4 M 2"
_symmetry_group_IT_number 115
_symmetry_cell_setting 'tetragonal'
loop_
_space_group_symop_operation_xyz
x,y,z
y,-x,-z
-x,-y,z
-y,x,-z
y,x,-z
-y,-x,-z
-x,y,z
x,-y,z
loop_
_atom_site_type_symbol
_atom_site_label
_atom_site_fract_x
_atom_site_fract_y
_atom_site_fract_z
Si Si1 0.655698 0.224633 0.334990
Si Si2 0.432851 0.276849 0.723476
Si Si3 0.927708 0.875332 0.742852
Si Si4 0.881765 0.739669 0.665649
Si Si5 0.656205 0.343796 0.000000
Si Si6 0.568098 0.152163 0.023614
Si Si7 0.674952 0.072226 0.833107
O O1 0.624952 0.256499 0.564215
O O2 0.719215 0.189069 0.350097
O O3 0.658829 0.280604 0.149409
O O4 0.607729 0.170835 0.260332
O O5 0.500000 0.285264 0.604484
O O6 0.407518 0.337007 0.856521
O O7 0.439208 0.218122 0.897647
O O8 0.916219 0.916219 0.500000
O O9 0.894494 0.811251 0.683962
O O10 0.000000 0.864461 0.771124
O O11 0.902726 0.902726 0.000000
O O12 0.910827 0.710740 0.417382
O O13 0.908669 0.712171 0.920901
O O14 0.500000 0.127697 0.072626
O O15 0.610940 0.108794 0.859846
O O16 0.664591 0.000000 0.836952
#
# Coordination Sequence:
#
# PCOD9556693 Si02
#       7
#     8   8   8   8   4   8   8
#     4  10  20  36  60  87 123 164 208 262 322 378
#     4  10  19  36  58  84 121 162 204 254 311 376
#     4  12  27  46  70  96 124 163 211 266 330 401
#     4  11  24  42  65  92 126 164 208 263 325 395
#     4  10  22  34  56  93 124 154 207 264 314 378
#     4   9  19  34  53  83 118 162 213 256 307 369
#     4  11  21  38  61  87 125 170 211 263 317 377
#
# _framework density 19.941979
#
# number of rings (size 3 to 8) (size 9 to 14) (size 15 to 20)
#    0.000    1.538    1.538    3.692    1.077    3.077 
#    0.000    0.000    0.000    2.077    0.000    0.000 
#    0.000    0.000    0.000    0.000    0.000    0.000 
#
# Total GULP energy -289746.250766 kJ/mol
# GULP energy per Si atom -5572.043284 kJ/mol
# Density = 1.989659 g / cm^3
# Si number density = 19.941979 Si / 1000 Ang^3
#
#
#
# Elastic Constant Matrix: (Units=GPa)
#
#
# Indices 1 2 3 4 5 6 
#
# 1 86.2808 2.6566 22.2997 0.0000 0.0000 0.0000
# 2 2.6566 86.2879 22.2949 0.0000 0.0000 0.0000
# 3 22.2997 22.2949 94.8145 0.0000 0.0000 0.0000
# 4 0.0000 0.0000 0.0000 19.0430 0.0000 0.0000
# 5 0.0000 0.0000 0.0000 0.0000 19.0426 0.0000
# 6 0.0000 0.0000 0.0000 0.0000 0.0000 3.5842
#
#
#
# Elastic Compliance Matrix: (Units=1/GPa)
#
#
# Indices 1 2 3 4 5 6 
#
# 1 0.012353 0.000394 -0.002998 0.000000 0.000000 0.000000
# 2 0.000394 0.012351 -0.002997 0.000000 0.000000 0.000000
# 3 -0.002998 -0.002997 0.011957 0.000000 0.000000 0.000000
# 4 0.000000 0.000000 0.000000 0.052513 0.000000 0.000000
# 5 0.000000 0.000000 0.000000 0.000000 0.052514 0.000000
# 6 0.000000 0.000000 0.000000 0.000000 0.000000 0.279004
#
#
# Mechanical properties :
#
#
# Convention : Reuss Voigt Hill
#
# Bulk Modulus (GPa) = 39.27831 40.20953 39.74392
# Shear Modulus (GPa) = 11.35386 23.00943 17.18164
#
# Velocity S-wave (km/s) = 2.38868 3.40048 2.93846
# Velocity P-wave (km/s) = 5.22942 5.96864 5.61122
#
# Compressibility (1/GPa) = 0.02545935
#
# Stress axis : x y z
#
# Youngs Moduli (GPa) = 80.95352 80.96281 83.63474
#
# Poissons Ratio (x) = -0.03192 0.25074
# Poissons Ratio (y) = -0.03192 0.25066
# Poissons Ratio (z) = 0.24270 0.24265
#
# Static dielectric constant tensor:
#      x y z
#    x 1.702830 0.000000 0.000000 
#    y 0.000000 1.702840 0.000000 
#    z 0.000000 0.000000 1.284040 
# 
# From -- ./inp_files/688.got.cif
#   From: 2010.05.17/outbox.cif.g08.bks.cpg/sg115_1_cif.got.tgz:688.got - 2010.05.20 11:07:42.
