data_PCOD9556025
_publ_section_title
;
Structure prediction by ZEFSAII (Michael W. Deem and Ramdas Pophale) SiO2 
 PCOD9556025
Probable space group: P -4 21 C
;
_chemical_formula_sum "Si O2"
_cell_formula_units_Z 52
_cell_length_a 15.720472
_cell_length_b 15.720472
_cell_length_c 9.673562
_cell_angle_alpha 90.000000
_cell_angle_beta 90.000000
_cell_angle_gamma 90.000000
_cell_volume 2390.658718
_symmetry_space_group_name_H-M "P -4 21 C"
_symmetry_group_IT_number 114
_symmetry_cell_setting 'tetragonal'
loop_
_space_group_symop_operation_xyz
x,y,z
y,-x,-z
-x,-y,z
-y,x,-z
1/2+x,1/2-y,1/2-z
1/2-x,1/2+y,1/2-z
1/2-y,1/2-x,1/2+z
1/2+y,1/2+x,1/2+z
loop_
_atom_site_type_symbol
_atom_site_label
_atom_site_fract_x
_atom_site_fract_y
_atom_site_fract_z
Si Si1 0.368076 0.247604 0.524505
Si Si2 0.000000 0.500000 0.995424
Si Si3 0.550809 0.108987 0.254839
Si Si4 0.767460 0.161746 0.759489
Si Si5 0.843239 0.166408 0.236451
Si Si6 0.012060 0.268628 0.752160
Si Si7 0.112511 0.779118 0.526778
O O1 0.313570 0.323815 0.595111
O O2 0.396904 0.286040 0.379924
O O3 0.438045 0.223536 0.635650
O O4 0.305649 0.168796 0.497560
O O5 0.996626 0.578619 0.104834
O O6 0.921648 0.504806 0.886174
O O7 0.581866 0.205433 0.255061
O O8 0.640884 0.058461 0.255333
O O9 0.716142 0.251750 0.744841
O O10 0.834314 0.163635 0.635207
O O11 0.890527 0.174421 0.381306
O O12 0.809759 0.072345 0.207199
O O13 0.972940 0.247256 0.603121
#
# Coordination Sequence:
#
# PCOD9556025 Si02
#       7
#     8   4   8   8   8   8   8
#     4   9  18  35  55  85 107 138 192 244 272 325
#     4  10  24  38  48  78 132 158 188 206 268 350
#     4  10  22  37  53  79 119 165 181 221 274 337
#     4   8  17  32  57  74 105 145 186 228 269 320
#     4   9  18  33  55  79 106 139 176 231 291 332
#     4  10  21  34  57  81 112 141 190 233 288 324
#     4   9  18  35  55  85 107 138 192 244 272 325
#
# _framework density 21.751325999999999
#
# number of rings (size 3 to 8) (size 9 to 14) (size 15 to 20)
#    0.000    2.769    0.000    0.923   12.923    0.000 
#    0.000    3.077    0.000    2.769    0.000    0.000 
#    0.000    0.000    0.000    0.000    0.000    0.000 
#
# Total GULP energy -290426.134454 kJ/mol
# GULP energy per Si atom -5585.117970 kJ/mol
# Density = 2.170182 g / cm^3
# Si number density = 21.751326 Si / 1000 Ang^3
#
#
#
# Elastic Constant Matrix: (Units=GPa)
#
#
# Indices 1 2 3 4 5 6 
#
# 1 37.5463 18.6346 5.4698 0.0000 0.0000 0.0000
# 2 18.6346 37.5463 5.4698 0.0000 0.0000 0.0000
# 3 5.4698 5.4698 90.5639 0.0000 0.0000 0.0000
# 4 0.0000 0.0000 0.0000 15.4805 0.0000 0.0000
# 5 0.0000 0.0000 0.0000 0.0000 15.4805 0.0000
# 6 0.0000 0.0000 0.0000 0.0000 0.0000 33.7400
#
#
#
# Elastic Compliance Matrix: (Units=1/GPa)
#
#
# Indices 1 2 3 4 5 6 
#
# 1 0.035444 -0.017433 -0.001088 0.000000 0.000000 0.000000
# 2 -0.017433 0.035444 -0.001088 0.000000 0.000000 0.000000
# 3 -0.001088 -0.001088 0.011173 0.000000 0.000000 0.000000
# 4 0.000000 0.000000 0.000000 0.064598 0.000000 0.000000
# 5 0.000000 0.000000 0.000000 0.000000 0.064598 0.000000
# 6 0.000000 0.000000 0.000000 0.000000 0.000000 0.029638
#
#
# Mechanical properties :
#
#
# Convention : Reuss Voigt Hill
#
# Bulk Modulus (GPa) = 23.34001 24.97833 24.15917
# Shear Modulus (GPa) = 16.98402 22.01236 19.49819
#
# Velocity S-wave (km/s) = 2.79736 3.18465 2.99727
# Velocity P-wave (km/s) = 4.60297 5.00311 4.80721
#
# Compressibility (1/GPa) = 0.04284488
#
# Stress axis : x y z
#
# Youngs Moduli (GPa) = 28.21321 28.21321 89.49884
#
# Poissons Ratio (x) = 0.49184 0.09736
# Poissons Ratio (y) = 0.49184 0.09736
# Poissons Ratio (z) = 0.03069 0.03069
#
# Static dielectric constant tensor:
#      x y z
#    x 1.800670 0.000000 0.000000 
#    y 0.000000 1.800670 0.000000 
#    z 0.000000 0.000000 1.787250 
# 
# From -- ./inp_files/981.got.cif
#   From: 2010.05.17/outbox.cif.g08.bks.cpg/sg114_1_cif.got.tgz:981.got - 2010.05.20 11:04:54.
