data_PCOD9556417
_publ_section_title
;
Structure prediction by ZEFSAII (Michael W. Deem and Ramdas Pophale) SiO2 
 PCOD9556417
Probable space group: P -4 21 C
;
_chemical_formula_sum "Si O2"
_cell_formula_units_Z 34
_cell_length_a 12.899797
_cell_length_b 12.899797
_cell_length_c 9.908582
_cell_angle_alpha 90.000000
_cell_angle_beta 90.000000
_cell_angle_gamma 90.000000
_cell_volume 1648.835236
_symmetry_space_group_name_H-M "P -4 21 C"
_symmetry_group_IT_number 114
_symmetry_cell_setting 'tetragonal'
loop_
_space_group_symop_operation_xyz
x,y,z
y,-x,-z
-x,-y,z
-y,x,-z
1/2+x,1/2-y,1/2-z
1/2-x,1/2+y,1/2-z
1/2-y,1/2-x,1/2+z
1/2+y,1/2+x,1/2+z
loop_
_atom_site_type_symbol
_atom_site_label
_atom_site_fract_x
_atom_site_fract_y
_atom_site_fract_z
Si Si1 0.117073 0.466594 0.632926
Si Si2 0.500000 0.500000 0.500000
Si Si3 0.168258 0.324408 0.388472
Si Si4 0.116485 0.110374 0.529595
Si Si5 0.407160 0.316060 0.332127
O O1 0.119373 0.405926 0.492170
O O2 0.161168 0.388520 0.746256
O O3 0.199817 0.559952 0.628191
O O4 0.000000 0.500000 0.664828
O O5 0.480186 0.399938 0.405657
O O6 0.154470 0.210189 0.450217
O O7 0.290205 0.342218 0.373475
O O8 0.173164 0.089257 0.670297
O O9 0.994086 0.125994 0.557775
#
# Coordination Sequence:
#
# PCOD9556417 Si02
#       5
#     8   2   8   8   8
#     4  12  28  50  72 106 149 196 242 306 372 444
#     4  12  24  48  70 108 144 180 252 306 364 424
#     4  12  26  46  72 108 143 192 248 295 375 436
#     4  11  24  44  71 103 141 189 239 298 364 433
#     4  12  26  45  77 104 144 191 245 310 360 441
#
# _framework density 20.620616999999999
#
# number of rings (size 3 to 8) (size 9 to 14) (size 15 to 20)
#    0.000    0.235    7.059    2.118    3.294    1.882 
#    0.000    0.000    0.000    0.000    0.000    0.000 
#    0.000    0.000    0.000    0.000    0.000    0.000 
#
# Total GULP energy -190244.179194 kJ/mol
# GULP energy per Si atom -5595.417035 kJ/mol
# Density = 2.057368 g / cm^3
# Si number density = 20.620617 Si / 1000 Ang^3
#
#
#
# Elastic Constant Matrix: (Units=GPa)
#
#
# Indices 1 2 3 4 5 6 
#
# 1 71.1838 -0.1657 -6.8434 0.0000 0.0000 0.0000
# 2 -0.1657 71.1838 -6.8434 0.0000 0.0000 0.0000
# 3 -6.8434 -6.8434 40.2202 0.0000 0.0000 0.0000
# 4 0.0000 0.0000 0.0000 30.4266 0.0000 0.0000
# 5 0.0000 0.0000 0.0000 0.0000 30.4266 0.0000
# 6 0.0000 0.0000 0.0000 0.0000 0.0000 32.7268
#
#
#
# Elastic Compliance Matrix: (Units=1/GPa)
#
#
# Indices 1 2 3 4 5 6 
#
# 1 0.014287 0.000271 0.002477 0.000000 0.000000 0.000000
# 2 0.000271 0.014287 0.002477 0.000000 0.000000 0.000000
# 3 0.002477 0.002477 0.025706 0.000000 0.000000 0.000000
# 4 0.000000 0.000000 0.000000 0.032866 0.000000 0.000000
# 5 0.000000 0.000000 0.000000 0.000000 0.032866 0.000000
# 6 0.000000 0.000000 0.000000 0.000000 0.000000 0.030556
#
#
# Mechanical properties :
#
#
# Convention : Reuss Voigt Hill
#
# Bulk Modulus (GPa) = 15.44854 17.20919 16.32887
# Shear Modulus (GPa) = 30.92263 31.81200 31.36732
#
# Velocity S-wave (km/s) = 3.87667 3.93202 3.90444
# Velocity P-wave (km/s) = 5.24844 5.38313 5.31621
#
# Compressibility (1/GPa) = 0.06473103
#
# Stress axis : x y z
#
# Youngs Moduli (GPa) = 69.99410 69.99410 38.90128
#
# Poissons Ratio (x) = -0.01900 -0.09636
# Poissons Ratio (y) = -0.01900 -0.09636
# Poissons Ratio (z) = -0.17338 -0.17338
#
# Static dielectric constant tensor:
#      x y z
#    x 1.726090 0.000000 0.000000 
#    y 0.000000 1.726090 0.000000 
#    z 0.000000 0.000000 1.704560 
# 
# From -- ./inp_files/1400.got.cif
#   From: 2010.05.17/outbox.cif.g08.bks.cpg/sg114_1_cif.got.tgz:1400.got - 2010.05.20 11:04:54.
