data_PCOD9556730
_publ_section_title
;
Structure prediction by ZEFSAII (Michael W. Deem and Ramdas Pophale) SiO2 
 PCOD9556730
Probable space group: P -4 M 2
;
_chemical_formula_sum "Si O2"
_cell_formula_units_Z 48
_cell_length_a 9.360012
_cell_length_b 9.360012
_cell_length_c 32.010479
_cell_angle_alpha 90.000000
_cell_angle_beta 90.000000
_cell_angle_gamma 90.000000
_cell_volume 2804.432452
_symmetry_space_group_name_H-M "P -4 M 2"
_symmetry_group_IT_number 115
_symmetry_cell_setting 'tetragonal'
loop_
_space_group_symop_operation_xyz
x,y,z
y,-x,-z
-x,-y,z
-y,x,-z
y,x,-z
-y,-x,-z
-x,y,z
x,-y,z
loop_
_atom_site_type_symbol
_atom_site_label
_atom_site_fract_x
_atom_site_fract_y
_atom_site_fract_z
Si Si1 0.328035 0.667419 0.212315
Si Si2 0.668718 0.171436 0.537262
Si Si3 0.826396 0.835845 0.380137
Si Si4 0.828025 0.667687 0.963341
Si Si5 0.326174 0.164640 0.129848
Si Si6 0.169336 0.828677 0.286274
O O1 0.500000 0.683124 0.215162
O O2 0.294081 0.500000 0.212869
O O3 0.281337 0.738449 0.168516
O O4 0.255140 0.747544 0.250778
O O5 0.748886 0.251115 0.500000
O O6 0.500000 0.199123 0.536257
O O7 0.735900 0.216908 0.581705
O O8 0.690427 0.000000 0.533081
O O9 0.782483 0.790447 0.333492
O O10 0.000000 0.837145 0.379244
O O11 0.780534 0.000000 0.387371
O O12 0.790529 0.500000 0.967332
O O13 0.786812 0.718121 0.916533
O O14 0.000000 0.678145 0.965512
O O15 0.755525 0.755525 0.000000
O O16 0.500000 0.164148 0.128930
O O17 0.281109 0.000000 0.136326
O O18 0.000000 0.797877 0.282594
O O19 0.186562 0.000000 0.282159
#
# Coordination Sequence:
#
# PCOD9556730 Si02
#       6
#     8   8   8   8   8   8
#     4  10  20  32  48  73 102 130 163 202 243 289
#     4  10  20  33  51  75 100 128 163 200 241 290
#     4   8  15  30  52  75  97 124 162 206 245 283
#     4   9  18  32  50  73  98 124 158 199 242 290
#     4   8  15  30  50  68  90 125 166 203 238 280
#     4   9  18  33  53  76 100 127 162 202 244 292
#
# _framework density 17.115760999999999
#
# number of rings (size 3 to 8) (size 9 to 14) (size 15 to 20)
#    0.000    3.000    0.000    3.000    0.000    4.000 
#    0.000    5.000    0.000    2.000    0.000    0.000 
#    0.000    0.000    0.000    0.000    0.000    0.000 
#
# Total GULP energy -267487.045292 kJ/mol
# GULP energy per Si atom -5572.646777 kJ/mol
# Density = 1.707680 g / cm^3
# Si number density = 17.115761 Si / 1000 Ang^3
#
#
#
# Elastic Constant Matrix: (Units=GPa)
#
#
# Indices 1 2 3 4 5 6 
#
# 1 43.0261 40.8065 73.4479 0.0000 0.0000 0.0000
# 2 40.8065 43.0275 73.4486 0.0000 0.0000 0.0000
# 3 73.4479 73.4486 203.5982 0.0000 0.0000 0.0000
# 4 0.0000 0.0000 0.0000 83.8258 0.0000 0.0000
# 5 0.0000 0.0000 0.0000 0.0000 83.8296 0.0000
# 6 0.0000 0.0000 0.0000 0.0000 0.0000 23.4309
#
#
#
# Elastic Compliance Matrix: (Units=1/GPa)
#
#
# Indices 1 2 3 4 5 6 
#
# 1 0.241417 -0.208985 -0.011699 0.000000 0.000000 0.000000
# 2 -0.208985 0.241403 -0.011696 0.000000 0.000000 0.000000
# 3 -0.011699 -0.011696 0.013351 0.000000 0.000000 0.000000
# 4 0.000000 0.000000 0.000000 0.011930 0.000000 0.000000
# 5 0.000000 0.000000 0.000000 0.000000 0.011929 0.000000
# 6 0.000000 0.000000 0.000000 0.000000 0.000000 0.042679
#
#
# Mechanical properties :
#
#
# Convention : Reuss Voigt Hill
#
# Bulk Modulus (GPa) = 31.83489 73.89531 52.86510
# Shear Modulus (GPa) = 4.81725 45.01384 24.91554
#
# Velocity S-wave (km/s) = 1.67947 5.13388 3.81951
# Velocity P-wave (km/s) = 4.73296 8.85494 7.09968
#
# Compressibility (1/GPa) = 0.03141208
#
# Stress axis : x y z
#
# Youngs Moduli (GPa) = 4.14222 4.14245 74.89874
#
# Poissons Ratio (x) = 0.86571 0.87626
# Poissons Ratio (y) = 0.86566 0.87599
# Poissons Ratio (z) = 0.04846 0.04845
#
# Static dielectric constant tensor:
#      x y z
#    x 1.566270 0.000000 0.000000 
#    y 0.000000 1.566270 0.000000 
#    z 0.000000 0.000000 1.579520 
# 
# From -- ./inp_files/6127.got.cif
#   From: 2010.05.17/outbox.cif.g08.bks.cpg/sg115_4_cif.got.tgz:6127.got - 2010.05.20 11:07:42.
