data_PCOD9556554
_publ_section_title
;
Structure prediction by ZEFSAII (Michael W. Deem and Ramdas Pophale) SiO2 
 PCOD9556554
Probable space group: P -4 M 2
;
_chemical_formula_sum "Si O2"
_cell_formula_units_Z 40
_cell_length_a 15.533998
_cell_length_b 15.533998
_cell_length_c 10.373703
_cell_angle_alpha 90.000000
_cell_angle_beta 90.000000
_cell_angle_gamma 90.000000
_cell_volume 2503.227376
_symmetry_space_group_name_H-M "P -4 M 2"
_symmetry_group_IT_number 115
_symmetry_cell_setting 'tetragonal'
loop_
_space_group_symop_operation_xyz
x,y,z
y,-x,-z
-x,-y,z
-y,x,-z
y,x,-z
-y,-x,-z
-x,y,z
x,-y,z
loop_
_atom_site_type_symbol
_atom_site_label
_atom_site_fract_x
_atom_site_fract_y
_atom_site_fract_z
Si Si1 0.685519 0.821275 0.514669
Si Si2 0.000000 0.395766 0.579720
Si Si3 0.813894 0.395673 0.954789
Si Si4 0.755002 0.399728 0.237905
Si Si5 0.000000 0.398085 0.889917
Si Si6 0.296062 0.601445 0.701922
O O1 0.782997 0.782997 0.500000
O O2 0.656452 0.809634 0.662100
O O3 0.630458 0.755688 0.424658
O O4 0.655003 0.915511 0.469720
O O5 0.000000 0.392396 0.735206
O O6 0.000000 0.500000 0.546115
O O7 0.817265 0.500000 0.952316
O O8 0.770736 0.372999 0.090164
O O9 0.762388 0.373422 0.825576
O O10 0.911160 0.361702 0.944631
O O11 0.777012 0.500000 0.251238
O O12 0.656899 0.381692 0.279360
O O13 0.000000 0.500000 0.921460
O O14 0.310081 0.500000 0.701153
#
# Coordination Sequence:
#
# PCOD9556554 Si02
#       6
#     8   4   8   8   4   8
#     4  10  21  34  50  75 103 129 162 214 265 305
#     4  11  18  31  57  78  96 133 178 209 248 322
#     4   9  17  29  44  65  90 118 158 209 254 292
#     4  10  20  31  43  66 100 131 162 208 262 298
#     4   9  16  27  49  73  90 117 166 212 250 300
#     4  10  18  31  48  64  91 133 176 208 238 294
#
# _framework density 15.979372
#
# number of rings (size 3 to 8) (size 9 to 14) (size 15 to 20)
#    0.000    2.200    2.000    2.400    0.000    1.200 
#    0.000    2.000    0.000    7.500    0.000    0.000 
#    0.000    0.000    0.000    0.100    0.000    0.000 
#
# Total GULP energy -222695.096044 kJ/mol
# GULP energy per Si atom -5567.377401 kJ/mol
# Density = 1.594300 g / cm^3
# Si number density = 15.979372 Si / 1000 Ang^3
#
#
#
# Elastic Constant Matrix: (Units=GPa)
#
#
# Indices 1 2 3 4 5 6 
#
# 1 61.5013 18.2916 1.8352 0.0000 0.0000 0.0000
# 2 18.2916 61.5013 1.8352 0.0000 0.0000 0.0000
# 3 1.8352 1.8352 63.1915 0.0000 0.0000 0.0000
# 4 0.0000 0.0000 0.0000 21.2782 0.0000 0.0000
# 5 0.0000 0.0000 0.0000 0.0000 21.2782 0.0000
# 6 0.0000 0.0000 0.0000 0.0000 0.0000 15.2543
#
#
#
# Elastic Compliance Matrix: (Units=1/GPa)
#
#
# Indices 1 2 3 4 5 6 
#
# 1 0.017846 -0.005297 -0.000364 0.000000 0.000000 0.000000
# 2 -0.005297 0.017846 -0.000364 0.000000 0.000000 0.000000
# 3 -0.000364 -0.000364 0.015846 0.000000 0.000000 0.000000
# 4 0.000000 0.000000 0.000000 0.046996 0.000000 0.000000
# 5 0.000000 0.000000 0.000000 0.000000 0.046996 0.000000
# 6 0.000000 0.000000 0.000000 0.000000 0.000000 0.065555
#
#
# Mechanical properties :
#
#
# Convention : Reuss Voigt Hill
#
# Bulk Modulus (GPa) = 25.32501 25.56870 25.44685
# Shear Modulus (GPa) = 21.15952 22.51094 21.83523
#
# Velocity S-wave (km/s) = 3.64287 3.75740 3.70058
# Velocity P-wave (km/s) = 5.79457 5.90423 5.84965
#
# Compressibility (1/GPa) = 0.03948666
#
# Stress axis : x y z
#
# Youngs Moduli (GPa) = 56.03476 56.03476 63.10704
#
# Poissons Ratio (x) = 0.29681 0.02300
# Poissons Ratio (y) = 0.29681 0.02300
# Poissons Ratio (z) = 0.02042 0.02042
#
# Static dielectric constant tensor:
#      x y z
#    x 1.544780 0.000000 0.000000 
#    y 0.000000 1.544780 0.000000 
#    z 0.000000 0.000000 1.538020 
# 
# From -- ./inp_files/1679.got.cif
#   From: 2010.05.17/outbox.cif.g08.bks.cpg/sg115_1_cif.got.tgz:1679.got - 2010.05.20 11:07:42.
