data_PCOD9556757
_publ_section_title
;
Structure prediction by ZEFSAII (Michael W. Deem and Ramdas Pophale) SiO2 
 PCOD9556757
Probable space group: P -4 M 2
;
_chemical_formula_sum "Si O2"
_cell_formula_units_Z 44
_cell_length_a 9.401495
_cell_length_b 9.401495
_cell_length_c 29.070019
_cell_angle_alpha 90.000000
_cell_angle_beta 90.000000
_cell_angle_gamma 90.000000
_cell_volume 2569.443986
_symmetry_space_group_name_H-M "P -4 M 2"
_symmetry_group_IT_number 115
_symmetry_cell_setting 'tetragonal'
loop_
_space_group_symop_operation_xyz
x,y,z
y,-x,-z
-x,-y,z
-y,x,-z
y,x,-z
-y,-x,-z
-x,y,z
x,-y,z
loop_
_atom_site_type_symbol
_atom_site_label
_atom_site_fract_x
_atom_site_fract_y
_atom_site_fract_z
Si Si1 0.167140 0.670949 0.275291
Si Si2 0.829864 0.330981 0.644128
Si Si3 0.168141 0.669856 0.539929
Si Si4 0.830610 0.830610 0.000000
Si Si5 0.672732 0.337378 0.814597
Si Si6 0.669300 0.670493 0.919031
O O1 0.185926 0.500000 0.279028
O O2 0.245146 0.746879 0.317351
O O3 0.236793 0.717787 0.226914
O O4 0.000000 0.701482 0.275691
O O5 0.802854 0.500000 0.649124
O O6 0.788627 0.288725 0.591956
O O7 0.000000 0.310295 0.648449
O O8 0.252419 0.747581 0.500000
O O9 0.187223 0.500000 0.536335
O O10 0.000000 0.699156 0.535465
O O11 0.758669 0.757475 0.955784
O O12 0.000000 0.805728 0.000298
O O13 0.500000 0.338688 0.814925
O O14 0.719462 0.500000 0.806184
O O15 0.713267 0.295271 0.866453
O O16 0.500000 0.699453 0.924286
O O17 0.687333 0.500000 0.925334
#
# Coordination Sequence:
#
# PCOD9556757 Si02
#       6
#     8   8   8   4   8   8
#     4  10  20  32  49  77 108 134 164 204 249 297
#     4   9  19  36  54  71  96 133 173 208 245 293
#     4   9  19  35  53  74 100 129 164 207 251 297
#     4  11  24  37  48  70 106 141 170 203 246 296
#     4   8  15  30  52  76 101 129 163 205 250 295
#     4   9  18  34  57  81 100 124 166 213 251 295
#
# _framework density 17.124328999999999
#
# number of rings (size 3 to 8) (size 9 to 14) (size 15 to 20)
#    0.000    2.818    0.000    3.273    0.000    6.182 
#    0.000    8.182    0.000    1.091    0.000    0.000 
#    0.000    0.000    0.000    0.000    0.000    0.000 
#
# Total GULP energy -245332.471287 kJ/mol
# GULP energy per Si atom -5575.737984 kJ/mol
# Density = 1.708535 g / cm^3
# Si number density = 17.124329 Si / 1000 Ang^3
#
#
#
# Elastic Constant Matrix: (Units=GPa)
#
#
# Indices 1 2 3 4 5 6 
#
# 1 60.9588 56.5436 91.8879 0.0000 0.0000 0.0000
# 2 56.5436 60.9588 91.8879 0.0000 0.0000 0.0000
# 3 91.8879 91.8879 203.8248 0.0000 0.0000 0.0000
# 4 0.0000 0.0000 0.0000 -47.9198 0.0000 0.0000
# 5 0.0000 0.0000 0.0000 0.0000 -47.9198 0.0000
# 6 0.0000 0.0000 0.0000 0.0000 0.0000 27.8412
#
#
#
# Elastic Compliance Matrix: (Units=1/GPa)
#
#
# Indices 1 2 3 4 5 6 
#
# 1 0.127675 -0.098818 -0.013010 0.000000 0.000000 0.000000
# 2 -0.098818 0.127675 -0.013010 0.000000 0.000000 0.000000
# 3 -0.013010 -0.013010 0.016636 0.000000 0.000000 0.000000
# 4 0.000000 0.000000 0.000000 -0.020868 0.000000 0.000000
# 5 0.000000 0.000000 0.000000 0.000000 -0.020868 0.000000
# 6 0.000000 0.000000 0.000000 0.000000 0.000000 0.035918
#
#
# Mechanical properties :
#
#
# Convention : Reuss Voigt Hill
#
# Bulk Modulus (GPa) = 44.81669 89.59792 67.20731
# Shear Modulus (GPa) = 9.55511 -7.90480 0.82516
#
# Velocity S-wave (km/s) = 2.36473 -2.15085 0.69492
# Velocity P-wave (km/s) = 5.80380 6.80201 6.32264
#
# Compressibility (1/GPa) = 0.02231311
#
# Stress axis : x y z
#
# Youngs Moduli (GPa) = 7.83236 7.83236 60.11048
#
# Poissons Ratio (x) = 0.77398 0.78201
# Poissons Ratio (y) = 0.77398 0.78201
# Poissons Ratio (z) = 0.10190 0.10190
#
# Static dielectric constant tensor:
#      x y z
#    x 1.562150 0.000000 0.000000 
#    y 0.000000 1.562150 0.000000 
#    z 0.000000 0.000000 1.575450 
# 
# From -- ./inp_files/5756.got.cif
#   From: 2010.05.17/outbox.cif.g08.bks.cpg/sg115_3_cif.got.tgz:5756.got - 2010.05.20 11:07:42.
