data_PCOD9556645
_publ_section_title
;
Structure prediction by ZEFSAII (Michael W. Deem and Ramdas Pophale) SiO2 
 PCOD9556645
Probable space group: P -4 M 2
;
_chemical_formula_sum "Si O2"
_cell_formula_units_Z 40
_cell_length_a 8.050495
_cell_length_b 8.050495
_cell_length_c 30.312718
_cell_angle_alpha 90.000000
_cell_angle_beta 90.000000
_cell_angle_gamma 90.000000
_cell_volume 1964.581493
_symmetry_space_group_name_H-M "P -4 M 2"
_symmetry_group_IT_number 115
_symmetry_cell_setting 'tetragonal'
loop_
_space_group_symop_operation_xyz
x,y,z
y,-x,-z
-x,-y,z
-y,x,-z
y,x,-z
-y,-x,-z
-x,y,z
x,-y,z
loop_
_atom_site_type_symbol
_atom_site_label
_atom_site_fract_x
_atom_site_fract_y
_atom_site_fract_z
Si Si1 0.801418 0.686116 0.046867
Si Si2 0.201193 0.687626 0.547949
Si Si3 0.000000 0.797303 0.392821
Si Si4 0.203231 0.682414 0.764951
Si Si5 0.203486 0.000000 0.708495
Si Si6 0.801016 0.808676 0.858784
O O1 0.737812 0.500000 0.043429
O O2 0.737579 0.759731 0.092965
O O3 0.000000 0.685956 0.051787
O O4 0.769060 0.769060 0.000000
O O5 0.277033 0.722968 0.500000
O O6 0.242271 0.500000 0.562479
O O7 0.000000 0.697922 0.543743
O O8 0.254272 0.834027 0.581036
O O9 0.000000 0.742333 0.342186
O O10 0.000000 0.000000 0.392531
O O11 0.255807 0.500000 0.749679
O O12 0.257364 0.712072 0.815562
O O13 0.000000 0.684719 0.764840
O O14 0.257188 0.835340 0.734671
O O15 0.000000 0.000000 0.708834
O O16 0.000000 0.814905 0.856393
O O17 0.740304 0.000000 0.855330
#
# Coordination Sequence:
#
# PCOD9556645 Si02
#       6
#     8   8   4   8   4   8
#     4  10  21  35  51  73 101 133 168 210 263 324
#     4  10  19  32  53  79 109 151 196 236 287 344
#     4   9  18  30  49  75 113 154 187 237 288 340
#     4   9  16  26  44  70 101 137 178 226 277 332
#     4   9  16  28  44  71 109 145 178 223 285 329
#     4   9  16  29  49  70  94 128 170 215 268 325
#
# _framework density 20.360568000000001
#
# number of rings (size 3 to 8) (size 9 to 14) (size 15 to 20)
#    0.000    2.600    2.000    0.600    0.000    3.000 
#    0.000    6.000    0.000    0.000    0.000    2.800 
#    0.000    0.000    0.000    0.000    0.000    0.000 
#
# Total GULP energy -223061.996132 kJ/mol
# GULP energy per Si atom -5576.549903 kJ/mol
# Density = 2.031423 g / cm^3
# Si number density = 20.360568 Si / 1000 Ang^3
#
#
#
# Elastic Constant Matrix: (Units=GPa)
#
#
# Indices 1 2 3 4 5 6 
#
# 1 71.2238 28.1440 53.6623 0.0000 0.0000 0.0000
# 2 28.1440 71.2236 53.6631 0.0000 0.0000 0.0000
# 3 53.6623 53.6631 175.2729 0.0000 0.0000 0.0000
# 4 0.0000 0.0000 0.0000 -10.4492 0.0000 0.0000
# 5 0.0000 0.0000 0.0000 0.0000 -10.4494 0.0000
# 6 0.0000 0.0000 0.0000 0.0000 0.0000 3.1682
#
#
#
# Elastic Compliance Matrix: (Units=1/GPa)
#
#
# Indices 1 2 3 4 5 6 
#
# 1 0.019124 -0.004089 -0.004603 0.000000 0.000000 0.000000
# 2 -0.004089 0.019124 -0.004604 0.000000 0.000000 0.000000
# 3 -0.004603 -0.004604 0.008524 0.000000 0.000000 0.000000
# 4 0.000000 0.000000 0.000000 -0.095701 0.000000 0.000000
# 5 0.000000 0.000000 0.000000 0.000000 -0.095700 0.000000
# 6 0.000000 0.000000 0.000000 0.000000 0.000000 0.315642
#
#
# Mechanical properties :
#
#
# Convention : Reuss Voigt Hill
#
# Bulk Modulus (GPa) = 49.54930 65.40658 57.47794
# Shear Modulus (GPa) = 24.47000 8.60398 16.53699
#
# Velocity S-wave (km/s) = 3.47051 2.05791 2.85302
# Velocity P-wave (km/s) = 6.35987 6.15146 6.25654
#
# Compressibility (1/GPa) = 0.02018192
#
# Stress axis : x y z
#
# Youngs Moduli (GPa) = 52.28997 52.28926 117.31283
#
# Poissons Ratio (x) = 0.21379 0.54003
# Poissons Ratio (y) = 0.21379 0.54005
# Poissons Ratio (z) = 0.24071 0.24071
#
# Static dielectric constant tensor:
#      x y z
#    x 1.736310 0.000000 0.000000 
#    y 0.000000 1.736310 0.000000 
#    z 0.000000 0.000000 1.720890 
# 
# From -- ./inp_files/5554.got.cif
#   From: 2010.05.17/outbox.cif.g08.bks.cpg/sg115_3_cif.got.tgz:5554.got - 2010.05.20 11:07:42.
