data_PCOD9556343
_publ_section_title
;
Structure prediction by ZEFSAII (Michael W. Deem and Ramdas Pophale) SiO2 
 PCOD9556343
Probable space group: P -4 21 C
;
_chemical_formula_sum "Si O2"
_cell_formula_units_Z 24
_cell_length_a 7.098214
_cell_length_b 7.098214
_cell_length_c 17.852360
_cell_angle_alpha 90.000000
_cell_angle_beta 90.000000
_cell_angle_gamma 90.000000
_cell_volume 899.484767
_symmetry_space_group_name_H-M "P -4 21 C"
_symmetry_group_IT_number 114
_symmetry_cell_setting 'tetragonal'
loop_
_space_group_symop_operation_xyz
x,y,z
y,-x,-z
-x,-y,z
-y,x,-z
1/2+x,1/2-y,1/2-z
1/2-x,1/2+y,1/2-z
1/2-y,1/2-x,1/2+z
1/2+y,1/2+x,1/2+z
loop_
_atom_site_type_symbol
_atom_site_label
_atom_site_fract_x
_atom_site_fract_y
_atom_site_fract_z
Si Si1 0.142246 0.229616 0.171187
Si Si2 0.603512 0.285077 0.552906
Si Si3 0.126406 0.786665 0.658427
O O1 0.147011 0.181882 0.259104
O O2 0.282189 0.401990 0.152444
O O3 0.931852 0.306083 0.159222
O O4 0.188932 0.045830 0.122019
O O5 0.455200 0.269266 0.484437
O O6 0.752608 0.140384 0.587532
#
# Coordination Sequence:
#
# PCOD9556343 Si02
#       3
#     8   8   8
#     4  11  22  38  65 100 135 183 243 285 358 448
#     4  11  20  42  68  88 148 190 222 310 372 412
#     4  11  22  38  65 100 135 183 243 285 358 448
#
# _framework density 26.681937999999999
#
# number of rings (size 3 to 8) (size 9 to 14) (size 15 to 20)
#    0.000    1.000   10.000    0.000    0.000    0.000 
#    0.000    6.667    0.000    0.000    0.000    0.000 
#    0.000    0.000    0.000    0.000    0.000    0.000 
#
# Total GULP energy -133765.005736 kJ/mol
# GULP energy per Si atom -5573.541906 kJ/mol
# Density = 2.662121 g / cm^3
# Si number density = 26.681938 Si / 1000 Ang^3
#
#
#
# Elastic Constant Matrix: (Units=GPa)
#
#
# Indices 1 2 3 4 5 6 
#
# 1 114.7147 32.6174 59.2580 0.0000 0.0000 0.0000
# 2 32.6174 114.7147 59.2580 0.0000 0.0000 0.0000
# 3 59.2580 59.2580 205.3077 0.0000 0.0000 0.0000
# 4 0.0000 0.0000 0.0000 41.9352 0.0000 0.0000
# 5 0.0000 0.0000 0.0000 0.0000 41.9352 0.0000
# 6 0.0000 0.0000 0.0000 0.0000 0.0000 25.9541
#
#
#
# Elastic Compliance Matrix: (Units=1/GPa)
#
#
# Indices 1 2 3 4 5 6 
#
# 1 0.010510 -0.001670 -0.002551 0.000000 0.000000 0.000000
# 2 -0.001670 0.010510 -0.002551 0.000000 0.000000 0.000000
# 3 -0.002551 -0.002551 0.006344 0.000000 0.000000 0.000000
# 4 0.000000 0.000000 0.000000 0.023846 0.000000 0.000000
# 5 0.000000 0.000000 0.000000 0.000000 0.023846 0.000000
# 6 0.000000 0.000000 0.000000 0.000000 0.000000 0.038530
#
#
# Mechanical properties :
#
#
# Convention : Reuss Voigt Hill
#
# Bulk Modulus (GPa) = 72.37230 81.88931 77.13081
# Shear Modulus (GPa) = 37.95396 40.87183 39.41290
#
# Velocity S-wave (km/s) = 3.77564 3.91809 3.84752
# Velocity P-wave (km/s) = 6.79634 7.15724 6.97912
#
# Compressibility (1/GPa) = 0.01381744
#
# Stress axis : x y z
#
# Youngs Moduli (GPa) = 95.14537 95.14537 157.63983
#
# Poissons Ratio (x) = 0.15893 0.40221
# Poissons Ratio (y) = 0.15893 0.40221
# Poissons Ratio (z) = 0.24276 0.24276
#
# Static dielectric constant tensor:
#      x y z
#    x 2.238980 0.000000 0.000000 
#    y 0.000000 2.238980 0.000000 
#    z 0.000000 0.000000 2.094050 
# 
# From -- ./inp_files/2355.got.cif
#   From: 2010.05.17/outbox.cif.g08.bks.cpg/sg114_2_cif.got.tgz:2355.got - 2010.05.20 11:04:54.
