data_PCOD9556249
_publ_section_title
;
Structure prediction by ZEFSAII (Michael W. Deem and Ramdas Pophale) SiO2 
 PCOD9556249
Probable space group: P -4 21 C
;
_chemical_formula_sum "Si O2"
_cell_formula_units_Z 32
_cell_length_a 7.984365
_cell_length_b 7.984365
_cell_length_c 19.826708
_cell_angle_alpha 90.000000
_cell_angle_beta 90.000000
_cell_angle_gamma 90.000000
_cell_volume 1263.954309
_symmetry_space_group_name_H-M "P -4 21 C"
_symmetry_group_IT_number 114
_symmetry_cell_setting 'tetragonal'
loop_
_space_group_symop_operation_xyz
x,y,z
y,-x,-z
-x,-y,z
-y,x,-z
1/2+x,1/2-y,1/2-z
1/2-x,1/2+y,1/2-z
1/2-y,1/2-x,1/2+z
1/2+y,1/2+x,1/2+z
loop_
_atom_site_type_symbol
_atom_site_label
_atom_site_fract_x
_atom_site_fract_y
_atom_site_fract_z
Si Si1 0.194740 0.037212 0.585036
Si Si2 0.716697 0.308805 0.655948
Si Si3 0.608596 0.827629 0.701318
Si Si4 0.097567 0.748928 0.019252
O O1 0.241490 0.160217 0.647133
O O2 0.301657 0.106111 0.521550
O O3 0.257838 0.863122 0.615151
O O4 0.000000 0.000000 0.572922
O O5 0.522743 0.312188 0.677486
O O6 0.820681 0.303937 0.724366
O O7 0.779052 0.435356 0.598607
O O8 0.500000 0.000000 0.702102
O O9 0.919781 0.794789 0.987316
#
# Coordination Sequence:
#
# PCOD9556249 Si02
#       4
#     8   8   8   8
#     4  11  25  46  74 110 149 198 261 317 391 462
#     4  11  24  45  72 106 149 199 257 320 376 476
#     4  10  23  47  71 110 155 200 255 322 392 459
#     4  11  26  48  73 105 155 204 250 319 391 468
#
# _framework density 25.317371999999999
#
# number of rings (size 3 to 8) (size 9 to 14) (size 15 to 20)
#    0.000    1.250    2.500    1.500    3.500    6.000 
#    4.500    0.000    0.000    0.000    0.000    0.000 
#    0.000    0.000    0.000    0.000    0.000    0.000 
#
# Total GULP energy -179060.228239 kJ/mol
# GULP energy per Si atom -5595.632132 kJ/mol
# Density = 2.525975 g / cm^3
# Si number density = 25.317372 Si / 1000 Ang^3
#
#
#
# Elastic Constant Matrix: (Units=GPa)
#
#
# Indices 1 2 3 4 5 6 
#
# 1 111.6592 25.7984 38.9715 0.0000 0.0000 0.0000
# 2 25.7984 111.6592 38.9715 0.0000 0.0000 0.0000
# 3 38.9715 38.9715 218.7829 0.0000 0.0000 0.0000
# 4 0.0000 0.0000 0.0000 30.4246 0.0000 0.0000
# 5 0.0000 0.0000 0.0000 0.0000 30.4246 0.0000
# 6 0.0000 0.0000 0.0000 0.0000 0.0000 24.5211
#
#
#
# Elastic Compliance Matrix: (Units=1/GPa)
#
#
# Indices 1 2 3 4 5 6 
#
# 1 0.009870 -0.001777 -0.001441 0.000000 0.000000 0.000000
# 2 -0.001777 0.009870 -0.001441 0.000000 0.000000 0.000000
# 3 -0.001441 -0.001441 0.005084 0.000000 0.000000 0.000000
# 4 0.000000 0.000000 0.000000 0.032868 0.000000 0.000000
# 5 0.000000 0.000000 0.000000 0.000000 0.032868 0.000000
# 6 0.000000 0.000000 0.000000 0.000000 0.000000 0.040781
#
#
# Mechanical properties :
#
#
# Convention : Reuss Voigt Hill
#
# Bulk Modulus (GPa) = 64.50348 72.17601 68.33974
# Shear Modulus (GPa) = 34.28679 39.63140 36.95909
#
# Velocity S-wave (km/s) = 3.68405 3.96079 3.82492
# Velocity P-wave (km/s) = 6.60526 7.03473 6.82338
#
# Compressibility (1/GPa) = 0.01550304
#
# Stress axis : x y z
#
# Youngs Moduli (GPa) = 101.32178 101.32178 196.68479
#
# Poissons Ratio (x) = 0.18007 0.28352
# Poissons Ratio (y) = 0.18007 0.28352
# Poissons Ratio (z) = 0.14605 0.14605
#
# Static dielectric constant tensor:
#      x y z
#    x 2.062910 0.000000 0.000000 
#    y 0.000000 2.062910 0.000000 
#    z 0.000000 0.000000 2.052070 
# 
# From -- ./inp_files/3290.got.cif
#   From: 2010.05.17/outbox.cif.g08.bks.cpg/sg114_2_cif.got.tgz:3290.got - 2010.05.20 11:04:54.
