data_PCOD9556178
_publ_section_title
;
Structure prediction by ZEFSAII (Michael W. Deem and Ramdas Pophale) SiO2 
 PCOD9556178
Probable space group: P -4 21 C
;
_chemical_formula_sum "Si O2"
_cell_formula_units_Z 48
_cell_length_a 14.085538
_cell_length_b 14.085538
_cell_length_c 12.345499
_cell_angle_alpha 90.000000
_cell_angle_beta 90.000000
_cell_angle_gamma 90.000000
_cell_volume 2449.376393
_symmetry_space_group_name_H-M "P -4 21 C"
_symmetry_group_IT_number 114
_symmetry_cell_setting 'tetragonal'
loop_
_space_group_symop_operation_xyz
x,y,z
y,-x,-z
-x,-y,z
-y,x,-z
1/2+x,1/2-y,1/2-z
1/2-x,1/2+y,1/2-z
1/2-y,1/2-x,1/2+z
1/2+y,1/2+x,1/2+z
loop_
_atom_site_type_symbol
_atom_site_label
_atom_site_fract_x
_atom_site_fract_y
_atom_site_fract_z
Si Si1 0.125614 0.260532 0.851740
Si Si2 0.624363 0.593423 0.985756
Si Si3 0.073949 0.800010 0.890703
Si Si4 0.748952 0.331795 0.835276
Si Si5 0.552715 0.219039 0.189905
Si Si6 0.059012 0.209836 0.076243
O O1 0.199140 0.206516 0.774489
O O2 0.137656 0.373808 0.843963
O O3 0.019386 0.225853 0.822911
O O4 0.131105 0.236275 0.979281
O O5 0.688234 0.588134 0.877560
O O6 0.621735 0.485729 0.032643
O O7 0.667078 0.668483 0.071068
O O8 0.162162 0.735753 0.858499
O O9 0.105648 0.909348 0.885197
O O10 0.039967 0.783789 0.014560
O O11 0.786211 0.440262 0.829065
O O12 0.565264 0.227943 0.318331
#
# Coordination Sequence:
#
# PCOD9556178 Si02
#       6
#     8   8   8   8   8   8
#     4  10  24  40  66  96 135 173 226 284 349 409
#     4   9  21  37  61  98 130 171 226 274 335 408
#     4  10  23  42  66  96 135 169 232 280 355 414
#     4  11  22  43  67  96 131 188 225 281 355 413
#     4  11  22  40  70  92 140 172 230 280 344 421
#     4  10  22  42  64  98 127 180 221 294 337 412
#
# _framework density 19.596823000000001
#
# number of rings (size 3 to 8) (size 9 to 14) (size 15 to 20)
#    1.000    0.833    1.667    2.000    2.333    1.000 
#    0.000    0.000    3.667    0.000    0.000    0.000 
#    0.000    0.000    0.000    0.000    0.000    0.000 
#
# Total GULP energy -267295.790387 kJ/mol
# GULP energy per Si atom -5568.662300 kJ/mol
# Density = 1.955222 g / cm^3
# Si number density = 19.596823 Si / 1000 Ang^3
#
#
#
# Elastic Constant Matrix: (Units=GPa)
#
#
# Indices 1 2 3 4 5 6 
#
# 1 89.7198 33.5647 30.3250 0.0000 0.0000 0.0000
# 2 33.5647 89.7198 30.3250 0.0000 0.0000 0.0000
# 3 30.3250 30.3250 84.1697 0.0000 0.0000 0.0000
# 4 0.0000 0.0000 0.0000 27.5130 0.0000 0.0000
# 5 0.0000 0.0000 0.0000 0.0000 27.5130 0.0000
# 6 0.0000 0.0000 0.0000 0.0000 0.0000 21.8660
#
#
#
# Elastic Compliance Matrix: (Units=1/GPa)
#
#
# Indices 1 2 3 4 5 6 
#
# 1 0.013833 -0.003975 -0.003552 0.000000 0.000000 0.000000
# 2 -0.003975 0.013833 -0.003552 0.000000 0.000000 0.000000
# 3 -0.003552 -0.003552 0.014440 0.000000 0.000000 0.000000
# 4 0.000000 0.000000 0.000000 0.036346 0.000000 0.000000
# 5 0.000000 0.000000 0.000000 0.000000 0.036346 0.000000
# 6 0.000000 0.000000 0.000000 0.000000 0.000000 0.045733
#
#
# Mechanical properties :
#
#
# Convention : Reuss Voigt Hill
#
# Bulk Modulus (GPa) = 50.12572 50.22653 50.17612
# Shear Modulus (GPa) = 26.40762 26.67140 26.53951
#
# Velocity S-wave (km/s) = 3.67488 3.69318 3.68404
# Velocity P-wave (km/s) = 6.60608 6.62357 6.61483
#
# Compressibility (1/GPa) = 0.01994984
#
# Stress axis : x y z
#
# Youngs Moduli (GPa) = 72.28956 72.28956 69.25132
#
# Poissons Ratio (x) = 0.28732 0.24598
# Poissons Ratio (y) = 0.28732 0.24598
# Poissons Ratio (z) = 0.25677 0.25677
#
# Static dielectric constant tensor:
#      x y z
#    x 1.724890 0.000000 0.000000 
#    y 0.000000 1.724890 0.000000 
#    z 0.000000 0.000000 1.696970 
# 
# From -- ./inp_files/1640.got.cif
#   From: 2010.05.17/outbox.cif.g08.bks.cpg/sg114_1_cif.got.tgz:1640.got - 2010.05.20 11:04:54.
