data_PCOD9556976
_publ_section_title
;
Structure prediction by ZEFSAII (Michael W. Deem and Ramdas Pophale) SiO2 
 PCOD9556976
Probable space group: P -4 M 2
;
_chemical_formula_sum "Si O2"
_cell_formula_units_Z 40
_cell_length_a 9.153582
_cell_length_b 9.153582
_cell_length_c 26.748368
_cell_angle_alpha 90.000000
_cell_angle_beta 90.000000
_cell_angle_gamma 90.000000
_cell_volume 2241.193955
_symmetry_space_group_name_H-M "P -4 M 2"
_symmetry_group_IT_number 115
_symmetry_cell_setting 'tetragonal'
loop_
_space_group_symop_operation_xyz
x,y,z
y,-x,-z
-x,-y,z
-y,x,-z
y,x,-z
-y,-x,-z
-x,y,z
x,-y,z
loop_
_atom_site_type_symbol
_atom_site_label
_atom_site_fract_x
_atom_site_fract_y
_atom_site_fract_z
Si Si1 0.672411 0.175153 0.397832
Si Si2 0.326205 0.673796 0.500000
Si Si3 0.178313 0.831675 0.703403
Si Si4 0.326284 0.326284 0.000000
Si Si5 0.667841 0.177958 0.196277
Si Si6 0.175434 0.827118 0.906099
O O1 0.500000 0.208045 0.391513
O O2 0.723632 0.247703 0.449357
O O3 0.758089 0.224694 0.348542
O O4 0.686908 0.000000 0.401947
O O5 0.500000 0.698397 0.504959
O O6 0.226940 0.743307 0.752343
O O7 0.000000 0.828308 0.703562
O O8 0.223194 0.000000 0.706297
O O9 0.251894 0.256634 0.048718
O O10 0.300548 0.500000 0.998637
O O11 0.500000 0.226024 0.193215
O O12 0.757501 0.219795 0.146980
O O13 0.667725 0.000000 0.197351
O O14 0.000000 0.806895 0.911795
O O15 0.204195 0.000000 0.906552
#
# Coordination Sequence:
#
# PCOD9556976 Si02
#       6
#     8   4   8   4   8   8
#     4   9  17  29  45  65  89 118 153 193 238 288
#     4   9  18  32  48  65  88 120 156 193 236 288
#     4   9  16  26  42  67  98 128 159 199 245 290
#     4  11  24  39  54  74 102 137 174 209 250 304
#     4   9  16  27  46  72 102 135 168 203 246 296
#     4  10  20  34  54  80 106 132 167 212 258 302
#
# _framework density 17.847629999999999
#
# number of rings (size 3 to 8) (size 9 to 14) (size 15 to 20)
#    0.000    2.600    0.000    2.400    0.000    8.800 
#    0.000    0.000    0.000    1.200    0.000    2.800 
#    0.000    0.000    0.000    0.000    0.000    0.000 
#
# Total GULP energy -223128.194824 kJ/mol
# GULP energy per Si atom -5578.204871 kJ/mol
# Density = 1.780701 g / cm^3
# Si number density = 17.847630 Si / 1000 Ang^3
#
#
#
# Elastic Constant Matrix: (Units=GPa)
#
#
# Indices 1 2 3 4 5 6 
#
# 1 65.6463 51.3231 81.0076 0.0000 0.0000 0.0000
# 2 51.3231 65.6460 81.0076 0.0000 0.0000 0.0000
# 3 81.0076 81.0076 221.0693 0.0000 0.0000 0.0000
# 4 0.0000 0.0000 0.0000 -114.8579 0.0000 0.0000
# 5 0.0000 0.0000 0.0000 0.0000 -114.9016 0.0000
# 6 0.0000 0.0000 0.0000 0.0000 0.0000 15.3224
#
#
#
# Elastic Compliance Matrix: (Units=1/GPa)
#
#
# Indices 1 2 3 4 5 6 
#
# 1 0.043589 -0.026228 -0.006362 0.000000 0.000000 0.000000
# 2 -0.026228 0.043589 -0.006362 0.000000 0.000000 0.000000
# 3 -0.006362 -0.006362 0.009186 0.000000 0.000000 0.000000
# 4 0.000000 0.000000 0.000000 -0.008706 0.000000 0.000000
# 5 0.000000 0.000000 0.000000 0.000000 -0.008703 0.000000
# 6 0.000000 0.000000 0.000000 0.000000 0.000000 0.065264
#
#
# Mechanical properties :
#
#
# Convention : Reuss Voigt Hill
#
# Bulk Modulus (GPa) = 54.16876 86.55980 70.36428
# Shear Modulus (GPa) = 21.90340 -33.61920 -5.85790
#
# Velocity S-wave (km/s) = 3.50701 -4.34485 -1.81364
# Velocity P-wave (km/s) = 6.84217 4.84091 5.92662
#
# Compressibility (1/GPa) = 0.01846083
#
# Stress axis : x y z
#
# Youngs Moduli (GPa) = 22.94160 22.94140 108.86494
#
# Poissons Ratio (x) = 0.60172 0.69255
# Poissons Ratio (y) = 0.60172 0.69256
# Poissons Ratio (z) = 0.14594 0.14595
#
# Static dielectric constant tensor:
#      x y z
#    x 1.598660 0.000000 0.000000 
#    y 0.000000 1.598660 0.000000 
#    z 0.000000 0.000000 1.588900 
# 
# From -- ./inp_files/5528.got.cif
#   From: 2010.05.17/outbox.cif.g08.bks.cpg/sg115_3_cif.got.tgz:5528.got - 2010.05.20 11:07:42.
