data_PCOD9556788
_publ_section_title
;
Structure prediction by ZEFSAII (Michael W. Deem and Ramdas Pophale) SiO2 
 PCOD9556788
Probable space group: P -4 M 2
;
_chemical_formula_sum "Si O2"
_cell_formula_units_Z 44
_cell_length_a 9.106387
_cell_length_b 9.106387
_cell_length_c 29.772212
_cell_angle_alpha 90.000000
_cell_angle_beta 90.000000
_cell_angle_gamma 90.000000
_cell_volume 2468.898913
_symmetry_space_group_name_H-M "P -4 M 2"
_symmetry_group_IT_number 115
_symmetry_cell_setting 'tetragonal'
loop_
_space_group_symop_operation_xyz
x,y,z
y,-x,-z
-x,-y,z
-y,x,-z
y,x,-z
-y,-x,-z
-x,y,z
x,-y,z
loop_
_atom_site_type_symbol
_atom_site_label
_atom_site_fract_x
_atom_site_fract_y
_atom_site_fract_z
Si Si1 0.174415 0.174415 0.500000
Si Si2 0.670946 0.320865 0.146046
Si Si3 0.173676 0.674594 0.677733
Si Si4 0.175766 0.326509 0.407019
Si Si5 0.672991 0.679021 0.951698
Si Si6 0.323759 0.173103 0.762480
O O1 0.219344 0.259930 0.455196
O O2 0.000000 0.197632 0.507030
O O3 0.500000 0.279390 0.151894
O O4 0.674505 0.500000 0.144286
O O5 0.724662 0.266870 0.096989
O O6 0.763575 0.275984 0.189202
O O7 0.196530 0.500000 0.678197
O O8 0.247181 0.743443 0.633673
O O9 0.245398 0.744738 0.721879
O O10 0.000000 0.704249 0.677166
O O11 0.204060 0.500000 0.405736
O O12 0.000000 0.303747 0.402223
O O13 0.500000 0.717086 0.951790
O O14 0.680188 0.500000 0.951767
O O15 0.732395 0.732395 0.000000
O O16 0.500000 0.195433 0.758692
O O17 0.295322 0.000000 0.759935
#
# Coordination Sequence:
#
# PCOD9556788 Si02
#       6
#     4   8   8   8   8   8
#     4   9  18  34  56  81 112 150 184 211 242 283
#     4   8  13  22  38  61  90 123 157 197 246 294
#     4  11  24  39  55  76 101 131 169 212 256 302
#     4  10  21  37  58  84 112 141 173 209 249 294
#     4   7   9  14  27  51  83 116 151 192 237 285
#     4  10  20  33  50  73 100 130 165 205 250 301
#
# _framework density 17.821708999999998
#
# number of rings (size 3 to 8) (size 9 to 14) (size 15 to 20)
#    0.000    2.818    0.000    3.818    0.000    6.545 
#    0.000    1.818    0.000    0.000    0.000    1.273 
#    0.000    7.273    0.000    0.000    0.000    0.000 
#
# Total GULP energy -245203.522020 kJ/mol
# GULP energy per Si atom -5572.807319 kJ/mol
# Density = 1.778115 g / cm^3
# Si number density = 17.821709 Si / 1000 Ang^3
#
#
#
# Elastic Constant Matrix: (Units=GPa)
#
#
# Indices 1 2 3 4 5 6 
#
# 1 46.2100 52.1041 78.9430 0.0000 0.0000 0.0000
# 2 52.1041 46.2100 78.9430 0.0000 0.0000 0.0000
# 3 78.9430 78.9430 232.6495 0.0000 0.0000 0.0000
# 4 0.0000 0.0000 0.0000 -107.4508 0.0000 0.0000
# 5 0.0000 0.0000 0.0000 0.0000 -107.4508 0.0000
# 6 0.0000 0.0000 0.0000 0.0000 0.0000 18.4081
#
#
#
# Elastic Compliance Matrix: (Units=1/GPa)
#
#
# Indices 1 2 3 4 5 6 
#
# 1 -0.073655 0.096006 -0.007584 0.000000 0.000000 0.000000
# 2 0.096006 -0.073655 -0.007584 0.000000 0.000000 0.000000
# 3 -0.007584 -0.007584 0.009445 0.000000 0.000000 0.000000
# 4 0.000000 0.000000 0.000000 -0.009307 0.000000 0.000000
# 5 0.000000 0.000000 0.000000 0.000000 -0.009307 0.000000
# 6 0.000000 0.000000 0.000000 0.000000 0.000000 0.054324
#
#
# Mechanical properties :
#
#
# Convention : Reuss Voigt Hill
#
# Bulk Modulus (GPa) = 41.99765 82.78334 62.39049
# Shear Modulus (GPa) = -19.53949 -31.62675 -25.58312
#
# Velocity S-wave (km/s) = -3.31477 -4.21719 -3.79291
# Velocity P-wave (km/s) = 2.99439 4.77899 3.98780
#
# Compressibility (1/GPa) = 0.02381086
#
# Stress axis : x y z
#
# Youngs Moduli (GPa) = -13.57683 -13.57683 105.87222
#
# Poissons Ratio (x) = 1.30346 0.80297
# Poissons Ratio (y) = 1.30346 0.80297
# Poissons Ratio (z) = -0.10297 -0.10297
#
# Static dielectric constant tensor:
#      x y z
#    x 1.592890 0.000000 0.000000 
#    y 0.000000 1.592890 0.000000 
#    z 0.000000 0.000000 1.627290 
# 
# From -- ./inp_files/5764.got.cif
#   From: 2010.05.17/outbox.cif.g08.bks.cpg/sg115_3_cif.got.tgz:5764.got - 2010.05.20 11:07:42.
