data_PCOD9556847
_publ_section_title
;
Structure prediction by ZEFSAII (Michael W. Deem and Ramdas Pophale) SiO2 
 PCOD9556847
Probable space group: P -4 M 2
;
_chemical_formula_sum "Si O2"
_cell_formula_units_Z 44
_cell_length_a 9.363356
_cell_length_b 9.363356
_cell_length_c 29.186575
_cell_angle_alpha 90.000000
_cell_angle_beta 90.000000
_cell_angle_gamma 90.000000
_cell_volume 2558.858117
_symmetry_space_group_name_H-M "P -4 M 2"
_symmetry_group_IT_number 115
_symmetry_cell_setting 'tetragonal'
loop_
_space_group_symop_operation_xyz
x,y,z
y,-x,-z
-x,-y,z
-y,x,-z
y,x,-z
-y,-x,-z
-x,y,z
x,-y,z
loop_
_atom_site_type_symbol
_atom_site_label
_atom_site_fract_x
_atom_site_fract_y
_atom_site_fract_z
Si Si1 0.167686 0.828213 0.366940
Si Si2 0.168783 0.170998 0.184517
Si Si3 0.669806 0.330195 0.000000
Si Si4 0.670930 0.331843 0.552739
Si Si5 0.826081 0.664273 0.724496
Si Si6 0.669313 0.829932 0.908049
O O1 0.238055 0.753562 0.410586
O O2 0.249445 0.782189 0.320716
O O3 0.000000 0.795585 0.363448
O O4 0.182616 0.000000 0.370999
O O5 0.257653 0.218739 0.228799
O O6 0.214050 0.247596 0.137713
O O7 0.000000 0.199845 0.191912
O O8 0.184838 0.000000 0.179563
O O9 0.717074 0.250111 0.954004
O O10 0.500000 0.306544 0.005404
O O11 0.705816 0.294185 0.500000
O O12 0.500000 0.315644 0.558005
O O13 0.704210 0.500000 0.559379
O O14 0.779164 0.500000 0.722761
O O15 0.000000 0.665185 0.724752
O O16 0.500000 0.803219 0.902076
O O17 0.689383 0.000000 0.913886
#
# Coordination Sequence:
#
# PCOD9556847 Si02
#       6
#     8   8   4   8   8   8
#     4  10  20  33  51  76 104 133 166 205 248 295
#     4   9  17  30  48  69  93 121 154 194 239 284
#     4   9  18  32  48  65  88 120 154 187 226 274
#     4   9  19  36  55  74  99 132 168 206 249 296
#     4   9  17  30  49  72  97 127 164 203 242 286
#     4   9  18  32  48  67  93 123 153 188 233 282
#
# _framework density 17.195170999999998
#
# number of rings (size 3 to 8) (size 9 to 14) (size 15 to 20)
#    0.000    2.818    0.000    1.636    0.000    5.818 
#    0.000    3.636    0.000    3.273    0.000    0.000 
#    0.000    0.000    0.000    0.000    0.000    0.000 
#
# Total GULP energy -245341.894229 kJ/mol
# GULP energy per Si atom -5575.952142 kJ/mol
# Density = 1.715603 g / cm^3
# Si number density = 17.195171 Si / 1000 Ang^3
#
#
#
# Elastic Constant Matrix: (Units=GPa)
#
#
# Indices 1 2 3 4 5 6 
#
# 1 56.5101 45.7306 85.4851 0.0000 0.0000 0.0000
# 2 45.7306 56.5106 85.4853 0.0000 0.0000 0.0000
# 3 85.4851 85.4853 207.7266 0.0000 0.0000 0.0000
# 4 0.0000 0.0000 0.0000 67.6611 0.0000 0.0000
# 5 0.0000 0.0000 0.0000 0.0000 67.6657 0.0000
# 6 0.0000 0.0000 0.0000 0.0000 0.0000 20.8805
#
#
#
# Elastic Compliance Matrix: (Units=1/GPa)
#
#
# Indices 1 2 3 4 5 6 
#
# 1 0.062066 -0.030700 -0.012908 0.000000 0.000000 0.000000
# 2 -0.030700 0.062066 -0.012908 0.000000 0.000000 0.000000
# 3 -0.012908 -0.012908 0.015438 0.000000 0.000000 0.000000
# 4 0.000000 0.000000 0.000000 0.014780 0.000000 0.000000
# 5 0.000000 0.000000 0.000000 0.000000 0.014779 0.000000
# 6 0.000000 0.000000 0.000000 0.000000 0.000000 0.047892
#
#
# Mechanical properties :
#
#
# Convention : Reuss Voigt Hill
#
# Bulk Modulus (GPa) = 37.68193 83.79437 60.73815
# Shear Modulus (GPa) = 14.75373 38.17789 26.46581
#
# Velocity S-wave (km/s) = 2.93237 4.71708 3.92745
# Velocity P-wave (km/s) = 5.78160 8.86030 7.48104
#
# Compressibility (1/GPa) = 0.02653792
#
# Stress axis : x y z
#
# Youngs Moduli (GPa) = 16.11175 16.11201 64.77562
#
# Poissons Ratio (x) = 0.49464 0.83613
# Poissons Ratio (y) = 0.49464 0.83610
# Poissons Ratio (z) = 0.20797 0.20797
#
# Static dielectric constant tensor:
#      x y z
#    x 1.572430 0.000000 0.000000 
#    y 0.000000 1.572430 0.000000 
#    z 0.000000 0.000000 1.559830 
# 
# From -- ./inp_files/5747.got.cif
#   From: 2010.05.17/outbox.cif.g08.bks.cpg/sg115_3_cif.got.tgz:5747.got - 2010.05.20 11:07:42.
