data_PCOD9556809
_publ_section_title
;
Structure prediction by ZEFSAII (Michael W. Deem and Ramdas Pophale) SiO2 
 PCOD9556809
Probable space group: P -4 M 2
;
_chemical_formula_sum "Si O2"
_cell_formula_units_Z 48
_cell_length_a 8.980604
_cell_length_b 8.980604
_cell_length_c 32.334298
_cell_angle_alpha 90.000000
_cell_angle_beta 90.000000
_cell_angle_gamma 90.000000
_cell_volume 2607.801494
_symmetry_space_group_name_H-M "P -4 M 2"
_symmetry_group_IT_number 115
_symmetry_cell_setting 'tetragonal'
loop_
_space_group_symop_operation_xyz
x,y,z
y,-x,-z
-x,-y,z
-y,x,-z
y,x,-z
-y,-x,-z
-x,y,z
x,-y,z
loop_
_atom_site_type_symbol
_atom_site_label
_atom_site_fract_x
_atom_site_fract_y
_atom_site_fract_z
Si Si1 0.822940 0.322986 0.540292
Si Si2 0.821192 0.324732 0.219485
Si Si3 0.181541 0.175551 0.955527
Si Si4 0.676750 0.823476 0.299044
Si Si5 0.677023 0.176860 0.620782
Si Si6 0.818367 0.173460 0.134408
O O1 0.749568 0.250433 0.500000
O O2 0.796821 0.500000 0.540065
O O3 0.753817 0.252611 0.581462
O O4 0.000000 0.297335 0.539643
O O5 0.792207 0.500000 0.223412
O O6 0.741621 0.237156 0.256115
O O7 0.773031 0.266260 0.174373
O O8 0.000000 0.301774 0.222782
O O9 0.228207 0.236452 0.910716
O O10 0.000000 0.183220 0.955543
O O11 0.219715 0.000000 0.955641
O O12 0.235705 0.235705 0.000000
O O13 0.500000 0.797002 0.300898
O O14 0.755487 0.741943 0.337170
O O15 0.703124 0.000000 0.302171
O O16 0.500000 0.201916 0.619037
O O17 0.703894 0.000000 0.619826
O O18 0.000000 0.177293 0.132770
O O19 0.776525 0.000000 0.139670
#
# Coordination Sequence:
#
# PCOD9556809 Si02
#       6
#     8   8   8   8   8   8
#     4  11  24  41  62  90 122 156 196 237 276 321
#     4  10  20  33  50  74 103 135 172 213 258 311
#     4   7   9  14  27  51  83 116 152 197 248 300
#     4  11  24  40  58  81 107 137 176 220 266 318
#     4  11  24  41  62  89 118 148 184 224 268 321
#     4   8  13  22  38  61  90 124 161 204 255 306
#
# _framework density 18.406310000000001
#
# number of rings (size 3 to 8) (size 9 to 14) (size 15 to 20)
#    0.000    2.333    0.000    5.000    0.000   11.000 
#    0.000    0.000    0.000    0.000    0.000    1.167 
#    0.000    6.667    0.000    0.000    0.000    0.000 
#
# Total GULP energy -267793.005319 kJ/mol
# GULP energy per Si atom -5579.020944 kJ/mol
# Density = 1.836442 g / cm^3
# Si number density = 18.406310 Si / 1000 Ang^3
#
#
#
# Elastic Constant Matrix: (Units=GPa)
#
#
# Indices 1 2 3 4 5 6 
#
# 1 68.8888 73.2526 71.3094 0.0000 0.0000 0.0000
# 2 73.2526 68.8884 71.3091 0.0000 0.0000 0.0000
# 3 71.3094 71.3091 199.6089 0.0000 0.0000 0.0000
# 4 0.0000 0.0000 0.0000 -95.5860 0.0000 0.0000
# 5 0.0000 0.0000 0.0000 0.0000 -95.5727 0.0000
# 6 0.0000 0.0000 0.0000 0.0000 0.0000 22.8596
#
#
#
# Elastic Compliance Matrix: (Units=1/GPa)
#
#
# Indices 1 2 3 4 5 6 
#
# 1 -0.109091 0.120057 -0.003917 0.000000 0.000000 0.000000
# 2 0.120057 -0.109092 -0.003918 0.000000 0.000000 0.000000
# 3 -0.003917 -0.003918 0.007809 0.000000 0.000000 0.000000
# 4 0.000000 0.000000 0.000000 -0.010462 0.000000 0.000000
# 5 0.000000 0.000000 0.000000 0.000000 -0.010463 0.000000
# 6 0.000000 0.000000 0.000000 0.000000 0.000000 0.043745
#
#
# Mechanical properties :
#
#
# Convention : Reuss Voigt Hill
#
# Bulk Modulus (GPa) = 71.07013 85.45870 78.26442
# Shear Modulus (GPa) = -12.27573 -25.55884 -18.91728
#
# Velocity S-wave (km/s) = -2.58530 -3.73042 -3.20935
# Velocity P-wave (km/s) = 5.45747 5.28915 5.37397
#
# Compressibility (1/GPa) = 0.01407061
#
# Stress axis : x y z
#
# Youngs Moduli (GPa) = -9.16666 -9.16661 128.06018
#
# Poissons Ratio (x) = 1.10052 0.50167
# Poissons Ratio (y) = 1.10052 0.50169
# Poissons Ratio (z) = -0.03591 -0.03591
#
# Static dielectric constant tensor:
#      x y z
#    x 1.613330 0.000000 0.000000 
#    y 0.000000 1.613330 0.000000 
#    z 0.000000 0.000000 1.641900 
# 
# From -- ./inp_files/6097.got.cif
#   From: 2010.05.17/outbox.cif.g08.bks.cpg/sg115_4_cif.got.tgz:6097.got - 2010.05.20 11:07:42.
