data_PCOD9556717
_publ_section_title
;
Structure prediction by ZEFSAII (Michael W. Deem and Ramdas Pophale) SiO2 
 PCOD9556717
Probable space group: P -4 M 2
;
_chemical_formula_sum "Si O2"
_cell_formula_units_Z 48
_cell_length_a 9.329732
_cell_length_b 9.329732
_cell_length_c 32.018040
_cell_angle_alpha 90.000000
_cell_angle_beta 90.000000
_cell_angle_gamma 90.000000
_cell_volume 2786.975046
_symmetry_space_group_name_H-M "P -4 M 2"
_symmetry_group_IT_number 115
_symmetry_cell_setting 'tetragonal'
loop_
_space_group_symop_operation_xyz
x,y,z
y,-x,-z
-x,-y,z
-y,x,-z
y,x,-z
-y,-x,-z
-x,y,z
x,-y,z
loop_
_atom_site_type_symbol
_atom_site_label
_atom_site_fract_x
_atom_site_fract_y
_atom_site_fract_z
Si Si1 0.164871 0.824949 0.288087
Si Si2 0.668708 0.328266 0.047917
Si Si3 0.825319 0.664890 0.794457
Si Si4 0.334342 0.174659 0.369965
Si Si5 0.831816 0.827664 0.121797
Si Si6 0.672543 0.168071 0.463109
O O1 0.254852 0.778744 0.247657
O O2 0.237846 0.778018 0.331327
O O3 0.000000 0.780093 0.285174
O O4 0.166650 0.000000 0.288198
O O5 0.500000 0.294288 0.053762
O O6 0.684053 0.500000 0.052337
O O7 0.762184 0.247044 0.081844
O O8 0.707839 0.292162 0.000000
O O9 0.778176 0.500000 0.795320
O O10 0.782109 0.749231 0.836118
O O11 0.000000 0.664782 0.793936
O O12 0.500000 0.218064 0.363768
O O13 0.285364 0.218384 0.416356
O O14 0.333882 0.000000 0.370382
O O15 0.000000 0.794788 0.125262
O O16 0.816988 0.000000 0.118031
O O17 0.744014 0.255987 0.500000
O O18 0.500000 0.178221 0.465013
O O19 0.710497 0.000000 0.467142
#
# Coordination Sequence:
#
# PCOD9556717 Si02
#       6
#     8   8   8   8   8   8
#     4   9  15  22  35  58  88 119 152 192 237 284
#     4   9  19  36  55  73  94 123 161 201 238 282
#     4   9  16  26  41  61  88 125 164 198 236 283
#     4   8  14  25  39  56  82 115 149 186 229 279
#     4  10  20  32  47  71 102 130 158 197 243 288
#     4   9  18  31  46  66  92 121 155 195 237 283
#
# _framework density 17.222975000000002
#
# number of rings (size 3 to 8) (size 9 to 14) (size 15 to 20)
#    0.000    3.000    0.000    3.000    0.000    7.000 
#    0.000    4.167    0.000    0.000    0.000    1.167 
#    0.000    4.000    0.000    0.000    0.000    0.000 
#
# Total GULP energy -267496.114856 kJ/mol
# GULP energy per Si atom -5572.835726 kJ/mol
# Density = 1.718377 g / cm^3
# Si number density = 17.222975 Si / 1000 Ang^3
#
#
#
# Elastic Constant Matrix: (Units=GPa)
#
#
# Indices 1 2 3 4 5 6 
#
# 1 58.3744 34.8167 76.5520 0.0000 0.0000 0.0000
# 2 34.8167 58.3728 76.5513 0.0000 0.0000 0.0000
# 3 76.5520 76.5513 200.9214 0.0000 0.0000 0.0000
# 4 0.0000 0.0000 0.0000 179.5309 0.0000 0.0000
# 5 0.0000 0.0000 0.0000 0.0000 179.5742 0.0000
# 6 0.0000 0.0000 0.0000 0.0000 0.0000 18.1157
#
#
#
# Elastic Compliance Matrix: (Units=1/GPa)
#
#
# Indices 1 2 3 4 5 6 
#
# 1 0.035569 -0.006881 -0.010930 0.000000 0.000000 0.000000
# 2 -0.006881 0.035570 -0.010930 0.000000 0.000000 0.000000
# 3 -0.010930 -0.010930 0.013306 0.000000 0.000000 0.000000
# 4 0.000000 0.000000 0.000000 0.005570 0.000000 0.000000
# 5 0.000000 0.000000 0.000000 0.000000 0.005569 0.000000
# 6 0.000000 0.000000 0.000000 0.000000 0.000000 0.055201
#
#
# Mechanical properties :
#
#
# Convention : Reuss Voigt Hill
#
# Bulk Modulus (GPa) = 37.09028 77.05650 57.07339
# Shear Modulus (GPa) = 23.01446 84.09408 53.55427
#
# Velocity S-wave (km/s) = 3.65946 6.99519 5.58231
# Velocity P-wave (km/s) = 6.27994 10.49196 8.64635
#
# Compressibility (1/GPa) = 0.02696124
#
# Stress axis : x y z
#
# Youngs Moduli (GPa) = 28.11461 28.11361 75.15404
#
# Poissons Ratio (x) = 0.19345 0.82144
# Poissons Ratio (y) = 0.19346 0.82147
# Poissons Ratio (z) = 0.30730 0.30729
#
# Static dielectric constant tensor:
#      x y z
#    x 1.569460 0.000000 0.000000 
#    y 0.000000 1.569460 0.000000 
#    z 0.000000 0.000000 1.577510 
# 
# From -- ./inp_files/6061.got.cif
#   From: 2010.05.17/outbox.cif.g08.bks.cpg/sg115_4_cif.got.tgz:6061.got - 2010.05.20 11:07:42.
