data_PCOD9556991
_publ_section_title
;
Structure prediction by ZEFSAII (Michael W. Deem and Ramdas Pophale) SiO2 
 PCOD9556991
Probable space group: P -4 M 2
;
_chemical_formula_sum "Si O2"
_cell_formula_units_Z 48
_cell_length_a 9.062968
_cell_length_b 9.062968
_cell_length_c 32.027181
_cell_angle_alpha 90.000000
_cell_angle_beta 90.000000
_cell_angle_gamma 90.000000
_cell_volume 2630.629023
_symmetry_space_group_name_H-M "P -4 M 2"
_symmetry_group_IT_number 115
_symmetry_cell_setting 'tetragonal'
loop_
_space_group_symop_operation_xyz
x,y,z
y,-x,-z
-x,-y,z
-y,x,-z
y,x,-z
-y,-x,-z
-x,y,z
x,-y,z
loop_
_atom_site_type_symbol
_atom_site_label
_atom_site_fract_x
_atom_site_fract_y
_atom_site_fract_z
Si Si1 0.668753 0.320275 0.785255
Si Si2 0.319947 0.828800 0.130888
Si Si3 0.675341 0.175584 0.620319
Si Si4 0.677204 0.825840 0.300299
Si Si5 0.822157 0.671460 0.961143
Si Si6 0.824197 0.675757 0.540178
O O1 0.500000 0.272664 0.780270
O O2 0.670234 0.500000 0.786363
O O3 0.736035 0.270051 0.829302
O O4 0.764581 0.277860 0.745088
O O5 0.500000 0.826432 0.130124
O O6 0.273218 0.774739 0.084923
O O7 0.276972 0.000000 0.136085
O O8 0.500000 0.202160 0.618076
O O9 0.739747 0.240940 0.663069
O O10 0.755129 0.254140 0.581669
O O11 0.700405 0.000000 0.618328
O O12 0.500000 0.804163 0.304623
O O13 0.706278 0.000000 0.303247
O O14 0.777720 0.500000 0.965208
O O15 0.000000 0.676375 0.961000
O O16 0.759997 0.759997 0.000000
O O17 0.749674 0.749674 0.500000
O O18 0.798655 0.500000 0.539712
O O19 0.000000 0.700837 0.539385
#
# Coordination Sequence:
#
# PCOD9556991 Si02
#       6
#     8   8   8   8   8   8
#     4   9  16  26  44  72 103 133 167 210 260 311
#     4   8  14  26  43  64  93 127 162 204 254 307
#     4  11  24  40  58  82 112 146 184 225 270 319
#     4  10  20  34  54  80 108 140 179 220 263 314
#     4   9  18  31  47  69  97 129 166 208 255 307
#     4  11  24  41  62  89 118 148 185 226 268 317
#
# _framework density 18.246587000000002
#
# number of rings (size 3 to 8) (size 9 to 14) (size 15 to 20)
#    0.000    2.333    0.000    4.000    0.000   10.667 
#    0.000    1.667    0.000    1.000    0.000    4.667 
#    0.000    0.000    0.000    0.000    0.000    0.000 
#
# Total GULP energy -267891.358894 kJ/mol
# GULP energy per Si atom -5581.069977 kJ/mol
# Density = 1.820506 g / cm^3
# Si number density = 18.246587 Si / 1000 Ang^3
#
#
#
# Elastic Constant Matrix: (Units=GPa)
#
#
# Indices 1 2 3 4 5 6 
#
# 1 71.8635 61.3378 70.3042 0.0000 0.0000 0.0000
# 2 61.3378 71.8635 70.3042 0.0000 0.0000 0.0000
# 3 70.3042 70.3042 187.8256 0.0000 0.0000 0.0000
# 4 0.0000 0.0000 0.0000 63.5391 0.0000 0.0000
# 5 0.0000 0.0000 0.0000 0.0000 63.5391 0.0000
# 6 0.0000 0.0000 0.0000 0.0000 0.0000 22.0362
#
#
#
# Elastic Compliance Matrix: (Units=1/GPa)
#
#
# Indices 1 2 3 4 5 6 
#
# 1 0.053709 -0.041297 -0.004646 0.000000 0.000000 0.000000
# 2 -0.041297 0.053709 -0.004646 0.000000 0.000000 0.000000
# 3 -0.004646 -0.004646 0.008802 0.000000 0.000000 0.000000
# 4 0.000000 0.000000 0.000000 0.015738 0.000000 0.000000
# 5 0.000000 0.000000 0.000000 0.000000 0.015738 0.000000
# 6 0.000000 0.000000 0.000000 0.000000 0.000000 0.045380
#
#
# Mechanical properties :
#
#
# Convention : Reuss Voigt Hill
#
# Bulk Modulus (GPa) = 66.48013 81.71608 74.09810
# Shear Modulus (GPa) = 16.70749 38.46331 27.58540
#
# Velocity S-wave (km/s) = 3.02925 4.59625 3.89242
# Velocity P-wave (km/s) = 6.98202 8.54686 7.80376
#
# Compressibility (1/GPa) = 0.01504209
#
# Stress axis : x y z
#
# Youngs Moduli (GPa) = 18.61896 18.61896 113.61195
#
# Poissons Ratio (x) = 0.76891 0.52780
# Poissons Ratio (y) = 0.76891 0.52780
# Poissons Ratio (z) = 0.08650 0.08650
#
# Static dielectric constant tensor:
#      x y z
#    x 1.610830 0.000000 0.000000 
#    y 0.000000 1.610830 0.000000 
#    z 0.000000 0.000000 1.614620 
# 
# From -- ./inp_files/5964.got.cif
#   From: 2010.05.17/outbox.cif.g08.bks.cpg/sg115_3_cif.got.tgz:5964.got - 2010.05.20 11:07:42.
