data_PCOD9556134
_publ_section_title
;
Structure prediction by ZEFSAII (Michael W. Deem and Ramdas Pophale) SiO2 
 PCOD9556134
Probable space group: P -4 21 C
;
_chemical_formula_sum "Si O2"
_cell_formula_units_Z 36
_cell_length_a 10.487590
_cell_length_b 10.487590
_cell_length_c 10.997279
_cell_angle_alpha 90.000000
_cell_angle_beta 90.000000
_cell_angle_gamma 90.000000
_cell_volume 1209.585703
_symmetry_space_group_name_H-M "P -4 21 C"
_symmetry_group_IT_number 114
_symmetry_cell_setting 'tetragonal'
loop_
_space_group_symop_operation_xyz
x,y,z
y,-x,-z
-x,-y,z
-y,x,-z
1/2+x,1/2-y,1/2-z
1/2-x,1/2+y,1/2-z
1/2-y,1/2-x,1/2+z
1/2+y,1/2+x,1/2+z
loop_
_atom_site_type_symbol
_atom_site_label
_atom_site_fract_x
_atom_site_fract_y
_atom_site_fract_z
Si Si1 0.816291 0.120806 0.311101
Si Si2 0.000000 0.500000 0.782151
Si Si3 0.677066 0.906909 0.431528
Si Si4 0.960200 0.184253 0.938989
Si Si5 0.900220 0.753942 0.328946
O O1 0.561668 0.110089 0.138737
O O2 0.753862 0.039858 0.420143
O O3 0.037971 0.826475 0.321659
O O4 0.824131 0.022364 0.195162
O O5 0.078541 0.586532 0.686384
O O6 0.296283 0.777565 0.280537
O O7 0.798424 0.818887 0.413065
O O8 0.903349 0.321932 0.973572
O O9 0.074280 0.143234 0.030976
#
# Coordination Sequence:
#
# PCOD9556134 Si02
#       5
#     8   4   8   8   8
#     4  11  25  44  84 124 178 222 303 371 457 540
#     4  10  22  38  70 112 160 212 276 354 434 518
#     4  11  24  43  76 120 168 222 283 366 440 529
#     4  11  24  44  77 129 162 222 299 364 429 538
#     4  11  21  44  72 128 157 224 284 365 445 539
#
# _framework density 29.762257999999999
#
# number of rings (size 3 to 8) (size 9 to 14) (size 15 to 20)
#    0.000    1.111    4.444    0.667    9.333    0.000 
#    0.000    4.444    0.000   10.667   11.556    0.000 
#    0.000    0.000    0.000    0.000    0.000    0.000 
#
# Total GULP energy -201248.016430 kJ/mol
# GULP energy per Si atom -5590.222679 kJ/mol
# Density = 2.969452 g / cm^3
# Si number density = 29.762258 Si / 1000 Ang^3
#
#
#
# Elastic Constant Matrix: (Units=GPa)
#
#
# Indices 1 2 3 4 5 6 
#
# 1 160.1507 171.1308 84.4427 0.0000 0.0000 0.0000
# 2 171.1308 160.1507 84.4427 0.0000 0.0000 0.0000
# 3 84.4427 84.4427 120.9330 0.0000 0.0000 0.0000
# 4 0.0000 0.0000 0.0000 20.1366 0.0000 0.0000
# 5 0.0000 0.0000 0.0000 0.0000 20.1366 0.0000
# 6 0.0000 0.0000 0.0000 0.0000 0.0000 107.6685
#
#
#
# Elastic Compliance Matrix: (Units=1/GPa)
#
#
# Indices 1 2 3 4 5 6 
#
# 1 -0.043194 0.047881 -0.003273 0.000000 0.000000 0.000000
# 2 0.047881 -0.043194 -0.003273 0.000000 0.000000 0.000000
# 3 -0.003273 -0.003273 0.012840 0.000000 0.000000 0.000000
# 4 0.000000 0.000000 0.000000 0.049661 0.000000 0.000000
# 5 0.000000 0.000000 0.000000 0.000000 0.049661 0.000000
# 6 0.000000 0.000000 0.000000 0.000000 0.000000 0.009288
#
#
# Mechanical properties :
#
#
# Convention : Reuss Voigt Hill
#
# Bulk Modulus (GPa) = 109.61887 124.58521 117.10204
# Shear Modulus (GPa) = -112.18755 36.33624 -37.92566
#
# Velocity S-wave (km/s) = -6.14625 3.49790 -3.57359
# Velocity P-wave (km/s) = 3.66839 7.63314 4.73327
#
# Compressibility (1/GPa) = 0.00912252
#
# Stress axis : x y z
#
# Youngs Moduli (GPa) = -23.15153 -23.15153 77.88458
#
# Poissons Ratio (x) = 1.10851 0.25490
# Poissons Ratio (y) = 1.10851 0.25490
# Poissons Ratio (z) = -0.07577 -0.07577
#
# Static dielectric constant tensor:
#      x y z
#    x 2.400790 0.000000 0.000000 
#    y 0.000000 2.400790 0.000000 
#    z 0.000000 0.000000 2.616130 
# 
# From -- ./inp_files/2507.got.cif
#   From: 2010.05.17/outbox.cif.g08.bks.cpg/sg114_2_cif.got.tgz:2507.got - 2010.05.20 11:04:54.
