data_PCOD9556445
_publ_section_title
;
Structure prediction by ZEFSAII (Michael W. Deem and Ramdas Pophale) SiO2 
 PCOD9556445
Probable space group: P -4 21 C
;
_chemical_formula_sum "Si O2"
_cell_formula_units_Z 22
_cell_length_a 7.076376
_cell_length_b 7.076376
_cell_length_c 16.703863
_cell_angle_alpha 90.000000
_cell_angle_beta 90.000000
_cell_angle_gamma 90.000000
_cell_volume 836.447565
_symmetry_space_group_name_H-M "P -4 21 C"
_symmetry_group_IT_number 114
_symmetry_cell_setting 'tetragonal'
loop_
_space_group_symop_operation_xyz
x,y,z
y,-x,-z
-x,-y,z
-y,x,-z
1/2+x,1/2-y,1/2-z
1/2-x,1/2+y,1/2-z
1/2-y,1/2-x,1/2+z
1/2+y,1/2+x,1/2+z
loop_
_atom_site_type_symbol
_atom_site_label
_atom_site_fract_x
_atom_site_fract_y
_atom_site_fract_z
Si Si1 0.500000 0.500000 0.000000
Si Si2 0.500000 0.000000 0.764068
Si Si3 0.773986 0.484783 0.464512
Si Si4 0.791231 0.824340 0.651776
O O1 0.362314 0.589800 0.932668
O O2 0.305845 0.031445 0.713400
O O3 0.550087 0.185907 0.815222
O O4 0.678508 0.340946 0.527313
O O5 0.721677 0.398179 0.378623
O O6 0.000000 0.500000 0.474667
#
# Coordination Sequence:
#
# PCOD9556445 Si02
#       4
#     2   4   8   8
#     4  12  28  48  92 128 172 214 312 356 432 500
#     4  12  30  54  86 116 186 220 282 346 472 508
#     4  11  26  48  81 126 168 216 293 366 427 501
#     4  12  28  53  83 128 167 233 282 367 428 539
#
# _framework density 26.301708999999999
#
# number of rings (size 3 to 8) (size 9 to 14) (size 15 to 20)
#    0.000    0.364    1.818    4.364    7.636    6.545 
#    0.000    0.000    0.000    0.000    0.000    0.000 
#    0.000    0.000    0.000    0.000    0.000    0.000 
#
# Total GULP energy -122789.774709 kJ/mol
# GULP energy per Si atom -5581.353396 kJ/mol
# Density = 2.624185 g / cm^3
# Si number density = 26.301709 Si / 1000 Ang^3
#
#
#
# Elastic Constant Matrix: (Units=GPa)
#
#
# Indices 1 2 3 4 5 6 
#
# 1 150.0295 72.9177 69.0331 0.0000 0.0000 0.0000
# 2 72.9177 150.0295 69.0331 0.0000 0.0000 0.0000
# 3 69.0331 69.0331 120.9528 0.0000 0.0000 0.0000
# 4 0.0000 0.0000 0.0000 34.7631 0.0000 0.0000
# 5 0.0000 0.0000 0.0000 0.0000 34.7631 0.0000
# 6 0.0000 0.0000 0.0000 0.0000 0.0000 63.8103
#
#
#
# Elastic Compliance Matrix: (Units=1/GPa)
#
#
# Indices 1 2 3 4 5 6 
#
# 1 0.009953 -0.003015 -0.003959 0.000000 0.000000 0.000000
# 2 -0.003015 0.009953 -0.003959 0.000000 0.000000 0.000000
# 3 -0.003959 -0.003959 0.012787 0.000000 0.000000 0.000000
# 4 0.000000 0.000000 0.000000 0.028766 0.000000 0.000000
# 5 0.000000 0.000000 0.000000 0.000000 0.028766 0.000000
# 6 0.000000 0.000000 0.000000 0.000000 0.000000 0.015671
#
#
# Mechanical properties :
#
#
# Convention : Reuss Voigt Hill
#
# Bulk Modulus (GPa) = 92.38507 93.66438 93.02473
# Shear Modulus (GPa) = 38.05946 40.66916 39.36431
#
# Velocity S-wave (km/s) = 3.80812 3.93651 3.87285
# Velocity P-wave (km/s) = 7.38492 7.50669 7.44605
#
# Compressibility (1/GPa) = 0.01082426
#
# Stress axis : x y z
#
# Youngs Moduli (GPa) = 100.47455 100.47455 78.20221
#
# Poissons Ratio (x) = 0.30297 0.30964
# Poissons Ratio (y) = 0.30297 0.30964
# Poissons Ratio (z) = 0.39783 0.39783
#
# Static dielectric constant tensor:
#      x y z
#    x 2.432380 0.000000 0.000000 
#    y 0.000000 2.432380 0.000000 
#    z 0.000000 0.000000 2.257700 
# 
# From -- ./inp_files/1903.got.cif
#   From: 2010.05.17/outbox.cif.g08.bks.cpg/sg114_1_cif.got.tgz:1903.got - 2010.05.20 11:04:54.
