data_PCOD9556599
_publ_section_title
;
Structure prediction by ZEFSAII (Michael W. Deem and Ramdas Pophale) SiO2 
 PCOD9556599
Probable space group: P -4 M 2
;
_chemical_formula_sum "Si O2"
_cell_formula_units_Z 48
_cell_length_a 14.980683
_cell_length_b 14.980683
_cell_length_c 11.327073
_cell_angle_alpha 90.000000
_cell_angle_beta 90.000000
_cell_angle_gamma 90.000000
_cell_volume 2542.031500
_symmetry_space_group_name_H-M "P -4 M 2"
_symmetry_group_IT_number 115
_symmetry_cell_setting 'tetragonal'
loop_
_space_group_symop_operation_xyz
x,y,z
y,-x,-z
-x,-y,z
-y,x,-z
y,x,-z
-y,-x,-z
-x,y,z
x,-y,z
loop_
_atom_site_type_symbol
_atom_site_label
_atom_site_fract_x
_atom_site_fract_y
_atom_site_fract_z
Si Si1 0.663222 0.393805 0.367139
Si Si2 0.276035 0.100518 0.072987
Si Si3 0.603286 0.764578 0.213387
Si Si4 0.178970 0.897869 0.830421
Si Si5 0.725379 0.835253 0.595132
Si Si6 0.094685 0.398609 0.583850
O O1 0.622977 0.377024 0.500000
O O2 0.663960 0.500000 0.346645
O O3 0.617206 0.336124 0.261847
O O4 0.760047 0.347246 0.370650
O O5 0.334507 0.184622 0.118433
O O6 0.179839 0.109196 0.137751
O O7 0.312690 0.000000 0.093275
O O8 0.252774 0.108600 0.934640
O O9 0.500000 0.775716 0.179598
O O10 0.621571 0.823853 0.330446
O O11 0.223505 0.873343 0.706623
O O12 0.145070 0.000000 0.831105
O O13 0.792296 0.792296 0.500000
O O14 0.668226 0.905613 0.523237
O O15 0.106095 0.500000 0.542131
O O16 0.000000 0.393469 0.648870
#
# Coordination Sequence:
#
# PCOD9556599 Si02
#       6
#     8   8   8   8   8   8
#     4  11  21  35  57  85 122 163 205 253 306 359
#     4  10  21  39  62  87 117 155 200 250 297 349
#     4  11  21  36  57  85 118 155 203 251 300 357
#     4  10  21  38  63  89 118 154 197 245 296 358
#     4  11  19  34  56  83 117 153 189 238 295 362
#     4  10  19  31  50  77 110 147 189 237 289 349
#
# _framework density 18.882535000000001
#
# number of rings (size 3 to 8) (size 9 to 14) (size 15 to 20)
#    0.000    1.500    5.000    2.000    0.000    2.500 
#    0.000    4.167    0.000    2.000    0.000    0.000 
#    0.000    0.000    0.000    0.000    0.000    0.000 
#
# Total GULP energy -267453.116029 kJ/mol
# GULP energy per Si atom -5571.939917 kJ/mol
# Density = 1.883956 g / cm^3
# Si number density = 18.882535 Si / 1000 Ang^3
#
#
#
# Elastic Constant Matrix: (Units=GPa)
#
#
# Indices 1 2 3 4 5 6 
#
# 1 85.6092 6.0564 22.4205 0.0000 0.0000 0.0000
# 2 6.0564 85.6093 22.4206 0.0000 0.0000 0.0000
# 3 22.4205 22.4206 71.3975 0.0000 0.0000 0.0000
# 4 0.0000 0.0000 0.0000 14.0260 0.0000 0.0000
# 5 0.0000 0.0000 0.0000 0.0000 14.0260 0.0000
# 6 0.0000 0.0000 0.0000 0.0000 0.0000 16.7226
#
#
#
# Elastic Compliance Matrix: (Units=1/GPa)
#
#
# Indices 1 2 3 4 5 6 
#
# 1 0.012730 0.000159 -0.004048 0.000000 0.000000 0.000000
# 2 0.000159 0.012730 -0.004048 0.000000 0.000000 0.000000
# 3 -0.004048 -0.004048 0.016548 0.000000 0.000000 0.000000
# 4 0.000000 0.000000 0.000000 0.071296 0.000000 0.000000
# 5 0.000000 0.000000 0.000000 0.000000 0.071296 0.000000
# 6 0.000000 0.000000 0.000000 0.000000 0.000000 0.059799
#
#
# Mechanical properties :
#
#
# Convention : Reuss Voigt Hill
#
# Bulk Modulus (GPa) = 38.26080 38.26791 38.26436
# Shear Modulus (GPa) = 18.58858 21.73615 20.16236
#
# Velocity S-wave (km/s) = 3.14097 3.39650 3.27123
# Velocity P-wave (km/s) = 5.78453 5.97427 5.88017
#
# Compressibility (1/GPa) = 0.02613641
#
# Stress axis : x y z
#
# Youngs Moduli (GPa) = 78.55627 78.55633 60.42975
#
# Poissons Ratio (x) = -0.01253 0.24459
# Poissons Ratio (y) = -0.01253 0.24459
# Poissons Ratio (z) = 0.31796 0.31796
#
# Static dielectric constant tensor:
#      x y z
#    x 1.689650 0.000000 0.000000 
#    y 0.000000 1.689650 0.000000 
#    z 0.000000 0.000000 1.655120 
# 
# From -- ./inp_files/2984.got.cif
#   From: 2010.05.17/outbox.cif.g08.bks.cpg/sg115_2_cif.got.tgz:2984.got - 2010.05.20 11:07:42.
