data_PCOD9556232
_publ_section_title
;
Structure prediction by ZEFSAII (Michael W. Deem and Ramdas Pophale) SiO2 
 PCOD9556232
Probable space group: P -4 21 C
;
_chemical_formula_sum "Si O2"
_cell_formula_units_Z 36
_cell_length_a 8.286905
_cell_length_b 8.286905
_cell_length_c 23.020969
_cell_angle_alpha 90.000000
_cell_angle_beta 90.000000
_cell_angle_gamma 90.000000
_cell_volume 1580.914273
_symmetry_space_group_name_H-M "P -4 21 C"
_symmetry_group_IT_number 114
_symmetry_cell_setting 'tetragonal'
loop_
_space_group_symop_operation_xyz
x,y,z
y,-x,-z
-x,-y,z
-y,x,-z
1/2+x,1/2-y,1/2-z
1/2-x,1/2+y,1/2-z
1/2-y,1/2-x,1/2+z
1/2+y,1/2+x,1/2+z
loop_
_atom_site_type_symbol
_atom_site_label
_atom_site_fract_x
_atom_site_fract_y
_atom_site_fract_z
Si Si1 0.000000 0.000000 0.500000
Si Si2 0.507363 0.753210 0.152861
Si Si3 0.503199 0.239180 0.851045
Si Si4 0.000000 0.500000 0.748713
Si Si5 0.500000 0.000000 0.559483
Si Si6 0.000000 0.000000 0.000000
Si Si7 0.810604 0.315618 0.539502
O O1 0.869816 0.877589 0.470100
O O2 0.374007 0.623724 0.169683
O O3 0.660562 0.657942 0.126386
O O4 0.554530 0.857290 0.208659
O O5 0.429217 0.871878 0.105262
O O6 0.554238 0.138092 0.795490
O O7 0.404252 0.144634 0.900698
O O8 0.592905 0.883972 0.516168
O O9 0.128339 0.110934 0.963199
#
# Coordination Sequence:
#
# PCOD9556232 Si02
#       7
#     2   8   8   4   4   2   8
#     4  12  24  44  72  96 134 196 248 268 336 450
#     4  10  23  42  64  92 130 176 224 280 340 410
#     4  11  22  41  66  93 129 175 226 273 340 424
#     4  11  23  40  64  94 123 165 224 290 342 391
#     4  11  23  42  68  98 139 181 230 284 344 415
#     4  12  28  44  64 108 158 180 224 304 364 398
#     4  12  24  42  68 102 139 185 233 286 348 420
#
# _framework density 22.771630999999999
#
# number of rings (size 3 to 8) (size 9 to 14) (size 15 to 20)
#    0.000    0.889    0.000    8.667    0.000    1.778 
#    0.000    4.444    0.000    0.000    0.000    0.000 
#    0.000    0.000    0.000    0.000    0.000    0.000 
#
# Total GULP energy -200596.774683 kJ/mol
# GULP energy per Si atom -5572.132630 kJ/mol
# Density = 2.271980 g / cm^3
# Si number density = 22.771631 Si / 1000 Ang^3
#
#
#
# Elastic Constant Matrix: (Units=GPa)
#
#
# Indices 1 2 3 4 5 6 
#
# 1 106.6302 55.9136 39.1241 0.0000 0.0000 0.0000
# 2 55.9136 106.6302 39.1241 0.0000 0.0000 0.0000
# 3 39.1241 39.1241 116.9790 0.0000 0.0000 0.0000
# 4 0.0000 0.0000 0.0000 31.9894 0.0000 0.0000
# 5 0.0000 0.0000 0.0000 0.0000 31.9894 0.0000
# 6 0.0000 0.0000 0.0000 0.0000 0.0000 41.3072
#
#
#
# Elastic Compliance Matrix: (Units=1/GPa)
#
#
# Indices 1 2 3 4 5 6 
#
# 1 0.013525 -0.006192 -0.002452 0.000000 0.000000 0.000000
# 2 -0.006192 0.013525 -0.002452 0.000000 0.000000 0.000000
# 3 -0.002452 -0.002452 0.010189 0.000000 0.000000 0.000000
# 4 0.000000 0.000000 0.000000 0.031260 0.000000 0.000000
# 5 0.000000 0.000000 0.000000 0.000000 0.031260 0.000000
# 6 0.000000 0.000000 0.000000 0.000000 0.000000 0.024209
#
#
# Mechanical properties :
#
#
# Convention : Reuss Voigt Hill
#
# Bulk Modulus (GPa) = 66.46861 66.50702 66.48781
# Shear Modulus (GPa) = 33.07354 34.12905 33.60129
#
# Velocity S-wave (km/s) = 3.81517 3.87557 3.84549
# Velocity P-wave (km/s) = 6.97567 7.02113 6.99844
#
# Compressibility (1/GPa) = 0.01504470
#
# Stress axis : x y z
#
# Youngs Moduli (GPa) = 73.93652 73.93652 98.14470
#
# Poissons Ratio (x) = 0.45784 0.24070
# Poissons Ratio (y) = 0.45784 0.24070
# Poissons Ratio (z) = 0.18133 0.18133
#
# Static dielectric constant tensor:
#      x y z
#    x 1.971420 0.000000 0.000000 
#    y 0.000000 1.971420 0.000000 
#    z 0.000000 0.000000 1.815600 
# 
# From -- ./inp_files/3039.got.cif
#   From: 2010.05.17/outbox.cif.g08.bks.cpg/sg114_2_cif.got.tgz:3039.got - 2010.05.20 11:04:54.
