data_PCOD9556185
_publ_section_title
;
Structure prediction by ZEFSAII (Michael W. Deem and Ramdas Pophale) SiO2 
 PCOD9556185
Probable space group: P -4 21 C
;
_chemical_formula_sum "Si O2"
_cell_formula_units_Z 48
_cell_length_a 8.321039
_cell_length_b 8.321039
_cell_length_c 30.466480
_cell_angle_alpha 90.000000
_cell_angle_beta 90.000000
_cell_angle_gamma 90.000000
_cell_volume 2109.489632
_symmetry_space_group_name_H-M "P -4 21 C"
_symmetry_group_IT_number 114
_symmetry_cell_setting 'tetragonal'
loop_
_space_group_symop_operation_xyz
x,y,z
y,-x,-z
-x,-y,z
-y,x,-z
1/2+x,1/2-y,1/2-z
1/2-x,1/2+y,1/2-z
1/2-y,1/2-x,1/2+z
1/2+y,1/2+x,1/2+z
loop_
_atom_site_type_symbol
_atom_site_label
_atom_site_fract_x
_atom_site_fract_y
_atom_site_fract_z
Si Si1 0.748339 0.254071 0.957795
Si Si2 0.110792 0.360728 0.226392
Si Si3 0.785315 0.108328 0.866848
Si Si4 0.000000 0.000000 0.000000
Si Si5 0.000000 0.500000 0.428983
Si Si6 0.500000 0.500000 0.000000
Si Si7 0.369901 0.739891 0.635353
Si Si8 0.398187 0.368509 0.798505
O O1 0.714117 0.208511 0.906788
O O2 0.885495 0.389601 0.956978
O O3 0.592140 0.347328 0.976700
O O4 0.849154 0.100095 0.977393
O O5 0.077991 0.320846 0.175778
O O6 0.277695 0.451659 0.223421
O O7 0.087923 0.208785 0.256527
O O8 0.000000 0.500000 0.244925
O O9 0.946598 0.199896 0.849390
O O10 0.824429 0.931289 0.885283
O O11 0.115556 0.392035 0.398383
O O12 0.233856 0.783353 0.670739
O O13 0.500000 0.500000 0.825163
#
# Coordination Sequence:
#
# PCOD9556185 Si02
#       8
#     8   8   8   2   4   2   8   8
#     4  11  25  47  77 111 150 189 236 294 363 444
#     4  12  25  45  63  96 134 191 240 290 355 419
#     4  10  23  46  71  97 135 192 243 285 346 440
#     4  12  24  52  80 108 140 214 240 268 372 472
#     4  10  22  42  72 110 146 188 232 296 358 426
#     4  12  28  48  76 124 160 178 228 320 376 424
#     4  10  22  42  69  99 140 187 243 295 349 412
#     4  12  27  40  65  97 141 185 241 304 357 413
#
# _framework density 22.754317
#
# number of rings (size 3 to 8) (size 9 to 14) (size 15 to 20)
#    0.000    1.000    1.667    5.000    8.167    1.333 
#    3.000    0.000    0.000    0.000    0.000    0.000 
#    0.000    0.000    0.000    0.000    0.000    0.000 
#
# Total GULP energy -267231.780766 kJ/mol
# GULP energy per Si atom -5567.328766 kJ/mol
# Density = 2.270253 g / cm^3
# Si number density = 22.754317 Si / 1000 Ang^3
#
#
#
# Elastic Constant Matrix: (Units=GPa)
#
#
# Indices 1 2 3 4 5 6 
#
# 1 91.4194 65.1184 46.7085 0.0000 0.0000 0.0000
# 2 65.1184 91.4194 46.7085 0.0000 0.0000 0.0000
# 3 46.7085 46.7085 71.2157 0.0000 0.0000 0.0000
# 4 0.0000 0.0000 0.0000 22.3751 0.0000 0.0000
# 5 0.0000 0.0000 0.0000 0.0000 22.3751 0.0000
# 6 0.0000 0.0000 0.0000 0.0000 0.0000 44.1944
#
#
#
# Elastic Compliance Matrix: (Units=1/GPa)
#
#
# Indices 1 2 3 4 5 6 
#
# 1 0.024259 -0.013762 -0.006885 0.000000 0.000000 0.000000
# 2 -0.013762 0.024259 -0.006885 0.000000 0.000000 0.000000
# 3 -0.006885 -0.006885 0.023073 0.000000 0.000000 0.000000
# 4 0.000000 0.000000 0.000000 0.044693 0.000000 0.000000
# 5 0.000000 0.000000 0.000000 0.000000 0.044693 0.000000
# 6 0.000000 0.000000 0.000000 0.000000 0.000000 0.022627
#
#
# Mechanical properties :
#
#
# Convention : Reuss Voigt Hill
#
# Bulk Modulus (GPa) = 60.50355 63.45834 61.98095
# Shear Modulus (GPa) = 20.47712 24.15687 22.31700
#
# Velocity S-wave (km/s) = 3.00313 3.26182 3.13514
# Velocity P-wave (km/s) = 6.21873 6.49114 6.35640
#
# Compressibility (1/GPa) = 0.01652796
#
# Stress axis : x y z
#
# Youngs Moduli (GPa) = 41.22176 41.22176 43.34147
#
# Poissons Ratio (x) = 0.56731 0.29838
# Poissons Ratio (y) = 0.56731 0.29838
# Poissons Ratio (z) = 0.28379 0.28379
#
# Static dielectric constant tensor:
#      x y z
#    x 1.798550 0.000000 0.000000 
#    y 0.000000 1.798550 0.000000 
#    z 0.000000 0.000000 1.836580 
# 
# From -- ./inp_files/4047.got.cif
#   From: 2010.05.17/outbox.cif.g08.bks.cpg/sg114_3_cif.got.tgz:4047.got - 2010.05.20 11:04:54.
