data_PCOD9556441
_publ_section_title
;
Structure prediction by ZEFSAII (Michael W. Deem and Ramdas Pophale) SiO2 
 PCOD9556441
Probable space group: P -4 21 C
;
_chemical_formula_sum "Si O2"
_cell_formula_units_Z 28
_cell_length_a 7.607926
_cell_length_b 7.607926
_cell_length_c 18.601999
_cell_angle_alpha 90.000000
_cell_angle_beta 90.000000
_cell_angle_gamma 90.000000
_cell_volume 1076.693710
_symmetry_space_group_name_H-M "P -4 21 C"
_symmetry_group_IT_number 114
_symmetry_cell_setting 'tetragonal'
loop_
_space_group_symop_operation_xyz
x,y,z
y,-x,-z
-x,-y,z
-y,x,-z
1/2+x,1/2-y,1/2-z
1/2-x,1/2+y,1/2-z
1/2-y,1/2-x,1/2+z
1/2+y,1/2+x,1/2+z
loop_
_atom_site_type_symbol
_atom_site_label
_atom_site_fract_x
_atom_site_fract_y
_atom_site_fract_z
Si Si1 0.871152 0.715256 0.342167
Si Si2 0.380632 0.733332 0.810376
Si Si3 0.020306 0.734130 0.979341
Si Si4 0.500000 0.000000 0.905924
O O1 0.775901 0.628909 0.273494
O O2 0.827204 0.594648 0.411148
O O3 0.081446 0.743599 0.331583
O O4 0.814420 0.921351 0.336647
O O5 0.360318 0.915926 0.851892
O O6 0.167805 0.879683 0.968947
O O7 0.116162 0.593136 0.031623
#
# Coordination Sequence:
#
# PCOD9556441 Si02
#       4
#     8   8   8   4
#     4  11  26  47  78 118 154 210 260 337 391 479
#     4  11  26  47  78 117 158 201 272 323 403 466
#     4  11  27  49  77 111 160 212 264 322 400 473
#     4  12  26  46  72 116 150 210 256 330 382 476
#
# _framework density 26.00554
#
# number of rings (size 3 to 8) (size 9 to 14) (size 15 to 20)
#    0.000    0.857    2.857    1.714    8.000    3.429 
#    0.000    2.857    0.000    0.000    0.000    0.000 
#    0.000    0.000    0.000    0.000    0.000    0.000 
#
# Total GULP energy -155999.630610 kJ/mol
# GULP energy per Si atom -5571.415379 kJ/mol
# Density = 2.594635 g / cm^3
# Si number density = 26.005540 Si / 1000 Ang^3
#
#
#
# Elastic Constant Matrix: (Units=GPa)
#
#
# Indices 1 2 3 4 5 6 
#
# 1 102.0985 19.3607 77.0489 0.0000 0.0000 0.0000
# 2 19.3607 102.0985 77.0489 0.0000 0.0000 0.0000
# 3 77.0489 77.0489 220.0027 0.0000 0.0000 0.0000
# 4 0.0000 0.0000 0.0000 37.4120 0.0000 0.0000
# 5 0.0000 0.0000 0.0000 0.0000 37.4120 0.0000
# 6 0.0000 0.0000 0.0000 0.0000 0.0000 20.1376
#
#
#
# Elastic Compliance Matrix: (Units=1/GPa)
#
#
# Indices 1 2 3 4 5 6 
#
# 1 0.013452 0.001365 -0.005189 0.000000 0.000000 0.000000
# 2 0.001365 0.013452 -0.005189 0.000000 0.000000 0.000000
# 3 -0.005189 -0.005189 0.008180 0.000000 0.000000 0.000000
# 4 0.000000 0.000000 0.000000 0.026729 0.000000 0.000000
# 5 0.000000 0.000000 0.000000 0.000000 0.026729 0.000000
# 6 0.000000 0.000000 0.000000 0.000000 0.000000 0.049658
#
#
# Mechanical properties :
#
#
# Convention : Reuss Voigt Hill
#
# Bulk Modulus (GPa) = 58.62657 85.67962 72.15309
# Shear Modulus (GPa) = 30.88102 35.70842 33.29472
#
# Velocity S-wave (km/s) = 3.44972 3.70957 3.58200
# Velocity P-wave (km/s) = 6.20163 7.16701 6.70173
#
# Compressibility (1/GPa) = 0.01705711
#
# Stress axis : x y z
#
# Youngs Moduli (GPa) = 74.34101 74.34101 122.24934
#
# Poissons Ratio (x) = -0.10149 0.63436
# Poissons Ratio (y) = -0.10149 0.63436
# Poissons Ratio (z) = 0.38576 0.38576
#
# Static dielectric constant tensor:
#      x y z
#    x 2.400020 0.000000 0.000000 
#    y 0.000000 2.400020 0.000000 
#    z 0.000000 0.000000 1.979640 
# 
# From -- ./inp_files/2429.got.cif
#   From: 2010.05.17/outbox.cif.g08.bks.cpg/sg114_2_cif.got.tgz:2429.got - 2010.05.20 11:04:54.
