data_PCOD9556592
_publ_section_title
;
Structure prediction by ZEFSAII (Michael W. Deem and Ramdas Pophale) SiO2 
 PCOD9556592
Probable space group: P -4 M 2
;
_chemical_formula_sum "Si O2"
_cell_formula_units_Z 56
_cell_length_a 24.899068
_cell_length_b 24.899068
_cell_length_c 5.179364
_cell_angle_alpha 90.000000
_cell_angle_beta 90.000000
_cell_angle_gamma 90.000000
_cell_volume 3211.017085
_symmetry_space_group_name_H-M "P -4 M 2"
_symmetry_group_IT_number 115
_symmetry_cell_setting 'tetragonal'
loop_
_space_group_symop_operation_xyz
x,y,z
y,-x,-z
-x,-y,z
-y,x,-z
y,x,-z
-y,-x,-z
-x,y,z
x,-y,z
loop_
_atom_site_type_symbol
_atom_site_label
_atom_site_fract_x
_atom_site_fract_y
_atom_site_fract_z
Si Si1 0.632628 0.278429 0.511236
Si Si2 0.561535 0.281195 0.005915
Si Si3 0.850615 0.374929 0.471809
Si Si4 0.935975 0.282379 0.495848
Si Si5 0.936800 0.782994 0.984986
Si Si6 0.108932 0.062426 0.761061
Si Si7 0.559306 0.152180 0.023621
O O1 0.687646 0.312355 0.500000
O O2 0.597560 0.295838 0.759433
O O3 0.641244 0.213167 0.521878
O O4 0.595699 0.291648 0.263375
O O5 0.500000 0.302320 0.007767
O O6 0.556498 0.216562 0.991553
O O7 0.893302 0.329219 0.537756
O O8 0.865057 0.398352 0.191638
O O9 0.857170 0.420728 0.687597
O O10 0.930775 0.262658 0.201439
O O11 0.000000 0.294933 0.539288
O O12 0.920005 0.236324 0.702796
O O13 0.914493 0.836435 0.115071
O O14 0.000000 0.794441 0.954995
O O15 0.091494 0.091494 0.500000
O O16 0.116355 0.000000 0.691483
O O17 0.067858 0.067858 0.000000
O O18 0.500000 0.129705 0.978801
#
# Coordination Sequence:
#
# PCOD9556592 Si02
#       7
#     8   8   8   8   8   8   8
#     4  10  19  31  47  72 107 135 156 197 259 308
#     4   9  17  30  49  71  96 131 174 208 234 282
#     4  10  19  31  50  74 100 133 169 205 252 305
#     4  10  19  34  55  74  94 126 175 222 249 283
#     4   9  19  35  53  71  92 122 161 207 249 282
#     4  11  22  36  54  76 102 128 156 194 247 309
#     4   9  17  30  49  72  99 133 169 204 246 297
#
# _framework density 17.439955999999999
#
# number of rings (size 3 to 8) (size 9 to 14) (size 15 to 20)
#    0.000    2.286    0.000    3.429    0.000    6.571 
#    0.000    2.143    0.000    4.286    0.000    0.000 
#    0.000   20.000    0.000    0.000    0.000    0.000 
#
# Total GULP energy -311859.038745 kJ/mol
# GULP energy per Si atom -5568.911406 kJ/mol
# Density = 1.740026 g / cm^3
# Si number density = 17.439956 Si / 1000 Ang^3
#
#
#
# Elastic Constant Matrix: (Units=GPa)
#
#
# Indices 1 2 3 4 5 6 
#
# 1 56.1127 33.8210 7.3956 0.0000 0.0000 0.0000
# 2 33.8210 56.1141 7.3949 0.0000 0.0000 0.0000
# 3 7.3956 7.3949 77.8958 0.0000 0.0000 0.0000
# 4 0.0000 0.0000 0.0000 9.7572 0.0000 0.0000
# 5 0.0000 0.0000 0.0000 0.0000 9.7580 0.0000
# 6 0.0000 0.0000 0.0000 0.0000 0.0000 6.5329
#
#
#
# Elastic Compliance Matrix: (Units=1/GPa)
#
#
# Indices 1 2 3 4 5 6 
#
# 1 0.028077 -0.016781 -0.001073 0.000000 0.000000 0.000000
# 2 -0.016781 0.028077 -0.001072 0.000000 0.000000 0.000000
# 3 -0.001073 -0.001072 0.013041 0.000000 0.000000 0.000000
# 4 0.000000 0.000000 0.000000 0.102488 0.000000 0.000000
# 5 0.000000 0.000000 0.000000 0.000000 0.102480 0.000000
# 6 0.000000 0.000000 0.000000 0.000000 0.000000 0.153071
#
#
# Mechanical properties :
#
#
# Convention : Reuss Voigt Hill
#
# Bulk Modulus (GPa) = 31.90510 31.92727 31.91618
# Shear Modulus (GPa) = 10.51449 14.64370 12.57910
#
# Velocity S-wave (km/s) = 2.45806 2.90084 2.68858
# Velocity P-wave (km/s) = 5.13712 5.43751 5.28945
#
# Compressibility (1/GPa) = 0.03134295
#
# Stress axis : x y z
#
# Youngs Moduli (GPa) = 35.61596 35.61692 76.67956
#
# Poissons Ratio (x) = 0.59770 0.08225
# Poissons Ratio (y) = 0.59768 0.08221
# Poissons Ratio (z) = 0.03820 0.03819
#
# Static dielectric constant tensor:
#      x y z
#    x 1.609780 0.000000 0.000000 
#    y 0.000000 1.609780 0.000000 
#    z 0.000000 0.000000 1.616900 
# 
# From -- ./inp_files/783.got.cif
#   From: 2010.05.17/outbox.cif.g08.bks.cpg/sg115_1_cif.got.tgz:783.got - 2010.05.20 11:07:42.
