data_PCOD9556593
_publ_section_title
;
Structure prediction by ZEFSAII (Michael W. Deem and Ramdas Pophale) SiO2 
 PCOD9556593
Probable space group: P -4 M 2
;
_chemical_formula_sum "Si O2"
_cell_formula_units_Z 64
_cell_length_a 20.385066
_cell_length_b 20.385066
_cell_length_c 9.988769
_cell_angle_alpha 90.000000
_cell_angle_beta 90.000000
_cell_angle_gamma 90.000000
_cell_volume 4150.842106
_symmetry_space_group_name_H-M "P -4 M 2"
_symmetry_group_IT_number 115
_symmetry_cell_setting 'tetragonal'
loop_
_space_group_symop_operation_xyz
x,y,z
y,-x,-z
-x,-y,z
-y,x,-z
y,x,-z
-y,-x,-z
-x,y,z
x,-y,z
loop_
_atom_site_type_symbol
_atom_site_label
_atom_site_fract_x
_atom_site_fract_y
_atom_site_fract_z
Si Si1 0.784580 0.420922 0.050607
Si Si2 0.359559 0.785094 0.241267
Si Si3 0.422620 0.576860 0.157723
Si Si4 0.648620 0.305221 0.732480
Si Si5 0.070650 0.422905 0.461464
Si Si6 0.576577 0.070301 0.948958
Si Si7 0.215778 0.422108 0.472521
Si Si8 0.070779 0.370043 0.757637
O O1 0.779127 0.500000 0.060902
O O2 0.733230 0.384941 0.144680
O O3 0.775167 0.398531 0.897378
O O4 0.858328 0.399683 0.094976
O O5 0.307434 0.726949 0.257425
O O6 0.407296 0.781458 0.369562
O O7 0.332320 0.859943 0.240175
O O8 0.500000 0.585714 0.179087
O O9 0.406679 0.500000 0.180867
O O10 0.379273 0.622821 0.250308
O O11 0.409809 0.590192 0.000000
O O12 0.619859 0.270747 0.601666
O O13 0.069818 0.500000 0.431768
O O14 0.143201 0.400049 0.420372
O O15 0.070640 0.412003 0.621871
O O16 0.000000 0.395385 0.413261
O O17 0.500000 0.068821 0.914998
O O18 0.585089 0.072001 0.110096
O O19 0.605600 0.000000 0.904641
O O20 0.223051 0.500000 0.446953
O O21 0.000000 0.334132 0.760736
#
# Coordination Sequence:
#
# PCOD9556593 Si02
#       8
#     8   8   8   8   8   8   8   8
#     4  10  19  31  48  66  84 110 143 176 209 248
#     4  10  20  32  46  64  83 106 140 178 214 254
#     4   9  18  32  48  62  74  95 136 189 233 260
#     4  12  22  32  44  63  88 111 136 172 217 261
#     4   8  13  23  41  63  83 105 135 166 194 233
#     4   8  13  22  38  62  88 109 131 163 202 241
#     4  10  20  33  47  63  86 113 138 169 212 256
#     4   8  13  23  41  62  81 100 127 168 213 248
#
# _framework density 15.418559
#
# number of rings (size 3 to 8) (size 9 to 14) (size 15 to 20)
#    0.000    2.625    0.000    3.750    0.000    6.500 
#    0.000    0.625    0.000    3.000    0.000    1.750 
#    0.000    0.000    0.000    0.000    0.000    2.500 
#
# Total GULP energy -356298.760347 kJ/mol
# GULP energy per Si atom -5567.168130 kJ/mol
# Density = 1.538347 g / cm^3
# Si number density = 15.418559 Si / 1000 Ang^3
#
#
#
# Elastic Constant Matrix: (Units=GPa)
#
#
# Indices 1 2 3 4 5 6 
#
# 1 54.4073 26.1204 7.1654 0.0000 0.0000 0.0000
# 2 26.1204 54.4086 7.1657 0.0000 0.0000 0.0000
# 3 7.1654 7.1657 54.5525 0.0000 0.0000 0.0000
# 4 0.0000 0.0000 0.0000 55.5962 0.0000 0.0000
# 5 0.0000 0.0000 0.0000 0.0000 55.5955 0.0000
# 6 0.0000 0.0000 0.0000 0.0000 0.0000 8.4576
#
#
#
# Elastic Compliance Matrix: (Units=1/GPa)
#
#
# Indices 1 2 3 4 5 6 
#
# 1 0.024033 -0.011318 -0.001670 0.000000 0.000000 0.000000
# 2 -0.011318 0.024033 -0.001670 0.000000 0.000000 0.000000
# 3 -0.001670 -0.001670 0.018770 0.000000 0.000000 0.000000
# 4 0.000000 0.000000 0.000000 0.017987 0.000000 0.000000
# 5 0.000000 0.000000 0.000000 0.000000 0.017987 0.000000
# 6 0.000000 0.000000 0.000000 0.000000 0.000000 0.118237
#
#
# Mechanical properties :
#
#
# Convention : Reuss Voigt Hill
#
# Bulk Modulus (GPa) = 26.65278 27.14124 26.89701
# Shear Modulus (GPa) = 19.02081 32.12432 25.57256
#
# Velocity S-wave (km/s) = 3.51612 4.56947 4.07696
# Velocity P-wave (km/s) = 5.81445 6.74398 6.29639
#
# Compressibility (1/GPa) = 0.03751954
#
# Stress axis : x y z
#
# Youngs Moduli (GPa) = 41.60860 41.60956 53.27730
#
# Poissons Ratio (x) = 0.47094 0.08898
# Poissons Ratio (y) = 0.47093 0.08898
# Poissons Ratio (z) = 0.06949 0.06950
#
# Static dielectric constant tensor:
#      x y z
#    x 1.525140 0.000000 0.000000 
#    y 0.000000 1.525140 0.000000 
#    z 0.000000 0.000000 1.557800 
# 
# From -- ./inp_files/2159.got.cif
#   From: 2010.05.17/outbox.cif.g08.bks.cpg/sg115_2_cif.got.tgz:2159.got - 2010.05.20 11:07:42.
