data_PCOD9556670
_publ_section_title
;
Structure prediction by ZEFSAII (Michael W. Deem and Ramdas Pophale) SiO2 
 PCOD9556670
Probable space group: P -4 M 2
;
_chemical_formula_sum "Si O2"
_cell_formula_units_Z 56
_cell_length_a 14.513701
_cell_length_b 14.513701
_cell_length_c 12.400183
_cell_angle_alpha 90.000000
_cell_angle_beta 90.000000
_cell_angle_gamma 90.000000
_cell_volume 2612.067756
_symmetry_space_group_name_H-M "P -4 M 2"
_symmetry_group_IT_number 115
_symmetry_cell_setting 'tetragonal'
loop_
_space_group_symop_operation_xyz
x,y,z
y,-x,-z
-x,-y,z
-y,x,-z
y,x,-z
-y,-x,-z
-x,y,z
x,-y,z
loop_
_atom_site_type_symbol
_atom_site_label
_atom_site_fract_x
_atom_site_fract_y
_atom_site_fract_z
Si Si1 0.141990 0.388494 0.030575
Si Si2 0.735631 0.108667 0.179179
Si Si3 0.684989 0.205656 0.572552
Si Si4 0.398229 0.655843 0.892331
Si Si5 0.399054 0.388326 0.337339
Si Si6 0.251619 0.897049 0.786615
Si Si7 0.889825 0.398192 0.626368
O O1 0.127859 0.500000 0.024416
O O2 0.119553 0.336034 0.919850
O O3 0.247369 0.366324 0.061952
O O4 0.094743 0.335415 0.128738
O O5 0.824709 0.174466 0.171078
O O6 0.679569 0.136240 0.287113
O O7 0.760379 0.000000 0.185414
O O8 0.775173 0.224828 0.500000
O O9 0.648096 0.305985 0.609102
O O10 0.707586 0.145247 0.676446
O O11 0.616685 0.156971 0.488957
O O12 0.500000 0.677209 0.851528
O O13 0.354816 0.609461 0.788026
O O14 0.402848 0.597153 0.000000
O O15 0.500000 0.357810 0.379287
O O16 0.400595 0.500000 0.345647
O O17 0.213503 0.000000 0.769603
O O18 0.867424 0.500000 0.669154
O O19 0.000000 0.392600 0.613415
#
# Coordination Sequence:
#
# PCOD9556670 Si02
#       7
#     8   8   8   8   8   8   8
#     4  11  24  42  69 104 143 184 224 275 339 410
#     4  11  24  46  73 103 142 180 226 289 355 425
#     4  12  24  43  65  94 137 182 232 295 352 409
#     4  10  19  33  55  85 128 174 225 275 323 386
#     4  10  22  39  59  89 132 184 239 286 333 398
#     4  12  26  46  73 103 138 179 231 294 358 423
#     4  10  22  42  71 103 135 180 235 290 354 424
#
# _framework density 21.438953000000001
#
# number of rings (size 3 to 8) (size 9 to 14) (size 15 to 20)
#    0.000    1.143    2.857    3.429    0.000    4.429 
#    0.000    0.714    0.000    1.714    0.000    0.000 
#    0.000    0.000    0.000    0.000    0.000    0.000 
#
# Total GULP energy -312575.104656 kJ/mol
# GULP energy per Si atom -5581.698297 kJ/mol
# Density = 2.139016 g / cm^3
# Si number density = 21.438953 Si / 1000 Ang^3
#
#
#
# Elastic Constant Matrix: (Units=GPa)
#
#
# Indices 1 2 3 4 5 6 
#
# 1 141.6450 53.4203 48.0618 0.0000 0.0000 0.0000
# 2 53.4203 141.6455 48.0619 0.0000 0.0000 0.0000
# 3 48.0618 48.0619 144.4270 0.0000 0.0000 0.0000
# 4 0.0000 0.0000 0.0000 29.1213 0.0000 0.0000
# 5 0.0000 0.0000 0.0000 0.0000 29.1219 0.0000
# 6 0.0000 0.0000 0.0000 0.0000 0.0000 2.2905
#
#
#
# Elastic Compliance Matrix: (Units=1/GPa)
#
#
# Indices 1 2 3 4 5 6 
#
# 1 0.008733 -0.002601 -0.002041 0.000000 0.000000 0.000000
# 2 -0.002601 0.008733 -0.002041 0.000000 0.000000 0.000000
# 3 -0.002041 -0.002041 0.008282 0.000000 0.000000 0.000000
# 4 0.000000 0.000000 0.000000 0.034339 0.000000 0.000000
# 5 0.000000 0.000000 0.000000 0.000000 0.034338 0.000000
# 6 0.000000 0.000000 0.000000 0.000000 0.000000 0.436587
#
#
# Mechanical properties :
#
#
# Convention : Reuss Voigt Hill
#
# Bulk Modulus (GPa) = 80.75110 80.75616 80.75363
# Shear Modulus (GPa) = 9.11568 30.65165 19.88366
#
# Velocity S-wave (km/s) = 2.06426 3.78526 3.04872
# Velocity P-wave (km/s) = 6.59006 7.54016 7.08106
#
# Compressibility (1/GPa) = 0.01238373
#
# Stress axis : x y z
#
# Youngs Moduli (GPa) = 114.50341 114.50384 120.74331
#
# Poissons Ratio (x) = 0.29786 0.24639
# Poissons Ratio (y) = 0.29786 0.24639
# Poissons Ratio (z) = 0.23366 0.23366
#
# Static dielectric constant tensor:
#      x y z
#    x 1.806190 0.000000 0.000000 
#    y 0.000000 1.806190 0.000000 
#    z 0.000000 0.000000 1.848340 
# 
# From -- ./inp_files/3118.got.cif
#   From: 2010.05.17/outbox.cif.g08.bks.cpg/sg115_2_cif.got.tgz:3118.got - 2010.05.20 11:07:42.
