data_PCOD9556402
_publ_section_title
;
Structure prediction by ZEFSAII (Michael W. Deem and Ramdas Pophale) SiO2 
 PCOD9556402
Probable space group: P -4 21 C
;
_chemical_formula_sum "Si O2"
_cell_formula_units_Z 32
_cell_length_a 8.876875
_cell_length_b 8.876875
_cell_length_c 18.695598
_cell_angle_alpha 90.000000
_cell_angle_beta 90.000000
_cell_angle_gamma 90.000000
_cell_volume 1473.192740
_symmetry_space_group_name_H-M "P -4 21 C"
_symmetry_group_IT_number 114
_symmetry_cell_setting 'tetragonal'
loop_
_space_group_symop_operation_xyz
x,y,z
y,-x,-z
-x,-y,z
-y,x,-z
1/2+x,1/2-y,1/2-z
1/2-x,1/2+y,1/2-z
1/2-y,1/2-x,1/2+z
1/2+y,1/2+x,1/2+z
loop_
_atom_site_type_symbol
_atom_site_label
_atom_site_fract_x
_atom_site_fract_y
_atom_site_fract_z
Si Si1 0.230117 0.947668 0.973631
Si Si2 0.068227 0.167232 0.185676
Si Si3 0.459806 0.720528 0.029501
Si Si4 0.334542 0.071044 0.678618
O O1 0.242044 0.978815 0.889711
O O2 0.377518 0.871846 0.005267
O O3 0.093807 0.827043 0.984060
O O4 0.249221 0.159627 0.187872
O O5 0.003514 0.256818 0.252718
O O6 0.000000 0.000000 0.185605
O O7 0.530245 0.741495 0.107270
O O8 0.588175 0.664686 0.974821
O O9 0.500000 0.000000 0.670802
#
# Coordination Sequence:
#
# PCOD9556402 Si02
#       4
#     8   8   8   8
#     4  11  23  45  75 109 146 202 250 308 373 441
#     4  12  26  49  75 107 153 192 254 314 386 463
#     4  11  26  46  72 109 150 193 252 309 369 447
#     4  12  28  49  74 111 149 204 251 313 391 459
#
# _framework density 21.721530000000001
#
# number of rings (size 3 to 8) (size 9 to 14) (size 15 to 20)
#    0.000    0.500    5.000    3.000    7.000    2.000 
#    0.000    0.000    0.000    0.000    0.000    0.000 
#    0.000    0.000    0.000    0.000    0.000    0.000 
#
# Total GULP energy -179302.900229 kJ/mol
# GULP energy per Si atom -5603.215632 kJ/mol
# Density = 2.167209 g / cm^3
# Si number density = 21.721530 Si / 1000 Ang^3
#
#
#
# Elastic Constant Matrix: (Units=GPa)
#
#
# Indices 1 2 3 4 5 6 
#
# 1 85.0534 67.0879 65.3626 0.0000 0.0000 0.0000
# 2 67.0879 85.0534 65.3626 0.0000 0.0000 0.0000
# 3 65.3626 65.3626 173.0803 0.0000 0.0000 0.0000
# 4 0.0000 0.0000 0.0000 25.5086 0.0000 0.0000
# 5 0.0000 0.0000 0.0000 0.0000 25.5086 0.0000
# 6 0.0000 0.0000 0.0000 0.0000 0.0000 51.3136
#
#
#
# Elastic Compliance Matrix: (Units=1/GPa)
#
#
# Indices 1 2 3 4 5 6 
#
# 1 0.032696 -0.022966 -0.003675 0.000000 0.000000 0.000000
# 2 -0.022966 0.032696 -0.003675 0.000000 0.000000 0.000000
# 3 -0.003675 -0.003675 0.008553 0.000000 0.000000 0.000000
# 4 0.000000 0.000000 0.000000 0.039202 0.000000 0.000000
# 5 0.000000 0.000000 0.000000 0.000000 0.039202 0.000000
# 6 0.000000 0.000000 0.000000 0.000000 0.000000 0.019488
#
#
# Mechanical properties :
#
#
# Convention : Reuss Voigt Hill
#
# Bulk Modulus (GPa) = 75.10243 82.09036 78.59640
# Shear Modulus (GPa) = 21.10529 30.15774 25.63152
#
# Velocity S-wave (km/s) = 3.12048 3.73014 3.43885
# Velocity P-wave (km/s) = 6.90169 7.51173 7.21316
#
# Compressibility (1/GPa) = 0.01331515
#
# Stress axis : x y z
#
# Youngs Moduli (GPa) = 30.58449 30.58449 116.91844
#
# Poissons Ratio (x) = 0.70241 0.42962
# Poissons Ratio (y) = 0.70241 0.42962
# Poissons Ratio (z) = 0.11238 0.11238
#
# Static dielectric constant tensor:
#      x y z
#    x 1.809290 0.000000 0.000000 
#    y 0.000000 1.809290 0.000000 
#    z 0.000000 0.000000 1.736820 
# 
# From -- ./inp_files/2831.got.cif
#   From: 2010.05.17/outbox.cif.g08.bks.cpg/sg114_2_cif.got.tgz:2831.got - 2010.05.20 11:04:54.
