data_PCOD9556583
_publ_section_title
;
Structure prediction by ZEFSAII (Michael W. Deem and Ramdas Pophale) SiO2 
 PCOD9556583
Probable space group: P -4 M 2
;
_chemical_formula_sum "Si O2"
_cell_formula_units_Z 56
_cell_length_a 14.143329
_cell_length_b 14.143329
_cell_length_c 18.192464
_cell_angle_alpha 90.000000
_cell_angle_beta 90.000000
_cell_angle_gamma 90.000000
_cell_volume 3639.106890
_symmetry_space_group_name_H-M "P -4 M 2"
_symmetry_group_IT_number 115
_symmetry_cell_setting 'tetragonal'
loop_
_space_group_symop_operation_xyz
x,y,z
y,-x,-z
-x,-y,z
-y,x,-z
y,x,-z
-y,-x,-z
-x,y,z
x,-y,z
loop_
_atom_site_type_symbol
_atom_site_label
_atom_site_fract_x
_atom_site_fract_y
_atom_site_fract_z
Si Si1 0.745844 0.608865 0.590321
Si Si2 0.611557 0.781075 0.577129
Si Si3 0.795743 0.113763 0.928243
Si Si4 0.193682 0.110336 0.218301
Si Si5 0.283936 0.112490 0.701926
Si Si6 0.393142 0.885373 0.849344
Si Si7 0.606794 0.109960 0.275590
O O1 0.713875 0.500000 0.591832
O O2 0.658354 0.679935 0.595934
O O3 0.793447 0.624410 0.510477
O O4 0.820458 0.622374 0.655762
O O5 0.500000 0.784937 0.593134
O O6 0.669321 0.854142 0.626633
O O7 0.856090 0.146521 0.857442
O O8 0.686962 0.139626 0.908870
O O9 0.802081 0.000000 0.935598
O O10 0.835777 0.164224 0.000000
O O11 0.154860 0.180927 0.280771
O O12 0.307465 0.122810 0.218806
O O13 0.173246 0.000000 0.231828
O O14 0.351756 0.143733 0.769772
O O15 0.277018 0.000000 0.704759
O O16 0.500000 0.851068 0.861522
O O17 0.396362 0.000000 0.848426
O O18 0.500000 0.126482 0.247128
O O19 0.611064 0.000000 0.299752
#
# Coordination Sequence:
#
# PCOD9556583 Si02
#       7
#     8   8   8   8   8   8   8
#     4   9  18  32  48  67  94 123 156 199 247 295
#     4  10  19  30  46  69  95 124 158 197 245 292
#     4  10  20  32  48  72 101 129 160 196 234 282
#     4  10  19  32  50  71  96 127 161 194 236 289
#     4  10  19  30  46  71  98 125 161 200 235 278
#     4   8  15  29  47  66  92 124 154 190 237 281
#     4   9  17  31  51  71  92 122 159 200 244 287
#
# _framework density 15.388389999999999
#
# number of rings (size 3 to 8) (size 9 to 14) (size 15 to 20)
#    0.000    2.571    1.429    2.143    0.000    3.571 
#    0.000    3.571    0.000    3.429    0.000    0.000 
#    0.000    1.714    0.000    0.000    0.000    0.000 
#
# Total GULP energy -311799.114628 kJ/mol
# GULP energy per Si atom -5567.841333 kJ/mol
# Density = 1.535337 g / cm^3
# Si number density = 15.388390 Si / 1000 Ang^3
#
#
#
# Elastic Constant Matrix: (Units=GPa)
#
#
# Indices 1 2 3 4 5 6 
#
# 1 86.0193 32.0838 21.9942 0.0000 0.0000 0.0000
# 2 32.0838 86.0187 21.9940 0.0000 0.0000 0.0000
# 3 21.9942 21.9940 26.8164 0.0000 0.0000 0.0000
# 4 0.0000 0.0000 0.0000 20.0765 0.0000 0.0000
# 5 0.0000 0.0000 0.0000 0.0000 20.0772 0.0000
# 6 0.0000 0.0000 0.0000 0.0000 0.0000 18.4323
#
#
#
# Elastic Compliance Matrix: (Units=1/GPa)
#
#
# Indices 1 2 3 4 5 6 
#
# 1 0.015366 -0.003175 -0.009999 0.000000 0.000000 0.000000
# 2 -0.003175 0.015366 -0.009999 0.000000 0.000000 0.000000
# 3 -0.009999 -0.009999 0.053693 0.000000 0.000000 0.000000
# 4 0.000000 0.000000 0.000000 0.049810 0.000000 0.000000
# 5 0.000000 0.000000 0.000000 0.000000 0.049808 0.000000
# 6 0.000000 0.000000 0.000000 0.000000 0.000000 0.054252
#
#
# Mechanical properties :
#
#
# Convention : Reuss Voigt Hill
#
# Bulk Modulus (GPa) = 26.26112 38.99983 32.63047
# Shear Modulus (GPa) = 16.81614 19.90269 18.35942
#
# Velocity S-wave (km/s) = 3.30931 3.60023 3.45783
# Velocity P-wave (km/s) = 5.63069 6.53306 6.09859
#
# Compressibility (1/GPa) = 0.03807911
#
# Stress axis : x y z
#
# Youngs Moduli (GPa) = 65.07848 65.07814 18.62452
#
# Poissons Ratio (x) = 0.20660 0.18623
# Poissons Ratio (y) = 0.20660 0.18623
# Poissons Ratio (z) = 0.65073 0.65072
#
# Static dielectric constant tensor:
#      x y z
#    x 1.514470 0.000000 0.000000 
#    y 0.000000 1.514470 0.000000 
#    z 0.000000 0.000000 1.500030 
# 
# From -- ./inp_files/3876.got.cif
#   From: 2010.05.17/outbox.cif.g08.bks.cpg/sg115_2_cif.got.tgz:3876.got - 2010.05.20 11:07:42.
