data_PCOD9556168
_publ_section_title
;
Structure prediction by ZEFSAII (Michael W. Deem and Ramdas Pophale) SiO2 
 PCOD9556168
Probable space group: P -4 21 C
;
_chemical_formula_sum "Si O2"
_cell_formula_units_Z 44
_cell_length_a 8.859208
_cell_length_b 8.859208
_cell_length_c 27.963346
_cell_angle_alpha 90.000000
_cell_angle_beta 90.000000
_cell_angle_gamma 90.000000
_cell_volume 2194.719049
_symmetry_space_group_name_H-M "P -4 21 C"
_symmetry_group_IT_number 114
_symmetry_cell_setting 'tetragonal'
loop_
_space_group_symop_operation_xyz
x,y,z
y,-x,-z
-x,-y,z
-y,x,-z
1/2+x,1/2-y,1/2-z
1/2-x,1/2+y,1/2-z
1/2-y,1/2-x,1/2+z
1/2+y,1/2+x,1/2+z
loop_
_atom_site_type_symbol
_atom_site_label
_atom_site_fract_x
_atom_site_fract_y
_atom_site_fract_z
Si Si1 0.500393 0.830514 0.388898
Si Si2 0.151610 0.285043 0.850043
Si Si3 0.749542 0.470095 0.503019
Si Si4 0.500000 0.000000 0.073092
Si Si5 0.316385 0.003309 0.733982
Si Si6 0.172634 0.818216 0.815064
O O1 0.653100 0.751060 0.371567
O O2 0.499092 0.823581 0.445883
O O3 0.356805 0.749133 0.365511
O O4 0.500000 0.000000 0.371164
O O5 0.107079 0.406146 0.891002
O O6 0.220586 0.380419 0.806745
O O7 0.000996 0.208221 0.828312
O O8 0.622993 0.341381 0.509850
O O9 0.872700 0.432590 0.462517
O O10 0.223135 0.954696 0.780450
O O11 0.500000 0.000000 0.742130
O O12 0.277257 0.166298 0.712222
#
# Coordination Sequence:
#
# PCOD9556168 Si02
#       6
#     8   8   8   4   8   8
#     4  12  25  42  62  99 135 173 224 283 340 405
#     4  11  23  44  70  96 135 181 224 281 344 415
#     4  11  24  39  69  99 128 172 226 279 339 408
#     4  12  20  44  70  98 138 176 230 286 344 416
#     4  10  22  41  65  98 131 176 220 280 343 408
#     4  11  22  40  67  96 131 174 229 278 340 416
#
# _framework density 20.048124999999999
#
# number of rings (size 3 to 8) (size 9 to 14) (size 15 to 20)
#    0.000    0.909    5.455    3.273    2.545    2.909 
#    0.000    4.545    0.000    2.727    0.000    0.000 
#    0.000    0.000    0.000    0.000    0.000    0.000 
#
# Total GULP energy -245829.182217 kJ/mol
# GULP energy per Si atom -5587.026869 kJ/mol
# Density = 2.000249 g / cm^3
# Si number density = 20.048125 Si / 1000 Ang^3
#
#
#
# Elastic Constant Matrix: (Units=GPa)
#
#
# Indices 1 2 3 4 5 6 
#
# 1 73.7957 40.7260 27.2624 0.0000 0.0000 0.0000
# 2 40.7260 73.7957 27.2624 0.0000 0.0000 0.0000
# 3 27.2624 27.2624 123.7619 0.0000 0.0000 0.0000
# 4 0.0000 0.0000 0.0000 37.3118 0.0000 0.0000
# 5 0.0000 0.0000 0.0000 0.0000 37.3118 0.0000
# 6 0.0000 0.0000 0.0000 0.0000 0.0000 27.9981
#
#
#
# Elastic Compliance Matrix: (Units=1/GPa)
#
#
# Indices 1 2 3 4 5 6 
#
# 1 0.019997 -0.010242 -0.002149 0.000000 0.000000 0.000000
# 2 -0.010242 0.019997 -0.002149 0.000000 0.000000 0.000000
# 3 -0.002149 -0.002149 0.009027 0.000000 0.000000 0.000000
# 4 0.000000 0.000000 0.000000 0.026801 0.000000 0.000000
# 5 0.000000 0.000000 0.000000 0.000000 0.026801 0.000000
# 6 0.000000 0.000000 0.000000 0.000000 0.000000 0.035717
#
#
# Mechanical properties :
#
#
# Convention : Reuss Voigt Hill
#
# Bulk Modulus (GPa) = 50.14685 51.31721 50.73203
# Shear Modulus (GPa) = 28.72465 32.26453 30.49459
#
# Velocity S-wave (km/s) = 3.78932 4.01603 3.90432
# Velocity P-wave (km/s) = 6.64927 6.86711 6.75907
#
# Compressibility (1/GPa) = 0.01994143
#
# Stress axis : x y z
#
# Youngs Moduli (GPa) = 50.00726 50.00726 110.78200
#
# Poissons Ratio (x) = 0.51218 0.23805
# Poissons Ratio (y) = 0.51218 0.23805
# Poissons Ratio (z) = 0.10746 0.10746
#
# Static dielectric constant tensor:
#      x y z
#    x 1.740770 0.000000 0.000000 
#    y 0.000000 1.740770 0.000000 
#    z 0.000000 0.000000 1.721880 
# 
# From -- ./inp_files/3828.got.cif
#   From: 2010.05.17/outbox.cif.g08.bks.cpg/sg114_2_cif.got.tgz:3828.got - 2010.05.20 11:04:54.
