data_PCOD9556438
_publ_section_title
;
Structure prediction by ZEFSAII (Michael W. Deem and Ramdas Pophale) SiO2 
 PCOD9556438
Probable space group: P -4 21 C
;
_chemical_formula_sum "Si O2"
_cell_formula_units_Z 28
_cell_length_a 8.539493
_cell_length_b 8.539493
_cell_length_c 17.394455
_cell_angle_alpha 90.000000
_cell_angle_beta 90.000000
_cell_angle_gamma 90.000000
_cell_volume 1268.454810
_symmetry_space_group_name_H-M "P -4 21 C"
_symmetry_group_IT_number 114
_symmetry_cell_setting 'tetragonal'
loop_
_space_group_symop_operation_xyz
x,y,z
y,-x,-z
-x,-y,z
-y,x,-z
1/2+x,1/2-y,1/2-z
1/2-x,1/2+y,1/2-z
1/2-y,1/2-x,1/2+z
1/2+y,1/2+x,1/2+z
loop_
_atom_site_type_symbol
_atom_site_label
_atom_site_fract_x
_atom_site_fract_y
_atom_site_fract_z
Si Si1 0.097927 0.657476 0.161775
Si Si2 0.072698 0.756152 0.996758
Si Si3 0.565540 0.332632 0.218124
Si Si4 0.500000 0.000000 0.130444
O O1 0.143750 0.676777 0.072829
O O2 0.249837 0.646671 0.214577
O O3 0.000000 0.500000 0.167513
O O4 0.001438 0.802064 0.196914
O O5 0.903700 0.820654 0.022877
O O6 0.042665 0.643802 0.925612
O O7 0.500000 0.500000 0.187659
O O8 0.532913 0.164481 0.175490
#
# Coordination Sequence:
#
# PCOD9556438 Si02
#       4
#     8   8   8   4
#     4  12  26  49  74 109 145 197 247 307 379 448
#     4  11  26  45  74 103 146 191 241 303 375 443
#     4  12  29  47  76 108 151 194 251 314 373 453
#     4  12  26  50  72 112 150 190 256 308 376 452
#
# _framework density 22.074103000000001
#
# number of rings (size 3 to 8) (size 9 to 14) (size 15 to 20)
#    0.000    0.286    5.714    1.714   12.000    0.000 
#    0.000    0.000    0.000    0.000    0.000    0.000 
#    0.000    0.000    0.000    0.000    0.000    0.000 
#
# Total GULP energy -156436.246378 kJ/mol
# GULP energy per Si atom -5587.008799 kJ/mol
# Density = 2.202386 g / cm^3
# Si number density = 22.074103 Si / 1000 Ang^3
#
#
#
# Elastic Constant Matrix: (Units=GPa)
#
#
# Indices 1 2 3 4 5 6 
#
# 1 71.3171 -7.4333 -10.0267 0.0000 0.0000 0.0000
# 2 -7.4333 71.3171 -10.0267 0.0000 0.0000 0.0000
# 3 -10.0267 -10.0267 56.0568 0.0000 0.0000 0.0000
# 4 0.0000 0.0000 0.0000 -8.8983 0.0000 0.0000
# 5 0.0000 0.0000 0.0000 0.0000 -8.8983 0.0000
# 6 0.0000 0.0000 0.0000 0.0000 0.0000 22.5140
#
#
#
# Elastic Compliance Matrix: (Units=1/GPa)
#
#
# Indices 1 2 3 4 5 6 
#
# 1 0.014641 0.001943 0.002966 0.000000 0.000000 0.000000
# 2 0.001943 0.014641 0.002966 0.000000 0.000000 0.000000
# 3 0.002966 0.002966 0.018900 0.000000 0.000000 0.000000
# 4 0.000000 0.000000 0.000000 -0.112381 0.000000 0.000000
# 5 0.000000 0.000000 0.000000 0.000000 -0.112381 0.000000
# 6 0.000000 0.000000 0.000000 0.000000 0.000000 0.044417
#
#
# Mechanical properties :
#
#
# Convention : Reuss Voigt Hill
#
# Bulk Modulus (GPa) = 15.64084 15.96862 15.80473
# Shear Modulus (GPa) = -39.49396 16.02198 -11.73599
#
# Velocity S-wave (km/s) = -4.23443 2.69704 -2.30828
# Velocity P-wave (km/s) = 4.09953 4.11686 0.26676
#
# Compressibility (1/GPa) = 0.06393518
#
# Stress axis : x y z
#
# Youngs Moduli (GPa) = 68.29912 68.29912 52.90933
#
# Poissons Ratio (x) = -0.13271 -0.15695
# Poissons Ratio (y) = -0.13271 -0.15695
# Poissons Ratio (z) = -0.20260 -0.20260
#
# Static dielectric constant tensor:
#      x y z
#    x 1.815970 0.000000 0.000000 
#    y 0.000000 1.815970 0.000000 
#    z 0.000000 0.000000 1.857220 
# 
# From -- ./inp_files/2434.got.cif
#   From: 2010.05.17/outbox.cif.g08.bks.cpg/sg114_2_cif.got.tgz:2434.got - 2010.05.20 11:04:54.
