data_PCOD9556436
_publ_section_title
;
Structure prediction by ZEFSAII (Michael W. Deem and Ramdas Pophale) SiO2 
 PCOD9556436
Probable space group: P -4 21 C
;
_chemical_formula_sum "Si O2"
_cell_formula_units_Z 26
_cell_length_a 11.291600
_cell_length_b 11.291600
_cell_length_c 8.334099
_cell_angle_alpha 90.000000
_cell_angle_beta 90.000000
_cell_angle_gamma 90.000000
_cell_volume 1062.599544
_symmetry_space_group_name_H-M "P -4 21 C"
_symmetry_group_IT_number 114
_symmetry_cell_setting 'tetragonal'
loop_
_space_group_symop_operation_xyz
x,y,z
y,-x,-z
-x,-y,z
-y,x,-z
1/2+x,1/2-y,1/2-z
1/2-x,1/2+y,1/2-z
1/2-y,1/2-x,1/2+z
1/2+y,1/2+x,1/2+z
loop_
_atom_site_type_symbol
_atom_site_label
_atom_site_fract_x
_atom_site_fract_y
_atom_site_fract_z
Si Si1 0.434337 0.122456 0.446560
Si Si2 0.335909 0.466416 0.409596
Si Si3 0.425357 0.289939 0.145356
Si Si4 0.000000 0.000000 0.500000
O O1 0.509599 0.198921 0.573152
O O2 0.449119 0.195066 0.283251
O O3 0.297063 0.117514 0.502972
O O4 0.500000 0.000000 0.431130
O O5 0.394284 0.596274 0.446548
O O6 0.355265 0.392475 0.247349
O O7 0.530213 0.376135 0.085824
#
# Coordination Sequence:
#
# PCOD9556436 Si02
#       4
#     8   8   8   2
#     4  11  25  49  76 117 156 199 253 329 389 451
#     4   9  20  46  74 105 149 208 250 307 381 452
#     4  11  26  48  77 111 151 202 259 314 383 463
#     4  12  28  52  78 116 144 212 274 300 388 488
#
# _framework density 24.468297
#
# number of rings (size 3 to 8) (size 9 to 14) (size 15 to 20)
#    0.000    1.538    0.000    4.615    4.308    4.923 
#   33.231    0.000    0.000    0.000    0.000    0.000 
#    0.000    0.000    0.000    0.000    0.000    0.000 
#
# Total GULP energy -144796.693146 kJ/mol
# GULP energy per Si atom -5569.103583 kJ/mol
# Density = 2.441261 g / cm^3
# Si number density = 24.468297 Si / 1000 Ang^3
#
#
#
# Elastic Constant Matrix: (Units=GPa)
#
#
# Indices 1 2 3 4 5 6 
#
# 1 133.3749 81.1502 44.7172 0.0000 0.0000 0.0000
# 2 81.1502 133.3749 44.7172 0.0000 0.0000 0.0000
# 3 44.7172 44.7172 92.9963 0.0000 0.0000 0.0000
# 4 0.0000 0.0000 0.0000 16.6094 0.0000 0.0000
# 5 0.0000 0.0000 0.0000 0.0000 16.6094 0.0000
# 6 0.0000 0.0000 0.0000 0.0000 0.0000 21.2089
#
#
#
# Elastic Compliance Matrix: (Units=1/GPa)
#
#
# Indices 1 2 3 4 5 6 
#
# 1 0.012489 -0.006659 -0.002803 0.000000 0.000000 0.000000
# 2 -0.006659 0.012489 -0.002803 0.000000 0.000000 0.000000
# 3 -0.002803 -0.002803 0.013449 0.000000 0.000000 0.000000
# 4 0.000000 0.000000 0.000000 0.060207 0.000000 0.000000
# 5 0.000000 0.000000 0.000000 0.000000 0.060207 0.000000
# 6 0.000000 0.000000 0.000000 0.000000 0.000000 0.047150
#
#
# Mechanical properties :
#
#
# Convention : Reuss Voigt Hill
#
# Bulk Modulus (GPa) = 71.96423 77.87951 74.92187
# Shear Modulus (GPa) = 21.26258 23.49629 22.37944
#
# Velocity S-wave (km/s) = 2.95105 3.10219 3.02757
# Velocity P-wave (km/s) = 6.40989 6.68800 6.55042
#
# Compressibility (1/GPa) = 0.01389579
#
# Stress axis : x y z
#
# Youngs Moduli (GPa) = 80.06974 80.06974 74.35394
#
# Poissons Ratio (x) = 0.53318 0.20845
# Poissons Ratio (y) = 0.53318 0.20845
# Poissons Ratio (z) = 0.22447 0.22447
#
# Static dielectric constant tensor:
#      x y z
#    x 2.052100 0.000000 0.000000 
#    y 0.000000 2.052100 0.000000 
#    z 0.000000 0.000000 2.197070 
# 
# From -- ./inp_files/483.got.cif
#   From: 2010.05.17/outbox.cif.g08.bks.cpg/sg114_1_cif.got.tgz:483.got - 2010.05.20 11:04:54.
