data_PCOD9556723
_publ_section_title
;
Structure prediction by ZEFSAII (Michael W. Deem and Ramdas Pophale) SiO2 
 PCOD9556723
Probable space group: P -4 M 2
;
_chemical_formula_sum "Si O2"
_cell_formula_units_Z 44
_cell_length_a 9.191517
_cell_length_b 9.191517
_cell_length_c 29.592608
_cell_angle_alpha 90.000000
_cell_angle_beta 90.000000
_cell_angle_gamma 90.000000
_cell_volume 2500.101443
_symmetry_space_group_name_H-M "P -4 M 2"
_symmetry_group_IT_number 115
_symmetry_cell_setting 'tetragonal'
loop_
_space_group_symop_operation_xyz
x,y,z
y,-x,-z
-x,-y,z
-y,x,-z
y,x,-z
-y,-x,-z
-x,y,z
x,-y,z
loop_
_atom_site_type_symbol
_atom_site_label
_atom_site_fract_x
_atom_site_fract_y
_atom_site_fract_z
Si Si1 0.672215 0.325613 0.584062
Si Si2 0.826989 0.826989 0.500000
Si Si3 0.825380 0.328606 0.958154
Si Si4 0.829342 0.325690 0.676770
Si Si5 0.829149 0.823674 0.232477
Si Si6 0.176966 0.169747 0.867186
O O1 0.500000 0.297708 0.582731
O O2 0.694158 0.500000 0.578569
O O3 0.752787 0.242627 0.543979
O O4 0.739362 0.283209 0.632500
O O5 0.000000 0.801429 0.501174
O O6 0.796688 0.500000 0.959101
O O7 0.775195 0.261059 0.910373
O O8 0.000000 0.306771 0.961399
O O9 0.750000 0.250001 0.000000
O O10 0.822559 0.500000 0.681082
O O11 0.773382 0.255423 0.723242
O O12 0.000000 0.285784 0.670514
O O13 0.779080 0.773725 0.182640
O O14 0.000000 0.789446 0.236385
O O15 0.816286 0.000000 0.232337
O O16 0.000000 0.174866 0.866616
O O17 0.217170 0.000000 0.872448
#
# Coordination Sequence:
#
# PCOD9556723 Si02
#       6
#     8   4   8   8   8   8
#     4  10  21  37  56  77 103 137 174 209 247 294
#     4  11  24  39  56  80 106 131 164 209 258 304
#     4  10  20  32  48  71  97 127 164 205 249 298
#     4   9  17  29  47  72 101 132 165 203 246 290
#     4   8  14  25  43  69  99 128 159 199 246 291
#     4   8  14  26  45  69  96 125 159 202 250 296
#
# _framework density 17.599284000000001
#
# number of rings (size 3 to 8) (size 9 to 14) (size 15 to 20)
#    0.000    2.818    0.000    2.727    0.000    5.455 
#    0.000    5.455    0.000    1.091    0.000    5.091 
#    0.000    0.000    0.000    0.000    0.000    0.000 
#
# Total GULP energy -245253.551000 kJ/mol
# GULP energy per Si atom -5573.944341 kJ/mol
# Density = 1.755923 g / cm^3
# Si number density = 17.599284 Si / 1000 Ang^3
#
#
#
# Elastic Constant Matrix: (Units=GPa)
#
#
# Indices 1 2 3 4 5 6 
#
# 1 47.4290 47.7370 77.9778 0.0000 0.0000 0.0000
# 2 47.7370 47.4316 77.9798 0.0000 0.0000 0.0000
# 3 77.9778 77.9798 225.9510 0.0000 0.0000 0.0000
# 4 0.0000 0.0000 0.0000 -39.0038 0.0000 0.0000
# 5 0.0000 0.0000 0.0000 0.0000 -39.0007 0.0000
# 6 0.0000 0.0000 0.0000 0.0000 0.0000 16.3776
#
#
#
# Elastic Compliance Matrix: (Units=1/GPa)
#
#
# Indices 1 2 3 4 5 6 
#
# 1 -1.618472 1.642607 -0.008344 0.000000 0.000000 0.000000
# 2 1.642607 -1.618368 -0.008351 0.000000 0.000000 0.000000
# 3 -0.008344 -0.008351 0.010187 0.000000 0.000000 0.000000
# 4 0.000000 0.000000 0.000000 -0.025639 0.000000 0.000000
# 5 0.000000 0.000000 0.000000 0.000000 -0.025641 0.000000
# 6 0.000000 0.000000 0.000000 0.000000 0.000000 0.061059
#
#
# Mechanical properties :
#
#
# Convention : Reuss Voigt Hill
#
# Bulk Modulus (GPa) = 39.72611 80.91119 60.31865
# Shear Modulus (GPa) = -0.77396 -4.51758 -2.64577
#
# Velocity S-wave (km/s) = -0.66387 -1.60390 -1.22744
# Velocity P-wave (km/s) = 4.69403 6.53023 5.68673
#
# Compressibility (1/GPa) = 0.02517236
#
# Stress axis : x y z
#
# Youngs Moduli (GPa) = -0.61787 -0.61791 98.16141
#
# Poissons Ratio (x) = 1.01498 0.81901
# Poissons Ratio (y) = 1.01491 0.81976
# Poissons Ratio (z) = -0.00516 -0.00516
#
# Static dielectric constant tensor:
#      x y z
#    x 1.585560 0.000000 0.000000 
#    y 0.000000 1.585560 0.000000 
#    z 0.000000 0.000000 1.601960 
# 
# From -- ./inp_files/5805.got.cif
#   From: 2010.05.17/outbox.cif.g08.bks.cpg/sg115_3_cif.got.tgz:5805.got - 2010.05.20 11:07:42.
