data_PCOD9556121
_publ_section_title
;
Structure prediction by ZEFSAII (Michael W. Deem and Ramdas Pophale) SiO2 
 PCOD9556121
Probable space group: P -4 21 C
;
_chemical_formula_sum "Si O2"
_cell_formula_units_Z 40
_cell_length_a 8.554163
_cell_length_b 8.554163
_cell_length_c 29.822444
_cell_angle_alpha 90.000000
_cell_angle_beta 90.000000
_cell_angle_gamma 90.000000
_cell_volume 2182.218709
_symmetry_space_group_name_H-M "P -4 21 C"
_symmetry_group_IT_number 114
_symmetry_cell_setting 'tetragonal'
loop_
_space_group_symop_operation_xyz
x,y,z
y,-x,-z
-x,-y,z
-y,x,-z
1/2+x,1/2-y,1/2-z
1/2-x,1/2+y,1/2-z
1/2-y,1/2-x,1/2+z
1/2+y,1/2+x,1/2+z
loop_
_atom_site_type_symbol
_atom_site_label
_atom_site_fract_x
_atom_site_fract_y
_atom_site_fract_z
Si Si1 0.541657 0.319112 0.190042
Si Si2 0.500000 0.000000 0.325816
Si Si3 0.500000 0.500000 0.345979
Si Si4 0.633805 0.394916 0.033867
Si Si5 0.236263 0.713899 0.618600
Si Si6 0.226384 0.802393 0.783090
O O1 0.500000 0.500000 0.181503
O O2 0.626408 0.246173 0.147076
O O3 0.379755 0.240321 0.205449
O O4 0.663393 0.307642 0.231248
O O5 0.617043 0.901819 0.357196
O O6 0.394496 0.884419 0.296288
O O7 0.604805 0.614196 0.375662
O O8 0.615311 0.404717 0.313364
O O9 0.500000 0.500000 0.059079
O O10 0.742450 0.309202 0.068171
O O11 0.525193 0.292870 0.999917
#
# Coordination Sequence:
#
# PCOD9556121 Si02
#       6
#     8   4   4   8   8   8
#     4  12  24  36  63  79 122 165 224 249 298 353
#     4  10  22  34  62  78 124 160 208 246 302 366
#     4  10  24  38  54  86 135 150 201 252 310 360
#     4   6  16  32  63  96 112 134 193 262 282 356
#     4  11  20  39  59  93 117 164 202 248 311 365
#     4  11  23  38  51  87 117 170 203 263 294 341
#
# _framework density 18.329968999999998
#
# number of rings (size 3 to 8) (size 9 to 14) (size 15 to 20)
#    1.200    0.800    3.000    3.000    0.000    0.800 
#    0.000    0.000    0.000    7.200    0.000    5.600 
#    0.000    0.000    0.000    0.000    0.000    0.000 
#
# Total GULP energy -222956.600997 kJ/mol
# GULP energy per Si atom -5573.915025 kJ/mol
# Density = 1.828825 g / cm^3
# Si number density = 18.329969 Si / 1000 Ang^3
#
#
#
# Elastic Constant Matrix: (Units=GPa)
#
#
# Indices 1 2 3 4 5 6 
#
# 1 82.5206 22.3621 30.1037 0.0000 0.0000 0.0000
# 2 22.3621 82.5206 30.1037 0.0000 0.0000 0.0000
# 3 30.1037 30.1037 103.4906 0.0000 0.0000 0.0000
# 4 0.0000 0.0000 0.0000 22.4214 0.0000 0.0000
# 5 0.0000 0.0000 0.0000 0.0000 22.4214 0.0000
# 6 0.0000 0.0000 0.0000 0.0000 0.0000 24.2478
#
#
#
# Elastic Compliance Matrix: (Units=1/GPa)
#
#
# Indices 1 2 3 4 5 6 
#
# 1 0.014034 -0.002589 -0.003329 0.000000 0.000000 0.000000
# 2 -0.002589 0.014034 -0.003329 0.000000 0.000000 0.000000
# 3 -0.003329 -0.003329 0.011600 0.000000 0.000000 0.000000
# 4 0.000000 0.000000 0.000000 0.044600 0.000000 0.000000
# 5 0.000000 0.000000 0.000000 0.000000 0.044600 0.000000
# 6 0.000000 0.000000 0.000000 0.000000 0.000000 0.041241
#
#
# Mechanical properties :
#
#
# Convention : Reuss Voigt Hill
#
# Bulk Modulus (GPa) = 47.22880 48.18566 47.70723
# Shear Modulus (GPa) = 25.55431 26.21561 25.88496
#
# Velocity S-wave (km/s) = 3.73785 3.78591 3.76196
# Velocity P-wave (km/s) = 6.66712 6.74209 6.70471
#
# Compressibility (1/GPa) = 0.02117352
#
# Stress axis : x y z
#
# Youngs Moduli (GPa) = 71.25447 71.25447 86.20975
#
# Poissons Ratio (x) = 0.18445 0.28702
# Poissons Ratio (y) = 0.18445 0.28702
# Poissons Ratio (z) = 0.23723 0.23723
#
# Static dielectric constant tensor:
#      x y z
#    x 1.644790 0.000000 0.000000 
#    y 0.000000 1.644790 0.000000 
#    z 0.000000 0.000000 1.607010 
# 
# From -- ./inp_files/3687.got.cif
#   From: 2010.05.17/outbox.cif.g08.bks.cpg/sg114_2_cif.got.tgz:3687.got - 2010.05.20 11:04:54.
