data_PCOD9556886
_publ_section_title
;
Structure prediction by ZEFSAII (Michael W. Deem and Ramdas Pophale) SiO2 
 PCOD9556886
Probable space group: P -4 M 2
;
_chemical_formula_sum "Si O2"
_cell_formula_units_Z 48
_cell_length_a 9.202068
_cell_length_b 9.202068
_cell_length_c 31.726194
_cell_angle_alpha 90.000000
_cell_angle_beta 90.000000
_cell_angle_gamma 90.000000
_cell_volume 2686.512416
_symmetry_space_group_name_H-M "P -4 M 2"
_symmetry_group_IT_number 115
_symmetry_cell_setting 'tetragonal'
loop_
_space_group_symop_operation_xyz
x,y,z
y,-x,-z
-x,-y,z
-y,x,-z
y,x,-z
-y,-x,-z
-x,y,z
x,-y,z
loop_
_atom_site_type_symbol
_atom_site_label
_atom_site_fract_x
_atom_site_fract_y
_atom_site_fract_z
Si Si1 0.167120 0.323121 0.709939
Si Si2 0.173183 0.672050 0.961215
Si Si3 0.327682 0.673757 0.795746
Si Si4 0.828082 0.173423 0.126402
Si Si5 0.174529 0.828948 0.452169
Si Si6 0.674745 0.670272 0.375142
O O1 0.168077 0.500000 0.709578
O O2 0.252156 0.279432 0.752065
O O3 0.245823 0.276440 0.667036
O O4 0.000000 0.275168 0.711069
O O5 0.199469 0.500000 0.957908
O O6 0.213081 0.750731 0.917520
O O7 0.000000 0.694482 0.967769
O O8 0.259375 0.740626 0.000000
O O9 0.500000 0.697688 0.793429
O O10 0.303142 0.500000 0.800793
O O11 0.258110 0.756740 0.834956
O O12 0.000000 0.201384 0.123730
O O13 0.806861 0.000000 0.132669
O O14 0.214731 0.785270 0.500000
O O15 0.252181 0.737515 0.416319
O O16 0.000000 0.814977 0.448839
O O17 0.209675 0.000000 0.446998
O O18 0.500000 0.685966 0.378401
O O19 0.707689 0.500000 0.371211
#
# Coordination Sequence:
#
# PCOD9556886 Si02
#       6
#     8   8   8   8   8   8
#     4   9  17  31  53  78 104 138 178 217 259 310
#     4  10  21  37  58  83 110 142 180 221 266 316
#     4  10  20  34  54  80 109 140 175 218 267 315
#     4  10  21  37  57  80 107 141 180 220 263 313
#     4   9  19  36  55  74  99 134 176 219 262 310
#     4  10  20  33  51  78 110 139 170 212 261 313
#
# _framework density 17.867031000000001
#
# number of rings (size 3 to 8) (size 9 to 14) (size 15 to 20)
#    0.000    2.333    0.000    3.000    0.000    7.667 
#    0.000    3.333    0.000    5.000    0.000    0.000 
#    0.000    0.000    0.000    0.000    0.000    0.000 
#
# Total GULP energy -267969.969889 kJ/mol
# GULP energy per Si atom -5582.707706 kJ/mol
# Density = 1.782636 g / cm^3
# Si number density = 17.867031 Si / 1000 Ang^3
#
#
#
# Elastic Constant Matrix: (Units=GPa)
#
#
# Indices 1 2 3 4 5 6 
#
# 1 77.0132 65.8952 95.5439 0.0000 0.0000 0.0000
# 2 65.8952 77.0132 95.5451 0.0000 0.0000 0.0000
# 3 95.5439 95.5451 210.4000 0.0000 0.0000 0.0000
# 4 0.0000 0.0000 0.0000 37.3809 0.0000 0.0000
# 5 0.0000 0.0000 0.0000 0.0000 37.3808 0.0000
# 6 0.0000 0.0000 0.0000 0.0000 0.0000 26.9288
#
#
#
# Elastic Compliance Matrix: (Units=1/GPa)
#
#
# Indices 1 2 3 4 5 6 
#
# 1 0.053879 -0.036065 -0.008089 0.000000 0.000000 0.000000
# 2 -0.036065 0.053880 -0.008090 0.000000 0.000000 0.000000
# 3 -0.008089 -0.008090 0.012100 0.000000 0.000000 0.000000
# 4 0.000000 0.000000 0.000000 0.026752 0.000000 0.000000
# 5 0.000000 0.000000 0.000000 0.000000 0.026752 0.000000
# 6 0.000000 0.000000 0.000000 0.000000 0.000000 0.037135
#
#
# Mechanical properties :
#
#
# Convention : Reuss Voigt Hill
#
# Bulk Modulus (GPa) = 65.06035 97.59942 81.32989
# Shear Modulus (GPa) = 15.61962 27.50092 21.56027
#
# Velocity S-wave (km/s) = 2.95992 3.92752 3.47754
# Velocity P-wave (km/s) = 6.94076 8.67820 7.85765
#
# Compressibility (1/GPa) = 0.01537035
#
# Stress axis : x y z
#
# Youngs Moduli (GPa) = 18.56019 18.55960 82.64337
#
# Poissons Ratio (x) = 0.66935 0.66852
# Poissons Ratio (y) = 0.66937 0.66863
# Poissons Ratio (z) = 0.15014 0.15016
#
# Static dielectric constant tensor:
#      x y z
#    x 1.596380 0.000000 0.000000 
#    y 0.000000 1.596380 0.000000 
#    z 0.000000 0.000000 1.577760 
# 
# From -- ./inp_files/6054.got.cif
#   From: 2010.05.17/outbox.cif.g08.bks.cpg/sg115_4_cif.got.tgz:6054.got - 2010.05.20 11:07:42.
