data_PCOD9556827
_publ_section_title
;
Structure prediction by ZEFSAII (Michael W. Deem and Ramdas Pophale) SiO2 
 PCOD9556827
Probable space group: P -4 M 2
;
_chemical_formula_sum "Si O2"
_cell_formula_units_Z 48
_cell_length_a 9.345776
_cell_length_b 9.345776
_cell_length_c 32.083744
_cell_angle_alpha 90.000000
_cell_angle_beta 90.000000
_cell_angle_gamma 90.000000
_cell_volume 2802.307426
_symmetry_space_group_name_H-M "P -4 M 2"
_symmetry_group_IT_number 115
_symmetry_cell_setting 'tetragonal'
loop_
_space_group_symop_operation_xyz
x,y,z
y,-x,-z
-x,-y,z
-y,x,-z
y,x,-z
-y,-x,-z
-x,y,z
x,-y,z
loop_
_atom_site_type_symbol
_atom_site_label
_atom_site_fract_x
_atom_site_fract_y
_atom_site_fract_z
Si Si1 0.170107 0.171264 0.286546
Si Si2 0.671951 0.332041 0.212424
Si Si3 0.825648 0.834608 0.954298
Si Si4 0.173879 0.835541 0.380242
Si Si5 0.828283 0.331125 0.462712
Si Si6 0.168438 0.328774 0.871424
O O1 0.253761 0.255014 0.251166
O O2 0.217955 0.209618 0.333684
O O3 0.000000 0.199338 0.283087
O O4 0.190029 0.000000 0.282091
O O5 0.500000 0.316211 0.215883
O O6 0.705816 0.500000 0.211698
O O7 0.716187 0.256986 0.169129
O O8 0.781872 0.744705 0.914156
O O9 0.000000 0.832720 0.955697
O O10 0.781809 0.000000 0.949449
O O11 0.779803 0.779803 0.000000
O O12 0.217608 0.735837 0.418363
O O13 0.000000 0.836469 0.379399
O O14 0.219505 0.000000 0.387428
O O15 0.749176 0.250825 0.500000
O O16 0.800318 0.500000 0.463793
O O17 0.000000 0.309540 0.466735
O O18 0.180083 0.500000 0.875690
O O19 0.000000 0.294376 0.865209
#
# Coordination Sequence:
#
# PCOD9556827 Si02
#       6
#     8   8   8   8   8   8
#     4   9  18  33  54  79 102 124 157 202 248 294
#     4  10  21  35  49  68  98 134 168 201 240 288
#     4   8  14  26  45  68  92 117 147 187 236 287
#     4   8  15  30  52  76 100 126 159 201 246 290
#     4  10  20  33  51  75 101 131 167 203 241 287
#     4   9  17  30  48  67  88 119 159 198 235 279
#
# _framework density 17.128740000000001
#
# number of rings (size 3 to 8) (size 9 to 14) (size 15 to 20)
#    0.000    3.000    0.000    2.500    0.000    3.667 
#    0.000    5.000    0.000    2.000    0.000    0.000 
#    0.000    0.000    0.000    0.000    0.000    0.000 
#
# Total GULP energy -267478.203839 kJ/mol
# GULP energy per Si atom -5572.462580 kJ/mol
# Density = 1.708975 g / cm^3
# Si number density = 17.128740 Si / 1000 Ang^3
#
#
#
# Elastic Constant Matrix: (Units=GPa)
#
#
# Indices 1 2 3 4 5 6 
#
# 1 43.5497 42.5949 76.6065 0.0000 0.0000 0.0000
# 2 42.5949 43.5512 76.6073 0.0000 0.0000 0.0000
# 3 76.6065 76.6073 213.5920 0.0000 0.0000 0.0000
# 4 0.0000 0.0000 0.0000 -16.5464 0.0000 0.0000
# 5 0.0000 0.0000 0.0000 0.0000 -16.5451 0.0000
# 6 0.0000 0.0000 0.0000 0.0000 0.0000 19.4303
#
#
#
# Elastic Compliance Matrix: (Units=1/GPa)
#
#
# Indices 1 2 3 4 5 6 
#
# 1 0.539317 -0.507242 -0.011502 0.000000 0.000000 0.000000
# 2 -0.507242 0.539283 -0.011494 0.000000 0.000000 0.000000
# 3 -0.011502 -0.011494 0.012929 0.000000 0.000000 0.000000
# 4 0.000000 0.000000 0.000000 -0.060436 0.000000 0.000000
# 5 0.000000 0.000000 0.000000 0.000000 -0.060441 0.000000
# 6 0.000000 0.000000 0.000000 0.000000 0.000000 0.051466
#
#
# Mechanical properties :
#
#
# Convention : Reuss Voigt Hill
#
# Bulk Modulus (GPa) = 32.20239 76.92337 54.56288
# Shear Modulus (GPa) = 2.38898 4.26005 3.32451
#
# Velocity S-wave (km/s) = 1.18226 1.57876 1.39467
# Velocity P-wave (km/s) = 4.55024 6.95196 5.87514
#
# Compressibility (1/GPa) = 0.03105360
#
# Stress axis : x y z
#
# Youngs Moduli (GPa) = 1.85420 1.85431 77.34289
#
# Poissons Ratio (x) = 0.94059 0.88958
# Poissons Ratio (y) = 0.94053 0.88897
# Poissons Ratio (z) = 0.02133 0.02131
#
# Static dielectric constant tensor:
#      x y z
#    x 1.566900 0.000000 0.000000 
#    y 0.000000 1.566900 0.000000 
#    z 0.000000 0.000000 1.578110 
# 
# From -- ./inp_files/5984.got.cif
#   From: 2010.05.17/outbox.cif.g08.bks.cpg/sg115_3_cif.got.tgz:5984.got - 2010.05.20 11:07:42.
