data_PCOD9556755
_publ_section_title
;
Structure prediction by ZEFSAII (Michael W. Deem and Ramdas Pophale) SiO2 
 PCOD9556755
Probable space group: P -4 M 2
;
_chemical_formula_sum "Si O2"
_cell_formula_units_Z 44
_cell_length_a 9.426062
_cell_length_b 9.426062
_cell_length_c 29.019093
_cell_angle_alpha 90.000000
_cell_angle_beta 90.000000
_cell_angle_gamma 90.000000
_cell_volume 2578.365125
_symmetry_space_group_name_H-M "P -4 M 2"
_symmetry_group_IT_number 115
_symmetry_cell_setting 'tetragonal'
loop_
_space_group_symop_operation_xyz
x,y,z
y,-x,-z
-x,-y,z
-y,x,-z
y,x,-z
-y,-x,-z
-x,y,z
x,-y,z
loop_
_atom_site_type_symbol
_atom_site_label
_atom_site_fract_x
_atom_site_fract_y
_atom_site_fract_z
Si Si1 0.166638 0.829492 0.367355
Si Si2 0.330619 0.169190 0.173354
Si Si3 0.668109 0.331892 0.000000
Si Si4 0.669254 0.332076 0.552917
Si Si5 0.827581 0.662884 0.722714
Si Si6 0.670040 0.833278 0.906863
O O1 0.243164 0.754311 0.409840
O O2 0.238255 0.782666 0.319245
O O3 0.000000 0.798576 0.367127
O O4 0.184758 0.000000 0.371056
O O5 0.500000 0.191770 0.167772
O O6 0.293227 0.215234 0.225657
O O7 0.243658 0.251603 0.134994
O O8 0.305665 0.000000 0.169485
O O9 0.708025 0.242545 0.955013
O O10 0.500000 0.310616 0.009041
O O11 0.705654 0.294347 0.500000
O O12 0.500000 0.311482 0.558300
O O13 0.697622 0.500000 0.558949
O O14 0.782399 0.500000 0.714755
O O15 0.000000 0.662478 0.723322
O O16 0.500000 0.818092 0.901353
O O17 0.703797 0.000000 0.908293
#
# Coordination Sequence:
#
# PCOD9556755 Si02
#       6
#     8   8   4   8   8   8
#     4  10  20  32  49  76 106 133 163 202 248 298
#     4   9  18  33  54  78 101 129 169 212 249 291
#     4   9  18  34  54  71  92 130 174 209 244 291
#     4   9  19  36  55  73  95 127 168 210 250 295
#     4   8  15  30  51  73  98 131 171 209 244 288
#     4  10  21  35  51  75 106 135 164 203 251 300
#
# _framework density 17.065076999999999
#
# number of rings (size 3 to 8) (size 9 to 14) (size 15 to 20)
#    0.000    2.818    0.000    2.727    0.000    5.091 
#    0.000    7.273    0.000    1.091    0.000    0.000 
#    0.000    0.000    0.000    0.000    0.000    0.000 
#
# Total GULP energy -245341.432465 kJ/mol
# GULP energy per Si atom -5575.941647 kJ/mol
# Density = 1.702624 g / cm^3
# Si number density = 17.065077 Si / 1000 Ang^3
#
#
#
# Elastic Constant Matrix: (Units=GPa)
#
#
# Indices 1 2 3 4 5 6 
#
# 1 62.5644 57.7814 97.6753 0.0000 0.0000 0.0000
# 2 57.7814 62.5648 97.6753 0.0000 0.0000 0.0000
# 3 97.6753 97.6753 210.5082 0.0000 0.0000 0.0000
# 4 0.0000 0.0000 0.0000 40.8288 0.0000 0.0000
# 5 0.0000 0.0000 0.0000 0.0000 40.8298 0.0000
# 6 0.0000 0.0000 0.0000 0.0000 0.0000 26.8008
#
#
#
# Elastic Compliance Matrix: (Units=1/GPa)
#
#
# Indices 1 2 3 4 5 6 
#
# 1 0.121366 -0.087699 -0.015621 0.000000 0.000000 0.000000
# 2 -0.087699 0.121364 -0.015620 0.000000 0.000000 0.000000
# 3 -0.015621 -0.015620 0.019246 0.000000 0.000000 0.000000
# 4 0.000000 0.000000 0.000000 0.024493 0.000000 0.000000
# 5 0.000000 0.000000 0.000000 0.000000 0.024492 0.000000
# 6 0.000000 0.000000 0.000000 0.000000 0.000000 0.037312
#
#
# Mechanical properties :
#
#
# Convention : Reuss Voigt Hill
#
# Bulk Modulus (GPa) = 41.50300 93.54459 67.52380
# Shear Modulus (GPa) = 8.41487 27.19224 17.80355
#
# Velocity S-wave (km/s) = 2.22300 3.99613 3.23348
# Velocity P-wave (km/s) = 5.56437 8.73083 7.32085
#
# Compressibility (1/GPa) = 0.02409464
#
# Stress axis : x y z
#
# Youngs Moduli (GPa) = 8.23952 8.23969 51.95767
#
# Poissons Ratio (x) = 0.72262 0.81165
# Poissons Ratio (y) = 0.72260 0.81159
# Poissons Ratio (z) = 0.12871 0.12871
#
# Static dielectric constant tensor:
#      x y z
#    x 1.563940 0.000000 0.000000 
#    y 0.000000 1.563940 0.000000 
#    z 0.000000 0.000000 1.563120 
# 
# From -- ./inp_files/5748.got.cif
#   From: 2010.05.17/outbox.cif.g08.bks.cpg/sg115_3_cif.got.tgz:5748.got - 2010.05.20 11:07:42.
