data_PCOD9556079
_publ_section_title
;
Structure prediction by ZEFSAII (Michael W. Deem and Ramdas Pophale) SiO2 
 PCOD9556079
Probable space group: P -4 21 C
;
_chemical_formula_sum "Si O2"
_cell_formula_units_Z 60
_cell_length_a 12.040092
_cell_length_b 12.040092
_cell_length_c 19.463861
_cell_angle_alpha 90.000000
_cell_angle_beta 90.000000
_cell_angle_gamma 90.000000
_cell_volume 2821.555552
_symmetry_space_group_name_H-M "P -4 21 C"
_symmetry_group_IT_number 114
_symmetry_cell_setting 'tetragonal'
loop_
_space_group_symop_operation_xyz
x,y,z
y,-x,-z
-x,-y,z
-y,x,-z
1/2+x,1/2-y,1/2-z
1/2-x,1/2+y,1/2-z
1/2-y,1/2-x,1/2+z
1/2+y,1/2+x,1/2+z
loop_
_atom_site_type_symbol
_atom_site_label
_atom_site_fract_x
_atom_site_fract_y
_atom_site_fract_z
Si Si1 0.034753 0.739541 0.924644
Si Si2 0.408488 0.710418 0.709331
Si Si3 0.162845 0.255208 0.017968
Si Si4 0.398521 0.560803 0.178594
Si Si5 0.500000 0.000000 0.126385
Si Si6 0.128789 0.491607 0.617627
Si Si7 0.441092 0.810996 0.233888
Si Si8 0.799264 0.276377 0.605661
O O1 0.010618 0.608177 0.920629
O O2 0.003229 0.776804 0.848017
O O3 0.945908 0.790573 0.977693
O O4 0.157601 0.775608 0.942186
O O5 0.466834 0.630653 0.764282
O O6 0.374921 0.824538 0.746484
O O7 0.296434 0.699643 0.662849
O O8 0.242105 0.293105 0.955635
O O9 0.114932 0.340955 0.072661
O O10 0.500000 0.500000 0.139603
O O11 0.429976 0.683955 0.208360
O O12 0.289387 0.596182 0.136082
O O13 0.504410 0.109124 0.175879
O O14 0.187498 0.495121 0.691630
O O15 0.166023 0.603248 0.578562
O O16 0.000000 0.500000 0.631338
#
# Coordination Sequence:
#
# PCOD9556079 Si02
#       8
#     8   8   8   8   4   8   8   8
#     4  10  22  40  66  95 135 176 228 278 345 412
#     4   9  20  40  63  97 135 169 219 280 344 405
#     4  11  23  43  62  98 130 182 224 283 340 408
#     4  11  22  40  65 101 142 180 221 280 349 411
#     4  10  22  44  68  98 138 188 224 288 362 416
#     4  12  23  40  68  96 131 173 229 287 340 405
#     4  10  21  40  68 102 130 178 225 280 354 417
#     4  10  23  42  64  95 142 173 230 287 332 420
#
# _framework density 21.264865
#
# number of rings (size 3 to 8) (size 9 to 14) (size 15 to 20)
#    0.000    1.600    2.000    3.200    2.800    0.267 
#    4.800    0.000    0.000    0.000    3.467    0.000 
#    0.000    0.000    0.000    0.000    0.000    0.000 
#
# Total GULP energy -334403.123440 kJ/mol
# GULP energy per Si atom -5573.385391 kJ/mol
# Density = 2.121646 g / cm^3
# Si number density = 21.264865 Si / 1000 Ang^3
#
#
#
# Elastic Constant Matrix: (Units=GPa)
#
#
# Indices 1 2 3 4 5 6 
#
# 1 26.6021 16.0659 29.3299 0.0000 0.0000 0.0000
# 2 16.0659 26.6021 29.3299 0.0000 0.0000 0.0000
# 3 29.3299 29.3299 62.3337 0.0000 0.0000 0.0000
# 4 0.0000 0.0000 0.0000 25.1891 0.0000 0.0000
# 5 0.0000 0.0000 0.0000 0.0000 25.1891 0.0000
# 6 0.0000 0.0000 0.0000 0.0000 0.0000 27.2109
#
#
#
# Elastic Compliance Matrix: (Units=1/GPa)
#
#
# Indices 1 2 3 4 5 6 
#
# 1 0.080641 -0.014269 -0.031230 0.000000 0.000000 0.000000
# 2 -0.014269 0.080641 -0.031230 0.000000 0.000000 0.000000
# 3 -0.031230 -0.031230 0.045432 0.000000 0.000000 0.000000
# 4 0.000000 0.000000 0.000000 0.039700 0.000000 0.000000
# 5 0.000000 0.000000 0.000000 0.000000 0.039700 0.000000
# 6 0.000000 0.000000 0.000000 0.000000 0.000000 0.036750
#
#
# Mechanical properties :
#
#
# Convention : Reuss Voigt Hill
#
# Bulk Modulus (GPa) = 18.77733 29.44326 24.11030
# Shear Modulus (GPa) = 10.11992 18.23861 14.17926
#
# Velocity S-wave (km/s) = 2.18388 2.93181 2.58504
# Velocity P-wave (km/s) = 3.89980 5.03356 4.50251
#
# Compressibility (1/GPa) = 0.05325570
#
# Stress axis : x y z
#
# Youngs Moduli (GPa) = 12.40059 12.40059 22.01089
#
# Poissons Ratio (x) = 0.17695 0.68740
# Poissons Ratio (y) = 0.17695 0.68740
# Poissons Ratio (z) = 0.38727 0.38727
#
# Static dielectric constant tensor:
#      x y z
#    x 1.889570 0.000000 0.000000 
#    y 0.000000 1.889570 0.000000 
#    z 0.000000 0.000000 1.793560 
# 
# From -- ./inp_files/3219.got.cif
#   From: 2010.05.17/outbox.cif.g08.bks.cpg/sg114_2_cif.got.tgz:3219.got - 2010.05.20 11:04:54.
