data_PCOD9556203
_publ_section_title
;
Structure prediction by ZEFSAII (Michael W. Deem and Ramdas Pophale) SiO2 
 PCOD9556203
Probable space group: P -4 21 C
;
_chemical_formula_sum "Si O2"
_cell_formula_units_Z 52
_cell_length_a 16.982722
_cell_length_b 16.982722
_cell_length_c 8.597855
_cell_angle_alpha 90.000000
_cell_angle_beta 90.000000
_cell_angle_gamma 90.000000
_cell_volume 2479.731835
_symmetry_space_group_name_H-M "P -4 21 C"
_symmetry_group_IT_number 114
_symmetry_cell_setting 'tetragonal'
loop_
_space_group_symop_operation_xyz
x,y,z
y,-x,-z
-x,-y,z
-y,x,-z
1/2+x,1/2-y,1/2-z
1/2-x,1/2+y,1/2-z
1/2-y,1/2-x,1/2+z
1/2+y,1/2+x,1/2+z
loop_
_atom_site_type_symbol
_atom_site_label
_atom_site_fract_x
_atom_site_fract_y
_atom_site_fract_z
Si Si1 0.413034 0.698961 0.689436
Si Si2 0.000000 0.500000 0.284449
Si Si3 0.413057 0.405877 0.014393
Si Si4 0.762637 0.918662 0.284687
Si Si5 0.209499 0.806536 0.921726
Si Si6 0.157602 0.305155 0.360556
Si Si7 0.871297 0.505111 0.031041
O O1 0.397703 0.643977 0.837816
O O2 0.505917 0.711498 0.682307
O O3 0.366013 0.666611 0.540059
O O4 0.377573 0.787619 0.698143
O O5 0.027515 0.571064 0.395904
O O6 0.929985 0.527540 0.171852
O O7 0.398640 0.338429 0.889162
O O8 0.400271 0.493789 0.946196
O O9 0.747478 0.847009 0.168129
O O10 0.692466 0.945947 0.397166
O O11 0.253545 0.857859 0.790424
O O12 0.278393 0.766107 0.022373
O O13 0.080638 0.329735 0.453365
#
# Coordination Sequence:
#
# PCOD9556203 Si02
#       7
#     8   4   8   8   8   8   8
#     4   9  22  42  63  96 128 172 225 268 331 401
#     4  10  24  44  70  98 132 174 218 296 342 416
#     4   9  20  39  64  92 131 172 215 267 330 397
#     4  11  23  39  65  98 131 177 219 279 337 399
#     4  10  24  36  65  92 131 166 224 273 330 386
#     4  10  22  44  68  93 128 183 225 277 328 419
#     4  11  23  45  68  98 132 175 230 275 354 411
#
# _framework density 20.970011
#
# number of rings (size 3 to 8) (size 9 to 14) (size 15 to 20)
#    0.923    1.077    0.000    2.769    6.462    2.462 
#    0.000    0.000    0.000    0.000    0.000    0.000 
#    0.000    0.000    0.000    0.000    0.000    0.000 
#
# Total GULP energy -289954.375406 kJ/mol
# GULP energy per Si atom -5576.045681 kJ/mol
# Density = 2.092228 g / cm^3
# Si number density = 20.970011 Si / 1000 Ang^3
#
#
#
# Elastic Constant Matrix: (Units=GPa)
#
#
# Indices 1 2 3 4 5 6 
#
# 1 68.9449 21.8686 36.2947 0.0000 0.0000 0.0000
# 2 21.8686 68.9449 36.2947 0.0000 0.0000 0.0000
# 3 36.2947 36.2947 98.6813 0.0000 0.0000 0.0000
# 4 0.0000 0.0000 0.0000 34.9123 0.0000 0.0000
# 5 0.0000 0.0000 0.0000 0.0000 34.9123 0.0000
# 6 0.0000 0.0000 0.0000 0.0000 0.0000 22.6189
#
#
#
# Elastic Compliance Matrix: (Units=1/GPa)
#
#
# Indices 1 2 3 4 5 6 
#
# 1 0.018419 -0.002823 -0.005736 0.000000 0.000000 0.000000
# 2 -0.002823 0.018419 -0.005736 0.000000 0.000000 0.000000
# 3 -0.005736 -0.005736 0.014353 0.000000 0.000000 0.000000
# 4 0.000000 0.000000 0.000000 0.028643 0.000000 0.000000
# 5 0.000000 0.000000 0.000000 0.000000 0.028643 0.000000
# 6 0.000000 0.000000 0.000000 0.000000 0.000000 0.044211
#
#
# Mechanical properties :
#
#
# Convention : Reuss Voigt Hill
#
# Bulk Modulus (GPa) = 44.24546 47.27633 45.76090
# Shear Modulus (GPa) = 26.48101 27.96290 27.22196
#
# Velocity S-wave (km/s) = 3.55745 3.65563 3.60688
# Velocity P-wave (km/s) = 6.16597 6.35703 6.26223
#
# Compressibility (1/GPa) = 0.02260119
#
# Stress axis : x y z
#
# Youngs Moduli (GPa) = 54.29030 54.29030 69.67006
#
# Poissons Ratio (x) = 0.15324 0.39966
# Poissons Ratio (y) = 0.15324 0.39966
# Poissons Ratio (z) = 0.31144 0.31144
#
# Static dielectric constant tensor:
#      x y z
#    x 1.774280 0.000000 0.000000 
#    y 0.000000 1.774280 0.000000 
#    z 0.000000 0.000000 1.760940 
# 
# From -- ./inp_files/980.got.cif
#   From: 2010.05.17/outbox.cif.g08.bks.cpg/sg114_1_cif.got.tgz:980.got - 2010.05.20 11:04:54.
