data_PCOD9556040
_publ_section_title
;
Structure prediction by ZEFSAII (Michael W. Deem and Ramdas Pophale) SiO2 
 PCOD9556040
Probable space group: P -4 21 C
;
_chemical_formula_sum "Si O2"
_cell_formula_units_Z 40
_cell_length_a 8.141739
_cell_length_b 8.141739
_cell_length_c 29.539916
_cell_angle_alpha 90.000000
_cell_angle_beta 90.000000
_cell_angle_gamma 90.000000
_cell_volume 1958.139410
_symmetry_space_group_name_H-M "P -4 21 C"
_symmetry_group_IT_number 114
_symmetry_cell_setting 'tetragonal'
loop_
_space_group_symop_operation_xyz
x,y,z
y,-x,-z
-x,-y,z
-y,x,-z
1/2+x,1/2-y,1/2-z
1/2-x,1/2+y,1/2-z
1/2-y,1/2-x,1/2+z
1/2+y,1/2+x,1/2+z
loop_
_atom_site_type_symbol
_atom_site_label
_atom_site_fract_x
_atom_site_fract_y
_atom_site_fract_z
Si Si1 0.000000 0.000000 0.147194
Si Si2 0.900788 0.253428 0.507951
Si Si3 0.751900 0.750654 0.896244
Si Si4 0.250981 0.394771 0.716349
Si Si5 0.591378 0.748014 0.801843
Si Si6 0.000000 0.500000 0.938209
O O1 0.120844 0.101805 0.180297
O O2 0.899124 0.129638 0.118087
O O3 0.848591 0.295173 0.558757
O O4 0.880635 0.399054 0.471993
O O5 0.091987 0.200929 0.506382
O O6 0.635746 0.710859 0.853659
O O7 0.868578 0.598001 0.908729
O O8 0.325029 0.372792 0.766053
O O9 0.175131 0.575378 0.709139
O O10 0.101696 0.270669 0.706808
#
# Coordination Sequence:
#
# PCOD9556040 Si02
#       6
#     4   8   8   8   8   4
#     4  10  22  38  57  86 118 146 193 240 286 350
#     4   9  20  40  59  81 115 148 187 242 299 347
#     4  10  22  38  59  86 113 152 196 234 286 351
#     4  10  21  38  57  84 119 152 187 238 289 334
#     4  10  21  37  59  84 116 155 192 233 285 344
#     4  10  22  38  60  86 114 148 192 242 288 344
#
# _framework density 20.427555000000002
#
# number of rings (size 3 to 8) (size 9 to 14) (size 15 to 20)
#    0.000    2.200    0.000    2.400    0.000   11.200 
#    0.000   10.000    0.000    0.000    0.000    0.000 
#    0.000    0.000    0.000    0.000    0.000    0.000 
#
# Total GULP energy -223481.267084 kJ/mol
# GULP energy per Si atom -5587.031677 kJ/mol
# Density = 2.038106 g / cm^3
# Si number density = 20.427555 Si / 1000 Ang^3
#
#
#
# Elastic Constant Matrix: (Units=GPa)
#
#
# Indices 1 2 3 4 5 6 
#
# 1 68.2224 15.8475 47.9584 0.0000 0.0000 0.0000
# 2 15.8475 68.2224 47.9584 0.0000 0.0000 0.0000
# 3 47.9584 47.9584 153.7825 0.0000 0.0000 0.0000
# 4 0.0000 0.0000 0.0000 56.3890 0.0000 0.0000
# 5 0.0000 0.0000 0.0000 0.0000 56.3890 0.0000
# 6 0.0000 0.0000 0.0000 0.0000 0.0000 12.2503
#
#
#
# Elastic Compliance Matrix: (Units=1/GPa)
#
#
# Indices 1 2 3 4 5 6 
#
# 1 0.018779 -0.000314 -0.005758 0.000000 0.000000 0.000000
# 2 -0.000314 0.018779 -0.005758 0.000000 0.000000 0.000000
# 3 -0.005758 -0.005758 0.010094 0.000000 0.000000 0.000000
# 4 0.000000 0.000000 0.000000 0.017734 0.000000 0.000000
# 5 0.000000 0.000000 0.000000 0.000000 0.017734 0.000000
# 6 0.000000 0.000000 0.000000 0.000000 0.000000 0.081631
#
#
# Mechanical properties :
#
#
# Convention : Reuss Voigt Hill
#
# Bulk Modulus (GPa) = 41.68375 57.08397 49.38386
# Shear Modulus (GPa) = 25.45704 36.90320 31.18012
#
# Velocity S-wave (km/s) = 3.53400 4.25495 3.91112
# Velocity P-wave (km/s) = 6.09115 7.22113 6.68008
#
# Compressibility (1/GPa) = 0.02399017
#
# Stress axis : x y z
#
# Youngs Moduli (GPa) = 53.25129 53.25129 99.06600
#
# Poissons Ratio (x) = 0.01673 0.57046
# Poissons Ratio (y) = 0.01673 0.57046
# Poissons Ratio (z) = 0.30664 0.30664
#
# Static dielectric constant tensor:
#      x y z
#    x 1.737320 0.000000 0.000000 
#    y 0.000000 1.737320 0.000000 
#    z 0.000000 0.000000 1.703280 
# 
# From -- ./inp_files/3673.got.cif
#   From: 2010.05.17/outbox.cif.g08.bks.cpg/sg114_2_cif.got.tgz:3673.got - 2010.05.20 11:04:54.
