data_PCOD9556812
_publ_section_title
;
Structure prediction by ZEFSAII (Michael W. Deem and Ramdas Pophale) SiO2 
 PCOD9556812
Probable space group: P -4 M 2
;
_chemical_formula_sum "Si O2"
_cell_formula_units_Z 40
_cell_length_a 9.162208
_cell_length_b 9.162208
_cell_length_c 26.741911
_cell_angle_alpha 90.000000
_cell_angle_beta 90.000000
_cell_angle_gamma 90.000000
_cell_volume 2244.877943
_symmetry_space_group_name_H-M "P -4 M 2"
_symmetry_group_IT_number 115
_symmetry_cell_setting 'tetragonal'
loop_
_space_group_symop_operation_xyz
x,y,z
y,-x,-z
-x,-y,z
-y,x,-z
y,x,-z
-y,-x,-z
-x,y,z
x,-y,z
loop_
_atom_site_type_symbol
_atom_site_label
_atom_site_fract_x
_atom_site_fract_y
_atom_site_fract_z
Si Si1 0.177639 0.831998 0.351124
Si Si2 0.327138 0.825814 0.156193
Si Si3 0.831396 0.177720 0.054914
Si Si4 0.825151 0.327168 0.453253
Si Si5 0.671858 0.824599 0.750603
O O1 0.222137 0.748583 0.401437
O O2 0.223689 0.751080 0.300488
O O3 0.000000 0.831076 0.350901
O O4 0.225704 0.000000 0.351669
O O5 0.500000 0.802852 0.157255
O O6 0.261882 0.778050 0.102726
O O7 0.250523 0.743338 0.201568
O O8 0.299134 0.000000 0.161191
O O9 0.000000 0.223719 0.061433
O O10 0.831315 0.000000 0.053077
O O11 0.776112 0.223889 0.000000
O O12 0.744286 0.255715 0.500000
O O13 0.799031 0.500000 0.450831
O O14 0.000000 0.304400 0.458741
O O15 0.500000 0.793579 0.747628
O O16 0.689823 0.000000 0.754939
#
# Coordination Sequence:
#
# PCOD9556812 Si02
#       5
#     8   8   8   8   8
#     4   9  17  31  54  81 105 131 167 213 261 305
#     4  10  20  33  50  74 104 137 171 208 253 305
#     4   8  14  27  49  74  98 128 169 215 258 299
#     4  10  20  34  53  78 108 140 173 210 252 300
#     4  10  20  34  53  77 104 135 172 213 257 305
#
# _framework density 17.818342999999999
#
# number of rings (size 3 to 8) (size 9 to 14) (size 15 to 20)
#    0.000    2.600    0.000    3.000    0.000    6.000 
#    0.000    2.000    0.000    9.600    0.000    0.000 
#    0.000    0.000    0.000    0.000    0.000    0.000 
#
# Total GULP energy -223131.428907 kJ/mol
# GULP energy per Si atom -5578.285723 kJ/mol
# Density = 1.777779 g / cm^3
# Si number density = 17.818343 Si / 1000 Ang^3
#
#
#
# Elastic Constant Matrix: (Units=GPa)
#
#
# Indices 1 2 3 4 5 6 
#
# 1 65.2450 59.5421 85.5530 0.0000 0.0000 0.0000
# 2 59.5421 65.2453 85.5522 0.0000 0.0000 0.0000
# 3 85.5530 85.5522 230.6879 0.0000 0.0000 0.0000
# 4 0.0000 0.0000 0.0000 -10.7627 0.0000 0.0000
# 5 0.0000 0.0000 0.0000 0.0000 -10.7619 0.0000
# 6 0.0000 0.0000 0.0000 0.0000 0.0000 17.9135
#
#
#
# Elastic Compliance Matrix: (Units=1/GPa)
#
#
# Indices 1 2 3 4 5 6 
#
# 1 0.095826 -0.079520 -0.006048 0.000000 0.000000 0.000000
# 2 -0.079520 0.095824 -0.006046 0.000000 0.000000 0.000000
# 3 -0.006048 -0.006046 0.008820 0.000000 0.000000 0.000000
# 4 0.000000 0.000000 0.000000 -0.092914 0.000000 0.000000
# 5 0.000000 0.000000 0.000000 0.000000 -0.092921 0.000000
# 6 0.000000 0.000000 0.000000 0.000000 0.000000 0.055824
#
#
# Mechanical properties :
#
#
# Convention : Reuss Voigt Hill
#
# Bulk Modulus (GPa) = 57.99654 91.38586 74.69120
# Shear Modulus (GPa) = 19.27261 7.97983 13.62622
#
# Velocity S-wave (km/s) = 3.29236 2.11853 2.76838
# Velocity P-wave (km/s) = 6.86093 7.57516 7.22687
#
# Compressibility (1/GPa) = 0.01724241
#
# Stress axis : x y z
#
# Youngs Moduli (GPa) = 10.43553 10.43581 113.38025
#
# Poissons Ratio (x) = 0.82986 0.68568
# Poissons Ratio (y) = 0.82984 0.68550
# Poissons Ratio (z) = 0.06311 0.06310
#
# Static dielectric constant tensor:
#      x y z
#    x 1.591140 0.000000 0.000000 
#    y 0.000000 1.591140 0.000000 
#    z 0.000000 0.000000 1.592750 
# 
# From -- ./inp_files/5084.got.cif
#   From: 2010.05.17/outbox.cif.g08.bks.cpg/sg115_3_cif.got.tgz:5084.got - 2010.05.20 11:07:42.
