data_PCOD9556114
_publ_section_title
;
Structure prediction by ZEFSAII (Michael W. Deem and Ramdas Pophale) SiO2 
 PCOD9556114
Probable space group: P -4 21 C
;
_chemical_formula_sum "Si O2"
_cell_formula_units_Z 40
_cell_length_a 7.870181
_cell_length_b 7.870181
_cell_length_c 23.789616
_cell_angle_alpha 90.000000
_cell_angle_beta 90.000000
_cell_angle_gamma 90.000000
_cell_volume 1473.522843
_symmetry_space_group_name_H-M "P -4 21 C"
_symmetry_group_IT_number 114
_symmetry_cell_setting 'tetragonal'
loop_
_space_group_symop_operation_xyz
x,y,z
y,-x,-z
-x,-y,z
-y,x,-z
1/2+x,1/2-y,1/2-z
1/2-x,1/2+y,1/2-z
1/2-y,1/2-x,1/2+z
1/2+y,1/2+x,1/2+z
loop_
_atom_site_type_symbol
_atom_site_label
_atom_site_fract_x
_atom_site_fract_y
_atom_site_fract_z
Si Si1 0.264377 0.178544 0.135467
Si Si2 0.376938 0.737093 0.477327
Si Si3 0.295226 0.015622 0.735358
Si Si4 0.701555 0.716012 0.339562
Si Si5 0.313674 0.423372 0.932865
O O1 0.326317 0.256863 0.194756
O O2 0.440473 0.198065 0.100166
O O3 0.218950 0.982342 0.145744
O O4 0.129974 0.250167 0.090120
O O5 0.560785 0.715927 0.505060
O O6 0.273481 0.884444 0.507991
O O7 0.239829 0.040237 0.799506
O O8 0.500000 0.000000 0.734213
O O9 0.225941 0.851873 0.703161
O O10 0.750483 0.813180 0.396170
O O11 0.500000 0.500000 0.934152
#
# Coordination Sequence:
#
# PCOD9556114 Si02
#       5
#     8   8   8   8   8
#     4  10  23  46  70 105 151 191 240 315 378 432
#     4  11  25  45  73 109 141 191 250 307 377 439
#     4   9  21  40  70 103 141 196 244 304 377 444
#     4  10  21  45  72 103 153 195 243 315 374 441
#     4  11  25  44  72 109 145 196 245 300 372 451
#
# _framework density 27.145828999999999
#
# number of rings (size 3 to 8) (size 9 to 14) (size 15 to 20)
#    0.000    1.800    2.000    1.800    2.800    8.000 
#    0.000    0.000    0.000    0.000    0.000    0.000 
#    0.000    0.000    0.000    0.000    0.000    0.000 
#
# Total GULP energy -224135.763255 kJ/mol
# GULP energy per Si atom -5603.394081 kJ/mol
# Density = 2.708404 g / cm^3
# Si number density = 27.145829 Si / 1000 Ang^3
#
#
#
# Elastic Constant Matrix: (Units=GPa)
#
#
# Indices 1 2 3 4 5 6 
#
# 1 89.5946 12.1036 13.8079 0.0000 0.0000 0.0000
# 2 12.1036 89.5946 13.8079 0.0000 0.0000 0.0000
# 3 13.8079 13.8079 199.1971 0.0000 0.0000 0.0000
# 4 0.0000 0.0000 0.0000 49.3911 0.0000 0.0000
# 5 0.0000 0.0000 0.0000 0.0000 49.3911 0.0000
# 6 0.0000 0.0000 0.0000 0.0000 0.0000 20.9895
#
#
#
# Elastic Compliance Matrix: (Units=1/GPa)
#
#
# Indices 1 2 3 4 5 6 
#
# 1 0.011463 -0.001442 -0.000695 0.000000 0.000000 0.000000
# 2 -0.001442 0.011463 -0.000695 0.000000 0.000000 0.000000
# 3 -0.000695 -0.000695 0.005116 0.000000 0.000000 0.000000
# 4 0.000000 0.000000 0.000000 0.020247 0.000000 0.000000
# 5 0.000000 0.000000 0.000000 0.000000 0.020247 0.000000
# 6 0.000000 0.000000 0.000000 0.000000 0.000000 0.047643
#
#
# Mechanical properties :
#
#
# Convention : Reuss Voigt Hill
#
# Bulk Modulus (GPa) = 44.68064 50.86946 47.77505
# Shear Modulus (GPa) = 38.66945 46.53211 42.60078
#
# Velocity S-wave (km/s) = 3.77836 4.14473 3.96578
# Velocity P-wave (km/s) = 5.96070 6.45639 6.21349
#
# Compressibility (1/GPa) = 0.02238106
#
# Stress axis : x y z
#
# Youngs Moduli (GPa) = 87.23574 87.23574 195.44764
#
# Poissons Ratio (x) = 0.12575 0.13577
# Poissons Ratio (y) = 0.12575 0.13577
# Poissons Ratio (z) = 0.06060 0.06060
#
# Static dielectric constant tensor:
#      x y z
#    x 2.154360 0.000000 0.000000 
#    y 0.000000 2.154360 0.000000 
#    z 0.000000 0.000000 2.127630 
# 
# From -- ./inp_files/3364.got.cif
#   From: 2010.05.17/outbox.cif.g08.bks.cpg/sg114_2_cif.got.tgz:3364.got - 2010.05.20 11:04:54.
