data_PCOD9556894
_publ_section_title
;
Structure prediction by ZEFSAII (Michael W. Deem and Ramdas Pophale) SiO2 
 PCOD9556894
Probable space group: P -4 M 2
;
_chemical_formula_sum "Si O2"
_cell_formula_units_Z 44
_cell_length_a 9.349984
_cell_length_b 9.349984
_cell_length_c 29.190997
_cell_angle_alpha 90.000000
_cell_angle_beta 90.000000
_cell_angle_gamma 90.000000
_cell_volume 2551.941201
_symmetry_space_group_name_H-M "P -4 M 2"
_symmetry_group_IT_number 115
_symmetry_cell_setting 'tetragonal'
loop_
_space_group_symop_operation_xyz
x,y,z
y,-x,-z
-x,-y,z
-y,x,-z
y,x,-z
-y,-x,-z
-x,y,z
x,-y,z
loop_
_atom_site_type_symbol
_atom_site_label
_atom_site_fract_x
_atom_site_fract_y
_atom_site_fract_z
Si Si1 0.672120 0.667629 0.867932
Si Si2 0.832280 0.672415 0.675093
Si Si3 0.828699 0.668493 0.406577
Si Si4 0.326034 0.664782 0.234214
Si Si5 0.830725 0.169276 0.500000
Si Si6 0.168443 0.828332 0.948512
O O1 0.500000 0.677452 0.870416
O O2 0.710466 0.500000 0.871983
O O3 0.712603 0.719123 0.816655
O O4 0.744099 0.754390 0.908468
O O5 0.817639 0.500000 0.671508
O O6 0.747907 0.746802 0.634031
O O7 0.763915 0.717336 0.723709
O O8 0.000000 0.707193 0.673183
O O9 0.796116 0.500000 0.406680
O O10 0.791783 0.740093 0.455293
O O11 0.000000 0.685561 0.400496
O O12 0.500000 0.663619 0.232981
O O13 0.280715 0.500000 0.241794
O O14 0.000000 0.190526 0.509387
O O15 0.000000 0.794508 0.943814
O O16 0.182558 0.000000 0.945910
O O17 0.214746 0.785255 0.000000
#
# Coordination Sequence:
#
# PCOD9556894 Si02
#       6
#     8   8   8   8   4   8
#     4   9  18  32  51  76 102 127 160 204 251 299
#     4  10  20  33  52  78 104 132 169 210 249 293
#     4  10  21  36  54  77 105 136 169 206 249 297
#     4   8  15  30  50  71  99 133 165 201 248 297
#     4   9  18  34  54  73  98 134 170 205 248 295
#     4   9  19  35  51  68  95 131 168 205 246 294
#
# _framework density 17.241776000000002
#
# number of rings (size 3 to 8) (size 9 to 14) (size 15 to 20)
#    0.000    2.818    0.000    2.727    0.000    5.091 
#    0.000    7.273    0.000    1.091    0.000    0.000 
#    0.000    0.000    0.000    0.000    0.000    0.000 
#
# Total GULP energy -245326.849034 kJ/mol
# GULP energy per Si atom -5575.610205 kJ/mol
# Density = 1.720253 g / cm^3
# Si number density = 17.241776 Si / 1000 Ang^3
#
#
#
# Elastic Constant Matrix: (Units=GPa)
#
#
# Indices 1 2 3 4 5 6 
#
# 1 53.1100 41.3677 79.1501 0.0000 0.0000 0.0000
# 2 41.3677 53.1096 79.1502 0.0000 0.0000 0.0000
# 3 79.1501 79.1502 200.3086 0.0000 0.0000 0.0000
# 4 0.0000 0.0000 0.0000 52.0405 0.0000 0.0000
# 5 0.0000 0.0000 0.0000 0.0000 52.0396 0.0000
# 6 0.0000 0.0000 0.0000 0.0000 0.0000 27.2880
#
#
#
# Elastic Compliance Matrix: (Units=1/GPa)
#
#
# Indices 1 2 3 4 5 6 
#
# 1 0.058242 -0.026921 -0.012376 0.000000 0.000000 0.000000
# 2 -0.026921 0.058243 -0.012377 0.000000 0.000000 0.000000
# 3 -0.012376 -0.012377 0.014773 0.000000 0.000000 0.000000
# 4 0.000000 0.000000 0.000000 0.019216 0.000000 0.000000
# 5 0.000000 0.000000 0.000000 0.000000 0.019216 0.000000
# 6 0.000000 0.000000 0.000000 0.000000 0.000000 0.036646
#
#
# Mechanical properties :
#
#
# Convention : Reuss Voigt Hill
#
# Bulk Modulus (GPa) = 35.82844 78.42935 57.12890
# Shear Modulus (GPa) = 15.67458 33.39763 24.53610
#
# Velocity S-wave (km/s) = 3.01841 4.40593 3.77644
# Velocity P-wave (km/s) = 5.74220 8.45398 7.22643
#
# Compressibility (1/GPa) = 0.02791079
#
# Stress axis : x y z
#
# Youngs Moduli (GPa) = 17.16975 17.16938 67.68981
#
# Poissons Ratio (x) = 0.46221 0.83775
# Poissons Ratio (y) = 0.46222 0.83778
# Poissons Ratio (z) = 0.21250 0.21250
#
# Static dielectric constant tensor:
#      x y z
#    x 1.571760 0.000000 0.000000 
#    y 0.000000 1.571760 0.000000 
#    z 0.000000 0.000000 1.573530 
# 
# From -- ./inp_files/5723.got.cif
#   From: 2010.05.17/outbox.cif.g08.bks.cpg/sg115_3_cif.got.tgz:5723.got - 2010.05.20 11:07:42.
