data_PCOD9556447
_publ_section_title
;
Structure prediction by ZEFSAII (Michael W. Deem and Ramdas Pophale) SiO2 
 PCOD9556447
Probable space group: P -4 21 C
;
_chemical_formula_sum "Si O2"
_cell_formula_units_Z 38
_cell_length_a 8.637656
_cell_length_b 8.637656
_cell_length_c 20.646368
_cell_angle_alpha 90.000000
_cell_angle_beta 90.000000
_cell_angle_gamma 90.000000
_cell_volume 1540.406959
_symmetry_space_group_name_H-M "P -4 21 C"
_symmetry_group_IT_number 114
_symmetry_cell_setting 'tetragonal'
loop_
_space_group_symop_operation_xyz
x,y,z
y,-x,-z
-x,-y,z
-y,x,-z
1/2+x,1/2-y,1/2-z
1/2-x,1/2+y,1/2-z
1/2-y,1/2-x,1/2+z
1/2+y,1/2+x,1/2+z
loop_
_atom_site_type_symbol
_atom_site_label
_atom_site_fract_x
_atom_site_fract_y
_atom_site_fract_z
Si Si1 0.500000 0.500000 0.500000
Si Si2 0.367091 0.212192 0.443114
Si Si3 0.709201 0.945226 0.799274
Si Si4 0.000000 0.000000 0.631255
Si Si5 0.053219 0.252989 0.736952
Si Si6 0.978345 0.670281 0.437624
O O1 0.493363 0.343060 0.459285
O O2 0.410880 0.155502 0.371980
O O3 0.348802 0.076715 0.496031
O O4 0.204296 0.302496 0.443511
O O5 0.873530 0.862787 0.789057
O O6 0.593584 0.860352 0.748923
O O7 0.685996 0.124765 0.784387
O O8 0.994902 0.145981 0.678516
O O9 0.162105 0.023142 0.593120
O O10 0.000000 0.500000 0.404490
#
# Coordination Sequence:
#
# PCOD9556447 Si02
#       6
#     2   8   8   4   8   8
#     4  12  28  42  72 112 158 200 268 328 414 516
#     4  12  27  49  72 114 155 214 266 339 421 505
#     4  11  27  48  78 109 159 212 271 346 414 504
#     4  12  26  50  78 122 155 215 270 344 406 506
#     4  11  26  49  76 111 157 208 275 333 419 489
#     4  12  27  46  79 113 162 207 274 334 424 500
#
# _framework density 24.668804999999999
#
# number of rings (size 3 to 8) (size 9 to 14) (size 15 to 20)
#    0.000    0.421    4.211    2.526    5.895    4.211 
#    0.000    0.000    0.000    0.000    0.000    0.000 
#    0.000    0.000    0.000    0.000    0.000    0.000 
#
# Total GULP energy -212233.358913 kJ/mol
# GULP energy per Si atom -5585.088392 kJ/mol
# Density = 2.461266 g / cm^3
# Si number density = 24.668805 Si / 1000 Ang^3
#
#
#
# Elastic Constant Matrix: (Units=GPa)
#
#
# Indices 1 2 3 4 5 6 
#
# 1 137.5248 22.4217 32.7634 0.0000 0.0000 0.0000
# 2 22.4217 137.5248 32.7634 0.0000 0.0000 0.0000
# 3 32.7634 32.7634 77.0869 0.0000 0.0000 0.0000
# 4 0.0000 0.0000 0.0000 29.7228 0.0000 0.0000
# 5 0.0000 0.0000 0.0000 0.0000 29.7228 0.0000
# 6 0.0000 0.0000 0.0000 0.0000 0.0000 64.7205
#
#
#
# Elastic Compliance Matrix: (Units=1/GPa)
#
#
# Indices 1 2 3 4 5 6 
#
# 1 0.008129 -0.000559 -0.003217 0.000000 0.000000 0.000000
# 2 -0.000559 0.008129 -0.003217 0.000000 0.000000 0.000000
# 3 -0.003217 -0.003217 0.015707 0.000000 0.000000 0.000000
# 4 0.000000 0.000000 0.000000 0.033644 0.000000 0.000000
# 5 0.000000 0.000000 0.000000 0.000000 0.033644 0.000000
# 6 0.000000 0.000000 0.000000 0.000000 0.000000 0.015451
#
#
# Mechanical properties :
#
#
# Convention : Reuss Voigt Hill
#
# Bulk Modulus (GPa) = 55.62400 58.67041 57.14720
# Shear Modulus (GPa) = 37.12361 42.44574 39.78467
#
# Velocity S-wave (km/s) = 3.88349 4.15254 4.02027
# Velocity P-wave (km/s) = 6.53498 6.84298 6.69075
#
# Compressibility (1/GPa) = 0.01797785
#
# Stress axis : x y z
#
# Youngs Moduli (GPa) = 123.01563 123.01563 63.66434
#
# Poissons Ratio (x) = 0.06874 0.20484
# Poissons Ratio (y) = 0.06874 0.20484
# Poissons Ratio (z) = 0.39580 0.39580
#
# Static dielectric constant tensor:
#      x y z
#    x 2.052210 0.000000 0.000000 
#    y 0.000000 2.052210 0.000000 
#    z 0.000000 0.000000 1.989690 
# 
# From -- ./inp_files/3427.got.cif
#   From: 2010.05.17/outbox.cif.g08.bks.cpg/sg114_2_cif.got.tgz:3427.got - 2010.05.20 11:04:54.
