data_PCOD9556508
_publ_section_title
;
Structure prediction by ZEFSAII (Michael W. Deem and Ramdas Pophale) SiO2 
 PCOD9556508
Probable space group: P -4 21 C
;
_chemical_formula_sum "Si O2"
_cell_formula_units_Z 48
_cell_length_a 9.000000
_cell_length_b 9.000000
_cell_length_c 30.000000
_cell_angle_alpha 90.000000
_cell_angle_beta 90.000000
_cell_angle_gamma 90.000000
_cell_volume 2430.000000
_symmetry_space_group_name_H-M "P -4 21 C"
_symmetry_group_IT_number 114
_symmetry_cell_setting 'tetragonal'
loop_
_space_group_symop_operation_xyz
x,y,z
y,-x,-z
-x,-y,z
-y,x,-z
1/2+x,1/2-y,1/2-z
1/2-x,1/2+y,1/2-z
1/2-y,1/2-x,1/2+z
1/2+y,1/2+x,1/2+z
loop_
_atom_site_type_symbol
_atom_site_label
_atom_site_fract_x
_atom_site_fract_y
_atom_site_fract_z
Si Si1 0.270695 0.586633 0.509165
Si Si2 0.000000 0.000000 0.142974
Si Si3 0.244750 0.178145 0.187147
Si Si4 0.400857 0.868539 0.743163
Si Si5 0.693627 0.244628 0.597672
Si Si6 0.500000 0.000000 0.549442
Si Si7 0.824141 0.028404 0.667419
O O1 0.414047 0.673379 0.488242
O O2 0.237693 0.665337 0.556227
O O3 0.121226 0.587112 0.480355
O O4 0.863722 0.075995 0.116936
O O5 0.082914 0.134363 0.168665
O O6 0.230218 0.316545 0.220982
O O7 0.375503 0.235231 0.154106
O O8 0.292047 0.024317 0.211604
O O9 0.500000 0.000000 0.764546
O O10 0.266947 0.929670 0.712303
O O11 0.606221 0.103148 0.578466
O O12 0.798704 0.168667 0.634495
O O13 0.000000 0.000000 0.672797
#
# Coordination Sequence:
#
# PCOD9556508 Si02
#       7
#     8   4   8   8   8   4   8
#     4   9  19  39  66  96 119 160 207 257 316 391
#     4  12  24  38  67 100 126 168 216 268 321 380
#     4  11  24  40  66  93 130 176 220 269 322 387
#     4  10  23  40  65  93 125 174 226 267 321 380
#     4  11  22  41  64  97 127 163 211 267 319 386
#     4  10  20  40  70  90 126 164 204 262 322 394
#     4  11  24  43  61  91 135 174 210 271 329 375
#
# _framework density 19.753086
#
# number of rings (size 3 to 8) (size 9 to 14) (size 15 to 20)
#    0.000    1.500    1.667    4.000    7.000    1.333 
#    9.000    0.000    0.000    0.000    0.000    0.000 
#    0.000    0.000    0.000    0.000    0.000    0.000 
#
# Total GULP energy -267665.599864 kJ/mol
# GULP energy per Si atom -5576.366664 kJ/mol
# Density = 1.970813 g / cm^3
# Si number density = 19.753086 Si / 1000 Ang^3
#
#
#
# Elastic Constant Matrix: (Units=GPa)
#
#
# Indices 1 2 3 4 5 6 
#
# 1 131.8238 47.9780 40.8364 0.0000 0.0000 0.0000
# 2 47.9780 131.8238 40.8364 0.0000 0.0000 0.0000
# 3 40.8364 40.8364 50.5965 0.0000 0.0000 0.0000
# 4 0.0000 0.0000 0.0000 25.2813 0.0000 0.0000
# 5 0.0000 0.0000 0.0000 0.0000 25.2813 0.0000
# 6 0.0000 0.0000 0.0000 0.0000 0.0000 40.3141
#
#
#
# Elastic Compliance Matrix: (Units=1/GPa)
#
#
# Indices 1 2 3 4 5 6 
#
# 1 0.010354 -0.001573 -0.007087 0.000000 0.000000 0.000000
# 2 -0.001573 0.010354 -0.007087 0.000000 0.000000 0.000000
# 3 -0.007087 -0.007087 0.031204 0.000000 0.000000 0.000000
# 4 0.000000 0.000000 0.000000 0.039555 0.000000 0.000000
# 5 0.000000 0.000000 0.000000 0.000000 0.039555 0.000000
# 6 0.000000 0.000000 0.000000 0.000000 0.000000 0.024805
#
#
# Mechanical properties :
#
#
# Convention : Reuss Voigt Hill
#
# Bulk Modulus (GPa) = 48.97710 63.72731 56.35221
# Shear Modulus (GPa) = 25.75637 30.48156 28.11897
#
# Velocity S-wave (km/s) = 3.61490 3.93253 3.77705
# Velocity P-wave (km/s) = 6.50167 7.27679 6.90013
#
# Compressibility (1/GPa) = 0.02041771
#
# Stress axis : x y z
#
# Youngs Moduli (GPa) = 96.58313 96.58313 32.04697
#
# Poissons Ratio (x) = 0.15191 0.22712
# Poissons Ratio (y) = 0.15191 0.22712
# Poissons Ratio (z) = 0.68449 0.68449
#
# Static dielectric constant tensor:
#      x y z
#    x 1.708240 0.000000 0.000000 
#    y 0.000000 1.708240 0.000000 
#    z 0.000000 0.000000 1.761350 
# 
# From -- ./inp_files/4023.got.cif
#   From: 2010.05.17/outbox.ucp.g08.bks.cvg/sg114_3_cif.got.tgz:4023.got - 2010.06.11 11:33:27.
