data_PCOD9556528
_publ_section_title
;
Structure prediction by ZEFSAII (Michael W. Deem and Ramdas Pophale) SiO2 
 PCOD9556528
Probable space group: P -4 M 2
;
_chemical_formula_sum "Si O2"
_cell_formula_units_Z 56
_cell_length_a 14.950965
_cell_length_b 14.950965
_cell_length_c 15.072651
_cell_angle_alpha 90.000000
_cell_angle_beta 90.000000
_cell_angle_gamma 90.000000
_cell_volume 3369.210093
_symmetry_space_group_name_H-M "P -4 M 2"
_symmetry_group_IT_number 115
_symmetry_cell_setting 'tetragonal'
loop_
_space_group_symop_operation_xyz
x,y,z
y,-x,-z
-x,-y,z
-y,x,-z
y,x,-z
-y,-x,-z
-x,y,z
x,-y,z
loop_
_atom_site_type_symbol
_atom_site_label
_atom_site_fract_x
_atom_site_fract_y
_atom_site_fract_z
Si Si1 0.282744 0.706966 0.246032
Si Si2 0.102990 0.332553 0.335275
Si Si3 0.393653 0.393137 0.602532
Si Si4 0.395225 0.603484 0.893885
Si Si5 0.870303 0.902994 0.603439
Si Si6 0.108355 0.403588 0.518928
Si Si7 0.100834 0.282426 0.683962
O O1 0.179094 0.677510 0.260867
O O2 0.337187 0.664269 0.328585
O O3 0.327806 0.665462 0.159381
O O4 0.292400 0.814804 0.250950
O O5 0.098161 0.235906 0.382332
O O6 0.137127 0.392584 0.417239
O O7 0.000000 0.356319 0.308737
O O8 0.371302 0.371302 0.500000
O O9 0.500000 0.376540 0.615398
O O10 0.380133 0.500000 0.614461
O O11 0.500000 0.616993 0.870854
O O12 0.373255 0.500000 0.870957
O O13 0.387056 0.612945 0.000000
O O14 0.891140 0.891140 0.500000
O O15 0.905920 0.821484 0.659834
O O16 0.902148 0.000000 0.632499
O O17 0.138507 0.500000 0.552953
O O18 0.130213 0.329570 0.591437
O O19 0.000000 0.401944 0.513587
O O20 0.000000 0.314705 0.708525
#
# Coordination Sequence:
#
# PCOD9556528 Si02
#       7
#     8   8   8   8   8   8   8
#     4  11  21  30  54  76  95 132 173 204 250 308
#     4   9  19  32  43  63  98 133 173 218 248 285
#     4   9  19  33  46  67 100 129 158 203 251 295
#     4   9  19  38  63  88 108 122 148 202 265 315
#     4  10  17  27  45  63  84 123 176 232 274 292
#     4   9  17  29  41  53  83 135 178 204 235 277
#     4  10  21  33  42  63 101 135 173 217 247 289
#
# _framework density 16.621106999999999
#
# number of rings (size 3 to 8) (size 9 to 14) (size 15 to 20)
#    0.000    2.429    1.429    2.143    2.000    4.429 
#    0.000    0.000    0.000    0.857    0.000    2.000 
#    0.000    0.000    0.000    4.000    0.000    0.000 
#
# Total GULP energy -312116.807560 kJ/mol
# GULP energy per Si atom -5573.514421 kJ/mol
# Density = 1.658328 g / cm^3
# Si number density = 16.621107 Si / 1000 Ang^3
#
#
#
# Elastic Constant Matrix: (Units=GPa)
#
#
# Indices 1 2 3 4 5 6 
#
# 1 73.3881 37.5249 30.6079 0.0000 0.0000 0.0000
# 2 37.5249 73.3879 30.6078 0.0000 0.0000 0.0000
# 3 30.6079 30.6078 41.2210 0.0000 0.0000 0.0000
# 4 0.0000 0.0000 0.0000 156.3533 0.0000 0.0000
# 5 0.0000 0.0000 0.0000 0.0000 156.3605 0.0000
# 6 0.0000 0.0000 0.0000 0.0000 0.0000 16.6065
#
#
#
# Elastic Compliance Matrix: (Units=1/GPa)
#
#
# Indices 1 2 3 4 5 6 
#
# 1 0.021580 -0.006303 -0.011344 0.000000 0.000000 0.000000
# 2 -0.006303 0.021580 -0.011344 0.000000 0.000000 0.000000
# 3 -0.011344 -0.011344 0.041105 0.000000 0.000000 0.000000
# 4 0.000000 0.000000 0.000000 0.006396 0.000000 0.000000
# 5 0.000000 0.000000 0.000000 0.000000 0.006395 0.000000
# 6 0.000000 0.000000 0.000000 0.000000 0.000000 0.060217
#
#
# Mechanical properties :
#
#
# Convention : Reuss Voigt Hill
#
# Bulk Modulus (GPa) = 38.04463 42.83091 40.43777
# Shear Modulus (GPa) = 22.31968 71.81449 47.06709
#
# Velocity S-wave (km/s) = 3.66847 6.58032 5.32721
# Velocity P-wave (km/s) = 6.39395 9.14107 7.88802
#
# Compressibility (1/GPa) = 0.02628492
#
# Stress axis : x y z
#
# Youngs Moduli (GPa) = 46.33846 46.33842 24.32768
#
# Poissons Ratio (x) = 0.29209 0.27596
# Poissons Ratio (y) = 0.29209 0.27596
# Poissons Ratio (z) = 0.52565 0.52564
#
# Static dielectric constant tensor:
#      x y z
#    x 1.399260 0.000000 0.000000 
#    y 0.000000 1.399270 0.000000 
#    z 0.000000 0.000000 1.518460 
# 
# From -- ./inp_files/3886.got.cif
#   From: 2010.05.17/outbox.cif.g08.bks.cpg/sg115_2_cif.got.tgz:3886.got - 2010.05.20 11:07:42.
