data_PCOD9556814
_publ_section_title
;
Structure prediction by ZEFSAII (Michael W. Deem and Ramdas Pophale) SiO2 
 PCOD9556814
Probable space group: P -4 M 2
;
_chemical_formula_sum "Si O2"
_cell_formula_units_Z 48
_cell_length_a 9.097193
_cell_length_b 9.097193
_cell_length_c 32.011644
_cell_angle_alpha 90.000000
_cell_angle_beta 90.000000
_cell_angle_gamma 90.000000
_cell_volume 2649.249100
_symmetry_space_group_name_H-M "P -4 M 2"
_symmetry_group_IT_number 115
_symmetry_cell_setting 'tetragonal'
loop_
_space_group_symop_operation_xyz
x,y,z
y,-x,-z
-x,-y,z
-y,x,-z
y,x,-z
-y,-x,-z
-x,y,z
x,-y,z
loop_
_atom_site_type_symbol
_atom_site_label
_atom_site_fract_x
_atom_site_fract_y
_atom_site_fract_z
Si Si1 0.174187 0.324936 0.369170
Si Si2 0.320943 0.330007 0.545808
Si Si3 0.172676 0.676739 0.709625
Si Si4 0.175145 0.325223 0.039890
Si Si5 0.676647 0.826006 0.119270
Si Si6 0.678889 0.330927 0.205148
O O1 0.204429 0.500000 0.365208
O O2 0.237977 0.275746 0.413949
O O3 0.250108 0.242210 0.331034
O O4 0.000000 0.303590 0.368091
O O5 0.273991 0.273991 0.500000
O O6 0.500000 0.329009 0.544263
O O7 0.275380 0.500000 0.551010
O O8 0.189701 0.500000 0.706395
O O9 0.254391 0.726350 0.751902
O O10 0.000000 0.709057 0.712741
O O11 0.202434 0.500000 0.039491
O O12 0.242298 0.254484 0.081553
O O13 0.000000 0.301432 0.038290
O O14 0.250833 0.250833 0.000000
O O15 0.500000 0.805448 0.114792
O O16 0.722315 0.757462 0.163736
O O17 0.705496 0.000000 0.118428
O O18 0.500000 0.330192 0.205640
O O19 0.727334 0.500000 0.203155
#
# Coordination Sequence:
#
# PCOD9556814 Si02
#       6
#     8   8   8   8   8   8
#     4  10  20  33  50  74 104 137 171 209 257 312
#     4   8  14  27  49  74  98 128 169 215 259 304
#     4  10  20  34  53  77 104 136 176 220 264 311
#     4  11  24  40  58  82 111 144 184 227 269 315
#     4  10  20  35  57  85 115 145 177 215 262 317
#     4   9  17  31  54  82 109 138 174 218 266 313
#
# _framework density 18.118341000000001
#
# number of rings (size 3 to 8) (size 9 to 14) (size 15 to 20)
#    0.000    2.333    0.000    3.500    0.000    8.333 
#    0.000    1.667    0.000    8.000    0.000    0.000 
#    0.000    0.000    0.000    0.000    0.000    0.000 
#
# Total GULP energy -267920.203450 kJ/mol
# GULP energy per Si atom -5581.670905 kJ/mol
# Density = 1.807710 g / cm^3
# Si number density = 18.118341 Si / 1000 Ang^3
#
#
#
# Elastic Constant Matrix: (Units=GPa)
#
#
# Indices 1 2 3 4 5 6 
#
# 1 75.6380 68.9414 85.3383 0.0000 0.0000 0.0000
# 2 68.9414 75.6380 85.3383 0.0000 0.0000 0.0000
# 3 85.3383 85.3383 218.9674 0.0000 0.0000 0.0000
# 4 0.0000 0.0000 0.0000 -22.9761 0.0000 0.0000
# 5 0.0000 0.0000 0.0000 0.0000 -22.9761 0.0000
# 6 0.0000 0.0000 0.0000 0.0000 0.0000 20.4034
#
#
#
# Elastic Compliance Matrix: (Units=1/GPa)
#
#
# Indices 1 2 3 4 5 6 
#
# 1 0.081069 -0.068259 -0.004993 0.000000 0.000000 0.000000
# 2 -0.068259 0.081069 -0.004993 0.000000 0.000000 0.000000
# 3 -0.004993 -0.004993 0.008458 0.000000 0.000000 0.000000
# 4 0.000000 0.000000 0.000000 -0.043524 0.000000 0.000000
# 5 0.000000 0.000000 0.000000 0.000000 -0.043524 0.000000
# 6 0.000000 0.000000 0.000000 0.000000 0.000000 0.049012
#
#
# Mechanical properties :
#
#
# Convention : Reuss Voigt Hill
#
# Bulk Modulus (GPa) = 70.87765 94.38657 82.63211
# Shear Modulus (GPa) = 17.02112 3.59861 10.30986
#
# Velocity S-wave (km/s) = 3.06836 1.41084 2.38802
# Velocity P-wave (km/s) = 7.19425 7.40686 7.30133
#
# Compressibility (1/GPa) = 0.01410882
#
# Stress axis : x y z
#
# Youngs Moduli (GPa) = 12.33512 12.33512 118.22525
#
# Poissons Ratio (x) = 0.84198 0.59025
# Poissons Ratio (y) = 0.84198 0.59025
# Poissons Ratio (z) = 0.06158 0.06158
#
# Static dielectric constant tensor:
#      x y z
#    x 1.603910 0.000000 0.000000 
#    y 0.000000 1.603910 0.000000 
#    z 0.000000 0.000000 1.601390 
# 
# From -- ./inp_files/6024.got.cif
#   From: 2010.05.17/outbox.cif.g08.bks.cpg/sg115_4_cif.got.tgz:6024.got - 2010.05.20 11:07:42.
