data_PCOD9556201
_publ_section_title
;
Structure prediction by ZEFSAII (Michael W. Deem and Ramdas Pophale) SiO2 
 PCOD9556201
Probable space group: P -4 21 C
;
_chemical_formula_sum "Si O2"
_cell_formula_units_Z 48
_cell_length_a 10.710995
_cell_length_b 10.710995
_cell_length_c 17.472830
_cell_angle_alpha 90.000000
_cell_angle_beta 90.000000
_cell_angle_gamma 90.000000
_cell_volume 2004.577654
_symmetry_space_group_name_H-M "P -4 21 C"
_symmetry_group_IT_number 114
_symmetry_cell_setting 'tetragonal'
loop_
_space_group_symop_operation_xyz
x,y,z
y,-x,-z
-x,-y,z
-y,x,-z
1/2+x,1/2-y,1/2-z
1/2-x,1/2+y,1/2-z
1/2-y,1/2-x,1/2+z
1/2+y,1/2+x,1/2+z
loop_
_atom_site_type_symbol
_atom_site_label
_atom_site_fract_x
_atom_site_fract_y
_atom_site_fract_z
Si Si1 0.046880 0.203622 0.194643
Si Si2 0.152715 0.071873 0.045563
Si Si3 0.118481 0.588223 0.888542
Si Si4 0.202628 0.672393 0.223060
Si Si5 0.454874 0.690506 0.014155
Si Si6 0.625484 0.048293 0.388872
O O1 0.087599 0.111630 0.125605
O O2 0.148039 0.185964 0.263198
O O3 0.083976 0.341997 0.166660
O O4 0.895788 0.212368 0.206045
O O5 0.296805 0.105548 0.052761
O O6 0.073009 0.139660 0.978868
O O7 0.130367 0.648708 0.805295
O O8 0.000000 0.500000 0.889330
O O9 0.236872 0.506479 0.913293
O O10 0.180325 0.564947 0.160610
O O11 0.397670 0.784082 0.952698
O O12 0.575932 0.634268 0.971299
O O13 0.500000 0.000000 0.428693
#
# Coordination Sequence:
#
# PCOD9556201 Si02
#       6
#     8   8   8   8   8   8
#     4  10  22  45  70  99 143 184 236 290 352 433
#     4  10  24  45  66 101 144 173 232 293 351 416
#     4  11  24  41  72 101 137 188 233 280 349 431
#     4  10  23  44  68 103 136 187 235 289 353 431
#     4  11  25  41  64 100 134 176 230 288 340 405
#     4  10  22  44  67  95 134 182 227 282 356 418
#
# _framework density 23.945191000000001
#
# number of rings (size 3 to 8) (size 9 to 14) (size 15 to 20)
#    0.000    1.667    0.000    4.000   11.667    0.000 
#   18.000    0.000    0.000    0.000    0.000    0.000 
#    0.000    0.000    0.000    0.000    0.000    0.000 
#
# Total GULP energy -268231.335572 kJ/mol
# GULP energy per Si atom -5588.152824 kJ/mol
# Density = 2.389069 g / cm^3
# Si number density = 23.945191 Si / 1000 Ang^3
#
#
#
# Elastic Constant Matrix: (Units=GPa)
#
#
# Indices 1 2 3 4 5 6 
#
# 1 58.9211 28.3852 30.6339 0.0000 0.0000 0.0000
# 2 28.3852 58.9211 30.6339 0.0000 0.0000 0.0000
# 3 30.6339 30.6339 81.9179 0.0000 0.0000 0.0000
# 4 0.0000 0.0000 0.0000 39.9966 0.0000 0.0000
# 5 0.0000 0.0000 0.0000 0.0000 39.9966 0.0000
# 6 0.0000 0.0000 0.0000 0.0000 0.0000 13.6851
#
#
#
# Elastic Compliance Matrix: (Units=1/GPa)
#
#
# Indices 1 2 3 4 5 6 
#
# 1 0.024139 -0.008610 -0.005807 0.000000 0.000000 0.000000
# 2 -0.008610 0.024139 -0.005807 0.000000 0.000000 0.000000
# 3 -0.005807 -0.005807 0.016551 0.000000 0.000000 0.000000
# 4 0.000000 0.000000 0.000000 0.025002 0.000000 0.000000
# 5 0.000000 0.000000 0.000000 0.000000 0.025002 0.000000
# 6 0.000000 0.000000 0.000000 0.000000 0.000000 0.073072
#
#
# Mechanical properties :
#
#
# Convention : Reuss Voigt Hill
#
# Bulk Modulus (GPa) = 41.01717 42.11844 41.56781
# Shear Modulus (GPa) = 21.14344 26.07612 23.60978
#
# Velocity S-wave (km/s) = 2.97474 3.30357 3.14346
# Velocity P-wave (km/s) = 5.38197 5.67266 5.52923
#
# Compressibility (1/GPa) = 0.02438004
#
# Stress axis : x y z
#
# Youngs Moduli (GPa) = 41.42708 41.42708 60.42031
#
# Poissons Ratio (x) = 0.35667 0.35088
# Poissons Ratio (y) = 0.35667 0.35088
# Poissons Ratio (z) = 0.24058 0.24058
#
# Static dielectric constant tensor:
#      x y z
#    x 1.919230 0.000000 0.000000 
#    y 0.000000 1.919230 0.000000 
#    z 0.000000 0.000000 1.890850 
# 
# From -- ./inp_files/2613.got.cif
#   From: 2010.05.17/outbox.cif.g08.bks.cpg/sg114_2_cif.got.tgz:2613.got - 2010.05.20 11:04:54.
