data_PCOD9556833
_publ_section_title
;
Structure prediction by ZEFSAII (Michael W. Deem and Ramdas Pophale) SiO2 
 PCOD9556833
Probable space group: P -4 M 2
;
_chemical_formula_sum "Si O2"
_cell_formula_units_Z 37
_cell_length_a 7.664829
_cell_length_b 7.664829
_cell_length_c 31.512267
_cell_angle_alpha 90.000000
_cell_angle_beta 90.000000
_cell_angle_gamma 90.000000
_cell_volume 1851.333195
_symmetry_space_group_name_H-M "P -4 M 2"
_symmetry_group_IT_number 115
_symmetry_cell_setting 'tetragonal'
loop_
_space_group_symop_operation_xyz
x,y,z
y,-x,-z
-x,-y,z
-y,x,-z
y,x,-z
-y,-x,-z
-x,y,z
x,-y,z
loop_
_atom_site_type_symbol
_atom_site_label
_atom_site_fract_x
_atom_site_fract_y
_atom_site_fract_z
Si Si1 0.712058 0.000000 0.571378
Si Si2 0.709527 0.698109 0.636450
Si Si3 0.790236 0.000000 0.791744
Si Si4 0.303355 0.208523 0.268174
Si Si5 0.000000 0.000000 0.500000
Si Si6 0.000000 0.290173 0.109321
Si Si7 0.300817 0.713151 0.047408
O O1 0.760747 0.168088 0.599951
O O2 0.827787 0.000000 0.529395
O O3 0.500000 0.000000 0.564510
O O4 0.500000 0.691552 0.635526
O O5 0.776491 0.500000 0.630768
O O6 0.759585 0.758439 0.683705
O O7 0.722879 0.169859 0.766770
O O8 0.752861 0.000000 0.841355
O O9 0.000000 0.000000 0.787086
O O10 0.500000 0.279959 0.264516
O O11 0.313744 0.000000 0.262851
O O12 0.170223 0.227257 0.083851
O O13 0.000000 0.500000 0.105960
O O14 0.500000 0.771810 0.053707
O O15 0.303719 0.500000 0.047268
O O16 0.238984 0.761017 0.000000
#
# Coordination Sequence:
#
# PCOD9556833 Si02
#       7
#     4   8   4   8   1   4   8
#     4  10  23  41  57  83 119 148 187 241 283 330
#     4   9  18  34  58  86 112 140 181 235 286 323
#     4  10  21  35  46  66 110 146 169 210 263 314
#     4   9  18  32  52  77 104 142 183 218 262 319
#     4  12  28  40  60  88 112 160 204 220 280 360
#     4  10  20  33  51  75  98 129 176 211 253 326
#     4   8  15  31  53  73  96 124 158 212 271 315
#
# _framework density 19.985596000000001
#
# number of rings (size 3 to 8) (size 9 to 14) (size 15 to 20)
#    0.000    2.811    0.000    1.297    1.514    2.595 
#    1.946    0.000    0.000    0.000    0.000    0.000 
#    0.000    0.000    0.000    0.000    0.000    0.000 
#
# Total GULP energy -206479.983633 kJ/mol
# GULP energy per Si atom -5580.540098 kJ/mol
# Density = 1.994011 g / cm^3
# Si number density = 19.985596 Si / 1000 Ang^3
#
#
#
# Elastic Constant Matrix: (Units=GPa)
#
#
# Indices 1 2 3 4 5 6 
#
# 1 71.5770 30.9955 68.9338 0.0000 0.0000 0.0000
# 2 30.9955 71.5770 68.9337 0.0000 0.0000 0.0000
# 3 68.9338 68.9337 196.3671 0.0000 0.0000 0.0000
# 4 0.0000 0.0000 0.0000 142.7183 0.0000 0.0000
# 5 0.0000 0.0000 0.0000 0.0000 142.7190 0.0000
# 6 0.0000 0.0000 0.0000 0.0000 0.0000 -14.1078
#
#
#
# Elastic Compliance Matrix: (Units=1/GPa)
#
#
# Indices 1 2 3 4 5 6 
#
# 1 0.021550 -0.003091 -0.006480 0.000000 0.000000 0.000000
# 2 -0.003091 0.021550 -0.006480 0.000000 0.000000 0.000000
# 3 -0.006480 -0.006480 0.009642 0.000000 0.000000 0.000000
# 4 0.000000 0.000000 0.000000 0.007007 0.000000 0.000000
# 5 0.000000 0.000000 0.000000 0.000000 0.007007 0.000000
# 6 0.000000 0.000000 0.000000 0.000000 0.000000 -0.070883
#
#
# Mechanical properties :
#
#
# Convention : Reuss Voigt Hill
#
# Bulk Modulus (GPa) = 48.44951 75.24968 61.84959
# Shear Modulus (GPa) = 143.44882 65.64310 104.54596
#
# Velocity S-wave (km/s) = 8.48127 5.73729 7.24046
# Velocity P-wave (km/s) = 10.96376 9.03451 10.04556
#
# Compressibility (1/GPa) = 0.02064005
#
# Stress axis : x y z
#
# Youngs Moduli (GPa) = 46.40310 46.40313 103.71333
#
# Poissons Ratio (x) = 0.14345 0.67205
# Poissons Ratio (y) = 0.14345 0.67205
# Poissons Ratio (z) = 0.30069 0.30069
#
# Static dielectric constant tensor:
#      x y z
#    x 1.724940 0.000000 0.000000 
#    y 0.000000 1.724940 0.000000 
#    z 0.000000 0.000000 1.656260 
# 
# From -- ./inp_files/5230.got.cif
#   From: 2010.05.17/outbox.cif.g08.bks.cpg/sg115_3_cif.got.tgz:5230.got - 2010.05.20 11:07:42.
