data_PCOD9556443
_publ_section_title
;
Structure prediction by ZEFSAII (Michael W. Deem and Ramdas Pophale) SiO2 
 PCOD9556443
Probable space group: P -4 21 C
;
_chemical_formula_sum "Si O2"
_cell_formula_units_Z 26
_cell_length_a 8.532390
_cell_length_b 8.532390
_cell_length_c 13.666989
_cell_angle_alpha 90.000000
_cell_angle_beta 90.000000
_cell_angle_gamma 90.000000
_cell_volume 994.979748
_symmetry_space_group_name_H-M "P -4 21 C"
_symmetry_group_IT_number 114
_symmetry_cell_setting 'tetragonal'
loop_
_space_group_symop_operation_xyz
x,y,z
y,-x,-z
-x,-y,z
-y,x,-z
1/2+x,1/2-y,1/2-z
1/2-x,1/2+y,1/2-z
1/2-y,1/2-x,1/2+z
1/2+y,1/2+x,1/2+z
loop_
_atom_site_type_symbol
_atom_site_label
_atom_site_fract_x
_atom_site_fract_y
_atom_site_fract_z
Si Si1 0.644231 0.387303 0.371028
Si Si2 0.632985 0.101972 0.703126
Si Si3 0.425459 0.829205 0.986020
Si Si4 0.500000 0.500000 0.000000
O O1 0.500000 0.500000 0.391021
O O2 0.765945 0.520494 0.340526
O O3 0.632340 0.271776 0.277215
O O4 0.669064 0.259013 0.457187
O O5 0.695426 0.032700 0.601079
O O6 0.500000 0.000000 0.755892
O O7 0.493683 0.666989 0.941799
O O8 0.500000 0.000000 0.963791
#
# Coordination Sequence:
#
# PCOD9556443 Si02
#       4
#     8   8   8   2
#     4  12  28  47  82 113 165 206 278 351 421 502
#     4  11  26  48  74 115 153 213 273 334 426 503
#     4  11  27  49  80 121 164 220 281 342 424 508
#     4  12  28  48  88 108 180 214 280 344 436 484
#
# _framework density 26.131187000000001
#
# number of rings (size 3 to 8) (size 9 to 14) (size 15 to 20)
#    0.000    0.615    0.000    6.462   15.077    0.000 
#    0.000    0.000    0.000    0.000    0.000    0.000 
#    0.000    0.000    0.000    0.000    0.000    0.000 
#
# Total GULP energy -145112.505687 kJ/mol
# GULP energy per Si atom -5581.250219 kJ/mol
# Density = 2.607171 g / cm^3
# Si number density = 26.131187 Si / 1000 Ang^3
#
#
#
# Elastic Constant Matrix: (Units=GPa)
#
#
# Indices 1 2 3 4 5 6 
#
# 1 165.5019 68.3792 13.3404 0.0000 0.0000 0.0000
# 2 68.3792 165.5019 13.3404 0.0000 0.0000 0.0000
# 3 13.3404 13.3404 156.2446 0.0000 0.0000 0.0000
# 4 0.0000 0.0000 0.0000 18.5084 0.0000 0.0000
# 5 0.0000 0.0000 0.0000 0.0000 18.5084 0.0000
# 6 0.0000 0.0000 0.0000 0.0000 0.0000 65.2549
#
#
#
# Elastic Compliance Matrix: (Units=1/GPa)
#
#
# Indices 1 2 3 4 5 6 
#
# 1 0.007307 -0.002989 -0.000369 0.000000 0.000000 0.000000
# 2 -0.002989 0.007307 -0.000369 0.000000 0.000000 0.000000
# 3 -0.000369 -0.000369 0.006463 0.000000 0.000000 0.000000
# 4 0.000000 0.000000 0.000000 0.054030 0.000000 0.000000
# 5 0.000000 0.000000 0.000000 0.000000 0.054030 0.000000
# 6 0.000000 0.000000 0.000000 0.000000 0.000000 0.015325
#
#
# Mechanical properties :
#
#
# Convention : Reuss Voigt Hill
#
# Bulk Modulus (GPa) = 73.39974 75.26312 74.33143
# Shear Modulus (GPa) = 31.95798 46.60022 39.27910
#
# Velocity S-wave (km/s) = 3.50091 4.22752 3.88125
# Velocity P-wave (km/s) = 6.67021 7.25905 6.97085
#
# Compressibility (1/GPa) = 0.01362403
#
# Stress axis : x y z
#
# Youngs Moduli (GPa) = 136.85520 136.85520 154.72273
#
# Poissons Ratio (x) = 0.40910 0.05704
# Poissons Ratio (y) = 0.40910 0.05704
# Poissons Ratio (z) = 0.05045 0.05045
#
# Static dielectric constant tensor:
#      x y z
#    x 1.622530 0.000000 0.000000 
#    y 0.000000 1.622530 0.000000 
#    z 0.000000 0.000000 2.006120 
# 
# From -- ./inp_files/1950.got.cif
#   From: 2010.05.17/outbox.cif.g08.bks.cpg/sg114_1_cif.got.tgz:1950.got - 2010.05.20 11:04:54.
