data_PCOD9556619
_publ_section_title
;
Structure prediction by ZEFSAII (Michael W. Deem and Ramdas Pophale) SiO2 
 PCOD9556619
Probable space group: P -4 M 2
;
_chemical_formula_sum "Si O2"
_cell_formula_units_Z 60
_cell_length_a 18.251643
_cell_length_b 18.251643
_cell_length_c 12.739617
_cell_angle_alpha 90.000000
_cell_angle_beta 90.000000
_cell_angle_gamma 90.000000
_cell_volume 4243.852710
_symmetry_space_group_name_H-M "P -4 M 2"
_symmetry_group_IT_number 115
_symmetry_cell_setting 'tetragonal'
loop_
_space_group_symop_operation_xyz
x,y,z
y,-x,-z
-x,-y,z
-y,x,-z
y,x,-z
-y,-x,-z
-x,y,z
x,-y,z
loop_
_atom_site_type_symbol
_atom_site_label
_atom_site_fract_x
_atom_site_fract_y
_atom_site_fract_z
Si Si1 0.306752 0.088511 0.929040
Si Si2 0.334619 0.911544 0.545349
Si Si3 0.318681 0.910855 0.307301
Si Si4 0.417846 0.088489 0.119289
Si Si5 0.417725 0.910875 0.744623
Si Si6 0.086053 0.843599 0.776589
Si Si7 0.914451 0.169327 0.407642
Si Si8 0.154123 0.845878 0.000000
O O1 0.352676 0.108369 0.824959
O O2 0.289824 0.000000 0.926512
O O3 0.362792 0.102358 0.024352
O O4 0.234135 0.135279 0.952088
O O5 0.332913 0.884609 0.425575
O O6 0.395897 0.886344 0.627337
O O7 0.255018 0.896076 0.594025
O O8 0.341761 0.000000 0.539512
O O9 0.380726 0.885564 0.226779
O O10 0.238698 0.892325 0.260802
O O11 0.319928 0.000000 0.309642
O O12 0.500000 0.116284 0.102653
O O13 0.422264 0.000000 0.125960
O O14 0.500000 0.886800 0.774442
O O15 0.419075 0.000000 0.745847
O O16 0.131846 0.897486 0.702927
O O17 0.101388 0.854433 0.899466
O O18 0.000000 0.852508 0.755234
O O19 0.869186 0.130815 0.500000
O O20 0.000000 0.162590 0.433865
#
# Coordination Sequence:
#
# PCOD9556619 Si02
#       8
#     8   8   8   8   8   8   8   4
#     4  10  19  32  46  63  87 115 151 191 230 274
#     4   9  17  29  45  63  84 107 136 177 228 279
#     4   9  16  29  44  60  84 108 132 174 227 275
#     4   9  16  27  46  67  84 106 137 175 221 271
#     4   9  17  29  46  68  91 111 136 179 232 282
#     4  11  22  35  46  59  82 112 150 201 247 278
#     4  11  21  33  48  63  81 113 157 204 248 283
#     4  12  22  32  50  63  82 120 154 191 240 284
#
# _framework density 14.138097999999999
#
# number of rings (size 3 to 8) (size 9 to 14) (size 15 to 20)
#    0.000    2.133    2.667    2.000    0.000    5.200 
#    0.000    2.667    0.000    1.800    0.000    0.000 
#    0.000    0.000    0.000    0.000    0.000    5.333 
#
# Total GULP energy -334230.522227 kJ/mol
# GULP energy per Si atom -5570.508704 kJ/mol
# Density = 1.410592 g / cm^3
# Si number density = 14.138098 Si / 1000 Ang^3
#
#
#
# Elastic Constant Matrix: (Units=GPa)
#
#
# Indices 1 2 3 4 5 6 
#
# 1 32.1062 17.9739 6.9407 0.0000 0.0000 0.0000
# 2 17.9739 32.1048 6.9405 0.0000 0.0000 0.0000
# 3 6.9407 6.9405 79.7832 0.0000 0.0000 0.0000
# 4 0.0000 0.0000 0.0000 14.6333 0.0000 0.0000
# 5 0.0000 0.0000 0.0000 0.0000 14.6335 0.0000
# 6 0.0000 0.0000 0.0000 0.0000 0.0000 0.9198
#
#
#
# Elastic Compliance Matrix: (Units=1/GPa)
#
#
# Indices 1 2 3 4 5 6 
#
# 1 0.045611 -0.025151 -0.001780 0.000000 0.000000 0.000000
# 2 -0.025151 0.045613 -0.001780 0.000000 0.000000 0.000000
# 3 -0.001780 -0.001780 0.012844 0.000000 0.000000 0.000000
# 4 0.000000 0.000000 0.000000 0.068337 0.000000 0.000000
# 5 0.000000 0.000000 0.000000 0.000000 0.068336 0.000000
# 6 0.000000 0.000000 0.000000 0.000000 0.000000 1.087156
#
#
# Mechanical properties :
#
#
# Convention : Reuss Voigt Hill
#
# Bulk Modulus (GPa) = 21.43764 23.07826 22.25795
# Shear Modulus (GPa) = 3.56921 13.51329 8.54125
#
# Velocity S-wave (km/s) = 1.59060 3.09497 2.46057
# Velocity P-wave (km/s) = 4.30921 5.39728 4.88364
#
# Compressibility (1/GPa) = 0.04664692
#
# Stress axis : x y z
#
# Youngs Moduli (GPa) = 21.92431 21.92338 77.85940
#
# Poissons Ratio (x) = 0.55139 0.13859
# Poissons Ratio (y) = 0.55141 0.13859
# Poissons Ratio (z) = 0.03903 0.03902
#
# Static dielectric constant tensor:
#      x y z
#    x 1.457150 0.000000 0.000000 
#    y 0.000000 1.457150 0.000000 
#    z 0.000000 0.000000 1.507510 
# 
# From -- ./inp_files/3212.got.cif
#   From: 2010.05.17/outbox.cif.g08.bks.cpg/sg115_2_cif.got.tgz:3212.got - 2010.05.20 11:07:42.
