data_PCOD9556577
_publ_section_title
;
Structure prediction by ZEFSAII (Michael W. Deem and Ramdas Pophale) SiO2 
 PCOD9556577
Probable space group: P -4 M 2
;
_chemical_formula_sum "Si O2"
_cell_formula_units_Z 64
_cell_length_a 14.696970
_cell_length_b 14.696970
_cell_length_c 20.558904
_cell_angle_alpha 90.000000
_cell_angle_beta 90.000000
_cell_angle_gamma 90.000000
_cell_volume 4440.742326
_symmetry_space_group_name_H-M "P -4 M 2"
_symmetry_group_IT_number 115
_symmetry_cell_setting 'tetragonal'
loop_
_space_group_symop_operation_xyz
x,y,z
y,-x,-z
-x,-y,z
-y,x,-z
y,x,-z
-y,-x,-z
-x,y,z
x,-y,z
loop_
_atom_site_type_symbol
_atom_site_label
_atom_site_fract_x
_atom_site_fract_y
_atom_site_fract_z
Si Si1 0.892668 0.258162 0.112604
Si Si2 0.892668 0.258162 0.887396
Si Si3 0.743947 0.105454 0.263193
Si Si4 0.239202 0.608655 0.500000
Si Si5 0.396583 0.110239 0.000000
Si Si6 0.743946 0.894546 0.736808
Si Si7 0.105082 0.392577 0.380167
Si Si8 0.105082 0.392577 0.619833
O O1 0.830093 0.169907 0.101454
O O2 0.881908 0.285964 0.188169
O O3 0.000000 0.238208 0.101853
O O4 0.864681 0.338033 0.063464
O O5 0.881908 0.285964 0.811831
O O6 0.864681 0.338033 0.936535
O O7 0.000000 0.238208 0.898147
O O8 0.827632 0.172368 0.275190
O O9 0.665561 0.122846 0.315633
O O10 0.771860 0.000000 0.269633
O O11 0.327894 0.672107 0.500000
O O12 0.259883 0.500000 0.500000
O O13 0.176324 0.628289 0.437094
O O14 0.176324 0.628289 0.562906
O O15 0.500000 0.144774 0.000000
O O16 0.401482 0.000000 0.000000
O O17 0.665560 0.877154 0.684367
O O18 0.771860 0.000000 0.730367
O O19 0.111514 0.500000 0.366126
O O20 0.000000 0.374958 0.401026
O O21 0.111514 0.500000 0.633874
O O22 0.000000 0.374958 0.598974
#
# Coordination Sequence:
#
# PCOD9556577 Si02
#       8
#     8   8   8   8   8   8   8   8
#     4   9  17  28  42  61  85 112 140 169 201 240
#     4   9  17  28  42  61  85 112 140 169 201 240
#     4   9  17  28  42  61  85 112 140 169 201 239
#     4  10  19  30  45  63  84 110 137 169 210 253
#     4   9  17  28  41  57  79 107 137 169 205 242
#     4   9  17  28  42  61  85 112 140 169 201 239
#     4   9  17  29  45  64  84 107 138 174 209 245
#     4   9  17  29  45  64  84 107 138 174 209 245
#
# _framework density 14.412005000000001
#
# number of rings (size 3 to 8) (size 9 to 14) (size 15 to 20)
#    0.000    2.875    0.000    1.500    0.000    3.125 
#    0.000    7.500    0.000    2.250    0.000    0.000 
#    0.000   13.000    0.000   18.500    0.000    1.500 
#
# Total GULP energy -356329.716113 kJ/mol
# GULP energy per Si atom -5567.651814 kJ/mol
# Density = 1.437920 g / cm^3
# Si number density = 14.412005 Si / 1000 Ang^3
#
#
#
# Elastic Constant Matrix: (Units=GPa)
#
#
# Indices 1 2 3 4 5 6 
#
# 1 78.6939 58.4954 68.3215 0.0000 0.0000 0.0000
# 2 58.4954 78.6969 68.3224 0.0000 0.0000 0.0000
# 3 68.3215 68.3224 102.3540 0.0000 0.0000 0.0000
# 4 0.0000 0.0000 0.0000 22.6645 0.0000 0.0000
# 5 0.0000 0.0000 0.0000 0.0000 22.6647 0.0000
# 6 0.0000 0.0000 0.0000 0.0000 0.0000 20.8334
#
#
#
# Elastic Compliance Matrix: (Units=1/GPa)
#
#
# Indices 1 2 3 4 5 6 
#
# 1 0.035628 -0.013878 -0.014518 0.000000 0.000000 0.000000
# 2 -0.013878 0.035626 -0.014517 0.000000 0.000000 0.000000
# 3 -0.014518 -0.014517 0.029151 0.000000 0.000000 0.000000
# 4 0.000000 0.000000 0.000000 0.044122 0.000000 0.000000
# 5 0.000000 0.000000 0.000000 0.000000 0.044121 0.000000
# 6 0.000000 0.000000 0.000000 0.000000 0.000000 0.048000
#
#
# Mechanical properties :
#
#
# Convention : Reuss Voigt Hill
#
# Bulk Modulus (GPa) = 68.59323 72.22481 70.40902
# Shear Modulus (GPa) = 15.27499 17.53956 16.40728
#
# Velocity S-wave (km/s) = 3.25911 3.49235 3.37775
# Velocity P-wave (km/s) = 7.86513 8.15384 8.01079
#
# Compressibility (1/GPa) = 0.01457870
#
# Stress axis : x y z
#
# Youngs Moduli (GPa) = 28.06799 28.06959 34.30442
#
# Poissons Ratio (x) = 0.38956 0.49802
# Poissons Ratio (y) = 0.38953 0.49799
# Poissons Ratio (z) = 0.40748 0.40748
#
# Static dielectric constant tensor:
#      x y z
#    x 1.456830 0.000000 0.000000 
#    y 0.000000 1.456830 0.000000 
#    z 0.000000 0.000000 1.480990 
# 
# From -- ./inp_files/4452.got.cif
#   From: 2010.05.17/outbox.cif.g08.bks.cpg/sg115_3_cif.got.tgz:4452.got - 2010.05.20 11:07:42.
