data_PCOD9556981
_publ_section_title
;
Structure prediction by ZEFSAII (Michael W. Deem and Ramdas Pophale) SiO2 
 PCOD9556981
Probable space group: P -4 M 2
;
_chemical_formula_sum "Si O2"
_cell_formula_units_Z 48
_cell_length_a 9.148230
_cell_length_b 9.148230
_cell_length_c 31.766209
_cell_angle_alpha 90.000000
_cell_angle_beta 90.000000
_cell_angle_gamma 90.000000
_cell_volume 2658.517593
_symmetry_space_group_name_H-M "P -4 M 2"
_symmetry_group_IT_number 115
_symmetry_cell_setting 'tetragonal'
loop_
_space_group_symop_operation_xyz
x,y,z
y,-x,-z
-x,-y,z
-y,x,-z
y,x,-z
-y,-x,-z
-x,y,z
x,-y,z
loop_
_atom_site_type_symbol
_atom_site_label
_atom_site_fract_x
_atom_site_fract_y
_atom_site_fract_z
Si Si1 0.326333 0.673719 0.548669
Si Si2 0.178363 0.169346 0.046424
Si Si3 0.827323 0.824448 0.783805
Si Si4 0.821932 0.332620 0.130361
Si Si5 0.674016 0.326488 0.295172
Si Si6 0.173406 0.173368 0.374222
O O1 0.291437 0.708564 0.500000
O O2 0.500000 0.699050 0.554788
O O3 0.301332 0.500000 0.554764
O O4 0.235230 0.764583 0.582074
O O5 0.227372 0.262661 0.086321
O O6 0.000000 0.170675 0.045680
O O7 0.222200 0.000000 0.051724
O O8 0.223387 0.223387 0.000000
O O9 0.761053 0.779741 0.828903
O O10 0.745700 0.743903 0.746108
O O11 0.000000 0.795218 0.782389
O O12 0.806918 0.000000 0.779318
O O13 0.774426 0.500000 0.134658
O O14 0.000000 0.331497 0.129342
O O15 0.500000 0.302899 0.295804
O O16 0.701558 0.500000 0.295157
O O17 0.745932 0.254397 0.336135
O O18 0.000000 0.199124 0.371388
O O19 0.199390 0.000000 0.371279
#
# Coordination Sequence:
#
# PCOD9556981 Si02
#       6
#     8   8   8   8   8   8
#     4   9  19  37  60  85 113 146 185 226 267 315
#     4   8  13  22  38  61  89 122 162 207 252 299
#     4  10  20  34  54  80 108 137 172 215 262 313
#     4   9  16  26  43  69 100 132 166 207 256 308
#     4  11  24  40  58  80 106 138 177 219 264 317
#     4  11  24  39  56  82 114 145 180 223 268 314
#
# _framework density 18.055177
#
# number of rings (size 3 to 8) (size 9 to 14) (size 15 to 20)
#    0.000    2.333    0.000    4.000    0.000   10.667 
#    0.000    2.500    0.000    1.000    0.000    2.333 
#    0.000    0.000    0.000    0.000    0.000    0.000 
#
# Total GULP energy -267934.858253 kJ/mol
# GULP energy per Si atom -5581.976214 kJ/mol
# Density = 1.801408 g / cm^3
# Si number density = 18.055177 Si / 1000 Ang^3
#
#
#
# Elastic Constant Matrix: (Units=GPa)
#
#
# Indices 1 2 3 4 5 6 
#
# 1 87.2786 76.3875 92.4344 0.0000 0.0000 0.0000
# 2 76.3875 87.2785 92.4342 0.0000 0.0000 0.0000
# 3 92.4344 92.4342 180.6342 0.0000 0.0000 0.0000
# 4 0.0000 0.0000 0.0000 82.1921 0.0000 0.0000
# 5 0.0000 0.0000 0.0000 0.0000 82.1903 0.0000
# 6 0.0000 0.0000 0.0000 0.0000 0.0000 23.7944
#
#
#
# Elastic Compliance Matrix: (Units=1/GPa)
#
#
# Indices 1 2 3 4 5 6 
#
# 1 0.053149 -0.038670 -0.007409 0.000000 0.000000 0.000000
# 2 -0.038670 0.053149 -0.007409 0.000000 0.000000 0.000000
# 3 -0.007409 -0.007409 0.013119 0.000000 0.000000 0.000000
# 4 0.000000 0.000000 0.000000 0.012167 0.000000 0.000000
# 5 0.000000 0.000000 0.000000 0.000000 0.012167 0.000000
# 6 0.000000 0.000000 0.000000 0.000000 0.000000 0.042027
#
#
# Mechanical properties :
#
#
# Convention : Reuss Voigt Hill
#
# Bulk Modulus (GPa) = 80.38468 97.52260 88.95364
# Shear Modulus (GPa) = 16.84070 43.89771 30.36921
#
# Velocity S-wave (km/s) = 3.05738 4.93618 4.10570
# Velocity P-wave (km/s) = 7.55525 9.30692 8.47645
#
# Compressibility (1/GPa) = 0.01244018
#
# Stress axis : x y z
#
# Youngs Moduli (GPa) = 18.81509 18.81515 76.22520
#
# Poissons Ratio (x) = 0.72757 0.56478
# Poissons Ratio (y) = 0.72757 0.56477
# Poissons Ratio (z) = 0.13941 0.13940
#
# Static dielectric constant tensor:
#      x y z
#    x 1.601310 0.000000 0.000000 
#    y 0.000000 1.601310 0.000000 
#    z 0.000000 0.000000 1.604210 
# 
# From -- ./inp_files/6128.got.cif
#   From: 2010.05.17/outbox.cif.g08.bks.cpg/sg115_4_cif.got.tgz:6128.got - 2010.05.20 11:07:42.
