data_PCOD9556398
_publ_section_title
;
Structure prediction by ZEFSAII (Michael W. Deem and Ramdas Pophale) SiO2 
 PCOD9556398
Probable space group: P -4 21 C
;
_chemical_formula_sum "Si O2"
_cell_formula_units_Z 48
_cell_length_a 8.738898
_cell_length_b 8.738898
_cell_length_c 28.736177
_cell_angle_alpha 90.000000
_cell_angle_beta 90.000000
_cell_angle_gamma 90.000000
_cell_volume 2194.534085
_symmetry_space_group_name_H-M "P -4 21 C"
_symmetry_group_IT_number 114
_symmetry_cell_setting 'tetragonal'
loop_
_space_group_symop_operation_xyz
x,y,z
y,-x,-z
-x,-y,z
-y,x,-z
1/2+x,1/2-y,1/2-z
1/2-x,1/2+y,1/2-z
1/2-y,1/2-x,1/2+z
1/2+y,1/2+x,1/2+z
loop_
_atom_site_type_symbol
_atom_site_label
_atom_site_fract_x
_atom_site_fract_y
_atom_site_fract_z
Si Si1 0.000000 0.000000 0.165163
Si Si2 0.457977 0.161409 0.217325
Si Si3 0.500265 0.261689 0.992069
Si Si4 0.000000 0.500000 0.937102
Si Si5 0.227498 0.718057 0.696223
Si Si6 0.187329 0.029794 0.392862
Si Si7 0.731928 0.806091 0.128630
O O1 0.889168 0.893919 0.135451
O O2 0.120258 0.885603 0.191198
O O3 0.381072 0.134220 0.266825
O O4 0.616755 0.249618 0.220010
O O5 0.343379 0.227962 0.179373
O O6 0.500000 0.000000 0.195429
O O7 0.416413 0.245312 0.942487
O O8 0.375703 0.361051 0.019831
O O9 0.555833 0.127528 0.025551
O O10 0.909636 0.379890 0.903901
O O11 0.144634 0.758390 0.647742
O O12 0.261360 0.863601 0.388518
O O13 0.000000 0.000000 0.391108
#
# Coordination Sequence:
#
# PCOD9556398 Si02
#       7
#     4   8   8   4   8   8   8
#     4  12  28  46  68 105 148 196 244 301 374 438
#     4  12  26  45  72 105 143 200 243 302 373 432
#     4  11  23  43  77 108 139 185 247 299 373 453
#     4  12  24  48  72 106 150 192 236 320 380 442
#     4  12  29  46  75 106 151 191 257 311 367 446
#     4  12  25  48  79 110 140 196 252 312 367 449
#     4  12  25  47  72 102 145 196 242 299 377 440
#
# _framework density 21.872526000000001
#
# number of rings (size 3 to 8) (size 9 to 14) (size 15 to 20)
#    0.000    0.167    7.500    1.000    7.000    1.333 
#    1.500    0.000    0.000    1.000    0.000    0.000 
#    0.000    0.000    0.000    0.000    0.000    0.000 
#
# Total GULP energy -267635.650646 kJ/mol
# GULP energy per Si atom -5575.742722 kJ/mol
# Density = 2.182274 g / cm^3
# Si number density = 21.872526 Si / 1000 Ang^3
#
#
#
# Elastic Constant Matrix: (Units=GPa)
#
#
# Indices 1 2 3 4 5 6 
#
# 1 79.4817 23.6172 18.3344 0.0000 0.0000 0.0000
# 2 23.6172 79.4817 18.3344 0.0000 0.0000 0.0000
# 3 18.3344 18.3344 122.2466 0.0000 0.0000 0.0000
# 4 0.0000 0.0000 0.0000 -63.0741 0.0000 0.0000
# 5 0.0000 0.0000 0.0000 0.0000 -63.0741 0.0000
# 6 0.0000 0.0000 0.0000 0.0000 0.0000 36.3585
#
#
#
# Elastic Compliance Matrix: (Units=1/GPa)
#
#
# Indices 1 2 3 4 5 6 
#
# 1 0.014073 -0.003827 -0.001537 0.000000 0.000000 0.000000
# 2 -0.003827 0.014073 -0.001537 0.000000 0.000000 0.000000
# 3 -0.001537 -0.001537 0.008641 0.000000 0.000000 0.000000
# 4 0.000000 0.000000 0.000000 -0.015854 0.000000 0.000000
# 5 0.000000 0.000000 0.000000 0.000000 -0.015854 0.000000
# 6 0.000000 0.000000 0.000000 0.000000 0.000000 0.027504
#
#
# Mechanical properties :
#
#
# Convention : Reuss Voigt Hill
#
# Bulk Modulus (GPa) = 43.50408 44.64244 44.07326
# Shear Modulus (GPa) = 92.51383 -3.22966 44.64208
#
# Velocity S-wave (km/s) = 6.51066 -1.21647 4.52266
# Velocity P-wave (km/s) = 8.74364 4.29902 6.88958
#
# Compressibility (1/GPa) = 0.02298635
#
# Stress axis : x y z
#
# Youngs Moduli (GPa) = 71.05703 71.05703 115.72571
#
# Poissons Ratio (x) = 0.27195 0.17783
# Poissons Ratio (y) = 0.27195 0.17783
# Poissons Ratio (z) = 0.10919 0.10919
#
# Static dielectric constant tensor:
#      x y z
#    x 1.933890 0.000000 0.000000 
#    y 0.000000 1.933890 0.000000 
#    z 0.000000 0.000000 1.843440 
# 
# From -- ./inp_files/4016.got.cif
#   From: 2010.05.17/outbox.cif.g08.bks.cpg/sg114_3_cif.got.tgz:4016.got - 2010.05.20 11:04:54.
