data_PCOD9556791
_publ_section_title
;
Structure prediction by ZEFSAII (Michael W. Deem and Ramdas Pophale) SiO2 
 PCOD9556791
Probable space group: P -4 M 2
;
_chemical_formula_sum "Si O2"
_cell_formula_units_Z 48
_cell_length_a 9.068513
_cell_length_b 9.068513
_cell_length_c 32.042878
_cell_angle_alpha 90.000000
_cell_angle_beta 90.000000
_cell_angle_gamma 90.000000
_cell_volume 2635.139895
_symmetry_space_group_name_H-M "P -4 M 2"
_symmetry_group_IT_number 115
_symmetry_cell_setting 'tetragonal'
loop_
_space_group_symop_operation_xyz
x,y,z
y,-x,-z
-x,-y,z
-y,x,-z
y,x,-z
-y,-x,-z
-x,y,z
x,-y,z
loop_
_atom_site_type_symbol
_atom_site_label
_atom_site_fract_x
_atom_site_fract_y
_atom_site_fract_z
Si Si1 0.324352 0.175701 0.459886
Si Si2 0.677083 0.826112 0.300741
Si Si3 0.324773 0.824549 0.620107
Si Si4 0.320262 0.670482 0.876140
Si Si5 0.679531 0.670417 0.215480
Si Si6 0.677570 0.828423 0.960708
O O1 0.250521 0.250521 0.500000
O O2 0.500000 0.201296 0.460285
O O3 0.254086 0.244403 0.418398
O O4 0.299371 0.000000 0.460803
O O5 0.500000 0.803423 0.304815
O O6 0.758953 0.738655 0.337083
O O7 0.722487 0.766502 0.255199
O O8 0.705632 0.000000 0.304414
O O9 0.500000 0.798312 0.617589
O O10 0.299405 0.000000 0.618202
O O11 0.500000 0.671602 0.875070
O O12 0.274385 0.500000 0.880836
O O13 0.274967 0.727650 0.830340
O O14 0.272517 0.760843 0.916477
O O15 0.500000 0.669972 0.213687
O O16 0.725842 0.500000 0.221377
O O17 0.500000 0.813978 0.962273
O O18 0.715356 0.000000 0.962699
O O19 0.744904 0.744904 0.000000
#
# Coordination Sequence:
#
# PCOD9556791 Si02
#       6
#     8   8   8   8   8   8
#     4  11  24  41  62  89 118 148 184 224 268 320
#     4  10  20  34  54  81 111 143 179 218 263 316
#     4  11  24  40  58  82 111 145 187 230 271 317
#     4   8  14  27  49  74  98 128 169 215 259 304
#     4   8  14  27  49  75 102 134 172 214 260 308
#     4  10  20  33  50  73 100 132 170 211 258 311
#
# _framework density 18.215351999999999
#
# number of rings (size 3 to 8) (size 9 to 14) (size 15 to 20)
#    0.000    2.333    0.000    4.000    0.000    8.667 
#    0.000    1.667    0.000    6.000    0.000    0.000 
#    0.000    0.000    0.000    0.000    0.000    0.000 
#
# Total GULP energy -267896.688002 kJ/mol
# GULP energy per Si atom -5581.181000 kJ/mol
# Density = 1.817389 g / cm^3
# Si number density = 18.215352 Si / 1000 Ang^3
#
#
#
# Elastic Constant Matrix: (Units=GPa)
#
#
# Indices 1 2 3 4 5 6 
#
# 1 65.6696 61.6419 66.3378 0.0000 0.0000 0.0000
# 2 61.6419 65.6696 66.3378 0.0000 0.0000 0.0000
# 3 66.3378 66.3378 186.5288 0.0000 0.0000 0.0000
# 4 0.0000 0.0000 0.0000 -31.1506 0.0000 0.0000
# 5 0.0000 0.0000 0.0000 0.0000 -31.1506 0.0000
# 6 0.0000 0.0000 0.0000 0.0000 0.0000 20.5960
#
#
#
# Elastic Compliance Matrix: (Units=1/GPa)
#
#
# Indices 1 2 3 4 5 6 
#
# 1 0.130380 -0.117900 -0.004439 0.000000 0.000000 0.000000
# 2 -0.117900 0.130380 -0.004439 0.000000 0.000000 0.000000
# 3 -0.004439 -0.004439 0.008518 0.000000 0.000000 0.000000
# 4 0.000000 0.000000 0.000000 -0.032102 0.000000 0.000000
# 5 0.000000 0.000000 0.000000 0.000000 -0.032102 0.000000
# 6 0.000000 0.000000 0.000000 0.000000 0.000000 0.048553
#
#
# Mechanical properties :
#
#
# Convention : Reuss Voigt Hill
#
# Bulk Modulus (GPa) = 63.59457 78.50036 71.04746
# Shear Modulus (GPa) = 9.75756 -0.10435 4.82661
#
# Velocity S-wave (km/s) = 2.31698 -0.23960 1.62957
# Velocity P-wave (km/s) = 6.49202 6.56603 6.52913
#
# Compressibility (1/GPa) = 0.01572461
#
# Stress axis : x y z
#
# Youngs Moduli (GPa) = 7.66988 7.66988 117.39592
#
# Poissons Ratio (x) = 0.90428 0.52107
# Poissons Ratio (y) = 0.90428 0.52107
# Poissons Ratio (z) = 0.03404 0.03404
#
# Static dielectric constant tensor:
#      x y z
#    x 1.606840 0.000000 0.000000 
#    y 0.000000 1.606840 0.000000 
#    z 0.000000 0.000000 1.617680 
# 
# From -- ./inp_files/5895.got.cif
#   From: 2010.05.17/outbox.cif.g08.bks.cpg/sg115_3_cif.got.tgz:5895.got - 2010.05.20 11:07:42.
