data_PCOD9556688
_publ_section_title
;
Structure prediction by ZEFSAII (Michael W. Deem and Ramdas Pophale) SiO2 
 PCOD9556688
Probable space group: P -4 M 2
;
_chemical_formula_sum "Si O2"
_cell_formula_units_Z 35
_cell_length_a 15.108458
_cell_length_b 15.108458
_cell_length_c 8.584597
_cell_angle_alpha 90.000000
_cell_angle_beta 90.000000
_cell_angle_gamma 90.000000
_cell_volume 1959.567353
_symmetry_space_group_name_H-M "P -4 M 2"
_symmetry_group_IT_number 115
_symmetry_cell_setting 'tetragonal'
loop_
_space_group_symop_operation_xyz
x,y,z
y,-x,-z
-x,-y,z
-y,x,-z
y,x,-z
-y,-x,-z
-x,y,z
x,-y,z
loop_
_atom_site_type_symbol
_atom_site_label
_atom_site_fract_x
_atom_site_fract_y
_atom_site_fract_z
Si Si1 0.310346 0.175880 0.060983
Si Si2 0.500000 0.700781 0.397572
Si Si3 0.326093 0.000000 0.931866
Si Si4 0.813046 0.674070 0.565605
Si Si5 0.000000 0.500000 0.851654
Si Si6 0.391829 0.000000 0.577800
Si Si7 0.500000 0.500000 0.500000
Si Si8 0.500000 0.188676 0.107010
O O1 0.312400 0.174152 0.248227
O O2 0.412089 0.184810 0.008121
O O3 0.257972 0.257972 0.000000
O O4 0.274252 0.087658 0.980698
O O5 0.411266 0.748775 0.461508
O O6 0.500000 0.595592 0.415468
O O7 0.500000 0.727033 0.215858
O O8 0.362206 0.000000 0.758025
O O9 0.411529 0.000000 0.046274
O O10 0.760080 0.760080 0.500000
O O11 0.909847 0.649598 0.496195
O O12 0.900972 0.500000 0.782382
O O13 0.500000 0.000000 0.563218
#
# Coordination Sequence:
#
# PCOD9556688 Si02
#       8
#     8   4   4   8   2   4   1   4
#     4  10  20  37  57  82 116 157 195 245 304 371
#     4  10  20  33  54  75 114 161 203 248 295 361
#     4  10  19  35  55  86 116 148 190 243 310 363
#     4  11  22  39  58  89 123 159 206 256 317 365
#     4   8  14  30  54  76 108 130 180 242 298 348
#     4  12  23  36  61  95 123 156 207 268 315 371
#     4  12  20  36  52  76 114 176 212 236 294 364
#     4   8  18  32  52  80 105 146 192 239 298 346
#
# _framework density 17.861086
#
# number of rings (size 3 to 8) (size 9 to 14) (size 15 to 20)
#    0.000    1.829    2.857    2.057    0.000    2.743 
#    2.057    4.571    0.000    0.686    0.000    4.800 
#    0.000    0.000    0.000    0.000    0.000    0.000 
#
# Total GULP energy -194876.284270 kJ/mol
# GULP energy per Si atom -5567.893836 kJ/mol
# Density = 1.782043 g / cm^3
# Si number density = 17.861086 Si / 1000 Ang^3
#
#
#
# Elastic Constant Matrix: (Units=GPa)
#
#
# Indices 1 2 3 4 5 6 
#
# 1 127.6095 60.7074 32.5902 0.0000 0.0000 0.0000
# 2 60.7074 127.6095 32.5902 0.0000 0.0000 0.0000
# 3 32.5902 32.5902 75.5613 0.0000 0.0000 0.0000
# 4 0.0000 0.0000 0.0000 13.1041 0.0000 0.0000
# 5 0.0000 0.0000 0.0000 0.0000 13.1041 0.0000
# 6 0.0000 0.0000 0.0000 0.0000 0.0000 -18.6787
#
#
#
# Elastic Compliance Matrix: (Units=1/GPa)
#
#
# Indices 1 2 3 4 5 6 
#
# 1 0.010595 -0.004353 -0.002692 0.000000 0.000000 0.000000
# 2 -0.004353 0.010595 -0.002692 0.000000 0.000000 0.000000
# 3 -0.002692 -0.002692 0.015557 0.000000 0.000000 0.000000
# 4 0.000000 0.000000 0.000000 0.076312 0.000000 0.000000
# 5 0.000000 0.000000 0.000000 0.000000 0.076312 0.000000
# 6 0.000000 0.000000 0.000000 0.000000 0.000000 -0.053537
#
#
# Mechanical properties :
#
#
# Convention : Reuss Voigt Hill
#
# Bulk Modulus (GPa) = 57.89794 64.72842 61.31318
# Shear Modulus (GPa) = 31.04339 15.16538 23.10439
#
# Velocity S-wave (km/s) = 4.17351 2.91705 3.60051
# Velocity P-wave (km/s) = 7.46393 6.90392 7.18938
#
# Compressibility (1/GPa) = 0.01727177
#
# Stress axis : x y z
#
# Youngs Moduli (GPa) = 94.38749 94.38749 64.28118
#
# Poissons Ratio (x) = 0.41083 0.17306
# Poissons Ratio (y) = 0.41083 0.17306
# Poissons Ratio (z) = 0.25411 0.25411
#
# Static dielectric constant tensor:
#      x y z
#    x 1.677680 0.000000 0.000000 
#    y 0.000000 1.677680 0.000000 
#    z 0.000000 0.000000 1.622910 
# 
# From -- ./inp_files/1571.got.cif
#   From: 2010.05.17/outbox.cif.g08.bks.cpg/sg115_1_cif.got.tgz:1571.got - 2010.05.20 11:07:42.
