data_PCOD9556831
_publ_section_title
;
Structure prediction by ZEFSAII (Michael W. Deem and Ramdas Pophale) SiO2 
 PCOD9556831
Probable space group: P -4 M 2
;
_chemical_formula_sum "Si O2"
_cell_formula_units_Z 44
_cell_length_a 9.289604
_cell_length_b 9.289604
_cell_length_c 29.302848
_cell_angle_alpha 90.000000
_cell_angle_beta 90.000000
_cell_angle_gamma 90.000000
_cell_volume 2528.740328
_symmetry_space_group_name_H-M "P -4 M 2"
_symmetry_group_IT_number 115
_symmetry_cell_setting 'tetragonal'
loop_
_space_group_symop_operation_xyz
x,y,z
y,-x,-z
-x,-y,z
-y,x,-z
y,x,-z
-y,-x,-z
-x,y,z
x,-y,z
loop_
_atom_site_type_symbol
_atom_site_label
_atom_site_fract_x
_atom_site_fract_y
_atom_site_fract_z
Si Si1 0.168573 0.673351 0.540663
Si Si2 0.175392 0.165022 0.731842
Si Si3 0.170513 0.829488 0.000000
Si Si4 0.824494 0.666540 0.642256
Si Si5 0.827702 0.670404 0.823903
Si Si6 0.670659 0.828508 0.906475
O O1 0.256630 0.743371 0.500000
O O2 0.177983 0.500000 0.538966
O O3 0.219512 0.716442 0.591632
O O4 0.000000 0.712206 0.536226
O O5 0.224042 0.237786 0.684662
O O6 0.217203 0.255635 0.776327
O O7 0.000000 0.165826 0.730815
O O8 0.222479 0.000000 0.735523
O O9 0.259448 0.789090 0.955123
O O10 0.000000 0.807603 0.991280
O O11 0.781335 0.500000 0.648743
O O12 0.000000 0.667468 0.641814
O O13 0.801791 0.500000 0.822072
O O14 0.746037 0.742694 0.865887
O O15 0.000000 0.692847 0.829301
O O16 0.500000 0.803430 0.906996
O O17 0.695602 0.000000 0.899965
#
# Coordination Sequence:
#
# PCOD9556831 Si02
#       6
#     8   8   4   8   8   8
#     4   9  18  31  47  69  97 129 164 202 245 294
#     4   9  16  26  44  71  99 126 160 204 251 297
#     4   9  18  34  56  79 104 136 172 209 248 293
#     4   8  14  26  43  64  93 125 156 196 247 298
#     4  10  20  33  51  75 102 134 171 208 246 292
#     4  10  21  36  54  77 105 135 166 204 251 298
#
# _framework density 17.399968000000001
#
# number of rings (size 3 to 8) (size 9 to 14) (size 15 to 20)
#    0.000    2.818    0.000    2.727    0.000    6.182 
#    0.000    3.636    0.000    1.091    0.000    5.091 
#    0.000    0.000    0.000    0.000    0.000    0.000 
#
# Total GULP energy -245319.506715 kJ/mol
# GULP energy per Si atom -5575.443334 kJ/mol
# Density = 1.736037 g / cm^3
# Si number density = 17.399968 Si / 1000 Ang^3
#
#
#
# Elastic Constant Matrix: (Units=GPa)
#
#
# Indices 1 2 3 4 5 6 
#
# 1 54.2669 45.7495 82.0585 0.0000 0.0000 0.0000
# 2 45.7495 54.2689 82.0594 0.0000 0.0000 0.0000
# 3 82.0585 82.0594 211.1250 0.0000 0.0000 0.0000
# 4 0.0000 0.0000 0.0000 -32.8644 0.0000 0.0000
# 5 0.0000 0.0000 0.0000 0.0000 -32.8635 0.0000
# 6 0.0000 0.0000 0.0000 0.0000 0.0000 18.8488
#
#
#
# Elastic Compliance Matrix: (Units=1/GPa)
#
#
# Indices 1 2 3 4 5 6 
#
# 1 0.072499 -0.044895 -0.010729 0.000000 0.000000 0.000000
# 2 -0.044895 0.072495 -0.010728 0.000000 0.000000 0.000000
# 3 -0.010729 -0.010728 0.013076 0.000000 0.000000 0.000000
# 4 0.000000 0.000000 0.000000 -0.030428 0.000000 0.000000
# 5 0.000000 0.000000 0.000000 0.000000 -0.030429 0.000000
# 6 0.000000 0.000000 0.000000 0.000000 0.000000 0.053054
#
#
# Mechanical properties :
#
#
# Convention : Reuss Voigt Hill
#
# Bulk Modulus (GPa) = 39.42052 82.15507 60.78779
# Shear Modulus (GPa) = 17.15702 -2.05627 7.55038
#
# Velocity S-wave (km/s) = 3.14353 -1.08827 2.08536
# Velocity P-wave (km/s) = 5.99002 6.76306 6.38825
#
# Compressibility (1/GPa) = 0.02536750
#
# Stress axis : x y z
#
# Youngs Moduli (GPa) = 13.79326 13.79406 76.47490
#
# Poissons Ratio (x) = 0.61928 0.82049
# Poissons Ratio (y) = 0.61925 0.82040
# Poissons Ratio (z) = 0.14799 0.14798
#
# Static dielectric constant tensor:
#      x y z
#    x 1.578990 0.000000 0.000000 
#    y 0.000000 1.578990 0.000000 
#    z 0.000000 0.000000 1.579230 
# 
# From -- ./inp_files/5706.got.cif
#   From: 2010.05.17/outbox.cif.g08.bks.cpg/sg115_3_cif.got.tgz:5706.got - 2010.05.20 11:07:42.
