data_PCOD9556415
_publ_section_title
;
Structure prediction by ZEFSAII (Michael W. Deem and Ramdas Pophale) SiO2 
 PCOD9556415
Probable space group: P -4 21 C
;
_chemical_formula_sum "Si O2"
_cell_formula_units_Z 36
_cell_length_a 13.671638
_cell_length_b 13.671638
_cell_length_c 9.143613
_cell_angle_alpha 90.000000
_cell_angle_beta 90.000000
_cell_angle_gamma 90.000000
_cell_volume 1709.066406
_symmetry_space_group_name_H-M "P -4 21 C"
_symmetry_group_IT_number 114
_symmetry_cell_setting 'tetragonal'
loop_
_space_group_symop_operation_xyz
x,y,z
y,-x,-z
-x,-y,z
-y,x,-z
1/2+x,1/2-y,1/2-z
1/2-x,1/2+y,1/2-z
1/2-y,1/2-x,1/2+z
1/2+y,1/2+x,1/2+z
loop_
_atom_site_type_symbol
_atom_site_label
_atom_site_fract_x
_atom_site_fract_y
_atom_site_fract_z
Si Si1 0.000000 0.500000 0.889474
Si Si2 0.919626 0.687239 0.058092
Si Si3 0.296712 0.068828 0.716471
Si Si4 0.010590 0.154854 0.528409
Si Si5 0.656132 0.261491 0.738487
O O1 0.952181 0.585207 0.985953
O O2 0.912655 0.447455 0.800037
O O3 0.869596 0.749194 0.930421
O O4 0.843690 0.668011 0.187745
O O5 0.012457 0.734933 0.136603
O O6 0.254472 0.177179 0.732252
O O7 0.243862 0.021185 0.575289
O O8 0.067086 0.187955 0.673247
O O9 0.915256 0.088266 0.555134
#
# Coordination Sequence:
#
# PCOD9556415 Si02
#       5
#     4   8   8   8   8
#     4  12  24  46  70  98 138 180 236 284 348 410
#     4  12  25  45  64 102 138 179 237 290 349 425
#     4  11  25  44  70 101 137 185 231 296 359 414
#     4   9  19  41  68  94 131 182 233 287 356 423
#     4  11  24  44  68 101 139 187 233 297 353 430
#
# _framework density 21.064133000000002
#
# number of rings (size 3 to 8) (size 9 to 14) (size 15 to 20)
#    0.000    1.111    4.444    0.667    3.111    1.778 
#    4.000    0.000    0.000    0.000    0.000    0.000 
#    0.000    0.000    0.000    0.000    0.000    0.000 
#
# Total GULP energy -201251.425507 kJ/mol
# GULP energy per Si atom -5590.317375 kJ/mol
# Density = 2.101619 g / cm^3
# Si number density = 21.064133 Si / 1000 Ang^3
#
#
#
# Elastic Constant Matrix: (Units=GPa)
#
#
# Indices 1 2 3 4 5 6 
#
# 1 78.7203 25.6953 9.3128 0.0000 0.0000 0.0000
# 2 25.6953 78.7203 9.3128 0.0000 0.0000 0.0000
# 3 9.3128 9.3128 68.0485 0.0000 0.0000 0.0000
# 4 0.0000 0.0000 0.0000 16.8640 0.0000 0.0000
# 5 0.0000 0.0000 0.0000 0.0000 16.8640 0.0000
# 6 0.0000 0.0000 0.0000 0.0000 0.0000 21.2181
#
#
#
# Elastic Compliance Matrix: (Units=1/GPa)
#
#
# Indices 1 2 3 4 5 6 
#
# 1 0.014338 -0.004521 -0.001343 0.000000 0.000000 0.000000
# 2 -0.004521 0.014338 -0.001343 0.000000 0.000000 0.000000
# 3 -0.001343 -0.001343 0.015063 0.000000 0.000000 0.000000
# 4 0.000000 0.000000 0.000000 0.059298 0.000000 0.000000
# 5 0.000000 0.000000 0.000000 0.000000 0.059298 0.000000
# 6 0.000000 0.000000 0.000000 0.000000 0.000000 0.047130
#
#
# Mechanical properties :
#
#
# Convention : Reuss Voigt Hill
#
# Bulk Modulus (GPa) = 34.10324 34.90345 34.50335
# Shear Modulus (GPa) = 21.39906 23.06707 22.23306
#
# Velocity S-wave (km/s) = 3.19078 3.31280 3.25236
# Velocity P-wave (km/s) = 5.45895 5.58918 5.52445
#
# Compressibility (1/GPa) = 0.02932273
#
# Stress axis : x y z
#
# Youngs Moduli (GPa) = 69.74520 69.74520 66.38729
#
# Poissons Ratio (x) = 0.31533 0.08919
# Poissons Ratio (y) = 0.31533 0.08919
# Poissons Ratio (z) = 0.09370 0.09370
#
# Static dielectric constant tensor:
#      x y z
#    x 1.768550 0.000000 0.000000 
#    y 0.000000 1.768550 0.000000 
#    z 0.000000 0.000000 1.739840 
# 
# From -- ./inp_files/708.got.cif
#   From: 2010.05.17/outbox.cif.g08.bks.cpg/sg114_1_cif.got.tgz:708.got - 2010.05.20 11:04:54.
