data_PCOD9556807
_publ_section_title
;
Structure prediction by ZEFSAII (Michael W. Deem and Ramdas Pophale) SiO2 
 PCOD9556807
Probable space group: P -4 M 2
;
_chemical_formula_sum "Si O2"
_cell_formula_units_Z 48
_cell_length_a 12.829906
_cell_length_b 12.829906
_cell_length_c 15.245099
_cell_angle_alpha 90.000000
_cell_angle_beta 90.000000
_cell_angle_gamma 90.000000
_cell_volume 2509.442205
_symmetry_space_group_name_H-M "P -4 M 2"
_symmetry_group_IT_number 115
_symmetry_cell_setting 'tetragonal'
loop_
_space_group_symop_operation_xyz
x,y,z
y,-x,-z
-x,-y,z
-y,x,-z
y,x,-z
-y,-x,-z
-x,y,z
x,-y,z
loop_
_atom_site_type_symbol
_atom_site_label
_atom_site_fract_x
_atom_site_fract_y
_atom_site_fract_z
Si Si1 0.828981 0.619906 0.321821
Si Si2 0.114408 0.374194 0.521844
Si Si3 0.725213 0.619548 0.670189
Si Si4 0.879890 0.670706 0.826974
Si Si5 0.767026 0.117210 0.837318
Si Si6 0.380469 0.212199 0.986339
O O1 0.857764 0.500000 0.304483
O O2 0.864761 0.647673 0.420061
O O3 0.703893 0.634985 0.317053
O O4 0.875672 0.698302 0.250952
O O5 0.111812 0.500000 0.529411
O O6 0.206139 0.342804 0.587071
O O7 0.000000 0.333832 0.547834
O O8 0.691224 0.500000 0.657660
O O9 0.802759 0.625907 0.753237
O O10 0.855365 0.794467 0.831818
O O11 0.848044 0.625568 0.921361
O O12 0.000000 0.649607 0.806733
O O13 0.805062 0.000000 0.850716
O O14 0.689379 0.151296 0.915591
O O15 0.500000 0.222212 0.957996
O O16 0.323296 0.323296 0.000000
#
# Coordination Sequence:
#
# PCOD9556807 Si02
#       6
#     8   8   8   8   8   8
#     4  10  20  33  50  74 103 135 172 211 252 302
#     4   9  17  30  49  71  95 127 167 209 252 295
#     4  10  20  33  50  74 103 135 172 211 252 302
#     4  10  21  36  54  77 103 132 169 211 255 304
#     4  10  21  36  54  77 103 132 169 211 255 304
#     4  10  21  36  54  78 106 136 171 208 248 298
#
# _framework density 19.127756000000002
#
# number of rings (size 3 to 8) (size 9 to 14) (size 15 to 20)
#    0.000    2.167    0.000    3.000    0.000    5.500 
#    0.000    0.000    0.000   12.000    0.000    0.000 
#    0.000   12.000    0.000    0.000    0.000    0.000 
#
# Total GULP energy -267955.570481 kJ/mol
# GULP energy per Si atom -5582.407718 kJ/mol
# Density = 1.908422 g / cm^3
# Si number density = 19.127756 Si / 1000 Ang^3
#
#
#
# Elastic Constant Matrix: (Units=GPa)
#
#
# Indices 1 2 3 4 5 6 
#
# 1 48.3258 4.5729 -17.5210 0.0000 0.0000 0.0000
# 2 4.5729 48.3258 -17.5210 0.0000 0.0000 0.0000
# 3 -17.5210 -17.5210 67.8140 0.0000 0.0000 0.0000
# 4 0.0000 0.0000 0.0000 9.8323 0.0000 0.0000
# 5 0.0000 0.0000 0.0000 0.0000 9.8323 0.0000
# 6 0.0000 0.0000 0.0000 0.0000 0.0000 -29.1894
#
#
#
# Elastic Compliance Matrix: (Units=1/GPa)
#
#
# Indices 1 2 3 4 5 6 
#
# 1 0.022832 -0.000024 0.005893 0.000000 0.000000 0.000000
# 2 -0.000024 0.022832 0.005893 0.000000 0.000000 0.000000
# 3 0.005893 0.005893 0.017791 0.000000 0.000000 0.000000
# 4 0.000000 0.000000 0.000000 0.101705 0.000000 0.000000
# 5 0.000000 0.000000 0.000000 0.000000 0.101705 0.000000
# 6 0.000000 0.000000 0.000000 0.000000 0.000000 -0.034259
#
#
# Mechanical properties :
#
#
# Convention : Reuss Voigt Hill
#
# Bulk Modulus (GPa) = 11.49722 11.50305 11.50014
# Shear Modulus (GPa) = 21.00171 11.09068 16.04620
#
# Velocity S-wave (km/s) = 3.31716 2.41056 2.89951
# Velocity P-wave (km/s) = 4.54920 3.71141 4.15149
#
# Compressibility (1/GPa) = 0.08697755
#
# Stress axis : x y z
#
# Youngs Moduli (GPa) = 43.79885 43.79885 56.20751
#
# Poissons Ratio (x) = 0.00105 -0.33122
# Poissons Ratio (y) = 0.00105 -0.33122
# Poissons Ratio (z) = -0.25810 -0.25810
#
# Static dielectric constant tensor:
#      x y z
#    x 1.655310 0.000000 0.000000 
#    y 0.000000 1.655310 0.000000 
#    z 0.000000 0.000000 1.664400 
# 
# From -- ./inp_files/4284.got.cif
#   From: 2010.05.17/outbox.cif.g08.bks.cpg/sg115_3_cif.got.tgz:4284.got - 2010.05.20 11:07:42.
