data_PCOD9556394
_publ_section_title
;
Structure prediction by ZEFSAII (Michael W. Deem and Ramdas Pophale) SiO2 
 PCOD9556394
Probable space group: P -4 21 C
;
_chemical_formula_sum "Si O2"
_cell_formula_units_Z 28
_cell_length_a 7.617596
_cell_length_b 7.617596
_cell_length_c 18.540540
_cell_angle_alpha 90.000000
_cell_angle_beta 90.000000
_cell_angle_gamma 90.000000
_cell_volume 1075.866169
_symmetry_space_group_name_H-M "P -4 21 C"
_symmetry_group_IT_number 114
_symmetry_cell_setting 'tetragonal'
loop_
_space_group_symop_operation_xyz
x,y,z
y,-x,-z
-x,-y,z
-y,x,-z
1/2+x,1/2-y,1/2-z
1/2-x,1/2+y,1/2-z
1/2-y,1/2-x,1/2+z
1/2+y,1/2+x,1/2+z
loop_
_atom_site_type_symbol
_atom_site_label
_atom_site_fract_x
_atom_site_fract_y
_atom_site_fract_z
Si Si1 0.848335 0.370502 0.231742
Si Si2 0.500000 0.500000 0.226577
Si Si3 0.960267 0.206489 0.890972
Si Si4 0.162229 0.238360 0.496163
O O1 0.668482 0.410936 0.189309
O O2 0.796959 0.416972 0.314613
O O3 0.000000 0.500000 0.206990
O O4 0.916244 0.172477 0.234700
O O5 0.784039 0.210275 0.937416
O O6 0.118681 0.302464 0.933563
O O7 0.000000 0.000000 0.887272
O O8 0.959989 0.226004 0.519193
#
# Coordination Sequence:
#
# PCOD9556394 Si02
#       4
#     8   4   8   8
#     4  12  26  47  75 106 145 190 244 307 372 437
#     4  12  26  48  74 105 147 192 244 310 366 428
#     4  12  24  42  71 103 141 190 234 289 363 434
#     4  11  23  42  66  99 142 184 230 290 351 433
#
# _framework density 26.025538999999998
#
# number of rings (size 3 to 8) (size 9 to 14) (size 15 to 20)
#    0.000    0.286    7.143    2.571    0.000    4.571 
#    0.000    2.857    0.000    0.000    0.000    0.000 
#    0.000    0.000    0.000    0.000    0.000    0.000 
#
# Total GULP energy -156855.293847 kJ/mol
# GULP energy per Si atom -5601.974780 kJ/mol
# Density = 2.596630 g / cm^3
# Si number density = 26.025539 Si / 1000 Ang^3
#
#
#
# Elastic Constant Matrix: (Units=GPa)
#
#
# Indices 1 2 3 4 5 6 
#
# 1 157.7232 50.6981 3.0431 0.0000 0.0000 0.0000
# 2 50.6981 157.7232 3.0431 0.0000 0.0000 0.0000
# 3 3.0431 3.0431 85.1688 0.0000 0.0000 0.0000
# 4 0.0000 0.0000 0.0000 -94.4101 0.0000 0.0000
# 5 0.0000 0.0000 0.0000 0.0000 -94.4101 0.0000
# 6 0.0000 0.0000 0.0000 0.0000 0.0000 64.3179
#
#
#
# Elastic Compliance Matrix: (Units=1/GPa)
#
#
# Indices 1 2 3 4 5 6 
#
# 1 0.007073 -0.002270 -0.000172 0.000000 0.000000 0.000000
# 2 -0.002270 0.007073 -0.000172 0.000000 0.000000 0.000000
# 3 -0.000172 -0.000172 0.011754 0.000000 0.000000 0.000000
# 4 0.000000 0.000000 0.000000 -0.010592 0.000000 0.000000
# 5 0.000000 0.000000 0.000000 0.000000 -0.010592 0.000000
# 6 0.000000 0.000000 0.000000 0.000000 0.000000 0.015548
#
#
# Mechanical properties :
#
#
# Convention : Reuss Voigt Hill
#
# Bulk Modulus (GPa) = 48.37184 57.13151 52.75168
# Shear Modulus (GPa) = 154.40703 -1.97838 76.21432
#
# Velocity S-wave (km/s) = 7.71089 -0.87282 5.41738
# Velocity P-wave (km/s) = 9.89463 4.58083 7.70999
#
# Compressibility (1/GPa) = 0.02067319
#
# Stress axis : x y z
#
# Youngs Moduli (GPa) = 141.37688 141.37688 85.07993
#
# Poissons Ratio (x) = 0.32097 0.01460
# Poissons Ratio (y) = 0.32097 0.01460
# Poissons Ratio (z) = 0.02426 0.02426
#
# Static dielectric constant tensor:
#      x y z
#    x 2.955220 0.000000 0.000000 
#    y 0.000000 2.955220 0.000000 
#    z 0.000000 0.000000 2.049470 
# 
# From -- ./inp_files/2765.got.cif
#   From: 2010.05.17/outbox.cif.g08.bks.cpg/sg114_2_cif.got.tgz:2765.got - 2010.05.20 11:04:54.
