data_PCOD9556219
_publ_section_title
;
Structure prediction by ZEFSAII (Michael W. Deem and Ramdas Pophale) SiO2 
 PCOD9556219
Probable space group: P -4 21 C
;
_chemical_formula_sum "Si O2"
_cell_formula_units_Z 34
_cell_length_a 10.817627
_cell_length_b 10.817627
_cell_length_c 12.741750
_cell_angle_alpha 90.000000
_cell_angle_beta 90.000000
_cell_angle_gamma 90.000000
_cell_volume 1491.053014
_symmetry_space_group_name_H-M "P -4 21 C"
_symmetry_group_IT_number 114
_symmetry_cell_setting 'tetragonal'
loop_
_space_group_symop_operation_xyz
x,y,z
y,-x,-z
-x,-y,z
-y,x,-z
1/2+x,1/2-y,1/2-z
1/2-x,1/2+y,1/2-z
1/2-y,1/2-x,1/2+z
1/2+y,1/2+x,1/2+z
loop_
_atom_site_type_symbol
_atom_site_label
_atom_site_fract_x
_atom_site_fract_y
_atom_site_fract_z
Si Si1 0.795401 0.010491 0.983023
Si Si2 0.136512 0.552871 0.720474
Si Si3 0.000000 0.000000 0.500000
Si Si4 0.091012 0.768404 0.599047
Si Si5 0.163232 0.414762 0.935692
O O1 0.734245 0.984620 0.869559
O O2 0.678134 0.047993 0.055489
O O3 0.892743 0.124293 0.980819
O O4 0.119488 0.700888 0.708001
O O5 0.175717 0.492575 0.829572
O O6 0.000000 0.500000 0.702614
O O7 0.113507 0.004468 0.419036
O O8 0.220381 0.821670 0.557886
O O9 0.017458 0.670838 0.526677
#
# Coordination Sequence:
#
# PCOD9556219 Si02
#       5
#     8   8   2   8   8
#     4  11  25  50  72 104 152 195 244 314 366 426
#     4  12  26  42  74 106 141 199 242 295 376 444
#     4   8  20  44  80 100 136 186 232 316 364 424
#     4  10  22  48  71 105 142 184 243 308 361 427
#     4  11  25  45  75 106 147 190 247 304 363 441
#
# _framework density 22.802676000000002
#
# number of rings (size 3 to 8) (size 9 to 14) (size 15 to 20)
#    0.000    1.176    4.706    0.000    3.294    3.765 
#    4.235   11.765    0.000    0.000    0.000    0.000 
#    0.000    0.000    0.000    0.000    0.000    0.000 
#
# Total GULP energy -189582.840170 kJ/mol
# GULP energy per Si atom -5575.965887 kJ/mol
# Density = 2.275078 g / cm^3
# Si number density = 22.802676 Si / 1000 Ang^3
#
#
#
# Elastic Constant Matrix: (Units=GPa)
#
#
# Indices 1 2 3 4 5 6 
#
# 1 90.2703 43.7193 13.6286 0.0000 0.0000 0.0000
# 2 43.7193 90.2703 13.6286 0.0000 0.0000 0.0000
# 3 13.6286 13.6286 45.3789 0.0000 0.0000 0.0000
# 4 0.0000 0.0000 0.0000 17.2436 0.0000 0.0000
# 5 0.0000 0.0000 0.0000 0.0000 17.2436 0.0000
# 6 0.0000 0.0000 0.0000 0.0000 0.0000 39.3366
#
#
#
# Elastic Compliance Matrix: (Units=1/GPa)
#
#
# Indices 1 2 3 4 5 6 
#
# 1 0.014715 -0.006766 -0.002387 0.000000 0.000000 0.000000
# 2 -0.006766 0.014715 -0.002387 0.000000 0.000000 0.000000
# 3 -0.002387 -0.002387 0.023471 0.000000 0.000000 0.000000
# 4 0.000000 0.000000 0.000000 0.057993 0.000000 0.000000
# 5 0.000000 0.000000 0.000000 0.000000 0.057993 0.000000
# 6 0.000000 0.000000 0.000000 0.000000 0.000000 0.025422
#
#
# Mechanical properties :
#
#
# Convention : Reuss Voigt Hill
#
# Bulk Modulus (GPa) = 33.53536 40.87473 37.20505
# Shear Modulus (GPa) = 21.99445 25.09428 23.54436
#
# Velocity S-wave (km/s) = 3.10910 3.32097 3.21678
# Velocity P-wave (km/s) = 5.25617 5.71572 5.49076
#
# Compressibility (1/GPa) = 0.02981927
#
# Stress axis : x y z
#
# Youngs Moduli (GPa) = 67.95616 67.95616 42.60648
#
# Poissons Ratio (x) = 0.45982 0.10171
# Poissons Ratio (y) = 0.45982 0.10171
# Poissons Ratio (z) = 0.16223 0.16223
#
# Static dielectric constant tensor:
#      x y z
#    x 1.903170 0.000000 0.000000 
#    y 0.000000 1.903170 0.000000 
#    z 0.000000 0.000000 1.843040 
# 
# From -- ./inp_files/1448.got.cif
#   From: 2010.05.17/outbox.cif.g08.bks.cpg/sg114_1_cif.got.tgz:1448.got - 2010.05.20 11:04:54.
