data_PCOD9556177
_publ_section_title
;
Structure prediction by ZEFSAII (Michael W. Deem and Ramdas Pophale) SiO2 
 PCOD9556177
Probable space group: P -4 21 C
;
_chemical_formula_sum "Si O2"
_cell_formula_units_Z 50
_cell_length_a 14.138112
_cell_length_b 14.138112
_cell_length_c 11.434818
_cell_angle_alpha 90.000000
_cell_angle_beta 90.000000
_cell_angle_gamma 90.000000
_cell_volume 2285.662443
_symmetry_space_group_name_H-M "P -4 21 C"
_symmetry_group_IT_number 114
_symmetry_cell_setting 'tetragonal'
loop_
_space_group_symop_operation_xyz
x,y,z
y,-x,-z
-x,-y,z
-y,x,-z
1/2+x,1/2-y,1/2-z
1/2-x,1/2+y,1/2-z
1/2-y,1/2-x,1/2+z
1/2+y,1/2+x,1/2+z
loop_
_atom_site_type_symbol
_atom_site_label
_atom_site_fract_x
_atom_site_fract_y
_atom_site_fract_z
Si Si1 0.100536 0.851309 0.664140
Si Si2 0.026943 0.305721 0.776107
Si Si3 0.651180 0.201326 0.053668
Si Si4 0.394098 0.018857 0.449394
Si Si5 0.000000 0.000000 0.500000
Si Si6 0.272931 0.080930 0.992870
Si Si7 0.707617 0.620842 0.595014
O O1 0.194389 0.820834 0.592692
O O2 0.149697 0.879889 0.786253
O O3 0.012091 0.783235 0.698266
O O4 0.059952 0.934404 0.585694
O O5 0.124505 0.310511 0.850473
O O6 0.021583 0.388537 0.682029
O O7 0.947009 0.307040 0.876583
O O8 0.540334 0.177206 0.032456
O O9 0.697222 0.181090 0.926012
O O10 0.378034 0.131145 0.439090
O O11 0.500000 0.000000 0.494932
O O12 0.240127 0.984245 0.933374
O O13 0.178117 0.142211 0.003115
#
# Coordination Sequence:
#
# PCOD9556177 Si02
#       7
#     8   8   8   8   2   8   8
#     4  11  25  45  70  97 140 185 227 294 352 432
#     4  10  23  40  64  96 135 172 229 283 355 419
#     4  11  23  43  68 101 139 181 234 292 349 427
#     4  12  22  37  64  96 132 175 220 291 350 408
#     4  12  28  48  68 102 136 180 248 272 364 434
#     4  10  23  40  62  97 132 176 233 291 340 425
#     4  10  22  42  64  96 131 179 230 280 353 410
#
# _framework density 21.875494
#
# number of rings (size 3 to 8) (size 9 to 14) (size 15 to 20)
#    0.000    1.280    3.200    2.880    2.240    4.160 
#    0.000    3.200    0.000    0.000    0.000    0.000 
#    0.000    0.000    0.000    0.000    0.000    0.000 
#
# Total GULP energy -278504.800755 kJ/mol
# GULP energy per Si atom -5570.096015 kJ/mol
# Density = 2.182570 g / cm^3
# Si number density = 21.875494 Si / 1000 Ang^3
#
#
#
# Elastic Constant Matrix: (Units=GPa)
#
#
# Indices 1 2 3 4 5 6 
#
# 1 101.7674 74.2658 38.8599 0.0000 0.0000 0.0000
# 2 74.2658 101.7674 38.8599 0.0000 0.0000 0.0000
# 3 38.8599 38.8599 91.0174 0.0000 0.0000 0.0000
# 4 0.0000 0.0000 0.0000 24.9509 0.0000 0.0000
# 5 0.0000 0.0000 0.0000 0.0000 24.9509 0.0000
# 6 0.0000 0.0000 0.0000 0.0000 0.0000 37.7197
#
#
#
# Elastic Compliance Matrix: (Units=1/GPa)
#
#
# Indices 1 2 3 4 5 6 
#
# 1 0.021681 -0.014681 -0.002989 0.000000 0.000000 0.000000
# 2 -0.014681 0.021681 -0.002989 0.000000 0.000000 0.000000
# 3 -0.002989 -0.002989 0.013539 0.000000 0.000000 0.000000
# 4 0.000000 0.000000 0.000000 0.040079 0.000000 0.000000
# 5 0.000000 0.000000 0.000000 0.000000 0.040079 0.000000
# 6 0.000000 0.000000 0.000000 0.000000 0.000000 0.026511
#
#
# Mechanical properties :
#
#
# Convention : Reuss Voigt Hill
#
# Bulk Modulus (GPa) = 64.16624 66.50261 65.33443
# Shear Modulus (GPa) = 23.80038 27.02875 25.41456
#
# Velocity S-wave (km/s) = 3.30205 3.51888 3.41219
# Velocity P-wave (km/s) = 6.62829 6.85395 6.74206
#
# Compressibility (1/GPa) = 0.01558452
#
# Stress axis : x y z
#
# Youngs Moduli (GPa) = 46.12356 46.12356 73.86048
#
# Poissons Ratio (x) = 0.67712 0.22075
# Poissons Ratio (y) = 0.67712 0.22075
# Poissons Ratio (z) = 0.13785 0.13785
#
# Static dielectric constant tensor:
#      x y z
#    x 1.863220 0.000000 0.000000 
#    y 0.000000 1.863220 0.000000 
#    z 0.000000 0.000000 1.821010 
# 
# From -- ./inp_files/1681.got.cif
#   From: 2010.05.17/outbox.cif.g08.bks.cpg/sg114_1_cif.got.tgz:1681.got - 2010.05.20 11:04:54.
