data_PCOD9556304
_publ_section_title
;
Structure prediction by ZEFSAII (Michael W. Deem and Ramdas Pophale) SiO2 
 PCOD9556304
Probable space group: P -4 21 C
;
_chemical_formula_sum "Si O2"
_cell_formula_units_Z 26
_cell_length_a 12.214199
_cell_length_b 12.214199
_cell_length_c 7.541932
_cell_angle_alpha 90.000000
_cell_angle_beta 90.000000
_cell_angle_gamma 90.000000
_cell_volume 1125.155624
_symmetry_space_group_name_H-M "P -4 21 C"
_symmetry_group_IT_number 114
_symmetry_cell_setting 'tetragonal'
loop_
_space_group_symop_operation_xyz
x,y,z
y,-x,-z
-x,-y,z
-y,x,-z
1/2+x,1/2-y,1/2-z
1/2-x,1/2+y,1/2-z
1/2-y,1/2-x,1/2+z
1/2+y,1/2+x,1/2+z
loop_
_atom_site_type_symbol
_atom_site_label
_atom_site_fract_x
_atom_site_fract_y
_atom_site_fract_z
Si Si1 0.500000 0.500000 0.500000
Si Si2 0.451937 0.227717 0.332247
Si Si3 0.631963 0.984082 0.457647
Si Si4 0.698180 0.561554 0.332145
O O1 0.601659 0.471705 0.371409
O O2 0.379252 0.335068 0.294738
O O3 0.500000 0.000000 0.445897
O O4 0.363620 0.144805 0.415042
O O5 0.500770 0.177011 0.153914
O O6 0.548145 0.241777 0.478052
O O7 0.712021 0.040567 0.316660
#
# Coordination Sequence:
#
# PCOD9556304 Si02
#       4
#     2   8   8   8
#     4   8  20  48  74 108 152 194 256 328 370 448
#     4  11  25  47  73 109 149 199 251 308 383 442
#     4  12  26  48  73 111 154 199 253 309 381 454
#     4  10  24  47  75 108 154 196 254 314 376 452
#
# _framework density 23.107914000000001
#
# number of rings (size 3 to 8) (size 9 to 14) (size 15 to 20)
#    0.000    1.231    3.077    0.923    0.000   11.077 
#    5.538    1.538    0.000    0.000    0.000    0.000 
#    0.000    0.000    0.000    0.000    0.000    0.000 
#
# Total GULP energy -144902.278930 kJ/mol
# GULP energy per Si atom -5573.164574 kJ/mol
# Density = 2.305532 g / cm^3
# Si number density = 23.107914 Si / 1000 Ang^3
#
#
#
# Elastic Constant Matrix: (Units=GPa)
#
#
# Indices 1 2 3 4 5 6 
#
# 1 107.0554 20.8376 61.4452 0.0000 0.0000 0.0000
# 2 20.8376 107.0554 61.4452 0.0000 0.0000 0.0000
# 3 61.4452 61.4452 214.2574 0.0000 0.0000 0.0000
# 4 0.0000 0.0000 0.0000 35.8719 0.0000 0.0000
# 5 0.0000 0.0000 0.0000 0.0000 35.8719 0.0000
# 6 0.0000 0.0000 0.0000 0.0000 0.0000 29.6539
#
#
#
# Elastic Compliance Matrix: (Units=1/GPa)
#
#
# Indices 1 2 3 4 5 6 
#
# 1 0.011196 -0.000403 -0.003095 0.000000 0.000000 0.000000
# 2 -0.000403 0.011196 -0.003095 0.000000 0.000000 0.000000
# 3 -0.003095 -0.003095 0.006443 0.000000 0.000000 0.000000
# 4 0.000000 0.000000 0.000000 0.027877 0.000000 0.000000
# 5 0.000000 0.000000 0.000000 0.000000 0.027877 0.000000
# 6 0.000000 0.000000 0.000000 0.000000 0.000000 0.033722
#
#
# Mechanical properties :
#
#
# Convention : Reuss Voigt Hill
#
# Bulk Modulus (GPa) = 63.90621 79.53600 71.72111
# Shear Modulus (GPa) = 36.57288 39.25555 37.91421
#
# Velocity S-wave (km/s) = 3.98263 4.12611 4.05501
# Velocity P-wave (km/s) = 6.99028 7.56266 7.28210
#
# Compressibility (1/GPa) = 0.01564793
#
# Stress axis : x y z
#
# Youngs Moduli (GPa) = 89.31832 89.31832 155.21567
#
# Poissons Ratio (x) = 0.03596 0.48044
# Poissons Ratio (y) = 0.03596 0.48044
# Poissons Ratio (z) = 0.27647 0.27647
#
# Static dielectric constant tensor:
#      x y z
#    x 1.987070 0.000000 0.000000 
#    y 0.000000 1.987070 0.000000 
#    z 0.000000 0.000000 1.877680 
# 
# From -- ./inp_files/495.got.cif
#   From: 2010.05.17/outbox.cif.g08.bks.cpg/sg114_1_cif.got.tgz:495.got - 2010.05.20 11:04:54.
