data_PCOD9556575
_publ_section_title
;
Structure prediction by ZEFSAII (Michael W. Deem and Ramdas Pophale) SiO2 
 PCOD9556575
Probable space group: P -4 M 2
;
_chemical_formula_sum "Si O2"
_cell_formula_units_Z 64
_cell_length_a 19.562970
_cell_length_b 19.562970
_cell_length_c 12.738366
_cell_angle_alpha 90.000000
_cell_angle_beta 90.000000
_cell_angle_gamma 90.000000
_cell_volume 4875.097443
_symmetry_space_group_name_H-M "P -4 M 2"
_symmetry_group_IT_number 115
_symmetry_cell_setting 'tetragonal'
loop_
_space_group_symop_operation_xyz
x,y,z
y,-x,-z
-x,-y,z
-y,x,-z
y,x,-z
-y,-x,-z
-x,y,z
x,-y,z
loop_
_atom_site_type_symbol
_atom_site_label
_atom_site_fract_x
_atom_site_fract_y
_atom_site_fract_z
Si Si1 0.695713 0.578626 0.234154
Si Si2 0.805705 0.417362 0.854994
Si Si3 0.582147 0.351509 0.103436
Si Si4 0.583256 0.922805 0.986644
Si Si5 0.422250 0.311173 0.516756
Si Si6 0.078775 0.416681 0.436077
Si Si7 0.846475 0.583232 0.222770
Si Si8 0.583245 0.820457 0.384704
O O1 0.687731 0.500000 0.197098
O O2 0.628926 0.618908 0.197279
O O3 0.704093 0.577704 0.359581
O O4 0.769245 0.606120 0.195933
O O5 0.810501 0.500000 0.851658
O O6 0.729851 0.403785 0.899055
O O7 0.866386 0.392876 0.930081
O O8 0.815654 0.393000 0.735205
O O9 0.500000 0.361375 0.116185
O O10 0.609926 0.390075 0.000000
O O11 0.500000 0.923110 0.989859
O O12 0.606132 0.000000 0.008091
O O13 0.602074 0.897738 0.870282
O O14 0.376012 0.376012 0.500000
O O15 0.500000 0.324715 0.483916
O O16 0.396858 0.247087 0.449346
O O17 0.078982 0.500000 0.434338
O O18 0.123747 0.394899 0.335398
O O19 0.114908 0.395539 0.544710
O O20 0.000000 0.394913 0.427850
O O21 0.842353 0.500000 0.226403
O O22 0.500000 0.821360 0.382738
#
# Coordination Sequence:
#
# PCOD9556575 Si02
#       8
#     8   8   8   8   8   8   8   8
#     4  10  19  30  44  57  73  98 130 171 219 260
#     4   9  18  30  42  55  76 101 125 156 200 252
#     4  11  22  34  45  58  74 100 137 179 224 265
#     4   9  16  25  39  58  77  97 119 146 187 242
#     4  10  19  30  42  55  71  96 129 168 212 253
#     4   9  15  23  39  61  80  99 121 148 190 242
#     4   9  15  26  40  57  79  99 122 155 196 246
#     4   9  16  28  41  55  76  98 121 153 193 244
#
# _framework density 13.127941999999999
#
# number of rings (size 3 to 8) (size 9 to 14) (size 15 to 20)
#    0.000    2.500    1.250    2.250    0.000    6.500 
#    0.000    3.750    0.000    0.000    0.000    0.000 
#    0.000    0.000    0.000    0.000    0.000    0.000 
#
# Total GULP energy -356338.388352 kJ/mol
# GULP energy per Si atom -5567.787318 kJ/mol
# Density = 1.309806 g / cm^3
# Si number density = 13.127942 Si / 1000 Ang^3
#
#
#
# Elastic Constant Matrix: (Units=GPa)
#
#
# Indices 1 2 3 4 5 6 
#
# 1 62.4141 24.0210 22.8172 0.0000 0.0000 0.0000
# 2 24.0210 62.4131 22.8152 0.0000 0.0000 0.0000
# 3 22.8172 22.8152 58.1662 0.0000 0.0000 0.0000
# 4 0.0000 0.0000 0.0000 15.0434 0.0000 0.0000
# 5 0.0000 0.0000 0.0000 0.0000 15.0434 0.0000
# 6 0.0000 0.0000 0.0000 0.0000 0.0000 -1.1954
#
#
#
# Elastic Compliance Matrix: (Units=1/GPa)
#
#
# Indices 1 2 3 4 5 6 
#
# 1 0.020319 -0.005728 -0.005724 0.000000 0.000000 0.000000
# 2 -0.005728 0.020319 -0.005723 0.000000 0.000000 0.000000
# 3 -0.005724 -0.005723 0.021682 0.000000 0.000000 0.000000
# 4 0.000000 0.000000 0.000000 0.066474 0.000000 0.000000
# 5 0.000000 0.000000 0.000000 0.000000 0.066474 0.000000
# 6 0.000000 0.000000 0.000000 0.000000 0.000000 -0.836514
#
#
# Mechanical properties :
#
#
# Convention : Reuss Voigt Hill
#
# Bulk Modulus (GPa) = 35.75191 35.81115 35.78153
# Shear Modulus (GPa) = -8.36719 13.33426 2.48354
#
# Velocity S-wave (km/s) = -2.52733 3.19049 1.37692
# Velocity P-wave (km/s) = 4.33313 6.39610 5.46288
#
# Compressibility (1/GPa) = 0.02797054
#
# Stress axis : x y z
#
# Youngs Moduli (GPa) = 49.21500 49.21547 46.12053
#
# Poissons Ratio (x) = 0.28190 0.26399
# Poissons Ratio (y) = 0.28189 0.26395
# Poissons Ratio (z) = 0.28171 0.28166
#
# Static dielectric constant tensor:
#      x y z
#    x 1.419630 0.000000 0.000000 
#    y 0.000000 1.419630 0.000000 
#    z 0.000000 0.000000 1.483830 
# 
# From -- ./inp_files/3220.got.cif
#   From: 2010.05.17/outbox.cif.g08.bks.cpg/sg115_2_cif.got.tgz:3220.got - 2010.05.20 11:07:42.
