data_PCOD9556444
_publ_section_title
;
Structure prediction by ZEFSAII (Michael W. Deem and Ramdas Pophale) SiO2 
 PCOD9556444
Probable space group: P -4 21 C
;
_chemical_formula_sum "Si O2"
_cell_formula_units_Z 40
_cell_length_a 8.433481
_cell_length_b 8.433481
_cell_length_c 24.614021
_cell_angle_alpha 90.000000
_cell_angle_beta 90.000000
_cell_angle_gamma 90.000000
_cell_volume 1750.637828
_symmetry_space_group_name_H-M "P -4 21 C"
_symmetry_group_IT_number 114
_symmetry_cell_setting 'tetragonal'
loop_
_space_group_symop_operation_xyz
x,y,z
y,-x,-z
-x,-y,z
-y,x,-z
1/2+x,1/2-y,1/2-z
1/2-x,1/2+y,1/2-z
1/2-y,1/2-x,1/2+z
1/2+y,1/2+x,1/2+z
loop_
_atom_site_type_symbol
_atom_site_label
_atom_site_fract_x
_atom_site_fract_y
_atom_site_fract_z
Si Si1 0.266219 0.383461 0.513453
Si Si2 0.759998 0.176268 0.374808
Si Si3 0.171877 0.729717 0.674639
Si Si4 0.327112 0.925763 0.588474
Si Si5 0.171506 0.921516 0.783815
O O1 0.295487 0.566815 0.497826
O O2 0.214855 0.357003 0.575242
O O3 0.134413 0.315628 0.472973
O O4 0.719818 0.296478 0.325979
O O5 0.936802 0.204147 0.396482
O O6 0.738604 0.001180 0.351567
O O7 0.295748 0.777496 0.627899
O O8 0.205863 0.558802 0.700033
O O9 0.188296 0.855950 0.723269
O O10 0.500000 0.000000 0.596756
O O11 0.000000 0.000000 0.789799
#
# Coordination Sequence:
#
# PCOD9556444 Si02
#       5
#     8   8   8   8   8
#     4  11  26  48  75 111 149 202 257 314 382 472
#     4  12  27  47  76 113 154 199 257 325 397 466
#     4  12  27  48  76 110 154 197 261 320 396 470
#     4  12  25  46  72 110 148 199 250 317 385 467
#     4  12  26  47  76 109 149 204 252 322 384 477
#
# _framework density 22.848814000000001
#
# number of rings (size 3 to 8) (size 9 to 14) (size 15 to 20)
#    0.000    0.200    2.000    7.200    5.600    3.200 
#    0.000    0.000    0.000    0.000    0.000    0.000 
#    0.000    0.000    0.000    0.000    0.000    0.000 
#
# Total GULP energy -224312.667385 kJ/mol
# GULP energy per Si atom -5607.816685 kJ/mol
# Density = 2.279681 g / cm^3
# Si number density = 22.848814 Si / 1000 Ang^3
#
#
#
# Elastic Constant Matrix: (Units=GPa)
#
#
# Indices 1 2 3 4 5 6 
#
# 1 59.6557 5.3856 10.0500 0.0000 0.0000 0.0000
# 2 5.3856 59.6557 10.0500 0.0000 0.0000 0.0000
# 3 10.0500 10.0500 116.5412 0.0000 0.0000 0.0000
# 4 0.0000 0.0000 0.0000 35.0673 0.0000 0.0000
# 5 0.0000 0.0000 0.0000 0.0000 35.0673 0.0000
# 6 0.0000 0.0000 0.0000 0.0000 0.0000 39.5228
#
#
#
# Elastic Compliance Matrix: (Units=1/GPa)
#
#
# Indices 1 2 3 4 5 6 
#
# 1 0.017111 -0.001315 -0.001362 0.000000 0.000000 0.000000
# 2 -0.001315 0.017111 -0.001362 0.000000 0.000000 0.000000
# 3 -0.001362 -0.001362 0.008816 0.000000 0.000000 0.000000
# 4 0.000000 0.000000 0.000000 0.028517 0.000000 0.000000
# 5 0.000000 0.000000 0.000000 0.000000 0.028517 0.000000
# 6 0.000000 0.000000 0.000000 0.000000 0.000000 0.025302
#
#
# Mechanical properties :
#
#
# Convention : Reuss Voigt Hill
#
# Bulk Modulus (GPa) = 28.60530 31.86932 30.23731
# Shear Modulus (GPa) = 34.45784 35.95593 35.20688
#
# Velocity S-wave (km/s) = 3.88761 3.97122 3.92964
# Velocity P-wave (km/s) = 5.71821 5.91656 5.81823
#
# Compressibility (1/GPa) = 0.03495856
#
# Stress axis : x y z
#
# Youngs Moduli (GPa) = 58.44167 58.44167 113.43537
#
# Poissons Ratio (x) = 0.07687 0.15452
# Poissons Ratio (y) = 0.07687 0.15452
# Poissons Ratio (z) = 0.07961 0.07961
#
# Static dielectric constant tensor:
#      x y z
#    x 1.856920 0.000000 0.000000 
#    y 0.000000 1.856920 0.000000 
#    z 0.000000 0.000000 1.806890 
# 
# From -- ./inp_files/3360.got.cif
#   From: 2010.05.17/outbox.cif.g08.bks.cpg/sg114_2_cif.got.tgz:3360.got - 2010.05.20 11:04:54.
