data_PCOD9556324
_publ_section_title
;
Structure prediction by ZEFSAII (Michael W. Deem and Ramdas Pophale) SiO2 
 PCOD9556324
Probable space group: P -4 21 C
;
_chemical_formula_sum "Si O2"
_cell_formula_units_Z 32
_cell_length_a 9.727107
_cell_length_b 9.727107
_cell_length_c 13.377931
_cell_angle_alpha 90.000000
_cell_angle_beta 90.000000
_cell_angle_gamma 90.000000
_cell_volume 1265.774488
_symmetry_space_group_name_H-M "P -4 21 C"
_symmetry_group_IT_number 114
_symmetry_cell_setting 'tetragonal'
loop_
_space_group_symop_operation_xyz
x,y,z
y,-x,-z
-x,-y,z
-y,x,-z
1/2+x,1/2-y,1/2-z
1/2-x,1/2+y,1/2-z
1/2-y,1/2-x,1/2+z
1/2+y,1/2+x,1/2+z
loop_
_atom_site_type_symbol
_atom_site_label
_atom_site_fract_x
_atom_site_fract_y
_atom_site_fract_z
Si Si1 0.500000 0.000000 0.330843
Si Si2 0.159307 0.829769 0.350504
Si Si3 0.274449 0.009386 0.191477
Si Si4 0.213394 0.436880 0.538637
Si Si5 0.500000 0.500000 0.000000
Si Si6 0.000000 0.000000 0.000000
O O1 0.395208 0.935677 0.253807
O O2 0.451381 0.119580 0.405673
O O3 0.184212 0.672587 0.309722
O O4 0.292330 0.842726 0.424358
O O5 0.037139 0.872332 0.426154
O O6 0.155793 0.942085 0.260269
O O7 0.046554 0.127654 0.066832
O O8 0.216462 0.456849 0.420951
#
# Coordination Sequence:
#
# PCOD9556324 Si02
#       6
#     4   8   8   8   2   2
#     4  10  26  42  72 104 144 206 254 324 394 470
#     4  11  29  47  78 115 156 218 264 347 409 496
#     4  11  26  46  76 109 155 201 272 323 413 485
#     4  11  25  46  74 107 153 201 258 325 401 481
#     4  12  32  50  80 112 178 208 288 346 424 476
#     4  12  24  42  76 108 148 202 256 310 396 496
#
# _framework density 25.280965999999999
#
# number of rings (size 3 to 8) (size 9 to 14) (size 15 to 20)
#    0.000    1.000    2.500    0.750   17.500    3.000 
#    0.000    0.000    0.000    0.000    0.000    0.000 
#    0.000    0.000    0.000    0.000    0.000    0.000 
#
# Total GULP energy -178172.514469 kJ/mol
# GULP energy per Si atom -5567.891077 kJ/mol
# Density = 2.522343 g / cm^3
# Si number density = 25.280966 Si / 1000 Ang^3
#
#
#
# Elastic Constant Matrix: (Units=GPa)
#
#
# Indices 1 2 3 4 5 6 
#
# 1 86.4457 18.7196 60.5682 0.0000 0.0000 0.0000
# 2 18.7196 86.4457 60.5682 0.0000 0.0000 0.0000
# 3 60.5682 60.5682 213.1103 0.0000 0.0000 0.0000
# 4 0.0000 0.0000 0.0000 40.7755 0.0000 0.0000
# 5 0.0000 0.0000 0.0000 0.0000 40.7755 0.0000
# 6 0.0000 0.0000 0.0000 0.0000 0.0000 28.9679
#
#
#
# Elastic Compliance Matrix: (Units=1/GPa)
#
#
# Indices 1 2 3 4 5 6 
#
# 1 0.014451 -0.000314 -0.004018 0.000000 0.000000 0.000000
# 2 -0.000314 0.014451 -0.004018 0.000000 0.000000 0.000000
# 3 -0.004018 -0.004018 0.006976 0.000000 0.000000 0.000000
# 4 0.000000 0.000000 0.000000 0.024525 0.000000 0.000000
# 5 0.000000 0.000000 0.000000 0.000000 0.024525 0.000000
# 6 0.000000 0.000000 0.000000 0.000000 0.000000 0.034521
#
#
# Mechanical properties :
#
#
# Convention : Reuss Voigt Hill
#
# Bulk Modulus (GPa) = 52.14152 73.96820 63.05486
# Shear Modulus (GPa) = 35.07759 38.51351 36.79555
#
# Velocity S-wave (km/s) = 3.72897 3.90733 3.81919
# Velocity P-wave (km/s) = 6.26178 7.04829 6.66664
#
# Compressibility (1/GPa) = 0.01917858
#
# Stress axis : x y z
#
# Youngs Moduli (GPa) = 69.19885 69.19885 143.34380
#
# Poissons Ratio (x) = 0.02175 0.57593
# Poissons Ratio (y) = 0.02175 0.57593
# Poissons Ratio (z) = 0.27803 0.27803
#
# Static dielectric constant tensor:
#      x y z
#    x 2.210790 0.000000 0.000000 
#    y 0.000000 2.210790 0.000000 
#    z 0.000000 0.000000 1.942280 
# 
# From -- ./inp_files/1456.got.cif
#   From: 2010.05.17/outbox.cif.g08.bks.cpg/sg114_1_cif.got.tgz:1456.got - 2010.05.20 11:04:54.
