data_PCOD9556411
_publ_section_title
;
Structure prediction by ZEFSAII (Michael W. Deem and Ramdas Pophale) SiO2 
 PCOD9556411
Probable space group: P -4 21 C
;
_chemical_formula_sum "Si O2"
_cell_formula_units_Z 34
_cell_length_a 8.321461
_cell_length_b 8.321461
_cell_length_c 19.501371
_cell_angle_alpha 90.000000
_cell_angle_beta 90.000000
_cell_angle_gamma 90.000000
_cell_volume 1350.405844
_symmetry_space_group_name_H-M "P -4 21 C"
_symmetry_group_IT_number 114
_symmetry_cell_setting 'tetragonal'
loop_
_space_group_symop_operation_xyz
x,y,z
y,-x,-z
-x,-y,z
-y,x,-z
1/2+x,1/2-y,1/2-z
1/2-x,1/2+y,1/2-z
1/2-y,1/2-x,1/2+z
1/2+y,1/2+x,1/2+z
loop_
_atom_site_type_symbol
_atom_site_label
_atom_site_fract_x
_atom_site_fract_y
_atom_site_fract_z
Si Si1 0.629909 0.184178 0.957791
Si Si2 0.813054 0.463587 0.421977
Si Si3 0.539862 0.674462 0.841398
Si Si4 0.000000 0.000000 0.500000
Si Si5 0.602530 0.167444 0.713068
O O1 0.490285 0.190174 0.899808
O O2 0.567094 0.314308 0.012400
O O3 0.782378 0.259089 0.920660
O O4 0.698117 0.035709 0.001435
O O5 0.737592 0.542075 0.354775
O O6 0.000000 0.500000 0.408890
O O7 0.500000 0.500000 0.875845
O O8 0.422631 0.724401 0.779875
O O9 0.711134 0.647510 0.805869
O O10 0.500000 0.000000 0.725465
#
# Coordination Sequence:
#
# PCOD9556411 Si02
#       5
#     8   8   8   2   8
#     4  12  24  43  71 101 142 189 247 305 381 450
#     4  11  24  43  68 101 142 188 242 306 366 452
#     4  12  24  46  76 107 144 196 250 311 386 459
#     4  12  20  40  68 100 128 184 240 290 368 452
#     4  11  25  47  71 107 149 194 247 309 377 459
#
# _framework density 25.177619
#
# number of rings (size 3 to 8) (size 9 to 14) (size 15 to 20)
#    0.000    0.471    3.529    7.059    0.000    1.412 
#    8.471    0.000    0.000    0.000    0.000    0.000 
#    0.000    0.000    0.000    0.000    0.000    0.000 
#
# Total GULP energy -189322.715414 kJ/mol
# GULP energy per Si atom -5568.315159 kJ/mol
# Density = 2.512031 g / cm^3
# Si number density = 25.177619 Si / 1000 Ang^3
#
#
#
# Elastic Constant Matrix: (Units=GPa)
#
#
# Indices 1 2 3 4 5 6 
#
# 1 73.8715 8.8693 22.9522 0.0000 0.0000 0.0000
# 2 8.8693 73.8715 22.9522 0.0000 0.0000 0.0000
# 3 22.9522 22.9522 139.5848 0.0000 0.0000 0.0000
# 4 0.0000 0.0000 0.0000 31.3129 0.0000 0.0000
# 5 0.0000 0.0000 0.0000 0.0000 31.3129 0.0000
# 6 0.0000 0.0000 0.0000 0.0000 0.0000 25.6391
#
#
#
# Elastic Compliance Matrix: (Units=1/GPa)
#
#
# Indices 1 2 3 4 5 6 
#
# 1 0.014342 -0.001042 -0.002187 0.000000 0.000000 0.000000
# 2 -0.001042 0.014342 -0.002187 0.000000 0.000000 0.000000
# 3 -0.002187 -0.002187 0.007883 0.000000 0.000000 0.000000
# 4 0.000000 0.000000 0.000000 0.031936 0.000000 0.000000
# 5 0.000000 0.000000 0.000000 0.000000 0.031936 0.000000
# 6 0.000000 0.000000 0.000000 0.000000 0.000000 0.039003
#
#
# Mechanical properties :
#
#
# Convention : Reuss Voigt Hill
#
# Bulk Modulus (GPa) = 38.85850 44.09722 41.47786
# Shear Modulus (GPa) = 31.47601 33.15660 32.31630
#
# Velocity S-wave (km/s) = 3.53959 3.63286 3.58653
# Velocity P-wave (km/s) = 5.67206 5.92869 5.80179
#
# Compressibility (1/GPa) = 0.02573439
#
# Stress axis : x y z
#
# Youngs Moduli (GPa) = 69.72705 69.72705 126.85096
#
# Poissons Ratio (x) = 0.07269 0.27740
# Poissons Ratio (y) = 0.07269 0.27740
# Poissons Ratio (z) = 0.15248 0.15248
#
# Static dielectric constant tensor:
#      x y z
#    x 2.098190 0.000000 0.000000 
#    y 0.000000 2.098190 0.000000 
#    z 0.000000 0.000000 1.931820 
# 
# From -- ./inp_files/2979.got.cif
#   From: 2010.05.17/outbox.cif.g08.bks.cpg/sg114_2_cif.got.tgz:2979.got - 2010.05.20 11:04:54.
