data_PCOD9556985
_publ_section_title
;
Structure prediction by ZEFSAII (Michael W. Deem and Ramdas Pophale) SiO2 
 PCOD9556985
Probable space group: P -4 M 2
;
_chemical_formula_sum "Si O2"
_cell_formula_units_Z 48
_cell_length_a 9.198388
_cell_length_b 9.198388
_cell_length_c 31.771740
_cell_angle_alpha 90.000000
_cell_angle_beta 90.000000
_cell_angle_gamma 90.000000
_cell_volume 2688.217781
_symmetry_space_group_name_H-M "P -4 M 2"
_symmetry_group_IT_number 115
_symmetry_cell_setting 'tetragonal'
loop_
_space_group_symop_operation_xyz
x,y,z
y,-x,-z
-x,-y,z
-y,x,-z
y,x,-z
-y,-x,-z
-x,y,z
x,-y,z
loop_
_atom_site_type_symbol
_atom_site_label
_atom_site_fract_x
_atom_site_fract_y
_atom_site_fract_z
Si Si1 0.671465 0.173760 0.835840
Si Si2 0.827478 0.172523 0.000000
Si Si3 0.672762 0.172643 0.086636
Si Si4 0.167246 0.323027 0.414770
Si Si5 0.673866 0.327657 0.670816
Si Si6 0.173632 0.828005 0.251319
Si Si7 0.326660 0.673341 0.500000
O O1 0.500000 0.203243 0.832362
O O2 0.740409 0.255475 0.875306
O O3 0.751822 0.215133 0.792576
O O4 0.690938 0.000000 0.841521
O O5 0.741530 0.216078 0.041841
O O6 0.000000 0.195435 0.006927
O O7 0.500000 0.193304 0.086040
O O8 0.702673 0.000000 0.092188
O O9 0.169351 0.500000 0.415142
O O10 0.253403 0.278735 0.372943
O O11 0.244499 0.277255 0.457960
O O12 0.000000 0.275977 0.413040
O O13 0.500000 0.303037 0.675622
O O14 0.698043 0.500000 0.668901
O O15 0.756167 0.257093 0.709943
O O16 0.000000 0.806258 0.257079
O O17 0.201395 0.000000 0.249029
O O18 0.500000 0.695737 0.494542
#
# Coordination Sequence:
#
# PCOD9556985 Si02
#       7
#     8   4   8   8   8   8   4
#     4  10  21  37  58  82 107 139 179 220 263 314
#     4   9  18  34  56  79 106 144 186 223 260 309
#     4  10  21  36  55  81 112 144 178 219 267 316
#     4   9  17  30  50  75 102 134 172 214 260 310
#     4  10  20  34  54  80 108 139 176 217 262 313
#     4  10  21  37  57  80 106 138 176 218 265 316
#     4   9  16  28  48  73 100 130 168 213 258 308
#
# _framework density 17.855695000000001
#
# number of rings (size 3 to 8) (size 9 to 14) (size 15 to 20)
#    0.000    2.333    0.000    2.500    0.000    7.333 
#    0.000    2.500    0.000    3.250    0.000    0.000 
#    0.000    0.000    0.000    0.000    0.000    0.000 
#
# Total GULP energy -267971.498717 kJ/mol
# GULP energy per Si atom -5582.739557 kJ/mol
# Density = 1.781505 g / cm^3
# Si number density = 17.855695 Si / 1000 Ang^3
#
#
#
# Elastic Constant Matrix: (Units=GPa)
#
#
# Indices 1 2 3 4 5 6 
#
# 1 71.8456 67.0668 97.5488 0.0000 0.0000 0.0000
# 2 67.0668 71.8450 97.5489 0.0000 0.0000 0.0000
# 3 97.5488 97.5489 223.9349 0.0000 0.0000 0.0000
# 4 0.0000 0.0000 0.0000 35.7340 0.0000 0.0000
# 5 0.0000 0.0000 0.0000 0.0000 35.7340 0.0000
# 6 0.0000 0.0000 0.0000 0.0000 0.0000 22.8733
#
#
#
# Elastic Compliance Matrix: (Units=1/GPa)
#
#
# Indices 1 2 3 4 5 6 
#
# 1 0.113906 -0.095363 -0.008078 0.000000 0.000000 0.000000
# 2 -0.095363 0.113909 -0.008079 0.000000 0.000000 0.000000
# 3 -0.008078 -0.008079 0.011503 0.000000 0.000000 0.000000
# 4 0.000000 0.000000 0.000000 0.027985 0.000000 0.000000
# 5 0.000000 0.000000 0.000000 0.000000 0.027985 0.000000
# 6 0.000000 0.000000 0.000000 0.000000 0.000000 0.043719
#
#
# Mechanical properties :
#
#
# Convention : Reuss Voigt Hill
#
# Bulk Modulus (GPa) = 61.42698 99.10607 80.26653
# Shear Modulus (GPa) = 8.81100 25.89898 17.35499
#
# Velocity S-wave (km/s) = 2.22380 3.81262 3.12101
# Velocity P-wave (km/s) = 6.40861 8.66059 7.61827
#
# Compressibility (1/GPa) = 0.01627949
#
# Stress axis : x y z
#
# Youngs Moduli (GPa) = 8.77915 8.77895 86.93061
#
# Poissons Ratio (x) = 0.83719 0.70218
# Poissons Ratio (y) = 0.83721 0.70229
# Poissons Ratio (z) = 0.07091 0.07092
#
# Static dielectric constant tensor:
#      x y z
#    x 1.597540 0.000000 0.000000 
#    y 0.000000 1.597540 0.000000 
#    z 0.000000 0.000000 1.575850 
# 
# From -- ./inp_files/6195.got.cif
#   From: 2010.05.17/outbox.cif.g08.bks.cpg/sg115_4_cif.got.tgz:6195.got - 2010.05.20 11:07:42.
