data_PCOD9556140
_publ_section_title
;
Structure prediction by ZEFSAII (Michael W. Deem and Ramdas Pophale) SiO2 
 PCOD9556140
Probable space group: P -4 21 C
;
_chemical_formula_sum "Si O2"
_cell_formula_units_Z 42
_cell_length_a 14.117074
_cell_length_b 14.117074
_cell_length_c 10.878455
_cell_angle_alpha 90.000000
_cell_angle_beta 90.000000
_cell_angle_gamma 90.000000
_cell_volume 2167.986642
_symmetry_space_group_name_H-M "P -4 21 C"
_symmetry_group_IT_number 114
_symmetry_cell_setting 'tetragonal'
loop_
_space_group_symop_operation_xyz
x,y,z
y,-x,-z
-x,-y,z
-y,x,-z
1/2+x,1/2-y,1/2-z
1/2-x,1/2+y,1/2-z
1/2-y,1/2-x,1/2+z
1/2+y,1/2+x,1/2+z
loop_
_atom_site_type_symbol
_atom_site_label
_atom_site_fract_x
_atom_site_fract_y
_atom_site_fract_z
Si Si1 0.914463 0.723545 0.180485
Si Si2 0.433569 0.708814 0.052908
Si Si3 0.512943 0.104451 0.918111
Si Si4 0.762815 0.269913 0.936415
Si Si5 0.816180 0.373143 0.684887
Si Si6 0.000000 0.000000 0.500000
O O1 0.891361 0.758165 0.317062
O O2 0.896537 0.612912 0.151881
O O3 0.842552 0.773298 0.087726
O O4 0.026656 0.736871 0.171774
O O5 0.491550 0.801632 0.004253
O O6 0.346279 0.702598 0.959161
O O7 0.481381 0.604596 0.061893
O O8 0.428563 0.109836 0.820949
O O9 0.500000 0.000000 0.981194
O O10 0.793287 0.321965 0.811854
O O11 0.816753 0.294503 0.060627
#
# Coordination Sequence:
#
# PCOD9556140 Si02
#       6
#     8   8   8   8   8   2
#     4  10  22  39  63  91 128 164 214 264 323 380
#     4  11  22  41  60  94 128 174 214 264 319 394
#     4   9  21  37  63  94 122 161 210 279 333 379
#     4  11  23  41  64  90 132 165 213 266 322 383
#     4  11  21  40  63  94 122 166 211 267 325 381
#     4  12  24  36  64  92 134 184 224 252 310 412
#
# _framework density 19.372812
#
# number of rings (size 3 to 8) (size 9 to 14) (size 15 to 20)
#    0.000    1.524    1.905    3.429    0.000    6.857 
#    0.000    1.905    0.000    0.000    0.000    0.000 
#    0.000    0.000    0.000    0.000    0.000    0.000 
#
# Total GULP energy -233891.060979 kJ/mol
# GULP energy per Si atom -5568.834785 kJ/mol
# Density = 1.932872 g / cm^3
# Si number density = 19.372812 Si / 1000 Ang^3
#
#
#
# Elastic Constant Matrix: (Units=GPa)
#
#
# Indices 1 2 3 4 5 6 
#
# 1 73.9981 48.9927 40.1056 0.0000 0.0000 0.0000
# 2 48.9927 73.9981 40.1056 0.0000 0.0000 0.0000
# 3 40.1056 40.1056 98.5094 0.0000 0.0000 0.0000
# 4 0.0000 0.0000 0.0000 23.4229 0.0000 0.0000
# 5 0.0000 0.0000 0.0000 0.0000 23.4229 0.0000
# 6 0.0000 0.0000 0.0000 0.0000 0.0000 19.0952
#
#
#
# Elastic Compliance Matrix: (Units=1/GPa)
#
#
# Indices 1 2 3 4 5 6 
#
# 1 0.025531 -0.014461 -0.004507 0.000000 0.000000 0.000000
# 2 -0.014461 0.025531 -0.004507 0.000000 0.000000 0.000000
# 3 -0.004507 -0.004507 0.013821 0.000000 0.000000 0.000000
# 4 0.000000 0.000000 0.000000 0.042693 0.000000 0.000000
# 5 0.000000 0.000000 0.000000 0.000000 0.042693 0.000000
# 6 0.000000 0.000000 0.000000 0.000000 0.000000 0.052369
#
#
# Mechanical properties :
#
#
# Convention : Reuss Voigt Hill
#
# Bulk Modulus (GPa) = 55.76157 56.10150 55.93154
# Shear Modulus (GPa) = 19.56451 21.00830 20.28640
#
# Velocity S-wave (km/s) = 3.18133 3.29663 3.23949
# Velocity P-wave (km/s) = 6.50695 6.59637 6.55181
#
# Compressibility (1/GPa) = 0.01793350
#
# Stress axis : x y z
#
# Youngs Moduli (GPa) = 39.16853 39.16853 72.35360
#
# Poissons Ratio (x) = 0.56641 0.32609
# Poissons Ratio (y) = 0.56641 0.32609
# Poissons Ratio (z) = 0.17653 0.17653
#
# Static dielectric constant tensor:
#      x y z
#    x 1.736930 0.000000 0.000000 
#    y 0.000000 1.736930 0.000000 
#    z 0.000000 0.000000 1.644920 
# 
# From -- ./inp_files/797.got.cif
#   From: 2010.05.17/outbox.cif.g08.bks.cpg/sg114_1_cif.got.tgz:797.got - 2010.05.20 11:04:54.
