data_PCOD9556133
_publ_section_title
;
Structure prediction by ZEFSAII (Michael W. Deem and Ramdas Pophale) SiO2 
 PCOD9556133
Probable space group: P -4 21 C
;
_chemical_formula_sum "Si O2"
_cell_formula_units_Z 44
_cell_length_a 13.846308
_cell_length_b 13.846308
_cell_length_c 9.740958
_cell_angle_alpha 90.000000
_cell_angle_beta 90.000000
_cell_angle_gamma 90.000000
_cell_volume 1867.538857
_symmetry_space_group_name_H-M "P -4 21 C"
_symmetry_group_IT_number 114
_symmetry_cell_setting 'tetragonal'
loop_
_space_group_symop_operation_xyz
x,y,z
y,-x,-z
-x,-y,z
-y,x,-z
1/2+x,1/2-y,1/2-z
1/2-x,1/2+y,1/2-z
1/2-y,1/2-x,1/2+z
1/2+y,1/2+x,1/2+z
loop_
_atom_site_type_symbol
_atom_site_label
_atom_site_fract_x
_atom_site_fract_y
_atom_site_fract_z
Si Si1 0.706652 0.007299 0.418943
Si Si2 0.847229 0.042681 0.971421
Si Si3 0.780873 0.703855 0.492276
Si Si4 0.978071 0.286296 0.272723
Si Si5 0.331359 0.241046 0.750693
Si Si6 0.000000 0.500000 0.682163
O O1 0.752235 0.941757 0.299630
O O2 0.593245 0.983497 0.410265
O O3 0.710236 0.122575 0.417496
O O4 0.744085 0.977174 0.568639
O O5 0.759813 0.098507 0.048673
O O6 0.794763 0.024836 0.824813
O O7 0.942160 0.110872 0.971982
O O8 0.697829 0.742264 0.594267
O O9 0.799686 0.766236 0.357877
O O10 0.017696 0.397809 0.261654
O O11 0.868676 0.298475 0.222466
#
# Coordination Sequence:
#
# PCOD9556133 Si02
#       6
#     8   8   8   8   8   4
#     4  11  24  43  73 105 145 195 240 317 383 444
#     4  11  24  43  67 101 144 197 252 301 367 460
#     4  12  24  46  73 106 145 200 250 312 381 463
#     4  11  21  45  68 104 147 187 248 309 379 440
#     4  11  25  45  72 107 149 189 252 319 379 453
#     4  10  22  38  68 110 142 186 242 302 372 450
#
# _framework density 23.560417999999999
#
# number of rings (size 3 to 8) (size 9 to 14) (size 15 to 20)
#    0.000    0.909    5.455    1.636    0.000    1.455 
#    3.273    0.000    0.000    0.545    0.000    0.000 
#    0.000    0.000    0.000    0.000    0.000    0.000 
#
# Total GULP energy -245542.149278 kJ/mol
# GULP energy per Si atom -5580.503393 kJ/mol
# Density = 2.350679 g / cm^3
# Si number density = 23.560418 Si / 1000 Ang^3
#
#
#
# Elastic Constant Matrix: (Units=GPa)
#
#
# Indices 1 2 3 4 5 6 
#
# 1 103.0316 25.0250 35.6723 0.0000 0.0000 0.0000
# 2 25.0250 103.0316 35.6723 0.0000 0.0000 0.0000
# 3 35.6723 35.6723 91.9954 0.0000 0.0000 0.0000
# 4 0.0000 0.0000 0.0000 32.7054 0.0000 0.0000
# 5 0.0000 0.0000 0.0000 0.0000 32.7054 0.0000
# 6 0.0000 0.0000 0.0000 0.0000 0.0000 28.3081
#
#
#
# Elastic Compliance Matrix: (Units=1/GPa)
#
#
# Indices 1 2 3 4 5 6 
#
# 1 0.011390 -0.001429 -0.003862 0.000000 0.000000 0.000000
# 2 -0.001429 0.011390 -0.003862 0.000000 0.000000 0.000000
# 3 -0.003862 -0.003862 0.013866 0.000000 0.000000 0.000000
# 4 0.000000 0.000000 0.000000 0.030576 0.000000 0.000000
# 5 0.000000 0.000000 0.000000 0.000000 0.030576 0.000000
# 6 0.000000 0.000000 0.000000 0.000000 0.000000 0.035326
#
#
# Mechanical properties :
#
#
# Convention : Reuss Voigt Hill
#
# Bulk Modulus (GPa) = 54.53287 54.53306 54.53296
# Shear Modulus (GPa) = 31.73709 32.18972 31.96341
#
# Velocity S-wave (km/s) = 3.67420 3.70031 3.68728
# Velocity P-wave (km/s) = 6.41840 6.43838 6.42840
#
# Compressibility (1/GPa) = 0.01833757
#
# Stress axis : x y z
#
# Youngs Moduli (GPa) = 87.79482 87.79482 72.12122
#
# Poissons Ratio (x) = 0.12548 0.27857
# Poissons Ratio (y) = 0.12548 0.27857
# Poissons Ratio (z) = 0.33911 0.33911
#
# Static dielectric constant tensor:
#      x y z
#    x 1.967130 0.000000 0.000000 
#    y 0.000000 1.967130 0.000000 
#    z 0.000000 0.000000 1.862400 
# 
# From -- ./inp_files/1604.got.cif
#   From: 2010.05.17/outbox.cif.g08.bks.cpg/sg114_1_cif.got.tgz:1604.got - 2010.05.20 11:04:54.
