data_PCOD9556476
_publ_section_title
;
Structure prediction by ZEFSAII (Michael W. Deem and Ramdas Pophale) SiO2 
 PCOD9556476
Probable space group: P -4 21 C
;
_chemical_formula_sum "Si O2"
_cell_formula_units_Z 32
_cell_length_a 8.573242
_cell_length_b 8.573242
_cell_length_c 19.254816
_cell_angle_alpha 90.000000
_cell_angle_beta 90.000000
_cell_angle_gamma 90.000000
_cell_volume 1415.238187
_symmetry_space_group_name_H-M "P -4 21 C"
_symmetry_group_IT_number 114
_symmetry_cell_setting 'tetragonal'
loop_
_space_group_symop_operation_xyz
x,y,z
y,-x,-z
-x,-y,z
-y,x,-z
1/2+x,1/2-y,1/2-z
1/2-x,1/2+y,1/2-z
1/2-y,1/2-x,1/2+z
1/2+y,1/2+x,1/2+z
loop_
_atom_site_type_symbol
_atom_site_label
_atom_site_fract_x
_atom_site_fract_y
_atom_site_fract_z
Si Si1 0.626052 0.375013 0.805919
Si Si2 0.798895 0.174458 0.921863
Si Si3 0.677633 0.316407 0.579544
Si Si4 0.390215 0.864489 0.201908
O O1 0.500000 0.500000 0.829813
O O2 0.714502 0.286959 0.867935
O O3 0.746116 0.487119 0.763985
O O4 0.570409 0.239634 0.754029
O O5 0.987644 0.179692 0.915971
O O6 0.759417 0.991699 0.911070
O O7 0.762471 0.216831 0.001756
O O8 0.722819 0.199365 0.640133
O O9 0.500000 0.000000 0.172888
#
# Coordination Sequence:
#
# PCOD9556476 Si02
#       4
#     8   8   8   8
#     4  12  26  42  64 103 140 180 225 289 343 402
#     4   9  19  41  69 100 126 169 232 281 341 404
#     4   9  19  40  73  95 123 176 230 281 331 419
#     4  12  24  43  67  94 134 184 230 274 343 412
#
# _framework density 22.611034
#
# number of rings (size 3 to 8) (size 9 to 14) (size 15 to 20)
#    0.000    1.500    2.500    4.500    3.500    0.000 
#    4.500    1.250    0.000    0.000    0.000    0.000 
#    0.000    0.000    0.000    0.000    0.000    0.000 
#
# Total GULP energy -178754.252826 kJ/mol
# GULP energy per Si atom -5586.070401 kJ/mol
# Density = 2.255957 g / cm^3
# Si number density = 22.611034 Si / 1000 Ang^3
#
#
#
# Elastic Constant Matrix: (Units=GPa)
#
#
# Indices 1 2 3 4 5 6 
#
# 1 86.4111 49.1517 48.7688 0.0000 0.0000 0.0000
# 2 49.1517 86.4111 48.7688 0.0000 0.0000 0.0000
# 3 48.7688 48.7688 126.7438 0.0000 0.0000 0.0000
# 4 0.0000 0.0000 0.0000 28.0712 0.0000 0.0000
# 5 0.0000 0.0000 0.0000 0.0000 28.0712 0.0000
# 6 0.0000 0.0000 0.0000 0.0000 0.0000 48.3262
#
#
#
# Elastic Compliance Matrix: (Units=1/GPa)
#
#
# Indices 1 2 3 4 5 6 
#
# 1 0.018520 -0.008319 -0.003925 0.000000 0.000000 0.000000
# 2 -0.008319 0.018520 -0.003925 0.000000 0.000000 0.000000
# 3 -0.003925 -0.003925 0.010911 0.000000 0.000000 0.000000
# 4 0.000000 0.000000 0.000000 0.035624 0.000000 0.000000
# 5 0.000000 0.000000 0.000000 0.000000 0.035624 0.000000
# 6 0.000000 0.000000 0.000000 0.000000 0.000000 0.020693
#
#
# Mechanical properties :
#
#
# Convention : Reuss Voigt Hill
#
# Bulk Modulus (GPa) = 64.05431 65.88270 64.96851
# Shear Modulus (GPa) = 28.17972 31.08550 29.63261
#
# Velocity S-wave (km/s) = 3.53410 3.71184 3.62406
# Velocity P-wave (km/s) = 6.71144 6.89718 6.80494
#
# Compressibility (1/GPa) = 0.01561175
#
# Stress axis : x y z
#
# Youngs Moduli (GPa) = 53.99629 53.99629 91.65462
#
# Poissons Ratio (x) = 0.44920 0.35975
# Poissons Ratio (y) = 0.44920 0.35975
# Poissons Ratio (z) = 0.21194 0.21194
#
# Static dielectric constant tensor:
#      x y z
#    x 1.863230 0.000000 0.000000 
#    y 0.000000 1.863230 0.000000 
#    z 0.000000 0.000000 1.808120 
# 
# From -- ./inp_files/2852.got.cif
#   From: 2010.05.17/outbox.cif.g08.bks.cpg/sg114_2_cif.got.tgz:2852.got - 2010.05.20 11:04:54.
