data_PCOD9556477
_publ_section_title
;
Structure prediction by ZEFSAII (Michael W. Deem and Ramdas Pophale) SiO2 
 PCOD9556477
Probable space group: P -4 21 C
;
_chemical_formula_sum "Si O2"
_cell_formula_units_Z 34
_cell_length_a 8.799091
_cell_length_b 8.799091
_cell_length_c 19.208288
_cell_angle_alpha 90.000000
_cell_angle_beta 90.000000
_cell_angle_gamma 90.000000
_cell_volume 1487.182537
_symmetry_space_group_name_H-M "P -4 21 C"
_symmetry_group_IT_number 114
_symmetry_cell_setting 'tetragonal'
loop_
_space_group_symop_operation_xyz
x,y,z
y,-x,-z
-x,-y,z
-y,x,-z
1/2+x,1/2-y,1/2-z
1/2-x,1/2+y,1/2-z
1/2-y,1/2-x,1/2+z
1/2+y,1/2+x,1/2+z
loop_
_atom_site_type_symbol
_atom_site_label
_atom_site_fract_x
_atom_site_fract_y
_atom_site_fract_z
Si Si1 0.292110 0.850768 0.071982
Si Si2 0.169682 0.509428 0.053945
Si Si3 0.000000 0.000000 0.000000
Si Si4 0.895801 0.856477 0.671163
Si Si5 0.656672 0.957443 0.212542
O O1 0.231725 0.677437 0.069603
O O2 0.328611 0.932193 0.145094
O O3 0.443803 0.839925 0.024356
O O4 0.153097 0.951155 0.040919
O O5 0.264526 0.392685 0.099525
O O6 0.000000 0.500000 0.080905
O O7 0.720827 0.857559 0.695269
O O8 0.995095 0.785290 0.733721
O O9 0.000000 0.000000 0.652970
O O10 0.500000 0.000000 0.249013
#
# Coordination Sequence:
#
# PCOD9556477 Si02
#       5
#     8   8   2   8   8
#     4  12  27  46  76 109 155 200 264 322 396 474
#     4  12  27  46  72 109 152 202 255 321 389 469
#     4  12  24  44  68 108 144 204 248 322 388 468
#     4  12  28  49  79 114 153 204 258 326 397 477
#     4  12  27  50  76 110 153 202 256 321 396 477
#
# _framework density 22.862019
#
# number of rings (size 3 to 8) (size 9 to 14) (size 15 to 20)
#    0.000    0.000    2.353    7.059    8.235    0.000 
#    0.000    0.000    0.000    0.000    0.000    0.000 
#    0.000    0.000    0.000    0.000    0.000    0.000 
#
# Total GULP energy -189982.786864 kJ/mol
# GULP energy per Si atom -5587.729025 kJ/mol
# Density = 2.280998 g / cm^3
# Si number density = 22.862019 Si / 1000 Ang^3
#
#
#
# Elastic Constant Matrix: (Units=GPa)
#
#
# Indices 1 2 3 4 5 6 
#
# 1 127.7043 12.7636 9.1102 0.0000 0.0000 0.0000
# 2 12.7636 127.7043 9.1102 0.0000 0.0000 0.0000
# 3 9.1102 9.1102 77.3266 0.0000 0.0000 0.0000
# 4 0.0000 0.0000 0.0000 -70.0984 0.0000 0.0000
# 5 0.0000 0.0000 0.0000 0.0000 -70.0984 0.0000
# 6 0.0000 0.0000 0.0000 0.0000 0.0000 43.3576
#
#
#
# Elastic Compliance Matrix: (Units=1/GPa)
#
#
# Indices 1 2 3 4 5 6 
#
# 1 0.007965 -0.000735 -0.000852 0.000000 0.000000 0.000000
# 2 -0.000735 0.007965 -0.000852 0.000000 0.000000 0.000000
# 3 -0.000852 -0.000852 0.013133 0.000000 0.000000 0.000000
# 4 0.000000 0.000000 0.000000 -0.014266 0.000000 0.000000
# 5 0.000000 0.000000 0.000000 0.000000 -0.014266 0.000000
# 6 0.000000 0.000000 0.000000 0.000000 0.000000 0.023064
#
#
# Mechanical properties :
#
#
# Convention : Reuss Voigt Hill
#
# Bulk Modulus (GPa) = 41.34801 43.85593 42.60197
# Shear Modulus (GPa) = 136.85702 0.74890 68.80296
#
# Velocity S-wave (km/s) = 7.74546 0.57296 5.49183
# Velocity P-wave (km/s) = 9.90528 4.43421 7.67388
#
# Compressibility (1/GPa) = 0.02418496
#
# Stress axis : x y z
#
# Youngs Moduli (GPa) = 125.55176 125.55176 76.14488
#
# Poissons Ratio (x) = 0.09232 0.06486
# Poissons Ratio (y) = 0.09232 0.06486
# Poissons Ratio (z) = 0.10694 0.10694
#
# Static dielectric constant tensor:
#      x y z
#    x 1.956380 0.000000 0.000000 
#    y 0.000000 1.956380 0.000000 
#    z 0.000000 0.000000 1.828060 
# 
# From -- ./inp_files/2931.got.cif
#   From: 2010.05.17/outbox.cif.g08.bks.cpg/sg114_2_cif.got.tgz:2931.got - 2010.05.20 11:04:54.
