data_PCOD9556612
_publ_section_title
;
Structure prediction by ZEFSAII (Michael W. Deem and Ramdas Pophale) SiO2 
 PCOD9556612
Probable space group: P -4 M 2
;
_chemical_formula_sum "Si O2"
_cell_formula_units_Z 28
_cell_length_a 11.457423
_cell_length_b 11.457423
_cell_length_c 13.110484
_cell_angle_alpha 90.000000
_cell_angle_beta 90.000000
_cell_angle_gamma 90.000000
_cell_volume 1721.046559
_symmetry_space_group_name_H-M "P -4 M 2"
_symmetry_group_IT_number 115
_symmetry_cell_setting 'tetragonal'
loop_
_space_group_symop_operation_xyz
x,y,z
y,-x,-z
-x,-y,z
-y,x,-z
y,x,-z
-y,-x,-z
-x,y,z
x,-y,z
loop_
_atom_site_type_symbol
_atom_site_label
_atom_site_fract_x
_atom_site_fract_y
_atom_site_fract_z
Si Si1 0.244337 0.244337 0.500000
Si Si2 0.361591 0.368156 0.687962
Si Si3 0.753730 0.359340 0.901316
Si Si4 0.644624 0.000000 0.434032
Si Si5 0.000000 0.640251 0.809550
O O1 0.310717 0.287654 0.600926
O O2 0.288645 0.112468 0.480118
O O3 0.500000 0.370971 0.679535
O O4 0.314365 0.500000 0.670790
O O5 0.325540 0.335381 0.802137
O O6 0.752073 0.500000 0.918640
O O7 0.883092 0.321346 0.867060
O O8 0.705266 0.294735 0.000000
O O9 0.666009 0.000000 0.311240
O O10 0.500000 0.000000 0.449235
O O11 0.000000 0.500000 0.814618
#
# Coordination Sequence:
#
# PCOD9556612 Si02
#       5
#     4   8   8   4   4
#     4  12  22  36  58  82 118 158 202 243 288 349
#     4  10  19  31  52  84 117 146 183 242 311 366
#     4  10  19  33  55  82 113 146 187 236 294 356
#     4  11  22  39  62  87 118 161 205 246 293 352
#     4   9  18  36  58  79 108 154 196 228 283 352
#
# _framework density 16.269171
#
# number of rings (size 3 to 8) (size 9 to 14) (size 15 to 20)
#    0.000    1.714    2.857    3.429    0.000    2.857 
#    0.000    1.429    0.000    2.143    0.000    0.000 
#    0.000    0.000    0.000    0.000    0.000    0.000 
#
# Total GULP energy -156062.837900 kJ/mol
# GULP energy per Si atom -5573.672782 kJ/mol
# Density = 1.623214 g / cm^3
# Si number density = 16.269171 Si / 1000 Ang^3
#
#
#
# Elastic Constant Matrix: (Units=GPa)
#
#
# Indices 1 2 3 4 5 6 
#
# 1 102.9837 54.8633 75.4541 0.0000 0.0000 0.0000
# 2 54.8633 102.9827 75.4545 0.0000 0.0000 0.0000
# 3 75.4541 75.4545 152.6302 0.0000 0.0000 0.0000
# 4 0.0000 0.0000 0.0000 69.1507 0.0000 0.0000
# 5 0.0000 0.0000 0.0000 0.0000 69.1495 0.0000
# 6 0.0000 0.0000 0.0000 0.0000 0.0000 18.7132
#
#
#
# Elastic Compliance Matrix: (Units=1/GPa)
#
#
# Indices 1 2 3 4 5 6 
#
# 1 0.016397 -0.004384 -0.005939 0.000000 0.000000 0.000000
# 2 -0.004384 0.016397 -0.005939 0.000000 0.000000 0.000000
# 3 -0.005939 -0.005939 0.012424 0.000000 0.000000 0.000000
# 4 0.000000 0.000000 0.000000 0.014461 0.000000 0.000000
# 5 0.000000 0.000000 0.000000 0.000000 0.014461 0.000000
# 6 0.000000 0.000000 0.000000 0.000000 0.000000 0.053438
#
#
# Mechanical properties :
#
#
# Convention : Reuss Voigt Hill
#
# Bulk Modulus (GPa) = 78.77405 85.57118 82.17262
# Shear Modulus (GPa) = 30.42592 41.59099 36.00846
#
# Velocity S-wave (km/s) = 4.32922 5.06160 4.70967
# Velocity P-wave (km/s) = 8.57403 9.32046 8.95503
#
# Compressibility (1/GPa) = 0.01269454
#
# Stress axis : x y z
#
# Youngs Moduli (GPa) = 60.98667 60.98531 80.49239
#
# Poissons Ratio (x) = 0.26737 0.47801
# Poissons Ratio (y) = 0.26738 0.47803
# Poissons Ratio (z) = 0.36218 0.36218
#
# Static dielectric constant tensor:
#      x y z
#    x 1.566650 0.000000 0.000000 
#    y 0.000000 1.566650 0.000000 
#    z 0.000000 0.000000 1.516020 
# 
# From -- ./inp_files/2450.got.cif
#   From: 2010.05.17/outbox.cif.g08.bks.cpg/sg115_2_cif.got.tgz:2450.got - 2010.05.20 11:07:42.
