data_PCOD9556139
_publ_section_title
;
Structure prediction by ZEFSAII (Michael W. Deem and Ramdas Pophale) SiO2 
 PCOD9556139
Probable space group: P -4 21 C
;
_chemical_formula_sum "Si O2"
_cell_formula_units_Z 32
_cell_length_a 8.799410
_cell_length_b 8.799410
_cell_length_c 20.184930
_cell_angle_alpha 90.000000
_cell_angle_beta 90.000000
_cell_angle_gamma 90.000000
_cell_volume 1562.911386
_symmetry_space_group_name_H-M "P -4 21 C"
_symmetry_group_IT_number 114
_symmetry_cell_setting 'tetragonal'
loop_
_space_group_symop_operation_xyz
x,y,z
y,-x,-z
-x,-y,z
-y,x,-z
1/2+x,1/2-y,1/2-z
1/2-x,1/2+y,1/2-z
1/2-y,1/2-x,1/2+z
1/2+y,1/2+x,1/2+z
loop_
_atom_site_type_symbol
_atom_site_label
_atom_site_fract_x
_atom_site_fract_y
_atom_site_fract_z
Si Si1 0.308365 0.686984 0.657397
Si Si2 0.892913 0.351971 0.875549
Si Si3 0.784953 0.865008 0.990872
Si Si4 0.988453 0.820057 0.275875
O O1 0.488948 0.720245 0.646650
O O2 0.241137 0.680733 0.583416
O O3 0.283188 0.536422 0.700499
O O4 0.240864 0.826842 0.699140
O O5 0.766071 0.389490 0.822101
O O6 0.000000 0.500000 0.881022
O O7 0.822785 0.319419 0.947335
O O8 0.952334 0.799697 0.005845
O O9 0.000000 0.000000 0.284587
#
# Coordination Sequence:
#
# PCOD9556139 Si02
#       4
#     8   8   8   8
#     4  10  22  39  63  91 118 162 202 249 309 358
#     4   9  20  41  59  85 125 159 203 253 300 362
#     4   9  19  36  64  86 108 162 214 248 291 368
#     4  11  23  39  61  90 126 160 194 257 307 362
#
# _framework density 20.474609000000001
#
# number of rings (size 3 to 8) (size 9 to 14) (size 15 to 20)
#    0.000    2.250    0.000    1.500   10.500    0.000 
#   13.500    3.750    0.000    0.000    0.000    0.000 
#    0.000    0.000    0.000    0.000    0.000    0.000 
#
# Total GULP energy -178663.246656 kJ/mol
# GULP energy per Si atom -5583.226458 kJ/mol
# Density = 2.042801 g / cm^3
# Si number density = 20.474609 Si / 1000 Ang^3
#
#
#
# Elastic Constant Matrix: (Units=GPa)
#
#
# Indices 1 2 3 4 5 6 
#
# 1 37.5408 1.9142 41.7807 0.0000 0.0000 0.0000
# 2 1.9142 37.5408 41.7807 0.0000 0.0000 0.0000
# 3 41.7807 41.7807 161.7767 0.0000 0.0000 0.0000
# 4 0.0000 0.0000 0.0000 32.7135 0.0000 0.0000
# 5 0.0000 0.0000 0.0000 0.0000 32.7135 0.0000
# 6 0.0000 0.0000 0.0000 0.0000 0.0000 21.8406
#
#
#
# Elastic Compliance Matrix: (Units=1/GPa)
#
#
# Indices 1 2 3 4 5 6 
#
# 1 0.042008 0.013939 -0.014449 0.000000 0.000000 0.000000
# 2 0.013939 0.042008 -0.014449 0.000000 0.000000 0.000000
# 3 -0.014449 -0.014449 0.013644 0.000000 0.000000 0.000000
# 4 0.000000 0.000000 0.000000 0.030568 0.000000 0.000000
# 5 0.000000 0.000000 0.000000 0.000000 0.030568 0.000000
# 6 0.000000 0.000000 0.000000 0.000000 0.000000 0.045786
#
#
# Mechanical properties :
#
#
# Convention : Reuss Voigt Hill
#
# Bulk Modulus (GPa) = 14.76193 45.31215 30.03704
# Shear Modulus (GPa) = 19.44913 27.54569 23.49741
#
# Velocity S-wave (km/s) = 3.08541 3.67189 3.39135
# Velocity P-wave (km/s) = 4.46302 6.33688 5.48063
#
# Compressibility (1/GPa) = 0.06774184
#
# Stress axis : x y z
#
# Youngs Moduli (GPa) = 23.80526 23.80526 73.28991
#
# Poissons Ratio (x) = -0.33181 1.05894
# Poissons Ratio (y) = -0.33181 1.05894
# Poissons Ratio (z) = 0.34396 0.34396
#
# Static dielectric constant tensor:
#      x y z
#    x 1.740340 0.000000 0.000000 
#    y 0.000000 1.740340 0.000000 
#    z 0.000000 0.000000 1.739320 
# 
# From -- ./inp_files/2817.got.cif
#   From: 2010.05.17/outbox.cif.g08.bks.cpg/sg114_2_cif.got.tgz:2817.got - 2010.05.20 11:04:54.
