data_PCOD9556006
_publ_section_title
;
Structure prediction by ZEFSAII (Michael W. Deem and Ramdas Pophale) SiO2 
 PCOD9556006
Probable space group: P -4 21 C
;
_chemical_formula_sum "Si O2"
_cell_formula_units_Z 36
_cell_length_a 9.307537
_cell_length_b 9.307537
_cell_length_c 19.187159
_cell_angle_alpha 90.000000
_cell_angle_beta 90.000000
_cell_angle_gamma 90.000000
_cell_volume 1662.188285
_symmetry_space_group_name_H-M "P -4 21 C"
_symmetry_group_IT_number 114
_symmetry_cell_setting 'tetragonal'
loop_
_space_group_symop_operation_xyz
x,y,z
y,-x,-z
-x,-y,z
-y,x,-z
1/2+x,1/2-y,1/2-z
1/2-x,1/2+y,1/2-z
1/2-y,1/2-x,1/2+z
1/2+y,1/2+x,1/2+z
loop_
_atom_site_type_symbol
_atom_site_label
_atom_site_fract_x
_atom_site_fract_y
_atom_site_fract_z
Si Si1 0.480261 0.158824 0.690756
Si Si2 0.811478 0.250250 0.690978
Si Si3 0.500000 0.500000 0.822143
Si Si4 0.026808 0.661779 0.554048
Si Si5 0.336222 0.255763 0.088236
O O1 0.641014 0.224910 0.698080
O O2 0.383907 0.129604 0.760319
O O3 0.366674 0.230359 0.637523
O O4 0.500000 0.000000 0.658910
O O5 0.912131 0.119255 0.719725
O O6 0.865110 0.270066 0.611588
O O7 0.368875 0.566083 0.867558
O O8 0.084788 0.684971 0.476806
O O9 0.000000 0.500000 0.573867
O O10 0.868383 0.726312 0.556878
#
# Coordination Sequence:
#
# PCOD9556006 Si02
#       5
#     8   8   4   8   8
#     4  12  25  44  69  98 139 179 229 284 347 414
#     4  11  24  42  67 100 134 180 226 284 343 413
#     4  10  20  41  66 100 128 179 230 282 340 411
#     4  11  24  42  68  99 137 179 233 288 349 416
#     4  11  23  41  70 100 136 180 232 286 346 420
#
# _framework density 21.658197000000001
#
# number of rings (size 3 to 8) (size 9 to 14) (size 15 to 20)
#    0.000    0.889    2.222    6.667    3.111    0.889 
#    0.000    0.000    0.000    0.000    0.000    0.000 
#    0.000    0.000    0.000    0.000    0.000    0.000 
#
# Total GULP energy -200618.975090 kJ/mol
# GULP energy per Si atom -5572.749308 kJ/mol
# Density = 2.160890 g / cm^3
# Si number density = 21.658197 Si / 1000 Ang^3
#
#
#
# Elastic Constant Matrix: (Units=GPa)
#
#
# Indices 1 2 3 4 5 6 
#
# 1 81.4057 45.5658 32.7491 0.0000 0.0000 0.0000
# 2 45.5658 81.4057 32.7491 0.0000 0.0000 0.0000
# 3 32.7491 32.7491 107.5355 0.0000 0.0000 0.0000
# 4 0.0000 0.0000 0.0000 22.6617 0.0000 0.0000
# 5 0.0000 0.0000 0.0000 0.0000 22.6617 0.0000
# 6 0.0000 0.0000 0.0000 0.0000 0.0000 23.5073
#
#
#
# Elastic Compliance Matrix: (Units=1/GPa)
#
#
# Indices 1 2 3 4 5 6 
#
# 1 0.018623 -0.009279 -0.002846 0.000000 0.000000 0.000000
# 2 -0.009279 0.018623 -0.002846 0.000000 0.000000 0.000000
# 3 -0.002846 -0.002846 0.011032 0.000000 0.000000 0.000000
# 4 0.000000 0.000000 0.000000 0.044127 0.000000 0.000000
# 5 0.000000 0.000000 0.000000 0.000000 0.044127 0.000000
# 6 0.000000 0.000000 0.000000 0.000000 0.000000 0.042540
#
#
# Mechanical properties :
#
#
# Convention : Reuss Voigt Hill
#
# Bulk Modulus (GPa) = 54.53280 54.71943 54.62611
# Shear Modulus (GPa) = 23.24224 24.38499 23.81361
#
# Velocity S-wave (km/s) = 3.27943 3.35909 3.31950
# Velocity P-wave (km/s) = 6.29071 6.35330 6.32208
#
# Compressibility (1/GPa) = 0.01833759
#
# Stress axis : x y z
#
# Youngs Moduli (GPa) = 53.69772 53.69772 90.64196
#
# Poissons Ratio (x) = 0.49827 0.25792
# Poissons Ratio (y) = 0.49827 0.25792
# Poissons Ratio (z) = 0.15280 0.15280
#
# Static dielectric constant tensor:
#      x y z
#    x 1.669380 0.000000 0.000000 
#    y 0.000000 1.669380 0.000000 
#    z 0.000000 0.000000 1.794170 
# 
# From -- ./inp_files/2942.got.cif
#   From: 2010.05.17/outbox.cif.g08.bks.cpg/sg114_2_cif.got.tgz:2942.got - 2010.05.20 11:04:54.
