data_PCOD9556347
_publ_section_title
;
Structure prediction by ZEFSAII (Michael W. Deem and Ramdas Pophale) SiO2 
 PCOD9556347
Probable space group: P -4 21 C
;
_chemical_formula_sum "Si O2"
_cell_formula_units_Z 64
_cell_length_a 19.349874
_cell_length_b 19.349874
_cell_length_c 9.233899
_cell_angle_alpha 90.000000
_cell_angle_beta 90.000000
_cell_angle_gamma 90.000000
_cell_volume 3457.334522
_symmetry_space_group_name_H-M "P -4 21 C"
_symmetry_group_IT_number 114
_symmetry_cell_setting 'tetragonal'
loop_
_space_group_symop_operation_xyz
x,y,z
y,-x,-z
-x,-y,z
-y,x,-z
1/2+x,1/2-y,1/2-z
1/2-x,1/2+y,1/2-z
1/2-y,1/2-x,1/2+z
1/2+y,1/2+x,1/2+z
loop_
_atom_site_type_symbol
_atom_site_label
_atom_site_fract_x
_atom_site_fract_y
_atom_site_fract_z
Si Si1 0.369099 0.750995 0.420416
Si Si2 0.779881 0.343713 0.727155
Si Si3 0.182400 0.062693 0.619886
Si Si4 0.841825 0.728411 0.753199
Si Si5 0.369762 0.252377 0.596556
Si Si6 0.630349 0.473038 0.321988
Si Si7 0.860740 0.021984 0.864572
Si Si8 0.071406 0.170023 0.567130
O O1 0.341057 0.808927 0.311289
O O2 0.373059 0.777084 0.586083
O O3 0.310194 0.691015 0.415125
O O4 0.438589 0.712442 0.374001
O O5 0.754079 0.400093 0.843872
O O6 0.719671 0.285089 0.731023
O O7 0.780515 0.373367 0.564312
O O8 0.846973 0.304377 0.785999
O O9 0.132808 0.115420 0.532053
O O10 0.148806 0.048599 0.777778
O O11 0.186120 0.986652 0.551610
O O12 0.892906 0.762474 0.635686
O O13 0.435221 0.296357 0.648605
O O14 0.614665 0.510200 0.472698
O O15 0.571859 0.416516 0.291499
O O16 0.636129 0.526732 0.194519
#
# Coordination Sequence:
#
# PCOD9556347 Si02
#       8
#     8   8   8   8   8   8   8   8
#     4   9  18  32  51  72  94 126 169 218 267 303
#     4   9  18  33  51  71  95 126 169 219 265 303
#     4  11  23  36  49  72 107 143 180 215 248 298
#     4   9  18  33  51  71  95 126 169 219 265 303
#     4   9  18  32  51  72  94 126 169 218 267 303
#     4  11  21  34  51  72 102 140 178 212 248 300
#     4  11  21  34  51  72 102 140 178 212 248 300
#     4  11  23  36  49  72 107 143 180 215 248 298
#
# _framework density 18.511369999999999
#
# number of rings (size 3 to 8) (size 9 to 14) (size 15 to 20)
#    0.000    2.000    2.500    1.500    3.500    3.000 
#    0.000    0.000    0.000    0.000    0.000    0.000 
#    0.000    6.000    0.000    0.000    0.000    0.000 
#
# Total GULP energy -357087.586713 kJ/mol
# GULP energy per Si atom -5579.493542 kJ/mol
# Density = 1.846924 g / cm^3
# Si number density = 18.511370 Si / 1000 Ang^3
#
#
#
# Elastic Constant Matrix: (Units=GPa)
#
#
# Indices 1 2 3 4 5 6 
#
# 1 25.5048 35.5240 -2.5631 0.0000 0.0000 0.0000
# 2 35.5240 25.5048 -2.5631 0.0000 0.0000 0.0000
# 3 -2.5631 -2.5631 33.4641 0.0000 0.0000 0.0000
# 4 0.0000 0.0000 0.0000 22.4835 0.0000 0.0000
# 5 0.0000 0.0000 0.0000 0.0000 22.4835 0.0000
# 6 0.0000 0.0000 0.0000 0.0000 0.0000 29.3423
#
#
#
# Elastic Compliance Matrix: (Units=1/GPa)
#
#
# Indices 1 2 3 4 5 6 
#
# 1 -0.041658 0.058150 0.001263 0.000000 0.000000 0.000000
# 2 0.058150 -0.041658 0.001263 0.000000 0.000000 0.000000
# 3 0.001263 0.001263 0.030076 0.000000 0.000000 0.000000
# 4 0.000000 0.000000 0.000000 0.044477 0.000000 0.000000
# 5 0.000000 0.000000 0.000000 0.000000 0.044477 0.000000
# 6 0.000000 0.000000 0.000000 0.000000 0.000000 0.034080
#
#
# Mechanical properties :
#
#
# Convention : Reuss Voigt Hill
#
# Bulk Modulus (GPa) = 14.68161 16.14104 15.41132
# Shear Modulus (GPa) = -173.28088 18.46691 -77.40699
#
# Velocity S-wave (km/s) = -9.68561 3.16190 -6.47354
# Velocity P-wave (km/s) = 10.82280 4.69773 6.89436
#
# Compressibility (1/GPa) = 0.06811244
#
# Stress axis : x y z
#
# Youngs Moduli (GPa) = -24.00472 -24.00472 33.24880
#
# Poissons Ratio (x) = 1.39588 -0.04200
# Poissons Ratio (y) = 1.39588 -0.04200
# Poissons Ratio (z) = 0.03032 0.03032
#
# Static dielectric constant tensor:
#      x y z
#    x 1.636080 0.000000 0.000000 
#    y 0.000000 1.636080 0.000000 
#    z 0.000000 0.000000 1.684800 
# 
# From -- ./inp_files/1099.got.cif
#   From: 2010.05.17/outbox.cif.g08.bks.cpg/sg114_1_cif.got.tgz:1099.got - 2010.05.20 11:04:54.
