data_PCOD9556012
_publ_section_title
;
Structure prediction by ZEFSAII (Michael W. Deem and Ramdas Pophale) SiO2 
 PCOD9556012
Probable space group: P -4 21 C
;
_chemical_formula_sum "Si O2"
_cell_formula_units_Z 50
_cell_length_a 14.324292
_cell_length_b 14.324292
_cell_length_c 11.590517
_cell_angle_alpha 90.000000
_cell_angle_beta 90.000000
_cell_angle_gamma 90.000000
_cell_volume 2378.204187
_symmetry_space_group_name_H-M "P -4 21 C"
_symmetry_group_IT_number 114
_symmetry_cell_setting 'tetragonal'
loop_
_space_group_symop_operation_xyz
x,y,z
y,-x,-z
-x,-y,z
-y,x,-z
1/2+x,1/2-y,1/2-z
1/2-x,1/2+y,1/2-z
1/2-y,1/2-x,1/2+z
1/2+y,1/2+x,1/2+z
loop_
_atom_site_type_symbol
_atom_site_label
_atom_site_fract_x
_atom_site_fract_y
_atom_site_fract_z
Si Si1 0.933869 0.676547 0.591315
Si Si2 0.269062 0.547725 0.690548
Si Si3 0.762556 0.688126 0.300818
Si Si4 0.935803 0.408578 0.772406
Si Si5 0.500000 0.500000 0.000000
Si Si6 0.322800 0.975288 0.025934
Si Si7 0.586801 0.325936 0.111847
O O1 0.846962 0.705855 0.674227
O O2 0.907183 0.575367 0.540703
O O3 0.942872 0.752408 0.489606
O O4 0.022052 0.659561 0.674256
O O5 0.306155 0.652084 0.692090
O O6 0.164972 0.556767 0.740066
O O7 0.256025 0.505618 0.563532
O O8 0.321559 0.481248 0.778443
O O9 0.792348 0.605641 0.386705
O O10 0.815121 0.782452 0.342237
O O11 0.000000 0.500000 0.782265
O O12 0.939818 0.357285 0.895438
O O13 0.572648 0.430815 0.065346
#
# Coordination Sequence:
#
# PCOD9556012 Si02
#       7
#     8   8   8   8   2   8   8
#     4  10  20  42  65  89 136 166 210 273 334 398
#     4  12  24  41  68 100 130 177 227 272 343 405
#     4  10  23  44  67  92 134 181 218 273 340 396
#     4  11  22  34  62 102 130 165 205 275 340 400
#     4  12  28  44  68  92 134 176 236 280 320 414
#     4  10  22  40  60  95 133 170 212 275 326 393
#     4  11  25  45  66  98 131 179 226 283 332 405
#
# _framework density 21.024266999999998
#
# number of rings (size 3 to 8) (size 9 to 14) (size 15 to 20)
#    0.000    1.280    3.200    2.880    6.720    2.560 
#    0.000    0.000    0.000    0.000    0.000    0.000 
#    0.000    0.000    0.000    0.000    0.000    0.000 
#
# Total GULP energy -279330.342949 kJ/mol
# GULP energy per Si atom -5586.606859 kJ/mol
# Density = 2.097641 g / cm^3
# Si number density = 21.024267 Si / 1000 Ang^3
#
#
#
# Elastic Constant Matrix: (Units=GPa)
#
#
# Indices 1 2 3 4 5 6 
#
# 1 42.0226 -27.5151 3.0853 0.0000 0.0000 0.0000
# 2 -27.5151 42.0226 3.0853 0.0000 0.0000 0.0000
# 3 3.0853 3.0853 92.5207 0.0000 0.0000 0.0000
# 4 0.0000 0.0000 0.0000 31.3821 0.0000 0.0000
# 5 0.0000 0.0000 0.0000 0.0000 31.3821 0.0000
# 6 0.0000 0.0000 0.0000 0.0000 0.0000 28.2001
#
#
#
# Elastic Compliance Matrix: (Units=1/GPa)
#
#
# Indices 1 2 3 4 5 6 
#
# 1 0.042151 0.027771 -0.002332 0.000000 0.000000 0.000000
# 2 0.027771 0.042151 -0.002332 0.000000 0.000000 0.000000
# 3 -0.002332 -0.002332 0.010964 0.000000 0.000000 0.000000
# 4 0.000000 0.000000 0.000000 0.031865 0.000000 0.000000
# 5 0.000000 0.000000 0.000000 0.000000 0.031865 0.000000
# 6 0.000000 0.000000 0.000000 0.000000 0.000000 0.035461
#
#
# Mechanical properties :
#
#
# Convention : Reuss Voigt Hill
#
# Bulk Modulus (GPa) = 7.06810 14.87519 10.97164
# Shear Modulus (GPa) = 25.58805 31.38689 28.48747
#
# Velocity S-wave (km/s) = 3.49244 3.86798 3.68500
# Velocity P-wave (km/s) = 4.43080 5.19990 4.83069
#
# Compressibility (1/GPa) = 0.14148081
#
# Stress axis : x y z
#
# Youngs Moduli (GPa) = 23.72409 23.72409 91.20839
#
# Poissons Ratio (x) = -0.65883 0.21267
# Poissons Ratio (y) = -0.65883 0.21267
# Poissons Ratio (z) = 0.05532 0.05532
#
# Static dielectric constant tensor:
#      x y z
#    x 1.640750 0.000000 0.000000 
#    y 0.000000 1.640750 0.000000 
#    z 0.000000 0.000000 1.795490 
# 
# From -- ./inp_files/1692.got.cif
#   From: 2010.05.17/outbox.cif.g08.bks.cpg/sg114_1_cif.got.tgz:1692.got - 2010.05.20 11:04:54.
