data_PCOD9556863
_publ_section_title
;
Structure prediction by ZEFSAII (Michael W. Deem and Ramdas Pophale) SiO2 
 PCOD9556863
Probable space group: P -4 M 2
;
_chemical_formula_sum "Si O2"
_cell_formula_units_Z 48
_cell_length_a 9.105732
_cell_length_b 9.105732
_cell_length_c 31.937201
_cell_angle_alpha 90.000000
_cell_angle_beta 90.000000
_cell_angle_gamma 90.000000
_cell_volume 2648.052430
_symmetry_space_group_name_H-M "P -4 M 2"
_symmetry_group_IT_number 115
_symmetry_cell_setting 'tetragonal'
loop_
_space_group_symop_operation_xyz
x,y,z
y,-x,-z
-x,-y,z
-y,x,-z
y,x,-z
-y,-x,-z
-x,y,z
x,-y,z
loop_
_atom_site_type_symbol
_atom_site_label
_atom_site_fract_x
_atom_site_fract_y
_atom_site_fract_z
Si Si1 0.175848 0.326075 0.380891
Si Si2 0.320943 0.168322 0.130036
Si Si3 0.176182 0.171895 0.293644
Si Si4 0.670194 0.679198 0.953904
Si Si5 0.671034 0.677228 0.784883
Si Si6 0.825490 0.325049 0.539880
O O1 0.204952 0.500000 0.381243
O O2 0.217050 0.256858 0.336147
O O3 0.260010 0.246634 0.418301
O O4 0.000000 0.305040 0.386476
O O5 0.500000 0.170733 0.129313
O O6 0.271821 0.237490 0.086062
O O7 0.275969 0.261120 0.170567
O O8 0.274341 0.000000 0.134203
O O9 0.253461 0.241466 0.253516
O O10 0.000000 0.184895 0.288834
O O11 0.212660 0.000000 0.297569
O O12 0.500000 0.722957 0.948799
O O13 0.671919 0.500000 0.954751
O O14 0.724952 0.724952 0.000000
O O15 0.500000 0.717423 0.782558
O O16 0.681802 0.500000 0.782644
O O17 0.751907 0.248094 0.500000
O O18 0.802303 0.500000 0.537652
O O19 0.000000 0.297240 0.539954
#
# Coordination Sequence:
#
# PCOD9556863 Si02
#       6
#     8   8   8   8   8   8
#     4  10  21  38  60  84 109 140 180 223 266 314
#     4   9  16  26  42  66  96 128 162 204 254 306
#     4  10  21  37  57  80 107 141 179 218 264 318
#     4   8  13  22  38  60  85 115 154 199 245 296
#     4  10  20  33  51  76 105 137 174 217 264 312
#     4  11  24  40  59  85 115 147 183 222 266 316
#
# _framework density 18.126529999999999
#
# number of rings (size 3 to 8) (size 9 to 14) (size 15 to 20)
#    0.000    2.333    0.000    3.500    0.000    9.000 
#    0.000    0.000    0.000    1.000    0.000    2.333 
#    0.000    0.000    0.000    0.000    0.000    0.000 
#
# Total GULP energy -267925.612764 kJ/mol
# GULP energy per Si atom -5581.783599 kJ/mol
# Density = 1.808527 g / cm^3
# Si number density = 18.126530 Si / 1000 Ang^3
#
#
#
# Elastic Constant Matrix: (Units=GPa)
#
#
# Indices 1 2 3 4 5 6 
#
# 1 75.8265 56.6008 76.0070 0.0000 0.0000 0.0000
# 2 56.6008 75.8257 76.0073 0.0000 0.0000 0.0000
# 3 76.0070 76.0073 191.5465 0.0000 0.0000 0.0000
# 4 0.0000 0.0000 0.0000 81.5860 0.0000 0.0000
# 5 0.0000 0.0000 0.0000 0.0000 81.5819 0.0000
# 6 0.0000 0.0000 0.0000 0.0000 0.0000 22.0446
#
#
#
# Elastic Compliance Matrix: (Units=1/GPa)
#
#
# Indices 1 2 3 4 5 6 
#
# 1 0.032941 -0.019073 -0.005503 0.000000 0.000000 0.000000
# 2 -0.019073 0.032942 -0.005503 0.000000 0.000000 0.000000
# 3 -0.005503 -0.005503 0.009588 0.000000 0.000000 0.000000
# 4 0.000000 0.000000 0.000000 0.012257 0.000000 0.000000
# 5 0.000000 0.000000 0.000000 0.000000 0.012258 0.000000
# 6 0.000000 0.000000 0.000000 0.000000 0.000000 0.045363
#
#
# Mechanical properties :
#
#
# Convention : Reuss Voigt Hill
#
# Bulk Modulus (GPa) = 65.30640 84.49210 74.89925
# Shear Modulus (GPa) = 23.74045 46.01475 34.87760
#
# Velocity S-wave (km/s) = 3.62291 5.04385 4.39124
# Velocity P-wave (km/s) = 7.32168 8.97965 8.19271
#
# Compressibility (1/GPa) = 0.01531244
#
# Stress axis : x y z
#
# Youngs Moduli (GPa) = 30.35715 30.35648 104.29710
#
# Poissons Ratio (x) = 0.57899 0.57394
# Poissons Ratio (y) = 0.57901 0.57397
# Poissons Ratio (z) = 0.16705 0.16706
#
# Static dielectric constant tensor:
#      x y z
#    x 1.607040 0.000000 0.000000 
#    y 0.000000 1.607040 0.000000 
#    z 0.000000 0.000000 1.598430 
# 
# From -- ./inp_files/6062.got.cif
#   From: 2010.05.17/outbox.cif.g08.bks.cpg/sg115_4_cif.got.tgz:6062.got - 2010.05.20 11:07:42.
