data_PCOD9556122
_publ_section_title
;
Structure prediction by ZEFSAII (Michael W. Deem and Ramdas Pophale) SiO2 
 PCOD9556122
Probable space group: P -4 21 C
;
_chemical_formula_sum "Si O2"
_cell_formula_units_Z 52
_cell_length_a 14.942138
_cell_length_b 14.942138
_cell_length_c 9.396136
_cell_angle_alpha 90.000000
_cell_angle_beta 90.000000
_cell_angle_gamma 90.000000
_cell_volume 2097.851682
_symmetry_space_group_name_H-M "P -4 21 C"
_symmetry_group_IT_number 114
_symmetry_cell_setting 'tetragonal'
loop_
_space_group_symop_operation_xyz
x,y,z
y,-x,-z
-x,-y,z
-y,x,-z
1/2+x,1/2-y,1/2-z
1/2-x,1/2+y,1/2-z
1/2-y,1/2-x,1/2+z
1/2+y,1/2+x,1/2+z
loop_
_atom_site_type_symbol
_atom_site_label
_atom_site_fract_x
_atom_site_fract_y
_atom_site_fract_z
Si Si1 0.358591 0.543472 0.467119
Si Si2 0.661975 0.211159 0.867617
Si Si3 0.871404 0.514763 0.753150
Si Si4 0.325086 0.603257 0.163887
Si Si5 0.985447 0.784048 0.421807
Si Si6 0.742595 0.308424 0.609099
Si Si7 0.500000 0.000000 0.488780
O O1 0.445910 0.607774 0.486024
O O2 0.327632 0.542874 0.303210
O O3 0.279654 0.592030 0.555029
O O4 0.653729 0.111671 0.806997
O O5 0.679369 0.279368 0.739333
O O6 0.574185 0.236075 0.956607
O O7 0.745523 0.217370 0.974231
O O8 0.787251 0.465143 0.821987
O O9 0.924940 0.468478 0.624509
O O10 0.928865 0.533498 0.896016
O O11 0.412374 0.665784 0.172322
O O12 0.233412 0.660495 0.152334
O O13 0.339824 0.554465 0.013326
#
# Coordination Sequence:
#
# PCOD9556122 Si02
#       7
#     8   8   8   8   8   8   4
#     4  11  25  46  74 109 147 191 243 303 364 438
#     4  11  19  39  70  93 134 187 230 277 361 423
#     4  11  19  40  61  97 133 185 228 290 361 426
#     4  11  25  46  68 108 141 187 249 292 371 429
#     4  11  24  42  71  98 142 186 237 302 349 439
#     4  11  21  42  71 100 138 187 234 289 353 430
#     4  10  22  34  66  92 136 176 240 292 354 432
#
# _framework density 24.787264
#
# number of rings (size 3 to 8) (size 9 to 14) (size 15 to 20)
#    0.000    1.077    6.154    0.923    0.000    5.231 
#    2.769    3.077    0.000    0.000    0.000    0.000 
#    0.000    0.000    0.000    0.000    0.000    0.000 
#
# Total GULP energy -290773.172777 kJ/mol
# GULP energy per Si atom -5591.791784 kJ/mol
# Density = 2.473085 g / cm^3
# Si number density = 24.787264 Si / 1000 Ang^3
#
#
#
# Elastic Constant Matrix: (Units=GPa)
#
#
# Indices 1 2 3 4 5 6 
#
# 1 48.9566 10.0406 22.4162 0.0000 0.0000 0.0000
# 2 10.0406 48.9566 22.4162 0.0000 0.0000 0.0000
# 3 22.4162 22.4162 182.0244 0.0000 0.0000 0.0000
# 4 0.0000 0.0000 0.0000 38.5328 0.0000 0.0000
# 5 0.0000 0.0000 0.0000 0.0000 38.5328 0.0000
# 6 0.0000 0.0000 0.0000 0.0000 0.0000 23.3351
#
#
#
# Elastic Compliance Matrix: (Units=1/GPa)
#
#
# Indices 1 2 3 4 5 6 
#
# 1 0.022198 -0.003498 -0.002303 0.000000 0.000000 0.000000
# 2 -0.003498 0.022198 -0.002303 0.000000 0.000000 0.000000
# 3 -0.002303 -0.002303 0.006061 0.000000 0.000000 0.000000
# 4 0.000000 0.000000 0.000000 0.025952 0.000000 0.000000
# 5 0.000000 0.000000 0.000000 0.000000 0.025952 0.000000
# 6 0.000000 0.000000 0.000000 0.000000 0.000000 0.042854
#
#
# Mechanical properties :
#
#
# Convention : Reuss Voigt Hill
#
# Bulk Modulus (GPa) = 29.19768 43.29818 36.24793
# Shear Modulus (GPa) = 28.92858 35.08445 32.00652
#
# Velocity S-wave (km/s) = 3.41995 3.76629 3.59729
# Velocity P-wave (km/s) = 5.23447 6.03482 5.64884
#
# Compressibility (1/GPa) = 0.03424929
#
# Stress axis : x y z
#
# Youngs Moduli (GPa) = 45.04875 45.04875 164.99010
#
# Poissons Ratio (x) = 0.15759 0.37995
# Poissons Ratio (y) = 0.15759 0.37995
# Poissons Ratio (z) = 0.10374 0.10374
#
# Static dielectric constant tensor:
#      x y z
#    x 2.041040 0.000000 0.000000 
#    y 0.000000 2.041040 0.000000 
#    z 0.000000 0.000000 1.914980 
# 
# From -- ./inp_files/964.got.cif
#   From: 2010.05.17/outbox.cif.g08.bks.cpg/sg114_1_cif.got.tgz:964.got - 2010.05.20 11:04:54.
