data_PCOD9556153
_publ_section_title
;
Structure prediction by ZEFSAII (Michael W. Deem and Ramdas Pophale) SiO2 
 PCOD9556153
Probable space group: P -4 21 C
;
_chemical_formula_sum "Si O2"
_cell_formula_units_Z 40
_cell_length_a 11.147591
_cell_length_b 11.147591
_cell_length_c 13.793305
_cell_angle_alpha 90.000000
_cell_angle_beta 90.000000
_cell_angle_gamma 90.000000
_cell_volume 1714.077255
_symmetry_space_group_name_H-M "P -4 21 C"
_symmetry_group_IT_number 114
_symmetry_cell_setting 'tetragonal'
loop_
_space_group_symop_operation_xyz
x,y,z
y,-x,-z
-x,-y,z
-y,x,-z
1/2+x,1/2-y,1/2-z
1/2-x,1/2+y,1/2-z
1/2-y,1/2-x,1/2+z
1/2+y,1/2+x,1/2+z
loop_
_atom_site_type_symbol
_atom_site_label
_atom_site_fract_x
_atom_site_fract_y
_atom_site_fract_z
Si Si1 0.907618 0.746841 0.044387
Si Si2 0.544899 0.200737 0.681147
Si Si3 0.000000 0.500000 0.038411
Si Si4 0.334116 0.032671 0.641779
Si Si5 0.500000 0.500000 0.500000
Si Si6 0.000000 0.000000 0.500000
Si Si7 0.614506 0.325051 0.873480
O O1 0.921524 0.745459 0.926456
O O2 0.987179 0.632748 0.083283
O O3 0.952296 0.883650 0.062824
O O4 0.775584 0.702885 0.078459
O O5 0.412340 0.144426 0.679181
O O6 0.563274 0.283833 0.771599
O O7 0.630319 0.086164 0.697748
O O8 0.886131 0.488682 0.966523
O O9 0.197341 0.060667 0.645531
O O10 0.010337 0.123353 0.559610
#
# Coordination Sequence:
#
# PCOD9556153 Si02
#       7
#     8   8   4   8   2   2   8
#     4  10  22  40  63  97 136 181 232 292 358 419
#     4   9  21  40  63  87 125 177 228 276 340 420
#     4   8  16  38  62  78 124 178 222 272 332 416
#     4   8  18  39  59  87 121 166 223 272 339 415
#     4  12  24  38  68 108 140 178 240 306 360 424
#     4  12  28  42  64 104 132 178 248 286 352 444
#     4  12  24  41  66  95 138 176 220 296 358 419
#
# _framework density 23.336169000000002
#
# number of rings (size 3 to 8) (size 9 to 14) (size 15 to 20)
#    0.000    2.800    0.000    4.800    0.000    7.200 
#    0.000    0.000    0.000    0.000    0.000    0.000 
#    0.000    0.000    0.000    0.000    0.000    0.000 
#
# Total GULP energy -222979.825328 kJ/mol
# GULP energy per Si atom -5574.495633 kJ/mol
# Density = 2.328306 g / cm^3
# Si number density = 23.336169 Si / 1000 Ang^3
#
#
#
# Elastic Constant Matrix: (Units=GPa)
#
#
# Indices 1 2 3 4 5 6 
#
# 1 70.8563 41.1222 20.6632 0.0000 0.0000 0.0000
# 2 41.1222 70.8563 20.6632 0.0000 0.0000 0.0000
# 3 20.6632 20.6632 95.1568 0.0000 0.0000 0.0000
# 4 0.0000 0.0000 0.0000 -3.2739 0.0000 0.0000
# 5 0.0000 0.0000 0.0000 0.0000 -3.2739 0.0000
# 6 0.0000 0.0000 0.0000 0.0000 0.0000 36.3449
#
#
#
# Elastic Compliance Matrix: (Units=1/GPa)
#
#
# Indices 1 2 3 4 5 6 
#
# 1 0.021670 -0.011962 -0.002108 0.000000 0.000000 0.000000
# 2 -0.011962 0.021670 -0.002108 0.000000 0.000000 0.000000
# 3 -0.002108 -0.002108 0.011425 0.000000 0.000000 0.000000
# 4 0.000000 0.000000 0.000000 -0.305443 0.000000 0.000000
# 5 0.000000 0.000000 0.000000 0.000000 -0.305443 0.000000
# 6 0.000000 0.000000 0.000000 0.000000 0.000000 0.027514
#
#
# Mechanical properties :
#
#
# Convention : Reuss Voigt Hill
#
# Bulk Modulus (GPa) = 44.62580 44.64073 44.63327
# Shear Modulus (GPa) = -10.22950 16.25414 3.01232
#
# Velocity S-wave (km/s) = -2.09596 2.64203 1.13738
# Velocity P-wave (km/s) = 3.64789 5.33648 4.57084
#
# Compressibility (1/GPa) = 0.02240856
#
# Stress axis : x y z
#
# Youngs Moduli (GPa) = 46.14708 46.14708 87.53094
#
# Poissons Ratio (x) = 0.55199 0.18453
# Poissons Ratio (y) = 0.55199 0.18453
# Poissons Ratio (z) = 0.09728 0.09728
#
# Static dielectric constant tensor:
#      x y z
#    x 1.956530 0.000000 0.000000 
#    y 0.000000 1.956530 0.000000 
#    z 0.000000 0.000000 1.911330 
# 
# From -- ./inp_files/2199.got.cif
#   From: 2010.05.17/outbox.cif.g08.bks.cpg/sg114_2_cif.got.tgz:2199.got - 2010.05.20 11:04:54.
