data_PCOD9556980
_publ_section_title
;
Structure prediction by ZEFSAII (Michael W. Deem and Ramdas Pophale) SiO2 
 PCOD9556980
Probable space group: P -4 M 2
;
_chemical_formula_sum "Si O2"
_cell_formula_units_Z 48
_cell_length_a 9.167323
_cell_length_b 9.167323
_cell_length_c 31.843397
_cell_angle_alpha 90.000000
_cell_angle_beta 90.000000
_cell_angle_gamma 90.000000
_cell_volume 2676.113065
_symmetry_space_group_name_H-M "P -4 M 2"
_symmetry_group_IT_number 115
_symmetry_cell_setting 'tetragonal'
loop_
_space_group_symop_operation_xyz
x,y,z
y,-x,-z
-x,-y,z
-y,x,-z
y,x,-z
-y,-x,-z
-x,y,z
x,-y,z
loop_
_atom_site_type_symbol
_atom_site_label
_atom_site_fract_x
_atom_site_fract_y
_atom_site_fract_z
Si Si1 0.824611 0.329167 0.835554
Si Si2 0.673288 0.326713 0.000000
Si Si3 0.170883 0.324572 0.086436
Si Si4 0.167840 0.322371 0.414660
Si Si5 0.675936 0.329030 0.670630
Si Si6 0.171341 0.175304 0.251117
Si Si7 0.326074 0.673927 0.500000
O O1 0.787175 0.500000 0.833265
O O2 0.750174 0.254802 0.875395
O O3 0.781805 0.248613 0.792469
O O4 0.000000 0.316889 0.839562
O O5 0.759701 0.282337 0.041677
O O6 0.500000 0.304025 0.006888
O O7 0.185481 0.500000 0.090006
O O8 0.000000 0.287829 0.087787
O O9 0.169777 0.500000 0.414910
O O10 0.256021 0.277047 0.373298
O O11 0.243601 0.276784 0.458040
O O12 0.000000 0.275285 0.412441
O O13 0.500000 0.316106 0.673455
O O14 0.712781 0.500000 0.671042
O O15 0.748057 0.247563 0.709668
O O16 0.000000 0.210951 0.249669
O O17 0.185688 0.000000 0.255331
O O18 0.500000 0.696367 0.494502
#
# Coordination Sequence:
#
# PCOD9556980 Si02
#       7
#     8   4   8   8   8   8   4
#     4  10  21  37  57  79 104 138 179 220 263 313
#     4   9  18  34  54  75 104 142 178 213 256 307
#     4  10  21  36  55  81 111 141 175 217 264 313
#     4   9  17  30  49  73 101 132 167 210 259 308
#     4  10  20  34  54  80 107 137 176 219 262 311
#     4  10  21  37  56  78 106 140 176 216 265 318
#     4   9  16  28  48  71  94 124 164 207 250 302
#
# _framework density 17.93646
#
# number of rings (size 3 to 8) (size 9 to 14) (size 15 to 20)
#    0.000    2.333    0.000    2.500    0.000    7.333 
#    0.000    2.500    0.000    3.250    0.000    0.000 
#    0.000    0.000    0.000    0.000    0.000    0.000 
#
# Total GULP energy -267963.660606 kJ/mol
# GULP energy per Si atom -5582.576263 kJ/mol
# Density = 1.789564 g / cm^3
# Si number density = 17.936460 Si / 1000 Ang^3
#
#
#
# Elastic Constant Matrix: (Units=GPa)
#
#
# Indices 1 2 3 4 5 6 
#
# 1 83.4279 59.2643 94.8420 0.0000 0.0000 0.0000
# 2 59.2643 83.4279 94.8420 0.0000 0.0000 0.0000
# 3 94.8420 94.8420 226.4281 0.0000 0.0000 0.0000
# 4 0.0000 0.0000 0.0000 302.1697 0.0000 0.0000
# 5 0.0000 0.0000 0.0000 0.0000 302.1937 0.0000
# 6 0.0000 0.0000 0.0000 0.0000 0.0000 23.3527
#
#
#
# Elastic Compliance Matrix: (Units=1/GPa)
#
#
# Indices 1 2 3 4 5 6 
#
# 1 0.028598 -0.012786 -0.006623 0.000000 0.000000 0.000000
# 2 -0.012786 0.028598 -0.006623 0.000000 0.000000 0.000000
# 3 -0.006623 -0.006623 0.009965 0.000000 0.000000 0.000000
# 4 0.000000 0.000000 0.000000 0.003309 0.000000 0.000000
# 5 0.000000 0.000000 0.000000 0.000000 0.003309 0.000000
# 6 0.000000 0.000000 0.000000 0.000000 0.000000 0.042822
#
#
# Mechanical properties :
#
#
# Convention : Reuss Voigt Hill
#
# Bulk Modulus (GPa) = 66.23874 99.02005 82.62939
# Shear Modulus (GPa) = 28.78540 135.16559 81.97550
#
# Velocity S-wave (km/s) = 4.01041 8.69032 6.76775
# Velocity P-wave (km/s) = 7.64554 12.49085 10.35557
#
# Compressibility (1/GPa) = 0.01509691
#
# Stress axis : x y z
#
# Youngs Moduli (GPa) = 34.96688 34.96692 100.35251
#
# Poissons Ratio (x) = 0.44708 0.66466
# Poissons Ratio (y) = 0.44708 0.66466
# Poissons Ratio (z) = 0.23160 0.23159
#
# Static dielectric constant tensor:
#      x y z
#    x 1.600680 0.000000 0.000000 
#    y 0.000000 1.600680 0.000000 
#    z 0.000000 0.000000 1.577320 
# 
# From -- ./inp_files/6192.got.cif
#   From: 2010.05.17/outbox.cif.g08.bks.cpg/sg115_4_cif.got.tgz:6192.got - 2010.05.20 11:07:42.
