data_PCOD9556550
_publ_section_title
;
Structure prediction by ZEFSAII (Michael W. Deem and Ramdas Pophale) SiO2 
 PCOD9556550
Probable space group: P -4 M 2
;
_chemical_formula_sum "Si O2"
_cell_formula_units_Z 60
_cell_length_a 14.984683
_cell_length_b 14.984683
_cell_length_c 16.761337
_cell_angle_alpha 90.000000
_cell_angle_beta 90.000000
_cell_angle_gamma 90.000000
_cell_volume 3763.602755
_symmetry_space_group_name_H-M "P -4 M 2"
_symmetry_group_IT_number 115
_symmetry_cell_setting 'tetragonal'
loop_
_space_group_symop_operation_xyz
x,y,z
y,-x,-z
-x,-y,z
-y,x,-z
y,x,-z
-y,-x,-z
-x,y,z
x,-y,z
loop_
_atom_site_type_symbol
_atom_site_label
_atom_site_fract_x
_atom_site_fract_y
_atom_site_fract_z
Si Si1 0.900286 0.322255 0.506155
Si Si2 0.725478 0.404739 0.541472
Si Si3 0.897190 0.229980 0.344802
Si Si4 0.101361 0.602903 0.229945
Si Si5 0.706614 0.395640 0.162741
Si Si6 0.250208 0.395626 0.730652
Si Si7 0.603674 0.396327 0.000000
Si Si8 0.897670 0.260654 0.690122
O O1 0.826139 0.397663 0.510120
O O2 0.877615 0.250633 0.437628
O O3 0.900490 0.282750 0.595351
O O4 0.000000 0.354755 0.487647
O O5 0.673411 0.326590 0.500000
O O6 0.685557 0.500000 0.520340
O O7 0.725043 0.394230 0.636694
O O8 0.888410 0.324735 0.299769
O O9 0.829696 0.159814 0.306358
O O10 0.000000 0.200484 0.338303
O O11 0.106847 0.500000 0.258317
O O12 0.186550 0.616429 0.172348
O O13 0.000000 0.614468 0.196743
O O14 0.687234 0.500000 0.183116
O O15 0.654547 0.327083 0.220004
O O16 0.669385 0.380960 0.073829
O O17 0.240705 0.500000 0.753757
O O18 0.158424 0.338803 0.733598
O O19 0.500000 0.386183 0.026349
O O20 0.000000 0.253266 0.717579
#
# Coordination Sequence:
#
# PCOD9556550 Si02
#       8
#     8   8   8   8   8   8   4   8
#     4   9  18  31  47  64  87 121 162 211 261 300
#     4  10  21  33  45  62  90 126 166 206 242 286
#     4  10  18  30  47  69  97 125 161 208 255 302
#     4   9  18  31  49  76 105 131 161 196 242 300
#     4  10  19  33  55  79 105 134 161 199 250 298
#     4  10  20  34  49  68  94 129 169 205 248 297
#     4   9  18  32  52  82 110 130 159 198 240 292
#     4  10  19  32  47  65  92 128 171 213 254 296
#
# _framework density 15.942171999999999
#
# number of rings (size 3 to 8) (size 9 to 14) (size 15 to 20)
#    0.000    2.333    1.333    2.400    0.000    2.800 
#    0.000    5.333    0.000    3.200    0.000    1.867 
#    0.000    0.000    0.000    0.000    0.000    0.000 
#
# Total GULP energy -334134.233144 kJ/mol
# GULP energy per Si atom -5568.903886 kJ/mol
# Density = 1.590589 g / cm^3
# Si number density = 15.942172 Si / 1000 Ang^3
#
#
#
# Elastic Constant Matrix: (Units=GPa)
#
#
# Indices 1 2 3 4 5 6 
#
# 1 110.1919 71.6550 39.1331 0.0000 0.0000 0.0000
# 2 71.6550 110.1931 39.1338 0.0000 0.0000 0.0000
# 3 39.1331 39.1338 36.0396 0.0000 0.0000 0.0000
# 4 0.0000 0.0000 0.0000 18.9275 0.0000 0.0000
# 5 0.0000 0.0000 0.0000 0.0000 18.9275 0.0000
# 6 0.0000 0.0000 0.0000 0.0000 0.0000 12.8568
#
#
#
# Elastic Compliance Matrix: (Units=1/GPa)
#
#
# Indices 1 2 3 4 5 6 
#
# 1 0.018136 -0.007812 -0.011210 0.000000 0.000000 0.000000
# 2 -0.007812 0.018136 -0.011211 0.000000 0.000000 0.000000
# 3 -0.011210 -0.011211 0.052093 0.000000 0.000000 0.000000
# 4 0.000000 0.000000 0.000000 0.052833 0.000000 0.000000
# 5 0.000000 0.000000 0.000000 0.000000 0.052833 0.000000
# 6 0.000000 0.000000 0.000000 0.000000 0.000000 0.077780
#
#
# Mechanical properties :
#
#
# Convention : Reuss Voigt Hill
#
# Bulk Modulus (GPa) = 35.84305 61.80760 48.82533
# Shear Modulus (GPa) = 14.63800 17.24256 15.94028
#
# Velocity S-wave (km/s) = 3.03346 3.29229 3.16552
# Velocity P-wave (km/s) = 5.89925 7.30111 6.63730
#
# Compressibility (1/GPa) = 0.02789941
#
# Stress axis : x y z
#
# Youngs Moduli (GPa) = 55.13798 55.13772 19.19661
#
# Poissons Ratio (x) = 0.43076 0.21519
# Poissons Ratio (y) = 0.43076 0.21521
# Poissons Ratio (z) = 0.61810 0.61813
#
# Static dielectric constant tensor:
#      x y z
#    x 1.549660 0.000000 0.000000 
#    y 0.000000 1.549660 0.000000 
#    z 0.000000 0.000000 1.504170 
# 
# From -- ./inp_files/3915.got.cif
#   From: 2010.05.17/outbox.cif.g08.bks.cpg/sg115_2_cif.got.tgz:3915.got - 2010.05.20 11:07:42.
