data_PCOD9556797
_publ_section_title
;
Structure prediction by ZEFSAII (Michael W. Deem and Ramdas Pophale) SiO2 
 PCOD9556797
Probable space group: P -4 M 2
;
_chemical_formula_sum "Si O2"
_cell_formula_units_Z 40
_cell_length_a 9.207265
_cell_length_b 9.207265
_cell_length_c 26.647698
_cell_angle_alpha 90.000000
_cell_angle_beta 90.000000
_cell_angle_gamma 90.000000
_cell_volume 2259.024723
_symmetry_space_group_name_H-M "P -4 M 2"
_symmetry_group_IT_number 115
_symmetry_cell_setting 'tetragonal'
loop_
_space_group_symop_operation_xyz
x,y,z
y,-x,-z
-x,-y,z
-y,x,-z
y,x,-z
-y,-x,-z
-x,y,z
x,-y,z
loop_
_atom_site_type_symbol
_atom_site_label
_atom_site_fract_x
_atom_site_fract_y
_atom_site_fract_z
Si Si1 0.167086 0.823017 0.648725
Si Si2 0.173870 0.327967 0.453580
Si Si3 0.827231 0.827278 0.149402
Si Si4 0.667339 0.177169 0.748955
Si Si5 0.826935 0.672063 0.953815
O O1 0.253145 0.780610 0.598672
O O2 0.245542 0.774272 0.699692
O O3 0.000000 0.775576 0.646887
O O4 0.167401 0.000000 0.649696
O O5 0.255742 0.255742 0.500000
O O6 0.199859 0.500000 0.451379
O O7 0.000000 0.305219 0.459471
O O8 0.778607 0.742911 0.199133
O O9 0.744004 0.783191 0.099049
O O10 0.000000 0.802956 0.142416
O O11 0.806168 0.000000 0.157127
O O12 0.500000 0.222549 0.746771
O O13 0.670014 0.000000 0.748528
O O14 0.802681 0.500000 0.952438
O O15 0.000000 0.698163 0.959894
O O16 0.743824 0.743824 0.000000
#
# Coordination Sequence:
#
# PCOD9556797 Si02
#       5
#     8   8   8   8   8
#     4   9  16  27  46  72 101 131 164 206 255 303
#     4  10  20  33  50  73 101 133 169 209 254 304
#     4   9  17  30  49  72  98 129 165 205 250 300
#     4   9  16  26  43  70 102 132 164 205 251 298
#     4  10  21  36  54  76 102 133 170 212 258 307
#
# _framework density 17.706757
#
# number of rings (size 3 to 8) (size 9 to 14) (size 15 to 20)
#    0.000    2.600    0.000    2.400    0.000    8.000 
#    0.000    2.000    0.000    1.200    0.000    2.800 
#    0.000    0.000    0.000    0.000    0.000    0.000 
#
# Total GULP energy -223148.227435 kJ/mol
# GULP energy per Si atom -5578.705686 kJ/mol
# Density = 1.766646 g / cm^3
# Si number density = 17.706757 Si / 1000 Ang^3
#
#
#
# Elastic Constant Matrix: (Units=GPa)
#
#
# Indices 1 2 3 4 5 6 
#
# 1 65.8188 53.9753 89.3877 0.0000 0.0000 0.0000
# 2 53.9753 65.8188 89.3877 0.0000 0.0000 0.0000
# 3 89.3877 89.3877 228.4996 0.0000 0.0000 0.0000
# 4 0.0000 0.0000 0.0000 -8.3049 0.0000 0.0000
# 5 0.0000 0.0000 0.0000 0.0000 -8.3049 0.0000
# 6 0.0000 0.0000 0.0000 0.0000 0.0000 14.1217
#
#
#
# Elastic Compliance Matrix: (Units=1/GPa)
#
#
# Indices 1 2 3 4 5 6 
#
# 1 0.052246 -0.032189 -0.007846 0.000000 0.000000 0.000000
# 2 -0.032189 0.052246 -0.007846 0.000000 0.000000 0.000000
# 3 -0.007846 -0.007846 0.010515 0.000000 0.000000 0.000000
# 4 0.000000 0.000000 0.000000 -0.120411 0.000000 0.000000
# 5 0.000000 0.000000 0.000000 0.000000 -0.120411 0.000000
# 6 0.000000 0.000000 0.000000 0.000000 0.000000 0.070813
#
#
# Mechanical properties :
#
#
# Convention : Reuss Voigt Hill
#
# Bulk Modulus (GPa) = 51.96340 91.73761 71.85051
# Shear Modulus (GPa) = 105.98977 7.99482 56.99230
#
# Velocity S-wave (km/s) = 7.74521 2.12719 5.67949
# Velocity P-wave (km/s) = 10.45920 7.61282 9.14740
#
# Compressibility (1/GPa) = 0.01924431
#
# Stress axis : x y z
#
# Youngs Moduli (GPa) = 19.14031 19.14031 95.10146
#
# Poissons Ratio (x) = 0.61611 0.74618
# Poissons Ratio (y) = 0.61611 0.74618
# Poissons Ratio (z) = 0.15018 0.15018
#
# Static dielectric constant tensor:
#      x y z
#    x 1.587350 0.000000 0.000000 
#    y 0.000000 1.587350 0.000000 
#    z 0.000000 0.000000 1.577760 
# 
# From -- ./inp_files/5093.got.cif
#   From: 2010.05.17/outbox.cif.g08.bks.cpg/sg115_3_cif.got.tgz:5093.got - 2010.05.20 11:07:42.
