data_PCOD9556815
_publ_section_title
;
Structure prediction by ZEFSAII (Michael W. Deem and Ramdas Pophale) SiO2 
 PCOD9556815
Probable space group: P -4 M 2
;
_chemical_formula_sum "Si O2"
_cell_formula_units_Z 44
_cell_length_a 7.962853
_cell_length_b 7.962853
_cell_length_c 33.674964
_cell_angle_alpha 90.000000
_cell_angle_beta 90.000000
_cell_angle_gamma 90.000000
_cell_volume 2135.229382
_symmetry_space_group_name_H-M "P -4 M 2"
_symmetry_group_IT_number 115
_symmetry_cell_setting 'tetragonal'
loop_
_space_group_symop_operation_xyz
x,y,z
y,-x,-z
-x,-y,z
-y,x,-z
y,x,-z
-y,-x,-z
-x,y,z
x,-y,z
loop_
_atom_site_type_symbol
_atom_site_label
_atom_site_fract_x
_atom_site_fract_y
_atom_site_fract_z
Si Si1 0.300572 0.500000 0.730785
Si Si2 0.199088 0.199088 0.500000
Si Si3 0.191307 0.698641 0.412913
Si Si4 0.805173 0.200975 0.125831
Si Si5 0.707084 0.500000 0.640132
Si Si6 0.698025 0.812072 0.957324
Si Si7 0.805367 0.797445 0.213142
O O1 0.500000 0.500000 0.728309
O O2 0.235871 0.500000 0.685663
O O3 0.250539 0.668131 0.754455
O O4 0.277925 0.251858 0.541679
O O5 0.000000 0.229198 0.503537
O O6 0.178316 0.500000 0.405652
O O7 0.332328 0.764545 0.382971
O O8 0.000000 0.769013 0.409457
O O9 0.724477 0.246097 0.083614
O O10 0.744884 0.260400 0.169044
O O11 0.000000 0.259784 0.123945
O O12 0.805501 0.000000 0.127334
O O13 0.500000 0.500000 0.639241
O O14 0.500000 0.824981 0.954022
O O15 0.774816 0.000000 0.957957
O O16 0.735359 0.735359 0.000000
O O17 0.000000 0.740501 0.219601
O O18 0.811814 0.000000 0.212313
#
# Coordination Sequence:
#
# PCOD9556815 Si02
#       7
#     4   4   8   8   4   8   8
#     4  11  23  37  57  87 121 153 193 241 295 355
#     4   9  18  32  49  74 108 138 171 224 282 333
#     4   9  18  33  53  76 104 142 187 232 278 330
#     4   8  15  31  56  80 100 130 175 225 273 324
#     4   9  20  37  53  77 111 149 191 231 275 343
#     4  10  20  33  50  74 104 138 176 216 262 321
#     4   9  19  38  62  86 113 146 189 242 297 350
#
# _framework density 20.606687999999998
#
# number of rings (size 3 to 8) (size 9 to 14) (size 15 to 20)
#    0.000    2.818    0.000    1.909    1.273    2.909 
#    1.636    5.455    0.000    2.182    0.000    0.000 
#    0.000    0.000    0.000    0.000    0.000    0.000 
#
# Total GULP energy -245113.684415 kJ/mol
# GULP energy per Si atom -5570.765555 kJ/mol
# Density = 2.055979 g / cm^3
# Si number density = 20.606688 Si / 1000 Ang^3
#
#
#
# Elastic Constant Matrix: (Units=GPa)
#
#
# Indices 1 2 3 4 5 6 
#
# 1 53.8332 19.3777 58.2226 0.0000 0.0000 0.0000
# 2 19.3777 53.8332 58.2226 0.0000 0.0000 0.0000
# 3 58.2226 58.2226 217.3589 0.0000 0.0000 0.0000
# 4 0.0000 0.0000 0.0000 20.2467 0.0000 0.0000
# 5 0.0000 0.0000 0.0000 0.0000 20.2467 0.0000
# 6 0.0000 0.0000 0.0000 0.0000 0.0000 12.7748
#
#
#
# Elastic Compliance Matrix: (Units=1/GPa)
#
#
# Indices 1 2 3 4 5 6 
#
# 1 0.026411 -0.002612 -0.006375 0.000000 0.000000 0.000000
# 2 -0.002612 0.026411 -0.006375 0.000000 0.000000 0.000000
# 3 -0.006375 -0.006375 0.008016 0.000000 0.000000 0.000000
# 4 0.000000 0.000000 0.000000 0.049391 0.000000 0.000000
# 5 0.000000 0.000000 0.000000 0.000000 0.049391 0.000000
# 6 0.000000 0.000000 0.000000 0.000000 0.000000 0.078279
#
#
# Mechanical properties :
#
#
# Convention : Reuss Voigt Hill
#
# Bulk Modulus (GPa) = 33.20739 66.29677 49.75208
# Shear Modulus (GPa) = 17.94307 23.26715 20.60511
#
# Velocity S-wave (km/s) = 2.95403 3.36386 3.16559
# Velocity P-wave (km/s) = 5.27114 6.87966 6.12840
#
# Compressibility (1/GPa) = 0.03011378
#
# Stress axis : x y z
#
# Youngs Moduli (GPa) = 37.86340 37.86340 124.75344
#
# Poissons Ratio (x) = 0.09891 0.79527
# Poissons Ratio (y) = 0.09891 0.79527
# Poissons Ratio (z) = 0.24137 0.24137
#
# Static dielectric constant tensor:
#      x y z
#    x 1.751390 0.000000 0.000000 
#    y 0.000000 1.751390 0.000000 
#    z 0.000000 0.000000 1.771910 
# 
# From -- ./inp_files/5862.got.cif
#   From: 2010.05.17/outbox.cif.g08.bks.cpg/sg115_3_cif.got.tgz:5862.got - 2010.05.20 11:07:42.
