data_PCOD9557200
_publ_section_title
;
Structure prediction by ZEFSAII (Michael W. Deem and Ramdas Pophale) SiO2 
 PCOD9557200
Probable space group: P -4 M 2
;
_chemical_formula_sum "Si O2"
_cell_formula_units_Z 44
_cell_length_a 9.349591
_cell_length_b 9.349591
_cell_length_c 29.206304
_cell_angle_alpha 90.000000
_cell_angle_beta 90.000000
_cell_angle_gamma 90.000000
_cell_volume 2553.064738
_symmetry_space_group_name_H-M "P -4 M 2"
_symmetry_group_IT_number 115
_symmetry_cell_setting 'tetragonal'
loop_
_space_group_symop_operation_xyz
x,y,z
y,-x,-z
-x,-y,z
-y,x,-z
y,x,-z
-y,-x,-z
-x,y,z
x,-y,z
loop_
_atom_site_type_symbol
_atom_site_label
_atom_site_fract_x
_atom_site_fract_y
_atom_site_fract_z
Si Si1 0.671642 0.667528 0.867022
Si Si2 0.832028 0.828550 0.052642
Si Si3 0.829094 0.671081 0.692503
Si Si4 0.170137 0.170137 0.500000
Si Si5 0.832212 0.328171 0.225961
Si Si6 0.334597 0.825996 0.410036
O O1 0.500000 0.680548 0.872206
O O2 0.706496 0.500000 0.862447
O O3 0.748220 0.736644 0.910548
O O4 0.712971 0.752419 0.821014
O O5 0.000000 0.793070 0.059349
O O6 0.818146 0.000000 0.057632
O O7 0.793576 0.793576 0.000000
O O8 0.804839 0.500000 0.696932
O O9 0.747503 0.756971 0.731374
O O10 0.782806 0.713877 0.640892
O O11 0.000000 0.694065 0.696428
O O12 0.223071 0.244349 0.546463
O O13 0.000000 0.193837 0.496309
O O14 0.819453 0.500000 0.230727
O O15 0.000000 0.292210 0.223475
O O16 0.500000 0.784244 0.415510
O O17 0.330219 0.000000 0.409814
#
# Coordination Sequence:
#
# PCOD9557200 Si02
#       6
#     8   8   8   4   8   8
#     4  10  21  36  54  76 102 134 171 208 247 295
#     4   9  19  36  56  78 105 136 169 206 249 295
#     4   9  18  33  53  75  98 128 167 207 248 297
#     4   9  16  26  44  69  92 118 156 197 234 278
#     4  10  21  36  53  74 101 133 168 206 251 301
#     4   8  15  29  47  67  94 126 157 193 240 290
#
# _framework density 17.234188
#
# number of rings (size 3 to 8) (size 9 to 14) (size 15 to 20)
#    0.000    2.818    0.000    2.727    0.000    5.091 
#    0.000    5.455    0.000    3.545    0.000    0.000 
#    0.000    0.000    0.000    0.000    0.000    0.000 
#
# Total GULP energy -245316.438724 kJ/mol
# GULP energy per Si atom -5575.373607 kJ/mol
# Density = 1.719496 g / cm^3
# Si number density = 17.234188 Si / 1000 Ang^3
#
#
#
# Elastic Constant Matrix: (Units=GPa)
#
#
# Indices 1 2 3 4 5 6 
#
# 1 55.8268 49.0750 85.0159 0.0000 0.0000 0.0000
# 2 49.0750 55.8268 85.0159 0.0000 0.0000 0.0000
# 3 85.0159 85.0159 202.9912 0.0000 0.0000 0.0000
# 4 0.0000 0.0000 0.0000 50.2500 0.0000 0.0000
# 5 0.0000 0.0000 0.0000 0.0000 50.2500 0.0000
# 6 0.0000 0.0000 0.0000 0.0000 0.0000 25.9206
#
#
#
# Elastic Compliance Matrix: (Units=1/GPa)
#
#
# Indices 1 2 3 4 5 6 
#
# 1 0.088896 -0.059213 -0.012432 0.000000 0.000000 0.000000
# 2 -0.059213 0.088896 -0.012432 0.000000 0.000000 0.000000
# 3 -0.012432 -0.012432 0.015339 0.000000 0.000000 0.000000
# 4 0.000000 0.000000 0.000000 0.019900 0.000000 0.000000
# 5 0.000000 0.000000 0.000000 0.000000 0.019900 0.000000
# 6 0.000000 0.000000 0.000000 0.000000 0.000000 0.038579
#
#
# Mechanical properties :
#
#
# Convention : Reuss Voigt Hill
#
# Bulk Modulus (GPa) = 40.03462 83.65095 61.84279
# Shear Modulus (GPa) = 11.16095 31.65333 21.40714
#
# Velocity S-wave (km/s) = 2.54757 4.29028 3.52821
# Velocity P-wave (km/s) = 5.65099 8.55483 7.24979
#
# Compressibility (1/GPa) = 0.02497838
#
# Stress axis : x y z
#
# Youngs Moduli (GPa) = 11.24911 11.24911 65.19171
#
# Poissons Ratio (x) = 0.66610 0.81043
# Poissons Ratio (y) = 0.66610 0.81043
# Poissons Ratio (z) = 0.13984 0.13984
#
# Static dielectric constant tensor:
#      x y z
#    x 1.571760 0.000000 0.000000 
#    y 0.000000 1.571760 0.000000 
#    z 0.000000 0.000000 1.573420 
# 
# From -- ./inp_files/5799.got.cif
#   From: 2010.05.17/outbox.cif.g08.bks.cpg/sg115_3_cif.got.tgz:5799.got - 2010.05.20 11:07:42.
