data_PCOD9557368
_publ_section_title
;
Structure prediction by ZEFSAII (Michael W. Deem and Ramdas Pophale) SiO2 
 PCOD9557368
Probable space group: P -4 M 2
;
_chemical_formula_sum "Si O2"
_cell_formula_units_Z 37
_cell_length_a 8.046227
_cell_length_b 8.046227
_cell_length_c 27.346093
_cell_angle_alpha 90.000000
_cell_angle_beta 90.000000
_cell_angle_gamma 90.000000
_cell_volume 1770.434434
_symmetry_space_group_name_H-M "P -4 M 2"
_symmetry_group_IT_number 115
_symmetry_cell_setting 'tetragonal'
loop_
_space_group_symop_operation_xyz
x,y,z
y,-x,-z
-x,-y,z
-y,x,-z
y,x,-z
-y,-x,-z
-x,y,z
x,-y,z
loop_
_atom_site_type_symbol
_atom_site_label
_atom_site_fract_x
_atom_site_fract_y
_atom_site_fract_z
Si Si1 0.176662 0.803803 0.138387
Si Si2 0.801327 0.201836 0.447450
Si Si3 0.500000 0.500000 0.000000
Si Si4 0.500000 0.794929 0.077232
Si Si5 0.799605 0.804232 0.341712
Si Si6 0.314373 0.695343 0.236752
O O1 0.338195 0.747371 0.109263
O O2 0.199452 0.777634 0.196287
O O3 0.000000 0.728785 0.122869
O O4 0.170496 0.000000 0.129612
O O5 0.736118 0.263883 0.500000
O O6 0.737419 0.260554 0.394641
O O7 0.000000 0.234200 0.447768
O O8 0.783561 0.000000 0.447126
O O9 0.500000 0.671628 0.031203
O O10 0.500000 0.000000 0.068751
O O11 0.735062 0.720603 0.292863
O O12 0.000000 0.790923 0.342061
O O13 0.758049 0.000000 0.338661
O O14 0.500000 0.763107 0.229863
O O15 0.313666 0.500000 0.226414
#
# Coordination Sequence:
#
# PCOD9557368 Si02
#       6
#     8   8   1   4   8   8
#     4  10  21  39  65  93 123 162 205 250 305 363
#     4   7  10  19  38  64  92 122 161 216 280 344
#     4  12  28  44  76 104 140 180 228 256 298 376
#     4  10  24  46  68 100 140 174 214 267 309 348
#     4   9  17  29  47  73 102 132 173 226 288 357
#     4  11  23  35  50  75 111 150 193 240 293 359
#
# _framework density 20.898828000000002
#
# number of rings (size 3 to 8) (size 9 to 14) (size 15 to 20)
#    0.000    2.595    1.081    3.243    1.514    5.622 
#    0.000    0.000    0.000    1.297    0.000    7.568 
#    0.000    0.000    0.000    0.000    0.000    0.000 
#
# Total GULP energy -206197.447470 kJ/mol
# GULP energy per Si atom -5572.903986 kJ/mol
# Density = 2.085126 g / cm^3
# Si number density = 20.898828 Si / 1000 Ang^3
#
#
#
# Elastic Constant Matrix: (Units=GPa)
#
#
# Indices 1 2 3 4 5 6 
#
# 1 52.2708 25.5888 34.5980 0.0000 0.0000 0.0000
# 2 25.5888 52.2706 34.5980 0.0000 0.0000 0.0000
# 3 34.5980 34.5980 125.1923 0.0000 0.0000 0.0000
# 4 0.0000 0.0000 0.0000 31.5203 0.0000 0.0000
# 5 0.0000 0.0000 0.0000 0.0000 31.5203 0.0000
# 6 0.0000 0.0000 0.0000 0.0000 0.0000 -0.7222
#
#
#
# Elastic Compliance Matrix: (Units=1/GPa)
#
#
# Indices 1 2 3 4 5 6 
#
# 1 0.027252 -0.010227 -0.004705 0.000000 0.000000 0.000000
# 2 -0.010227 0.027252 -0.004705 0.000000 0.000000 0.000000
# 3 -0.004705 -0.004705 0.010588 0.000000 0.000000 0.000000
# 4 0.000000 0.000000 0.000000 0.031726 0.000000 0.000000
# 5 0.000000 0.000000 0.000000 0.000000 0.031726 0.000000
# 6 0.000000 0.000000 0.000000 0.000000 0.000000 -1.384573
#
#
# Mechanical properties :
#
#
# Convention : Reuss Voigt Hill
#
# Bulk Modulus (GPa) = 38.73209 46.58927 42.66068
# Shear Modulus (GPa) = -4.13856 21.46027 8.66086
#
# Velocity S-wave (km/s) = -1.40875 3.20795 2.03793
# Velocity P-wave (km/s) = 3.99090 6.00520 5.09851
#
# Compressibility (1/GPa) = 0.02581838
#
# Stress axis : x y z
#
# Youngs Moduli (GPa) = 36.69474 36.69466 94.44406
#
# Poissons Ratio (x) = 0.37527 0.44436
# Poissons Ratio (y) = 0.37527 0.44436
# Poissons Ratio (z) = 0.17265 0.17265
#
# Static dielectric constant tensor:
#      x y z
#    x 1.760900 0.000000 0.000000 
#    y 0.000000 1.760900 0.000000 
#    z 0.000000 0.000000 1.762020 
# 
# From -- ./inp_files/5184.got.cif
#   From: 2010.05.17/outbox.cif.g08.bks.cpg/sg115_3_cif.got.tgz:5184.got - 2010.05.20 11:07:42.
