data_PCOD9557913
_publ_section_title
;
Structure prediction by ZEFSAII (Michael W. Deem and Ramdas Pophale) SiO2 
 PCOD9557913
Probable space group: P -4 C 2
;
_chemical_formula_sum "Si O2"
_cell_formula_units_Z 24
_cell_length_a 10.946198
_cell_length_b 10.946198
_cell_length_c 9.147240
_cell_angle_alpha 90.000000
_cell_angle_beta 90.000000
_cell_angle_gamma 90.000000
_cell_volume 1096.015442
_symmetry_space_group_name_H-M "P -4 C 2"
_symmetry_group_IT_number 116
_symmetry_cell_setting 'tetragonal'
loop_
_space_group_symop_operation_xyz
x,y,z
y,-x,-z
-x,-y,z
-y,x,-z
y,x,1/2-z
-y,-x,1/2-z
-x,y,1/2+z
x,-y,1/2+z
loop_
_atom_site_type_symbol
_atom_site_label
_atom_site_fract_x
_atom_site_fract_y
_atom_site_fract_z
Si Si1 0.500000 0.500000 0.000000
Si Si2 0.258767 0.407015 0.159693
Si Si3 0.882004 0.587783 0.862198
Si Si4 0.000000 0.000000 0.500000
Si Si5 0.860929 0.860929 0.750000
O O1 0.447494 0.612260 0.907686
O O2 0.283413 0.283413 0.250000
O O3 0.215671 0.510971 0.269848
O O4 0.164726 0.393561 0.027221
O O5 0.889560 0.719397 0.785455
O O6 0.000000 0.500000 0.862569
O O7 0.063628 0.096434 0.608135
#
# Coordination Sequence:
#
# PCOD9557913 Si02
#       5
#     2   8   8   2   4
#     4  12  22  44  70 112 146 196 242 312 426 460
#     4  12  26  44  75 111 157 198 252 325 409 484
#     4  12  29  49  77 118 155 211 270 332 407 481
#     4  10  28  54  80 106 152 226 264 334 396 458
#     4  11  28  54  79 112 160 204 285 336 396 489
#
# _framework density 21.897500000000001
#
# number of rings (size 3 to 8) (size 9 to 14) (size 15 to 20)
#    0.000    0.333    3.333    3.500    9.333    0.000 
#    0.000    0.000    0.000    0.000    0.000    0.000 
#    0.000    0.000    0.000    0.000    0.000    0.000 
#
# Total GULP energy -134406.261415 kJ/mol
# GULP energy per Si atom -5600.260892 kJ/mol
# Density = 2.184766 g / cm^3
# Si number density = 21.897500 Si / 1000 Ang^3
#
#
#
# Elastic Constant Matrix: (Units=GPa)
#
#
# Indices 1 2 3 4 5 6 
#
# 1 117.1313 91.2690 73.0090 0.0000 0.0000 0.0000
# 2 91.2690 117.1313 73.0090 0.0000 0.0000 0.0000
# 3 73.0090 73.0090 163.3461 0.0000 0.0000 0.0000
# 4 0.0000 0.0000 0.0000 30.7841 0.0000 0.0000
# 5 0.0000 0.0000 0.0000 0.0000 30.7841 0.0000
# 6 0.0000 0.0000 0.0000 0.0000 0.0000 38.6553
#
#
#
# Elastic Compliance Matrix: (Units=1/GPa)
#
#
# Indices 1 2 3 4 5 6 
#
# 1 0.022826 -0.015840 -0.003123 0.000000 0.000000 0.000000
# 2 -0.015840 0.022826 -0.003123 0.000000 0.000000 0.000000
# 3 -0.003123 -0.003123 0.008913 0.000000 0.000000 0.000000
# 4 0.000000 0.000000 0.000000 0.032484 0.000000 0.000000
# 5 0.000000 0.000000 0.000000 0.000000 0.032484 0.000000
# 6 0.000000 0.000000 0.000000 0.000000 0.000000 0.025870
#
#
# Mechanical properties :
#
#
# Convention : Reuss Voigt Hill
#
# Bulk Modulus (GPa) = 96.19471 96.90918 96.55194
# Shear Modulus (GPa) = 25.90137 30.73280 28.31708
#
# Velocity S-wave (km/s) = 3.44298 3.75037 3.59996
# Velocity P-wave (km/s) = 7.73501 7.94391 7.84016
#
# Compressibility (1/GPa) = 0.01039558
#
# Stress axis : x y z
#
# Youngs Moduli (GPa) = 43.80905 43.80905 112.19158
#
# Poissons Ratio (x) = 0.69393 0.35033
# Poissons Ratio (y) = 0.69393 0.35033
# Poissons Ratio (z) = 0.13680 0.13680
#
# Static dielectric constant tensor:
#      x y z
#    x 1.796420 0.000000 0.000000 
#    y 0.000000 1.796420 0.000000 
#    z 0.000000 0.000000 1.789120 
# 
# From -- ./inp_files/538.got.cif
#   From: 2010.05.17/outbox.cif.g08.bks.cpg/sg116_1_cif.got.tgz:538.got - 2010.05.20 11:11:43.
