data_PCOD9557868
_publ_section_title
;
Structure prediction by ZEFSAII (Michael W. Deem and Ramdas Pophale) SiO2 
 PCOD9557868
Probable space group: P -4 C 2
;
_chemical_formula_sum "Si O2"
_cell_formula_units_Z 48
_cell_length_a 9.479617
_cell_length_b 9.479617
_cell_length_c 26.740892
_cell_angle_alpha 90.000000
_cell_angle_beta 90.000000
_cell_angle_gamma 90.000000
_cell_volume 2403.020481
_symmetry_space_group_name_H-M "P -4 C 2"
_symmetry_group_IT_number 116
_symmetry_cell_setting 'tetragonal'
loop_
_space_group_symop_operation_xyz
x,y,z
y,-x,-z
-x,-y,z
-y,x,-z
y,x,1/2-z
-y,-x,1/2-z
-x,y,1/2+z
x,-y,1/2+z
loop_
_atom_site_type_symbol
_atom_site_label
_atom_site_fract_x
_atom_site_fract_y
_atom_site_fract_z
Si Si1 0.354369 0.936311 0.030385
Si Si2 0.460527 0.162773 0.628705
Si Si3 0.261552 0.683564 0.192695
Si Si4 0.655286 0.033899 0.855273
Si Si5 0.130507 0.109954 0.442697
Si Si6 0.335711 0.372831 0.190089
O O1 0.410674 0.822294 0.070841
O O2 0.500000 0.000000 0.008701
O O3 0.264253 0.057944 0.059671
O O4 0.241216 0.887456 0.989150
O O5 0.322066 0.190114 0.660784
O O6 0.574247 0.267634 0.654644
O O7 0.500000 0.000000 0.633922
O O8 0.292325 0.707676 0.250000
O O9 0.343037 0.539566 0.177280
O O10 0.098502 0.675166 0.180619
O O11 0.774745 0.057775 0.896634
O O12 0.656836 0.173062 0.821872
O O13 0.500000 0.000000 0.878491
O O14 0.000000 0.000000 0.447466
O O15 0.361030 0.361030 0.250000
#
# Coordination Sequence:
#
# PCOD9557868 Si02
#       6
#     8   8   8   8   8   8
#     4  11  23  41  70  97 126 172 222 274 338 403
#     4  11  24  40  67  95 131 173 224 276 325 403
#     4  11  23  39  66  97 131 176 222 269 336 400
#     4  10  24  41  63  99 133 169 220 281 330 396
#     4  12  22  45  70  95 132 177 223 276 344 408
#     4  11  23  42  66  94 134 179 220 268 338 405
#
# _framework density 19.974861000000001
#
# number of rings (size 3 to 8) (size 9 to 14) (size 15 to 20)
#    0.000    1.000    3.333    4.000    2.333    0.000 
#    0.000    0.000    0.000    0.000    0.000    0.000 
#    0.000    0.000    0.000    0.000    0.000    0.000 
#
# Total GULP energy -267564.805699 kJ/mol
# GULP energy per Si atom -5574.266785 kJ/mol
# Density = 1.992940 g / cm^3
# Si number density = 19.974861 Si / 1000 Ang^3
#
#
#
# Elastic Constant Matrix: (Units=GPa)
#
#
# Indices 1 2 3 4 5 6 
#
# 1 116.5964 54.3359 37.0412 0.0000 0.0000 0.0000
# 2 54.3359 116.5969 37.0417 0.0000 0.0000 0.0000
# 3 37.0412 37.0417 82.3799 0.0000 0.0000 0.0000
# 4 0.0000 0.0000 0.0000 24.8124 0.0000 0.0000
# 5 0.0000 0.0000 0.0000 0.0000 24.8123 0.0000
# 6 0.0000 0.0000 0.0000 0.0000 0.0000 34.7599
#
#
#
# Elastic Compliance Matrix: (Units=1/GPa)
#
#
# Indices 1 2 3 4 5 6 
#
# 1 0.011664 -0.004398 -0.003267 0.000000 0.000000 0.000000
# 2 -0.004398 0.011664 -0.003267 0.000000 0.000000 0.000000
# 3 -0.003267 -0.003267 0.015077 0.000000 0.000000 0.000000
# 4 0.000000 0.000000 0.000000 0.040302 0.000000 0.000000
# 5 0.000000 0.000000 0.000000 0.000000 0.040303 0.000000
# 6 0.000000 0.000000 0.000000 0.000000 0.000000 0.028769
#
#
# Mechanical properties :
#
#
# Convention : Reuss Voigt Hill
#
# Bulk Modulus (GPa) = 60.45684 63.60117 62.02901
# Shear Modulus (GPa) = 28.54595 29.35390 28.94993
#
# Velocity S-wave (km/s) = 3.78444 3.83762 3.81112
# Velocity P-wave (km/s) = 7.03051 7.17957 7.10543
#
# Compressibility (1/GPa) = 0.01654073
#
# Stress axis : x y z
#
# Youngs Moduli (GPa) = 85.73476 85.73476 66.32596
#
# Poissons Ratio (x) = 0.37703 0.21670
# Poissons Ratio (y) = 0.37703 0.21671
# Poissons Ratio (z) = 0.28011 0.28012
#
# Static dielectric constant tensor:
#      x y z
#    x 1.731790 0.000000 0.000000 
#    y 0.000000 1.731790 0.000000 
#    z 0.000000 0.000000 1.754990 
# 
# From -- ./inp_files/5234.got.cif
#   From: 2010.05.17/outbox.cif.g08.bks.cpg/sg116_3_cif.got.tgz:5234.got - 2010.05.20 11:11:43.
