data_PCOD9557629
_publ_section_title
;
Structure prediction by ZEFSAII (Michael W. Deem and Ramdas Pophale) SiO2 
 PCOD9557629
Probable space group: P -4 C 2
;
_chemical_formula_sum "Si O2"
_cell_formula_units_Z 40
_cell_length_a 13.018714
_cell_length_b 13.018714
_cell_length_c 8.585952
_cell_angle_alpha 90.000000
_cell_angle_beta 90.000000
_cell_angle_gamma 90.000000
_cell_volume 1455.206510
_symmetry_space_group_name_H-M "P -4 C 2"
_symmetry_group_IT_number 116
_symmetry_cell_setting 'tetragonal'
loop_
_space_group_symop_operation_xyz
x,y,z
y,-x,-z
-x,-y,z
-y,x,-z
y,x,1/2-z
-y,-x,1/2-z
-x,y,1/2+z
x,-y,1/2+z
loop_
_atom_site_type_symbol
_atom_site_label
_atom_site_fract_x
_atom_site_fract_y
_atom_site_fract_z
Si Si1 0.699080 0.460032 0.321771
Si Si2 0.693771 0.696569 0.074391
Si Si3 0.050994 0.834890 0.514968
Si Si4 0.034733 0.320494 0.280462
Si Si5 0.397877 0.136995 0.926070
O O1 0.601009 0.398992 0.250000
O O2 0.673376 0.571761 0.391215
O O3 0.737188 0.394773 0.470714
O O4 0.786020 0.459606 0.188247
O O5 0.722586 0.722586 0.250000
O O6 0.702475 0.791469 0.956063
O O7 0.042261 0.746230 0.386698
O O8 0.118937 0.934349 0.475103
O O9 0.079520 0.770222 0.669157
O O10 0.099587 0.397730 0.391682
O O11 0.967255 0.386643 0.164454
#
# Coordination Sequence:
#
# PCOD9557629 Si02
#       5
#     8   8   8   8   8
#     4  10  23  44  69 103 140 173 217 277 348 429
#     4  11  23  41  71 104 139 176 216 278 350 420
#     4  10  20  34  55  87 123 163 219 287 356 413
#     4  10  22  39  61  88 126 182 231 281 344 395
#     4  10  24  43  61  92 130 172 230 272 321 397
#
# _framework density 27.487508999999999
#
# number of rings (size 3 to 8) (size 9 to 14) (size 15 to 20)
#    0.000    1.800    0.000    3.600    0.000   20.000 
#    0.000    3.000    0.000    0.000    0.000    0.000 
#    0.000    0.000    0.000    0.000    0.000    0.000 
#
# Total GULP energy -222943.562300 kJ/mol
# GULP energy per Si atom -5573.589058 kJ/mol
# Density = 2.742495 g / cm^3
# Si number density = 27.487509 Si / 1000 Ang^3
#
#
#
# Elastic Constant Matrix: (Units=GPa)
#
#
# Indices 1 2 3 4 5 6 
#
# 1 87.5679 40.0532 54.3030 0.0000 0.0000 0.0000
# 2 40.0532 87.5675 54.3032 0.0000 0.0000 0.0000
# 3 54.3030 54.3032 208.1659 0.0000 0.0000 0.0000
# 4 0.0000 0.0000 0.0000 107.1492 0.0000 0.0000
# 5 0.0000 0.0000 0.0000 0.0000 107.1443 0.0000
# 6 0.0000 0.0000 0.0000 0.0000 0.0000 -26.1136
#
#
#
# Elastic Compliance Matrix: (Units=1/GPa)
#
#
# Indices 1 2 3 4 5 6 
#
# 1 0.015559 -0.005487 -0.002627 0.000000 0.000000 0.000000
# 2 -0.005487 0.015559 -0.002627 0.000000 0.000000 0.000000
# 3 -0.002627 -0.002627 0.006175 0.000000 0.000000 0.000000
# 4 0.000000 0.000000 0.000000 0.009333 0.000000 0.000000
# 5 0.000000 0.000000 0.000000 0.000000 0.009333 0.000000
# 6 0.000000 0.000000 0.000000 0.000000 0.000000 -0.038294
#
#
# Mechanical properties :
#
#
# Convention : Reuss Voigt Hill
#
# Bulk Modulus (GPa) = 63.25719 75.62445 69.44082
# Shear Modulus (GPa) = 112.56819 53.27879 82.92349
#
# Velocity S-wave (km/s) = 6.40636 4.40738 5.49847
# Velocity P-wave (km/s) = 8.81957 7.31246 8.10114
#
# Compressibility (1/GPa) = 0.01580848
#
# Stress axis : x y z
#
# Youngs Moduli (GPa) = 64.27217 64.27171 161.95375
#
# Poissons Ratio (x) = 0.35268 0.42550
# Poissons Ratio (y) = 0.35268 0.42551
# Poissons Ratio (z) = 0.16886 0.16886
#
# Static dielectric constant tensor:
#      x y z
#    x 2.078350 0.000000 0.000000 
#    y 0.000000 2.078330 0.000000 
#    z 0.000000 0.000000 2.255430 
# 
# From -- ./inp_files/799.got.cif
#   From: 2010.05.17/outbox.cif.g08.bks.cpg/sg116_1_cif.got.tgz:799.got - 2010.05.20 11:11:43.
