data_PCOD9557297
_publ_section_title
;
Structure prediction by ZEFSAII (Michael W. Deem and Ramdas Pophale) SiO2 
 PCOD9557297
Probable space group: P -4 M 2
;
_chemical_formula_sum "Si O2"
_cell_formula_units_Z 48
_cell_length_a 9.327635
_cell_length_b 9.327635
_cell_length_c 31.287757
_cell_angle_alpha 90.000000
_cell_angle_beta 90.000000
_cell_angle_gamma 90.000000
_cell_volume 2722.184248
_symmetry_space_group_name_H-M "P -4 M 2"
_symmetry_group_IT_number 115
_symmetry_cell_setting 'tetragonal'
loop_
_space_group_symop_operation_xyz
x,y,z
y,-x,-z
-x,-y,z
-y,x,-z
y,x,-z
-y,-x,-z
-x,y,z
x,-y,z
loop_
_atom_site_type_symbol
_atom_site_label
_atom_site_fract_x
_atom_site_fract_y
_atom_site_fract_z
Si Si1 0.829788 0.170213 0.000000
Si Si2 0.328609 0.831838 0.086400
Si Si3 0.830153 0.170888 0.749629
Si Si4 0.169632 0.830369 0.500000
Si Si5 0.671689 0.330304 0.173338
Si Si6 0.669723 0.669726 0.575030
Si Si7 0.330060 0.670349 0.674447
O O1 0.784704 0.251634 0.957084
O O2 0.000000 0.193895 0.005553
O O3 0.500000 0.822427 0.080735
O O4 0.289469 0.738551 0.127627
O O5 0.292770 0.000000 0.093983
O O6 0.749953 0.244440 0.789296
O O7 0.763528 0.238275 0.706803
O O8 0.000000 0.199833 0.751933
O O9 0.808612 0.000000 0.750330
O O10 0.240171 0.759924 0.458310
O O11 0.000000 0.804464 0.499980
O O12 0.500000 0.310135 0.179345
O O13 0.700377 0.500000 0.174072
O O14 0.500000 0.694578 0.568264
O O15 0.695196 0.500000 0.568481
O O16 0.701331 0.702168 0.624710
O O17 0.500000 0.696301 0.681604
O O18 0.306168 0.500000 0.681218
#
# Coordination Sequence:
#
# PCOD9557297 Si02
#       7
#     4   8   8   4   8   8   8
#     4   9  18  32  50  73 102 136 172 211 256 307
#     4   9  18  33  52  74 102 136 172 211 259 314
#     4  11  24  38  53  78 111 144 177 215 261 314
#     4  11  24  37  50  76 114 149 180 219 266 314
#     4  10  21  37  57  80 105 136 177 223 268 314
#     4   9  19  37  60  83 106 136 178 224 266 313
#     4   9  19  37  60  84 108 136 174 220 267 315
#
# _framework density 17.632898999999998
#
# number of rings (size 3 to 8) (size 9 to 14) (size 15 to 20)
#    0.000    2.333    0.000    3.000    0.000    9.333 
#    0.000    6.667    0.000    0.000    0.000    0.000 
#    0.000    0.000    0.000    0.000    0.000    0.000 
#
# Total GULP energy -267998.662754 kJ/mol
# GULP energy per Si atom -5583.305474 kJ/mol
# Density = 1.759277 g / cm^3
# Si number density = 17.632899 Si / 1000 Ang^3
#
#
#
# Elastic Constant Matrix: (Units=GPa)
#
#
# Indices 1 2 3 4 5 6 
#
# 1 91.0391 85.8878 110.1795 0.0000 0.0000 0.0000
# 2 85.8878 91.0393 110.1797 0.0000 0.0000 0.0000
# 3 110.1795 110.1797 177.5179 0.0000 0.0000 0.0000
# 4 0.0000 0.0000 0.0000 85.1455 0.0000 0.0000
# 5 0.0000 0.0000 0.0000 0.0000 85.1427 0.0000
# 6 0.0000 0.0000 0.0000 0.0000 0.0000 29.3749
#
#
#
# Elastic Compliance Matrix: (Units=1/GPa)
#
#
# Indices 1 2 3 4 5 6 
#
# 1 0.109513 -0.084611 -0.015456 0.000000 0.000000 0.000000
# 2 -0.084611 0.109513 -0.015456 0.000000 0.000000 0.000000
# 3 -0.015456 -0.015456 0.024819 0.000000 0.000000 0.000000
# 4 0.000000 0.000000 0.000000 0.011745 0.000000 0.000000
# 5 0.000000 0.000000 0.000000 0.000000 0.011745 0.000000
# 6 0.000000 0.000000 0.000000 0.000000 0.000000 0.034043
#
#
# Mechanical properties :
#
#
# Convention : Reuss Voigt Hill
#
# Bulk Modulus (GPa) = 78.12675 108.01004 93.06839
# Shear Modulus (GPa) = 9.31637 43.48923 26.40280
#
# Velocity S-wave (km/s) = 2.30108 4.97164 3.87377
# Velocity P-wave (km/s) = 7.17381 9.71309 8.53837
#
# Compressibility (1/GPa) = 0.01279971
#
# Stress axis : x y z
#
# Youngs Moduli (GPa) = 9.13133 9.13133 40.29143
#
# Poissons Ratio (x) = 0.77261 0.62274
# Poissons Ratio (y) = 0.77261 0.62274
# Poissons Ratio (z) = 0.14113 0.14113
#
# Static dielectric constant tensor:
#      x y z
#    x 1.582230 0.000000 0.000000 
#    y 0.000000 1.582230 0.000000 
#    z 0.000000 0.000000 1.578310 
# 
# From -- ./inp_files/6225.got.cif
#   From: 2010.05.17/outbox.cif.g08.bks.cpg/sg115_4_cif.got.tgz:6225.got - 2010.05.20 11:07:42.
