data_PCOD9557373
_publ_section_title
;
Structure prediction by ZEFSAII (Michael W. Deem and Ramdas Pophale) SiO2 
 PCOD9557373
Probable space group: P -4 M 2
;
_chemical_formula_sum "Si O2"
_cell_formula_units_Z 58
_cell_length_a 17.116574
_cell_length_b 17.116574
_cell_length_c 9.001101
_cell_angle_alpha 90.000000
_cell_angle_beta 90.000000
_cell_angle_gamma 90.000000
_cell_volume 2637.116517
_symmetry_space_group_name_H-M "P -4 M 2"
_symmetry_group_IT_number 115
_symmetry_cell_setting 'tetragonal'
loop_
_space_group_symop_operation_xyz
x,y,z
y,-x,-z
-x,-y,z
-y,x,-z
y,x,-z
-y,-x,-z
-x,y,z
x,-y,z
loop_
_atom_site_type_symbol
_atom_site_label
_atom_site_fract_x
_atom_site_fract_y
_atom_site_fract_z
Si Si1 0.589658 0.259955 0.210327
Si Si2 0.914547 0.158301 0.767887
Si Si3 0.915937 0.227015 0.098724
Si Si4 0.609536 0.858350 0.961567
Si Si5 0.000000 0.500000 0.944171
Si Si6 0.837707 0.583505 0.373758
Si Si7 0.650220 0.411116 0.342406
Si Si8 0.832045 0.712939 0.580429
O O1 0.500000 0.256564 0.266955
O O2 0.590026 0.220590 0.048898
O O3 0.619913 0.348088 0.224824
O O4 0.651526 0.209998 0.308353
O O5 0.837378 0.104727 0.777788
O O6 0.891464 0.231694 0.667164
O O7 0.000000 0.125413 0.725779
O O8 0.921105 0.185619 0.938662
O O9 0.000000 0.262695 0.134293
O O10 0.858117 0.297435 0.066246
O O11 0.569062 0.930305 0.048455
O O12 0.579828 0.864758 0.794541
O O13 0.855709 0.500000 0.446710
O O14 0.743704 0.594428 0.366247
O O15 0.871406 0.657543 0.458416
O O16 0.611348 0.388652 0.500000
O O17 0.631804 0.500000 0.302493
O O18 0.767767 0.767767 0.500000
#
# Coordination Sequence:
#
# PCOD9557373 Si02
#       8
#     8   8   8   8   2   8   8   8
#     4  12  23  40  65  99 133 184 237 301 358 418
#     4  10  23  42  65 101 137 172 226 289 346 418
#     4  10  21  39  71 103 132 174 221 280 357 426
#     4  12  24  42  70  99 141 184 236 293 363 425
#     4  12  24  48  64 106 152 180 232 302 364 436
#     4  11  22  40  62  96 132 185 235 286 348 425
#     4  11  23  39  64  97 140 183 243 299 356 423
#     4  12  22  41  63  96 136 181 235 285 341 425
#
# _framework density 21.993718999999999
#
# number of rings (size 3 to 8) (size 9 to 14) (size 15 to 20)
#    0.000    0.828    6.207    1.655    0.000    1.793 
#    1.241    2.069    0.000    2.483    0.000    3.862 
#    0.000    0.000    0.000    0.000    0.000    0.000 
#
# Total GULP energy -323278.855280 kJ/mol
# GULP energy per Si atom -5573.773367 kJ/mol
# Density = 2.194366 g / cm^3
# Si number density = 21.993719 Si / 1000 Ang^3
#
#
#
# Elastic Constant Matrix: (Units=GPa)
#
#
# Indices 1 2 3 4 5 6 
#
# 1 80.9099 15.6688 8.6054 0.0000 0.0000 0.0000
# 2 15.6688 80.9099 8.6054 0.0000 0.0000 0.0000
# 3 8.6054 8.6054 40.4250 0.0000 0.0000 0.0000
# 4 0.0000 0.0000 0.0000 4.8365 0.0000 0.0000
# 5 0.0000 0.0000 0.0000 0.0000 4.8365 0.0000
# 6 0.0000 0.0000 0.0000 0.0000 0.0000 23.9461
#
#
#
# Elastic Compliance Matrix: (Units=1/GPa)
#
#
# Indices 1 2 3 4 5 6 
#
# 1 0.013045 -0.002283 -0.002291 0.000000 0.000000 0.000000
# 2 -0.002283 0.013045 -0.002291 0.000000 0.000000 0.000000
# 3 -0.002291 -0.002291 0.025713 0.000000 0.000000 0.000000
# 4 0.000000 0.000000 0.000000 0.206760 0.000000 0.000000
# 5 0.000000 0.000000 0.000000 0.000000 0.206760 0.000000
# 6 0.000000 0.000000 0.000000 0.000000 0.000000 0.041760
#
#
# Mechanical properties :
#
#
# Convention : Reuss Voigt Hill
#
# Bulk Modulus (GPa) = 26.26505 29.77822 28.02164
# Shear Modulus (GPa) = 9.37200 18.01483 13.69341
#
# Velocity S-wave (km/s) = 2.06651 2.86508 2.49791
# Velocity P-wave (km/s) = 4.20261 4.95113 4.59215
#
# Compressibility (1/GPa) = 0.03807340
#
# Stress axis : x y z
#
# Youngs Moduli (GPa) = 76.65683 76.65683 38.89145
#
# Poissons Ratio (x) = 0.17498 0.08910
# Poissons Ratio (y) = 0.17498 0.08910
# Poissons Ratio (z) = 0.17563 0.17563
#
# Static dielectric constant tensor:
#      x y z
#    x 2.061190 0.000000 0.000000 
#    y 0.000000 2.061190 0.000000 
#    z 0.000000 0.000000 1.836510 
# 
# From -- ./inp_files/1966.got.cif
#   From: 2010.05.17/outbox.cif.g08.bks.cpg/sg115_1_cif.got.tgz:1966.got - 2010.05.20 11:07:42.
