data_PCOD9557942
_publ_section_title
;
Structure prediction by ZEFSAII (Michael W. Deem and Ramdas Pophale) SiO2 
 PCOD9557942
Probable space group: P -4 C 2
;
_chemical_formula_sum "Si O2"
_cell_formula_units_Z 40
_cell_length_a 8.284756
_cell_length_b 8.284756
_cell_length_c 24.051612
_cell_angle_alpha 90.000000
_cell_angle_beta 90.000000
_cell_angle_gamma 90.000000
_cell_volume 1650.834870
_symmetry_space_group_name_H-M "P -4 C 2"
_symmetry_group_IT_number 116
_symmetry_cell_setting 'tetragonal'
loop_
_space_group_symop_operation_xyz
x,y,z
y,-x,-z
-x,-y,z
-y,x,-z
y,x,1/2-z
-y,-x,1/2-z
-x,y,1/2+z
x,-y,1/2+z
loop_
_atom_site_type_symbol
_atom_site_label
_atom_site_fract_x
_atom_site_fract_y
_atom_site_fract_z
Si Si1 0.300126 0.494260 0.631994
Si Si2 0.500000 0.000000 0.677996
Si Si3 0.316568 0.900427 0.279314
Si Si4 0.000000 0.000000 0.346316
Si Si5 0.150696 0.708873 0.905822
Si Si6 0.730841 0.626959 0.515924
O O1 0.500000 0.500000 0.640897
O O2 0.173411 0.453657 0.680872
O O3 0.245652 0.667013 0.608772
O O4 0.256605 0.370384 0.582067
O O5 0.359471 0.997405 0.724313
O O6 0.548870 0.133068 0.632818
O O7 0.264301 0.735700 0.250000
O O8 0.162451 0.973252 0.310442
O O9 0.971445 0.841822 0.383457
O O10 0.137953 0.689593 0.972148
O O11 0.708088 0.440427 0.498012
#
# Coordination Sequence:
#
# PCOD9557942 Si02
#       6
#     8   4   8   4   8   8
#     4  11  22  43  76 112 138 185 261 323 366 430
#     4  12  26  44  70 108 142 208 250 302 376 444
#     4  12  26  43  68 100 152 198 243 298 368 446
#     4  12  27  48  67 104 160 209 231 302 388 466
#     4  11  24  43  74 106 149 194 248 308 380 454
#     4   9  17  39  71 104 134 173 235 316 368 412
#
# _framework density 24.230165
#
# number of rings (size 3 to 8) (size 9 to 14) (size 15 to 20)
#    0.000    1.000    6.000    2.700    0.000    4.400 
#    0.000    8.000    0.000    0.000    0.000    0.000 
#    0.000    0.000    0.000    0.000    0.000    0.000 
#
# Total GULP energy -222773.672831 kJ/mol
# GULP energy per Si atom -5569.341821 kJ/mol
# Density = 2.417502 g / cm^3
# Si number density = 24.230165 Si / 1000 Ang^3
#
#
#
# Elastic Constant Matrix: (Units=GPa)
#
#
# Indices 1 2 3 4 5 6 
#
# 1 67.4051 1.5026 23.4990 0.0000 0.0000 0.0000
# 2 1.5026 67.4055 23.4986 0.0000 0.0000 0.0000
# 3 23.4990 23.4986 94.3456 0.0000 0.0000 0.0000
# 4 0.0000 0.0000 0.0000 40.5643 0.0000 0.0000
# 5 0.0000 0.0000 0.0000 0.0000 40.5650 0.0000
# 6 0.0000 0.0000 0.0000 0.0000 0.0000 37.8196
#
#
#
# Elastic Compliance Matrix: (Units=1/GPa)
#
#
# Indices 1 2 3 4 5 6 
#
# 1 0.016328 0.001154 -0.004354 0.000000 0.000000 0.000000
# 2 0.001154 0.016328 -0.004354 0.000000 0.000000 0.000000
# 3 -0.004354 -0.004354 0.012768 0.000000 0.000000 0.000000
# 4 0.000000 0.000000 0.000000 0.024652 0.000000 0.000000
# 5 0.000000 0.000000 0.000000 0.000000 0.024652 0.000000
# 6 0.000000 0.000000 0.000000 0.000000 0.000000 0.026441
#
#
# Mechanical properties :
#
#
# Convention : Reuss Voigt Hill
#
# Bulk Modulus (GPa) = 32.98679 36.23961 34.61320
# Shear Modulus (GPa) = 34.15685 35.83350 34.99518
#
# Velocity S-wave (km/s) = 3.75865 3.84979 3.80449
# Velocity P-wave (km/s) = 5.69913 5.89492 5.79785
#
# Compressibility (1/GPa) = 0.03031517
#
# Stress axis : x y z
#
# Youngs Moduli (GPa) = 61.24463 61.24524 78.31855
#
# Poissons Ratio (x) = -0.07068 0.34102
# Poissons Ratio (y) = -0.07068 0.34101
# Poissons Ratio (z) = 0.26668 0.26667
#
# Static dielectric constant tensor:
#      x y z
#    x 2.034830 0.000000 0.000000 
#    y 0.000000 2.034830 0.000000 
#    z 0.000000 0.000000 1.782420 
# 
# From -- ./inp_files/4499.got.cif
#   From: 2010.05.17/outbox.cif.g08.bks.cpg/sg116_3_cif.got.tgz:4499.got - 2010.05.20 11:11:43.
