data_PCOD9557627
_publ_section_title
;
Structure prediction by ZEFSAII (Michael W. Deem and Ramdas Pophale) SiO2 
 PCOD9557627
Probable space group: P -4 C 2
;
_chemical_formula_sum "Si O2"
_cell_formula_units_Z 48
_cell_length_a 18.334161
_cell_length_b 18.334161
_cell_length_c 8.123593
_cell_angle_alpha 90.000000
_cell_angle_beta 90.000000
_cell_angle_gamma 90.000000
_cell_volume 2730.676408
_symmetry_space_group_name_H-M "P -4 C 2"
_symmetry_group_IT_number 116
_symmetry_cell_setting 'tetragonal'
loop_
_space_group_symop_operation_xyz
x,y,z
y,-x,-z
-x,-y,z
-y,x,-z
y,x,1/2-z
-y,-x,1/2-z
-x,y,1/2+z
x,-y,1/2+z
loop_
_atom_site_type_symbol
_atom_site_label
_atom_site_fract_x
_atom_site_fract_y
_atom_site_fract_z
Si Si1 0.525306 0.080023 0.865572
Si Si2 0.806648 0.043026 0.850089
Si Si3 0.102281 0.158850 0.507995
Si Si4 0.613606 0.886143 0.069043
Si Si5 0.946361 0.665933 0.922613
Si Si6 0.816587 0.718618 0.667071
O O1 0.566879 0.127789 0.731683
O O2 0.500000 0.000000 0.799698
O O3 0.449303 0.107029 0.933167
O O4 0.586355 0.073606 0.007602
O O5 0.809213 0.073792 0.666244
O O6 0.868857 0.080491 0.960562
O O7 0.729425 0.055109 0.939273
O O8 0.829362 0.959407 0.857230
O O9 0.168254 0.203750 0.581396
O O10 0.653102 0.965361 0.105310
O O11 0.666395 0.826119 0.991884
O O12 0.885878 0.691421 0.784663
O O13 0.737987 0.737987 0.750000
#
# Coordination Sequence:
#
# PCOD9557627 Si02
#       6
#     8   8   8   8   8   8
#     4  10  20  34  54  82 106 134 175 222 284 342
#     4  11  23  38  53  72  94 133 179 240 291 344
#     4  11  24  37  53  70  95 130 184 234 298 338
#     4  11  21  35  54  78 107 138 177 230 279 331
#     4  11  20  32  53  75 104 133 174 226 276 330
#     4  12  23  35  52  78 107 144 183 227 277 347
#
# _framework density 17.578063
#
# number of rings (size 3 to 8) (size 9 to 14) (size 15 to 20)
#    0.000    1.000    3.333    6.500    0.000    0.333 
#    0.000    1.667    0.000    0.000    0.000    0.000 
#    0.000    0.000    0.000    0.000    0.000   40.000 
#
# Total GULP energy -267203.910981 kJ/mol
# GULP energy per Si atom -5566.748145 kJ/mol
# Density = 1.753805 g / cm^3
# Si number density = 17.578063 Si / 1000 Ang^3
#
#
#
# Elastic Constant Matrix: (Units=GPa)
#
#
# Indices 1 2 3 4 5 6 
#
# 1 43.6604 24.9343 6.0494 0.0000 0.0000 0.0000
# 2 24.9343 43.6604 6.0494 0.0000 0.0000 0.0000
# 3 6.0494 6.0494 67.3772 0.0000 0.0000 0.0000
# 4 0.0000 0.0000 0.0000 30.9194 0.0000 0.0000
# 5 0.0000 0.0000 0.0000 0.0000 30.9194 0.0000
# 6 0.0000 0.0000 0.0000 0.0000 0.0000 13.5037
#
#
#
# Elastic Compliance Matrix: (Units=1/GPa)
#
#
# Indices 1 2 3 4 5 6 
#
# 1 0.034107 -0.019294 -0.001330 0.000000 0.000000 0.000000
# 2 -0.019294 0.034107 -0.001330 0.000000 0.000000 0.000000
# 3 -0.001330 -0.001330 0.015081 0.000000 0.000000 0.000000
# 4 0.000000 0.000000 0.000000 0.032342 0.000000 0.000000
# 5 0.000000 0.000000 0.000000 0.000000 0.032342 0.000000
# 6 0.000000 0.000000 0.000000 0.000000 0.000000 0.074054
#
#
# Mechanical properties :
#
#
# Convention : Reuss Voigt Hill
#
# Bulk Modulus (GPa) = 25.38928 25.41825 25.40377
# Shear Modulus (GPa) = 17.91662 22.91280 20.41471
#
# Velocity S-wave (km/s) = 3.19605 3.61430 3.41159
# Velocity P-wave (km/s) = 5.30045 5.64882 5.47740
#
# Compressibility (1/GPa) = 0.03938669
#
# Stress axis : x y z
#
# Youngs Moduli (GPa) = 29.31933 29.31933 66.31017
#
# Poissons Ratio (x) = 0.56569 0.08819
# Poissons Ratio (y) = 0.56569 0.08819
# Poissons Ratio (z) = 0.03899 0.03899
#
# Static dielectric constant tensor:
#      x y z
#    x 1.605260 0.000000 0.000000 
#    y 0.000000 1.605260 0.000000 
#    z 0.000000 0.000000 1.716080 
# 
# From -- ./inp_files/977.got.cif
#   From: 2010.05.17/outbox.cif.g08.bks.cpg/sg116_1_cif.got.tgz:977.got - 2010.05.20 11:11:43.
