data_PCOD9557077
_publ_section_title
;
Structure prediction by ZEFSAII (Michael W. Deem and Ramdas Pophale) SiO2 
 PCOD9557077
Probable space group: P -4 M 2
;
_chemical_formula_sum "Si O2"
_cell_formula_units_Z 48
_cell_length_a 18.130867
_cell_length_b 18.130867
_cell_length_c 9.144392
_cell_angle_alpha 90.000000
_cell_angle_beta 90.000000
_cell_angle_gamma 90.000000
_cell_volume 3006.020786
_symmetry_space_group_name_H-M "P -4 M 2"
_symmetry_group_IT_number 115
_symmetry_cell_setting 'tetragonal'
loop_
_space_group_symop_operation_xyz
x,y,z
y,-x,-z
-x,-y,z
-y,x,-z
y,x,-z
-y,-x,-z
-x,y,z
x,-y,z
loop_
_atom_site_type_symbol
_atom_site_label
_atom_site_fract_x
_atom_site_fract_y
_atom_site_fract_z
Si Si1 0.917399 0.148827 0.639164
Si Si2 0.168415 0.288236 0.661092
Si Si3 0.287383 0.170964 0.689488
Si Si4 0.915871 0.412644 0.167300
Si Si5 0.587051 0.084241 0.182647
Si Si6 0.916383 0.164898 0.126368
O O1 0.866851 0.133150 0.500000
O O2 0.891888 0.226389 0.705200
O O3 0.902823 0.087174 0.759576
O O4 0.000000 0.150890 0.588055
O O5 0.246683 0.250675 0.704884
O O6 0.161913 0.294176 0.485437
O O7 0.144447 0.363033 0.737854
O O8 0.365589 0.148252 0.757169
O O9 0.232315 0.115174 0.776583
O O10 0.908794 0.500000 0.195867
O O11 0.000000 0.390636 0.213351
O O12 0.911804 0.401806 0.992257
O O13 0.500000 0.094477 0.210835
O O14 0.606318 0.000000 0.228705
O O15 0.000000 0.178356 0.075528
O O16 0.860192 0.139809 0.000000
#
# Coordination Sequence:
#
# PCOD9557077 Si02
#       6
#     8   8   8   8   8   8
#     4  11  21  33  47  63  86 122 164 210 258 296
#     4  10  20  36  50  70  98 128 165 206 249 304
#     4  10  21  35  50  71  97 128 165 206 251 304
#     4   9  19  34  52  76 103 130 164 209 257 305
#     4   9  19  34  53  77 102 130 166 209 255 305
#     4  11  23  35  45  63  88 120 166 215 258 300
#
# _framework density 15.967952
#
# number of rings (size 3 to 8) (size 9 to 14) (size 15 to 20)
#    0.000    2.000    3.333    3.000    4.667    4.667 
#    0.000    1.667    0.000    0.000    0.000    0.000 
#    0.000    0.667    0.000    7.333    0.000    5.333 
#
# Total GULP energy -267297.900071 kJ/mol
# GULP energy per Si atom -5568.706251 kJ/mol
# Density = 1.593161 g / cm^3
# Si number density = 15.967952 Si / 1000 Ang^3
#
#
#
# Elastic Constant Matrix: (Units=GPa)
#
#
# Indices 1 2 3 4 5 6 
#
# 1 72.9417 36.5417 32.4877 0.0000 0.0000 0.0000
# 2 36.5417 72.9412 32.4879 0.0000 0.0000 0.0000
# 3 32.4877 32.4879 54.1397 0.0000 0.0000 0.0000
# 4 0.0000 0.0000 0.0000 24.6911 0.0000 0.0000
# 5 0.0000 0.0000 0.0000 0.0000 24.6918 0.0000
# 6 0.0000 0.0000 0.0000 0.0000 0.0000 25.4494
#
#
#
# Elastic Compliance Matrix: (Units=1/GPa)
#
#
# Indices 1 2 3 4 5 6 
#
# 1 0.020829 -0.006643 -0.008512 0.000000 0.000000 0.000000
# 2 -0.006643 0.020829 -0.008513 0.000000 0.000000 0.000000
# 3 -0.008512 -0.008513 0.028687 0.000000 0.000000 0.000000
# 4 0.000000 0.000000 0.000000 0.040500 0.000000 0.000000
# 5 0.000000 0.000000 0.000000 0.000000 0.040499 0.000000
# 6 0.000000 0.000000 0.000000 0.000000 0.000000 0.039294
#
#
# Mechanical properties :
#
#
# Convention : Reuss Voigt Hill
#
# Bulk Modulus (GPa) = 43.46216 44.78413 44.12314
# Shear Modulus (GPa) = 20.35454 21.53348 20.94401
#
# Velocity S-wave (km/s) = 3.57418 3.67624 3.62557
# Velocity P-wave (km/s) = 6.65661 6.79167 6.72448
#
# Compressibility (1/GPa) = 0.02300852
#
# Stress axis : x y z
#
# Youngs Moduli (GPa) = 48.00975 48.00895 34.85898
#
# Poissons Ratio (x) = 0.31895 0.29673
# Poissons Ratio (y) = 0.31895 0.29674
# Poissons Ratio (z) = 0.40868 0.40869
#
# Static dielectric constant tensor:
#      x y z
#    x 1.551580 0.000000 0.000000 
#    y 0.000000 1.551580 0.000000 
#    z 0.000000 0.000000 1.566830 
# 
# From -- ./inp_files/1843.got.cif
#   From: 2010.05.17/outbox.cif.g08.bks.cpg/sg115_1_cif.got.tgz:1843.got - 2010.05.20 11:07:42.
