data_PCOD9557680
_publ_section_title
;
Structure prediction by ZEFSAII (Michael W. Deem and Ramdas Pophale) SiO2 
 PCOD9557680
Probable space group: P -4 C 2
;
_chemical_formula_sum "Si O2"
_cell_formula_units_Z 46
_cell_length_a 10.788935
_cell_length_b 10.788935
_cell_length_c 18.391122
_cell_angle_alpha 90.000000
_cell_angle_beta 90.000000
_cell_angle_gamma 90.000000
_cell_volume 2140.747170
_symmetry_space_group_name_H-M "P -4 C 2"
_symmetry_group_IT_number 116
_symmetry_cell_setting 'tetragonal'
loop_
_space_group_symop_operation_xyz
x,y,z
y,-x,-z
-x,-y,z
-y,x,-z
y,x,1/2-z
-y,-x,1/2-z
-x,y,1/2+z
x,-y,1/2+z
loop_
_atom_site_type_symbol
_atom_site_label
_atom_site_fract_x
_atom_site_fract_y
_atom_site_fract_z
Si Si1 0.256765 0.003663 0.831754
Si Si2 0.825811 0.089004 0.983077
Si Si3 0.500000 0.500000 0.500000
Si Si4 0.190849 0.735098 0.375445
Si Si5 0.000000 0.000000 0.750000
Si Si6 0.462458 0.301792 0.125320
Si Si7 0.942906 0.364409 0.814958
Si Si8 0.500000 0.500000 0.750000
O O1 0.271498 0.153345 0.840372
O O2 0.118650 0.993229 0.801023
O O3 0.250715 0.943448 0.911428
O O4 0.341829 0.936626 0.772100
O O5 0.760987 0.177747 0.039461
O O6 0.961530 0.146574 0.972947
O O7 0.388818 0.451183 0.446609
O O8 0.244781 0.599562 0.372804
O O9 0.052954 0.728432 0.339998
O O10 0.365999 0.188374 0.142149
O O11 0.473534 0.388988 0.194709
O O12 0.000000 0.500000 0.827177
#
# Coordination Sequence:
#
# PCOD9557680 Si02
#       8
#     8   8   2   8   2   8   8   2
#     4  11  21  36  61  96 137 170 211 253 327 400
#     4   9  19  35  54  89 132 173 204 244 302 391
#     4  10  24  54  68  94 120 182 232 286 348 390
#     4  10  20  40  65  90 134 172 208 267 336 391
#     4  12  20  32  58  96 132 172 194 244 302 414
#     4  10  24  44  69  90 124 167 228 280 332 396
#     4  10  22  39  63  97 128 164 213 277 327 389
#     4  10  24  46  64  90 114 164 220 278 326 376
#
# _framework density 21.487825999999998
#
# number of rings (size 3 to 8) (size 9 to 14) (size 15 to 20)
#    0.000    1.913    1.739    2.087    4.870    3.478 
#    6.261    2.609    0.000    0.000    0.000    0.000 
#    0.000    0.000    0.000    0.000    0.000    0.000 
#
# Total GULP energy -256383.022972 kJ/mol
# GULP energy per Si atom -5573.543978 kJ/mol
# Density = 2.143892 g / cm^3
# Si number density = 21.487826 Si / 1000 Ang^3
#
#
#
# Elastic Constant Matrix: (Units=GPa)
#
#
# Indices 1 2 3 4 5 6 
#
# 1 45.9846 23.4790 28.2133 0.0000 0.0000 0.0000
# 2 23.4790 45.9846 28.2133 0.0000 0.0000 0.0000
# 3 28.2133 28.2133 108.3881 0.0000 0.0000 0.0000
# 4 0.0000 0.0000 0.0000 25.3449 0.0000 0.0000
# 5 0.0000 0.0000 0.0000 0.0000 25.3449 0.0000
# 6 0.0000 0.0000 0.0000 0.0000 0.0000 19.8031
#
#
#
# Elastic Compliance Matrix: (Units=1/GPa)
#
#
# Indices 1 2 3 4 5 6 
#
# 1 0.031345 -0.013089 -0.004752 0.000000 0.000000 0.000000
# 2 -0.013089 0.031345 -0.004752 0.000000 0.000000 0.000000
# 3 -0.004752 -0.004752 0.011700 0.000000 0.000000 0.000000
# 4 0.000000 0.000000 0.000000 0.039456 0.000000 0.000000
# 5 0.000000 0.000000 0.000000 0.000000 0.039456 0.000000
# 6 0.000000 0.000000 0.000000 0.000000 0.000000 0.050497
#
#
# Mechanical properties :
#
#
# Convention : Reuss Voigt Hill
#
# Bulk Modulus (GPa) = 34.24170 40.01874 37.13022
# Shear Modulus (GPa) = 19.32604 22.12868 20.72736
#
# Velocity S-wave (km/s) = 3.00224 3.21257 3.10919
# Velocity P-wave (km/s) = 5.29036 5.69431 5.49605
#
# Compressibility (1/GPa) = 0.02920415
#
# Stress axis : x y z
#
# Youngs Moduli (GPa) = 31.90324 31.90324 85.46987
#
# Poissons Ratio (x) = 0.41757 0.40616
# Poissons Ratio (y) = 0.41757 0.40616
# Poissons Ratio (z) = 0.15161 0.15161
#
# Static dielectric constant tensor:
#      x y z
#    x 1.739110 0.000000 0.000000 
#    y 0.000000 1.739110 0.000000 
#    z 0.000000 0.000000 1.745980 
# 
# From -- ./inp_files/3471.got.cif
#   From: 2010.05.17/outbox.cif.g08.bks.cpg/sg116_2_cif.got.tgz:3471.got - 2010.05.20 11:11:43.
