data_PCOD9557024
_publ_section_title
;
Structure prediction by ZEFSAII (Michael W. Deem and Ramdas Pophale) SiO2 
 PCOD9557024
Probable space group: P -4 M 2
;
_chemical_formula_sum "Si O2"
_cell_formula_units_Z 40
_cell_length_a 15.241291
_cell_length_b 15.241291
_cell_length_c 7.054821
_cell_angle_alpha 90.000000
_cell_angle_beta 90.000000
_cell_angle_gamma 90.000000
_cell_volume 1638.813411
_symmetry_space_group_name_H-M "P -4 M 2"
_symmetry_group_IT_number 115
_symmetry_cell_setting 'tetragonal'
loop_
_space_group_symop_operation_xyz
x,y,z
y,-x,-z
-x,-y,z
-y,x,-z
y,x,-z
-y,-x,-z
-x,y,z
x,-y,z
loop_
_atom_site_type_symbol
_atom_site_label
_atom_site_fract_x
_atom_site_fract_y
_atom_site_fract_z
Si Si1 0.595402 0.709123 0.213997
Si Si2 0.092991 0.286966 0.315515
Si Si3 0.097165 0.336149 0.870268
Si Si4 0.135631 0.902789 0.222575
Si Si5 0.597523 0.256337 0.652289
O O1 0.500000 0.681361 0.136970
O O2 0.613807 0.811508 0.165007
O O3 0.679700 0.644814 0.195967
O O4 0.586923 0.705250 0.442765
O O5 0.099519 0.182341 0.327207
O O6 0.175592 0.338356 0.389343
O O7 0.000000 0.317228 0.394577
O O8 0.095237 0.311159 0.092380
O O9 0.102460 0.241410 0.768580
O O10 0.000000 0.376077 0.828945
O O11 0.107733 0.000000 0.281689
O O12 0.109008 0.890993 0.000000
O O13 0.500000 0.229752 0.718241
#
# Coordination Sequence:
#
# PCOD9557024 Si02
#       5
#     8   8   8   8   8
#     4  10  21  38  60  81 103 138 181 225 277 330
#     4  10  20  34  55  84 114 147 181 218 266 315
#     4   9  18  33  55  83 113 143 179 219 261 314
#     4   9  16  28  49  79 113 145 178 217 258 303
#     4  10  22  39  57  79 108 139 177 228 279 327
#
# _framework density 24.407903999999998
#
# number of rings (size 3 to 8) (size 9 to 14) (size 15 to 20)
#    0.000    2.400    2.000    1.800    0.000    4.200 
#    0.000    6.000    0.000    0.000    0.000    2.800 
#    0.000    0.000    0.000    0.000    0.000    0.000 
#
# Total GULP energy -223453.274172 kJ/mol
# GULP energy per Si atom -5586.331854 kJ/mol
# Density = 2.435235 g / cm^3
# Si number density = 24.407904 Si / 1000 Ang^3
#
#
#
# Elastic Constant Matrix: (Units=GPa)
#
#
# Indices 1 2 3 4 5 6 
#
# 1 142.8131 69.1857 -4.9945 0.0000 0.0000 0.0000
# 2 69.1857 142.8127 -4.9945 0.0000 0.0000 0.0000
# 3 -4.9945 -4.9945 63.2753 0.0000 0.0000 0.0000
# 4 0.0000 0.0000 0.0000 25.7880 0.0000 0.0000
# 5 0.0000 0.0000 0.0000 0.0000 25.7879 0.0000
# 6 0.0000 0.0000 0.0000 0.0000 0.0000 -15.6407
#
#
#
# Elastic Compliance Matrix: (Units=1/GPa)
#
#
# Indices 1 2 3 4 5 6 
#
# 1 0.009158 -0.004424 0.000374 0.000000 0.000000 0.000000
# 2 -0.004424 0.009158 0.000374 0.000000 0.000000 0.000000
# 3 0.000374 0.000374 0.015863 0.000000 0.000000 0.000000
# 4 0.000000 0.000000 0.000000 0.038778 0.000000 0.000000
# 5 0.000000 0.000000 0.000000 0.000000 0.038778 0.000000
# 6 0.000000 0.000000 0.000000 0.000000 0.000000 -0.063936
#
#
# Mechanical properties :
#
#
# Convention : Reuss Voigt Hill
#
# Bulk Modulus (GPa) = 37.27581 51.92163 44.59872
# Shear Modulus (GPa) = 78.01036 26.50067 52.25551
#
# Velocity S-wave (km/s) = 5.65955 3.29863 4.63203
# Velocity P-wave (km/s) = 7.61659 5.98553 6.84979
#
# Compressibility (1/GPa) = 0.02682705
#
# Stress axis : x y z
#
# Youngs Moduli (GPa) = 109.19098 109.19069 63.03998
#
# Poissons Ratio (x) = 0.48302 -0.02356
# Poissons Ratio (y) = 0.48302 -0.02356
# Poissons Ratio (z) = -0.04081 -0.04081
#
# Static dielectric constant tensor:
#      x y z
#    x 1.957240 0.000000 0.000000 
#    y 0.000000 1.957240 0.000000 
#    z 0.000000 0.000000 2.051890 
# 
# From -- ./inp_files/1598.got.cif
#   From: 2010.05.17/outbox.cif.g08.bks.cpg/sg115_1_cif.got.tgz:1598.got - 2010.05.20 11:07:42.
