data_PCOD9557020
_publ_section_title
;
Structure prediction by ZEFSAII (Michael W. Deem and Ramdas Pophale) SiO2 
 PCOD9557020
Probable space group: P -4 M 2
;
_chemical_formula_sum "Si O2"
_cell_formula_units_Z 44
_cell_length_a 8.139908
_cell_length_b 8.139908
_cell_length_c 32.329223
_cell_angle_alpha 90.000000
_cell_angle_beta 90.000000
_cell_angle_gamma 90.000000
_cell_volume 2142.072963
_symmetry_space_group_name_H-M "P -4 M 2"
_symmetry_group_IT_number 115
_symmetry_cell_setting 'tetragonal'
loop_
_space_group_symop_operation_xyz
x,y,z
y,-x,-z
-x,-y,z
-y,x,-z
y,x,-z
-y,-x,-z
-x,y,z
x,-y,z
loop_
_atom_site_type_symbol
_atom_site_label
_atom_site_fract_x
_atom_site_fract_y
_atom_site_fract_z
Si Si1 0.500000 0.201634 0.265018
Si Si2 0.308317 0.306474 0.131046
Si Si3 0.200896 0.500000 0.639230
Si Si4 0.688189 0.806499 0.043466
Si Si5 0.306026 0.306026 0.500000
Si Si6 0.818359 0.801600 0.411742
Si Si7 0.194944 0.820651 0.783471
O O1 0.500000 0.249203 0.312910
O O2 0.336175 0.260449 0.241556
O O3 0.500000 0.000000 0.263267
O O4 0.500000 0.249848 0.131611
O O5 0.306225 0.500000 0.139059
O O6 0.241853 0.274776 0.084927
O O7 0.212939 0.220537 0.167972
O O8 0.257128 0.664789 0.615706
O O9 0.000000 0.500000 0.638028
O O10 0.500000 0.746709 0.039001
O O11 0.686705 0.000000 0.051173
O O12 0.773378 0.773378 0.000000
O O13 0.278385 0.500000 0.506786
O O14 0.212441 0.250419 0.458967
O O15 0.000000 0.745809 0.398188
O O16 0.816794 0.000000 0.410082
O O17 0.000000 0.825450 0.775406
O O18 0.264142 0.000000 0.772494
#
# Coordination Sequence:
#
# PCOD9557020 Si02
#       7
#     4   8   4   8   4   8   8
#     4   9  18  34  57  83 117 153 187 239 297 351
#     4  10  20  35  57  81 107 142 183 230 284 340
#     4   9  18  34  55  83 119 155 193 243 299 352
#     4  10  21  36  55  79 109 146 185 226 275 331
#     4  11  22  35  54  80 112 153 200 247 298 356
#     4  10  20  34  55  83 115 153 197 243 296 355
#     4  10  20  34  56  85 113 145 188 236 291 353
#
# _framework density 20.540849000000001
#
# number of rings (size 3 to 8) (size 9 to 14) (size 15 to 20)
#    0.000    2.091    1.818    1.636    0.000    5.455 
#    0.000    3.636    0.000    2.182    0.000    2.545 
#    0.000    0.000    0.000    0.000    0.000    0.000 
#
# Total GULP energy -245669.785904 kJ/mol
# GULP energy per Si atom -5583.404225 kJ/mol
# Density = 2.049410 g / cm^3
# Si number density = 20.540849 Si / 1000 Ang^3
#
#
#
# Elastic Constant Matrix: (Units=GPa)
#
#
# Indices 1 2 3 4 5 6 
#
# 1 67.2777 33.5287 36.4577 0.0000 0.0000 0.0000
# 2 33.5287 67.2777 36.4577 0.0000 0.0000 0.0000
# 3 36.4577 36.4577 119.5809 0.0000 0.0000 0.0000
# 4 0.0000 0.0000 0.0000 16.8586 0.0000 0.0000
# 5 0.0000 0.0000 0.0000 0.0000 16.8586 0.0000
# 6 0.0000 0.0000 0.0000 0.0000 0.0000 12.3647
#
#
#
# Elastic Compliance Matrix: (Units=1/GPa)
#
#
# Indices 1 2 3 4 5 6 
#
# 1 0.021178 -0.008452 -0.003880 0.000000 0.000000 0.000000
# 2 -0.008452 0.021178 -0.003880 0.000000 0.000000 0.000000
# 3 -0.003880 -0.003880 0.010728 0.000000 0.000000 0.000000
# 4 0.000000 0.000000 0.000000 0.059317 0.000000 0.000000
# 5 0.000000 0.000000 0.000000 0.000000 0.059317 0.000000
# 6 0.000000 0.000000 0.000000 0.000000 0.000000 0.080876
#
#
# Mechanical properties :
#
#
# Convention : Reuss Voigt Hill
#
# Bulk Modulus (GPa) = 48.39971 51.89162 50.14567
# Shear Modulus (GPa) = 17.12881 19.06254 18.09567
#
# Velocity S-wave (km/s) = 2.89085 3.04966 2.97132
# Velocity P-wave (km/s) = 5.89546 6.14151 6.01974
#
# Compressibility (1/GPa) = 0.02066128
#
# Stress axis : x y z
#
# Youngs Moduli (GPa) = 47.21772 47.21772 93.21035
#
# Poissons Ratio (x) = 0.39908 0.36166
# Poissons Ratio (y) = 0.39908 0.36166
# Poissons Ratio (z) = 0.18321 0.18321
#
# Static dielectric constant tensor:
#      x y z
#    x 1.738970 0.000000 0.000000 
#    y 0.000000 1.738970 0.000000 
#    z 0.000000 0.000000 1.695030 
# 
# From -- ./inp_files/5880.got.cif
#   From: 2010.05.17/outbox.cif.g08.bks.cpg/sg115_3_cif.got.tgz:5880.got - 2010.05.20 11:07:42.
