data_PCOD9557707
_publ_section_title
;
Structure prediction by ZEFSAII (Michael W. Deem and Ramdas Pophale) SiO2 
 PCOD9557707
Probable space group: P -4 C 2
;
_chemical_formula_sum "Si O2"
_cell_formula_units_Z 48
_cell_length_a 8.166956
_cell_length_b 8.166956
_cell_length_c 31.639129
_cell_angle_alpha 90.000000
_cell_angle_beta 90.000000
_cell_angle_gamma 90.000000
_cell_volume 2110.303654
_symmetry_space_group_name_H-M "P -4 C 2"
_symmetry_group_IT_number 116
_symmetry_cell_setting 'tetragonal'
loop_
_space_group_symop_operation_xyz
x,y,z
y,-x,-z
-x,-y,z
-y,x,-z
y,x,1/2-z
-y,-x,1/2-z
-x,y,1/2+z
x,-y,1/2+z
loop_
_atom_site_type_symbol
_atom_site_label
_atom_site_fract_x
_atom_site_fract_y
_atom_site_fract_z
Si Si1 0.783989 0.704698 0.322049
Si Si2 0.959791 0.824643 0.705605
Si Si3 0.751986 0.619700 0.088000
Si Si4 0.272130 0.385009 0.926083
Si Si5 0.649708 0.169810 0.164836
Si Si6 0.756466 0.110020 0.992780
O O1 0.707376 0.766023 0.366626
O O2 0.735479 0.512218 0.318229
O O3 0.981338 0.672854 0.320435
O O4 0.743410 0.860937 0.292132
O O5 0.877711 0.877711 0.750000
O O6 0.815947 0.740284 0.679486
O O7 0.000000 0.000000 0.683525
O O8 0.572614 0.674520 0.072286
O O9 0.731891 0.424402 0.086439
O O10 0.881237 0.678619 0.053420
O O11 0.156049 0.365968 0.885570
O O12 0.196133 0.346867 0.970967
O O13 0.928001 0.205278 0.992245
#
# Coordination Sequence:
#
# PCOD9557707 Si02
#       6
#     8   8   8   8   8   8
#     4   9  18  34  59  85 114 156 197 244 307 364
#     4   9  18  34  61  85 117 152 191 246 304 367
#     4  10  21  37  57  82 116 156 199 250 303 362
#     4  10  21  37  57  82 116 156 200 247 306 358
#     4   9  18  34  59  85 114 157 195 245 301 367
#     4  11  24  37  52  80 116 157 202 255 298 351
#
# _framework density 22.745542
#
# number of rings (size 3 to 8) (size 9 to 14) (size 15 to 20)
#    0.000    2.333    0.000    2.000    2.333    5.333 
#    0.000    0.000   29.333    0.000    0.000    0.000 
#    0.000    0.000    0.000    0.000    0.000    0.000 
#
# Total GULP energy -267443.704839 kJ/mol
# GULP energy per Si atom -5571.743851 kJ/mol
# Density = 2.269377 g / cm^3
# Si number density = 22.745542 Si / 1000 Ang^3
#
#
#
# Elastic Constant Matrix: (Units=GPa)
#
#
# Indices 1 2 3 4 5 6 
#
# 1 363.7284 -287.3948 26.8883 0.0000 0.0000 0.0000
# 2 -287.3948 363.7284 26.8883 0.0000 0.0000 0.0000
# 3 26.8883 26.8883 63.8192 0.0000 0.0000 0.0000
# 4 0.0000 0.0000 0.0000 63.4078 0.0000 0.0000
# 5 0.0000 0.0000 0.0000 0.0000 63.4078 0.0000
# 6 0.0000 0.0000 0.0000 0.0000 0.0000 13.7943
#
#
#
# Elastic Compliance Matrix: (Units=1/GPa)
#
#
# Indices 1 2 3 4 5 6 
#
# 1 0.010083 0.008547 -0.007849 0.000000 0.000000 0.000000
# 2 0.008547 0.010083 -0.007849 0.000000 0.000000 0.000000
# 3 -0.007849 -0.007849 0.022283 0.000000 0.000000 0.000000
# 4 0.000000 0.000000 0.000000 0.015771 0.000000 0.000000
# 5 0.000000 0.000000 0.000000 0.000000 0.015771 0.000000
# 6 0.000000 0.000000 0.000000 0.000000 0.000000 0.072494
#
#
# Mechanical properties :
#
#
# Convention : Reuss Voigt Hill
#
# Bulk Modulus (GPa) = 35.52823 36.00441 35.76632
# Shear Modulus (GPa) = 29.38240 96.44825 62.91532
#
# Velocity S-wave (km/s) = 3.59804 6.51883 5.26503
# Velocity P-wave (km/s) = 5.73716 8.51609 7.26081
#
# Compressibility (1/GPa) = 0.02814663
#
# Stress axis : x y z
#
# Youngs Moduli (GPa) = 99.17697 99.17697 44.87647
#
# Poissons Ratio (x) = -0.84768 0.35225
# Poissons Ratio (y) = -0.84768 0.35225
# Poissons Ratio (z) = 0.77847 0.77847
#
# Static dielectric constant tensor:
#      x y z
#    x 1.900650 0.000000 0.000000 
#    y 0.000000 1.900650 0.000000 
#    z 0.000000 0.000000 1.557760 
# 
# From -- ./inp_files/5276.got.cif
#   From: 2010.05.17/outbox.cif.g08.bks.cpg/sg116_3_cif.got.tgz:5276.got - 2010.05.20 11:11:43.
