data_PCOD9557748
_publ_section_title
;
Structure prediction by ZEFSAII (Michael W. Deem and Ramdas Pophale) SiO2 
 PCOD9557748
Probable space group: P -4 C 2
;
_chemical_formula_sum "Si O2"
_cell_formula_units_Z 36
_cell_length_a 10.999240
_cell_length_b 10.999240
_cell_length_c 11.790768
_cell_angle_alpha 90.000000
_cell_angle_beta 90.000000
_cell_angle_gamma 90.000000
_cell_volume 1426.485793
_symmetry_space_group_name_H-M "P -4 C 2"
_symmetry_group_IT_number 116
_symmetry_cell_setting 'tetragonal'
loop_
_space_group_symop_operation_xyz
x,y,z
y,-x,-z
-x,-y,z
-y,x,-z
y,x,1/2-z
-y,-x,1/2-z
-x,y,1/2+z
x,-y,1/2+z
loop_
_atom_site_type_symbol
_atom_site_label
_atom_site_fract_x
_atom_site_fract_y
_atom_site_fract_z
Si Si1 0.228304 0.239272 0.027695
Si Si2 0.904680 0.585393 0.310525
Si Si3 0.308460 0.468425 0.164978
Si Si4 0.023688 0.749096 0.121146
Si Si5 0.000000 0.000000 0.250000
Si Si6 0.500000 0.500000 0.500000
O O1 0.304620 0.160515 0.122464
O O2 0.256941 0.373639 0.071989
O O3 0.081105 0.241739 0.024724
O O4 0.268443 0.162062 0.918543
O O5 0.801256 0.502893 0.249921
O O6 0.000000 0.500000 0.376860
O O7 0.979321 0.649090 0.209815
O O8 0.398555 0.398555 0.250000
O O9 0.394352 0.548780 0.084267
O O10 0.006343 0.879643 0.176757
#
# Coordination Sequence:
#
# PCOD9557748 Si02
#       6
#     8   8   8   8   2   2
#     4  10  21  41  61  92 127 172 211 264 328 393
#     4  10  22  42  64  90 131 169 209 273 324 380
#     4   9  22  43  64  92 129 165 220 275 328 387
#     4  11  21  37  63  91 130 166 207 259 326 391
#     4  12  20  38  64 100 138 160 208 266 324 400
#     4  12  22  40  72  94 120 180 218 276 332 394
#
# _framework density 25.236844999999999
#
# number of rings (size 3 to 8) (size 9 to 14) (size 15 to 20)
#    0.000    1.778    2.222    3.000    3.111    0.889 
#   12.000    0.000    0.000    0.000    0.000    0.000 
#    0.000    0.000    0.000    0.000    0.000    0.000 
#
# Total GULP energy -200654.075631 kJ/mol
# GULP energy per Si atom -5573.724323 kJ/mol
# Density = 2.517940 g / cm^3
# Si number density = 25.236845 Si / 1000 Ang^3
#
#
#
# Elastic Constant Matrix: (Units=GPa)
#
#
# Indices 1 2 3 4 5 6 
#
# 1 65.2956 -2.6137 -3.2482 0.0000 0.0000 0.0000
# 2 -2.6137 65.2956 -3.2482 0.0000 0.0000 0.0000
# 3 -3.2482 -3.2482 25.4903 0.0000 0.0000 0.0000
# 4 0.0000 0.0000 0.0000 36.2100 0.0000 0.0000
# 5 0.0000 0.0000 0.0000 0.0000 36.2100 0.0000
# 6 0.0000 0.0000 0.0000 0.0000 0.0000 36.0954
#
#
#
# Elastic Compliance Matrix: (Units=1/GPa)
#
#
# Indices 1 2 3 4 5 6 
#
# 1 0.015446 0.000721 0.002060 0.000000 0.000000 0.000000
# 2 0.000721 0.015446 0.002060 0.000000 0.000000 0.000000
# 3 0.002060 0.002060 0.039756 0.000000 0.000000 0.000000
# 4 0.000000 0.000000 0.000000 0.027617 0.000000 0.000000
# 5 0.000000 0.000000 0.000000 0.000000 0.027617 0.000000
# 6 0.000000 0.000000 0.000000 0.000000 0.000000 0.027704
#
#
# Mechanical properties :
#
#
# Convention : Reuss Voigt Hill
#
# Bulk Modulus (GPa) = 12.44858 15.31792 13.88325
# Shear Modulus (GPa) = 29.29447 32.71586 31.00516
#
# Velocity S-wave (km/s) = 3.41072 3.60440 3.50890
# Velocity P-wave (km/s) = 4.52262 4.83788 4.68290
#
# Compressibility (1/GPa) = 0.08033043
#
# Stress axis : x y z
#
# Youngs Moduli (GPa) = 64.74039 64.74039 25.15363
#
# Poissons Ratio (x) = -0.04666 -0.05182
# Poissons Ratio (y) = -0.04666 -0.05182
# Poissons Ratio (z) = -0.13337 -0.13337
#
# Static dielectric constant tensor:
#      x y z
#    x 2.072420 0.000000 0.000000 
#    y 0.000000 2.072420 0.000000 
#    z 0.000000 0.000000 1.955590 
# 
# From -- ./inp_files/1743.got.cif
#   From: 2010.05.17/outbox.cif.g08.bks.cpg/sg116_1_cif.got.tgz:1743.got - 2010.05.20 11:11:43.
