data_PCOD9557673
_publ_section_title
;
Structure prediction by ZEFSAII (Michael W. Deem and Ramdas Pophale) SiO2 
 PCOD9557673
Probable space group: P -4 C 2
;
_chemical_formula_sum "Si O2"
_cell_formula_units_Z 40
_cell_length_a 8.786952
_cell_length_b 8.786952
_cell_length_c 24.365922
_cell_angle_alpha 90.000000
_cell_angle_beta 90.000000
_cell_angle_gamma 90.000000
_cell_volume 1881.305641
_symmetry_space_group_name_H-M "P -4 C 2"
_symmetry_group_IT_number 116
_symmetry_cell_setting 'tetragonal'
loop_
_space_group_symop_operation_xyz
x,y,z
y,-x,-z
-x,-y,z
-y,x,-z
y,x,1/2-z
-y,-x,1/2-z
-x,y,1/2+z
x,-y,1/2+z
loop_
_atom_site_type_symbol
_atom_site_label
_atom_site_fract_x
_atom_site_fract_y
_atom_site_fract_z
Si Si1 0.176313 0.450541 0.912476
Si Si2 0.768871 0.778046 0.380087
Si Si3 0.219207 0.089247 0.669464
Si Si4 0.769183 0.892787 0.491589
Si Si5 0.030588 0.678017 0.712721
O O1 0.261539 0.608408 0.902452
O O2 0.192882 0.346486 0.858787
O O3 0.000000 0.500000 0.912798
O O4 0.188345 0.348176 0.966867
O O5 0.712234 0.885679 0.428949
O O6 0.950430 0.809467 0.372245
O O7 0.700940 0.812646 0.320364
O O8 0.079764 0.199286 0.682756
O O9 0.277584 0.003604 0.724230
O O10 0.931268 0.804483 0.494376
O O11 0.000000 0.500000 0.707406
#
# Coordination Sequence:
#
# PCOD9557673 Si02
#       5
#     8   8   8   8   8
#     4  10  20  40  61  88 128 170 208 264 335 377
#     4  11  22  38  64  95 122 167 217 271 319 386
#     4  10  21  41  66  90 130 167 214 272 324 389
#     4  11  21  35  61  90 122 164 220 269 318 378
#     4  11  23  39  63  99 130 165 214 272 332 391
#
# _framework density 21.26183
#
# number of rings (size 3 to 8) (size 9 to 14) (size 15 to 20)
#    0.000    1.400    4.000    4.200    2.800    2.400 
#    3.600    1.000    0.000    2.400    0.000    0.000 
#    0.000    0.000    0.000    0.000    0.000    0.000 
#
# Total GULP energy -222949.008503 kJ/mol
# GULP energy per Si atom -5573.725213 kJ/mol
# Density = 2.121344 g / cm^3
# Si number density = 21.261830 Si / 1000 Ang^3
#
#
#
# Elastic Constant Matrix: (Units=GPa)
#
#
# Indices 1 2 3 4 5 6 
#
# 1 68.3381 11.5323 17.1236 0.0000 0.0000 0.0000
# 2 11.5323 68.3381 17.1236 0.0000 0.0000 0.0000
# 3 17.1236 17.1236 77.5735 0.0000 0.0000 0.0000
# 4 0.0000 0.0000 0.0000 -15.4982 0.0000 0.0000
# 5 0.0000 0.0000 0.0000 0.0000 -15.4982 0.0000
# 6 0.0000 0.0000 0.0000 0.0000 0.0000 7.7454
#
#
#
# Elastic Compliance Matrix: (Units=1/GPa)
#
#
# Indices 1 2 3 4 5 6 
#
# 1 0.015717 -0.001887 -0.003053 0.000000 0.000000 0.000000
# 2 -0.001887 0.015717 -0.003053 0.000000 0.000000 0.000000
# 3 -0.003053 -0.003053 0.014239 0.000000 0.000000 0.000000
# 4 0.000000 0.000000 0.000000 -0.064524 0.000000 0.000000
# 5 0.000000 0.000000 0.000000 0.000000 -0.064524 0.000000
# 6 0.000000 0.000000 0.000000 0.000000 0.000000 0.129108
#
#
# Mechanical properties :
#
#
# Convention : Reuss Voigt Hill
#
# Bulk Modulus (GPa) = 33.68539 33.97875 33.83207
# Shear Modulus (GPa) = 69.81929 6.58116 38.20023
#
# Velocity S-wave (km/s) = 5.73665 1.76125 4.24330
# Velocity P-wave (km/s) = 7.73023 4.48908 6.32093
#
# Compressibility (1/GPa) = 0.02968646
#
# Stress axis : x y z
#
# Youngs Moduli (GPa) = 63.62734 63.62734 70.23119
#
# Poissons Ratio (x) = 0.12008 0.21439
# Poissons Ratio (y) = 0.12008 0.21439
# Poissons Ratio (z) = 0.19423 0.19423
#
# Static dielectric constant tensor:
#      x y z
#    x 1.818090 0.000000 0.000000 
#    y 0.000000 1.818090 0.000000 
#    z 0.000000 0.000000 1.817280 
# 
# From -- ./inp_files/4417.got.cif
#   From: 2010.05.17/outbox.cif.g08.bks.cpg/sg116_3_cif.got.tgz:4417.got - 2010.05.20 11:11:43.
