data_PCOD9557519
_publ_section_title
;
Structure prediction by ZEFSAII (Michael W. Deem and Ramdas Pophale) SiO2 
 PCOD9557519
Probable space group: P -4 C 2
;
_chemical_formula_sum "Si O2"
_cell_formula_units_Z 56
_cell_length_a 19.403021
_cell_length_b 19.403021
_cell_length_c 10.282888
_cell_angle_alpha 90.000000
_cell_angle_beta 90.000000
_cell_angle_gamma 90.000000
_cell_volume 3871.273128
_symmetry_space_group_name_H-M "P -4 C 2"
_symmetry_group_IT_number 116
_symmetry_cell_setting 'tetragonal'
loop_
_space_group_symop_operation_xyz
x,y,z
y,-x,-z
-x,-y,z
-y,x,-z
y,x,1/2-z
-y,-x,1/2-z
-x,y,1/2+z
x,-y,1/2+z
loop_
_atom_site_type_symbol
_atom_site_label
_atom_site_fract_x
_atom_site_fract_y
_atom_site_fract_z
Si Si1 0.484481 0.369500 0.732260
Si Si2 0.582663 0.077967 0.225356
Si Si3 0.668619 0.429217 0.530969
Si Si4 0.831641 0.569997 0.016883
Si Si5 0.920515 0.584634 0.266595
Si Si6 0.156017 0.403610 0.519313
Si Si7 0.296491 0.636954 0.134846
O O1 0.440446 0.440446 0.750000
O O2 0.487075 0.352271 0.578739
O O3 0.547768 0.364116 0.832013
O O4 0.434524 0.308947 0.787868
O O5 0.499002 0.076928 0.224034
O O6 0.607745 0.102249 0.365361
O O7 0.606711 0.999350 0.209403
O O8 0.598920 0.135304 0.116307
O O9 0.750809 0.417529 0.540117
O O10 0.641736 0.358857 0.467239
O O11 0.882531 0.596566 0.130028
O O12 0.833927 0.486503 0.014934
O O13 0.873667 0.615083 0.380117
O O14 0.225570 0.366155 0.560293
O O15 0.307142 0.692859 0.250000
#
# Coordination Sequence:
#
# PCOD9557519 Si02
#       7
#     8   8   8   8   8   8   8
#     4   9  19  34  49  64  76  98 133 178 228 276
#     4   9  16  28  41  61  87 109 126 157 197 261
#     4  10  19  31  51  65  80 102 139 178 222 273
#     4  10  18  26  44  63  82 107 132 166 214 260
#     4   9  18  26  40  64  85 105 132 157 199 256
#     4  10  17  28  45  60  84 109 132 165 212 258
#     4   9  18  31  46  65  81 104 140 177 218 272
#
# _framework density 14.465526000000001
#
# number of rings (size 3 to 8) (size 9 to 14) (size 15 to 20)
#    0.000    2.857    1.429    2.571    4.000    3.429 
#    0.000    6.429    0.000   20.571    0.000    0.000 
#    0.000    0.000    0.000    0.000    0.000    0.000 
#
# Total GULP energy -311779.375106 kJ/mol
# GULP energy per Si atom -5567.488841 kJ/mol
# Density = 1.443260 g / cm^3
# Si number density = 14.465526 Si / 1000 Ang^3
#
#
#
# Elastic Constant Matrix: (Units=GPa)
#
#
# Indices 1 2 3 4 5 6 
#
# 1 28.3218 13.3557 9.3002 0.0000 0.0000 0.0000
# 2 13.3557 28.3219 9.3005 0.0000 0.0000 0.0000
# 3 9.3002 9.3005 48.9259 0.0000 0.0000 0.0000
# 4 0.0000 0.0000 0.0000 16.5507 0.0000 0.0000
# 5 0.0000 0.0000 0.0000 0.0000 16.5506 0.0000
# 6 0.0000 0.0000 0.0000 0.0000 0.0000 4.6389
#
#
#
# Elastic Compliance Matrix: (Units=1/GPa)
#
#
# Indices 1 2 3 4 5 6 
#
# 1 0.046518 -0.020300 -0.004984 0.000000 0.000000 0.000000
# 2 -0.020300 0.046518 -0.004984 0.000000 0.000000 0.000000
# 3 -0.004984 -0.004984 0.022334 0.000000 0.000000 0.000000
# 4 0.000000 0.000000 0.000000 0.060420 0.000000 0.000000
# 5 0.000000 0.000000 0.000000 0.000000 0.060421 0.000000
# 6 0.000000 0.000000 0.000000 0.000000 0.000000 0.215567
#
#
# Mechanical properties :
#
#
# Convention : Reuss Voigt Hill
#
# Bulk Modulus (GPa) = 18.23666 18.83138 18.53402
# Shear Modulus (GPa) = 9.42347 12.45560 10.93954
#
# Velocity S-wave (km/s) = 2.55511 2.93756 2.75298
# Velocity P-wave (km/s) = 4.61943 4.95500 4.79015
#
# Compressibility (1/GPa) = 0.05483461
#
# Stress axis : x y z
#
# Youngs Moduli (GPa) = 21.49721 21.49719 44.77515
#
# Poissons Ratio (x) = 0.43639 0.22314
# Poissons Ratio (y) = 0.43639 0.22316
# Poissons Ratio (z) = 0.10713 0.10714
#
# Static dielectric constant tensor:
#      x y z
#    x 1.479540 0.000000 0.000000 
#    y 0.000000 1.479540 0.000000 
#    z 0.000000 0.000000 1.524720 
# 
# From -- ./inp_files/2063.got.cif
#   From: 2010.05.17/outbox.cif.g08.bks.cpg/sg116_2_cif.got.tgz:2063.got - 2010.05.20 11:11:43.
