data_PCOD9557171
_publ_section_title
;
Structure prediction by ZEFSAII (Michael W. Deem and Ramdas Pophale) SiO2 
 PCOD9557171
Probable space group: P -4 M 2
;
_chemical_formula_sum "Si O2"
_cell_formula_units_Z 40
_cell_length_a 9.448912
_cell_length_b 9.448912
_cell_length_c 26.095482
_cell_angle_alpha 90.000000
_cell_angle_beta 90.000000
_cell_angle_gamma 90.000000
_cell_volume 2329.855206
_symmetry_space_group_name_H-M "P -4 M 2"
_symmetry_group_IT_number 115
_symmetry_cell_setting 'tetragonal'
loop_
_space_group_symop_operation_xyz
x,y,z
y,-x,-z
-x,-y,z
-y,x,-z
y,x,-z
-y,-x,-z
-x,y,z
x,-y,z
loop_
_atom_site_type_symbol
_atom_site_label
_atom_site_fract_x
_atom_site_fract_y
_atom_site_fract_z
Si Si1 0.167692 0.332308 0.250000
Si Si2 0.669376 0.666450 0.059048
Si Si3 0.166384 0.830567 0.853244
Si Si4 0.333616 0.330567 0.353244
Si Si5 0.830624 0.833551 0.559048
O O1 0.189170 0.500000 0.240205
O O2 0.207972 0.243833 0.199876
O O3 0.256167 0.292029 0.300124
O O4 0.000000 0.310830 0.259795
O O5 0.500000 0.681978 0.065053
O O6 0.702841 0.500000 0.066587
O O7 0.751194 0.760287 0.099787
O O8 0.703511 0.703511 0.000000
O O9 0.000000 0.798635 0.850600
O O10 0.182953 0.000000 0.859671
O O11 0.500000 0.298636 0.350600
O O12 0.317047 0.500000 0.359672
O O13 0.260287 0.251193 0.400213
O O14 0.796489 0.796489 0.500000
O O15 0.000000 0.818023 0.565053
O O16 0.797158 0.000000 0.566587
#
# Coordination Sequence:
#
# PCOD9557171 Si02
#       5
#     8   8   8   8   8
#     4   9  18  34  54  73  98 138 182 215 248 299
#     4   9  19  36  56  77 102 135 175 215 255 302
#     4  10  21  35  52  78 109 137 168 210 259 307
#     4  10  21  35  52  78 109 137 168 210 259 307
#     4   9  19  36  56  77 102 135 175 215 255 302
#
# _framework density 17.16845
#
# number of rings (size 3 to 8) (size 9 to 14) (size 15 to 20)
#    0.000    2.600    0.000    2.400    0.000    6.400 
#    0.000   10.000    0.000    0.000    0.000    0.000 
#    0.000    0.000    0.000    0.000    0.000    0.000 
#
# Total GULP energy -223199.769184 kJ/mol
# GULP energy per Si atom -5579.994230 kJ/mol
# Density = 1.712937 g / cm^3
# Si number density = 17.168450 Si / 1000 Ang^3
#
#
#
# Elastic Constant Matrix: (Units=GPa)
#
#
# Indices 1 2 3 4 5 6 
#
# 1 74.6556 65.4125 103.6145 0.0000 0.0000 0.0000
# 2 65.4125 74.6556 103.6145 0.0000 0.0000 0.0000
# 3 103.6145 103.6145 194.1304 0.0000 0.0000 0.0000
# 4 0.0000 0.0000 0.0000 37.8979 0.0000 0.0000
# 5 0.0000 0.0000 0.0000 0.0000 37.8979 0.0000
# 6 0.0000 0.0000 0.0000 0.0000 0.0000 30.1121
#
#
#
# Elastic Compliance Matrix: (Units=1/GPa)
#
#
# Indices 1 2 3 4 5 6 
#
# 1 0.071065 -0.037123 -0.018116 0.000000 0.000000 0.000000
# 2 -0.037123 0.071065 -0.018116 0.000000 0.000000 0.000000
# 3 -0.018116 -0.018116 0.024489 0.000000 0.000000 0.000000
# 4 0.000000 0.000000 0.000000 0.026387 0.000000 0.000000
# 5 0.000000 0.000000 0.000000 0.000000 0.026387 0.000000
# 6 0.000000 0.000000 0.000000 0.000000 0.000000 0.033209
#
#
# Mechanical properties :
#
#
# Convention : Reuss Voigt Hill
#
# Bulk Modulus (GPa) = 50.22831 98.74719 74.48775
# Shear Modulus (GPa) = 12.31683 25.90158 19.10920
#
# Velocity S-wave (km/s) = 2.68136 3.88838 3.33985
# Velocity P-wave (km/s) = 6.23746 8.82048 7.63894
#
# Compressibility (1/GPa) = 0.01990909
#
# Stress axis : x y z
#
# Youngs Moduli (GPa) = 14.07163 14.07163 40.83394
#
# Poissons Ratio (x) = 0.52239 0.73974
# Poissons Ratio (y) = 0.52239 0.73974
# Poissons Ratio (z) = 0.25492 0.25492
#
# Static dielectric constant tensor:
#      x y z
#    x 1.567020 0.000000 0.000000 
#    y 0.000000 1.567020 0.000000 
#    z 0.000000 0.000000 1.552100 
# 
# From -- ./inp_files/5108.got.cif
#   From: 2010.05.17/outbox.cif.g08.bks.cpg/sg115_3_cif.got.tgz:5108.got - 2010.05.20 11:07:42.
