data_PCOD9557682
_publ_section_title
;
Structure prediction by ZEFSAII (Michael W. Deem and Ramdas Pophale) SiO2 
 PCOD9557682
Probable space group: P -4 C 2
;
_chemical_formula_sum "Si O2"
_cell_formula_units_Z 44
_cell_length_a 7.865170
_cell_length_b 7.865170
_cell_length_c 30.477119
_cell_angle_alpha 90.000000
_cell_angle_beta 90.000000
_cell_angle_gamma 90.000000
_cell_volume 1885.341984
_symmetry_space_group_name_H-M "P -4 C 2"
_symmetry_group_IT_number 116
_symmetry_cell_setting 'tetragonal'
loop_
_space_group_symop_operation_xyz
x,y,z
y,-x,-z
-x,-y,z
-y,x,-z
y,x,1/2-z
-y,-x,1/2-z
-x,y,1/2+z
x,-y,1/2+z
loop_
_atom_site_type_symbol
_atom_site_label
_atom_site_fract_x
_atom_site_fract_y
_atom_site_fract_z
Si Si1 0.794967 0.768138 0.113867
Si Si2 0.250537 0.378355 0.796534
Si Si3 0.235535 0.110486 0.204277
Si Si4 0.053513 0.692252 0.443256
Si Si5 0.691300 0.059749 0.462409
Si Si6 0.500000 0.500000 0.631421
O O1 0.845245 0.781753 0.164478
O O2 0.635340 0.633876 0.108598
O O3 0.942137 0.738566 0.078743
O O4 0.749947 0.961964 0.100768
O O5 0.335355 0.335355 0.750000
O O6 0.179780 0.570746 0.793812
O O7 0.382801 0.383563 0.836713
O O8 0.090732 0.254062 0.803430
O O9 0.147011 0.147011 0.250000
O O10 0.247364 0.752433 0.448083
O O11 0.000000 0.500000 0.443171
O O12 0.966529 0.761441 0.488036
O O13 0.500000 0.000000 0.468039
#
# Coordination Sequence:
#
# PCOD9557682 Si02
#       6
#     8   8   8   8   8   4
#     4  11  24  43  75 100 152 190 246 313 367 460
#     4  10  20  41  71  90 143 192 239 307 357 439
#     4  10  23  43  63 105 141 190 247 295 372 440
#     4  11  25  46  75 103 146 191 249 313 382 449
#     4  11  25  48  73 105 141 195 251 310 381 453
#     4  10  23  40  68 113 132 190 250 296 386 436
#
# _framework density 23.337938000000001
#
# number of rings (size 3 to 8) (size 9 to 14) (size 15 to 20)
#    0.000    1.455    1.818    3.000    7.636    0.364 
#   13.091    0.000    0.000    0.000    0.000    0.000 
#    0.000    0.000    0.000    0.000    0.000    0.000 
#
# Total GULP energy -245170.281351 kJ/mol
# GULP energy per Si atom -5572.051849 kJ/mol
# Density = 2.328482 g / cm^3
# Si number density = 23.337938 Si / 1000 Ang^3
#
#
#
# Elastic Constant Matrix: (Units=GPa)
#
#
# Indices 1 2 3 4 5 6 
#
# 1 62.3858 17.0469 14.9231 0.0000 0.0000 0.0000
# 2 17.0469 62.3858 14.9231 0.0000 0.0000 0.0000
# 3 14.9231 14.9231 132.8335 0.0000 0.0000 0.0000
# 4 0.0000 0.0000 0.0000 28.2642 0.0000 0.0000
# 5 0.0000 0.0000 0.0000 0.0000 28.2642 0.0000
# 6 0.0000 0.0000 0.0000 0.0000 0.0000 38.2490
#
#
#
# Elastic Compliance Matrix: (Units=1/GPa)
#
#
# Indices 1 2 3 4 5 6 
#
# 1 0.017600 -0.004456 -0.001477 0.000000 0.000000 0.000000
# 2 -0.004456 0.017600 -0.001477 0.000000 0.000000 0.000000
# 3 -0.001477 -0.001477 0.007860 0.000000 0.000000 0.000000
# 4 0.000000 0.000000 0.000000 0.035380 0.000000 0.000000
# 5 0.000000 0.000000 0.000000 0.000000 0.035380 0.000000
# 6 0.000000 0.000000 0.000000 0.000000 0.000000 0.026144
#
#
# Mechanical properties :
#
#
# Convention : Reuss Voigt Hill
#
# Bulk Modulus (GPa) = 35.40877 39.04346 37.22612
# Shear Modulus (GPa) = 30.45104 33.00296 31.72700
#
# Velocity S-wave (km/s) = 3.61610 3.76458 3.69109
# Velocity P-wave (km/s) = 5.71315 5.97176 5.84389
#
# Compressibility (1/GPa) = 0.02824159
#
# Stress axis : x y z
#
# Youngs Moduli (GPa) = 56.81781 56.81781 127.22626
#
# Poissons Ratio (x) = 0.25318 0.18787
# Poissons Ratio (y) = 0.25318 0.18787
# Poissons Ratio (z) = 0.08390 0.08390
#
# Static dielectric constant tensor:
#      x y z
#    x 1.683700 0.000000 0.000000 
#    y 0.000000 1.683700 0.000000 
#    z 0.000000 0.000000 1.884700 
# 
# From -- ./inp_files/5159.got.cif
#   From: 2010.05.17/outbox.cif.g08.bks.cpg/sg116_3_cif.got.tgz:5159.got - 2010.05.20 11:11:43.
