data_PCOD9557851
_publ_section_title
;
Structure prediction by ZEFSAII (Michael W. Deem and Ramdas Pophale) SiO2 
 PCOD9557851
Probable space group: P -4 C 2
;
_chemical_formula_sum "Si O2"
_cell_formula_units_Z 56
_cell_length_a 14.252120
_cell_length_b 14.252120
_cell_length_c 12.537835
_cell_angle_alpha 90.000000
_cell_angle_beta 90.000000
_cell_angle_gamma 90.000000
_cell_volume 2546.721712
_symmetry_space_group_name_H-M "P -4 C 2"
_symmetry_group_IT_number 116
_symmetry_cell_setting 'tetragonal'
loop_
_space_group_symop_operation_xyz
x,y,z
y,-x,-z
-x,-y,z
-y,x,-z
y,x,1/2-z
-y,-x,1/2-z
-x,y,1/2+z
x,-y,1/2+z
loop_
_atom_site_type_symbol
_atom_site_label
_atom_site_fract_x
_atom_site_fract_y
_atom_site_fract_z
Si Si1 0.550253 0.600785 0.130657
Si Si2 0.351258 0.832267 0.379470
Si Si3 0.306375 0.274512 0.478909
Si Si4 0.160000 0.839050 0.875460
Si Si5 0.933427 0.425290 0.317470
Si Si6 0.513860 0.788323 0.537670
Si Si7 0.000859 0.733652 0.485568
O O1 0.500000 0.500000 0.109906
O O2 0.589197 0.589197 0.250000
O O3 0.637344 0.629410 0.055900
O O4 0.487988 0.694050 0.110497
O O5 0.278461 0.750099 0.409553
O O6 0.378424 0.858715 0.261426
O O7 0.439184 0.789843 0.444265
O O8 0.317472 0.928531 0.433971
O O9 0.226972 0.252785 0.392425
O O10 0.384685 0.196401 0.487040
O O11 0.145702 0.854299 0.750000
O O12 0.061123 0.814498 0.928927
O O13 0.215483 0.918590 0.943407
O O14 0.878094 0.500148 0.390179
O O15 0.000000 0.500000 0.255597
O O16 0.973217 0.341681 0.392214
#
# Coordination Sequence:
#
# PCOD9557851 Si02
#       7
#     8   8   8   8   8   8   8
#     4  10  24  40  61  93 136 191 239 282 336 405
#     4  10  25  42  65  97 137 180 232 286 355 414
#     4  10  23  42  64  95 139 179 235 288 339 414
#     4  11  24  46  76 100 135 178 220 284 362 432
#     4  12  25  42  70  99 140 183 230 296 360 416
#     4  11  24  41  65 100 135 183 241 293 341 413
#     4  11  24  48  67 107 133 174 227 287 347 440
#
# _framework density 21.989053999999999
#
# number of rings (size 3 to 8) (size 9 to 14) (size 15 to 20)
#    0.000    1.286    2.857    1.286    8.000    3.143 
#    0.000    2.857    0.000    0.000    0.000    0.000 
#    0.000    0.000    0.000    0.000    0.000    0.000 
#
# Total GULP energy -311937.050432 kJ/mol
# GULP energy per Si atom -5570.304472 kJ/mol
# Density = 2.193901 g / cm^3
# Si number density = 21.989054 Si / 1000 Ang^3
#
#
#
# Elastic Constant Matrix: (Units=GPa)
#
#
# Indices 1 2 3 4 5 6 
#
# 1 81.1720 52.9409 34.7772 0.0000 0.0000 0.0000
# 2 52.9409 81.1719 34.7772 0.0000 0.0000 0.0000
# 3 34.7772 34.7772 87.2692 0.0000 0.0000 0.0000
# 4 0.0000 0.0000 0.0000 27.2690 0.0000 0.0000
# 5 0.0000 0.0000 0.0000 0.0000 27.2690 0.0000
# 6 0.0000 0.0000 0.0000 0.0000 0.0000 42.1427
#
#
#
# Elastic Compliance Matrix: (Units=1/GPa)
#
#
# Indices 1 2 3 4 5 6 
#
# 1 0.022410 -0.013012 -0.003746 0.000000 0.000000 0.000000
# 2 -0.013012 0.022410 -0.003746 0.000000 0.000000 0.000000
# 3 -0.003746 -0.003746 0.014444 0.000000 0.000000 0.000000
# 4 0.000000 0.000000 0.000000 0.036672 0.000000 0.000000
# 5 0.000000 0.000000 0.000000 0.000000 0.036672 0.000000
# 6 0.000000 0.000000 0.000000 0.000000 0.000000 0.023729
#
#
# Mechanical properties :
#
#
# Convention : Reuss Voigt Hill
#
# Bulk Modulus (GPa) = 54.76515 54.95599 54.86057
# Shear Modulus (GPa) = 24.57860 27.81065 26.19462
#
# Velocity S-wave (km/s) = 3.34693 3.56019 3.45520
# Velocity P-wave (km/s) = 6.31630 6.47662 6.39696
#
# Compressibility (1/GPa) = 0.01825979
#
# Stress axis : x y z
#
# Youngs Moduli (GPa) = 44.62198 44.62196 69.23288
#
# Poissons Ratio (x) = 0.58060 0.25931
# Poissons Ratio (y) = 0.58060 0.25931
# Poissons Ratio (z) = 0.16713 0.16713
#
# Static dielectric constant tensor:
#      x y z
#    x 1.928030 0.000000 0.000000 
#    y 0.000000 1.928030 0.000000 
#    z 0.000000 0.000000 1.791700 
# 
# From -- ./inp_files/2005.got.cif
#   From: 2010.05.17/outbox.cif.g08.bks.cpg/sg116_2_cif.got.tgz:2005.got - 2010.05.20 11:11:43.
