data_PCOD9557179
_publ_section_title
;
Structure prediction by ZEFSAII (Michael W. Deem and Ramdas Pophale) SiO2 
 PCOD9557179
Probable space group: P -4 M 2
;
_chemical_formula_sum "Si O2"
_cell_formula_units_Z 48
_cell_length_a 9.295591
_cell_length_b 9.295591
_cell_length_c 31.431076
_cell_angle_alpha 90.000000
_cell_angle_beta 90.000000
_cell_angle_gamma 90.000000
_cell_volume 2715.896793
_symmetry_space_group_name_H-M "P -4 M 2"
_symmetry_group_IT_number 115
_symmetry_cell_setting 'tetragonal'
loop_
_space_group_symop_operation_xyz
x,y,z
y,-x,-z
-x,-y,z
-y,x,-z
y,x,-z
-y,-x,-z
-x,y,z
x,-y,z
loop_
_atom_site_type_symbol
_atom_site_label
_atom_site_fract_x
_atom_site_fract_y
_atom_site_fract_z
Si Si1 0.671282 0.828689 0.538934
Si Si2 0.331482 0.172019 0.286960
Si Si3 0.671374 0.329914 0.125278
Si Si4 0.831209 0.672194 0.211531
Si Si5 0.829479 0.671556 0.961593
Si Si6 0.171163 0.328536 0.614845
O O1 0.750155 0.750155 0.500000
O O2 0.500000 0.803817 0.536754
O O3 0.736896 0.762716 0.581956
O O4 0.696121 0.000000 0.536897
O O5 0.500000 0.207242 0.280687
O O6 0.237930 0.252154 0.252166
O O7 0.294706 0.206922 0.335987
O O8 0.316301 0.000000 0.282344
O O9 0.500000 0.312744 0.131742
O O10 0.699683 0.500000 0.118274
O O11 0.753030 0.283285 0.167850
O O12 0.713123 0.241992 0.083370
O O13 0.812135 0.500000 0.215471
O O14 0.000000 0.703255 0.208867
O O15 0.804642 0.500000 0.967246
O O16 0.000000 0.696320 0.960666
O O17 0.755956 0.755956 0.000000
O O18 0.194395 0.500000 0.608436
O O19 0.000000 0.302908 0.608613
#
# Coordination Sequence:
#
# PCOD9557179 Si02
#       6
#     8   8   8   8   8   8
#     4  11  24  39  56  81 111 142 178 220 265 315
#     4   9  19  36  57  80 107 141 180 221 264 312
#     4   9  18  34  55  76 101 138 182 222 260 308
#     4  10  21  35  52  78 111 143 176 218 266 314
#     4  10  21  36  55  80 108 138 173 215 263 314
#     4   9  19  37  59  82 108 139 178 222 266 314
#
# _framework density 17.673722000000001
#
# number of rings (size 3 to 8) (size 9 to 14) (size 15 to 20)
#    0.000    2.333    0.000    3.000    0.000    8.667 
#    0.000    8.333    0.000    0.000    0.000    0.000 
#    0.000    0.000    0.000    0.000    0.000    0.000 
#
# Total GULP energy -267992.348448 kJ/mol
# GULP energy per Si atom -5583.173926 kJ/mol
# Density = 1.763350 g / cm^3
# Si number density = 17.673722 Si / 1000 Ang^3
#
#
#
# Elastic Constant Matrix: (Units=GPa)
#
#
# Indices 1 2 3 4 5 6 
#
# 1 79.1236 75.4015 100.8268 0.0000 0.0000 0.0000
# 2 75.4015 79.1236 100.8268 0.0000 0.0000 0.0000
# 3 100.8268 100.8268 184.0994 0.0000 0.0000 0.0000
# 4 0.0000 0.0000 0.0000 140.1763 0.0000 0.0000
# 5 0.0000 0.0000 0.0000 0.0000 140.1763 0.0000
# 6 0.0000 0.0000 0.0000 0.0000 0.0000 28.8438
#
#
#
# Elastic Compliance Matrix: (Units=1/GPa)
#
#
# Indices 1 2 3 4 5 6 
#
# 1 0.145676 -0.122992 -0.012423 0.000000 0.000000 0.000000
# 2 -0.122992 0.145676 -0.012423 0.000000 0.000000 0.000000
# 3 -0.012423 -0.012423 0.019040 0.000000 0.000000 0.000000
# 4 0.000000 0.000000 0.000000 0.007134 0.000000 0.000000
# 5 0.000000 0.000000 0.000000 0.000000 0.007134 0.000000
# 6 0.000000 0.000000 0.000000 0.000000 0.000000 0.034670
#
#
# Mechanical properties :
#
#
# Convention : Reuss Voigt Hill
#
# Bulk Modulus (GPa) = 67.96276 99.60633 83.78455
# Shear Modulus (GPa) = 7.57678 66.19204 36.88441
#
# Velocity S-wave (km/s) = 2.07276 6.12646 4.57329
# Velocity P-wave (km/s) = 6.65327 10.32112 8.68307
#
# Compressibility (1/GPa) = 0.01471394
#
# Stress axis : x y z
#
# Youngs Moduli (GPa) = 6.86456 6.86456 52.52140
#
# Poissons Ratio (x) = 0.84429 0.65249
# Poissons Ratio (y) = 0.84429 0.65249
# Poissons Ratio (z) = 0.08528 0.08528
#
# Static dielectric constant tensor:
#      x y z
#    x 1.584230 0.000000 0.000000 
#    y 0.000000 1.584230 0.000000 
#    z 0.000000 0.000000 1.577140 
# 
# From -- ./inp_files/5988.got.cif
#   From: 2010.05.17/outbox.cif.g08.bks.cpg/sg115_3_cif.got.tgz:5988.got - 2010.05.20 11:07:42.
