data_PCOD9557602
_publ_section_title
;
Structure prediction by ZEFSAII (Michael W. Deem and Ramdas Pophale) SiO2 
 PCOD9557602
Probable space group: P -4 C 2
;
_chemical_formula_sum "Si O2"
_cell_formula_units_Z 56
_cell_length_a 11.298956
_cell_length_b 11.298956
_cell_length_c 22.557655
_cell_angle_alpha 90.000000
_cell_angle_beta 90.000000
_cell_angle_gamma 90.000000
_cell_volume 2879.854757
_symmetry_space_group_name_H-M "P -4 C 2"
_symmetry_group_IT_number 116
_symmetry_cell_setting 'tetragonal'
loop_
_space_group_symop_operation_xyz
x,y,z
y,-x,-z
-x,-y,z
-y,x,-z
y,x,1/2-z
-y,-x,1/2-z
-x,y,1/2+z
x,-y,1/2+z
loop_
_atom_site_type_symbol
_atom_site_label
_atom_site_fract_x
_atom_site_fract_y
_atom_site_fract_z
Si Si1 0.939890 0.191785 0.001570
Si Si2 0.928443 0.318078 0.127339
Si Si3 0.280653 0.240700 0.180390
Si Si4 0.817831 0.552560 0.115779
Si Si5 0.589774 0.890563 0.088538
Si Si6 0.118202 0.956798 0.816163
Si Si7 0.305550 0.510010 0.495436
O O1 0.921187 0.292069 0.950628
O O2 0.910612 0.254531 0.064284
O O3 0.075531 0.143485 0.004746
O O4 0.831860 0.418629 0.138280
O O5 0.054410 0.386194 0.123431
O O6 0.943889 0.217941 0.177341
O O7 0.265438 0.265438 0.250000
O O8 0.278266 0.367431 0.148774
O O9 0.379304 0.153201 0.155128
O O10 0.161575 0.174028 0.158759
O O11 0.782352 0.548217 0.047542
O O12 0.529829 0.776634 0.058104
O O13 0.500000 0.000000 0.087286
O O14 0.080450 0.919551 0.750000
O O15 0.000000 0.000000 0.848287
O O16 0.397958 0.615391 0.483775
#
# Coordination Sequence:
#
# PCOD9557602 Si02
#       7
#     8   8   8   8   8   8   8
#     4  11  24  36  58  92 132 168 197 253 334 394
#     4  10  20  32  58  89 116 164 204 252 311 377
#     4  10  22  43  64  86 124 172 213 271 329 377
#     4  10  19  38  60  87 117 156 217 254 305 391
#     4  12  25  40  65  98 132 162 223 280 322 401
#     4   9  19  36  58  85 124 166 210 256 315 388
#     4  11  23  40  65  91 125 168 206 261 332 385
#
# _framework density 19.445423999999999
#
# number of rings (size 3 to 8) (size 9 to 14) (size 15 to 20)
#    0.000    1.571    2.857    2.571    6.000    0.000 
#    7.714    0.000    0.000    1.714    0.000    0.000 
#    0.000    0.000    0.000    0.000    0.000    0.000 
#
# Total GULP energy -312189.902727 kJ/mol
# GULP energy per Si atom -5574.819692 kJ/mol
# Density = 1.940117 g / cm^3
# Si number density = 19.445424 Si / 1000 Ang^3
#
#
#
# Elastic Constant Matrix: (Units=GPa)
#
#
# Indices 1 2 3 4 5 6 
#
# 1 84.2695 44.2595 27.2929 0.0000 0.0000 0.0000
# 2 44.2595 84.2694 27.2931 0.0000 0.0000 0.0000
# 3 27.2929 27.2931 77.6047 0.0000 0.0000 0.0000
# 4 0.0000 0.0000 0.0000 19.1070 0.0000 0.0000
# 5 0.0000 0.0000 0.0000 0.0000 19.1070 0.0000
# 6 0.0000 0.0000 0.0000 0.0000 0.0000 26.0354
#
#
#
# Elastic Compliance Matrix: (Units=1/GPa)
#
#
# Indices 1 2 3 4 5 6 
#
# 1 0.017070 -0.007924 -0.003217 0.000000 0.000000 0.000000
# 2 -0.007924 0.017070 -0.003217 0.000000 0.000000 0.000000
# 3 -0.003217 -0.003217 0.015148 0.000000 0.000000 0.000000
# 4 0.000000 0.000000 0.000000 0.052337 0.000000 0.000000
# 5 0.000000 0.000000 0.000000 0.000000 0.052337 0.000000
# 6 0.000000 0.000000 0.000000 0.000000 0.000000 0.038409
#
#
# Mechanical properties :
#
#
# Convention : Reuss Voigt Hill
#
# Bulk Modulus (GPa) = 48.60405 49.31493 48.95949
# Shear Modulus (GPa) = 21.93522 22.66977 22.30250
#
# Velocity S-wave (km/s) = 3.36227 3.41811 3.39031
# Velocity P-wave (km/s) = 6.33424 6.40263 6.36853
#
# Compressibility (1/GPa) = 0.02057442
#
# Stress axis : x y z
#
# Youngs Moduli (GPa) = 58.58194 58.58175 66.01349
#
# Poissons Ratio (x) = 0.46418 0.21235
# Poissons Ratio (y) = 0.46418 0.21235
# Poissons Ratio (z) = 0.18844 0.18845
#
# Static dielectric constant tensor:
#      x y z
#    x 1.729870 0.000000 0.000000 
#    y 0.000000 1.729870 0.000000 
#    z 0.000000 0.000000 1.636970 
# 
# From -- ./inp_files/4611.got.cif
#   From: 2010.05.17/outbox.cif.g08.bks.cpg/sg116_3_cif.got.tgz:4611.got - 2010.05.20 11:11:43.
