data_PCOD9557655
_publ_section_title
;
Structure prediction by ZEFSAII (Michael W. Deem and Ramdas Pophale) SiO2 
 PCOD9557655
Probable space group: P -4 C 2
;
_chemical_formula_sum "Si O2"
_cell_formula_units_Z 34
_cell_length_a 8.684599
_cell_length_b 8.684599
_cell_length_c 21.908766
_cell_angle_alpha 90.000000
_cell_angle_beta 90.000000
_cell_angle_gamma 90.000000
_cell_volume 1652.408641
_symmetry_space_group_name_H-M "P -4 C 2"
_symmetry_group_IT_number 116
_symmetry_cell_setting 'tetragonal'
loop_
_space_group_symop_operation_xyz
x,y,z
y,-x,-z
-x,-y,z
-y,x,-z
y,x,1/2-z
-y,-x,1/2-z
-x,y,1/2+z
x,-y,1/2+z
loop_
_atom_site_type_symbol
_atom_site_label
_atom_site_fract_x
_atom_site_fract_y
_atom_site_fract_z
Si Si1 0.000000 0.000000 0.398736
Si Si2 0.791891 0.233366 0.677816
Si Si3 0.267246 0.193133 0.953793
Si Si4 0.436587 0.245044 0.073007
Si Si5 0.500000 0.500000 0.000000
Si Si6 0.000000 0.500000 0.129140
O O1 0.898764 0.891831 0.354719
O O2 0.111399 0.895906 0.439438
O O3 0.781890 0.218111 0.750000
O O4 0.629721 0.227803 0.640367
O O5 0.884490 0.390610 0.665769
O O6 0.240147 0.377218 0.937113
O O7 0.390242 0.110296 0.910211
O O8 0.336872 0.157231 0.021490
O O9 0.391457 0.414587 0.047190
#
# Coordination Sequence:
#
# PCOD9557655 Si02
#       6
#     4   8   8   8   2   4
#     4  10  25  43  62  88 127 173 216 262 334 403
#     4  11  24  41  61  90 127 171 219 268 326 397
#     4  10  22  42  67  96 128 166 214 277 335 389
#     4  10  20  37  64  92 122 158 209 267 322 380
#     4   8  16  36  58  88 120 148 188 258 324 364
#     4  10  22  42  64  90 128 168 214 272 332 396
#
# _framework density 20.576024
#
# number of rings (size 3 to 8) (size 9 to 14) (size 15 to 20)
#    0.000    1.882    0.000    4.588    0.000    9.412 
#    0.000    7.647    0.000    0.000    0.000    0.000 
#    0.000    0.000    0.000    0.000    0.000    0.000 
#
# Total GULP energy -189330.488572 kJ/mol
# GULP energy per Si atom -5568.543782 kJ/mol
# Density = 2.052919 g / cm^3
# Si number density = 20.576024 Si / 1000 Ang^3
#
#
#
# Elastic Constant Matrix: (Units=GPa)
#
#
# Indices 1 2 3 4 5 6 
#
# 1 142.4431 64.6423 72.2812 0.0000 0.0000 0.0000
# 2 64.6423 142.4434 72.2816 0.0000 0.0000 0.0000
# 3 72.2812 72.2816 155.3026 0.0000 0.0000 0.0000
# 4 0.0000 0.0000 0.0000 21.4949 0.0000 0.0000
# 5 0.0000 0.0000 0.0000 0.0000 21.4949 0.0000
# 6 0.0000 0.0000 0.0000 0.0000 0.0000 34.3217
#
#
#
# Elastic Compliance Matrix: (Units=1/GPa)
#
#
# Indices 1 2 3 4 5 6 
#
# 1 0.010003 -0.002850 -0.003329 0.000000 0.000000 0.000000
# 2 -0.002850 0.010003 -0.003329 0.000000 0.000000 0.000000
# 3 -0.003329 -0.003329 0.009538 0.000000 0.000000 0.000000
# 4 0.000000 0.000000 0.000000 0.046523 0.000000 0.000000
# 5 0.000000 0.000000 0.000000 0.000000 0.046523 0.000000
# 6 0.000000 0.000000 0.000000 0.000000 0.000000 0.029136
#
#
# Mechanical properties :
#
#
# Convention : Reuss Voigt Hill
#
# Bulk Modulus (GPa) = 94.99140 95.39993 95.19566
# Shear Modulus (GPa) = 28.69412 30.86122 29.77767
#
# Velocity S-wave (km/s) = 3.73841 3.87701 3.80834
# Velocity P-wave (km/s) = 8.05609 8.15517 8.10578
#
# Compressibility (1/GPa) = 0.01052727
#
# Stress axis : x y z
#
# Youngs Moduli (GPa) = 99.96875 99.96871 104.84428
#
# Poissons Ratio (x) = 0.28493 0.34904
# Poissons Ratio (y) = 0.28493 0.34904
# Poissons Ratio (z) = 0.33281 0.33281
#
# Static dielectric constant tensor:
#      x y z
#    x 1.843590 0.000000 0.000000 
#    y 0.000000 1.843590 0.000000 
#    z 0.000000 0.000000 1.692710 
# 
# From -- ./inp_files/3962.got.cif
#   From: 2010.05.17/outbox.cif.g08.bks.cpg/sg116_2_cif.got.tgz:3962.got - 2010.05.20 11:11:43.
