data_PCOD9557420
_publ_section_title
;
Structure prediction by ZEFSAII (Michael W. Deem and Ramdas Pophale) SiO2 
 PCOD9557420
Probable space group: P -4 M 2
;
_chemical_formula_sum "Si O2"
_cell_formula_units_Z 39
_cell_length_a 11.782350
_cell_length_b 11.782350
_cell_length_c 15.206222
_cell_angle_alpha 90.000000
_cell_angle_beta 90.000000
_cell_angle_gamma 90.000000
_cell_volume 2110.985089
_symmetry_space_group_name_H-M "P -4 M 2"
_symmetry_group_IT_number 115
_symmetry_cell_setting 'tetragonal'
loop_
_space_group_symop_operation_xyz
x,y,z
y,-x,-z
-x,-y,z
-y,x,-z
y,x,-z
-y,-x,-z
-x,y,z
x,-y,z
loop_
_atom_site_type_symbol
_atom_site_label
_atom_site_fract_x
_atom_site_fract_y
_atom_site_fract_z
Si Si1 0.737877 0.210920 0.753871
Si Si2 0.000000 0.000000 0.000000
Si Si3 0.500000 0.252695 0.677347
Si Si4 0.500000 0.500000 0.358825
Si Si5 0.000000 0.868905 0.168084
Si Si6 0.367849 0.636247 0.899311
Si Si7 0.732463 0.135440 0.424631
Si Si8 0.262233 0.500000 0.533177
O O1 0.613423 0.192376 0.710644
O O2 0.796677 0.107162 0.802415
O O3 0.711861 0.307746 0.826051
O O4 0.819857 0.237085 0.672192
O O5 0.107318 0.000000 0.935857
O O6 0.500000 0.387273 0.700922
O O7 0.500000 0.266959 0.572114
O O8 0.500000 0.615671 0.417450
O O9 0.000000 0.000000 0.204934
O O10 0.500000 0.673764 0.888747
O O11 0.365185 0.500000 0.892715
O O12 0.334374 0.665626 0.000000
O O13 0.816566 0.183435 0.500000
O O14 0.611492 0.193422 0.442120
O O15 0.727950 0.000000 0.428508
#
# Coordination Sequence:
#
# PCOD9557420 Si02
#       8
#     8   1   4   2   4   8   8   4
#     4  12  24  41  68 100 132 172 229 284 339 414
#     4   8  24  56  84  92 110 188 240 308 340 408
#     4  12  23  36  66 100 136 183 223 285 340 410
#     4  12  21  38  68  98 143 186 239 270 352 416
#     4  10  26  49  73  95 121 170 233 287 349 410
#     4   9  20  38  63  99 138 171 205 260 339 413
#     4  12  27  44  65  94 135 186 233 290 341 404
#     4  12  22  44  63  98 138 187 241 283 343 415
#
# _framework density 18.474786000000002
#
# number of rings (size 3 to 8) (size 9 to 14) (size 15 to 20)
#    0.308    0.615    5.128    2.462    5.744    0.615 
#    1.846    0.000    0.000    0.000    0.000    0.000 
#    0.000    0.000    0.000    0.000    0.000    0.000 
#
# Total GULP energy -217700.680748 kJ/mol
# GULP energy per Si atom -5582.068737 kJ/mol
# Density = 1.843274 g / cm^3
# Si number density = 18.474786 Si / 1000 Ang^3
#
#
#
# Elastic Constant Matrix: (Units=GPa)
#
#
# Indices 1 2 3 4 5 6 
#
# 1 129.5150 65.9851 58.9857 0.0000 0.0000 0.0000
# 2 65.9851 129.5150 58.9868 0.0000 0.0000 0.0000
# 3 58.9857 58.9868 150.4076 0.0000 0.0000 0.0000
# 4 0.0000 0.0000 0.0000 30.3635 0.0000 0.0000
# 5 0.0000 0.0000 0.0000 0.0000 30.3629 0.0000
# 6 0.0000 0.0000 0.0000 0.0000 0.0000 -37.5949
#
#
#
# Elastic Compliance Matrix: (Units=1/GPa)
#
#
# Indices 1 2 3 4 5 6 
#
# 1 0.011221 -0.004520 -0.002628 0.000000 0.000000 0.000000
# 2 -0.004520 0.011221 -0.002628 0.000000 0.000000 0.000000
# 3 -0.002628 -0.002628 0.008710 0.000000 0.000000 0.000000
# 4 0.000000 0.000000 0.000000 0.032934 0.000000 0.000000
# 5 0.000000 0.000000 0.000000 0.000000 0.032935 0.000000
# 6 0.000000 0.000000 0.000000 0.000000 0.000000 -0.026599
#
#
# Mechanical properties :
#
#
# Convention : Reuss Voigt Hill
#
# Bulk Modulus (GPa) = 86.20777 86.37253 86.29015
# Shear Modulus (GPa) = 53.28261 19.65830 36.47046
#
# Velocity S-wave (km/s) = 5.37618 3.26553 4.44787
# Velocity P-wave (km/s) = 9.23588 7.81482 8.55491
#
# Compressibility (1/GPa) = 0.01159988
#
# Stress axis : x y z
#
# Youngs Moduli (GPa) = 89.12103 89.12025 114.81301
#
# Poissons Ratio (x) = 0.40281 0.30171
# Poissons Ratio (y) = 0.40281 0.30173
# Poissons Ratio (z) = 0.23420 0.23421
#
# Static dielectric constant tensor:
#      x y z
#    x 1.608390 0.000000 0.000000 
#    y 0.000000 1.608390 0.000000 
#    z 0.000000 0.000000 1.690040 
# 
# From -- ./inp_files/3680.got.cif
#   From: 2010.05.17/outbox.cif.g08.bks.cpg/sg115_2_cif.got.tgz:3680.got - 2010.05.20 11:07:42.
