data_PCOD9557142
_publ_section_title
;
Structure prediction by ZEFSAII (Michael W. Deem and Ramdas Pophale) SiO2 
 PCOD9557142
Probable space group: P -4 M 2
;
_chemical_formula_sum "Si O2"
_cell_formula_units_Z 40
_cell_length_a 9.198747
_cell_length_b 9.198747
_cell_length_c 26.739633
_cell_angle_alpha 90.000000
_cell_angle_beta 90.000000
_cell_angle_gamma 90.000000
_cell_volume 2262.626092
_symmetry_space_group_name_H-M "P -4 M 2"
_symmetry_group_IT_number 115
_symmetry_cell_setting 'tetragonal'
loop_
_space_group_symop_operation_xyz
x,y,z
y,-x,-z
-x,-y,z
-y,x,-z
y,x,-z
-y,-x,-z
-x,y,z
x,-y,z
loop_
_atom_site_type_symbol
_atom_site_label
_atom_site_fract_x
_atom_site_fract_y
_atom_site_fract_z
Si Si1 0.174257 0.825744 0.000000
Si Si2 0.325951 0.328944 0.798273
Si Si3 0.174777 0.826781 0.890688
Si Si4 0.173856 0.172127 0.407323
Si Si5 0.173236 0.328320 0.304182
Si Si6 0.327218 0.327218 0.500000
O O1 0.226963 0.773287 0.054220
O O2 0.000000 0.803589 0.000362
O O3 0.500000 0.308411 0.802760
O O4 0.295270 0.500000 0.797194
O O5 0.248991 0.254673 0.845160
O O6 0.281347 0.255765 0.745865
O O7 0.000000 0.808741 0.888516
O O8 0.203543 0.000000 0.887198
O O9 0.213694 0.238692 0.353444
O O10 0.258524 0.252398 0.451317
O O11 0.000000 0.194688 0.414082
O O12 0.201377 0.000000 0.408696
O O13 0.202658 0.500000 0.312712
O O14 0.000000 0.312249 0.296258
O O15 0.301663 0.500000 0.498342
#
# Coordination Sequence:
#
# PCOD9557142 Si02
#       6
#     4   8   8   8   8   4
#     4   7  12  26  48  73  98 124 160 209 260 305
#     4  10  21  35  50  72 105 141 173 208 253 305
#     4   9  17  31  53  77  99 127 167 214 260 307
#     4  10  21  37  58  84 111 137 169 213 262 308
#     4   9  18  34  55  76 101 137 178 216 254 300
#     4  11  24  39  56  80 110 145 182 215 250 298
#
# _framework density 17.678571000000002
#
# number of rings (size 3 to 8) (size 9 to 14) (size 15 to 20)
#    0.000    2.600    0.000    3.000    0.000    6.400 
#    0.000    5.000    0.000    4.800    0.000    0.000 
#    0.000    0.000    0.000    0.000    0.000    0.000 
#
# Total GULP energy -223094.066150 kJ/mol
# GULP energy per Si atom -5577.351654 kJ/mol
# Density = 1.763833 g / cm^3
# Si number density = 17.678571 Si / 1000 Ang^3
#
#
#
# Elastic Constant Matrix: (Units=GPa)
#
#
# Indices 1 2 3 4 5 6 
#
# 1 59.6171 56.8919 92.6893 0.0000 0.0000 0.0000
# 2 56.8919 59.6175 92.6894 0.0000 0.0000 0.0000
# 3 92.6893 92.6894 233.7728 0.0000 0.0000 0.0000
# 4 0.0000 0.0000 0.0000-1161.5771 0.0000 0.0000
# 5 0.0000 0.0000 0.0000 0.0000-1159.5579 0.0000
# 6 0.0000 0.0000 0.0000 0.0000 0.0000 24.9889
#
#
#
# Elastic Compliance Matrix: (Units=1/GPa)
#
#
# Indices 1 2 3 4 5 6 
#
# 1 0.195088 -0.171835 -0.009220 0.000000 0.000000 0.000000
# 2 -0.171835 0.195085 -0.009219 0.000000 0.000000 0.000000
# 3 -0.009220 -0.009219 0.011588 0.000000 0.000000 0.000000
# 4 0.000000 0.000000 0.000000 -0.000861 0.000000 0.000000
# 5 0.000000 0.000000 0.000000 0.000000 -0.000862 0.000000
# 6 0.000000 0.000000 0.000000 0.000000 0.000000 0.040018
#
#
# Mechanical properties :
#
#
# Convention : Reuss Voigt Hill
#
# Bulk Modulus (GPa) = 47.13633 93.06098 70.09866
# Shear Modulus (GPa) = 6.04103 -451.84678 -222.90287
#
# Velocity S-wave (km/s) = 1.85056 -16.00453 -11.24101
# Velocity P-wave (km/s) = 5.59347 16.99329 11.34647
#
# Compressibility (1/GPa) = 0.02121506
#
# Stress axis : x y z
#
# Youngs Moduli (GPa) = 5.12590 5.12597 86.29404
#
# Poissons Ratio (x) = 0.88082 0.79560
# Poissons Ratio (y) = 0.88081 0.79551
# Poissons Ratio (z) = 0.04726 0.04725
#
# Static dielectric constant tensor:
#      x y z
#    x 1.588900 0.000000 0.000000 
#    y 0.000000 1.588900 0.000000 
#    z 0.000000 0.000000 1.596380 
# 
# From -- ./inp_files/5566.got.cif
#   From: 2010.05.17/outbox.cif.g08.bks.cpg/sg115_3_cif.got.tgz:5566.got - 2010.05.20 11:07:42.
