data_PCOD9557415
_publ_section_title
;
Structure prediction by ZEFSAII (Michael W. Deem and Ramdas Pophale) SiO2 
 PCOD9557415
Probable space group: P -4 M 2
;
_chemical_formula_sum "Si O2"
_cell_formula_units_Z 37
_cell_length_a 12.412030
_cell_length_b 12.412030
_cell_length_c 14.338201
_cell_angle_alpha 90.000000
_cell_angle_beta 90.000000
_cell_angle_gamma 90.000000
_cell_volume 2208.921577
_symmetry_space_group_name_H-M "P -4 M 2"
_symmetry_group_IT_number 115
_symmetry_cell_setting 'tetragonal'
loop_
_space_group_symop_operation_xyz
x,y,z
y,-x,-z
-x,-y,z
-y,x,-z
y,x,-z
-y,-x,-z
-x,y,z
x,-y,z
loop_
_atom_site_type_symbol
_atom_site_label
_atom_site_fract_x
_atom_site_fract_y
_atom_site_fract_z
Si Si1 0.624338 0.870589 0.583234
Si Si2 0.500000 0.623814 0.818663
Si Si3 0.282236 0.743394 0.754503
Si Si4 0.628688 0.121379 0.375848
Si Si5 0.500000 0.500000 0.000000
Si Si6 0.872633 0.875191 0.111519
O O1 0.500000 0.833535 0.591304
O O2 0.687483 0.823914 0.670384
O O3 0.664807 0.842211 0.479317
O O4 0.624777 0.000000 0.586601
O O5 0.500000 0.500000 0.779187
O O6 0.391890 0.686931 0.789860
O O7 0.500000 0.601088 0.930017
O O8 0.202477 0.659434 0.705039
O O9 0.213635 0.804678 0.833303
O O10 0.500000 0.114923 0.382309
O O11 0.670336 0.000000 0.358321
O O12 0.000000 0.863801 0.133283
O O13 0.842162 0.000000 0.133787
O O14 0.861187 0.861187 0.000000
#
# Coordination Sequence:
#
# PCOD9557415 Si02
#       6
#     8   4   8   8   1   8
#     4   9  18  33  50  75 110 141 171 213 266 314
#     4  10  24  38  55  74 107 144 182 232 285 315
#     4  12  19  33  57  83 100 141 187 223 262 323
#     4   9  19  34  52  74 108 146 177 215 261 314
#     4   8  24  48  48  64 110 148 176 232 288 328
#     4   9  20  37  56  81 110 137 170 222 282 331
#
# _framework density 16.750256
#
# number of rings (size 3 to 8) (size 9 to 14) (size 15 to 20)
#    0.324    1.946    1.081    4.541    1.514    0.000 
#    0.000    0.000    0.000    0.000    0.000    9.081 
#    0.000    0.000    0.000    0.000    0.000    0.000 
#
# Total GULP energy -206048.335438 kJ/mol
# GULP energy per Si atom -5568.873931 kJ/mol
# Density = 1.671213 g / cm^3
# Si number density = 16.750256 Si / 1000 Ang^3
#
#
#
# Elastic Constant Matrix: (Units=GPa)
#
#
# Indices 1 2 3 4 5 6 
#
# 1 92.2840 60.5512 57.9578 0.0000 0.0000 0.0000
# 2 60.5512 92.2840 57.9578 0.0000 0.0000 0.0000
# 3 57.9578 57.9578 102.6080 0.0000 0.0000 0.0000
# 4 0.0000 0.0000 0.0000 30.4054 0.0000 0.0000
# 5 0.0000 0.0000 0.0000 0.0000 30.4054 0.0000
# 6 0.0000 0.0000 0.0000 0.0000 0.0000 28.5865
#
#
#
# Elastic Compliance Matrix: (Units=1/GPa)
#
#
# Indices 1 2 3 4 5 6 
#
# 1 0.021480 -0.010033 -0.006466 0.000000 0.000000 0.000000
# 2 -0.010033 0.021480 -0.006466 0.000000 0.000000 0.000000
# 3 -0.006466 -0.006466 0.017050 0.000000 0.000000 0.000000
# 4 0.000000 0.000000 0.000000 0.032889 0.000000 0.000000
# 5 0.000000 0.000000 0.000000 0.000000 0.032889 0.000000
# 6 0.000000 0.000000 0.000000 0.000000 0.000000 0.034982
#
#
# Mechanical properties :
#
#
# Convention : Reuss Voigt Hill
#
# Bulk Modulus (GPa) = 71.01807 71.12329 71.07068
# Shear Modulus (GPa) = 23.65272 25.26005 24.45639
#
# Velocity S-wave (km/s) = 3.76184 3.88756 3.82522
# Velocity P-wave (km/s) = 7.83319 7.91859 7.87600
#
# Compressibility (1/GPa) = 0.01408092
#
# Stress axis : x y z
#
# Youngs Moduli (GPa) = 46.55499 46.55499 58.65078
#
# Poissons Ratio (x) = 0.46709 0.37922
# Poissons Ratio (y) = 0.46709 0.37922
# Poissons Ratio (z) = 0.30101 0.30101
#
# Static dielectric constant tensor:
#      x y z
#    x 1.563040 0.000000 0.000000 
#    y 0.000000 1.563040 0.000000 
#    z 0.000000 0.000000 1.557890 
# 
# From -- ./inp_files/3634.got.cif
#   From: 2010.05.17/outbox.cif.g08.bks.cpg/sg115_2_cif.got.tgz:3634.got - 2010.05.20 11:07:42.
