data_PCOD9557394
_publ_section_title
;
Structure prediction by ZEFSAII (Michael W. Deem and Ramdas Pophale) SiO2 
 PCOD9557394
Probable space group: P -4 M 2
;
_chemical_formula_sum "Si O2"
_cell_formula_units_Z 33
_cell_length_a 7.631570
_cell_length_b 7.631570
_cell_length_c 25.946488
_cell_angle_alpha 90.000000
_cell_angle_beta 90.000000
_cell_angle_gamma 90.000000
_cell_volume 1511.145792
_symmetry_space_group_name_H-M "P -4 M 2"
_symmetry_group_IT_number 115
_symmetry_cell_setting 'tetragonal'
loop_
_space_group_symop_operation_xyz
x,y,z
y,-x,-z
-x,-y,z
-y,x,-z
y,x,-z
-y,-x,-z
-x,y,z
x,-y,z
loop_
_atom_site_type_symbol
_atom_site_label
_atom_site_fract_x
_atom_site_fract_y
_atom_site_fract_z
Si Si1 0.700048 0.291103 0.778999
Si Si2 0.706562 0.706562 0.000000
Si Si3 0.298757 0.713743 0.332060
Si Si4 0.711492 0.000000 0.586873
Si Si5 0.698997 0.793539 0.888881
Si Si6 0.000000 0.000000 0.500000
O O1 0.500000 0.219608 0.782680
O O2 0.689016 0.500000 0.773166
O O3 0.776548 0.232120 0.724258
O O4 0.784302 0.259386 0.834703
O O5 0.783486 0.756360 0.944427
O O6 0.740988 0.500000 0.004452
O O7 0.500000 0.770196 0.340602
O O8 0.300359 0.500000 0.328403
O O9 0.168874 0.757102 0.378099
O O10 0.500000 0.000000 0.577724
O O11 0.828384 0.000000 0.536111
O O12 0.500000 0.713330 0.889153
O O13 0.682349 0.000000 0.886589
#
# Coordination Sequence:
#
# PCOD9557394 Si02
#       6
#     8   4   8   4   8   1
#     4   8  13  22  39  68 103 130 160 210 267 322
#     4   9  16  26  38  53  80 118 158 203 258 312
#     4   8  15  29  52  83 115 149 188 230 283 343
#     4  10  22  40  62  86 120 160 195 237 286 327
#     4   9  16  23  35  59  88 120 160 208 261 314
#     4  12  28  44  60  96 124 156 208 242 268 332
#
# _framework density 21.837734999999999
#
# number of rings (size 3 to 8) (size 9 to 14) (size 15 to 20)
#    0.000    3.273    0.000    2.182    1.697    3.879 
#    0.000    0.000    0.000    0.364    3.152    0.000 
#    0.000    0.000    0.000    0.000    0.000    0.000 
#
# Total GULP energy -183816.871651 kJ/mol
# GULP energy per Si atom -5570.208232 kJ/mol
# Density = 2.178803 g / cm^3
# Si number density = 21.837735 Si / 1000 Ang^3
#
#
#
# Elastic Constant Matrix: (Units=GPa)
#
#
# Indices 1 2 3 4 5 6 
#
# 1 76.2064 3.1261 57.3524 0.0000 0.0000 0.0000
# 2 3.1261 76.2064 57.3524 0.0000 0.0000 0.0000
# 3 57.3524 57.3524 250.0534 0.0000 0.0000 0.0000
# 4 0.0000 0.0000 0.0000 39.3129 0.0000 0.0000
# 5 0.0000 0.0000 0.0000 0.0000 39.3129 0.0000
# 6 0.0000 0.0000 0.0000 0.0000 0.0000 -0.6342
#
#
#
# Elastic Compliance Matrix: (Units=1/GPa)
#
#
# Indices 1 2 3 4 5 6 
#
# 1 0.016272 0.002588 -0.004326 0.000000 0.000000 0.000000
# 2 0.002588 0.016272 -0.004326 0.000000 0.000000 0.000000
# 3 -0.004326 -0.004326 0.005983 0.000000 0.000000 0.000000
# 4 0.000000 0.000000 0.000000 0.025437 0.000000 0.000000
# 5 0.000000 0.000000 0.000000 0.000000 0.025437 0.000000
# 6 0.000000 0.000000 0.000000 0.000000 0.000000 -1.576838
#
#
# Mechanical properties :
#
#
# Convention : Reuss Voigt Hill
#
# Bulk Modulus (GPa) = 37.87897 70.90311 54.39104
# Shear Modulus (GPa) = -3.40945 34.57402 15.58228
#
# Velocity S-wave (km/s) = -1.25086 3.98329 2.67413
# Velocity P-wave (km/s) = 3.91115 7.32763 5.87330
#
# Compressibility (1/GPa) = 0.02639987
#
# Stress axis : x y z
#
# Youngs Moduli (GPa) = 61.45702 61.45702 167.12909
#
# Poissons Ratio (x) = -0.15905 0.72294
# Poissons Ratio (y) = -0.15905 0.72294
# Poissons Ratio (z) = 0.26584 0.26584
#
# Static dielectric constant tensor:
#      x y z
#    x 1.816710 0.000000 0.000000 
#    y 0.000000 1.816710 0.000000 
#    z 0.000000 0.000000 1.852720 
# 
# From -- ./inp_files/4718.got.cif
#   From: 2010.05.17/outbox.cif.g08.bks.cpg/sg115_3_cif.got.tgz:4718.got - 2010.05.20 11:07:42.
