data_PCOD9557045
_publ_section_title
;
Structure prediction by ZEFSAII (Michael W. Deem and Ramdas Pophale) SiO2 
 PCOD9557045
Probable space group: P -4 M 2
;
_chemical_formula_sum "Si O2"
_cell_formula_units_Z 56
_cell_length_a 14.301688
_cell_length_b 14.301688
_cell_length_c 15.633033
_cell_angle_alpha 90.000000
_cell_angle_beta 90.000000
_cell_angle_gamma 90.000000
_cell_volume 3197.553676
_symmetry_space_group_name_H-M "P -4 M 2"
_symmetry_group_IT_number 115
_symmetry_cell_setting 'tetragonal'
loop_
_space_group_symop_operation_xyz
x,y,z
y,-x,-z
-x,-y,z
-y,x,-z
y,x,-z
-y,-x,-z
-x,y,z
x,-y,z
loop_
_atom_site_type_symbol
_atom_site_label
_atom_site_fract_x
_atom_site_fract_y
_atom_site_fract_z
Si Si1 0.301069 0.211584 0.818508
Si Si2 0.264512 0.891042 0.986042
Si Si3 0.609317 0.110721 0.657397
Si Si4 0.291364 0.107794 0.175941
Si Si5 0.608399 0.387775 0.100557
Si Si6 0.398338 0.111999 0.343722
Si Si7 0.111146 0.737312 0.508889
O O1 0.316800 0.150134 0.903935
O O2 0.352065 0.169380 0.737005
O O3 0.188864 0.216394 0.805467
O O4 0.335732 0.315840 0.841658
O O5 0.243015 0.000000 0.973152
O O6 0.171575 0.828426 0.000000
O O7 0.318636 0.881865 0.076402
O O8 0.500000 0.130864 0.641849
O O9 0.670238 0.127566 0.572551
O O10 0.617363 0.000000 0.677410
O O11 0.372053 0.123831 0.244920
O O12 0.258329 0.000000 0.186894
O O13 0.500000 0.361464 0.116216
O O14 0.615742 0.500000 0.112731
O O15 0.630020 0.369981 0.000000
O O16 0.500000 0.151851 0.363702
O O17 0.317714 0.145668 0.406730
O O18 0.402516 0.000000 0.358569
O O19 0.168028 0.831973 0.500000
O O20 0.000000 0.753905 0.515345
#
# Coordination Sequence:
#
# PCOD9557045 Si02
#       7
#     8   8   8   8   8   8   8
#     4  11  19  32  52  73 102 141 179 215 256 308
#     4   9  18  31  47  69 100 139 178 215 254 301
#     4  10  21  36  54  78 107 138 173 212 254 304
#     4   9  18  31  47  71 102 132 167 214 262 304
#     4   9  18  32  49  70  96 129 175 228 277 323
#     4   9  17  31  51  72  95 125 160 200 248 298
#     4  10  20  35  55  78 104 133 165 204 250 300
#
# _framework density 17.513387999999999
#
# number of rings (size 3 to 8) (size 9 to 14) (size 15 to 20)
#    0.000    2.429    0.000    3.857    0.000    2.571 
#    0.000    1.429    0.000    5.571    0.000    4.000 
#    0.000    3.714    0.000    0.000    0.000    0.000 
#
# Total GULP energy -312085.980156 kJ/mol
# GULP energy per Si atom -5572.963931 kJ/mol
# Density = 1.747353 g / cm^3
# Si number density = 17.513388 Si / 1000 Ang^3
#
#
#
# Elastic Constant Matrix: (Units=GPa)
#
#
# Indices 1 2 3 4 5 6 
#
# 1 63.6122 41.1024 43.4238 0.0000 0.0000 0.0000
# 2 41.1024 63.6071 43.4250 0.0000 0.0000 0.0000
# 3 43.4238 43.4250 76.5108 0.0000 0.0000 0.0000
# 4 0.0000 0.0000 0.0000 21.4396 0.0000 0.0000
# 5 0.0000 0.0000 0.0000 0.0000 21.4398 0.0000
# 6 0.0000 0.0000 0.0000 0.0000 0.0000 17.3769
#
#
#
# Elastic Compliance Matrix: (Units=1/GPa)
#
#
# Indices 1 2 3 4 5 6 
#
# 1 0.031234 -0.013193 -0.010239 0.000000 0.000000 0.000000
# 2 -0.013193 0.031240 -0.010243 0.000000 0.000000 0.000000
# 3 -0.010239 -0.010243 0.024695 0.000000 0.000000 0.000000
# 4 0.000000 0.000000 0.000000 0.046643 0.000000 0.000000
# 5 0.000000 0.000000 0.000000 0.000000 0.046642 0.000000
# 6 0.000000 0.000000 0.000000 0.000000 0.000000 0.057548
#
#
# Mechanical properties :
#
#
# Convention : Reuss Voigt Hill
#
# Bulk Modulus (GPa) = 50.45745 51.07027 50.76386
# Shear Modulus (GPa) = 16.02781 17.10319 16.56550
#
# Velocity S-wave (km/s) = 3.02847 3.12842 3.07885
# Velocity P-wave (km/s) = 6.41110 6.50179 6.45660
#
# Compressibility (1/GPa) = 0.01981868
#
# Stress axis : x y z
#
# Youngs Moduli (GPa) = 32.01598 32.01063 40.49431
#
# Poissons Ratio (x) = 0.42232 0.41463
# Poissons Ratio (y) = 0.42239 0.41478
# Poissons Ratio (z) = 0.32782 0.32788
#
# Static dielectric constant tensor:
#      x y z
#    x 1.594380 0.000000 0.000000 
#    y 0.000000 1.594380 0.000000 
#    z 0.000000 0.000000 1.607160 
# 
# From -- ./inp_files/3845.got.cif
#   From: 2010.05.17/outbox.cif.g08.bks.cpg/sg115_2_cif.got.tgz:3845.got - 2010.05.20 11:07:42.
