data_PCOD9557380
_publ_section_title
;
Structure prediction by ZEFSAII (Michael W. Deem and Ramdas Pophale) SiO2 
 PCOD9557380
Probable space group: P -4 M 2
;
_chemical_formula_sum "Si O2"
_cell_formula_units_Z 21
_cell_length_a 7.336145
_cell_length_b 7.336145
_cell_length_c 21.060984
_cell_angle_alpha 90.000000
_cell_angle_beta 90.000000
_cell_angle_gamma 90.000000
_cell_volume 1133.481592
_symmetry_space_group_name_H-M "P -4 M 2"
_symmetry_group_IT_number 115
_symmetry_cell_setting 'tetragonal'
loop_
_space_group_symop_operation_xyz
x,y,z
y,-x,-z
-x,-y,z
-y,x,-z
y,x,-z
-y,-x,-z
-x,y,z
x,-y,z
loop_
_atom_site_type_symbol
_atom_site_label
_atom_site_fract_x
_atom_site_fract_y
_atom_site_fract_z
Si Si1 0.780009 0.500000 0.677991
Si Si2 0.217450 0.500000 0.111371
Si Si3 0.500000 0.222142 0.469969
Si Si4 0.784888 0.785794 0.781596
Si Si5 0.500000 0.500000 0.000000
O O1 0.727994 0.500000 0.604859
O O2 0.723941 0.672868 0.720217
O O3 0.000000 0.500000 0.676827
O O4 0.264924 0.672444 0.155894
O O5 0.000000 0.500000 0.100573
O O6 0.327249 0.500000 0.046622
O O7 0.322661 0.322661 0.500000
O O8 0.500000 0.000000 0.477483
O O9 0.000000 0.753450 0.791352
O O10 0.756252 0.000000 0.770632
#
# Coordination Sequence:
#
# PCOD9557380 Si02
#       5
#     4   4   4   8   1
#     4   9  18  34  56  80 106 139 180 226 276 327
#     4  10  22  36  52  78 104 133 174 210 254 315
#     4  10  23  40  57  83 119 158 199 238 283 345
#     4   9  18  34  56  80 104 130 168 222 275 318
#     4  12  24  36  52  72 104 144 174 204 244 304
#
# _framework density 18.526986999999998
#
# number of rings (size 3 to 8) (size 9 to 14) (size 15 to 20)
#    0.000    2.476    0.000    1.143    0.000    6.476 
#    0.000    5.714    0.000    0.000    0.000    0.000 
#    0.000    0.000    0.000    0.000    0.000    0.000 
#
# Total GULP energy -117157.146882 kJ/mol
# GULP energy per Si atom -5578.911756 kJ/mol
# Density = 1.848482 g / cm^3
# Si number density = 18.526987 Si / 1000 Ang^3
#
#
#
# Elastic Constant Matrix: (Units=GPa)
#
#
# Indices 1 2 3 4 5 6 
#
# 1 109.3500 52.3689 78.3464 0.0000 0.0000 0.0000
# 2 52.3689 109.3500 78.3464 0.0000 0.0000 0.0000
# 3 78.3464 78.3464 203.3835 0.0000 0.0000 0.0000
# 4 0.0000 0.0000 0.0000 -90.7582 0.0000 0.0000
# 5 0.0000 0.0000 0.0000 0.0000 -90.7582 0.0000
# 6 0.0000 0.0000 0.0000 0.0000 0.0000 16.8936
#
#
#
# Elastic Compliance Matrix: (Units=1/GPa)
#
#
# Indices 1 2 3 4 5 6 
#
# 1 0.013708 -0.003842 -0.003801 0.000000 0.000000 0.000000
# 2 -0.003842 0.013708 -0.003801 0.000000 0.000000 0.000000
# 3 -0.003801 -0.003801 0.007845 0.000000 0.000000 0.000000
# 4 0.000000 0.000000 0.000000 -0.011018 0.000000 0.000000
# 5 0.000000 0.000000 0.000000 0.000000 -0.011018 0.000000
# 6 0.000000 0.000000 0.000000 0.000000 0.000000 0.059194
#
#
# Mechanical properties :
#
#
# Convention : Reuss Voigt Hill
#
# Bulk Modulus (GPa) = 80.80994 93.35634 87.08314
# Shear Modulus (GPa) = 50.28731 -18.72312 15.78209
#
# Velocity S-wave (km/s) = 5.21552 -3.18242 2.92180
# Velocity P-wave (km/s) = 8.94321 6.08235 7.64775
#
# Compressibility (1/GPa) = 0.01237472
#
# Stress axis : x y z
#
# Youngs Moduli (GPa) = 72.95093 72.95093 127.47197
#
# Poissons Ratio (x) = 0.28027 0.48446
# Poissons Ratio (y) = 0.28027 0.48446
# Poissons Ratio (z) = 0.27725 0.27725
#
# Static dielectric constant tensor:
#      x y z
#    x 1.664740 0.000000 0.000000 
#    y 0.000000 1.664740 0.000000 
#    z 0.000000 0.000000 1.597340 
# 
# From -- ./inp_files/3405.got.cif
#   From: 2010.05.17/outbox.cif.g08.bks.cpg/sg115_2_cif.got.tgz:3405.got - 2010.05.20 11:07:42.
