data_PCOD9557762
_publ_section_title
;
Structure prediction by ZEFSAII (Michael W. Deem and Ramdas Pophale) SiO2 
 PCOD9557762
Probable space group: P -4 C 2
;
_chemical_formula_sum "Si O2"
_cell_formula_units_Z 34
_cell_length_a 8.017331
_cell_length_b 8.017331
_cell_length_c 22.374957
_cell_angle_alpha 90.000000
_cell_angle_beta 90.000000
_cell_angle_gamma 90.000000
_cell_volume 1438.208455
_symmetry_space_group_name_H-M "P -4 C 2"
_symmetry_group_IT_number 116
_symmetry_cell_setting 'tetragonal'
loop_
_space_group_symop_operation_xyz
x,y,z
y,-x,-z
-x,-y,z
-y,x,-z
y,x,1/2-z
-y,-x,1/2-z
-x,y,1/2+z
x,-y,1/2+z
loop_
_atom_site_type_symbol
_atom_site_label
_atom_site_fract_x
_atom_site_fract_y
_atom_site_fract_z
Si Si1 0.826310 0.288383 0.185245
Si Si2 0.000000 0.000000 0.000000
Si Si3 0.828251 0.669415 0.137867
Si Si4 0.521572 0.695738 0.610339
Si Si5 0.131170 0.358081 0.994758
O O1 0.774736 0.225264 0.250000
O O2 0.820832 0.491351 0.173182
O O3 0.677664 0.225850 0.143575
O O4 0.011134 0.238523 0.164325
O O5 0.075225 0.173471 0.973964
O O6 0.652280 0.764346 0.136307
O O7 0.855184 0.640351 0.066559
O O8 0.500000 0.500000 0.622616
O O9 0.574888 0.712367 0.541659
O O10 0.000000 0.500000 0.977913
#
# Coordination Sequence:
#
# PCOD9557762 Si02
#       5
#     8   2   8   8   8
#     4  10  21  43  71 101 154 203 257 329 385 460
#     4  12  28  40  72 112 170 204 264 320 396 510
#     4  10  22  41  71 111 147 194 268 329 388 480
#     4  10  24  38  73 112 145 202 256 311 400 475
#     4  12  24  45  69 108 161 201 250 329 407 477
#
# _framework density 23.640523999999999
#
# number of rings (size 3 to 8) (size 9 to 14) (size 15 to 20)
#    0.000    1.412    2.353    2.824    9.882    4.235 
#    4.235    0.000   10.353    0.000    0.000    0.000 
#    0.000    0.000    0.000    0.000    0.000    0.000 
#
# Total GULP energy -189521.382405 kJ/mol
# GULP energy per Si atom -5574.158306 kJ/mol
# Density = 2.358672 g / cm^3
# Si number density = 23.640524 Si / 1000 Ang^3
#
#
#
# Elastic Constant Matrix: (Units=GPa)
#
#
# Indices 1 2 3 4 5 6 
#
# 1 152.1469 27.5798 52.3796 0.0000 0.0000 0.0000
# 2 27.5798 152.1466 52.3795 0.0000 0.0000 0.0000
# 3 52.3796 52.3795 156.7233 0.0000 0.0000 0.0000
# 4 0.0000 0.0000 0.0000 91.5394 0.0000 0.0000
# 5 0.0000 0.0000 0.0000 0.0000 91.5351 0.0000
# 6 0.0000 0.0000 0.0000 0.0000 0.0000 16.9817
#
#
#
# Elastic Compliance Matrix: (Units=1/GPa)
#
#
# Indices 1 2 3 4 5 6 
#
# 1 0.007469 -0.000559 -0.002309 0.000000 0.000000 0.000000
# 2 -0.000559 0.007469 -0.002309 0.000000 0.000000 0.000000
# 3 -0.002309 -0.002309 0.007924 0.000000 0.000000 0.000000
# 4 0.000000 0.000000 0.000000 0.010924 0.000000 0.000000
# 5 0.000000 0.000000 0.000000 0.000000 0.010925 0.000000
# 6 0.000000 0.000000 0.000000 0.000000 0.000000 0.058887
#
#
# Mechanical properties :
#
#
# Convention : Reuss Voigt Hill
#
# Bulk Modulus (GPa) = 79.95666 80.63272 80.29469
# Shear Modulus (GPa) = 42.32885 61.92312 52.12598
#
# Velocity S-wave (km/s) = 4.23605 5.12352 4.70078
# Velocity P-wave (km/s) = 7.60399 8.31760 7.96879
#
# Compressibility (1/GPa) = 0.01250678
#
# Stress axis : x y z
#
# Youngs Moduli (GPa) = 133.88706 133.88677 126.19223
#
# Poissons Ratio (x) = 0.07482 0.29144
# Poissons Ratio (y) = 0.07482 0.29144
# Poissons Ratio (z) = 0.30921 0.30921
#
# Static dielectric constant tensor:
#      x y z
#    x 1.397550 0.000000 0.000000 
#    y 0.000000 1.397470 0.000000 
#    z 0.000000 0.000000 1.880120 
# 
# From -- ./inp_files/3918.got.cif
#   From: 2010.05.17/outbox.cif.g08.bks.cpg/sg116_2_cif.got.tgz:3918.got - 2010.05.20 11:11:43.
