data_PCOD9557896
_publ_section_title
;
Structure prediction by ZEFSAII (Michael W. Deem and Ramdas Pophale) SiO2 
 PCOD9557896
Probable space group: P -4 C 2
;
_chemical_formula_sum "Si O2"
_cell_formula_units_Z 18
_cell_length_a 5.229548
_cell_length_b 5.229548
_cell_length_c 25.950434
_cell_angle_alpha 90.000000
_cell_angle_beta 90.000000
_cell_angle_gamma 90.000000
_cell_volume 709.696940
_symmetry_space_group_name_H-M "P -4 C 2"
_symmetry_group_IT_number 116
_symmetry_cell_setting 'tetragonal'
loop_
_space_group_symop_operation_xyz
x,y,z
y,-x,-z
-x,-y,z
-y,x,-z
y,x,1/2-z
-y,-x,1/2-z
-x,y,1/2+z
x,-y,1/2+z
loop_
_atom_site_type_symbol
_atom_site_label
_atom_site_fract_x
_atom_site_fract_y
_atom_site_fract_z
Si Si1 0.754283 0.672879 0.193313
Si Si2 0.000000 0.000000 0.000000
Si Si3 0.252442 0.679793 0.581976
O O1 0.500000 0.500000 0.195349
O O2 0.790598 0.790598 0.250000
O O3 0.737712 0.815605 0.138575
O O4 0.000000 0.500000 0.187526
O O5 0.117126 0.785308 0.962912
O O6 0.500000 0.500000 0.576485
O O7 0.000000 0.500000 0.579629
#
# Coordination Sequence:
#
# PCOD9557896 Si02
#       3
#     8   2   8
#     4   9  19  44  71 103 142 186 236 306 375 446
#     4  12  28  44  74 108 148 212 252 318 368 456
#     4  10  25  47  73 105 147 194 253 308 377 450
#
# _framework density 25.362938
#
# number of rings (size 3 to 8) (size 9 to 14) (size 15 to 20)
#    0.000    2.222    0.000    0.000    6.222    0.000 
#   40.000    0.000    0.000    0.000    0.000    0.000 
#    0.000    0.000    0.000    0.000    0.000    0.000 
#
# Total GULP energy -100679.151376 kJ/mol
# GULP energy per Si atom -5593.286188 kJ/mol
# Density = 2.530521 g / cm^3
# Si number density = 25.362938 Si / 1000 Ang^3
#
#
#
# Elastic Constant Matrix: (Units=GPa)
#
#
# Indices 1 2 3 4 5 6 
#
# 1 130.9385 41.1660 49.2475 0.0000 0.0000 0.0000
# 2 41.1660 130.9385 49.2475 0.0000 0.0000 0.0000
# 3 49.2475 49.2475 312.2775 0.0000 0.0000 0.0000
# 4 0.0000 0.0000 0.0000 26.3482 0.0000 0.0000
# 5 0.0000 0.0000 0.0000 0.0000 26.3482 0.0000
# 6 0.0000 0.0000 0.0000 0.0000 0.0000 51.8505
#
#
#
# Elastic Compliance Matrix: (Units=1/GPa)
#
#
# Indices 1 2 3 4 5 6 
#
# 1 0.008763 -0.002376 -0.001007 0.000000 0.000000 0.000000
# 2 -0.002376 0.008763 -0.001007 0.000000 0.000000 0.000000
# 3 -0.001007 -0.001007 0.003520 0.000000 0.000000 0.000000
# 4 0.000000 0.000000 0.000000 0.037953 0.000000 0.000000
# 5 0.000000 0.000000 0.000000 0.000000 0.037953 0.000000
# 6 0.000000 0.000000 0.000000 0.000000 0.000000 0.019286
#
#
# Mechanical properties :
#
#
# Convention : Reuss Voigt Hill
#
# Bulk Modulus (GPa) = 81.53444 94.83070 88.18257
# Shear Modulus (GPa) = 38.72715 49.87562 44.30138
#
# Velocity S-wave (km/s) = 3.91182 4.43931 4.18389
# Velocity P-wave (km/s) = 7.25396 7.98419 7.62782
#
# Compressibility (1/GPa) = 0.01226476
#
# Stress axis : x y z
#
# Youngs Moduli (GPa) = 114.11532 114.11532 284.09328
#
# Poissons Ratio (x) = 0.27116 0.28615
# Poissons Ratio (y) = 0.27116 0.28615
# Poissons Ratio (z) = 0.11494 0.11494
#
# Static dielectric constant tensor:
#      x y z
#    x 2.009660 0.000000 0.000000 
#    y 0.000000 2.009660 0.000000 
#    z 0.000000 0.000000 2.145440 
# 
# From -- ./inp_files/4231.got.cif
#   From: 2010.05.17/outbox.cif.g08.bks.cpg/sg116_3_cif.got.tgz:4231.got - 2010.05.20 11:11:43.
