data_PCOD9557536
_publ_section_title
;
Structure prediction by ZEFSAII (Michael W. Deem and Ramdas Pophale) SiO2 
 PCOD9557536
Probable space group: P -4 C 2
;
_chemical_formula_sum "Si O2"
_cell_formula_units_Z 56
_cell_length_a 12.162047
_cell_length_b 12.162047
_cell_length_c 18.880367
_cell_angle_alpha 90.000000
_cell_angle_beta 90.000000
_cell_angle_gamma 90.000000
_cell_volume 2792.696796
_symmetry_space_group_name_H-M "P -4 C 2"
_symmetry_group_IT_number 116
_symmetry_cell_setting 'tetragonal'
loop_
_space_group_symop_operation_xyz
x,y,z
y,-x,-z
-x,-y,z
-y,x,-z
y,x,1/2-z
-y,-x,1/2-z
-x,y,1/2+z
x,-y,1/2+z
loop_
_atom_site_type_symbol
_atom_site_label
_atom_site_fract_x
_atom_site_fract_y
_atom_site_fract_z
Si Si1 0.245864 0.982246 0.009090
Si Si2 0.646376 0.203716 0.475065
Si Si3 0.807165 0.354398 0.291444
Si Si4 0.962839 0.158152 0.342325
Si Si5 0.822064 0.946075 0.348290
Si Si6 0.063727 0.396498 0.662615
Si Si7 0.410770 0.795354 0.048947
O O1 0.163849 0.956056 0.072360
O O2 0.354637 0.910591 0.026233
O O3 0.197110 0.950482 0.933081
O O4 0.281804 0.109127 0.012329
O O5 0.641403 0.153784 0.395153
O O6 0.705938 0.320576 0.475407
O O7 0.527578 0.213186 0.510994
O O8 0.706909 0.293092 0.250000
O O9 0.894529 0.259732 0.312983
O O10 0.870947 0.426379 0.233532
O O11 0.782979 0.414701 0.365443
O O12 0.093481 0.150825 0.327052
O O13 0.893506 0.050711 0.323796
O O14 0.699512 0.974579 0.322363
O O15 0.000000 0.500000 0.632139
#
# Coordination Sequence:
#
# PCOD9557536 Si02
#       7
#     8   8   8   8   8   8   8
#     4  10  18  33  54  84 126 156 200 259 313 360
#     4  11  22  39  62  91 120 158 210 266 316 366
#     4  11  20  40  58  87 125 167 206 247 327 389
#     4  10  19  29  54  82 122 162 204 246 300 381
#     4  10  18  31  49  85 119 167 203 250 304 359
#     4  11  22  37  59  84 125 170 213 254 311 378
#     4  11  23  38  65  90 119 160 206 266 309 384
#
# _framework density 20.052299999999999
#
# number of rings (size 3 to 8) (size 9 to 14) (size 15 to 20)
#    0.000    1.429    2.857    6.429    0.000    4.286 
#    0.000    0.000    0.000    2.571    0.000    0.000 
#    0.000    0.000    0.000    0.000    0.000    0.000 
#
# Total GULP energy -312506.480220 kJ/mol
# GULP energy per Si atom -5580.472861 kJ/mol
# Density = 2.000666 g / cm^3
# Si number density = 20.052300 Si / 1000 Ang^3
#
#
#
# Elastic Constant Matrix: (Units=GPa)
#
#
# Indices 1 2 3 4 5 6 
#
# 1 71.5966 14.0981 -0.4021 0.0000 0.0000 0.0000
# 2 14.0981 71.5958 -0.4025 0.0000 0.0000 0.0000
# 3 -0.4021 -0.4025 75.9035 0.0000 0.0000 0.0000
# 4 0.0000 0.0000 0.0000 23.1026 0.0000 0.0000
# 5 0.0000 0.0000 0.0000 0.0000 23.1028 0.0000
# 6 0.0000 0.0000 0.0000 0.0000 0.0000 17.1120
#
#
#
# Elastic Compliance Matrix: (Units=1/GPa)
#
#
# Indices 1 2 3 4 5 6 
#
# 1 0.014531 -0.002861 0.000062 0.000000 0.000000 0.000000
# 2 -0.002861 0.014531 0.000062 0.000000 0.000000 0.000000
# 3 0.000062 0.000062 0.013175 0.000000 0.000000 0.000000
# 4 0.000000 0.000000 0.000000 0.043285 0.000000 0.000000
# 5 0.000000 0.000000 0.000000 0.000000 0.043285 0.000000
# 6 0.000000 0.000000 0.000000 0.000000 0.000000 0.058438
#
#
# Mechanical properties :
#
#
# Convention : Reuss Voigt Hill
#
# Bulk Modulus (GPa) = 27.20153 27.29809 27.24981
# Shear Modulus (GPa) = 24.39331 26.38365 25.38848
#
# Velocity S-wave (km/s) = 3.49160 3.63125 3.56211
# Velocity P-wave (km/s) = 5.46349 5.58787 5.52603
#
# Compressibility (1/GPa) = 0.03676264
#
# Stress axis : x y z
#
# Youngs Moduli (GPa) = 68.81912 68.81840 75.89976
#
# Poissons Ratio (x) = 0.19689 -0.00469
# Poissons Ratio (y) = 0.19689 -0.00470
# Poissons Ratio (z) = -0.00425 -0.00426
#
# Static dielectric constant tensor:
#      x y z
#    x 1.719520 0.000000 0.000000 
#    y 0.000000 1.719520 0.000000 
#    z 0.000000 0.000000 1.790710 
# 
# From -- ./inp_files/4155.got.cif
#   From: 2010.05.17/outbox.cif.g08.bks.cpg/sg116_3_cif.got.tgz:4155.got - 2010.05.20 11:11:43.
