data_PCOD9557318
_publ_section_title
;
Structure prediction by ZEFSAII (Michael W. Deem and Ramdas Pophale) SiO2 
 PCOD9557318
Probable space group: P -4 M 2
;
_chemical_formula_sum "Si O2"
_cell_formula_units_Z 48
_cell_length_a 9.022312
_cell_length_b 9.022312
_cell_length_c 32.871913
_cell_angle_alpha 90.000000
_cell_angle_beta 90.000000
_cell_angle_gamma 90.000000
_cell_volume 2675.843204
_symmetry_space_group_name_H-M "P -4 M 2"
_symmetry_group_IT_number 115
_symmetry_cell_setting 'tetragonal'
loop_
_space_group_symop_operation_xyz
x,y,z
y,-x,-z
-x,-y,z
-y,x,-z
y,x,-z
-y,-x,-z
-x,y,z
x,-y,z
loop_
_atom_site_type_symbol
_atom_site_label
_atom_site_fract_x
_atom_site_fract_y
_atom_site_fract_z
Si Si1 0.321566 0.677818 0.631394
Si Si2 0.175648 0.323781 0.961169
Si Si3 0.678572 0.678648 0.543840
Si Si4 0.677230 0.675186 0.123500
Si Si5 0.825814 0.823493 0.798518
Si Si6 0.322113 0.322654 0.279562
O O1 0.500000 0.698396 0.631353
O O2 0.297522 0.500000 0.631314
O O3 0.264909 0.735631 0.587659
O O4 0.269380 0.731318 0.675605
O O5 0.204338 0.500000 0.965859
O O6 0.251569 0.275256 0.919048
O O7 0.000000 0.301513 0.958341
O O8 0.241048 0.241048 0.000000
O O9 0.735180 0.735180 0.500000
O O10 0.500000 0.700640 0.543798
O O11 0.700518 0.500000 0.543886
O O12 0.500000 0.698614 0.127579
O O13 0.704742 0.500000 0.122239
O O14 0.756249 0.746555 0.162066
O O15 0.757299 0.755204 0.757682
O O16 0.000000 0.788924 0.800464
O O17 0.806804 0.000000 0.798093
O O18 0.500000 0.300635 0.277309
O O19 0.296964 0.500000 0.276861
#
# Coordination Sequence:
#
# PCOD9557318 Si02
#       6
#     8   8   8   8   8   8
#     4   7  10  17  30  51  80 112 146 184 224 271
#     4  10  21  37  58  84 113 145 178 210 246 287
#     4   7   8  10  19  39  71 110 144 172 211 267
#     4  10  21  38  61  85 106 132 169 210 250 294
#     4  11  24  38  51  71 100 131 163 202 249 298
#     4   9  17  30  49  71  94 123 160 199 240 289
#
# _framework density 17.938269999999999
#
# number of rings (size 3 to 8) (size 9 to 14) (size 15 to 20)
#    0.000    3.000    0.000    4.500    0.000    6.333 
#    0.000    0.000    0.000    0.000    0.000    0.000 
#    0.000    1.333    0.000   14.833    0.000   13.333 
#
# Total GULP energy -267300.150173 kJ/mol
# GULP energy per Si atom -5568.753129 kJ/mol
# Density = 1.789744 g / cm^3
# Si number density = 17.938270 Si / 1000 Ang^3
#
#
#
# Elastic Constant Matrix: (Units=GPa)
#
#
# Indices 1 2 3 4 5 6 
#
# 1 26.6553 38.2696 58.0990 0.0000 0.0000 0.0000
# 2 38.2696 26.6553 58.0990 0.0000 0.0000 0.0000
# 3 58.0990 58.0990 237.1715 0.0000 0.0000 0.0000
# 4 0.0000 0.0000 0.0000 -12.6059 0.0000 0.0000
# 5 0.0000 0.0000 0.0000 0.0000 -12.6059 0.0000
# 6 0.0000 0.0000 0.0000 0.0000 0.0000 19.7048
#
#
#
# Elastic Compliance Matrix: (Units=1/GPa)
#
#
# Indices 1 2 3 4 5 6 
#
# 1 -0.029337 0.056764 -0.006719 0.000000 0.000000 0.000000
# 2 0.056764 -0.029337 -0.006719 0.000000 0.000000 0.000000
# 3 -0.006719 -0.006719 0.007508 0.000000 0.000000 0.000000
# 4 0.000000 0.000000 0.000000 -0.079328 0.000000 0.000000
# 5 0.000000 0.000000 0.000000 0.000000 -0.079328 0.000000
# 6 0.000000 0.000000 0.000000 0.000000 0.000000 0.050749
#
#
# Mechanical properties :
#
#
# Convention : Reuss Voigt Hill
#
# Bulk Modulus (GPa) = 28.17899 66.60193 47.39046
# Shear Modulus (GPa) = -21.37699 7.96623 -6.70538
#
# Velocity S-wave (km/s) = -3.45584 2.10963 -1.93550
# Velocity P-wave (km/s) = 0.42524 6.56834 4.63477
#
# Compressibility (1/GPa) = 0.03548744
#
# Stress axis : x y z
#
# Youngs Moduli (GPa) = -34.08689 -34.08689 133.18982
#
# Poissons Ratio (x) = 1.93491 0.89487
# Poissons Ratio (y) = 1.93491 0.89487
# Poissons Ratio (z) = -0.22902 -0.22902
#
# Static dielectric constant tensor:
#      x y z
#    x 1.589530 0.000000 0.000000 
#    y 0.000000 1.589530 0.000000 
#    z 0.000000 0.000000 1.654340 
# 
# From -- ./inp_files/6040.got.cif
#   From: 2010.05.17/outbox.cif.g08.bks.cpg/sg115_4_cif.got.tgz:6040.got - 2010.05.20 11:07:42.
