data_PCOD9557147
_publ_section_title
;
Structure prediction by ZEFSAII (Michael W. Deem and Ramdas Pophale) SiO2 
 PCOD9557147
Probable space group: P -4 M 2
;
_chemical_formula_sum "Si O2"
_cell_formula_units_Z 48
_cell_length_a 9.387976
_cell_length_b 9.387976
_cell_length_c 32.023634
_cell_angle_alpha 90.000000
_cell_angle_beta 90.000000
_cell_angle_gamma 90.000000
_cell_volume 2822.373949
_symmetry_space_group_name_H-M "P -4 M 2"
_symmetry_group_IT_number 115
_symmetry_cell_setting 'tetragonal'
loop_
_space_group_symop_operation_xyz
x,y,z
y,-x,-z
-x,-y,z
-y,x,-z
y,x,-z
-y,-x,-z
-x,y,z
x,-y,z
loop_
_atom_site_type_symbol
_atom_site_label
_atom_site_fract_x
_atom_site_fract_y
_atom_site_fract_z
Si Si1 0.673926 0.664965 0.954262
Si Si2 0.670024 0.829413 0.780081
Si Si3 0.164504 0.673394 0.126681
Si Si4 0.332741 0.829147 0.293561
Si Si5 0.831388 0.168592 0.378041
Si Si6 0.169520 0.668936 0.463259
O O1 0.500000 0.669488 0.955098
O O2 0.714880 0.500000 0.950401
O O3 0.723072 0.748957 0.913532
O O4 0.719896 0.719896 0.000000
O O5 0.500000 0.806215 0.776263
O O6 0.715465 0.784508 0.827043
O O7 0.751911 0.746029 0.744341
O O8 0.693611 0.000000 0.776704
O O9 0.168357 0.500000 0.126521
O O10 0.000000 0.715547 0.122640
O O11 0.500000 0.794645 0.294197
O O12 0.258693 0.790330 0.337443
O O13 0.317678 0.000000 0.288962
O O14 0.794327 0.258609 0.418976
O O15 0.000000 0.188322 0.369391
O O16 0.808615 0.000000 0.386308
O O17 0.257273 0.742728 0.500000
O O18 0.194761 0.500000 0.461951
O O19 0.000000 0.692336 0.470179
#
# Coordination Sequence:
#
# PCOD9557147 Si02
#       6
#     8   8   8   8   8   8
#     4   8  13  21  35  57  83 111 146 186 225 269
#     4   9  18  32  50  72  96 124 162 205 244 286
#     4   8  14  25  41  62  88 117 150 189 232 277
#     4  10  21  35  51  74 103 132 162 199 245 295
#     4   9  18  34  55  75  97 131 173 209 240 282
#     4  10  21  36  55  80 108 137 169 206 247 289
#
# _framework density 17.006961
#
# number of rings (size 3 to 8) (size 9 to 14) (size 15 to 20)
#    0.000    3.000    0.000    2.500    0.000    4.333 
#    0.000    5.000    0.000    1.000    0.000    2.333 
#    0.000    0.000    0.000    0.000    0.000    0.000 
#
# Total GULP energy -267461.924601 kJ/mol
# GULP energy per Si atom -5572.123429 kJ/mol
# Density = 1.696825 g / cm^3
# Si number density = 17.006961 Si / 1000 Ang^3
#
#
#
# Elastic Constant Matrix: (Units=GPa)
#
#
# Indices 1 2 3 4 5 6 
#
# 1 48.9682 43.3933 85.7705 0.0000 0.0000 0.0000
# 2 43.3933 48.9678 85.7715 0.0000 0.0000 0.0000
# 3 85.7705 85.7715 219.6258 0.0000 0.0000 0.0000
# 4 0.0000 0.0000 0.0000 30.4648 0.0000 0.0000
# 5 0.0000 0.0000 0.0000 0.0000 30.4648 0.0000
# 6 0.0000 0.0000 0.0000 0.0000 0.0000 19.6094
#
#
#
# Elastic Compliance Matrix: (Units=1/GPa)
#
#
# Indices 1 2 3 4 5 6 
#
# 1 0.109396 -0.069981 -0.015392 0.000000 0.000000 0.000000
# 2 -0.069981 0.109404 -0.015396 0.000000 0.000000 0.000000
# 3 -0.015392 -0.015396 0.016577 0.000000 0.000000 0.000000
# 4 0.000000 0.000000 0.000000 0.032825 0.000000 0.000000
# 5 0.000000 0.000000 0.000000 0.000000 0.032825 0.000000
# 6 0.000000 0.000000 0.000000 0.000000 0.000000 0.050996
#
#
# Mechanical properties :
#
#
# Convention : Reuss Voigt Hill
#
# Bulk Modulus (GPa) = 29.55299 83.04803 56.30051
# Shear Modulus (GPa) = 8.85205 22.94957 15.90081
#
# Velocity S-wave (km/s) = 2.28391 3.67743 3.06103
# Velocity P-wave (km/s) = 4.93657 8.18347 6.75792
#
# Compressibility (1/GPa) = 0.03383753
#
# Stress axis : x y z
#
# Youngs Moduli (GPa) = 9.14110 9.14045 60.32392
#
# Poissons Ratio (x) = 0.63966 0.92853
# Poissons Ratio (y) = 0.63970 0.92876
# Poissons Ratio (z) = 0.14070 0.14073
#
# Static dielectric constant tensor:
#      x y z
#    x 1.565900 0.000000 0.000000 
#    y 0.000000 1.565900 0.000000 
#    z 0.000000 0.000000 1.572090 
# 
# From -- ./inp_files/5916.got.cif
#   From: 2010.05.17/outbox.cif.g08.bks.cpg/sg115_3_cif.got.tgz:5916.got - 2010.05.20 11:07:42.
