data_PCOD9557679
_publ_section_title
;
Structure prediction by ZEFSAII (Michael W. Deem and Ramdas Pophale) SiO2 
 PCOD9557679
Probable space group: P -4 C 2
;
_chemical_formula_sum "Si O2"
_cell_formula_units_Z 40
_cell_length_a 9.207565
_cell_length_b 9.207565
_cell_length_c 21.042409
_cell_angle_alpha 90.000000
_cell_angle_beta 90.000000
_cell_angle_gamma 90.000000
_cell_volume 1783.959721
_symmetry_space_group_name_H-M "P -4 C 2"
_symmetry_group_IT_number 116
_symmetry_cell_setting 'tetragonal'
loop_
_space_group_symop_operation_xyz
x,y,z
y,-x,-z
-x,-y,z
-y,x,-z
y,x,1/2-z
-y,-x,1/2-z
-x,y,1/2+z
x,-y,1/2+z
loop_
_atom_site_type_symbol
_atom_site_label
_atom_site_fract_x
_atom_site_fract_y
_atom_site_fract_z
Si Si1 0.491747 0.261194 0.776603
Si Si2 0.636981 0.058007 0.167922
Si Si3 0.711543 0.130791 0.378326
Si Si4 0.115346 0.211082 0.488397
Si Si5 0.797028 0.218639 0.653335
O O1 0.398936 0.398936 0.750000
O O2 0.451440 0.143755 0.722308
O O3 0.420336 0.185902 0.837729
O O4 0.651105 0.281267 0.808518
O O5 0.748024 0.167791 0.136183
O O6 0.500000 0.000000 0.126768
O O7 0.743398 0.927272 0.188473
O O8 0.679608 0.132206 0.453187
O O9 0.759538 0.970817 0.353695
O O10 0.186741 0.246846 0.420664
O O11 0.942863 0.179956 0.486434
#
# Coordination Sequence:
#
# PCOD9557679 Si02
#       5
#     8   8   8   8   8
#     4  10  24  43  64  95 136 179 227 281 339 421
#     4  11  23  40  62  98 135 174 230 281 345 416
#     4  10  20  40  64  99 136 170 227 295 339 421
#     4   9  17  34  64  99 135 167 218 289 351 415
#     4  11  21  41  68  97 132 187 224 278 365 405
#
# _framework density 22.422032000000002
#
# number of rings (size 3 to 8) (size 9 to 14) (size 15 to 20)
#    0.000    1.800    2.000    2.400    0.000    3.200 
#    3.600   14.000    0.000    0.000    0.000    0.000 
#    0.000    0.000    0.000    0.000    0.000    0.000 
#
# Total GULP energy -222808.111254 kJ/mol
# GULP energy per Si atom -5570.202781 kJ/mol
# Density = 2.237100 g / cm^3
# Si number density = 22.422032 Si / 1000 Ang^3
#
#
#
# Elastic Constant Matrix: (Units=GPa)
#
#
# Indices 1 2 3 4 5 6 
#
# 1 45.5996 41.7163 23.3954 0.0000 0.0000 0.0000
# 2 41.7163 45.5996 23.3954 0.0000 0.0000 0.0000
# 3 23.3954 23.3954 148.2178 0.0000 0.0000 0.0000
# 4 0.0000 0.0000 0.0000 11.6601 0.0000 0.0000
# 5 0.0000 0.0000 0.0000 0.0000 11.6601 0.0000
# 6 0.0000 0.0000 0.0000 0.0000 0.0000 43.9445
#
#
#
# Elastic Compliance Matrix: (Units=1/GPa)
#
#
# Indices 1 2 3 4 5 6 
#
# 1 0.135013 -0.122502 -0.001975 0.000000 0.000000 0.000000
# 2 -0.122502 0.135013 -0.001975 0.000000 0.000000 0.000000
# 3 -0.001975 -0.001975 0.007370 0.000000 0.000000 0.000000
# 4 0.000000 0.000000 0.000000 0.085763 0.000000 0.000000
# 5 0.000000 0.000000 0.000000 0.000000 0.085763 0.000000
# 6 0.000000 0.000000 0.000000 0.000000 0.000000 0.022756
#
#
# Mechanical properties :
#
#
# Convention : Reuss Voigt Hill
#
# Bulk Modulus (GPa) = 40.82810 46.27016 43.54913
# Shear Modulus (GPa) = 6.82367 23.51359 15.16863
#
# Velocity S-wave (km/s) = 1.74639 3.24185 2.60379
# Velocity P-wave (km/s) = 4.72387 5.89013 5.33894
#
# Compressibility (1/GPa) = 0.02449294
#
# Stress axis : x y z
#
# Youngs Moduli (GPa) = 7.40671 7.40671 135.68065
#
# Poissons Ratio (x) = 0.90734 0.26794
# Poissons Ratio (y) = 0.90734 0.26794
# Poissons Ratio (z) = 0.01463 0.01463
#
# Static dielectric constant tensor:
#      x y z
#    x 1.951300 0.000000 0.000000 
#    y 0.000000 1.951300 0.000000 
#    z 0.000000 0.000000 1.906070 
# 
# From -- ./inp_files/4453.got.cif
#   From: 2010.05.17/outbox.cif.g08.bks.cpg/sg116_3_cif.got.tgz:4453.got - 2010.05.20 11:11:43.
