data_PCOD9557475
_publ_section_title
;
Structure prediction by ZEFSAII (Michael W. Deem and Ramdas Pophale) SiO2 
 PCOD9557475
Probable space group: P -4 M 2
;
_chemical_formula_sum "Si O2"
_cell_formula_units_Z 40
_cell_length_a 13.133838
_cell_length_b 13.133838
_cell_length_c 10.897856
_cell_angle_alpha 90.000000
_cell_angle_beta 90.000000
_cell_angle_gamma 90.000000
_cell_volume 1879.855102
_symmetry_space_group_name_H-M "P -4 M 2"
_symmetry_group_IT_number 115
_symmetry_cell_setting 'tetragonal'
loop_
_space_group_symop_operation_xyz
x,y,z
y,-x,-z
-x,-y,z
-y,x,-z
y,x,-z
-y,-x,-z
-x,y,z
x,-y,z
loop_
_atom_site_type_symbol
_atom_site_label
_atom_site_fract_x
_atom_site_fract_y
_atom_site_fract_z
Si Si1 0.107499 0.378199 0.481607
Si Si2 0.210696 0.383365 0.010426
Si Si3 0.384514 0.678817 0.629997
Si Si4 0.179191 0.324061 0.748253
Si Si5 0.883325 0.800453 0.129805
O O1 0.106160 0.500000 0.472914
O O2 0.207212 0.349027 0.406993
O O3 0.121381 0.352749 0.624884
O O4 0.000000 0.336503 0.435774
O O5 0.228614 0.500000 0.043947
O O6 0.155997 0.376948 0.877510
O O7 0.313370 0.313370 0.000000
O O8 0.140885 0.319043 0.103730
O O9 0.379348 0.620652 0.500000
O O10 0.500000 0.676492 0.675833
O O11 0.296621 0.643279 0.720296
O O12 0.166383 0.204042 0.775659
O O13 0.000000 0.817950 0.162298
O O14 0.856049 0.856049 0.000000
#
# Coordination Sequence:
#
# PCOD9557475 Si02
#       5
#     8   8   8   8   8
#     4   9  17  30  49  72  96 123 157 197 240 284
#     4   9  19  34  50  71 100 131 163 199 240 288
#     4   9  18  32  47  67  97 129 159 193 232 278
#     4   9  18  31  50  72  96 124 159 199 239 284
#     4   9  20  36  52  72  98 128 162 201 247 295
#
# _framework density 21.278237000000001
#
# number of rings (size 3 to 8) (size 9 to 14) (size 15 to 20)
#    0.000    3.400    0.000    0.600    0.000    9.000 
#    0.000    0.000    0.000    0.000    0.000    0.000 
#    0.000    0.000    0.000    0.000    0.000    0.000 
#
# Total GULP energy -223015.177290 kJ/mol
# GULP energy per Si atom -5575.379432 kJ/mol
# Density = 2.122981 g / cm^3
# Si number density = 21.278237 Si / 1000 Ang^3
#
#
#
# Elastic Constant Matrix: (Units=GPa)
#
#
# Indices 1 2 3 4 5 6 
#
# 1 55.6984 10.8729 -17.3289 0.0000 0.0000 0.0000
# 2 10.8729 55.6980 -17.3291 0.0000 0.0000 0.0000
# 3 -17.3289 -17.3291 39.2531 0.0000 0.0000 0.0000
# 4 0.0000 0.0000 0.0000 -3.4005 0.0000 0.0000
# 5 0.0000 0.0000 0.0000 0.0000 -3.4005 0.0000
# 6 0.0000 0.0000 0.0000 0.0000 0.0000 6.9273
#
#
#
# Elastic Compliance Matrix: (Units=1/GPa)
#
#
# Indices 1 2 3 4 5 6 
#
# 1 0.020906 -0.001402 0.008610 0.000000 0.000000 0.000000
# 2 -0.001402 0.020907 0.008611 0.000000 0.000000 0.000000
# 3 0.008610 0.008611 0.033078 0.000000 0.000000 0.000000
# 4 0.000000 0.000000 0.000000 -0.294071 0.000000 0.000000
# 5 0.000000 0.000000 0.000000 0.000000 -0.294072 0.000000
# 6 0.000000 0.000000 0.000000 0.000000 0.000000 0.144356
#
#
# Mechanical properties :
#
#
# Convention : Reuss Voigt Hill
#
# Bulk Modulus (GPa) = 9.38712 11.45327 10.42020
# Shear Modulus (GPa) = -13.69774 11.65423 -1.02176
#
# Velocity S-wave (km/s) = -2.53996 2.34285 -0.69371
# Velocity P-wave (km/s) = 2.04468 3.56552 2.06545
#
# Compressibility (1/GPa) = 0.10652892
#
# Stress axis : x y z
#
# Youngs Moduli (GPa) = 47.83217 47.83155 30.23137
#
# Poissons Ratio (x) = 0.06707 -0.26030
# Poissons Ratio (y) = 0.06707 -0.26031
# Poissons Ratio (z) = -0.41185 -0.41186
#
# Static dielectric constant tensor:
#      x y z
#    x 1.826730 0.000000 0.000000 
#    y 0.000000 1.826730 0.000000 
#    z 0.000000 0.000000 1.801700 
# 
# From -- ./inp_files/2711.got.cif
#   From: 2010.05.17/outbox.cif.g08.bks.cpg/sg115_2_cif.got.tgz:2711.got - 2010.05.20 11:07:42.
