data_PCOD9557051
_publ_section_title
;
Structure prediction by ZEFSAII (Michael W. Deem and Ramdas Pophale) SiO2 
 PCOD9557051
Probable space group: P -4 M 2
;
_chemical_formula_sum "Si O2"
_cell_formula_units_Z 33
_cell_length_a 8.431643
_cell_length_b 8.431643
_cell_length_c 24.237876
_cell_angle_alpha 90.000000
_cell_angle_beta 90.000000
_cell_angle_gamma 90.000000
_cell_volume 1723.133712
_symmetry_space_group_name_H-M "P -4 M 2"
_symmetry_group_IT_number 115
_symmetry_cell_setting 'tetragonal'
loop_
_space_group_symop_operation_xyz
x,y,z
y,-x,-z
-x,-y,z
-y,x,-z
y,x,-z
-y,-x,-z
-x,y,z
x,-y,z
loop_
_atom_site_type_symbol
_atom_site_label
_atom_site_fract_x
_atom_site_fract_y
_atom_site_fract_z
Si Si1 0.310998 0.310998 0.500000
Si Si2 0.500000 0.678485 0.107741
Si Si3 0.191502 0.176038 0.841430
Si Si4 0.500000 0.500000 0.000000
Si Si5 0.190574 0.321011 0.729032
Si Si6 0.308748 0.180110 0.617023
O O1 0.284571 0.500000 0.503670
O O2 0.251296 0.236257 0.556970
O O3 0.500000 0.500000 0.131887
O O4 0.334516 0.757243 0.125999
O O5 0.500000 0.648168 0.041750
O O6 0.243566 0.204626 0.777861
O O7 0.000000 0.174623 0.842189
O O8 0.245831 0.000000 0.860228
O O9 0.235470 0.500000 0.745108
O O10 0.254037 0.282367 0.668698
O O11 0.000000 0.313122 0.726643
O O12 0.500000 0.185954 0.615151
O O13 0.257552 0.000000 0.626745
#
# Coordination Sequence:
#
# PCOD9557051 Si02
#       6
#     4   4   8   1   8   8
#     4   9  18  34  52  67  92 140 190 237 294 359
#     4  10  21  41  64  90 129 169 207 257 307 357
#     4  10  20  37  63  93 127 168 213 260 315 378
#     4   8  24  44  64  92 128 176 208 238 304 356
#     4  10  20  35  56  82 114 154 195 243 303 365
#     4  10  21  35  51  75 108 141 184 242 300 363
#
# _framework density 19.151156
#
# number of rings (size 3 to 8) (size 9 to 14) (size 15 to 20)
#    0.364    1.818    1.212    1.818    0.000    5.333 
#    0.000    4.848    0.000    1.455    0.000    0.000 
#    0.000    0.000    0.000    0.000    0.000    0.000 
#
# Total GULP energy -183925.068300 kJ/mol
# GULP energy per Si atom -5573.486918 kJ/mol
# Density = 1.910757 g / cm^3
# Si number density = 19.151156 Si / 1000 Ang^3
#
#
#
# Elastic Constant Matrix: (Units=GPa)
#
#
# Indices 1 2 3 4 5 6 
#
# 1 59.7041 44.0941 30.9379 0.0000 0.0000 0.0000
# 2 44.0941 59.7041 30.9379 0.0000 0.0000 0.0000
# 3 30.9379 30.9379 110.8256 0.0000 0.0000 0.0000
# 4 0.0000 0.0000 0.0000 -2.7112 0.0000 0.0000
# 5 0.0000 0.0000 0.0000 0.0000 -2.7112 0.0000
# 6 0.0000 0.0000 0.0000 0.0000 0.0000 22.3091
#
#
#
# Elastic Compliance Matrix: (Units=1/GPa)
#
#
# Indices 1 2 3 4 5 6 
#
# 1 0.037809 -0.026252 -0.003226 0.000000 0.000000 0.000000
# 2 -0.026252 0.037809 -0.003226 0.000000 0.000000 0.000000
# 3 -0.003226 -0.003226 0.010824 0.000000 0.000000 0.000000
# 4 0.000000 0.000000 0.000000 -0.368844 0.000000 0.000000
# 5 0.000000 0.000000 0.000000 0.000000 -0.368844 0.000000
# 6 0.000000 0.000000 0.000000 0.000000 0.000000 0.044825
#
#
# Mechanical properties :
#
#
# Convention : Reuss Voigt Hill
#
# Bulk Modulus (GPa) = 47.54234 49.13037 48.33636
# Shear Modulus (GPa) = -9.36331 11.66162 1.14916
#
# Velocity S-wave (km/s) = -2.21354 2.47032 0.77547
# Velocity P-wave (km/s) = 4.28318 5.81776 5.10842
#
# Compressibility (1/GPa) = 0.02103388
#
# Stress axis : x y z
#
# Youngs Moduli (GPa) = 26.44852 26.44852 92.38309
#
# Poissons Ratio (x) = 0.69433 0.29806
# Poissons Ratio (y) = 0.69433 0.29806
# Poissons Ratio (z) = 0.08533 0.08533
#
# Static dielectric constant tensor:
#      x y z
#    x 1.680300 0.000000 0.000000 
#    y 0.000000 1.680300 0.000000 
#    z 0.000000 0.000000 1.662200 
# 
# From -- ./inp_files/4690.got.cif
#   From: 2010.05.17/outbox.cif.g08.bks.cpg/sg115_3_cif.got.tgz:4690.got - 2010.05.20 11:07:42.
