data_PCOD9557272
_publ_section_title
;
Structure prediction by ZEFSAII (Michael W. Deem and Ramdas Pophale) SiO2 
 PCOD9557272
Probable space group: P -4 M 2
;
_chemical_formula_sum "Si O2"
_cell_formula_units_Z 48
_cell_length_a 9.039268
_cell_length_b 9.039268
_cell_length_c 31.638377
_cell_angle_alpha 90.000000
_cell_angle_beta 90.000000
_cell_angle_gamma 90.000000
_cell_volume 2585.120087
_symmetry_space_group_name_H-M "P -4 M 2"
_symmetry_group_IT_number 115
_symmetry_cell_setting 'tetragonal'
loop_
_space_group_symop_operation_xyz
x,y,z
y,-x,-z
-x,-y,z
-y,x,-z
y,x,-z
-y,-x,-z
-x,y,z
x,-y,z
loop_
_atom_site_type_symbol
_atom_site_label
_atom_site_fract_x
_atom_site_fract_y
_atom_site_fract_z
Si Si1 0.824288 0.675996 0.796018
Si Si2 0.825725 0.176957 0.627519
Si Si3 0.177127 0.675000 0.284568
Si Si4 0.823659 0.676341 0.959091
Si Si5 0.823779 0.676225 0.122625
Si Si6 0.825014 0.324239 0.540097
O O1 0.799774 0.500000 0.798840
O O2 0.760012 0.738401 0.752335
O O3 0.743545 0.756674 0.834692
O O4 0.000000 0.703372 0.798286
O O5 0.736430 0.219884 0.669342
O O6 0.774578 0.254466 0.584525
O O7 0.000000 0.211334 0.633804
O O8 0.812373 0.000000 0.622222
O O9 0.204615 0.500000 0.281692
O O10 0.000000 0.699208 0.279703
O O11 0.798346 0.500000 0.959537
O O12 0.752967 0.746914 0.917316
O O13 0.000000 0.701675 0.959487
O O14 0.750053 0.750053 0.000000
O O15 0.798317 0.500000 0.121338
O O16 0.000000 0.701617 0.121262
O O17 0.742039 0.257962 0.500000
O O18 0.807605 0.500000 0.541495
O O19 0.000000 0.289688 0.535922
#
# Coordination Sequence:
#
# PCOD9557272 Si02
#       6
#     8   8   8   8   8   8
#     4  11  24  40  59  85 116 151 192 236 282 335
#     4   9  18  34  56  80 108 145 187 229 274 327
#     4  10  21  37  58  85 115 147 185 229 278 334
#     4  11  24  41  62  90 122 156 197 241 286 340
#     4  11  24  41  62  89 119 152 193 239 287 341
#     4  10  21  36  55  80 110 144 183 228 277 330
#
# _framework density 18.567803000000001
#
# number of rings (size 3 to 8) (size 9 to 14) (size 15 to 20)
#    0.000    1.667    0.000    4.000    0.000   13.333 
#    0.000    3.333    0.000    0.000    0.000    0.000 
#    0.000    0.000    0.000    0.000    0.000    0.000 
#
# Total GULP energy -268357.360268 kJ/mol
# GULP energy per Si atom -5590.778339 kJ/mol
# Density = 1.852554 g / cm^3
# Si number density = 18.567803 Si / 1000 Ang^3
#
#
#
# Elastic Constant Matrix: (Units=GPa)
#
#
# Indices 1 2 3 4 5 6 
#
# 1 95.7795 89.9613 89.8127 0.0000 0.0000 0.0000
# 2 89.9613 95.7769 89.8108 0.0000 0.0000 0.0000
# 3 89.8127 89.8108 194.0837 0.0000 0.0000 0.0000
# 4 0.0000 0.0000 0.0000 88.8374 0.0000 0.0000
# 5 0.0000 0.0000 0.0000 0.0000 88.8400 0.0000
# 6 0.0000 0.0000 0.0000 0.0000 0.0000 26.9798
#
#
#
# Elastic Compliance Matrix: (Units=1/GPa)
#
#
# Indices 1 2 3 4 5 6 
#
# 1 0.090829 -0.081085 -0.004510 0.000000 0.000000 0.000000
# 2 -0.081085 0.090830 -0.004509 0.000000 0.000000 0.000000
# 3 -0.004510 -0.004509 0.009326 0.000000 0.000000 0.000000
# 4 0.000000 0.000000 0.000000 0.011257 0.000000 0.000000
# 5 0.000000 0.000000 0.000000 0.000000 0.011256 0.000000
# 6 0.000000 0.000000 0.000000 0.000000 0.000000 0.037065
#
#
# Mechanical properties :
#
#
# Convention : Reuss Voigt Hill
#
# Bulk Modulus (GPa) = 92.78265 102.75664 97.76964
# Shear Modulus (GPa) = 11.51116 48.66845 30.08980
#
# Velocity S-wave (km/s) = 2.49259 5.12524 4.02996
# Velocity P-wave (km/s) = 7.63951 9.51239 8.62693
#
# Compressibility (1/GPa) = 0.01077788
#
# Stress axis : x y z
#
# Youngs Moduli (GPa) = 11.00975 11.00958 107.22924
#
# Poissons Ratio (x) = 0.89271 0.48360
# Poissons Ratio (y) = 0.89272 0.48348
# Poissons Ratio (z) = 0.04965 0.04964
#
# Static dielectric constant tensor:
#      x y z
#    x 1.620440 0.000000 0.000000 
#    y 0.000000 1.620440 0.000000 
#    z 0.000000 0.000000 1.602580 
# 
# From -- ./inp_files/6073.got.cif
#   From: 2010.05.17/outbox.cif.g08.bks.cpg/sg115_4_cif.got.tgz:6073.got - 2010.05.20 11:07:42.
