data_PCOD9557430
_publ_section_title
;
Structure prediction by ZEFSAII (Michael W. Deem and Ramdas Pophale) SiO2 
 PCOD9557430
Probable space group: P -4 M 2
;
_chemical_formula_sum "Si O2"
_cell_formula_units_Z 48
_cell_length_a 17.847262
_cell_length_b 17.847262
_cell_length_c 9.097190
_cell_angle_alpha 90.000000
_cell_angle_beta 90.000000
_cell_angle_gamma 90.000000
_cell_volume 2897.680270
_symmetry_space_group_name_H-M "P -4 M 2"
_symmetry_group_IT_number 115
_symmetry_cell_setting 'tetragonal'
loop_
_space_group_symop_operation_xyz
x,y,z
y,-x,-z
-x,-y,z
-y,x,-z
y,x,-z
-y,-x,-z
-x,y,z
x,-y,z
loop_
_atom_site_type_symbol
_atom_site_label
_atom_site_fract_x
_atom_site_fract_y
_atom_site_fract_z
Si Si1 0.084314 0.410501 0.576555
Si Si2 0.916878 0.857193 0.139218
Si Si3 0.085262 0.826605 0.595746
Si Si4 0.296601 0.188348 0.565740
Si Si5 0.283279 0.826174 0.913731
Si Si6 0.086943 0.589239 0.924208
O O1 0.086063 0.500000 0.562685
O O2 0.152282 0.373684 0.488580
O O3 0.000000 0.385760 0.529046
O O4 0.091948 0.392677 0.750052
O O5 0.850266 0.879254 0.249849
O O6 0.895834 0.774788 0.082899
O O7 0.000000 0.858910 0.204516
O O8 0.911261 0.911261 0.000000
O O9 0.098783 0.901218 0.500000
O O10 0.128491 0.762334 0.506112
O O11 0.000000 0.806323 0.614803
O O12 0.267015 0.267015 0.500000
O O13 0.293780 0.191601 0.741423
O O14 0.359189 0.855094 0.988473
O O15 0.241375 0.758625 0.000000
O O16 0.100586 0.500000 0.941852
O O17 0.000000 0.603041 0.968687
#
# Coordination Sequence:
#
# PCOD9557430 Si02
#       6
#     8   8   8   8   8   8
#     4   9  19  35  56  81 107 136 170 213 266 320
#     4  11  23  36  48  66  90 124 171 220 269 313
#     4  11  22  34  47  66  91 125 169 220 270 311
#     4  11  21  36  51  74 101 131 172 215 261 315
#     4  11  22  36  53  73  99 134 173 213 260 314
#     4   9  19  35  55  79 106 137 172 214 266 321
#
# _framework density 16.564975
#
# number of rings (size 3 to 8) (size 9 to 14) (size 15 to 20)
#    0.000    1.667    3.333    4.000    2.333    4.667 
#    0.000    1.667    0.000    0.000    0.000    0.000 
#    0.000    0.667    0.000    7.000    0.000    3.000 
#
# Total GULP energy -267566.295664 kJ/mol
# GULP energy per Si atom -5574.297826 kJ/mol
# Density = 1.652727 g / cm^3
# Si number density = 16.564975 Si / 1000 Ang^3
#
#
#
# Elastic Constant Matrix: (Units=GPa)
#
#
# Indices 1 2 3 4 5 6 
#
# 1 54.0711 21.5753 36.0759 0.0000 0.0000 0.0000
# 2 21.5753 54.0709 36.0760 0.0000 0.0000 0.0000
# 3 36.0759 36.0760 99.0321 0.0000 0.0000 0.0000
# 4 0.0000 0.0000 0.0000 26.8846 0.0000 0.0000
# 5 0.0000 0.0000 0.0000 0.0000 26.8846 0.0000
# 6 0.0000 0.0000 0.0000 0.0000 0.0000 27.8389
#
#
#
# Elastic Compliance Matrix: (Units=1/GPa)
#
#
# Indices 1 2 3 4 5 6 
#
# 1 0.025516 -0.005257 -0.007380 0.000000 0.000000 0.000000
# 2 -0.005257 0.025516 -0.007380 0.000000 0.000000 0.000000
# 3 -0.007380 -0.007380 0.015474 0.000000 0.000000 0.000000
# 4 0.000000 0.000000 0.000000 0.037196 0.000000 0.000000
# 5 0.000000 0.000000 0.000000 0.000000 0.037196 0.000000
# 6 0.000000 0.000000 0.000000 0.000000 0.000000 0.035921
#
#
# Mechanical properties :
#
#
# Convention : Reuss Voigt Hill
#
# Bulk Modulus (GPa) = 37.77597 43.84761 40.81179
# Shear Modulus (GPa) = 22.15554 23.88476 23.02015
#
# Velocity S-wave (km/s) = 3.66114 3.80133 3.73190
# Velocity P-wave (km/s) = 6.38171 6.76715 6.57725
#
# Compressibility (1/GPa) = 0.02647186
#
# Stress axis : x y z
#
# Youngs Moduli (GPa) = 39.19155 39.19121 64.62269
#
# Poissons Ratio (x) = 0.20605 0.47690
# Poissons Ratio (y) = 0.20605 0.47691
# Poissons Ratio (z) = 0.28922 0.28923
#
# Static dielectric constant tensor:
#      x y z
#    x 1.583020 0.000000 0.000000 
#    y 0.000000 1.583020 0.000000 
#    z 0.000000 0.000000 1.604940 
# 
# From -- ./inp_files/1825.got.cif
#   From: 2010.05.17/outbox.cif.g08.bks.cpg/sg115_1_cif.got.tgz:1825.got - 2010.05.20 11:07:42.
