data_PCOD9557215
_publ_section_title
;
Structure prediction by ZEFSAII (Michael W. Deem and Ramdas Pophale) SiO2 
 PCOD9557215
Probable space group: P -4 M 2
;
_chemical_formula_sum "Si O2"
_cell_formula_units_Z 32
_cell_length_a 9.333321
_cell_length_b 9.333321
_cell_length_c 21.393049
_cell_angle_alpha 90.000000
_cell_angle_beta 90.000000
_cell_angle_gamma 90.000000
_cell_volume 1863.567343
_symmetry_space_group_name_H-M "P -4 M 2"
_symmetry_group_IT_number 115
_symmetry_cell_setting 'tetragonal'
loop_
_space_group_symop_operation_xyz
x,y,z
y,-x,-z
-x,-y,z
-y,x,-z
y,x,-z
-y,-x,-z
-x,y,z
x,-y,z
loop_
_atom_site_type_symbol
_atom_site_label
_atom_site_fract_x
_atom_site_fract_y
_atom_site_fract_z
Si Si1 0.169264 0.170756 0.183452
Si Si2 0.174697 0.335483 0.308549
Si Si3 0.174792 0.834293 0.430989
Si Si4 0.829158 0.330138 0.944088
O O1 0.217253 0.252271 0.245817
O O2 0.257910 0.210532 0.121976
O O3 0.000000 0.200624 0.173026
O O4 0.183446 0.000000 0.193415
O O5 0.220032 0.500000 0.306723
O O6 0.222829 0.258112 0.372063
O O7 0.000000 0.332234 0.309522
O O8 0.218577 0.781424 0.500000
O O9 0.000000 0.833328 0.432034
O O10 0.218318 0.000000 0.423034
O O11 0.804002 0.500000 0.942506
O O12 0.000000 0.306122 0.953096
O O13 0.743657 0.256344 0.000000
#
# Coordination Sequence:
#
# PCOD9557215 Si02
#       4
#     8   8   8   8
#     4   9  17  30  49  71  95 124 156 191 234 283
#     4   9  16  25  40  65  94 120 150 192 236 275
#     4   8  13  22  38  60  85 114 149 188 230 277
#     4  10  21  36  54  76 101 129 162 200 241 287
#
# _framework density 17.171368999999999
#
# number of rings (size 3 to 8) (size 9 to 14) (size 15 to 20)
#    0.000    3.000    0.000    2.250    0.000    5.500 
#    0.000    2.500    0.000    1.500    0.000    7.000 
#    0.000    0.000    0.000    0.000    0.000    0.000 
#
# Total GULP energy -178327.216636 kJ/mol
# GULP energy per Si atom -5572.725520 kJ/mol
# Density = 1.713229 g / cm^3
# Si number density = 17.171369 Si / 1000 Ang^3
#
#
#
# Elastic Constant Matrix: (Units=GPa)
#
#
# Indices 1 2 3 4 5 6 
#
# 1 49.9812 39.6534 81.3388 0.0000 0.0000 0.0000
# 2 39.6534 49.9824 81.3378 0.0000 0.0000 0.0000
# 3 81.3388 81.3378 222.5997 0.0000 0.0000 0.0000
# 4 0.0000 0.0000 0.0000 -4.5838 0.0000 0.0000
# 5 0.0000 0.0000 0.0000 0.0000 -4.5831 0.0000
# 6 0.0000 0.0000 0.0000 0.0000 0.0000 10.8835
#
#
#
# Elastic Compliance Matrix: (Units=1/GPa)
#
#
# Indices 1 2 3 4 5 6 
#
# 1 0.064973 -0.031850 -0.012104 0.000000 0.000000 0.000000
# 2 -0.031850 0.064967 -0.012101 0.000000 0.000000 0.000000
# 3 -0.012104 -0.012101 0.013337 0.000000 0.000000 0.000000
# 4 0.000000 0.000000 0.000000 -0.218160 0.000000 0.000000
# 5 0.000000 0.000000 0.000000 0.000000 -0.218192 0.000000
# 6 0.000000 0.000000 0.000000 0.000000 0.000000 0.091882
#
#
# Mechanical properties :
#
#
# Convention : Reuss Voigt Hill
#
# Bulk Modulus (GPa) = 32.08368 80.80258 56.44313
# Shear Modulus (GPa) = -63.53747 8.35888 -27.58930
#
# Velocity S-wave (km/s) = -6.08952 2.20873 -4.01272
# Velocity P-wave (km/s) = 5.54239 7.32553 3.38713
#
# Compressibility (1/GPa) = 0.03116849
#
# Stress axis : x y z
#
# Youngs Moduli (GPa) = 15.39095 15.39238 74.98104
#
# Poissons Ratio (x) = 0.49025 0.90754
# Poissons Ratio (y) = 0.49020 0.90734
# Poissons Ratio (z) = 0.18628 0.18626
#
# Static dielectric constant tensor:
#      x y z
#    x 1.565230 0.000000 0.000000 
#    y 0.000000 1.565230 0.000000 
#    z 0.000000 0.000000 1.573860 
# 
# From -- ./inp_files/4573.got.cif
#   From: 2010.05.17/outbox.cif.g08.bks.cpg/sg115_3_cif.got.tgz:4573.got - 2010.05.20 11:07:42.
