data_PCOD9557645
_publ_section_title
;
Structure prediction by ZEFSAII (Michael W. Deem and Ramdas Pophale) SiO2 
 PCOD9557645
Probable space group: P -4 C 2
;
_chemical_formula_sum "Si O2"
_cell_formula_units_Z 34
_cell_length_a 6.954434
_cell_length_b 6.954434
_cell_length_c 24.112182
_cell_angle_alpha 90.000000
_cell_angle_beta 90.000000
_cell_angle_gamma 90.000000
_cell_volume 1166.165242
_symmetry_space_group_name_H-M "P -4 C 2"
_symmetry_group_IT_number 116
_symmetry_cell_setting 'tetragonal'
loop_
_space_group_symop_operation_xyz
x,y,z
y,-x,-z
-x,-y,z
-y,x,-z
y,x,1/2-z
-y,-x,1/2-z
-x,y,1/2+z
x,-y,1/2+z
loop_
_atom_site_type_symbol
_atom_site_label
_atom_site_fract_x
_atom_site_fract_y
_atom_site_fract_z
Si Si1 0.641789 0.722681 0.813677
Si Si2 0.000000 0.000000 0.250000
Si Si3 0.339081 0.734348 0.067340
Si Si4 0.207277 0.679069 0.547614
Si Si5 0.233475 0.843342 0.834564
O O1 0.668118 0.668118 0.750000
O O2 0.764542 0.646841 0.866840
O O3 0.411666 0.699635 0.825563
O O4 0.688650 0.949140 0.816497
O O5 0.172860 0.052162 0.206148
O O6 0.559646 0.699397 0.049055
O O7 0.197046 0.548932 0.063450
O O8 0.278531 0.864089 0.014637
O O9 0.142606 0.804150 0.600000
#
# Coordination Sequence:
#
# PCOD9557645 Si02
#       5
#     8   2   8   8   8
#     4  10  20  37  57  83 113 157 201 254 299 371
#     4  12  24  40  50  82 120 162 194 250 308 384
#     4   8  15  30  58  86 115 134 198 253 307 356
#     4   8  15  32  55  87 111 148 182 258 311 357
#     4  10  22  37  56  75 120 159 194 243 319 364
#
# _framework density 29.155390000000001
#
# number of rings (size 3 to 8) (size 9 to 14) (size 15 to 20)
#    0.000    2.824    1.176    1.412    3.294    0.000 
#    0.000    2.353    0.000    5.647    0.000    0.000 
#    0.000    0.000    0.000    0.000    0.000    0.000 
#
# Total GULP energy -189681.338755 kJ/mol
# GULP energy per Si atom -5578.862905 kJ/mol
# Density = 2.908903 g / cm^3
# Si number density = 29.155390 Si / 1000 Ang^3
#
#
#
# Elastic Constant Matrix: (Units=GPa)
#
#
# Indices 1 2 3 4 5 6 
#
# 1 75.1004 7.2975 54.9076 0.0000 0.0000 0.0000
# 2 7.2975 75.1004 54.9076 0.0000 0.0000 0.0000
# 3 54.9076 54.9076 406.2137 0.0000 0.0000 0.0000
# 4 0.0000 0.0000 0.0000 57.2159 0.0000 0.0000
# 5 0.0000 0.0000 0.0000 0.0000 57.2159 0.0000
# 6 0.0000 0.0000 0.0000 0.0000 0.0000 34.2654
#
#
#
# Elastic Compliance Matrix: (Units=1/GPa)
#
#
# Indices 1 2 3 4 5 6 
#
# 1 0.014776 0.000027 -0.002001 0.000000 0.000000 0.000000
# 2 0.000027 0.014776 -0.002001 0.000000 0.000000 0.000000
# 3 -0.002001 -0.002001 0.003003 0.000000 0.000000 0.000000
# 4 0.000000 0.000000 0.000000 0.017478 0.000000 0.000000
# 5 0.000000 0.000000 0.000000 0.000000 0.017478 0.000000
# 6 0.000000 0.000000 0.000000 0.000000 0.000000 0.029184
#
#
# Mechanical properties :
#
#
# Convention : Reuss Voigt Hill
#
# Bulk Modulus (GPa) = 40.64232 87.84888 64.24560
# Shear Modulus (GPa) = 44.30877 59.02623 51.66750
#
# Velocity S-wave (km/s) = 3.90262 4.50437 4.21425
# Velocity P-wave (km/s) = 5.85469 7.56632 6.76486
#
# Compressibility (1/GPa) = 0.02460490
#
# Stress axis : x y z
#
# Youngs Moduli (GPa) = 67.67838 67.67838 333.03604
#
# Poissons Ratio (x) = -0.00184 0.66637
# Poissons Ratio (y) = -0.00184 0.66637
# Poissons Ratio (z) = 0.13542 0.13542
#
# Static dielectric constant tensor:
#      x y z
#    x 2.499260 0.000000 0.000000 
#    y 0.000000 2.499260 0.000000 
#    z 0.000000 0.000000 2.247550 
# 
# From -- ./inp_files/3871.got.cif
#   From: 2010.05.17/outbox.cif.g08.bks.cpg/sg116_2_cif.got.tgz:3871.got - 2010.05.20 11:11:43.
