data_PCOD9557969
_publ_section_title
;
Structure prediction by ZEFSAII (Michael W. Deem and Ramdas Pophale) SiO2 
 PCOD9557969
Probable space group: P -4 C 2
;
_chemical_formula_sum "Si O2"
_cell_formula_units_Z 48
_cell_length_a 8.819988
_cell_length_b 8.819988
_cell_length_c 27.544777
_cell_angle_alpha 90.000000
_cell_angle_beta 90.000000
_cell_angle_gamma 90.000000
_cell_volume 2142.768480
_symmetry_space_group_name_H-M "P -4 C 2"
_symmetry_group_IT_number 116
_symmetry_cell_setting 'tetragonal'
loop_
_space_group_symop_operation_xyz
x,y,z
y,-x,-z
-x,-y,z
-y,x,-z
y,x,1/2-z
-y,-x,1/2-z
-x,y,1/2+z
x,-y,1/2+z
loop_
_atom_site_type_symbol
_atom_site_label
_atom_site_fract_x
_atom_site_fract_y
_atom_site_fract_z
Si Si1 0.500000 0.500000 0.824900
Si Si2 0.500000 0.000000 0.577072
Si Si3 0.997334 0.328583 0.611041
Si Si4 0.251639 0.962936 0.498460
Si Si5 0.271161 0.766083 0.816211
Si Si6 0.787217 0.687967 0.850297
Si Si7 0.997476 0.331791 0.263050
O O1 0.406506 0.647804 0.803095
O O2 0.632200 0.592015 0.851260
O O3 0.625479 0.071027 0.540136
O O4 0.402367 0.107208 0.612346
O O5 0.015252 0.327177 0.553753
O O6 0.140566 0.238627 0.632204
O O7 0.000000 0.500000 0.629845
O O8 0.835092 0.271829 0.630303
O O9 0.121596 0.836005 0.492285
O O10 0.251626 0.916876 0.781867
O O11 0.120596 0.673889 0.806063
O O12 0.846558 0.699809 0.794054
O O13 0.000000 0.500000 0.243637
#
# Coordination Sequence:
#
# PCOD9557969 Si02
#       7
#     4   4   8   8   8   8   8
#     4  12  24  47  74 109 138 198 242 295 372 433
#     4  12  24  48  70 104 148 188 244 308 370 454
#     4  12  25  46  72 105 145 189 244 307 368 437
#     4  11  26  43  71 104 139 190 245 301 374 439
#     4  11  26  45  72 104 147 183 245 297 356 448
#     4  12  26  46  75 104 147 195 240 308 368 441
#     4  11  24  45  67 105 139 187 235 290 361 426
#
# _framework density 22.400925000000001
#
# number of rings (size 3 to 8) (size 9 to 14) (size 15 to 20)
#    0.000    0.500    6.667    0.500    4.667    2.667 
#    0.000    1.667    0.000    1.000    0.000    0.000 
#    0.000    0.000    0.000    0.000    0.000    0.000 
#
# Total GULP energy -267475.975733 kJ/mol
# GULP energy per Si atom -5572.416161 kJ/mol
# Density = 2.234994 g / cm^3
# Si number density = 22.400925 Si / 1000 Ang^3
#
#
#
# Elastic Constant Matrix: (Units=GPa)
#
#
# Indices 1 2 3 4 5 6 
#
# 1 87.6553 24.3995 39.0664 0.0000 0.0000 0.0000
# 2 24.3995 87.6553 39.0664 0.0000 0.0000 0.0000
# 3 39.0664 39.0664 127.8764 0.0000 0.0000 0.0000
# 4 0.0000 0.0000 0.0000 -313.6654 0.0000 0.0000
# 5 0.0000 0.0000 0.0000 0.0000 -313.6654 0.0000
# 6 0.0000 0.0000 0.0000 0.0000 0.0000 33.8986
#
#
#
# Elastic Compliance Matrix: (Units=1/GPa)
#
#
# Indices 1 2 3 4 5 6 
#
# 1 0.013574 -0.002235 -0.003464 0.000000 0.000000 0.000000
# 2 -0.002235 0.013574 -0.003464 0.000000 0.000000 0.000000
# 3 -0.003464 -0.003464 0.009937 0.000000 0.000000 0.000000
# 4 0.000000 0.000000 0.000000 -0.003188 0.000000 0.000000
# 5 0.000000 0.000000 0.000000 0.000000 -0.003188 0.000000
# 6 0.000000 0.000000 0.000000 0.000000 0.000000 0.029500
#
#
# Mechanical properties :
#
#
# Convention : Reuss Voigt Hill
#
# Bulk Modulus (GPa) = 53.30759 56.47238 54.88999
# Shear Modulus (GPa) = 58.97052 -105.30943 -23.16946
#
# Velocity S-wave (km/s) = 5.13636 -6.86391 -3.21955
# Velocity P-wave (km/s) = 7.68277 6.12806 3.27657
#
# Compressibility (1/GPa) = 0.01875905
#
# Stress axis : x y z
#
# Youngs Moduli (GPa) = 73.66868 73.66868 100.63651
#
# Poissons Ratio (x) = 0.16461 0.34864
# Poissons Ratio (y) = 0.16461 0.34864
# Poissons Ratio (z) = 0.25521 0.25521
#
# Static dielectric constant tensor:
#      x y z
#    x 2.269140 0.000000 0.000000 
#    y 0.000000 2.269140 0.000000 
#    z 0.000000 0.000000 1.845820 
# 
# From -- ./inp_files/5318.got.cif
#   From: 2010.05.17/outbox.cif.g08.bks.cpg/sg116_3_cif.got.tgz:5318.got - 2010.05.20 11:11:43.
