data_PCOD9557075
_publ_section_title
;
Structure prediction by ZEFSAII (Michael W. Deem and Ramdas Pophale) SiO2 
 PCOD9557075
Probable space group: P -4 M 2
;
_chemical_formula_sum "Si O2"
_cell_formula_units_Z 33
_cell_length_a 12.226289
_cell_length_b 12.226289
_cell_length_c 11.748859
_cell_angle_alpha 90.000000
_cell_angle_beta 90.000000
_cell_angle_gamma 90.000000
_cell_volume 1756.244618
_symmetry_space_group_name_H-M "P -4 M 2"
_symmetry_group_IT_number 115
_symmetry_cell_setting 'tetragonal'
loop_
_space_group_symop_operation_xyz
x,y,z
y,-x,-z
-x,-y,z
-y,x,-z
y,x,-z
-y,-x,-z
-x,y,z
x,-y,z
loop_
_atom_site_type_symbol
_atom_site_label
_atom_site_fract_x
_atom_site_fract_y
_atom_site_fract_z
Si Si1 0.243285 0.000000 0.582859
Si Si2 0.368856 0.879596 0.990910
Si Si3 0.627402 0.772708 0.217322
Si Si4 0.819735 0.629525 0.273913
Si Si5 0.000000 0.625774 0.647001
Si Si6 0.000000 0.000000 0.500000
O O1 0.296515 0.103452 0.647167
O O2 0.289119 0.000000 0.455021
O O3 0.111831 0.000000 0.574457
O O4 0.500000 0.885099 0.009054
O O5 0.356333 0.856273 0.857707
O O6 0.321893 0.000000 0.015077
O O7 0.333327 0.794826 0.087701
O O8 0.500000 0.742518 0.217385
O O9 0.698882 0.679917 0.276673
O O10 0.638743 0.889899 0.279449
O O11 0.826679 0.500000 0.301516
O O12 0.000000 0.500000 0.603118
#
# Coordination Sequence:
#
# PCOD9557075 Si02
#       6
#     4   8   8   8   4   1
#     4  12  24  43  63  84 114 148 192 249 300 356
#     4   9  16  32  56  84 114 150 197 239 281 341
#     4  10  20  35  58  87 120 155 197 245 291 348
#     4  11  22  36  59  88 119 156 195 237 293 361
#     4  10  20  37  62  87 111 153 207 246 292 355
#     4  12  28  44  64  88 114 148 192 256 316 354
#
# _framework density 18.790092999999999
#
# number of rings (size 3 to 8) (size 9 to 14) (size 15 to 20)
#    0.000    1.697    2.424    3.273    0.000    0.485 
#    0.000    0.000    0.000    4.364    0.000    3.394 
#    0.000    0.000    0.000    0.000    0.000    0.000 
#
# Total GULP energy -184041.644624 kJ/mol
# GULP energy per Si atom -5577.019534 kJ/mol
# Density = 1.874733 g / cm^3
# Si number density = 18.790093 Si / 1000 Ang^3
#
#
#
# Elastic Constant Matrix: (Units=GPa)
#
#
# Indices 1 2 3 4 5 6 
#
# 1 114.4946 61.0331 39.3505 0.0000 0.0000 0.0000
# 2 61.0331 114.4946 39.3505 0.0000 0.0000 0.0000
# 3 39.3505 39.3505 68.3132 0.0000 0.0000 0.0000
# 4 0.0000 0.0000 0.0000 28.7403 0.0000 0.0000
# 5 0.0000 0.0000 0.0000 0.0000 28.7403 0.0000
# 6 0.0000 0.0000 0.0000 0.0000 0.0000 27.0520
#
#
#
# Elastic Compliance Matrix: (Units=1/GPa)
#
#
# Indices 1 2 3 4 5 6 
#
# 1 0.013193 -0.005512 -0.004424 0.000000 0.000000 0.000000
# 2 -0.005512 0.013193 -0.004424 0.000000 0.000000 0.000000
# 3 -0.004424 -0.004424 0.019736 0.000000 0.000000 0.000000
# 4 0.000000 0.000000 0.000000 0.034794 0.000000 0.000000
# 5 0.000000 0.000000 0.000000 0.000000 0.034794 0.000000
# 6 0.000000 0.000000 0.000000 0.000000 0.000000 0.036966
#
#
# Mechanical properties :
#
#
# Convention : Reuss Voigt Hill
#
# Bulk Modulus (GPa) = 57.47215 64.08562 60.77889
# Shear Modulus (GPa) = 26.70971 27.41108 27.06040
#
# Velocity S-wave (km/s) = 3.77434 3.82357 3.79904
# Velocity P-wave (km/s) = 7.04606 7.32619 7.18749
#
# Compressibility (1/GPa) = 0.01739973
#
# Stress axis : x y z
#
# Youngs Moduli (GPa) = 75.79806 75.79806 50.66975
#
# Poissons Ratio (x) = 0.41780 0.22418
# Poissons Ratio (y) = 0.41780 0.22418
# Poissons Ratio (z) = 0.33536 0.33536
#
# Static dielectric constant tensor:
#      x y z
#    x 1.659350 0.000000 0.000000 
#    y 0.000000 1.659350 0.000000 
#    z 0.000000 0.000000 1.657360 
# 
# From -- ./inp_files/2593.got.cif
#   From: 2010.05.17/outbox.cif.g08.bks.cpg/sg115_2_cif.got.tgz:2593.got - 2010.05.20 11:07:42.
