data_PCOD9557577
_publ_section_title
;
Structure prediction by ZEFSAII (Michael W. Deem and Ramdas Pophale) SiO2 
 PCOD9557577
Probable space group: P -4 C 2
;
_chemical_formula_sum "Si O2"
_cell_formula_units_Z 46
_cell_length_a 11.250639
_cell_length_b 11.250639
_cell_length_c 18.288813
_cell_angle_alpha 90.000000
_cell_angle_beta 90.000000
_cell_angle_gamma 90.000000
_cell_volume 2314.940850
_symmetry_space_group_name_H-M "P -4 C 2"
_symmetry_group_IT_number 116
_symmetry_cell_setting 'tetragonal'
loop_
_space_group_symop_operation_xyz
x,y,z
y,-x,-z
-x,-y,z
-y,x,-z
y,x,1/2-z
-y,-x,1/2-z
-x,y,1/2+z
x,-y,1/2+z
loop_
_atom_site_type_symbol
_atom_site_label
_atom_site_fract_x
_atom_site_fract_y
_atom_site_fract_z
Si Si1 0.128202 0.870047 0.633318
Si Si2 0.801539 0.383404 0.890365
Si Si3 0.000000 0.000000 0.500000
Si Si4 0.500000 0.000000 0.203435
Si Si5 0.677682 0.568064 0.524172
Si Si6 0.619575 0.423424 0.329754
Si Si7 0.242230 0.050520 0.752401
O O1 0.243663 0.785970 0.623565
O O2 0.080670 0.922487 0.556449
O O3 0.024838 0.800982 0.676850
O O4 0.178712 0.976443 0.685408
O O5 0.919137 0.425808 0.851694
O O6 0.712104 0.475755 0.852413
O O7 0.792617 0.406554 0.976618
O O8 0.386818 0.945271 0.247660
O O9 0.639458 0.430627 0.515711
O O10 0.674429 0.610118 0.606973
O O11 0.500000 0.500000 0.331703
O O12 0.629948 0.370053 0.250000
O O13 0.177696 0.177696 0.750000
#
# Coordination Sequence:
#
# PCOD9557577 Si02
#       7
#     8   8   2   4   8   8   8
#     4  10  21  39  70  94 122 164 224 278 321 385
#     4  10  21  40  58  92 132 162 203 272 326 383
#     4  12  20  42  68 104 108 170 256 264 328 410
#     4  10  24  38  62  96 134 170 208 256 350 406
#     4   9  15  35  57  82 121 164 207 251 311 377
#     4  10  19  33  61  92 119 163 221 254 310 398
#     4  10  19  43  69  92 129 171 210 277 332 386
#
# _framework density 19.870918
#
# number of rings (size 3 to 8) (size 9 to 14) (size 15 to 20)
#    0.000    2.087    5.217    0.522    0.000    6.261 
#   12.522    1.739    3.826    1.043    0.000    0.000 
#    0.000    0.000    0.000    0.000    0.000    0.000 
#
# Total GULP energy -256072.118056 kJ/mol
# GULP energy per Si atom -5566.785175 kJ/mol
# Density = 1.982569 g / cm^3
# Si number density = 19.870918 Si / 1000 Ang^3
#
#
#
# Elastic Constant Matrix: (Units=GPa)
#
#
# Indices 1 2 3 4 5 6 
#
# 1 70.9972 24.2941 37.3280 0.0000 0.0000 0.0000
# 2 24.2941 70.9971 37.3280 0.0000 0.0000 0.0000
# 3 37.3280 37.3280 160.5090 0.0000 0.0000 0.0000
# 4 0.0000 0.0000 0.0000 22.3641 0.0000 0.0000
# 5 0.0000 0.0000 0.0000 0.0000 22.3643 0.0000
# 6 0.0000 0.0000 0.0000 0.0000 0.0000 25.8463
#
#
#
# Elastic Compliance Matrix: (Units=1/GPa)
#
#
# Indices 1 2 3 4 5 6 
#
# 1 0.017122 -0.004290 -0.002984 0.000000 0.000000 0.000000
# 2 -0.004290 0.017122 -0.002984 0.000000 0.000000 0.000000
# 3 -0.002984 -0.002984 0.007618 0.000000 0.000000 0.000000
# 4 0.000000 0.000000 0.000000 0.044714 0.000000 0.000000
# 5 0.000000 0.000000 0.000000 0.000000 0.044714 0.000000
# 6 0.000000 0.000000 0.000000 0.000000 0.000000 0.038690
#
#
# Mechanical properties :
#
#
# Convention : Reuss Voigt Hill
#
# Bulk Modulus (GPa) = 46.84821 55.60039 51.22430
# Shear Modulus (GPa) = 25.30199 27.68517 26.49358
#
# Velocity S-wave (km/s) = 3.57223 3.73668 3.65538
# Velocity P-wave (km/s) = 6.37510 6.83071 6.60683
#
# Compressibility (1/GPa) = 0.02134553
#
# Stress axis : x y z
#
# Youngs Moduli (GPa) = 58.40434 58.40428 131.26438
#
# Poissons Ratio (x) = 0.25055 0.39172
# Poissons Ratio (y) = 0.25055 0.39173
# Poissons Ratio (z) = 0.17429 0.17429
#
# Static dielectric constant tensor:
#      x y z
#    x 1.729230 0.000000 0.000000 
#    y 0.000000 1.729230 0.000000 
#    z 0.000000 0.000000 1.724490 
# 
# From -- ./inp_files/3447.got.cif
#   From: 2010.05.17/outbox.cif.g08.bks.cpg/sg116_2_cif.got.tgz:3447.got - 2010.05.20 11:11:43.
