data_PCOD9557853
_publ_section_title
;
Structure prediction by ZEFSAII (Michael W. Deem and Ramdas Pophale) SiO2 
 PCOD9557853
Probable space group: P -4 C 2
;
_chemical_formula_sum "Si O2"
_cell_formula_units_Z 48
_cell_length_a 8.792479
_cell_length_b 8.792479
_cell_length_c 27.369064
_cell_angle_alpha 90.000000
_cell_angle_beta 90.000000
_cell_angle_gamma 90.000000
_cell_volume 2115.839032
_symmetry_space_group_name_H-M "P -4 C 2"
_symmetry_group_IT_number 116
_symmetry_cell_setting 'tetragonal'
loop_
_space_group_symop_operation_xyz
x,y,z
y,-x,-z
-x,-y,z
-y,x,-z
y,x,1/2-z
-y,-x,1/2-z
-x,y,1/2+z
x,-y,1/2+z
loop_
_atom_site_type_symbol
_atom_site_label
_atom_site_fract_x
_atom_site_fract_y
_atom_site_fract_z
Si Si1 0.432224 0.836082 0.552973
Si Si2 0.433269 0.667771 0.882984
Si Si3 0.016128 0.325718 0.296357
Si Si4 0.690099 0.251196 0.456163
Si Si5 0.143940 0.109920 0.869234
Si Si6 0.120246 0.684482 0.687645
O O1 0.354458 0.738236 0.595972
O O2 0.324388 0.843149 0.505706
O O3 0.573360 0.732477 0.534373
O O4 0.500000 0.000000 0.566717
O O5 0.500000 0.500000 0.874303
O O6 0.534727 0.745512 0.924856
O O7 0.440810 0.766097 0.833616
O O8 0.170860 0.232626 0.306609
O O9 0.025403 0.331939 0.237366
O O10 0.000000 0.500000 0.313005
O O11 0.890514 0.227545 0.325125
O O12 0.817841 0.191632 0.419261
O O13 0.280838 0.000487 0.854277
O O14 0.000000 0.000000 0.873960
#
# Coordination Sequence:
#
# PCOD9557853 Si02
#       6
#     8   8   8   8   8   8
#     4  11  25  43  71 101 141 187 233 294 358 420
#     4  10  24  42  70 100 139 182 241 285 358 428
#     4  10  23  42  68 101 139 180 231 291 374 426
#     4  11  24  44  69 101 140 189 232 293 358 428
#     4  10  24  42  71 101 138 182 239 292 366 437
#     4  10  23  44  68 100 140 178 230 306 348 437
#
# _framework density 22.686033999999999
#
# number of rings (size 3 to 8) (size 9 to 14) (size 15 to 20)
#    0.000    1.667    1.667    0.500   14.000    2.000 
#    0.000    1.667    0.000    0.000    0.000    0.000 
#    0.000    0.000    0.000    0.000    0.000    0.000 
#
# Total GULP energy -268126.599941 kJ/mol
# GULP energy per Si atom -5585.970832 kJ/mol
# Density = 2.263440 g / cm^3
# Si number density = 22.686034 Si / 1000 Ang^3
#
#
#
# Elastic Constant Matrix: (Units=GPa)
#
#
# Indices 1 2 3 4 5 6 
#
# 1 81.1227 17.3666 29.8751 0.0000 0.0000 0.0000
# 2 17.3666 81.1227 29.8751 0.0000 0.0000 0.0000
# 3 29.8751 29.8751 128.4024 0.0000 0.0000 0.0000
# 4 0.0000 0.0000 0.0000 26.6831 0.0000 0.0000
# 5 0.0000 0.0000 0.0000 0.0000 26.6831 0.0000
# 6 0.0000 0.0000 0.0000 0.0000 0.0000 27.9204
#
#
#
# Elastic Compliance Matrix: (Units=1/GPa)
#
#
# Indices 1 2 3 4 5 6 
#
# 1 0.013753 -0.001931 -0.002751 0.000000 0.000000 0.000000
# 2 -0.001931 0.013753 -0.002751 0.000000 0.000000 0.000000
# 3 -0.002751 -0.002751 0.009068 0.000000 0.000000 0.000000
# 4 0.000000 0.000000 0.000000 0.037477 0.000000 0.000000
# 5 0.000000 0.000000 0.000000 0.000000 0.037477 0.000000
# 6 0.000000 0.000000 0.000000 0.000000 0.000000 0.035816
#
#
# Mechanical properties :
#
#
# Convention : Reuss Voigt Hill
#
# Bulk Modulus (GPa) = 46.06239 49.43128 47.74684
# Shear Modulus (GPa) = 29.50781 30.49270 30.00025
#
# Velocity S-wave (km/s) = 3.61044 3.67020 3.64044
# Velocity P-wave (km/s) = 6.14237 6.30849 6.22599
#
# Compressibility (1/GPa) = 0.02170968
#
# Stress axis : x y z
#
# Youngs Moduli (GPa) = 72.70906 72.70906 110.27815
#
# Poissons Ratio (x) = 0.14043 0.30333
# Poissons Ratio (y) = 0.14043 0.30333
# Poissons Ratio (z) = 0.20000 0.20000
#
# Static dielectric constant tensor:
#      x y z
#    x 1.866800 0.000000 0.000000 
#    y 0.000000 1.866800 0.000000 
#    z 0.000000 0.000000 1.825500 
# 
# From -- ./inp_files/5250.got.cif
#   From: 2010.05.17/outbox.cif.g08.bks.cpg/sg116_3_cif.got.tgz:5250.got - 2010.05.20 11:11:43.
