data_PCOD9557113
_publ_section_title
;
Structure prediction by ZEFSAII (Michael W. Deem and Ramdas Pophale) SiO2 
 PCOD9557113
Probable space group: P -4 M 2
;
_chemical_formula_sum "Si O2"
_cell_formula_units_Z 34
_cell_length_a 7.682340
_cell_length_b 7.682340
_cell_length_c 28.326857
_cell_angle_alpha 90.000000
_cell_angle_beta 90.000000
_cell_angle_gamma 90.000000
_cell_volume 1671.804301
_symmetry_space_group_name_H-M "P -4 M 2"
_symmetry_group_IT_number 115
_symmetry_cell_setting 'tetragonal'
loop_
_space_group_symop_operation_xyz
x,y,z
y,-x,-z
-x,-y,z
-y,x,-z
y,x,-z
-y,-x,-z
-x,y,z
x,-y,z
loop_
_atom_site_type_symbol
_atom_site_label
_atom_site_fract_x
_atom_site_fract_y
_atom_site_fract_z
Si Si1 0.500000 0.500000 0.500000
Si Si2 0.298065 0.199847 0.859306
Si Si3 0.500000 0.210258 0.421050
Si Si4 0.200682 0.788495 0.755310
Si Si5 0.787845 0.199893 0.652544
Si Si6 0.500000 0.500000 0.000000
Si Si7 0.186337 0.500000 0.927354
O O1 0.500000 0.328722 0.467161
O O2 0.500000 0.199371 0.873044
O O3 0.287180 0.259089 0.804626
O O4 0.203674 0.332827 0.893434
O O5 0.232413 0.000000 0.861562
O O6 0.331454 0.254804 0.389128
O O7 0.500000 0.000000 0.429702
O O8 0.273044 0.735172 0.704260
O O9 0.000000 0.731848 0.758608
O O10 0.203535 0.000000 0.753076
O O11 0.000000 0.196576 0.655746
O O12 0.731019 0.000000 0.644658
O O13 0.335064 0.500000 0.965924
O O14 0.000000 0.500000 0.951354
#
# Coordination Sequence:
#
# PCOD9557113 Si02
#       7
#     1   8   4   8   8   1   4
#     4  12  28  44  56  86 108 128 196 260 304 362
#     4  10  20  37  61  93 135 171 201 244 292 353
#     4  10  22  41  61  79 109 148 187 243 305 354
#     4   8  14  27  51  86 125 160 197 234 270 334
#     4   8  15  31  56  85 117 154 193 232 280 343
#     4  12  28  52  64  94 124 144 204 276 324 366
#     4  12  26  45  71  93 119 162 205 255 317 370
#
# _framework density 20.337309999999999
#
# number of rings (size 3 to 8) (size 9 to 14) (size 15 to 20)
#    0.000    2.588    1.176    2.118    0.000    4.235 
#    2.118    2.353    0.000    0.000    0.000    0.000 
#    0.000    0.000    0.000    0.000    0.000    0.000 
#
# Total GULP energy -189753.483032 kJ/mol
# GULP energy per Si atom -5580.984795 kJ/mol
# Density = 2.029102 g / cm^3
# Si number density = 20.337310 Si / 1000 Ang^3
#
#
#
# Elastic Constant Matrix: (Units=GPa)
#
#
# Indices 1 2 3 4 5 6 
#
# 1 93.9845 29.1888 59.3740 0.0000 0.0000 0.0000
# 2 29.1888 93.9845 59.3740 0.0000 0.0000 0.0000
# 3 59.3740 59.3740 140.7485 0.0000 0.0000 0.0000
# 4 0.0000 0.0000 0.0000 34.4832 0.0000 0.0000
# 5 0.0000 0.0000 0.0000 0.0000 34.4832 0.0000
# 6 0.0000 0.0000 0.0000 0.0000 0.0000 -39.0156
#
#
#
# Elastic Compliance Matrix: (Units=1/GPa)
#
#
# Indices 1 2 3 4 5 6 
#
# 1 0.014558 -0.000875 -0.005772 0.000000 0.000000 0.000000
# 2 -0.000875 0.014558 -0.005772 0.000000 0.000000 0.000000
# 3 -0.005772 -0.005772 0.011975 0.000000 0.000000 0.000000
# 4 0.000000 0.000000 0.000000 0.029000 0.000000 0.000000
# 5 0.000000 0.000000 0.000000 0.000000 0.029000 0.000000
# 6 0.000000 0.000000 0.000000 0.000000 0.000000 -0.025631
#
#
# Mechanical properties :
#
#
# Convention : Reuss Voigt Hill
#
# Bulk Modulus (GPa) = 61.52808 69.39902 65.46355
# Shear Modulus (GPa) = 48.20826 18.04222 33.12524
#
# Velocity S-wave (km/s) = 4.87399 2.98174 4.04021
# Velocity P-wave (km/s) = 7.87362 6.78619 7.35004
#
# Compressibility (1/GPa) = 0.01625274
#
# Stress axis : x y z
#
# Youngs Moduli (GPa) = 68.68899 68.68899 83.50761
#
# Poissons Ratio (x) = 0.06009 0.48204
# Poissons Ratio (y) = 0.06009 0.48204
# Poissons Ratio (z) = 0.39650 0.39650
#
# Static dielectric constant tensor:
#      x y z
#    x 1.736800 0.000000 0.000000 
#    y 0.000000 1.736800 0.000000 
#    z 0.000000 0.000000 1.693080 
# 
# From -- ./inp_files/4753.got.cif
#   From: 2010.05.17/outbox.cif.g08.bks.cpg/sg115_3_cif.got.tgz:4753.got - 2010.05.20 11:07:42.
