data_PCOD9557306
_publ_section_title
;
Structure prediction by ZEFSAII (Michael W. Deem and Ramdas Pophale) SiO2 
 PCOD9557306
Probable space group: P -4 M 2
;
_chemical_formula_sum "Si O2"
_cell_formula_units_Z 48
_cell_length_a 9.079480
_cell_length_b 9.079480
_cell_length_c 32.053899
_cell_angle_alpha 90.000000
_cell_angle_beta 90.000000
_cell_angle_gamma 90.000000
_cell_volume 2642.425896
_symmetry_space_group_name_H-M "P -4 M 2"
_symmetry_group_IT_number 115
_symmetry_cell_setting 'tetragonal'
loop_
_space_group_symop_operation_xyz
x,y,z
y,-x,-z
-x,-y,z
-y,x,-z
y,x,-z
-y,-x,-z
-x,y,z
x,-y,z
loop_
_atom_site_type_symbol
_atom_site_label
_atom_site_fract_x
_atom_site_fract_y
_atom_site_fract_z
Si Si1 0.679774 0.329091 0.045712
Si Si2 0.679537 0.169445 0.129631
Si Si3 0.672621 0.323530 0.214746
Si Si4 0.675557 0.175571 0.540057
Si Si5 0.676510 0.174209 0.699006
Si Si6 0.175367 0.324906 0.619942
O O1 0.500000 0.325226 0.044713
O O2 0.722102 0.500000 0.050057
O O3 0.729963 0.241826 0.086362
O O4 0.727173 0.272827 0.000000
O O5 0.500000 0.177294 0.129100
O O6 0.725923 0.252184 0.171672
O O7 0.722614 0.000000 0.131484
O O8 0.500000 0.284360 0.220936
O O9 0.680481 0.500000 0.210454
O O10 0.763783 0.280634 0.255595
O O11 0.750092 0.249909 0.500000
O O12 0.500000 0.200768 0.539371
O O13 0.745167 0.245377 0.581463
O O14 0.700716 0.000000 0.539458
O O15 0.500000 0.197689 0.694197
O O16 0.760665 0.259330 0.662663
O O17 0.704266 0.000000 0.696214
O O18 0.202365 0.500000 0.618024
O O19 0.000000 0.300554 0.617531
#
# Coordination Sequence:
#
# PCOD9557306 Si02
#       6
#     8   8   8   8   8   8
#     4   8  13  22  38  60  85 115 153 195 239 291
#     4   9  16  25  40  65  95 123 155 200 249 294
#     4   9  17  30  49  72  99 132 167 204 251 306
#     4  11  24  41  62  89 119 151 189 230 272 320
#     4  10  21  37  57  81 108 139 177 220 266 317
#     4  11  24  40  59  85 115 147 185 226 268 318
#
# _framework density 18.165125
#
# number of rings (size 3 to 8) (size 9 to 14) (size 15 to 20)
#    0.000    2.333    0.000    3.500    0.000   10.333 
#    0.000    1.667    0.000    1.000    0.000    4.667 
#    0.000    0.000    0.000    0.000    0.000    0.000 
#
# Total GULP energy -267893.676436 kJ/mol
# GULP energy per Si atom -5581.118259 kJ/mol
# Density = 1.812378 g / cm^3
# Si number density = 18.165125 Si / 1000 Ang^3
#
#
#
# Elastic Constant Matrix: (Units=GPa)
#
#
# Indices 1 2 3 4 5 6 
#
# 1 75.0128 65.1266 83.0414 0.0000 0.0000 0.0000
# 2 65.1266 75.0126 83.0415 0.0000 0.0000 0.0000
# 3 83.0414 83.0415 210.3910 0.0000 0.0000 0.0000
# 4 0.0000 0.0000 0.0000 -28.5981 0.0000 0.0000
# 5 0.0000 0.0000 0.0000 0.0000 -28.6000 0.0000
# 6 0.0000 0.0000 0.0000 0.0000 0.0000 18.2758
#
#
#
# Elastic Compliance Matrix: (Units=1/GPa)
#
#
# Indices 1 2 3 4 5 6 
#
# 1 0.057280 -0.043873 -0.005292 0.000000 0.000000 0.000000
# 2 -0.043873 0.057280 -0.005292 0.000000 0.000000 0.000000
# 3 -0.005292 -0.005292 0.008930 0.000000 0.000000 0.000000
# 4 0.000000 0.000000 0.000000 -0.034967 0.000000 0.000000
# 5 0.000000 0.000000 0.000000 0.000000 -0.034965 0.000000
# 6 0.000000 0.000000 0.000000 0.000000 0.000000 0.054717
#
#
# Mechanical properties :
#
#
# Convention : Reuss Voigt Hill
#
# Bulk Modulus (GPa) = 68.59853 91.42615 80.01234
# Shear Modulus (GPa) = 22.51778 0.82934 11.67356
#
# Velocity S-wave (km/s) = 3.52464 0.67642 2.53778
# Velocity P-wave (km/s) = 7.37631 7.14492 7.26154
#
# Compressibility (1/GPa) = 0.01457757
#
# Stress axis : x y z
#
# Youngs Moduli (GPa) = 17.45819 17.45809 111.97637
#
# Poissons Ratio (x) = 0.76593 0.59255
# Poissons Ratio (y) = 0.76594 0.59257
# Poissons Ratio (z) = 0.09238 0.09239
#
# Static dielectric constant tensor:
#      x y z
#    x 1.606160 0.000000 0.000000 
#    y 0.000000 1.606160 0.000000 
#    z 0.000000 0.000000 1.609250 
# 
# From -- ./inp_files/6074.got.cif
#   From: 2010.05.17/outbox.cif.g08.bks.cpg/sg115_4_cif.got.tgz:6074.got - 2010.05.20 11:07:42.
