data_PCOD9557078
_publ_section_title
;
Structure prediction by ZEFSAII (Michael W. Deem and Ramdas Pophale) SiO2 
 PCOD9557078
Probable space group: P -4 M 2
;
_chemical_formula_sum "Si O2"
_cell_formula_units_Z 41
_cell_length_a 11.258862
_cell_length_b 11.258862
_cell_length_c 19.489314
_cell_angle_alpha 90.000000
_cell_angle_beta 90.000000
_cell_angle_gamma 90.000000
_cell_volume 2470.503905
_symmetry_space_group_name_H-M "P -4 M 2"
_symmetry_group_IT_number 115
_symmetry_cell_setting 'tetragonal'
loop_
_space_group_symop_operation_xyz
x,y,z
y,-x,-z
-x,-y,z
-y,x,-z
y,x,-z
-y,-x,-z
-x,y,z
x,-y,z
loop_
_atom_site_type_symbol
_atom_site_label
_atom_site_fract_x
_atom_site_fract_y
_atom_site_fract_z
Si Si1 0.739805 0.359009 0.571582
Si Si2 0.363917 0.855607 0.830606
Si Si3 0.135289 0.857715 0.918916
Si Si4 0.000000 0.242342 0.413532
Si Si5 0.639459 0.000000 0.442264
Si Si6 0.000000 0.000000 0.500000
Si Si7 0.364901 0.196836 0.672457
O O1 0.698026 0.301975 0.500000
O O2 0.739844 0.500000 0.562387
O O3 0.656774 0.320391 0.634020
O O4 0.874716 0.315804 0.585474
O O5 0.500000 0.825452 0.853892
O O6 0.250865 0.816018 0.876298
O O7 0.348505 0.805772 0.753753
O O8 0.360586 0.000000 0.826374
O O9 0.000000 0.812335 0.903145
O O10 0.129632 0.000000 0.908063
O O11 0.158685 0.841315 0.000000
O O12 0.000000 0.115339 0.450850
O O13 0.889428 0.273305 0.365610
O O14 0.000000 0.333935 0.476944
O O15 0.500000 0.000000 0.429940
O O16 0.500000 0.155753 0.659335
#
# Coordination Sequence:
#
# PCOD9557078 Si02
#       7
#     8   8   8   4   4   1   8
#     4  11  22  35  52  72  93 123 170 218 260 307
#     4   9  17  30  48  74 102 132 170 209 248 301
#     4   8  14  27  48  74 104 133 161 199 248 297
#     4  12  20  36  50  68  96 130 165 207 264 316
#     4  10  20  36  54  68  90 125 162 210 266 314
#     4  12  28  36  44  68 108 132 170 232 268 316
#     4  11  21  34  52  71  97 131 167 211 261 307
#
# _framework density 16.595804000000001
#
# number of rings (size 3 to 8) (size 9 to 14) (size 15 to 20)
#    0.000    1.951    2.927    3.220    0.000    1.366 
#    3.512    0.000    0.000    1.171    0.000    0.000 
#    0.000    0.000    0.000    0.000    0.000    0.000 
#
# Total GULP energy -228261.494645 kJ/mol
# GULP energy per Si atom -5567.353528 kJ/mol
# Density = 1.655803 g / cm^3
# Si number density = 16.595804 Si / 1000 Ang^3
#
#
#
# Elastic Constant Matrix: (Units=GPa)
#
#
# Indices 1 2 3 4 5 6 
#
# 1 76.9070 52.8707 46.8178 0.0000 0.0000 0.0000
# 2 52.8707 76.9077 46.8178 0.0000 0.0000 0.0000
# 3 46.8178 46.8178 72.0966 0.0000 0.0000 0.0000
# 4 0.0000 0.0000 0.0000 12.6008 0.0000 0.0000
# 5 0.0000 0.0000 0.0000 0.0000 12.6022 0.0000
# 6 0.0000 0.0000 0.0000 0.0000 0.0000 15.1907
#
#
#
# Elastic Compliance Matrix: (Units=1/GPa)
#
#
# Indices 1 2 3 4 5 6 
#
# 1 0.028051 -0.013552 -0.009415 0.000000 0.000000 0.000000
# 2 -0.013552 0.028051 -0.009415 0.000000 0.000000 0.000000
# 3 -0.009415 -0.009415 0.026098 0.000000 0.000000 0.000000
# 4 0.000000 0.000000 0.000000 0.079360 0.000000 0.000000
# 5 0.000000 0.000000 0.000000 0.000000 0.079351 0.000000
# 6 0.000000 0.000000 0.000000 0.000000 0.000000 0.065830
#
#
# Mechanical properties :
#
#
# Convention : Reuss Voigt Hill
#
# Bulk Modulus (GPa) = 57.35571 57.65820 57.50695
# Shear Modulus (GPa) = 13.25149 13.37242 13.31195
#
# Velocity S-wave (km/s) = 2.82881 2.84169 2.83526
# Velocity P-wave (km/s) = 6.73090 6.75167 6.74129
#
# Compressibility (1/GPa) = 0.01743506
#
# Stress axis : x y z
#
# Youngs Moduli (GPa) = 35.64942 35.64993 38.31734
#
# Poissons Ratio (x) = 0.48314 0.36076
# Poissons Ratio (y) = 0.48314 0.36075
# Poissons Ratio (z) = 0.33564 0.33564
#
# Static dielectric constant tensor:
#      x y z
#    x 1.600820 0.000000 0.000000 
#    y 0.000000 1.600820 0.000000 
#    z 0.000000 0.000000 1.521150 
# 
# From -- ./inp_files/4225.got.cif
#   From: 2010.05.17/outbox.cif.g08.bks.cpg/sg115_3_cif.got.tgz:4225.got - 2010.05.20 11:07:42.
