data_PCOD9557445
_publ_section_title
;
Structure prediction by ZEFSAII (Michael W. Deem and Ramdas Pophale) SiO2 
 PCOD9557445
Probable space group: P -4 M 2
;
_chemical_formula_sum "Si O2"
_cell_formula_units_Z 34
_cell_length_a 12.089094
_cell_length_b 12.089094
_cell_length_c 11.268049
_cell_angle_alpha 90.000000
_cell_angle_beta 90.000000
_cell_angle_gamma 90.000000
_cell_volume 1646.782472
_symmetry_space_group_name_H-M "P -4 M 2"
_symmetry_group_IT_number 115
_symmetry_cell_setting 'tetragonal'
loop_
_space_group_symop_operation_xyz
x,y,z
y,-x,-z
-x,-y,z
-y,x,-z
y,x,-z
-y,-x,-z
-x,y,z
x,-y,z
loop_
_atom_site_type_symbol
_atom_site_label
_atom_site_fract_x
_atom_site_fract_y
_atom_site_fract_z
Si Si1 0.000000 0.000000 0.786690
Si Si2 0.816301 0.632026 0.790063
Si Si3 0.759539 0.000000 0.796905
Si Si4 0.000000 0.232529 0.923924
Si Si5 0.633277 0.878033 0.479220
Si Si6 0.219403 0.631496 0.275850
O O1 0.877468 0.000000 0.727854
O O2 0.000000 0.884920 0.858615
O O3 0.823783 0.500000 0.805779
O O4 0.893359 0.696938 0.882032
O O5 0.858649 0.663300 0.657341
O O6 0.691864 0.678059 0.786392
O O7 0.687216 0.891712 0.773343
O O8 0.786675 0.000000 0.936603
O O9 0.500000 0.882718 0.477827
O O10 0.656748 0.790574 0.582831
O O11 0.675182 0.000000 0.515415
O O12 0.220090 0.500000 0.259440
#
# Coordination Sequence:
#
# PCOD9557445 Si02
#       6
#     2   8   4   4   8   8
#     4  12  25  44  68  93 122 157 196 252 317 374
#     4  11  23  39  62  90 124 165 207 251 301 363
#     4  12  24  41  65  92 122 157 201 253 312 372
#     4  12  24  41  65  92 122 157 201 253 312 372
#     4   9  17  34  59  87 119 157 200 247 302 356
#     4  11  23  39  62  90 124 165 207 251 301 363
#
# _framework density 20.646319999999999
#
# number of rings (size 3 to 8) (size 9 to 14) (size 15 to 20)
#    0.000    1.176    4.706    2.471    0.000    2.353 
#    0.000    0.000    0.000    5.647    0.000    3.294 
#    0.000    0.000    0.000    0.000    0.000    0.000 
#
# Total GULP energy -189768.178276 kJ/mol
# GULP energy per Si atom -5581.417008 kJ/mol
# Density = 2.059933 g / cm^3
# Si number density = 20.646320 Si / 1000 Ang^3
#
#
#
# Elastic Constant Matrix: (Units=GPa)
#
#
# Indices 1 2 3 4 5 6 
#
# 1 112.6988 41.7374 8.6972 0.0000 0.0000 0.0000
# 2 41.7374 112.6988 8.6972 0.0000 0.0000 0.0000
# 3 8.6972 8.6972 17.4117 0.0000 0.0000 0.0000
# 4 0.0000 0.0000 0.0000 22.0931 0.0000 0.0000
# 5 0.0000 0.0000 0.0000 0.0000 22.0931 0.0000
# 6 0.0000 0.0000 0.0000 0.0000 0.0000 24.0953
#
#
#
# Elastic Compliance Matrix: (Units=1/GPa)
#
#
# Indices 1 2 3 4 5 6 
#
# 1 0.010477 -0.003615 -0.003427 0.000000 0.000000 0.000000
# 2 -0.003615 0.010477 -0.003427 0.000000 0.000000 0.000000
# 3 -0.003427 -0.003427 0.060857 0.000000 0.000000 0.000000
# 4 0.000000 0.000000 0.000000 0.045263 0.000000 0.000000
# 5 0.000000 0.000000 0.000000 0.000000 0.045263 0.000000
# 6 0.000000 0.000000 0.000000 0.000000 0.000000 0.041502
#
#
# Mechanical properties :
#
#
# Convention : Reuss Voigt Hill
#
# Bulk Modulus (GPa) = 16.42840 40.11918 28.27379
# Shear Modulus (GPa) = 19.60266 25.90148 22.75207
#
# Velocity S-wave (km/s) = 3.08466 3.54578 3.32323
# Velocity P-wave (km/s) = 4.54545 6.01974 5.33378
#
# Compressibility (1/GPa) = 0.06087021
#
# Stress axis : x y z
#
# Youngs Moduli (GPa) = 95.45017 95.45017 16.43208
#
# Poissons Ratio (x) = 0.34510 0.05632
# Poissons Ratio (y) = 0.34510 0.05632
# Poissons Ratio (z) = 0.32712 0.32712
#
# Static dielectric constant tensor:
#      x y z
#    x 1.738680 0.000000 0.000000 
#    y 0.000000 1.738680 0.000000 
#    z 0.000000 0.000000 1.752260 
# 
# From -- ./inp_files/2672.got.cif
#   From: 2010.05.17/outbox.cif.g08.bks.cpg/sg115_2_cif.got.tgz:2672.got - 2010.05.20 11:07:42.
