data_PCOD9557638
_publ_section_title
;
Structure prediction by ZEFSAII (Michael W. Deem and Ramdas Pophale) SiO2 
 PCOD9557638
Probable space group: P -4 C 2
;
_chemical_formula_sum "Si O2"
_cell_formula_units_Z 64
_cell_length_a 24.116847
_cell_length_b 24.116847
_cell_length_c 5.481045
_cell_angle_alpha 90.000000
_cell_angle_beta 90.000000
_cell_angle_gamma 90.000000
_cell_volume 3187.898050
_symmetry_space_group_name_H-M "P -4 C 2"
_symmetry_group_IT_number 116
_symmetry_cell_setting 'tetragonal'
loop_
_space_group_symop_operation_xyz
x,y,z
y,-x,-z
-x,-y,z
-y,x,-z
y,x,1/2-z
-y,-x,1/2-z
-x,y,1/2+z
x,-y,1/2+z
loop_
_atom_site_type_symbol
_atom_site_label
_atom_site_fract_x
_atom_site_fract_y
_atom_site_fract_z
Si Si1 0.972768 0.309399 0.825765
Si Si2 0.473724 0.139674 0.028771
Si Si3 0.739932 0.353430 0.728305
Si Si4 0.984197 0.815169 0.889866
Si Si5 0.143571 0.810404 0.509628
Si Si6 0.142029 0.655240 0.983272
Si Si7 0.288788 0.203657 0.629554
Si Si8 0.273126 0.474595 0.411570
O O1 0.907841 0.322345 0.821238
O O2 0.002473 0.331387 0.582420
O O3 0.984319 0.243525 0.848244
O O4 0.490898 0.118613 0.297760
O O5 0.409301 0.130067 0.970853
O O6 0.481762 0.206437 0.057285
O O7 0.693934 0.306067 0.750000
O O8 0.795330 0.342738 0.883140
O O9 0.766572 0.345054 0.460483
O O10 0.717811 0.412581 0.810834
O O11 0.989444 0.843977 0.626718
O O12 0.920683 0.803283 0.952719
O O13 0.152386 0.847615 0.750000
O O14 0.177336 0.753819 0.564376
O O15 0.167964 0.832037 0.250000
O O16 0.149860 0.694031 0.216446
O O17 0.252115 0.252115 0.750000
O O18 0.293945 0.486925 0.686481
#
# Coordination Sequence:
#
# PCOD9557638 Si02
#       8
#     8   8   8   8   8   8   8   8
#     4  10  23  38  57  80 106 147 200 241 278 339
#     4   9  20  36  56  81 105 143 199 252 298 349
#     4  11  23  36  57  90 128 161 196 248 308 374
#     4  10  20  36  58  82 112 149 194 241 276 336
#     4  11  24  39  58  83 123 165 196 233 293 363
#     4  11  24  37  60  82 116 158 195 246 303 361
#     4  11  23  34  51  83 123 161 195 229 296 370
#     4   9  20  36  57  79 114 160 207 246 289 349
#
# _framework density 20.075925999999999
#
# number of rings (size 3 to 8) (size 9 to 14) (size 15 to 20)
#    0.000    1.750    1.250    2.625   15.750    0.000 
#    0.000    0.000    0.000    2.250    0.000    0.000 
#    0.000   19.000    0.000    0.000    0.000    0.000 
#
# Total GULP energy -356611.239452 kJ/mol
# GULP energy per Si atom -5572.050616 kJ/mol
# Density = 2.003023 g / cm^3
# Si number density = 20.075926 Si / 1000 Ang^3
#
#
#
# Elastic Constant Matrix: (Units=GPa)
#
#
# Indices 1 2 3 4 5 6 
#
# 1 59.5064 20.1153 20.6023 0.0000 0.0000 0.0000
# 2 20.1153 59.5060 20.6025 0.0000 0.0000 0.0000
# 3 20.6023 20.6025 112.1715 0.0000 0.0000 0.0000
# 4 0.0000 0.0000 0.0000 22.4746 0.0000 0.0000
# 5 0.0000 0.0000 0.0000 0.0000 22.4755 0.0000
# 6 0.0000 0.0000 0.0000 0.0000 0.0000 8.1140
#
#
#
# Elastic Compliance Matrix: (Units=1/GPa)
#
#
# Indices 1 2 3 4 5 6 
#
# 1 0.019632 -0.005754 -0.002549 0.000000 0.000000 0.000000
# 2 -0.005754 0.019633 -0.002549 0.000000 0.000000 0.000000
# 3 -0.002549 -0.002549 0.009851 0.000000 0.000000 0.000000
# 4 0.000000 0.000000 0.000000 0.044495 0.000000 0.000000
# 5 0.000000 0.000000 0.000000 0.000000 0.044493 0.000000
# 6 0.000000 0.000000 0.000000 0.000000 0.000000 0.123243
#
#
# Mechanical properties :
#
#
# Convention : Reuss Voigt Hill
#
# Bulk Modulus (GPa) = 36.48009 39.31378 37.89694
# Shear Modulus (GPa) = 17.11220 21.93707 19.52464
#
# Velocity S-wave (km/s) = 2.92271 3.30920 3.12194
# Velocity P-wave (km/s) = 5.44060 5.85031 5.64917
#
# Compressibility (1/GPa) = 0.02741221
#
# Stress axis : x y z
#
# Youngs Moduli (GPa) = 50.93598 50.93552 101.50955
#
# Poissons Ratio (x) = 0.29308 0.25875
# Poissons Ratio (y) = 0.29309 0.25876
# Poissons Ratio (z) = 0.12984 0.12984
#
# Static dielectric constant tensor:
#      x y z
#    x 1.708130 0.000000 0.000000 
#    y 0.000000 1.708130 0.000000 
#    z 0.000000 0.000000 1.986100 
# 
# From -- ./inp_files/275.got.cif
#   From: 2010.05.17/outbox.cif.g08.bks.cpg/sg116_1_cif.got.tgz:275.got - 2010.05.20 11:11:43.
