data_PCOD9557701
_publ_section_title
;
Structure prediction by ZEFSAII (Michael W. Deem and Ramdas Pophale) SiO2 
 PCOD9557701
Probable space group: P -4 C 2
;
_chemical_formula_sum "Si O2"
_cell_formula_units_Z 38
_cell_length_a 8.419082
_cell_length_b 8.419082
_cell_length_c 26.671423
_cell_angle_alpha 90.000000
_cell_angle_beta 90.000000
_cell_angle_gamma 90.000000
_cell_volume 1890.495579
_symmetry_space_group_name_H-M "P -4 C 2"
_symmetry_group_IT_number 116
_symmetry_cell_setting 'tetragonal'
loop_
_space_group_symop_operation_xyz
x,y,z
y,-x,-z
-x,-y,z
-y,x,-z
y,x,1/2-z
-y,-x,1/2-z
-x,y,1/2+z
x,-y,1/2+z
loop_
_atom_site_type_symbol
_atom_site_label
_atom_site_fract_x
_atom_site_fract_y
_atom_site_fract_z
Si Si1 0.611678 0.138588 0.390913
Si Si2 0.600819 0.336786 0.194658
Si Si3 0.000000 0.000000 0.000000
Si Si4 0.245895 0.062177 0.571268
Si Si5 0.746657 0.452188 0.507249
Si Si6 0.000000 0.500000 0.347107
O O1 0.631032 0.274166 0.349513
O O2 0.795388 0.128194 0.409904
O O3 0.514984 0.183843 0.441060
O O4 0.500000 0.000000 0.368995
O O5 0.500000 0.500000 0.195096
O O6 0.676114 0.323887 0.250000
O O7 0.515450 0.167839 0.182353
O O8 0.857290 0.949013 0.036037
O O9 0.370793 0.139626 0.532668
O O10 0.344214 0.992377 0.617187
O O11 0.603680 0.332820 0.519207
#
# Coordination Sequence:
#
# PCOD9557701 Si02
#       6
#     8   8   2   8   8   4
#     4  10  21  36  59  93 122 162 210 258 316 389
#     4  10  24  44  69  96 119 166 221 277 342 389
#     4  12  24  36  52  88 138 172 212 240 312 396
#     4  10  23  35  56  89 127 178 200 257 318 380
#     4   9  19  32  55  86 122 161 205 248 295 376
#     4  10  24  42  68  92 132 168 218 280 332 398
#
# _framework density 20.100549999999998
#
# number of rings (size 3 to 8) (size 9 to 14) (size 15 to 20)
#    0.000    2.105    0.000    1.263   17.684    1.684 
#    0.000    0.000    0.000    0.000    0.000    0.000 
#    0.000    0.000    0.000    0.000    0.000    0.000 
#
# Total GULP energy -211846.511801 kJ/mol
# GULP energy per Si atom -5574.908205 kJ/mol
# Density = 2.005480 g / cm^3
# Si number density = 20.100550 Si / 1000 Ang^3
#
#
#
# Elastic Constant Matrix: (Units=GPa)
#
#
# Indices 1 2 3 4 5 6 
#
# 1 86.8617 56.8473 40.9479 0.0000 0.0000 0.0000
# 2 56.8473 86.8619 40.9480 0.0000 0.0000 0.0000
# 3 40.9479 40.9480 94.4820 0.0000 0.0000 0.0000
# 4 0.0000 0.0000 0.0000 28.1044 0.0000 0.0000
# 5 0.0000 0.0000 0.0000 0.0000 28.1046 0.0000
# 6 0.0000 0.0000 0.0000 0.0000 0.0000 38.9917
#
#
#
# Elastic Compliance Matrix: (Units=1/GPa)
#
#
# Indices 1 2 3 4 5 6 
#
# 1 0.021279 -0.012038 -0.004005 0.000000 0.000000 0.000000
# 2 -0.012038 0.021279 -0.004005 0.000000 0.000000 0.000000
# 3 -0.004005 -0.004005 0.014055 0.000000 0.000000 0.000000
# 4 0.000000 0.000000 0.000000 0.035582 0.000000 0.000000
# 5 0.000000 0.000000 0.000000 0.000000 0.035581 0.000000
# 6 0.000000 0.000000 0.000000 0.000000 0.000000 0.025646
#
#
# Mechanical properties :
#
#
# Convention : Reuss Voigt Hill
#
# Bulk Modulus (GPa) = 60.54224 60.63243 60.58734
# Shear Modulus (GPa) = 25.12250 27.67097 26.39673
#
# Velocity S-wave (km/s) = 3.53914 3.71432 3.62779
# Velocity P-wave (km/s) = 6.84732 6.97316 6.91053
#
# Compressibility (1/GPa) = 0.01651739
#
# Stress axis : x y z
#
# Youngs Moduli (GPa) = 46.99463 46.99468 71.14690
#
# Poissons Ratio (x) = 0.56573 0.28494
# Poissons Ratio (y) = 0.56573 0.28494
# Poissons Ratio (z) = 0.18821 0.18821
#
# Static dielectric constant tensor:
#      x y z
#    x 1.770890 0.000000 0.000000 
#    y 0.000000 1.770890 0.000000 
#    z 0.000000 0.000000 1.694500 
# 
# From -- ./inp_files/4486.got.cif
#   From: 2010.05.17/outbox.cif.g08.bks.cpg/sg116_3_cif.got.tgz:4486.got - 2010.05.20 11:11:43.
