data_PCOD9557738
_publ_section_title
;
Structure prediction by ZEFSAII (Michael W. Deem and Ramdas Pophale) SiO2 
 PCOD9557738
Probable space group: P -4 C 2
;
_chemical_formula_sum "Si O2"
_cell_formula_units_Z 56
_cell_length_a 16.008581
_cell_length_b 16.008581
_cell_length_c 11.103685
_cell_angle_alpha 90.000000
_cell_angle_beta 90.000000
_cell_angle_gamma 90.000000
_cell_volume 2845.593161
_symmetry_space_group_name_H-M "P -4 C 2"
_symmetry_group_IT_number 116
_symmetry_cell_setting 'tetragonal'
loop_
_space_group_symop_operation_xyz
x,y,z
y,-x,-z
-x,-y,z
-y,x,-z
y,x,1/2-z
-y,-x,1/2-z
-x,y,1/2+z
x,-y,1/2+z
loop_
_atom_site_type_symbol
_atom_site_label
_atom_site_fract_x
_atom_site_fract_y
_atom_site_fract_z
Si Si1 0.071812 0.336827 0.991646
Si Si2 0.395801 0.805013 0.196814
Si Si3 0.547704 0.911850 0.290145
Si Si4 0.232422 0.800537 0.881804
Si Si5 0.389747 0.699157 0.954234
Si Si6 0.268821 0.425179 0.568029
Si Si7 0.347522 0.880962 0.561807
O O1 0.095265 0.416668 0.075319
O O2 0.113978 0.256081 0.052753
O O3 0.115666 0.346720 0.860888
O O4 0.972161 0.338309 0.994407
O O5 0.481199 0.843868 0.247957
O O6 0.369217 0.752158 0.313982
O O7 0.402503 0.744660 0.082957
O O8 0.624819 0.900888 0.198500
O O9 0.500000 0.000000 0.276177
O O10 0.193958 0.806043 0.750000
O O11 0.321409 0.751280 0.878556
O O12 0.170230 0.738147 0.950310
O O13 0.481671 0.701000 0.898755
O O14 0.342181 0.613884 0.986204
O O15 0.181341 0.416428 0.494883
#
# Coordination Sequence:
#
# PCOD9557738 Si02
#       7
#     8   8   8   8   8   8   8
#     4  11  24  38  61  93 128 161 202 252 313 382
#     4  11  21  36  56  85 121 157 198 261 312 368
#     4  12  22  33  58  91 131 160 201 249 313 374
#     4  10  21  40  61  87 123 166 205 249 311 378
#     4  10  23  38  57  85 118 163 215 263 309 363
#     4  11  23  39  60  82 120 165 216 260 312 359
#     4  11  23  39  60  94 124 163 203 250 311 378
#
# _framework density 19.679552000000001
#
# number of rings (size 3 to 8) (size 9 to 14) (size 15 to 20)
#    0.000    1.143    4.286    3.000    2.000    0.286 
#    0.000    0.000    0.000    2.143    0.000    1.000 
#    0.000    0.000    0.000    0.000    0.000    0.000 
#
# Total GULP energy -312257.857181 kJ/mol
# GULP energy per Si atom -5576.033164 kJ/mol
# Density = 1.963476 g / cm^3
# Si number density = 19.679552 Si / 1000 Ang^3
#
#
#
# Elastic Constant Matrix: (Units=GPa)
#
#
# Indices 1 2 3 4 5 6 
#
# 1 96.9888 52.0674 19.1322 0.0000 0.0000 0.0000
# 2 52.0674 96.9886 19.1320 0.0000 0.0000 0.0000
# 3 19.1322 19.1320 73.0901 0.0000 0.0000 0.0000
# 4 0.0000 0.0000 0.0000 25.5911 0.0000 0.0000
# 5 0.0000 0.0000 0.0000 0.0000 25.5913 0.0000
# 6 0.0000 0.0000 0.0000 0.0000 0.0000 19.3623
#
#
#
# Elastic Compliance Matrix: (Units=1/GPa)
#
#
# Indices 1 2 3 4 5 6 
#
# 1 0.014727 -0.007534 -0.001883 0.000000 0.000000 0.000000
# 2 -0.007534 0.014727 -0.001883 0.000000 0.000000 0.000000
# 3 -0.001883 -0.001883 0.014667 0.000000 0.000000 0.000000
# 4 0.000000 0.000000 0.000000 0.039076 0.000000 0.000000
# 5 0.000000 0.000000 0.000000 0.000000 0.039076 0.000000
# 6 0.000000 0.000000 0.000000 0.000000 0.000000 0.051647
#
#
# Mechanical properties :
#
#
# Convention : Reuss Voigt Hill
#
# Bulk Modulus (GPa) = 46.46588 49.74788 48.10688
# Shear Modulus (GPa) = 24.54681 25.89134 25.21908
#
# Velocity S-wave (km/s) = 3.53558 3.63112 3.58367
# Velocity P-wave (km/s) = 6.35056 6.55087 6.45149
#
# Compressibility (1/GPa) = 0.02152117
#
# Stress axis : x y z
#
# Youngs Moduli (GPa) = 67.90410 67.90405 68.17874
#
# Poissons Ratio (x) = 0.51162 0.12836
# Poissons Ratio (y) = 0.51162 0.12835
# Poissons Ratio (z) = 0.12784 0.12784
#
# Static dielectric constant tensor:
#      x y z
#    x 1.728430 0.000000 0.000000 
#    y 0.000000 1.728430 0.000000 
#    z 0.000000 0.000000 1.770230 
# 
# From -- ./inp_files/1997.got.cif
#   From: 2010.05.17/outbox.cif.g08.bks.cpg/sg116_1_cif.got.tgz:1997.got - 2010.05.20 11:11:43.
