data_PCOD9557906
_publ_section_title
;
Structure prediction by ZEFSAII (Michael W. Deem and Ramdas Pophale) SiO2 
 PCOD9557906
Probable space group: P -4 C 2
;
_chemical_formula_sum "Si O2"
_cell_formula_units_Z 32
_cell_length_a 11.857239
_cell_length_b 11.857239
_cell_length_c 9.085685
_cell_angle_alpha 90.000000
_cell_angle_beta 90.000000
_cell_angle_gamma 90.000000
_cell_volume 1277.393857
_symmetry_space_group_name_H-M "P -4 C 2"
_symmetry_group_IT_number 116
_symmetry_cell_setting 'tetragonal'
loop_
_space_group_symop_operation_xyz
x,y,z
y,-x,-z
-x,-y,z
-y,x,-z
y,x,1/2-z
-y,-x,1/2-z
-x,y,1/2+z
x,-y,1/2+z
loop_
_atom_site_type_symbol
_atom_site_label
_atom_site_fract_x
_atom_site_fract_y
_atom_site_fract_z
Si Si1 0.383155 0.138676 0.294939
Si Si2 0.377391 0.622610 0.750000
Si Si3 0.000000 0.000000 0.500000
Si Si4 0.500000 0.500000 0.000000
Si Si5 0.888258 0.635240 0.697577
Si Si6 0.838338 0.796817 0.952274
O O1 0.390613 0.249768 0.197762
O O2 0.510704 0.138763 0.360376
O O3 0.272996 0.150488 0.398116
O O4 0.370641 0.013935 0.236384
O O5 0.405182 0.543853 0.611970
O O6 0.060250 0.888714 0.426180
O O7 0.826671 0.693980 0.835217
O O8 0.870907 0.726077 0.569114
#
# Coordination Sequence:
#
# PCOD9557906 Si02
#       6
#     8   4   2   2   8   8
#     4  11  26  44  73 107 143 198 246 311 383 453
#     4  11  28  46  80 103 152 202 252 323 388 464
#     4  12  24  46  76 108 146 208 236 330 380 490
#     4  10  28  54  68 114 144 206 264 322 376 486
#     4  10  26  46  69 108 145 196 244 320 375 464
#     4  11  25  46  74 105 156 191 256 312 388 469
#
# _framework density 25.051007999999999
#
# number of rings (size 3 to 8) (size 9 to 14) (size 15 to 20)
#    0.000    1.250    2.500    0.000   10.500    8.000 
#    0.000    0.000    0.000    0.000    0.000    0.000 
#    0.000    0.000    0.000    0.000    0.000    0.000 
#
# Total GULP energy -178214.693786 kJ/mol
# GULP energy per Si atom -5569.209181 kJ/mol
# Density = 2.499399 g / cm^3
# Si number density = 25.051008 Si / 1000 Ang^3
#
#
#
# Elastic Constant Matrix: (Units=GPa)
#
#
# Indices 1 2 3 4 5 6 
#
# 1 132.0333 18.2947 5.7718 0.0000 0.0000 0.0000
# 2 18.2947 132.0341 5.7717 0.0000 0.0000 0.0000
# 3 5.7718 5.7717 46.3098 0.0000 0.0000 0.0000
# 4 0.0000 0.0000 0.0000 20.2920 0.0000 0.0000
# 5 0.0000 0.0000 0.0000 0.0000 20.2922 0.0000
# 6 0.0000 0.0000 0.0000 0.0000 0.0000 32.4925
#
#
#
# Elastic Compliance Matrix: (Units=1/GPa)
#
#
# Indices 1 2 3 4 5 6 
#
# 1 0.007754 -0.001038 -0.000837 0.000000 0.000000 0.000000
# 2 -0.001038 0.007754 -0.000837 0.000000 0.000000 0.000000
# 3 -0.000837 -0.000837 0.021802 0.000000 0.000000 0.000000
# 4 0.000000 0.000000 0.000000 0.049280 0.000000 0.000000
# 5 0.000000 0.000000 0.000000 0.000000 0.049280 0.000000
# 6 0.000000 0.000000 0.000000 0.000000 0.000000 0.030776
#
#
# Mechanical properties :
#
#
# Convention : Reuss Voigt Hill
#
# Bulk Modulus (GPa) = 31.36096 41.11706 36.23901
# Shear Modulus (GPa) = 27.36718 33.31794 30.34256
#
# Velocity S-wave (km/s) = 3.30882 3.65088 3.48405
# Velocity P-wave (km/s) = 5.20997 5.84986 5.53916
#
# Compressibility (1/GPa) = 0.03188678
#
# Stress axis : x y z
#
# Youngs Moduli (GPa) = 128.96165 128.96241 45.86658
#
# Poissons Ratio (x) = 0.13384 0.03839
# Poissons Ratio (y) = 0.13384 0.03839
# Poissons Ratio (z) = 0.10795 0.10795
#
# Static dielectric constant tensor:
#      x y z
#    x 2.041590 0.000000 0.000000 
#    y 0.000000 2.041590 0.000000 
#    z 0.000000 0.000000 2.019600 
# 
# From -- ./inp_files/1667.got.cif
#   From: 2010.05.17/outbox.cif.g08.bks.cpg/sg116_1_cif.got.tgz:1667.got - 2010.05.20 11:11:43.
