data_PCOD9557650
_publ_section_title
;
Structure prediction by ZEFSAII (Michael W. Deem and Ramdas Pophale) SiO2 
 PCOD9557650
Probable space group: P -4 C 2
;
_chemical_formula_sum "Si O2"
_cell_formula_units_Z 48
_cell_length_a 13.501820
_cell_length_b 13.501820
_cell_length_c 14.393110
_cell_angle_alpha 90.000000
_cell_angle_beta 90.000000
_cell_angle_gamma 90.000000
_cell_volume 2623.851623
_symmetry_space_group_name_H-M "P -4 C 2"
_symmetry_group_IT_number 116
_symmetry_cell_setting 'tetragonal'
loop_
_space_group_symop_operation_xyz
x,y,z
y,-x,-z
-x,-y,z
-y,x,-z
y,x,1/2-z
-y,-x,1/2-z
-x,y,1/2+z
x,-y,1/2+z
loop_
_atom_site_type_symbol
_atom_site_label
_atom_site_fract_x
_atom_site_fract_y
_atom_site_fract_z
Si Si1 0.377558 0.027468 0.250000
Si Si2 0.401389 0.758000 0.445083
Si Si3 0.758000 0.401390 0.445083
Si Si4 0.097814 0.736947 0.563316
Si Si5 0.641757 0.190630 0.250000
Si Si6 0.097814 0.263053 0.436684
O O1 0.331989 0.077030 0.344592
O O2 0.331990 0.077030 0.155408
O O3 0.500000 0.000000 0.250000
O O4 0.323866 0.921037 0.250000
O O5 0.345025 0.654975 0.441006
O O6 0.500000 0.749756 0.500000
O O7 0.421289 0.792266 0.341187
O O8 0.329625 0.835614 0.494788
O O9 0.835614 0.329625 0.494788
O O10 0.792266 0.421290 0.341188
O O11 0.164686 0.835314 0.585537
O O12 1.000000 0.759774 0.500000
O O13 0.733400 0.266601 0.250000
#
# Coordination Sequence:
#
# PCOD9557650 Si02
#       6
#     8   8   8   8   8   8
#     4  12  23  37  66  94 122 161 211 265 323 378
#     4  10  21  38  60  86 119 156 201 254 310 376
#     4  10  21  38  60  86 119 156 201 254 310 376
#     4  11  24  40  61  91 127 164 208 261 315 378
#     4  10  20  37  59  85 115 154 201 242 294 370
#     4  11  24  40  61  91 127 164 208 261 315 378
#
# _framework density 18.293716
#
# number of rings (size 3 to 8) (size 9 to 14) (size 15 to 20)
#    0.000    1.333    3.333    2.500    0.000    0.667 
#    0.000    2.500    0.000    6.000    0.000    0.000 
#    0.000    0.000    0.000    0.000    0.000    0.000 
#
# Total GULP energy -267224.400286 kJ/mol
# GULP energy per Si atom -5567.175006 kJ/mol
# Density = 1.825208 g / cm^3
# Si number density = 18.293716 Si / 1000 Ang^3
#
#
#
# Elastic Constant Matrix: (Units=GPa)
#
#
# Indices 1 2 3 4 5 6 
#
# 1 77.0922 28.5187 54.3728 0.0000 0.0000 0.0000
# 2 28.5187 77.0885 54.3735 0.0000 0.0000 0.0000
# 3 54.3728 54.3735 163.9718 0.0000 0.0000 0.0000
# 4 0.0000 0.0000 0.0000 16.4240 0.0000 0.0000
# 5 0.0000 0.0000 0.0000 0.0000 16.4204 0.0000
# 6 0.0000 0.0000 0.0000 0.0000 0.0000 13.8038
#
#
#
# Elastic Compliance Matrix: (Units=1/GPa)
#
#
# Indices 1 2 3 4 5 6 
#
# 1 0.017483 -0.003105 -0.004768 0.000000 0.000000 0.000000
# 2 -0.003105 0.017484 -0.004768 0.000000 0.000000 0.000000
# 3 -0.004768 -0.004768 0.009261 0.000000 0.000000 0.000000
# 4 0.000000 0.000000 0.000000 0.060887 0.000000 0.000000
# 5 0.000000 0.000000 0.000000 0.000000 0.060900 0.000000
# 6 0.000000 0.000000 0.000000 0.000000 0.000000 0.072444
#
#
# Mechanical properties :
#
#
# Convention : Reuss Voigt Hill
#
# Bulk Modulus (GPa) = 52.78173 65.85362 59.31767
# Shear Modulus (GPa) = 18.51481 21.38880 19.95181
#
# Velocity S-wave (km/s) = 3.18478 3.42305 3.30606
# Velocity P-wave (km/s) = 6.51451 7.19021 6.86068
#
# Compressibility (1/GPa) = 0.01894595
#
# Stress axis : x y z
#
# Youngs Moduli (GPa) = 57.19958 57.19545 107.98332
#
# Poissons Ratio (x) = 0.17758 0.51483
# Poissons Ratio (y) = 0.17760 0.51488
# Poissons Ratio (z) = 0.27271 0.27272
#
# Static dielectric constant tensor:
#      x y z
#    x 1.637530 0.000000 0.000000 
#    y 0.000000 1.637530 0.000000 
#    z 0.000000 0.000000 1.728090 
# 
# From -- ./inp_files/1903.got.cif
#   From: 2010.05.17/outbox.cif.g08.bks.cpg/sg116_1_cif.got.tgz:1903.got - 2010.05.20 11:11:43.
