data_PCOD9557401
_publ_section_title
;
Structure prediction by ZEFSAII (Michael W. Deem and Ramdas Pophale) SiO2 
 PCOD9557401
Probable space group: P -4 M 2
;
_chemical_formula_sum "Si O2"
_cell_formula_units_Z 56
_cell_length_a 15.045529
_cell_length_b 15.045529
_cell_length_c 11.590714
_cell_angle_alpha 90.000000
_cell_angle_beta 90.000000
_cell_angle_gamma 90.000000
_cell_volume 2623.766085
_symmetry_space_group_name_H-M "P -4 M 2"
_symmetry_group_IT_number 115
_symmetry_cell_setting 'tetragonal'
loop_
_space_group_symop_operation_xyz
x,y,z
y,-x,-z
-x,-y,z
-y,x,-z
y,x,-z
-y,-x,-z
-x,y,z
x,-y,z
loop_
_atom_site_type_symbol
_atom_site_label
_atom_site_fract_x
_atom_site_fract_y
_atom_site_fract_z
Si Si1 0.097539 0.102186 0.638339
Si Si2 0.595445 0.600571 0.860402
Si Si3 0.398286 0.901473 0.929360
Si Si4 0.337895 0.792238 0.145041
Si Si5 0.726702 0.175803 0.752749
Si Si6 0.392213 0.256383 0.552240
Si Si7 0.100868 0.393241 0.631792
O O1 0.100982 0.100982 0.500000
O O2 0.188563 0.144673 0.680812
O O3 0.000000 0.140962 0.671888
O O4 0.097904 0.000000 0.678488
O O5 0.500000 0.646074 0.829898
O O6 0.587507 0.500000 0.819491
O O7 0.693983 0.626924 0.824302
O O8 0.600011 0.600011 0.000000
O O9 0.500000 0.889508 0.891557
O O10 0.333688 0.893631 0.820677
O O11 0.389860 0.000000 0.981734
O O12 0.376679 0.828879 0.026563
O O13 0.234050 0.772615 0.146811
O O14 0.358946 0.860745 0.247244
O O15 0.658773 0.229554 0.669832
O O16 0.343917 0.343917 0.500000
O O17 0.500000 0.265235 0.562221
O O18 0.371964 0.173376 0.466151
O O19 0.097951 0.500000 0.639244
O O20 0.000000 0.361821 0.607682
#
# Coordination Sequence:
#
# PCOD9557401 Si02
#       7
#     8   8   8   8   8   8   8
#     4   9  20  40  67  98 130 165 208 263 335 418
#     4   9  18  33  54  81 115 160 213 264 315 374
#     4  11  25  44  66  93 129 180 233 283 342 401
#     4  12  23  38  62  91 133 171 220 278 333 403
#     4  12  24  41  64 100 133 173 216 284 341 409
#     4  11  24  46  68  97 137 180 231 282 344 411
#     4  10  22  41  66  94 126 170 224 281 340 403
#
# _framework density 21.343368000000002
#
# number of rings (size 3 to 8) (size 9 to 14) (size 15 to 20)
#    0.000    1.429    1.429    5.143    0.000    5.857 
#    0.000    1.429    0.000    0.000    0.000    2.000 
#    0.000    0.000    0.000    0.000    0.000    0.000 
#
# Total GULP energy -312377.508109 kJ/mol
# GULP energy per Si atom -5578.169788 kJ/mol
# Density = 2.129479 g / cm^3
# Si number density = 21.343368 Si / 1000 Ang^3
#
#
#
# Elastic Constant Matrix: (Units=GPa)
#
#
# Indices 1 2 3 4 5 6 
#
# 1 137.5709 54.1287 34.8156 0.0000 0.0000 0.0000
# 2 54.1287 137.5709 34.8156 0.0000 0.0000 0.0000
# 3 34.8156 34.8156 57.6239 0.0000 0.0000 0.0000
# 4 0.0000 0.0000 0.0000 28.8617 0.0000 0.0000
# 5 0.0000 0.0000 0.0000 0.0000 28.8617 0.0000
# 6 0.0000 0.0000 0.0000 0.0000 0.0000 24.6373
#
#
#
# Elastic Compliance Matrix: (Units=1/GPa)
#
#
# Indices 1 2 3 4 5 6 
#
# 1 0.009334 -0.002651 -0.004038 0.000000 0.000000 0.000000
# 2 -0.002651 0.009334 -0.004038 0.000000 0.000000 0.000000
# 3 -0.004038 -0.004038 0.022233 0.000000 0.000000 0.000000
# 4 0.000000 0.000000 0.000000 0.034648 0.000000 0.000000
# 5 0.000000 0.000000 0.000000 0.000000 0.034648 0.000000
# 6 0.000000 0.000000 0.000000 0.000000 0.000000 0.040589
#
#
# Mechanical properties :
#
#
# Convention : Reuss Voigt Hill
#
# Bulk Modulus (GPa) = 51.41917 64.47614 57.94766
# Shear Modulus (GPa) = 27.97656 30.40585 29.19120
#
# Velocity S-wave (km/s) = 3.62440 3.77849 3.70225
# Velocity P-wave (km/s) = 6.45436 7.02215 6.74423
#
# Compressibility (1/GPa) = 0.01944800
#
# Stress axis : x y z
#
# Youngs Moduli (GPa) = 107.13796 107.13796 44.97780
#
# Poissons Ratio (x) = 0.28398 0.18162
# Poissons Ratio (y) = 0.28398 0.18162
# Poissons Ratio (z) = 0.43261 0.43261
#
# Static dielectric constant tensor:
#      x y z
#    x 1.801520 0.000000 0.000000 
#    y 0.000000 1.801520 0.000000 
#    z 0.000000 0.000000 1.786710 
# 
# From -- ./inp_files/3060.got.cif
#   From: 2010.05.17/outbox.cif.g08.bks.cpg/sg115_2_cif.got.tgz:3060.got - 2010.05.20 11:07:42.
