data_PCOD9557296
_publ_section_title
;
Structure prediction by ZEFSAII (Michael W. Deem and Ramdas Pophale) SiO2 
 PCOD9557296
Probable space group: P -4 M 2
;
_chemical_formula_sum "Si O2"
_cell_formula_units_Z 44
_cell_length_a 9.263209
_cell_length_b 9.263209
_cell_length_c 29.434808
_cell_angle_alpha 90.000000
_cell_angle_beta 90.000000
_cell_angle_gamma 90.000000
_cell_volume 2525.713776
_symmetry_space_group_name_H-M "P -4 M 2"
_symmetry_group_IT_number 115
_symmetry_cell_setting 'tetragonal'
loop_
_space_group_symop_operation_xyz
x,y,z
y,-x,-z
-x,-y,z
-y,x,-z
y,x,-z
-y,-x,-z
-x,y,z
x,-y,z
loop_
_atom_site_type_symbol
_atom_site_label
_atom_site_fract_x
_atom_site_fract_y
_atom_site_fract_z
Si Si1 0.328054 0.328054 0.500000
Si Si2 0.330653 0.827346 0.676273
Si Si3 0.675816 0.167218 0.141327
Si Si4 0.825972 0.669419 0.959140
Si Si5 0.171145 0.827151 0.583244
Si Si6 0.327791 0.329205 0.768244
O O1 0.302963 0.500000 0.498555
O O2 0.258627 0.252744 0.456059
O O3 0.500000 0.790054 0.668673
O O4 0.237845 0.788127 0.632194
O O5 0.280928 0.751411 0.722537
O O6 0.322233 0.000000 0.682011
O O7 0.500000 0.171574 0.140528
O O8 0.721025 0.220575 0.091320
O O9 0.723928 0.254805 0.185337
O O10 0.717920 0.000000 0.146061
O O11 0.788401 0.500000 0.963656
O O12 0.000000 0.679633 0.960173
O O13 0.756992 0.756992 0.000000
O O14 0.000000 0.799608 0.581832
O O15 0.192929 0.000000 0.576731
O O16 0.500000 0.311475 0.772248
O O17 0.297198 0.500000 0.763569
#
# Coordination Sequence:
#
# PCOD9557296 Si02
#       6
#     4   8   8   8   8   8
#     4  11  24  39  56  80 108 137 170 209 252 298
#     4   9  18  33  51  71 100 136 166 197 245 297
#     4   8  15  29  47  66  91 123 157 195 241 292
#     4   9  18  32  49  70  96 126 162 204 249 298
#     4  10  21  37  57  80 105 135 172 211 250 295
#     4   9  17  29  47  71  96 123 159 202 243 286
#
# _framework density 17.420815999999999
#
# number of rings (size 3 to 8) (size 9 to 14) (size 15 to 20)
#    0.000    2.818    0.000    2.182    0.000    5.455 
#    0.000    4.545    0.000    3.273    0.000    0.000 
#    0.000    0.000    0.000    0.000    0.000    0.000 
#
# Total GULP energy -245289.910221 kJ/mol
# GULP energy per Si atom -5574.770687 kJ/mol
# Density = 1.738117 g / cm^3
# Si number density = 17.420816 Si / 1000 Ang^3
#
#
#
# Elastic Constant Matrix: (Units=GPa)
#
#
# Indices 1 2 3 4 5 6 
#
# 1 45.7613 43.2216 76.1481 0.0000 0.0000 0.0000
# 2 43.2216 45.7613 76.1481 0.0000 0.0000 0.0000
# 3 76.1481 76.1481 215.6038 0.0000 0.0000 0.0000
# 4 0.0000 0.0000 0.0000 49.9533 0.0000 0.0000
# 5 0.0000 0.0000 0.0000 0.0000 49.9533 0.0000
# 6 0.0000 0.0000 0.0000 0.0000 0.0000 21.0977
#
#
#
# Elastic Compliance Matrix: (Units=1/GPa)
#
#
# Indices 1 2 3 4 5 6 
#
# 1 0.211081 -0.182667 -0.010035 0.000000 0.000000 0.000000
# 2 -0.182667 0.211081 -0.010035 0.000000 0.000000 0.000000
# 3 -0.010035 -0.010035 0.011727 0.000000 0.000000 0.000000
# 4 0.000000 0.000000 0.000000 0.020019 0.000000 0.000000
# 5 0.000000 0.000000 0.000000 0.000000 0.020019 0.000000
# 6 0.000000 0.000000 0.000000 0.000000 0.000000 0.047399
#
#
# Mechanical properties :
#
#
# Convention : Reuss Voigt Hill
#
# Bulk Modulus (GPa) = 35.19508 77.57358 56.38433
# Shear Modulus (GPa) = 5.34034 31.64142 18.49088
#
# Velocity S-wave (km/s) = 1.75275 4.26643 3.26149
# Velocity P-wave (km/s) = 4.93386 8.30035 6.82784
#
# Compressibility (1/GPa) = 0.02841306
#
# Stress axis : x y z
#
# Youngs Moduli (GPa) = 4.73753 4.73753 85.27462
#
# Poissons Ratio (x) = 0.86539 0.85576
# Poissons Ratio (y) = 0.86539 0.85576
# Poissons Ratio (z) = 0.04754 0.04754
#
# Static dielectric constant tensor:
#      x y z
#    x 1.581430 0.000000 0.000000 
#    y 0.000000 1.581430 0.000000 
#    z 0.000000 0.000000 1.586100 
# 
# From -- ./inp_files/5811.got.cif
#   From: 2010.05.17/outbox.cif.g08.bks.cpg/sg115_3_cif.got.tgz:5811.got - 2010.05.20 11:07:42.
