data_PCOD9557435
_publ_section_title
;
Structure prediction by ZEFSAII (Michael W. Deem and Ramdas Pophale) SiO2 
 PCOD9557435
Probable space group: P -4 M 2
;
_chemical_formula_sum "Si O2"
_cell_formula_units_Z 29
_cell_length_a 12.179255
_cell_length_b 12.179255
_cell_length_c 11.179287
_cell_angle_alpha 90.000000
_cell_angle_beta 90.000000
_cell_angle_gamma 90.000000
_cell_volume 1658.271179
_symmetry_space_group_name_H-M "P -4 M 2"
_symmetry_group_IT_number 115
_symmetry_cell_setting 'tetragonal'
loop_
_space_group_symop_operation_xyz
x,y,z
y,-x,-z
-x,-y,z
-y,x,-z
y,x,-z
-y,-x,-z
-x,y,z
x,-y,z
loop_
_atom_site_type_symbol
_atom_site_label
_atom_site_fract_x
_atom_site_fract_y
_atom_site_fract_z
Si Si1 0.126068 0.873932 0.500000
Si Si2 0.767034 0.000000 0.128347
Si Si3 0.000000 0.000000 0.000000
Si Si4 0.630951 0.625538 0.637920
Si Si5 0.768589 0.808350 0.747048
Si Si6 0.635694 0.000000 0.886028
O O1 0.145135 0.798003 0.384880
O O2 0.000000 0.860228 0.540316
O O3 0.767668 0.115467 0.198691
O O4 0.889233 0.000000 0.074001
O O5 0.674975 0.000000 0.024500
O O6 0.655755 0.655755 0.500000
O O7 0.500000 0.632220 0.650620
O O8 0.664649 0.500000 0.655359
O O9 0.691422 0.704663 0.727106
O O10 0.699118 0.896572 0.823981
O O11 0.500000 0.000000 0.873094
#
# Coordination Sequence:
#
# PCOD9557435 Si02
#       6
#     4   4   1   8   8   4
#     4  11  22  34  58  95 128 154 186 239 312 384
#     4  12  24  39  65  87 116 160 207 245 297 361
#     4  12  20  44  60  82 104 156 200 236 294 364
#     4   9  19  36  58  84 118 161 200 235 289 360
#     4  12  21  39  62  91 120 157 196 250 308 364
#     4  12  26  41  59  86 121 161 206 253 295 345
#
# _framework density 17.488092999999999
#
# number of rings (size 3 to 8) (size 9 to 14) (size 15 to 20)
#    0.000    0.966    6.897    1.655    0.000    1.103 
#    0.000    0.000    0.000    0.000    0.000    3.862 
#    0.000    0.000    0.000    0.000    0.000    0.000 
#
# Total GULP energy -161651.901971 kJ/mol
# GULP energy per Si atom -5574.203516 kJ/mol
# Density = 1.744829 g / cm^3
# Si number density = 17.488093 Si / 1000 Ang^3
#
#
#
# Elastic Constant Matrix: (Units=GPa)
#
#
# Indices 1 2 3 4 5 6 
#
# 1 85.3204 63.2107 43.8591 0.0000 0.0000 0.0000
# 2 63.2107 85.3204 43.8591 0.0000 0.0000 0.0000
# 3 43.8591 43.8591 73.3441 0.0000 0.0000 0.0000
# 4 0.0000 0.0000 0.0000 27.4814 0.0000 0.0000
# 5 0.0000 0.0000 0.0000 0.0000 27.4814 0.0000
# 6 0.0000 0.0000 0.0000 0.0000 0.0000 31.1120
#
#
#
# Elastic Compliance Matrix: (Units=1/GPa)
#
#
# Indices 1 2 3 4 5 6 
#
# 1 0.027819 -0.017410 -0.006224 0.000000 0.000000 0.000000
# 2 -0.017410 0.027819 -0.006224 0.000000 0.000000 0.000000
# 3 -0.006224 -0.006224 0.021078 0.000000 0.000000 0.000000
# 4 0.000000 0.000000 0.000000 0.036388 0.000000 0.000000
# 5 0.000000 0.000000 0.000000 0.000000 0.036388 0.000000
# 6 0.000000 0.000000 0.000000 0.000000 0.000000 0.032142
#
#
# Mechanical properties :
#
#
# Convention : Reuss Voigt Hill
#
# Bulk Modulus (GPa) = 58.82843 60.64919 59.73881
# Shear Modulus (GPa) = 20.24147 23.41868 21.83007
#
# Velocity S-wave (km/s) = 3.40581 3.66337 3.53694
# Velocity P-wave (km/s) = 7.01272 7.25598 7.13539
#
# Compressibility (1/GPa) = 0.01699858
#
# Stress axis : x y z
#
# Youngs Moduli (GPa) = 35.94700 35.94700 47.44215
#
# Poissons Ratio (x) = 0.62585 0.29529
# Poissons Ratio (y) = 0.62585 0.29529
# Poissons Ratio (z) = 0.22374 0.22374
#
# Static dielectric constant tensor:
#      x y z
#    x 1.574000 0.000000 0.000000 
#    y 0.000000 1.574000 0.000000 
#    z 0.000000 0.000000 1.618810 
# 
# From -- ./inp_files/2473.got.cif
#   From: 2010.05.17/outbox.cif.g08.bks.cpg/sg115_2_cif.got.tgz:2473.got - 2010.05.20 11:07:42.
