data_PCOD9557348
_publ_section_title
;
Structure prediction by ZEFSAII (Michael W. Deem and Ramdas Pophale) SiO2 
 PCOD9557348
Probable space group: P -4 M 2
;
_chemical_formula_sum "Si O2"
_cell_formula_units_Z 56
_cell_length_a 15.264981
_cell_length_b 15.264981
_cell_length_c 11.424159
_cell_angle_alpha 90.000000
_cell_angle_beta 90.000000
_cell_angle_gamma 90.000000
_cell_volume 2662.053474
_symmetry_space_group_name_H-M "P -4 M 2"
_symmetry_group_IT_number 115
_symmetry_cell_setting 'tetragonal'
loop_
_space_group_symop_operation_xyz
x,y,z
y,-x,-z
-x,-y,z
-y,x,-z
y,x,-z
-y,-x,-z
-x,y,z
x,-y,z
loop_
_atom_site_type_symbol
_atom_site_label
_atom_site_fract_x
_atom_site_fract_y
_atom_site_fract_z
Si Si1 0.402237 0.661036 0.121806
Si Si2 0.101336 0.400482 0.496866
Si Si3 0.599220 0.341141 0.626433
Si Si4 0.102462 0.598180 0.134655
Si Si5 0.739198 0.100692 0.316203
Si Si6 0.180483 0.715938 0.311400
Si Si7 0.596204 0.132579 0.140932
O O1 0.500000 0.637698 0.084373
O O2 0.385244 0.611699 0.245028
O O3 0.398482 0.763148 0.154741
O O4 0.349833 0.650167 0.000000
O O5 0.136415 0.500000 0.487462
O O6 0.136586 0.337706 0.598149
O O7 0.107931 0.337506 0.384493
O O8 0.000000 0.410310 0.525855
O O9 0.611266 0.388734 0.500000
O O10 0.500000 0.307980 0.626559
O O11 0.672221 0.266265 0.632965
O O12 0.127795 0.500000 0.179064
O O13 0.164444 0.674414 0.183937
O O14 0.000000 0.611534 0.163086
O O15 0.110631 0.595240 0.995486
O O16 0.810932 0.178974 0.314719
O O17 0.683966 0.095561 0.197211
O O18 0.767156 0.000000 0.347123
O O19 0.500000 0.104347 0.190024
#
# Coordination Sequence:
#
# PCOD9557348 Si02
#       7
#     8   8   8   8   8   8   8
#     4  11  23  39  59  84 120 168 219 267 317 381
#     4  10  21  38  63  92 120 155 201 256 320 384
#     4  12  25  40  59  86 125 177 228 273 321 383
#     4  10  21  38  63  94 124 159 205 265 336 394
#     4  11  23  39  60  87 121 162 206 255 315 381
#     4  12  23  38  60  87 125 160 203 260 320 393
#     4  10  21  38  60  86 117 153 204 262 318 378
#
# _framework density 21.036393
#
# number of rings (size 3 to 8) (size 9 to 14) (size 15 to 20)
#    0.000    1.143    1.429    5.571    0.000    5.429 
#    0.000    0.000    0.000    1.714    0.000    4.000 
#    0.000    4.571    0.000    0.143    0.000    0.000 
#
# Total GULP energy -311946.996230 kJ/mol
# GULP energy per Si atom -5570.482076 kJ/mol
# Density = 2.098851 g / cm^3
# Si number density = 21.036393 Si / 1000 Ang^3
#
#
#
# Elastic Constant Matrix: (Units=GPa)
#
#
# Indices 1 2 3 4 5 6 
#
# 1 89.7691 20.1941 15.0191 0.0000 0.0000 0.0000
# 2 20.1941 89.7690 15.0188 0.0000 0.0000 0.0000
# 3 15.0191 15.0188 87.4118 0.0000 0.0000 0.0000
# 4 0.0000 0.0000 0.0000 19.6688 0.0000 0.0000
# 5 0.0000 0.0000 0.0000 0.0000 19.6678 0.0000
# 6 0.0000 0.0000 0.0000 0.0000 0.0000 74.6498
#
#
#
# Elastic Compliance Matrix: (Units=1/GPa)
#
#
# Indices 1 2 3 4 5 6 
#
# 1 0.011957 -0.002416 -0.001639 0.000000 0.000000 0.000000
# 2 -0.002416 0.011957 -0.001639 0.000000 0.000000 0.000000
# 3 -0.001639 -0.001639 0.012003 0.000000 0.000000 0.000000
# 4 0.000000 0.000000 0.000000 0.050842 0.000000 0.000000
# 5 0.000000 0.000000 0.000000 0.000000 0.050845 0.000000
# 6 0.000000 0.000000 0.000000 0.000000 0.000000 0.013396
#
#
# Mechanical properties :
#
#
# Convention : Reuss Voigt Hill
#
# Bulk Modulus (GPa) = 40.76766 40.82377 40.79571
# Shear Modulus (GPa) = 29.31416 37.24514 33.27965
#
# Velocity S-wave (km/s) = 3.73701 4.21231 3.98176
# Velocity P-wave (km/s) = 6.16782 6.56555 6.36979
#
# Compressibility (1/GPa) = 0.02452925
#
# Stress axis : x y z
#
# Youngs Moduli (GPa) = 83.63031 83.63023 83.30913
#
# Poissons Ratio (x) = 0.20202 0.13658
# Poissons Ratio (y) = 0.20202 0.13658
# Poissons Ratio (z) = 0.13711 0.13711
#
# Static dielectric constant tensor:
#      x y z
#    x 1.825790 0.000000 0.000000 
#    y 0.000000 1.825790 0.000000 
#    z 0.000000 0.000000 1.935890 
# 
# From -- ./inp_files/3053.got.cif
#   From: 2010.05.17/outbox.cif.g08.bks.cpg/sg115_2_cif.got.tgz:3053.got - 2010.05.20 11:07:42.
