data_PCOD9557184
_publ_section_title
;
Structure prediction by ZEFSAII (Michael W. Deem and Ramdas Pophale) SiO2 
 PCOD9557184
Probable space group: P -4 M 2
;
_chemical_formula_sum "Si O2"
_cell_formula_units_Z 48
_cell_length_a 9.252528
_cell_length_b 9.252528
_cell_length_c 32.353307
_cell_angle_alpha 90.000000
_cell_angle_beta 90.000000
_cell_angle_gamma 90.000000
_cell_volume 2769.743136
_symmetry_space_group_name_H-M "P -4 M 2"
_symmetry_group_IT_number 115
_symmetry_cell_setting 'tetragonal'
loop_
_space_group_symop_operation_xyz
x,y,z
y,-x,-z
-x,-y,z
-y,x,-z
y,x,-z
-y,-x,-z
-x,y,z
x,-y,z
loop_
_atom_site_type_symbol
_atom_site_label
_atom_site_fract_x
_atom_site_fract_y
_atom_site_fract_z
Si Si1 0.326728 0.169627 0.295234
Si Si2 0.828679 0.175319 0.044391
Si Si3 0.168928 0.326353 0.462991
Si Si4 0.825748 0.828145 0.135156
Si Si5 0.329644 0.174001 0.629886
Si Si6 0.326737 0.670025 0.210632
O O1 0.500000 0.185754 0.299780
O O2 0.249226 0.238779 0.334574
O O3 0.283603 0.251519 0.253206
O O4 0.293779 0.000000 0.291688
O O5 0.773035 0.221269 0.089370
O O6 0.000000 0.207908 0.044588
O O7 0.817337 0.000000 0.043929
O O8 0.770584 0.229416 0.000000
O O9 0.256789 0.256789 0.500000
O O10 0.178827 0.500000 0.464837
O O11 0.217402 0.283853 0.416654
O O12 0.000000 0.287451 0.467072
O O13 0.751720 0.742067 0.171854
O O14 0.000000 0.811316 0.136665
O O15 0.796179 0.000000 0.139200
O O16 0.500000 0.208773 0.634822
O O17 0.316517 0.000000 0.632352
O O18 0.500000 0.687401 0.206114
O O19 0.294577 0.500000 0.213127
#
# Coordination Sequence:
#
# PCOD9557184 Si02
#       6
#     8   8   8   8   8   8
#     4  10  21  36  54  76  99 124 159 204 250 294
#     4   7  10  19  38  65  95 123 151 188 235 283
#     4   9  19  35  53  75 104 136 170 206 242 284
#     4   9  17  29  48  75 101 124 156 199 244 289
#     4   9  19  36  55  75 102 135 167 200 242 291
#     4  10  21  36  52  69  93 129 168 201 239 290
#
# _framework density 17.330127000000001
#
# number of rings (size 3 to 8) (size 9 to 14) (size 15 to 20)
#    0.000    3.000    0.000    3.500    0.000    5.000 
#    0.000    5.000    0.000    1.000    0.000    5.833 
#    0.000    0.000    0.000    0.000    0.000    0.000 
#
# Total GULP energy -267398.700978 kJ/mol
# GULP energy per Si atom -5570.806270 kJ/mol
# Density = 1.729068 g / cm^3
# Si number density = 17.330127 Si / 1000 Ang^3
#
#
#
# Elastic Constant Matrix: (Units=GPa)
#
#
# Indices 1 2 3 4 5 6 
#
# 1 40.5663 36.0522 69.7667 0.0000 0.0000 0.0000
# 2 36.0522 40.5661 69.7667 0.0000 0.0000 0.0000
# 3 69.7667 69.7667 217.0611 0.0000 0.0000 0.0000
# 4 0.0000 0.0000 0.0000 89.0206 0.0000 0.0000
# 5 0.0000 0.0000 0.0000 0.0000 89.0190 0.0000
# 6 0.0000 0.0000 0.0000 0.0000 0.0000 26.3441
#
#
#
# Elastic Compliance Matrix: (Units=1/GPa)
#
#
# Indices 1 2 3 4 5 6 
#
# 1 0.126504 -0.095028 -0.010117 0.000000 0.000000 0.000000
# 2 -0.095028 0.126505 -0.010117 0.000000 0.000000 0.000000
# 3 -0.010117 -0.010117 0.011110 0.000000 0.000000 0.000000
# 4 0.000000 0.000000 0.000000 0.011233 0.000000 0.000000
# 5 0.000000 0.000000 0.000000 0.000000 0.011234 0.000000
# 6 0.000000 0.000000 0.000000 0.000000 0.000000 0.037959
#
#
# Mechanical properties :
#
#
# Convention : Reuss Voigt Hill
#
# Bulk Modulus (GPa) = 29.76637 72.15161 50.95899
# Shear Modulus (GPa) = 8.82975 49.05060 28.94018
#
# Velocity S-wave (km/s) = 2.25967 5.32589 4.09092
# Velocity P-wave (km/s) = 4.90117 8.91875 7.19603
#
# Compressibility (1/GPa) = 0.03359496
#
# Stress axis : x y z
#
# Youngs Moduli (GPa) = 7.90490 7.90485 90.00568
#
# Poissons Ratio (x) = 0.75118 0.91056
# Poissons Ratio (y) = 0.75119 0.91058
# Poissons Ratio (z) = 0.07997 0.07997
#
# Static dielectric constant tensor:
#      x y z
#    x 1.573580 0.000000 0.000000 
#    y 0.000000 1.573580 0.000000 
#    z 0.000000 0.000000 1.602820 
# 
# From -- ./inp_files/5954.got.cif
#   From: 2010.05.17/outbox.cif.g08.bks.cpg/sg115_3_cif.got.tgz:5954.got - 2010.05.20 11:07:42.
