data_PCOD9557210
_publ_section_title
;
Structure prediction by ZEFSAII (Michael W. Deem and Ramdas Pophale) SiO2 
 PCOD9557210
Probable space group: P -4 M 2
;
_chemical_formula_sum "Si O2"
_cell_formula_units_Z 48
_cell_length_a 9.118484
_cell_length_b 9.118484
_cell_length_c 31.968141
_cell_angle_alpha 90.000000
_cell_angle_beta 90.000000
_cell_angle_gamma 90.000000
_cell_volume 2658.047042
_symmetry_space_group_name_H-M "P -4 M 2"
_symmetry_group_IT_number 115
_symmetry_cell_setting 'tetragonal'
loop_
_space_group_symop_operation_xyz
x,y,z
y,-x,-z
-x,-y,z
-y,x,-z
y,x,-z
-y,-x,-z
-x,y,z
x,-y,z
loop_
_atom_site_type_symbol
_atom_site_label
_atom_site_fract_x
_atom_site_fract_y
_atom_site_fract_z
Si Si1 0.678789 0.329904 0.454301
Si Si2 0.171086 0.176852 0.284166
Si Si3 0.671749 0.824071 0.369481
Si Si4 0.173731 0.675601 0.118740
Si Si5 0.174763 0.674351 0.960232
Si Si6 0.671539 0.324016 0.205878
O O1 0.727012 0.272989 0.500000
O O2 0.500000 0.325388 0.455671
O O3 0.721463 0.500000 0.450094
O O4 0.725234 0.243027 0.413209
O O5 0.238611 0.223428 0.328732
O O6 0.258413 0.247236 0.245947
O O7 0.000000 0.215734 0.281666
O O8 0.183727 0.000000 0.281821
O O9 0.500000 0.783880 0.363979
O O10 0.679671 0.000000 0.372262
O O11 0.194546 0.500000 0.113004
O O12 0.253379 0.760205 0.081513
O O13 0.243107 0.716220 0.163453
O O14 0.000000 0.704755 0.118413
O O15 0.202423 0.500000 0.960142
O O16 0.000000 0.697487 0.962506
O O17 0.251988 0.748013 0.000000
O O18 0.500000 0.286769 0.201949
O O19 0.683568 0.500000 0.210708
#
# Coordination Sequence:
#
# PCOD9557210 Si02
#       6
#     8   8   8   8   8   8
#     4   8  14  26  45  68  93 122 158 201 249 302
#     4  10  21  36  53  74 103 139 176 215 262 314
#     4   9  17  30  48  69  94 126 164 206 252 304
#     4  10  21  38  60  85 113 145 180 219 266 319
#     4  11  24  40  59  85 115 148 187 228 270 317
#     4  10  21  37  58  83 109 139 177 220 266 316
#
# _framework density 18.058371000000001
#
# number of rings (size 3 to 8) (size 9 to 14) (size 15 to 20)
#    0.000    2.333    0.000    3.000    0.000    7.667 
#    0.000    2.500    0.000    1.000    0.000    0.000 
#    0.000    0.000    0.000    0.000    0.000    0.000 
#
# Total GULP energy -267916.817836 kJ/mol
# GULP energy per Si atom -5581.600372 kJ/mol
# Density = 1.801727 g / cm^3
# Si number density = 18.058371 Si / 1000 Ang^3
#
#
#
# Elastic Constant Matrix: (Units=GPa)
#
#
# Indices 1 2 3 4 5 6 
#
# 1 70.9669 59.5901 81.2517 0.0000 0.0000 0.0000
# 2 59.5901 70.9665 81.2520 0.0000 0.0000 0.0000
# 3 81.2517 81.2520 204.3358 0.0000 0.0000 0.0000
# 4 0.0000 0.0000 0.0000 97.6680 0.0000 0.0000
# 5 0.0000 0.0000 0.0000 0.0000 97.6751 0.0000
# 6 0.0000 0.0000 0.0000 0.0000 0.0000 23.6693
#
#
#
# Elastic Compliance Matrix: (Units=1/GPa)
#
#
# Indices 1 2 3 4 5 6 
#
# 1 0.051532 -0.036367 -0.006030 0.000000 0.000000 0.000000
# 2 -0.036367 0.051533 -0.006031 0.000000 0.000000 0.000000
# 3 -0.006030 -0.006031 0.009690 0.000000 0.000000 0.000000
# 4 0.000000 0.000000 0.000000 0.010239 0.000000 0.000000
# 5 0.000000 0.000000 0.000000 0.000000 0.010238 0.000000
# 6 0.000000 0.000000 0.000000 0.000000 0.000000 0.042249
#
#
# Mechanical properties :
#
#
# Convention : Reuss Voigt Hill
#
# Bulk Modulus (GPa) = 62.89627 87.82855 75.36241
# Shear Modulus (GPa) = 18.00915 52.08081 35.04498
#
# Velocity S-wave (km/s) = 3.16139 5.37614 4.41006
# Velocity P-wave (km/s) = 6.94485 9.34231 8.23133
#
# Compressibility (1/GPa) = 0.01589919
#
# Stress axis : x y z
#
# Youngs Moduli (GPa) = 19.40533 19.40496 103.20182
#
# Poissons Ratio (x) = 0.70570 0.62232
# Poissons Ratio (y) = 0.70572 0.62238
# Poissons Ratio (z) = 0.11702 0.11702
#
# Static dielectric constant tensor:
#      x y z
#    x 1.605350 0.000000 0.000000 
#    y 0.000000 1.605350 0.000000 
#    z 0.000000 0.000000 1.597360 
# 
# From -- ./inp_files/5906.got.cif
#   From: 2010.05.17/outbox.cif.g08.bks.cpg/sg115_3_cif.got.tgz:5906.got - 2010.05.20 11:07:42.
