data_PCOD9557799
_publ_section_title
;
Structure prediction by ZEFSAII (Michael W. Deem and Ramdas Pophale) SiO2 
 PCOD9557799
Probable space group: P -4 C 2
;
_chemical_formula_sum "Si O2"
_cell_formula_units_Z 34
_cell_length_a 11.399641
_cell_length_b 11.399641
_cell_length_c 11.593107
_cell_angle_alpha 90.000000
_cell_angle_beta 90.000000
_cell_angle_gamma 90.000000
_cell_volume 1506.545295
_symmetry_space_group_name_H-M "P -4 C 2"
_symmetry_group_IT_number 116
_symmetry_cell_setting 'tetragonal'
loop_
_space_group_symop_operation_xyz
x,y,z
y,-x,-z
-x,-y,z
-y,x,-z
y,x,1/2-z
-y,-x,1/2-z
-x,y,1/2+z
x,-y,1/2+z
loop_
_atom_site_type_symbol
_atom_site_label
_atom_site_fract_x
_atom_site_fract_y
_atom_site_fract_z
Si Si1 0.500000 0.500000 0.000000
Si Si2 0.692058 0.439583 0.337958
Si Si3 0.198449 0.951309 0.662018
Si Si4 0.824351 0.370336 0.707278
Si Si5 0.249207 0.819875 0.025153
O O1 0.515219 0.623490 0.066495
O O2 0.590348 0.409652 0.250000
O O3 0.790446 0.508601 0.266730
O O4 0.733543 0.315900 0.389420
O O5 0.096552 0.903449 0.750000
O O6 0.315735 0.940486 0.737027
O O7 0.213757 0.858712 0.557300
O O8 0.194830 0.076090 0.602254
O O9 0.718199 0.281802 0.750000
O O10 0.841696 0.352915 0.570696
#
# Coordination Sequence:
#
# PCOD9557799 Si02
#       5
#     2   8   8   8   8
#     4  12  22  40  64  90 136 188 218 260 336 410
#     4  12  23  36  62  95 125 165 218 266 325 409
#     4   9  21  43  64  85 120 164 214 267 333 413
#     4   9  20  40  60  87 126 163 204 259 325 403
#     4  10  22  41  63  88 122 163 212 275 336 397
#
# _framework density 22.568192
#
# number of rings (size 3 to 8) (size 9 to 14) (size 15 to 20)
#    0.000    2.353    0.000    6.000    0.000    5.176 
#    0.000    9.412    0.000    0.000    0.000    0.000 
#    0.000    0.000    0.000    0.000    0.000    0.000 
#
# Total GULP energy -189345.549972 kJ/mol
# GULP energy per Si atom -5568.986764 kJ/mol
# Density = 2.251683 g / cm^3
# Si number density = 22.568192 Si / 1000 Ang^3
#
#
#
# Elastic Constant Matrix: (Units=GPa)
#
#
# Indices 1 2 3 4 5 6 
#
# 1 20.2858 46.8650 28.3093 0.0000 0.0000 0.0000
# 2 46.8650 20.2856 28.3055 0.0000 0.0000 0.0000
# 3 28.3093 28.3055 89.1644 0.0000 0.0000 0.0000
# 4 0.0000 0.0000 0.0000 22.3251 0.0000 0.0000
# 5 0.0000 0.0000 0.0000 0.0000 22.3250 0.0000
# 6 0.0000 0.0000 0.0000 0.0000 0.0000 29.1547
#
#
#
# Elastic Compliance Matrix: (Units=1/GPa)
#
#
# Indices 1 2 3 4 5 6 
#
# 1 -0.008645 0.028979 -0.006455 0.000000 0.000000 0.000000
# 2 0.028979 -0.008643 -0.006457 0.000000 0.000000 0.000000
# 3 -0.006455 -0.006457 0.015314 0.000000 0.000000 0.000000
# 4 0.000000 0.000000 0.000000 0.044793 0.000000 0.000000
# 5 0.000000 0.000000 0.000000 0.000000 0.044793 0.000000
# 6 0.000000 0.000000 0.000000 0.000000 0.000000 0.034300
#
#
# Mechanical properties :
#
#
# Convention : Reuss Voigt Hill
#
# Bulk Modulus (GPa) = 33.15569 37.41062 35.28315
# Shear Modulus (GPa) = 50.08525 16.51135 33.29830
#
# Velocity S-wave (km/s) = 4.71604 2.70778 3.84533
# Velocity P-wave (km/s) = 6.66168 5.13700 5.94839
#
# Compressibility (1/GPa) = 0.03016074
#
# Stress axis : x y z
#
# Youngs Moduli (GPa) = -115.67230 -115.69520 65.29836
#
# Poissons Ratio (x) = 3.35273 0.42148
# Poissons Ratio (y) = 3.35207 0.42162
# Poissons Ratio (z) = -0.74663 -0.74702
#
# Static dielectric constant tensor:
#      x y z
#    x 1.869110 0.000000 0.000000 
#    y 0.000000 1.869120 0.000000 
#    z 0.000000 0.000000 2.112800 
# 
# From -- ./inp_files/1610.got.cif
#   From: 2010.05.17/outbox.cif.g08.bks.cpg/sg116_1_cif.got.tgz:1610.got - 2010.05.20 11:11:43.
