data_PCOD9557188
_publ_section_title
;
Structure prediction by ZEFSAII (Michael W. Deem and Ramdas Pophale) SiO2 
 PCOD9557188
Probable space group: P -4 M 2
;
_chemical_formula_sum "Si O2"
_cell_formula_units_Z 44
_cell_length_a 9.170285
_cell_length_b 9.170285
_cell_length_c 29.679426
_cell_angle_alpha 90.000000
_cell_angle_beta 90.000000
_cell_angle_gamma 90.000000
_cell_volume 2495.865419
_symmetry_space_group_name_H-M "P -4 M 2"
_symmetry_group_IT_number 115
_symmetry_cell_setting 'tetragonal'
loop_
_space_group_symop_operation_xyz
x,y,z
y,-x,-z
-x,-y,z
-y,x,-z
y,x,-z
-y,-x,-z
-x,y,z
x,-y,z
loop_
_atom_site_type_symbol
_atom_site_label
_atom_site_fract_x
_atom_site_fract_y
_atom_site_fract_z
Si Si1 0.326929 0.676883 0.951594
Si Si2 0.826611 0.326903 0.407231
Si Si3 0.826794 0.173207 0.500000
Si Si4 0.825750 0.672283 0.676381
Si Si5 0.673116 0.324203 0.147148
Si Si6 0.174772 0.171312 0.769182
O O1 0.500000 0.709001 0.951455
O O2 0.314840 0.500000 0.951963
O O3 0.270766 0.724060 0.902618
O O4 0.268532 0.731469 0.000000
O O5 0.804893 0.500000 0.407855
O O6 0.781669 0.257772 0.455039
O O7 0.741936 0.254903 0.366006
O O8 0.000000 0.297728 0.401857
O O9 0.000000 0.196473 0.506876
O O10 0.798342 0.500000 0.679071
O O11 0.780548 0.748788 0.723031
O O12 0.000000 0.694756 0.671135
O O13 0.500000 0.293262 0.151344
O O14 0.689136 0.500000 0.148497
O O15 0.758700 0.251854 0.187789
O O16 0.000000 0.189084 0.773721
O O17 0.207166 0.000000 0.765951
#
# Coordination Sequence:
#
# PCOD9557188 Si02
#       6
#     8   8   4   8   8   8
#     4   7  10  19  38  65  95 124 155 194 240 289
#     4  10  21  36  55  81 111 140 170 206 249 296
#     4   9  18  34  56  79 106 144 184 215 242 281
#     4  10  21  37  57  78  99 128 168 212 256 301
#     4   9  17  29  48  75 102 127 159 202 251 299
#     4  10  21  36  53  72  96 130 170 208 248 298
#
# _framework density 17.629155999999998
#
# number of rings (size 3 to 8) (size 9 to 14) (size 15 to 20)
#    0.000    2.818    0.000    3.273    0.000    5.091 
#    0.000    1.818    0.000    1.091    0.000    6.364 
#    0.000    0.000    0.000    0.000    0.000    0.000 
#
# Total GULP energy -245227.558259 kJ/mol
# GULP energy per Si atom -5573.353597 kJ/mol
# Density = 1.758903 g / cm^3
# Si number density = 17.629156 Si / 1000 Ang^3
#
#
#
# Elastic Constant Matrix: (Units=GPa)
#
#
# Indices 1 2 3 4 5 6 
#
# 1 43.3760 46.5957 78.3565 0.0000 0.0000 0.0000
# 2 46.5957 43.3756 78.3565 0.0000 0.0000 0.0000
# 3 78.3565 78.3565 234.2128 0.0000 0.0000 0.0000
# 4 0.0000 0.0000 0.0000 41.8999 0.0000 0.0000
# 5 0.0000 0.0000 0.0000 0.0000 41.8993 0.0000
# 6 0.0000 0.0000 0.0000 0.0000 0.0000 22.9031
#
#
#
# Elastic Compliance Matrix: (Units=1/GPa)
#
#
# Indices 1 2 3 4 5 6 
#
# 1 -0.141964 0.168602 -0.008912 0.000000 0.000000 0.000000
# 2 0.168602 -0.141967 -0.008911 0.000000 0.000000 0.000000
# 3 -0.008912 -0.008911 0.010232 0.000000 0.000000 0.000000
# 4 0.000000 0.000000 0.000000 0.023866 0.000000 0.000000
# 5 0.000000 0.000000 0.000000 0.000000 0.023867 0.000000
# 6 0.000000 0.000000 0.000000 0.000000 0.000000 0.043662
#
#
# Mechanical properties :
#
#
# Convention : Reuss Voigt Hill
#
# Bulk Modulus (GPa) = 35.89398 80.84241 58.36820
# Shear Modulus (GPa) = -10.53573 29.18419 9.32423
#
# Velocity S-wave (km/s) = -2.44730 4.07314 2.30230
# Velocity P-wave (km/s) = 3.52407 8.25090 6.34415
#
# Compressibility (1/GPa) = 0.02785983
#
# Stress axis : x y z
#
# Youngs Moduli (GPa) = -7.04406 -7.04388 97.73080
#
# Poissons Ratio (x) = 1.18761 0.87097
# Poissons Ratio (y) = 1.18764 0.87084
# Poissons Ratio (z) = -0.06278 -0.06277
#
# Static dielectric constant tensor:
#      x y z
#    x 1.587790 0.000000 0.000000 
#    y 0.000000 1.587790 0.000000 
#    z 0.000000 0.000000 1.608880 
# 
# From -- ./inp_files/5734.got.cif
#   From: 2010.05.17/outbox.cif.g08.bks.cpg/sg115_3_cif.got.tgz:5734.got - 2010.05.20 11:07:42.
