data_PCOD9557817
_publ_section_title
;
Structure prediction by ZEFSAII (Michael W. Deem and Ramdas Pophale) SiO2 
 PCOD9557817
Probable space group: P -4 C 2
;
_chemical_formula_sum "Si O2"
_cell_formula_units_Z 46
_cell_length_a 10.934571
_cell_length_b 10.934571
_cell_length_c 17.960173
_cell_angle_alpha 90.000000
_cell_angle_beta 90.000000
_cell_angle_gamma 90.000000
_cell_volume 2147.405264
_symmetry_space_group_name_H-M "P -4 C 2"
_symmetry_group_IT_number 116
_symmetry_cell_setting 'tetragonal'
loop_
_space_group_symop_operation_xyz
x,y,z
y,-x,-z
-x,-y,z
-y,x,-z
y,x,1/2-z
-y,-x,1/2-z
-x,y,1/2+z
x,-y,1/2+z
loop_
_atom_site_type_symbol
_atom_site_label
_atom_site_fract_x
_atom_site_fract_y
_atom_site_fract_z
Si Si1 0.789009 0.769067 0.168058
Si Si2 0.312108 0.462384 0.382656
Si Si3 0.067980 0.169767 0.030622
Si Si4 0.500000 0.500000 0.000000
Si Si5 0.123764 0.447355 0.991804
Si Si6 0.643052 0.356949 0.250000
Si Si7 0.514388 0.855154 0.841822
O O1 0.813253 0.813253 0.250000
O O2 0.649336 0.774033 0.140780
O O3 0.876604 0.840407 0.112496
O O4 0.804835 0.621901 0.171572
O O5 0.417147 0.424045 0.441732
O O6 0.230699 0.550827 0.432727
O O7 0.361347 0.535942 0.311846
O O8 0.096452 0.308881 0.012796
O O9 0.926155 0.137366 0.022321
O O10 0.000000 0.500000 0.957607
O O11 0.149158 0.526151 0.067523
O O12 0.770562 0.388753 0.204144
O O13 0.500000 0.000000 0.822284
#
# Coordination Sequence:
#
# PCOD9557817 Si02
#       7
#     8   8   8   2   8   4   8
#     4  11  22  42  69  95 138 180 226 290 364 414
#     4  12  24  38  64 100 129 177 225 283 359 419
#     4  10  22  43  71  99 135 186 239 288 338 419
#     4  12  24  34  60  92 132 162 224 272 332 430
#     4  10  22  42  70  95 131 175 234 287 344 410
#     4  12  24  41  66  96 147 174 230 296 361 440
#     4  10  23  42  66  98 137 186 231 288 362 432
#
# _framework density 21.421199000000001
#
# number of rings (size 3 to 8) (size 9 to 14) (size 15 to 20)
#    0.000    1.217    1.739    5.217    0.000    5.565 
#    3.130    1.739    0.000    0.000    0.000    0.000 
#    0.000    0.000    0.000    0.000    0.000    0.000 
#
# Total GULP energy -256627.950594 kJ/mol
# GULP energy per Si atom -5578.868491 kJ/mol
# Density = 2.137244 g / cm^3
# Si number density = 21.421199 Si / 1000 Ang^3
#
#
#
# Elastic Constant Matrix: (Units=GPa)
#
#
# Indices 1 2 3 4 5 6 
#
# 1 89.2856 12.8605 45.8377 0.0000 0.0000 0.0000
# 2 12.8605 89.2855 45.8378 0.0000 0.0000 0.0000
# 3 45.8377 45.8378 126.5563 0.0000 0.0000 0.0000
# 4 0.0000 0.0000 0.0000 4.6205 0.0000 0.0000
# 5 0.0000 0.0000 0.0000 0.0000 4.6202 0.0000
# 6 0.0000 0.0000 0.0000 0.0000 0.0000 26.5075
#
#
#
# Elastic Compliance Matrix: (Units=1/GPa)
#
#
# Indices 1 2 3 4 5 6 
#
# 1 0.013795 0.000710 -0.005254 0.000000 0.000000 0.000000
# 2 0.000710 0.013795 -0.005254 0.000000 0.000000 0.000000
# 3 -0.005254 -0.005254 0.011707 0.000000 0.000000 0.000000
# 4 0.000000 0.000000 0.000000 0.216425 0.000000 0.000000
# 5 0.000000 0.000000 0.000000 0.000000 0.216440 0.000000
# 6 0.000000 0.000000 0.000000 0.000000 0.000000 0.037725
#
#
# Mechanical properties :
#
#
# Convention : Reuss Voigt Hill
#
# Bulk Modulus (GPa) = 50.75415 57.13326 53.94370
# Shear Modulus (GPa) = 9.32751 20.52243 14.92497
#
# Velocity S-wave (km/s) = 2.08897 3.09858 2.64244
# Velocity P-wave (km/s) = 5.43721 6.28736 5.87768
#
# Compressibility (1/GPa) = 0.01970282
#
# Stress axis : x y z
#
# Youngs Moduli (GPa) = 72.49098 72.49077 85.41725
#
# Poissons Ratio (x) = -0.05148 0.44875
# Poissons Ratio (y) = -0.05148 0.44875
# Poissons Ratio (z) = 0.38084 0.38084
#
# Static dielectric constant tensor:
#      x y z
#    x 1.816640 0.000000 0.000000 
#    y 0.000000 1.816640 0.000000 
#    z 0.000000 0.000000 1.798400 
# 
# From -- ./inp_files/3442.got.cif
#   From: 2010.05.17/outbox.cif.g08.bks.cpg/sg116_2_cif.got.tgz:3442.got - 2010.05.20 11:11:43.
