data_PCOD9557621
_publ_section_title
;
Structure prediction by ZEFSAII (Michael W. Deem and Ramdas Pophale) SiO2 
 PCOD9557621
Probable space group: P -4 C 2
;
_chemical_formula_sum "Si O2"
_cell_formula_units_Z 24
_cell_length_a 14.353820
_cell_length_b 14.353820
_cell_length_c 5.056302
_cell_angle_alpha 90.000000
_cell_angle_beta 90.000000
_cell_angle_gamma 90.000000
_cell_volume 1041.760765
_symmetry_space_group_name_H-M "P -4 C 2"
_symmetry_group_IT_number 116
_symmetry_cell_setting 'tetragonal'
loop_
_space_group_symop_operation_xyz
x,y,z
y,-x,-z
-x,-y,z
-y,x,-z
y,x,1/2-z
-y,-x,1/2-z
-x,y,1/2+z
x,-y,1/2+z
loop_
_atom_site_type_symbol
_atom_site_label
_atom_site_fract_x
_atom_site_fract_y
_atom_site_fract_z
Si Si1 0.785210 0.939339 0.784504
Si Si2 0.569103 0.110022 0.258611
Si Si3 0.550372 0.687405 0.876313
O O1 0.841893 0.841893 0.750000
O O2 0.670824 0.935636 0.771126
O O3 0.812045 0.012383 0.557906
O O4 0.494060 0.095836 0.496757
O O5 0.597449 0.218179 0.282775
O O6 0.600163 0.600163 0.750000
O O7 0.457930 0.689526 0.691100
#
# Coordination Sequence:
#
# PCOD9557621 Si02
#       3
#     8   8   8
#     4  12  27  46  71 101 136 180 227 279 336 399
#     4  10  22  41  66  96 129 167 214 269 331 395
#     4  10  20  33  51  77 114 159 205 258 315 377
#
# _framework density 23.037918999999999
#
# number of rings (size 3 to 8) (size 9 to 14) (size 15 to 20)
#    0.000    1.333    0.000    5.000    0.000    8.000 
#    0.000   10.000    0.000    0.000    0.000    0.000 
#    0.000    0.000    0.000    0.000    0.000    0.000 
#
# Total GULP energy -133733.461610 kJ/mol
# GULP energy per Si atom -5572.227567 kJ/mol
# Density = 2.298548 g / cm^3
# Si number density = 23.037919 Si / 1000 Ang^3
#
#
#
# Elastic Constant Matrix: (Units=GPa)
#
#
# Indices 1 2 3 4 5 6 
#
# 1 -26.6504 129.0047 1.6392 0.0000 0.0000 0.0000
# 2 129.0047 -26.6504 1.6392 0.0000 0.0000 0.0000
# 3 1.6392 1.6392 103.1958 0.0000 0.0000 0.0000
# 4 0.0000 0.0000 0.0000 21.2058 0.0000 0.0000
# 5 0.0000 0.0000 0.0000 0.0000 21.2058 0.0000
# 6 0.0000 0.0000 0.0000 0.0000 0.0000 50.4622
#
#
#
# Elastic Compliance Matrix: (Units=1/GPa)
#
#
# Indices 1 2 3 4 5 6 
#
# 1 0.001675 0.008100 -0.000155 0.000000 0.000000 0.000000
# 2 0.008100 0.001675 -0.000155 0.000000 0.000000 0.000000
# 3 -0.000155 -0.000155 0.009695 0.000000 0.000000 0.000000
# 4 0.000000 0.000000 0.000000 0.047157 0.000000 0.000000
# 5 0.000000 0.000000 0.000000 0.000000 0.047157 0.000000
# 6 0.000000 0.000000 0.000000 0.000000 0.000000 0.019817
#
#
# Mechanical properties :
#
#
# Convention : Reuss Voigt Hill
#
# Bulk Modulus (GPa) = 34.93562 34.94015 34.93788
# Shear Modulus (GPa) = 41.27484 13.08224 27.17854
#
# Velocity S-wave (km/s) = 4.23733 2.38556 3.43845
# Velocity P-wave (km/s) = 6.25598 4.77359 5.56437
#
# Compressibility (1/GPa) = 0.02862408
#
# Stress axis : x y z
#
# Youngs Moduli (GPa) = 596.92644 596.92644 103.14334
#
# Poissons Ratio (x) = -4.83493 0.01602
# Poissons Ratio (y) = -4.83493 0.01602
# Poissons Ratio (z) = 0.09269 0.09269
#
# Static dielectric constant tensor:
#      x y z
#    x 1.935320 0.000000 0.000000 
#    y 0.000000 1.935320 0.000000 
#    z 0.000000 0.000000 1.893510 
# 
# From -- ./inp_files/47.got.cif
#   From: 2010.05.17/outbox.cif.g08.bks.cpg/sg116_1_cif.got.tgz:47.got - 2010.05.20 11:11:43.
