data_PCOD9557059
_publ_section_title
;
Structure prediction by ZEFSAII (Michael W. Deem and Ramdas Pophale) SiO2 
 PCOD9557059
Probable space group: P -4 M 2
;
_chemical_formula_sum "Si O2"
_cell_formula_units_Z 48
_cell_length_a 14.287196
_cell_length_b 14.287196
_cell_length_c 12.293754
_cell_angle_alpha 90.000000
_cell_angle_beta 90.000000
_cell_angle_gamma 90.000000
_cell_volume 2509.449867
_symmetry_space_group_name_H-M "P -4 M 2"
_symmetry_group_IT_number 115
_symmetry_cell_setting 'tetragonal'
loop_
_space_group_symop_operation_xyz
x,y,z
y,-x,-z
-x,-y,z
-y,x,-z
y,x,-z
-y,-x,-z
-x,y,z
x,-y,z
loop_
_atom_site_type_symbol
_atom_site_label
_atom_site_fract_x
_atom_site_fract_y
_atom_site_fract_z
Si Si1 0.390281 0.392026 0.130173
Si Si2 0.748483 0.892293 0.840543
Si Si3 0.213291 0.697787 0.775363
Si Si4 0.112088 0.603897 0.968978
Si Si5 0.609339 0.748191 0.452020
Si Si6 0.103485 0.603982 0.356812
O O1 0.500000 0.372966 0.156133
O O2 0.371412 0.500000 0.157466
O O3 0.322873 0.320694 0.190030
O O4 0.380521 0.380521 0.000000
O O5 0.813293 0.804048 0.809171
O O6 0.677859 0.893808 0.738930
O O7 0.784852 0.000000 0.853650
O O8 0.686428 0.866175 0.945990
O O9 0.153748 0.629528 0.852181
O O10 0.212305 0.668843 0.649627
O O11 0.146134 0.500000 0.002721
O O12 0.000000 0.600531 0.964110
O O13 0.653070 0.653070 0.500000
O O14 0.500000 0.738456 0.421612
O O15 0.617498 0.820577 0.551113
O O16 0.114846 0.500000 0.308966
O O17 0.000000 0.608506 0.407514
#
# Coordination Sequence:
#
# PCOD9557059 Si02
#       6
#     8   8   8   8   8   8
#     4   9  18  31  47  72 106 144 185 221 258 318
#     4  10  20  35  57  82 110 144 187 239 287 337
#     4  12  22  35  56  80 112 148 187 229 283 344
#     4  10  21  36  56  86 119 148 182 230 289 346
#     4  11  23  38  53  76 111 151 194 236 280 332
#     4   9  18  35  58  80 103 138 187 239 286 330
#
# _framework density 19.127697000000001
#
# number of rings (size 3 to 8) (size 9 to 14) (size 15 to 20)
#    0.000    1.833    1.667    4.000    0.000    6.167 
#    0.000    1.667    0.000    0.500    0.000    2.333 
#    0.000    0.333    0.000    0.000    0.000    0.000 
#
# Total GULP energy -267854.813075 kJ/mol
# GULP energy per Si atom -5580.308606 kJ/mol
# Density = 1.908416 g / cm^3
# Si number density = 19.127697 Si / 1000 Ang^3
#
#
#
# Elastic Constant Matrix: (Units=GPa)
#
#
# Indices 1 2 3 4 5 6 
#
# 1 40.7149 -4.1727 0.5102 0.0000 0.0000 0.0000
# 2 -4.1727 40.7149 0.5102 0.0000 0.0000 0.0000
# 3 0.5102 0.5102 53.0474 0.0000 0.0000 0.0000
# 4 0.0000 0.0000 0.0000 17.5714 0.0000 0.0000
# 5 0.0000 0.0000 0.0000 0.0000 17.5714 0.0000
# 6 0.0000 0.0000 0.0000 0.0000 0.0000 136.1022
#
#
#
# Elastic Compliance Matrix: (Units=1/GPa)
#
#
# Indices 1 2 3 4 5 6 
#
# 1 0.024825 0.002548 -0.000263 0.000000 0.000000 0.000000
# 2 0.002548 0.024825 -0.000263 0.000000 0.000000 0.000000
# 3 -0.000263 -0.000263 0.018856 0.000000 0.000000 0.000000
# 4 0.000000 0.000000 0.000000 0.056911 0.000000 0.000000
# 5 0.000000 0.000000 0.000000 0.000000 0.056911 0.000000
# 6 0.000000 0.000000 0.000000 0.000000 0.000000 0.007347
#
#
# Mechanical properties :
#
#
# Convention : Reuss Voigt Hill
#
# Bulk Modulus (GPa) = 13.78378 14.24139 14.01258
# Shear Modulus (GPa) = 23.83034 43.42431 33.62732
#
# Velocity S-wave (km/s) = 3.53350 4.76986 4.19745
# Velocity P-wave (km/s) = 4.88562 6.14793 5.55276
#
# Compressibility (1/GPa) = 0.07254906
#
# Stress axis : x y z
#
# Youngs Moduli (GPa) = 40.28129 40.28129 53.03311
#
# Poissons Ratio (x) = -0.10262 0.01396
# Poissons Ratio (y) = -0.10262 0.01396
# Poissons Ratio (z) = 0.01060 0.01060
#
# Static dielectric constant tensor:
#      x y z
#    x 1.702890 0.000000 0.000000 
#    y 0.000000 1.702890 0.000000 
#    z 0.000000 0.000000 1.653420 
# 
# From -- ./inp_files/2925.got.cif
#   From: 2010.05.17/outbox.cif.g08.bks.cpg/sg115_2_cif.got.tgz:2925.got - 2010.05.20 11:07:42.
