data_PCOD9557647
_publ_section_title
;
Structure prediction by ZEFSAII (Michael W. Deem and Ramdas Pophale) SiO2 
 PCOD9557647
Probable space group: P -4 C 2
;
_chemical_formula_sum "Si O2"
_cell_formula_units_Z 64
_cell_length_a 23.832742
_cell_length_b 23.832742
_cell_length_c 5.553291
_cell_angle_alpha 90.000000
_cell_angle_beta 90.000000
_cell_angle_gamma 90.000000
_cell_volume 3154.267018
_symmetry_space_group_name_H-M "P -4 C 2"
_symmetry_group_IT_number 116
_symmetry_cell_setting 'tetragonal'
loop_
_space_group_symop_operation_xyz
x,y,z
y,-x,-z
-x,-y,z
-y,x,-z
y,x,1/2-z
-y,-x,1/2-z
-x,y,1/2+z
x,-y,1/2+z
loop_
_atom_site_type_symbol
_atom_site_label
_atom_site_fract_x
_atom_site_fract_y
_atom_site_fract_z
Si Si1 0.972278 0.324888 0.827870
Si Si2 0.472411 0.163965 0.783832
Si Si3 0.739882 0.355023 0.714287
Si Si4 0.985820 0.802958 0.879310
Si Si5 0.186791 0.858293 0.988769
Si Si6 0.146067 0.649080 0.011524
Si Si7 0.285084 0.200638 0.628820
Si Si8 0.292128 0.515725 0.723394
O O1 0.906807 0.340952 0.840666
O O2 0.999875 0.345899 0.579061
O O3 0.984233 0.257688 0.841452
O O4 0.489993 0.145266 0.515038
O O5 0.482040 0.232011 0.779401
O O6 0.410503 0.144344 0.854396
O O7 0.691017 0.308984 0.750000
O O8 0.792422 0.348701 0.892815
O O9 0.769841 0.340977 0.462654
O O10 0.719195 0.418116 0.727214
O O11 0.921832 0.798121 0.958704
O O12 0.986587 0.830953 0.615142
O O13 0.164762 0.835239 0.250000
O O14 0.244057 0.824555 0.928942
O O15 0.149002 0.850999 0.750000
O O16 0.148820 0.699263 0.202555
O O17 0.249048 0.249048 0.750000
O O18 0.321037 0.500735 0.472507
#
# Coordination Sequence:
#
# PCOD9557647 Si02
#       8
#     8   8   8   8   8   8   8   8
#     4  10  24  40  58  83 111 159 214 256 304 363
#     4  10  20  37  60  86 105 159 214 258 310 368
#     4  12  24  36  59  96 134 166 206 266 329 394
#     4  10  20  37  58  83 115 155 203 251 295 358
#     4  11  24  39  59  85 124 170 207 247 305 387
#     4  12  24  38  63  85 123 167 212 259 319 385
#     4  11  23  34  51  85 128 167 199 242 315 383
#     4  10  20  39  59  84 118 168 217 255 305 377
#
# _framework density 20.289977
#
# number of rings (size 3 to 8) (size 9 to 14) (size 15 to 20)
#    0.000    1.250    3.750    4.125    7.000    0.000 
#    0.000    0.000    0.000    2.250    0.000    0.000 
#    0.000   19.000    0.000    0.000    0.000    0.000 
#
# Total GULP energy -356853.277626 kJ/mol
# GULP energy per Si atom -5575.832463 kJ/mol
# Density = 2.024380 g / cm^3
# Si number density = 20.289977 Si / 1000 Ang^3
#
#
#
# Elastic Constant Matrix: (Units=GPa)
#
#
# Indices 1 2 3 4 5 6 
#
# 1 -28.1689 107.0882 13.7975 0.0000 0.0000 0.0000
# 2 107.0882 -28.2074 13.8126 0.0000 0.0000 0.0000
# 3 13.7975 13.8126 125.6300 0.0000 0.0000 0.0000
# 4 0.0000 0.0000 0.0000 19.8093 0.0000 0.0000
# 5 0.0000 0.0000 0.0000 0.0000 19.8105 0.0000
# 6 0.0000 0.0000 0.0000 0.0000 0.0000 8.0774
#
#
#
# Elastic Compliance Matrix: (Units=1/GPa)
#
#
# Indices 1 2 3 4 5 6 
#
# 1 0.002896 0.010287 -0.001449 0.000000 0.000000 0.000000
# 2 0.010287 0.002892 -0.001448 0.000000 0.000000 0.000000
# 3 -0.001449 -0.001448 0.008278 0.000000 0.000000 0.000000
# 4 0.000000 0.000000 0.000000 0.050481 0.000000 0.000000
# 5 0.000000 0.000000 0.000000 0.000000 0.050478 0.000000
# 6 0.000000 0.000000 0.000000 0.000000 0.000000 0.123802
#
#
# Mechanical properties :
#
#
# Convention : Reuss Voigt Hill
#
# Bulk Modulus (GPa) = 34.66596 37.62781 36.14689
# Shear Modulus (GPa) = 21.39816 5.17645 13.28730
#
# Velocity S-wave (km/s) = 3.25101 1.59899 2.56182
# Velocity P-wave (km/s) = 5.58699 4.68981 5.15794
#
# Compressibility (1/GPa) = 0.02884674
#
# Stress axis : x y z
#
# Youngs Moduli (GPa) = 345.24847 345.73539 120.79910
#
# Poissons Ratio (x) = -3.55648 0.17505
# Poissons Ratio (y) = -3.55147 0.17489
# Poissons Ratio (z) = 0.50030 0.50054
#
# Static dielectric constant tensor:
#      x y z
#    x 1.782520 0.000000 0.000000 
#    y 0.000000 1.782490 0.000000 
#    z 0.000000 0.000000 3.777570 
# 
# From -- ./inp_files/274.got.cif
#   From: 2010.05.17/outbox.cif.g08.bks.cpg/sg116_1_cif.got.tgz:274.got - 2010.05.20 11:11:43.
