data_PCOD9557400
_publ_section_title
;
Structure prediction by ZEFSAII (Michael W. Deem and Ramdas Pophale) SiO2 
 PCOD9557400
Probable space group: P -4 M 2
;
_chemical_formula_sum "Si O2"
_cell_formula_units_Z 32
_cell_length_a 11.698300
_cell_length_b 11.698300
_cell_length_c 11.752247
_cell_angle_alpha 90.000000
_cell_angle_beta 90.000000
_cell_angle_gamma 90.000000
_cell_volume 1608.297621
_symmetry_space_group_name_H-M "P -4 M 2"
_symmetry_group_IT_number 115
_symmetry_cell_setting 'tetragonal'
loop_
_space_group_symop_operation_xyz
x,y,z
y,-x,-z
-x,-y,z
-y,x,-z
y,x,-z
-y,-x,-z
-x,y,z
x,-y,z
loop_
_atom_site_type_symbol
_atom_site_label
_atom_site_fract_x
_atom_site_fract_y
_atom_site_fract_z
Si Si1 0.865071 0.500000 0.579775
Si Si2 0.633857 0.874656 0.047931
Si Si3 0.727173 0.796476 0.817483
Si Si4 0.500000 0.862647 0.693342
Si Si5 0.863745 0.756294 0.613070
O O1 0.852737 0.500000 0.442868
O O2 0.822431 0.623329 0.622886
O O3 0.000000 0.500000 0.606865
O O4 0.500000 0.861550 0.022835
O O5 0.679408 0.773583 0.126873
O O6 0.650474 0.000000 0.102459
O O7 0.702990 0.871086 0.929551
O O8 0.610507 0.803167 0.747095
O O9 0.822582 0.825522 0.723869
O O10 0.500000 0.000000 0.719963
O O11 0.809155 0.809155 0.500000
O O12 0.000000 0.756698 0.602099
#
# Coordination Sequence:
#
# PCOD9557400 Si02
#       5
#     4   8   8   4   8
#     4   9  20  38  61  86 117 163 210 248 291 368
#     4  10  22  41  65  91 121 162 211 261 313 374
#     4  11  22  37  64  95 122 159 209 262 311 368
#     4  11  20  38  66  89 120 170 218 252 297 376
#     4  11  23  39  62  94 129 162 205 257 316 376
#
# _framework density 19.896815
#
# number of rings (size 3 to 8) (size 9 to 14) (size 15 to 20)
#    0.000    1.500    3.750    1.500    1.750    1.250 
#    0.000    0.625    0.000   29.625    0.000    0.000 
#    0.000    0.000    0.000    0.000    0.000    0.000 
#
# Total GULP energy -178368.552207 kJ/mol
# GULP energy per Si atom -5574.017256 kJ/mol
# Density = 1.985153 g / cm^3
# Si number density = 19.896815 Si / 1000 Ang^3
#
#
#
# Elastic Constant Matrix: (Units=GPa)
#
#
# Indices 1 2 3 4 5 6 
#
# 1 89.3054 55.7542 31.8552 0.0000 0.0000 0.0000
# 2 55.7542 89.3054 31.8552 0.0000 0.0000 0.0000
# 3 31.8552 31.8552 98.6250 0.0000 0.0000 0.0000
# 4 0.0000 0.0000 0.0000 23.1175 0.0000 0.0000
# 5 0.0000 0.0000 0.0000 0.0000 23.1175 0.0000
# 6 0.0000 0.0000 0.0000 0.0000 0.0000 27.6026
#
#
#
# Elastic Compliance Matrix: (Units=1/GPa)
#
#
# Indices 1 2 3 4 5 6 
#
# 1 0.018919 -0.010886 -0.002595 0.000000 0.000000 0.000000
# 2 -0.010886 0.018919 -0.002595 0.000000 0.000000 0.000000
# 3 -0.002595 -0.002595 0.011816 0.000000 0.000000 0.000000
# 4 0.000000 0.000000 0.000000 0.043257 0.000000 0.000000
# 5 0.000000 0.000000 0.000000 0.000000 0.043257 0.000000
# 6 0.000000 0.000000 0.000000 0.000000 0.000000 0.036229
#
#
# Mechanical properties :
#
#
# Convention : Reuss Voigt Hill
#
# Bulk Modulus (GPa) = 57.13184 57.35166 57.24175
# Shear Modulus (GPa) = 23.76623 25.28557 24.52590
#
# Velocity S-wave (km/s) = 3.45987 3.56874 3.51473
# Velocity P-wave (km/s) = 6.68859 6.77262 6.73074
#
# Compressibility (1/GPa) = 0.01750337
#
# Stress axis : x y z
#
# Youngs Moduli (GPa) = 52.85615 52.85615 84.63410
#
# Poissons Ratio (x) = 0.57539 0.21960
# Poissons Ratio (y) = 0.57539 0.21960
# Poissons Ratio (z) = 0.13715 0.13715
#
# Static dielectric constant tensor:
#      x y z
#    x 1.681430 0.000000 0.000000 
#    y 0.000000 1.681430 0.000000 
#    z 0.000000 0.000000 1.734850 
# 
# From -- ./inp_files/2553.got.cif
#   From: 2010.05.17/outbox.cif.g08.bks.cpg/sg115_2_cif.got.tgz:2553.got - 2010.05.20 11:07:42.
