data_PCOD9557556
_publ_section_title
;
Structure prediction by ZEFSAII (Michael W. Deem and Ramdas Pophale) SiO2 
 PCOD9557556
Probable space group: P -4 C 2
;
_chemical_formula_sum "Si O2"
_cell_formula_units_Z 64
_cell_length_a 26.446435
_cell_length_b 26.446435
_cell_length_c 5.500953
_cell_angle_alpha 90.000000
_cell_angle_beta 90.000000
_cell_angle_gamma 90.000000
_cell_volume 3847.443125
_symmetry_space_group_name_H-M "P -4 C 2"
_symmetry_group_IT_number 116
_symmetry_cell_setting 'tetragonal'
loop_
_space_group_symop_operation_xyz
x,y,z
y,-x,-z
-x,-y,z
-y,x,-z
y,x,1/2-z
-y,-x,1/2-z
-x,y,1/2+z
x,-y,1/2+z
loop_
_atom_site_type_symbol
_atom_site_label
_atom_site_fract_x
_atom_site_fract_y
_atom_site_fract_z
Si Si1 0.361380 0.067478 0.775743
Si Si2 0.926872 0.526002 0.869273
Si Si3 0.169249 0.368596 0.417440
Si Si4 0.113117 0.708998 0.610966
Si Si5 0.285593 0.751790 0.497579
Si Si6 0.176862 0.195086 0.997078
Si Si7 0.187930 0.514059 0.855821
Si Si8 0.722038 0.025275 0.561120
O O1 0.416406 0.056689 0.670383
O O2 0.318518 0.073802 0.568526
O O3 0.366713 0.122954 0.894644
O O4 0.338350 0.031284 0.986513
O O5 0.943452 0.494603 0.631322
O O6 0.865409 0.517529 0.867050
O O7 0.150357 0.335481 0.190591
O O8 0.217289 0.337544 0.510301
O O9 0.177256 0.426444 0.350427
O O10 0.144951 0.753403 0.493625
O O11 0.082898 0.730447 0.845425
O O12 0.279231 0.720770 0.250000
O O13 0.237064 0.790460 0.499518
O O14 0.278703 0.721298 0.750000
O O15 0.167403 0.167403 0.250000
O O16 0.166188 0.166188 0.750000
O O17 0.214586 0.498039 0.608918
O O18 0.741396 0.004974 0.300931
#
# Coordination Sequence:
#
# PCOD9557556 Si02
#       8
#     8   8   8   8   8   8   8   8
#     4  11  21  32  57  69  85 114 153 184 255 298
#     4  10  19  32  45  69  89 102 137 198 232 297
#     4  11  20  29  50  73  91 128 150 186 252 300
#     4  11  21  33  56  73  91 132 153 185 260 301
#     4  10  19  31  42  64 102 119 146 182 216 289
#     4  10  19  32  45  71 105 118 147 187 219 296
#     4  10  19  31  43  65  94 109 150 200 231 285
#     4  11  24  40  51  72  91 112 160 208 237 302
#
# _framework density 16.634423000000002
#
# number of rings (size 3 to 8) (size 9 to 14) (size 15 to 20)
#    0.000    1.500    6.250    3.000    3.500    0.000 
#    0.000    0.000    0.000    2.250    0.000    0.000 
#    0.000    0.000    0.000    0.000    0.000    0.000 
#
# Total GULP energy -356599.894964 kJ/mol
# GULP energy per Si atom -5571.873359 kJ/mol
# Density = 1.659656 g / cm^3
# Si number density = 16.634423 Si / 1000 Ang^3
#
#
#
# Elastic Constant Matrix: (Units=GPa)
#
#
# Indices 1 2 3 4 5 6 
#
# 1 32.1937 26.3729 19.2967 0.0000 0.0000 0.0000
# 2 26.3729 32.1930 19.2968 0.0000 0.0000 0.0000
# 3 19.2967 19.2968 143.1276 0.0000 0.0000 0.0000
# 4 0.0000 0.0000 0.0000 27.8162 0.0000 0.0000
# 5 0.0000 0.0000 0.0000 0.0000 27.8164 0.0000
# 6 0.0000 0.0000 0.0000 0.0000 0.0000 12.5918
#
#
#
# Elastic Compliance Matrix: (Units=1/GPa)
#
#
# Indices 1 2 3 4 5 6 
#
# 1 0.095273 -0.076534 -0.002526 0.000000 0.000000 0.000000
# 2 -0.076534 0.095275 -0.002527 0.000000 0.000000 0.000000
# 3 -0.002526 -0.002527 0.007668 0.000000 0.000000 0.000000
# 4 0.000000 0.000000 0.000000 0.035950 0.000000 0.000000
# 5 0.000000 0.000000 0.000000 0.000000 0.035950 0.000000
# 6 0.000000 0.000000 0.000000 0.000000 0.000000 0.079416
#
#
# Mechanical properties :
#
#
# Convention : Reuss Voigt Hill
#
# Bulk Modulus (GPa) = 28.53785 37.49411 33.01598
# Shear Modulus (GPa) = 9.53494 23.14807 16.34151
#
# Velocity S-wave (km/s) = 2.39677 3.73443 3.13771
# Velocity P-wave (km/s) = 4.98523 6.41745 5.74613
#
# Compressibility (1/GPa) = 0.03504119
#
# Stress axis : x y z
#
# Youngs Moduli (GPa) = 10.49620 10.49594 130.41156
#
# Poissons Ratio (x) = 0.80330 0.32946
# Poissons Ratio (y) = 0.80332 0.32951
# Poissons Ratio (z) = 0.02652 0.02652
#
# Static dielectric constant tensor:
#      x y z
#    x 1.558560 0.000000 0.000000 
#    y 0.000000 1.558560 0.000000 
#    z 0.000000 0.000000 1.699710 
# 
# From -- ./inp_files/291.got.cif
#   From: 2010.05.17/outbox.cif.g08.bks.cpg/sg116_1_cif.got.tgz:291.got - 2010.05.20 11:11:43.
