data_PCOD9557349
_publ_section_title
;
Structure prediction by ZEFSAII (Michael W. Deem and Ramdas Pophale) SiO2 
 PCOD9557349
Probable space group: P -4 M 2
;
_chemical_formula_sum "Si O2"
_cell_formula_units_Z 40
_cell_length_a 15.303559
_cell_length_b 15.303559
_cell_length_c 8.564762
_cell_angle_alpha 90.000000
_cell_angle_beta 90.000000
_cell_angle_gamma 90.000000
_cell_volume 2005.857994
_symmetry_space_group_name_H-M "P -4 M 2"
_symmetry_group_IT_number 115
_symmetry_cell_setting 'tetragonal'
loop_
_space_group_symop_operation_xyz
x,y,z
y,-x,-z
-x,-y,z
-y,x,-z
y,x,-z
-y,-x,-z
-x,y,z
x,-y,z
loop_
_atom_site_type_symbol
_atom_site_label
_atom_site_fract_x
_atom_site_fract_y
_atom_site_fract_z
Si Si1 0.594556 0.102870 0.875215
Si Si2 0.770030 0.098115 0.693346
Si Si3 0.340139 0.234648 0.117008
Si Si4 0.600353 0.605126 0.678727
Si Si5 0.245301 0.099935 0.319686
O O1 0.500000 0.108516 0.794527
O O2 0.677409 0.123613 0.767472
O O3 0.603306 0.000000 0.926677
O O4 0.597067 0.175489 0.010301
O O5 0.852989 0.156497 0.733928
O O6 0.756800 0.100042 0.506924
O O7 0.787997 0.000000 0.743737
O O8 0.367815 0.326260 0.196310
O O9 0.315326 0.167402 0.253455
O O10 0.261469 0.261469 0.000000
O O11 0.627784 0.627784 0.500000
O O12 0.500000 0.637037 0.708818
O O13 0.595999 0.500000 0.681048
O O14 0.255461 0.000000 0.266041
#
# Coordination Sequence:
#
# PCOD9557349 Si02
#       5
#     8   8   8   8   8
#     4  10  21  39  61  88 124 162 202 249 302 361
#     4   9  19  38  63  89 117 153 201 252 305 365
#     4  12  23  36  58  89 122 163 199 245 300 363
#     4   9  21  42  64  88 120 158 202 250 297 353
#     4  10  21  38  60  86 119 158 201 253 305 359
#
# _framework density 19.941592
#
# number of rings (size 3 to 8) (size 9 to 14) (size 15 to 20)
#    0.000    2.000    2.000    1.800    2.800    2.000 
#    0.000    5.000    0.000    4.800    0.000    0.000 
#    0.000    0.000    0.000    0.000    0.000    0.000 
#
# Total GULP energy -222770.068979 kJ/mol
# GULP energy per Si atom -5569.251724 kJ/mol
# Density = 1.989620 g / cm^3
# Si number density = 19.941592 Si / 1000 Ang^3
#
#
#
# Elastic Constant Matrix: (Units=GPa)
#
#
# Indices 1 2 3 4 5 6 
#
# 1 100.4880 35.2629 32.0722 0.0000 0.0000 0.0000
# 2 35.2629 100.4880 32.0722 0.0000 0.0000 0.0000
# 3 32.0722 32.0722 36.4266 0.0000 0.0000 0.0000
# 4 0.0000 0.0000 0.0000 27.0144 0.0000 0.0000
# 5 0.0000 0.0000 0.0000 0.0000 27.0144 0.0000
# 6 0.0000 0.0000 0.0000 0.0000 0.0000 25.1637
#
#
#
# Elastic Compliance Matrix: (Units=1/GPa)
#
#
# Indices 1 2 3 4 5 6 
#
# 1 0.013973 -0.001359 -0.011107 0.000000 0.000000 0.000000
# 2 -0.001359 0.013973 -0.011107 0.000000 0.000000 0.000000
# 3 -0.011107 -0.011107 0.047010 0.000000 0.000000 0.000000
# 4 0.000000 0.000000 0.000000 0.037017 0.000000 0.000000
# 5 0.000000 0.000000 0.000000 0.000000 0.037017 0.000000
# 6 0.000000 0.000000 0.000000 0.000000 0.000000 0.039740
#
#
# Mechanical properties :
#
#
# Convention : Reuss Voigt Hill
#
# Bulk Modulus (GPa) = 35.95440 48.46857 42.21148
# Shear Modulus (GPa) = 20.39611 25.03819 22.71715
#
# Velocity S-wave (km/s) = 3.20158 3.54726 3.37884
# Velocity P-wave (km/s) = 5.63346 6.41369 6.03619
#
# Compressibility (1/GPa) = 0.02781301
#
# Stress axis : x y z
#
# Youngs Moduli (GPa) = 71.56672 71.56672 21.27195
#
# Poissons Ratio (x) = 0.09723 0.23626
# Poissons Ratio (y) = 0.09723 0.23626
# Poissons Ratio (z) = 0.79486 0.79486
#
# Static dielectric constant tensor:
#      x y z
#    x 1.724060 0.000000 0.000000 
#    y 0.000000 1.724060 0.000000 
#    z 0.000000 0.000000 1.723740 
# 
# From -- ./inp_files/1613.got.cif
#   From: 2010.05.17/outbox.cif.g08.bks.cpg/sg115_1_cif.got.tgz:1613.got - 2010.05.20 11:07:42.
