data_PCOD9557375
_publ_section_title
;
Structure prediction by ZEFSAII (Michael W. Deem and Ramdas Pophale) SiO2 
 PCOD9557375
Probable space group: P -4 M 2
;
_chemical_formula_sum "Si O2"
_cell_formula_units_Z 48
_cell_length_a 14.263987
_cell_length_b 14.263987
_cell_length_c 11.196490
_cell_angle_alpha 90.000000
_cell_angle_beta 90.000000
_cell_angle_gamma 90.000000
_cell_volume 2278.052692
_symmetry_space_group_name_H-M "P -4 M 2"
_symmetry_group_IT_number 115
_symmetry_cell_setting 'tetragonal'
loop_
_space_group_symop_operation_xyz
x,y,z
y,-x,-z
-x,-y,z
-y,x,-z
y,x,-z
-y,-x,-z
-x,y,z
x,-y,z
loop_
_atom_site_type_symbol
_atom_site_label
_atom_site_fract_x
_atom_site_fract_y
_atom_site_fract_z
Si Si1 0.890799 0.252127 0.169988
Si Si2 0.104292 0.262918 0.750058
Si Si3 0.656010 0.602787 0.801740
Si Si4 0.396994 0.800154 0.416737
Si Si5 0.391516 0.837399 0.044801
Si Si6 0.601469 0.792349 0.690074
O O1 0.817413 0.168058 0.189843
O O2 0.866857 0.319217 0.280891
O O3 0.000000 0.225926 0.161441
O O4 0.862073 0.318378 0.058733
O O5 0.141725 0.306878 0.626415
O O6 0.108756 0.351830 0.839547
O O7 0.000000 0.227429 0.737236
O O8 0.608654 0.500000 0.813198
O O9 0.718343 0.598157 0.681215
O O10 0.729234 0.611011 0.910916
O O11 0.605641 0.701472 0.777412
O O12 0.500000 0.849199 0.409692
O O13 0.388980 0.764175 0.551736
O O14 0.500000 0.860327 0.017230
O O15 0.500000 0.836494 0.706850
#
# Coordination Sequence:
#
# PCOD9557375 Si02
#       6
#     8   8   8   8   8   8
#     4  12  26  42  60  86 128 169 206 261 324 378
#     4  11  23  40  67  93 118 160 214 269 314 362
#     4   9  18  35  62  91 122 163 206 248 296 365
#     4   9  19  37  62  92 126 161 201 252 311 373
#     4  10  21  40  65  92 123 159 203 250 305 372
#     4  11  22  37  62  93 129 167 203 250 314 381
#
# _framework density 21.070629
#
# number of rings (size 3 to 8) (size 9 to 14) (size 15 to 20)
#    0.000    1.667    3.333    3.500    0.000    4.667 
#    0.000    1.667    0.000    5.000    0.000    4.667 
#    0.000    0.000    0.000    0.000    0.000    0.000 
#
# Total GULP energy -267597.691011 kJ/mol
# GULP energy per Si atom -5574.951896 kJ/mol
# Density = 2.102267 g / cm^3
# Si number density = 21.070629 Si / 1000 Ang^3
#
#
#
# Elastic Constant Matrix: (Units=GPa)
#
#
# Indices 1 2 3 4 5 6 
#
# 1 114.8653 45.1274 19.4685 0.0000 0.0000 0.0000
# 2 45.1274 114.8653 19.4685 0.0000 0.0000 0.0000
# 3 19.4685 19.4685 51.2272 0.0000 0.0000 0.0000
# 4 0.0000 0.0000 0.0000 14.2142 0.0000 0.0000
# 5 0.0000 0.0000 0.0000 0.0000 14.2142 0.0000
# 6 0.0000 0.0000 0.0000 0.0000 0.0000 -3.1209
#
#
#
# Elastic Compliance Matrix: (Units=1/GPa)
#
#
# Indices 1 2 3 4 5 6 
#
# 1 0.010613 -0.003726 -0.002617 0.000000 0.000000 0.000000
# 2 -0.003726 0.010613 -0.002617 0.000000 0.000000 0.000000
# 3 -0.002617 -0.002617 0.021510 0.000000 0.000000 0.000000
# 4 0.000000 0.000000 0.000000 0.070352 0.000000 0.000000
# 5 0.000000 0.000000 0.000000 0.000000 0.070352 0.000000
# 6 0.000000 0.000000 0.000000 0.000000 0.000000 -0.320420
#
#
# Mechanical properties :
#
#
# Convention : Reuss Voigt Hill
#
# Bulk Modulus (GPa) = 40.29803 49.89850 45.09827
# Shear Modulus (GPa) = -45.13250 18.18775 -13.47238
#
# Velocity S-wave (km/s) = -4.63316 2.94118 -2.53136
# Velocity P-wave (km/s) = 3.07486 5.93860 3.59251
#
# Compressibility (1/GPa) = 0.02481511
#
# Stress axis : x y z
#
# Youngs Moduli (GPa) = 94.22106 94.22106 46.48924
#
# Poissons Ratio (x) = 0.35107 0.12168
# Poissons Ratio (y) = 0.35107 0.12168
# Poissons Ratio (z) = 0.24662 0.24662
#
# Static dielectric constant tensor:
#      x y z
#    x 1.794620 0.000000 0.000000 
#    y 0.000000 1.794620 0.000000 
#    z 0.000000 0.000000 1.796780 
# 
# From -- ./inp_files/2932.got.cif
#   From: 2010.05.17/outbox.cif.g08.bks.cpg/sg115_2_cif.got.tgz:2932.got - 2010.05.20 11:07:42.
