data_PCOD9557985
_publ_section_title
;
Structure prediction by ZEFSAII (Michael W. Deem and Ramdas Pophale) SiO2 
 PCOD9557985
Probable space group: P -4 C 2
;
_chemical_formula_sum "Si O2"
_cell_formula_units_Z 36
_cell_length_a 11.199885
_cell_length_b 11.199885
_cell_length_c 13.260489
_cell_angle_alpha 90.000000
_cell_angle_beta 90.000000
_cell_angle_gamma 90.000000
_cell_volume 1663.361581
_symmetry_space_group_name_H-M "P -4 C 2"
_symmetry_group_IT_number 116
_symmetry_cell_setting 'tetragonal'
loop_
_space_group_symop_operation_xyz
x,y,z
y,-x,-z
-x,-y,z
-y,x,-z
y,x,1/2-z
-y,-x,1/2-z
-x,y,1/2+z
x,-y,1/2+z
loop_
_atom_site_type_symbol
_atom_site_label
_atom_site_fract_x
_atom_site_fract_y
_atom_site_fract_z
Si Si1 0.791730 0.791730 0.750000
Si Si2 0.540568 0.138036 0.159737
Si Si3 0.314850 0.438544 0.017689
Si Si4 0.839062 0.894051 0.971950
Si Si5 0.714014 0.230629 0.651868
O O1 0.827425 0.653547 0.771402
O O2 0.825289 0.857760 0.855124
O O3 0.569457 0.198087 0.051629
O O4 0.419184 0.204286 0.186399
O O5 0.500000 0.000000 0.156777
O O6 0.364118 0.572864 0.029649
O O7 0.283902 0.367604 0.117681
O O8 0.743153 0.843003 0.051126
O O9 0.964387 0.843243 0.013283
O O10 0.794556 0.205444 0.750000
#
# Coordination Sequence:
#
# PCOD9557985 Si02
#       5
#     4   8   8   8   8
#     4  12  26  51  75 108 156 198 258 320 410 461
#     4  11  25  44  72 110 144 199 248 318 389 464
#     4   9  20  43  67  99 143 190 242 298 370 451
#     4  11  27  47  75 104 143 200 254 326 386 478
#     4  11  25  42  69 105 145 190 250 310 378 458
#
# _framework density 21.64292
#
# number of rings (size 3 to 8) (size 9 to 14) (size 15 to 20)
#    0.000    1.333    2.222    1.333    9.333    0.889 
#    0.000    2.222    0.000    0.000    0.000    0.000 
#    0.000    0.000    0.000    0.000    0.000    0.000 
#
# Total GULP energy -200794.449257 kJ/mol
# GULP energy per Si atom -5577.623590 kJ/mol
# Density = 2.159366 g / cm^3
# Si number density = 21.642920 Si / 1000 Ang^3
#
#
#
# Elastic Constant Matrix: (Units=GPa)
#
#
# Indices 1 2 3 4 5 6 
#
# 1 20.7299 103.8026 71.5906 0.0000 0.0000 0.0000
# 2 103.8026 20.7299 71.5906 0.0000 0.0000 0.0000
# 3 71.5906 71.5906 144.7379 0.0000 0.0000 0.0000
# 4 0.0000 0.0000 0.0000 36.5461 0.0000 0.0000
# 5 0.0000 0.0000 0.0000 0.0000 36.5461 0.0000
# 6 0.0000 0.0000 0.0000 0.0000 0.0000 12.5746
#
#
#
# Elastic Compliance Matrix: (Units=1/GPa)
#
#
# Indices 1 2 3 4 5 6 
#
# 1 0.003290 0.015328 -0.009209 0.000000 0.000000 0.000000
# 2 0.015328 0.003290 -0.009209 0.000000 0.000000 0.000000
# 3 -0.009209 -0.009209 0.016019 0.000000 0.000000 0.000000
# 4 0.000000 0.000000 0.000000 0.027363 0.000000 0.000000
# 5 0.000000 0.000000 0.000000 0.000000 0.027363 0.000000
# 6 0.000000 0.000000 0.000000 0.000000 0.000000 0.079525
#
#
# Mechanical properties :
#
#
# Convention : Reuss Voigt Hill
#
# Bulk Modulus (GPa) = 60.90402 75.57391 68.23896
# Shear Modulus (GPa) = 29.67319 13.08097 21.37708
#
# Velocity S-wave (km/s) = 3.70677 2.46112 3.14621
# Velocity P-wave (km/s) = 6.82068 6.56281 6.69299
#
# Compressibility (1/GPa) = 0.01641928
#
# Stress axis : x y z
#
# Youngs Moduli (GPa) = 303.94311 303.94311 62.42671
#
# Poissons Ratio (x) = -4.65876 0.57487
# Poissons Ratio (y) = -4.65876 0.57487
# Poissons Ratio (z) = 2.79895 2.79895
#
# Static dielectric constant tensor:
#      x y z
#    x 1.815280 0.000000 0.000000 
#    y 0.000000 1.815280 0.000000 
#    z 0.000000 0.000000 1.802090 
# 
# From -- ./inp_files/1697.got.cif
#   From: 2010.05.17/outbox.cif.g08.bks.cpg/sg116_1_cif.got.tgz:1697.got - 2010.05.20 11:11:43.
