data_PCOD9557125
_publ_section_title
;
Structure prediction by ZEFSAII (Michael W. Deem and Ramdas Pophale) SiO2 
 PCOD9557125
Probable space group: P -4 M 2
;
_chemical_formula_sum "Si O2"
_cell_formula_units_Z 40
_cell_length_a 15.148406
_cell_length_b 15.148406
_cell_length_c 6.804072
_cell_angle_alpha 90.000000
_cell_angle_beta 90.000000
_cell_angle_gamma 90.000000
_cell_volume 1561.359008
_symmetry_space_group_name_H-M "P -4 M 2"
_symmetry_group_IT_number 115
_symmetry_cell_setting 'tetragonal'
loop_
_space_group_symop_operation_xyz
x,y,z
y,-x,-z
-x,-y,z
-y,x,-z
y,x,-z
-y,-x,-z
-x,y,z
x,-y,z
loop_
_atom_site_type_symbol
_atom_site_label
_atom_site_fract_x
_atom_site_fract_y
_atom_site_fract_z
Si Si1 0.370068 0.831226 0.152780
Si Si2 0.594382 0.211398 0.692437
Si Si3 0.176635 0.787550 0.303399
Si Si4 0.000000 0.000000 0.000000
Si Si5 0.000000 0.000000 0.500000
Si Si6 0.000000 0.157381 0.164331
Si Si7 0.367660 0.404938 0.769096
Si Si8 0.000000 0.500000 0.774711
O O1 0.264433 0.821334 0.193599
O O2 0.403390 0.738845 0.246869
O O3 0.421669 0.919952 0.216366
O O4 0.392377 0.815841 0.921757
O O5 0.500000 0.173837 0.627735
O O6 0.688316 0.184639 0.608656
O O7 0.594187 0.316950 0.675162
O O8 0.158244 0.841756 0.500000
O O9 0.088187 0.788369 0.179907
O O10 0.000000 0.894356 0.958434
O O11 0.919654 0.000000 0.664572
O O12 0.400049 0.500000 0.706065
O O13 0.391726 0.391726 0.000000
#
# Coordination Sequence:
#
# PCOD9557125 Si02
#       8
#     8   8   8   1   1   4   8   2
#     4  10  21  37  62  95 132 176 219 281 347 400
#     4  10  21  41  61  95 138 175 222 283 352 407
#     4  11  25  45  70  95 137 191 228 286 352 421
#     4  10  28  38  72 114 120 150 236 310 336 414
#     4  10  20  46  72  86 132 170 220 278 344 422
#     4  11  24  46  71  98 132 176 228 293 351 408
#     4   9  15  28  52  81 119 157 206 257 320 389
#     4  12  20  36  68 102 136 170 226 280 342 436
#
# _framework density 25.618707000000001
#
# number of rings (size 3 to 8) (size 9 to 14) (size 15 to 20)
#    0.000    1.800    3.000    3.600    2.800    4.600 
#    1.800    0.000    0.000    0.000    0.000    0.000 
#    0.000    0.000    0.000    0.000    0.000    0.000 
#
# Total GULP energy -222677.891574 kJ/mol
# GULP energy per Si atom -5566.947289 kJ/mol
# Density = 2.556040 g / cm^3
# Si number density = 25.618707 Si / 1000 Ang^3
#
#
#
# Elastic Constant Matrix: (Units=GPa)
#
#
# Indices 1 2 3 4 5 6 
#
# 1 199.2532 81.1015 25.5252 0.0000 0.0000 0.0000
# 2 81.1015 199.2525 25.5255 0.0000 0.0000 0.0000
# 3 25.5252 25.5255 97.4578 0.0000 0.0000 0.0000
# 4 0.0000 0.0000 0.0000 22.8824 0.0000 0.0000
# 5 0.0000 0.0000 0.0000 0.0000 22.8824 0.0000
# 6 0.0000 0.0000 0.0000 0.0000 0.0000 4.7454
#
#
#
# Elastic Compliance Matrix: (Units=1/GPa)
#
#
# Indices 1 2 3 4 5 6 
#
# 1 0.006105 -0.002359 -0.000981 0.000000 0.000000 0.000000
# 2 -0.002359 0.006105 -0.000981 0.000000 0.000000 0.000000
# 3 -0.000981 -0.000981 0.010775 0.000000 0.000000 0.000000
# 4 0.000000 0.000000 0.000000 0.043702 0.000000 0.000000
# 5 0.000000 0.000000 0.000000 0.000000 0.043702 0.000000
# 6 0.000000 0.000000 0.000000 0.000000 0.000000 0.210728
#
#
# Mechanical properties :
#
#
# Convention : Reuss Voigt Hill
#
# Bulk Modulus (GPa) = 69.72623 84.47421 77.10022
# Shear Modulus (GPa) = 14.94597 34.35615 24.65106
#
# Velocity S-wave (km/s) = 2.41799 3.66602 3.10535
# Velocity P-wave (km/s) = 5.92213 7.13896 6.55882
#
# Compressibility (1/GPa) = 0.01434181
#
# Stress axis : x y z
#
# Youngs Moduli (GPa) = 163.81027 163.80965 92.80983
#
# Poissons Ratio (x) = 0.38644 0.09105
# Poissons Ratio (y) = 0.38644 0.09105
# Poissons Ratio (z) = 0.16070 0.16070
#
# Static dielectric constant tensor:
#      x y z
#    x 2.005070 0.000000 0.000000 
#    y 0.000000 2.005070 0.000000 
#    z 0.000000 0.000000 1.971050 
# 
# From -- ./inp_files/1705.got.cif
#   From: 2010.05.17/outbox.cif.g08.bks.cpg/sg115_1_cif.got.tgz:1705.got - 2010.05.20 11:07:42.
