data_PCOD9557315
_publ_section_title
;
Structure prediction by ZEFSAII (Michael W. Deem and Ramdas Pophale) SiO2 
 PCOD9557315
Probable space group: P -4 M 2
;
_chemical_formula_sum "Si O2"
_cell_formula_units_Z 44
_cell_length_a 9.241647
_cell_length_b 9.241647
_cell_length_c 28.716967
_cell_angle_alpha 90.000000
_cell_angle_beta 90.000000
_cell_angle_gamma 90.000000
_cell_volume 2452.659845
_symmetry_space_group_name_H-M "P -4 M 2"
_symmetry_group_IT_number 115
_symmetry_cell_setting 'tetragonal'
loop_
_space_group_symop_operation_xyz
x,y,z
y,-x,-z
-x,-y,z
-y,x,-z
y,x,-z
-y,-x,-z
-x,y,z
x,-y,z
loop_
_atom_site_type_symbol
_atom_site_label
_atom_site_fract_x
_atom_site_fract_y
_atom_site_fract_z
Si Si1 0.327195 0.671382 0.914607
Si Si2 0.671468 0.829016 0.818596
Si Si3 0.827905 0.828375 0.446172
Si Si4 0.829047 0.172935 0.722847
Si Si5 0.827919 0.827919 0.000000
Si Si6 0.327757 0.670774 0.362368
O O1 0.500000 0.693580 0.921753
O O2 0.299498 0.500000 0.915938
O O3 0.290485 0.737473 0.864180
O O4 0.240490 0.752467 0.954815
O O5 0.500000 0.809718 0.809351
O O6 0.760675 0.788321 0.772783
O O7 0.695580 0.000000 0.827985
O O8 0.793471 0.793471 0.500000
O O9 0.739043 0.737329 0.409227
O O10 0.000000 0.804989 0.439553
O O11 0.801557 0.000000 0.439328
O O12 0.750422 0.256101 0.681448
O O13 0.000000 0.201788 0.722259
O O14 0.807926 0.000000 0.716515
O O15 0.000000 0.802620 0.001735
O O16 0.500000 0.691667 0.361822
O O17 0.297002 0.500000 0.359903
#
# Coordination Sequence:
#
# PCOD9557315 Si02
#       6
#     8   8   8   8   4   8
#     4  10  21  37  58  84 113 145 181 222 270 325
#     4   9  18  34  56  81 111 147 183 220 266 321
#     4   9  19  37  60  84 109 139 178 223 270 323
#     4  10  21  37  58  83 110 142 182 227 272 321
#     4  11  24  39  56  80 110 145 186 231 274 318
#     4  11  24  38  53  78 112 147 183 225 271 320
#
# _framework density 17.939706000000001
#
# number of rings (size 3 to 8) (size 9 to 14) (size 15 to 20)
#    0.000    2.091    0.000    3.273    0.000   10.182 
#    0.000    6.364    0.000    0.000    0.000    0.000 
#    0.000    0.000    0.000    0.000    0.000    0.000 
#
# Total GULP energy -245805.293749 kJ/mol
# GULP energy per Si atom -5586.483949 kJ/mol
# Density = 1.789887 g / cm^3
# Si number density = 17.939706 Si / 1000 Ang^3
#
#
#
# Elastic Constant Matrix: (Units=GPa)
#
#
# Indices 1 2 3 4 5 6 
#
# 1 98.8369 92.5993 115.6240 0.0000 0.0000 0.0000
# 2 92.5993 98.8369 115.6240 0.0000 0.0000 0.0000
# 3 115.6240 115.6240 190.2895 0.0000 0.0000 0.0000
# 4 0.0000 0.0000 0.0000 47.4846 0.0000 0.0000
# 5 0.0000 0.0000 0.0000 0.0000 47.4845 0.0000
# 6 0.0000 0.0000 0.0000 0.0000 0.0000 29.5277
#
#
#
# Elastic Compliance Matrix: (Units=1/GPa)
#
#
# Indices 1 2 3 4 5 6 
#
# 1 0.089977 -0.070340 -0.011932 0.000000 0.000000 0.000000
# 2 -0.070340 0.089977 -0.011932 0.000000 0.000000 0.000000
# 3 -0.011932 -0.011932 0.019755 0.000000 0.000000 0.000000
# 4 0.000000 0.000000 0.000000 0.021059 0.000000 0.000000
# 5 0.000000 0.000000 0.000000 0.000000 0.021059 0.000000
# 6 0.000000 0.000000 0.000000 0.000000 0.000000 0.033867
#
#
# Mechanical properties :
#
#
# Convention : Reuss Voigt Hill
#
# Bulk Modulus (GPa) = 88.48192 115.07310 101.77751
# Shear Modulus (GPa) = 10.68674 29.17375 19.93024
#
# Velocity S-wave (km/s) = 2.44335 4.03701 3.33672
# Velocity P-wave (km/s) = 7.57554 9.27435 8.46765
#
# Compressibility (1/GPa) = 0.01130174
#
# Stress axis : x y z
#
# Youngs Moduli (GPa) = 11.11394 11.11394 50.61970
#
# Poissons Ratio (x) = 0.78176 0.60398
# Poissons Ratio (y) = 0.78176 0.60398
# Poissons Ratio (z) = 0.13261 0.13261
#
# Static dielectric constant tensor:
#      x y z
#    x 1.594670 0.000000 0.000000 
#    y 0.000000 1.594670 0.000000 
#    z 0.000000 0.000000 1.581500 
# 
# From -- ./inp_files/5834.got.cif
#   From: 2010.05.17/outbox.cif.g08.bks.cpg/sg115_3_cif.got.tgz:5834.got - 2010.05.20 11:07:42.
