data_PCOD9557436
_publ_section_title
;
Structure prediction by ZEFSAII (Michael W. Deem and Ramdas Pophale) SiO2 
 PCOD9557436
Probable space group: P -4 M 2
;
_chemical_formula_sum "Si O2"
_cell_formula_units_Z 56
_cell_length_a 14.533224
_cell_length_b 14.533224
_cell_length_c 12.055096
_cell_angle_alpha 90.000000
_cell_angle_beta 90.000000
_cell_angle_gamma 90.000000
_cell_volume 2546.212278
_symmetry_space_group_name_H-M "P -4 M 2"
_symmetry_group_IT_number 115
_symmetry_cell_setting 'tetragonal'
loop_
_space_group_symop_operation_xyz
x,y,z
y,-x,-z
-x,-y,z
-y,x,-z
y,x,-z
-y,-x,-z
-x,y,z
x,-y,z
loop_
_atom_site_type_symbol
_atom_site_label
_atom_site_fract_x
_atom_site_fract_y
_atom_site_fract_z
Si Si1 0.598676 0.208462 0.247281
Si Si2 0.106245 0.280776 0.159920
Si Si3 0.903011 0.766066 0.526185
Si Si4 0.101696 0.213536 0.771679
Si Si5 0.601987 0.751989 0.988225
Si Si6 0.864148 0.394690 0.384810
Si Si7 0.643777 0.601493 0.373629
O O1 0.500000 0.173946 0.290004
O O2 0.684926 0.141274 0.255520
O O3 0.615122 0.308821 0.302721
O O4 0.593073 0.217924 0.114970
O O5 0.153184 0.180143 0.170630
O O6 0.172897 0.339881 0.080127
O O7 0.107548 0.331875 0.279592
O O8 0.000000 0.276055 0.122810
O O9 0.802106 0.802106 0.500000
O O10 0.910089 0.815709 0.644936
O O11 0.895738 0.658309 0.495886
O O12 0.000000 0.793784 0.468845
O O13 0.000000 0.215001 0.824864
O O14 0.500000 0.742178 0.938436
O O15 0.657603 0.657603 0.000000
O O16 0.896042 0.500000 0.376762
O O17 0.753945 0.396630 0.380143
O O18 0.609466 0.609466 0.500000
O O19 0.615892 0.500000 0.329314
#
# Coordination Sequence:
#
# PCOD9557436 Si02
#       7
#     8   8   8   8   8   8   8
#     4  11  23  42  67  95 135 182 226 273 336 411
#     4  12  25  45  72 101 137 178 233 305 366 421
#     4  11  22  37  59  90 130 175 223 277 339 412
#     4  11  24  43  68  96 132 177 230 286 350 425
#     4  11  24  45  72 103 138 179 226 278 342 413
#     4  11  22  38  64  96 136 183 231 286 354 425
#     4  11  22  38  65 103 149 193 233 280 341 418
#
# _framework density 21.993452000000001
#
# number of rings (size 3 to 8) (size 9 to 14) (size 15 to 20)
#    0.000    0.857    4.286    2.571    0.000    7.857 
#    0.000    5.714    0.000    0.000    0.000    0.000 
#    0.000    0.000    0.000    0.000    0.000    0.000 
#
# Total GULP energy -312073.711025 kJ/mol
# GULP energy per Si atom -5572.744840 kJ/mol
# Density = 2.194339 g / cm^3
# Si number density = 21.993452 Si / 1000 Ang^3
#
#
#
# Elastic Constant Matrix: (Units=GPa)
#
#
# Indices 1 2 3 4 5 6 
#
# 1 169.9591 75.3013 21.3949 0.0000 0.0000 0.0000
# 2 75.3013 169.9591 21.3949 0.0000 0.0000 0.0000
# 3 21.3949 21.3949 67.1980 0.0000 0.0000 0.0000
# 4 0.0000 0.0000 0.0000 15.9310 0.0000 0.0000
# 5 0.0000 0.0000 0.0000 0.0000 15.9310 0.0000
# 6 0.0000 0.0000 0.0000 0.0000 0.0000 -44.0547
#
#
#
# Elastic Compliance Matrix: (Units=1/GPa)
#
#
# Indices 1 2 3 4 5 6 
#
# 1 0.007441 -0.003124 -0.001375 0.000000 0.000000 0.000000
# 2 -0.003124 0.007441 -0.001375 0.000000 0.000000 0.000000
# 3 -0.001375 -0.001375 0.015757 0.000000 0.000000 0.000000
# 4 0.000000 0.000000 0.000000 0.062771 0.000000 0.000000
# 5 0.000000 0.000000 0.000000 0.000000 0.062771 0.000000
# 6 0.000000 0.000000 0.000000 0.000000 0.000000 -0.022699
#
#
# Mechanical properties :
#
#
# Convention : Reuss Voigt Hill
#
# Bulk Modulus (GPa) = 52.93013 71.47761 62.20387
# Shear Modulus (GPa) = 32.99814 16.82979 24.91397
#
# Velocity S-wave (km/s) = 3.87765 2.76926 3.36935
# Velocity P-wave (km/s) = 6.64581 6.54180 6.59401
#
# Compressibility (1/GPa) = 0.01889283
#
# Stress axis : x y z
#
# Youngs Moduli (GPa) = 134.39532 134.39532 63.46531
#
# Poissons Ratio (x) = 0.41980 0.08723
# Poissons Ratio (y) = 0.41980 0.08723
# Poissons Ratio (z) = 0.18473 0.18473
#
# Static dielectric constant tensor:
#      x y z
#    x 1.915010 0.000000 0.000000 
#    y 0.000000 1.915010 0.000000 
#    z 0.000000 0.000000 2.258970 
# 
# From -- ./inp_files/3049.got.cif
#   From: 2010.05.17/outbox.cif.g08.bks.cpg/sg115_2_cif.got.tgz:3049.got - 2010.05.20 11:07:42.
