data_PCOD9557670
_publ_section_title
;
Structure prediction by ZEFSAII (Michael W. Deem and Ramdas Pophale) SiO2 
 PCOD9557670
Probable space group: P -4 C 2
;
_chemical_formula_sum "Si O2"
_cell_formula_units_Z 46
_cell_length_a 8.745727
_cell_length_b 8.745727
_cell_length_c 31.456805
_cell_angle_alpha 90.000000
_cell_angle_beta 90.000000
_cell_angle_gamma 90.000000
_cell_volume 2406.059946
_symmetry_space_group_name_H-M "P -4 C 2"
_symmetry_group_IT_number 116
_symmetry_cell_setting 'tetragonal'
loop_
_space_group_symop_operation_xyz
x,y,z
y,-x,-z
-x,-y,z
-y,x,-z
y,x,1/2-z
-y,-x,1/2-z
-x,y,1/2+z
x,-y,1/2+z
loop_
_atom_site_type_symbol
_atom_site_label
_atom_site_fract_x
_atom_site_fract_y
_atom_site_fract_z
Si Si1 0.500000 0.000000 0.951778
Si Si2 0.445434 0.259885 0.512296
Si Si3 0.172324 0.551445 0.389041
Si Si4 0.598626 0.362666 0.830300
Si Si5 0.000000 0.000000 0.250000
Si Si6 0.050816 0.330592 0.207032
Si Si7 0.657370 0.159429 0.374967
O O1 0.614896 0.913533 0.919913
O O2 0.412137 0.885254 0.982989
O O3 0.324529 0.392416 0.503660
O O4 0.458145 0.224407 0.561961
O O5 0.274393 0.443236 0.359151
O O6 0.199052 0.727617 0.376084
O O7 0.000000 0.500000 0.385330
O O8 0.500000 0.500000 0.809726
O O9 0.663135 0.233649 0.799205
O O10 0.482336 0.270118 0.860990
O O11 0.002819 0.169287 0.227838
O O12 0.000000 0.500000 0.225466
O O13 0.969526 0.327856 0.160729
#
# Coordination Sequence:
#
# PCOD9557670 Si02
#       7
#     4   8   8   8   2   8   8
#     4  12  18  36  58  80 116 166 210 260 314 370
#     4  11  23  33  52  80 121 162 211 270 317 357
#     4  11  22  35  54  95 122 161 223 266 314 382
#     4   9  19  38  66  91 120 161 218 260 311 383
#     4  12  28  48  74 106 136 170 216 262 352 414
#     4  10  23  48  68  98 132 169 211 264 330 408
#     4  10  20  39  65  84 117 166 210 260 314 380
#
# _framework density 19.118393000000001
#
# number of rings (size 3 to 8) (size 9 to 14) (size 15 to 20)
#    0.000    1.565    5.217    1.043    7.304    0.000 
#    9.391    0.000    0.000    2.609    0.000    0.000 
#    0.000    0.000    0.000    0.000    0.000    0.000 
#
# Total GULP energy -256512.654308 kJ/mol
# GULP energy per Si atom -5576.362050 kJ/mol
# Density = 1.907488 g / cm^3
# Si number density = 19.118393 Si / 1000 Ang^3
#
#
#
# Elastic Constant Matrix: (Units=GPa)
#
#
# Indices 1 2 3 4 5 6 
#
# 1 123.3084 44.2916 40.5376 0.0000 0.0000 0.0000
# 2 44.2916 123.3084 40.5376 0.0000 0.0000 0.0000
# 3 40.5376 40.5376 53.1701 0.0000 0.0000 0.0000
# 4 0.0000 0.0000 0.0000 -100.3094 0.0000 0.0000
# 5 0.0000 0.0000 0.0000 0.0000 -100.3094 0.0000
# 6 0.0000 0.0000 0.0000 0.0000 0.0000 30.2537
#
#
#
# Elastic Compliance Matrix: (Units=1/GPa)
#
#
# Indices 1 2 3 4 5 6 
#
# 1 0.011054 -0.001601 -0.007207 0.000000 0.000000 0.000000
# 2 -0.001601 0.011054 -0.007207 0.000000 0.000000 0.000000
# 3 -0.007207 -0.007207 0.029797 0.000000 0.000000 0.000000
# 4 0.000000 0.000000 0.000000 -0.009969 0.000000 0.000000
# 5 0.000000 0.000000 0.000000 0.000000 -0.009969 0.000000
# 6 0.000000 0.000000 0.000000 0.000000 0.000000 0.033054
#
#
# Mechanical properties :
#
#
# Convention : Reuss Voigt Hill
#
# Bulk Modulus (GPa) = 50.31510 61.16893 55.74201
# Shear Modulus (GPa) = 48.22678 -22.44501 12.89089
#
# Velocity S-wave (km/s) = 5.02793 -3.43009 2.59948
# Velocity P-wave (km/s) = 7.75123 4.04684 6.18298
#
# Compressibility (1/GPa) = 0.01987475
#
# Stress axis : x y z
#
# Youngs Moduli (GPa) = 90.46299 90.46299 33.56032
#
# Poissons Ratio (x) = 0.14486 0.24187
# Poissons Ratio (y) = 0.14486 0.24187
# Poissons Ratio (z) = 0.65197 0.65197
#
# Static dielectric constant tensor:
#      x y z
#    x 1.732240 0.000000 0.000000 
#    y 0.000000 1.732240 0.000000 
#    z 0.000000 0.000000 1.663720 
# 
# From -- ./inp_files/5194.got.cif
#   From: 2010.05.17/outbox.cif.g08.bks.cpg/sg116_3_cif.got.tgz:5194.got - 2010.05.20 11:11:43.
