data_PCOD9557129
_publ_section_title
;
Structure prediction by ZEFSAII (Michael W. Deem and Ramdas Pophale) SiO2 
 PCOD9557129
Probable space group: P -4 M 2
;
_chemical_formula_sum "Si O2"
_cell_formula_units_Z 45
_cell_length_a 8.460083
_cell_length_b 8.460083
_cell_length_c 32.344826
_cell_angle_alpha 90.000000
_cell_angle_beta 90.000000
_cell_angle_gamma 90.000000
_cell_volume 2315.016373
_symmetry_space_group_name_H-M "P -4 M 2"
_symmetry_group_IT_number 115
_symmetry_cell_setting 'tetragonal'
loop_
_space_group_symop_operation_xyz
x,y,z
y,-x,-z
-x,-y,z
-y,x,-z
y,x,-z
-y,-x,-z
-x,y,z
x,-y,z
loop_
_atom_site_type_symbol
_atom_site_label
_atom_site_fract_x
_atom_site_fract_y
_atom_site_fract_z
Si Si1 0.819460 0.690085 0.876006
Si Si2 0.322885 0.188882 0.702867
Si Si3 0.322331 0.814552 0.959614
Si Si4 0.809519 0.681223 0.787251
Si Si5 0.500000 0.194238 0.440497
Si Si6 0.811720 0.183143 0.613387
Si Si7 0.500000 0.500000 0.500000
O O1 0.824266 0.500000 0.872281
O O2 0.729921 0.731948 0.917544
O O3 0.753721 0.748714 0.831675
O O4 0.000000 0.747576 0.880738
O O5 0.500000 0.255064 0.702622
O O6 0.239661 0.236622 0.745199
O O7 0.238899 0.229543 0.659875
O O8 0.330623 0.000000 0.702812
O O9 0.500000 0.765537 0.970351
O O10 0.318656 0.000000 0.951270
O O11 0.220348 0.779653 0.000000
O O12 0.754889 0.500000 0.784137
O O13 0.000000 0.681305 0.789971
O O14 0.334503 0.225767 0.415593
O O15 0.500000 0.332069 0.475149
O O16 0.500000 0.000000 0.450490
O O17 0.000000 0.169983 0.612234
O O18 0.751020 0.000000 0.604357
#
# Coordination Sequence:
#
# PCOD9557129 Si02
#       7
#     8   8   8   8   4   8   1
#     4   9  19  37  58  79 105 139 181 226 274 332
#     4  10  21  34  51  81 117 153 194 243 295 345
#     4  11  24  39  56  80 106 133 170 219 274 332
#     4   9  19  35  54  77 108 148 189 230 278 336
#     4  10  24  44  66  98 132 168 218 268 316 383
#     4   9  19  38  63  89 121 164 210 258 314 370
#     4  12  28  44  68 104 132 172 220 260 332 388
#
# _framework density 19.438305
#
# number of rings (size 3 to 8) (size 9 to 14) (size 15 to 20)
#    0.000    2.311    0.000    2.667    2.489    7.467 
#    0.000    5.333    0.000    0.000    0.000    0.000 
#    0.000    0.000    0.000    0.000    0.000    0.000 
#
# Total GULP energy -250587.279526 kJ/mol
# GULP energy per Si atom -5568.606212 kJ/mol
# Density = 1.939406 g / cm^3
# Si number density = 19.438305 Si / 1000 Ang^3
#
#
#
# Elastic Constant Matrix: (Units=GPa)
#
#
# Indices 1 2 3 4 5 6 
#
# 1 37.1748 28.3400 46.3160 0.0000 0.0000 0.0000
# 2 28.3400 37.1734 46.3155 0.0000 0.0000 0.0000
# 3 46.3160 46.3155 132.7787 0.0000 0.0000 0.0000
# 4 0.0000 0.0000 0.0000 32.6113 0.0000 0.0000
# 5 0.0000 0.0000 0.0000 0.0000 32.6114 0.0000
# 6 0.0000 0.0000 0.0000 0.0000 0.0000 18.8311
#
#
#
# Elastic Compliance Matrix: (Units=1/GPa)
#
#
# Indices 1 2 3 4 5 6 
#
# 1 0.071656 -0.041540 -0.010505 0.000000 0.000000 0.000000
# 2 -0.041540 0.071660 -0.010506 0.000000 0.000000 0.000000
# 3 -0.010505 -0.010506 0.014861 0.000000 0.000000 0.000000
# 4 0.000000 0.000000 0.000000 0.030664 0.000000 0.000000
# 5 0.000000 0.000000 0.000000 0.000000 0.030664 0.000000
# 6 0.000000 0.000000 0.000000 0.000000 0.000000 0.053104
#
#
# Mechanical properties :
#
#
# Convention : Reuss Voigt Hill
#
# Bulk Modulus (GPa) = 30.23543 49.89665 40.06604
# Shear Modulus (GPa) = 12.23280 22.55445 17.39362
#
# Velocity S-wave (km/s) = 2.51133 3.41003 2.99459
# Velocity P-wave (km/s) = 4.89871 6.42101 5.71081
#
# Compressibility (1/GPa) = 0.03307378
#
# Stress axis : x y z
#
# Youngs Moduli (GPa) = 13.95548 13.95476 67.29212
#
# Poissons Ratio (x) = 0.57968 0.70693
# Poissons Ratio (y) = 0.57971 0.70699
# Poissons Ratio (z) = 0.14661 0.14661
#
# Static dielectric constant tensor:
#      x y z
#    x 1.701680 0.000000 0.000000 
#    y 0.000000 1.701680 0.000000 
#    z 0.000000 0.000000 1.688360 
# 
# From -- ./inp_files/5842.got.cif
#   From: 2010.05.17/outbox.cif.g08.bks.cpg/sg115_3_cif.got.tgz:5842.got - 2010.05.20 11:07:42.
