data_PCOD9557107
_publ_section_title
;
Structure prediction by ZEFSAII (Michael W. Deem and Ramdas Pophale) SiO2 
 PCOD9557107
Probable space group: P -4 M 2
;
_chemical_formula_sum "Si O2"
_cell_formula_units_Z 26
_cell_length_a 7.772181
_cell_length_b 7.772181
_cell_length_c 22.398544
_cell_angle_alpha 90.000000
_cell_angle_beta 90.000000
_cell_angle_gamma 90.000000
_cell_volume 1353.024312
_symmetry_space_group_name_H-M "P -4 M 2"
_symmetry_group_IT_number 115
_symmetry_cell_setting 'tetragonal'
loop_
_space_group_symop_operation_xyz
x,y,z
y,-x,-z
-x,-y,z
-y,x,-z
y,x,-z
-y,-x,-z
-x,y,z
x,-y,z
loop_
_atom_site_type_symbol
_atom_site_label
_atom_site_fract_x
_atom_site_fract_y
_atom_site_fract_z
Si Si1 0.695610 0.707217 0.310903
Si Si2 0.000000 0.686708 0.091046
Si Si3 0.000000 0.000000 0.000000
Si Si4 0.697610 0.797552 0.175620
Si Si5 0.000000 0.000000 0.500000
Si Si6 0.291886 0.000000 0.598388
O O1 0.500000 0.764606 0.324295
O O2 0.694883 0.500000 0.306599
O O3 0.743429 0.774755 0.245338
O O4 0.833212 0.751347 0.361257
O O5 0.833868 0.706403 0.133475
O O6 0.000000 0.500000 0.062060
O O7 0.000000 0.834757 0.042321
O O8 0.500000 0.736525 0.168690
O O9 0.703022 0.000000 0.161545
O O10 0.170761 0.000000 0.540960
O O11 0.500000 0.000000 0.586716
#
# Coordination Sequence:
#
# PCOD9557107 Si02
#       6
#     8   4   1   8   1   4
#     4   9  18  34  59  91 122 151 186 233 296 366
#     4  12  25  43  67  87 120 167 202 254 306 347
#     4  12  28  48  58  88 120 156 224 262 288 352
#     4  10  20  36  63  99 131 157 191 240 304 375
#     4  12  28  40  58  80 104 156 216 254 284 340
#     4  10  23  41  57  81 116 153 198 248 294 345
#
# _framework density 19.216213
#
# number of rings (size 3 to 8) (size 9 to 14) (size 15 to 20)
#    0.000    1.846    1.538    1.846    2.154    5.538 
#    0.000    0.000    0.000    0.000    0.000    0.000 
#    0.000    0.000    0.000    0.000    0.000    0.000 
#
# Total GULP energy -145264.868348 kJ/mol
# GULP energy per Si atom -5587.110321 kJ/mol
# Density = 1.917248 g / cm^3
# Si number density = 19.216213 Si / 1000 Ang^3
#
#
#
# Elastic Constant Matrix: (Units=GPa)
#
#
# Indices 1 2 3 4 5 6 
#
# 1 98.7833 48.3296 68.6424 0.0000 0.0000 0.0000
# 2 48.3296 98.7833 68.6424 0.0000 0.0000 0.0000
# 3 68.6424 68.6424 112.0775 0.0000 0.0000 0.0000
# 4 0.0000 0.0000 0.0000 -1.7411 0.0000 0.0000
# 5 0.0000 0.0000 0.0000 0.0000 -1.7411 0.0000
# 6 0.0000 0.0000 0.0000 0.0000 0.0000 -32.9162
#
#
#
# Elastic Compliance Matrix: (Units=1/GPa)
#
#
# Indices 1 2 3 4 5 6 
#
# 1 0.017843 -0.001978 -0.009717 0.000000 0.000000 0.000000
# 2 -0.001978 0.017843 -0.009717 0.000000 0.000000 0.000000
# 3 -0.009717 -0.009717 0.020824 0.000000 0.000000 0.000000
# 4 0.000000 0.000000 0.000000 -0.574341 0.000000 0.000000
# 5 0.000000 0.000000 0.000000 0.000000 -0.574341 0.000000
# 6 0.000000 0.000000 0.000000 0.000000 0.000000 -0.030380
#
#
# Mechanical properties :
#
#
# Convention : Reuss Voigt Hill
#
# Bulk Modulus (GPa) = 73.05701 75.65256 74.35478
# Shear Modulus (GPa) = -4.65044 0.98894 -1.83075
#
# Velocity S-wave (km/s) = -1.55734 0.71816 -0.97713
# Velocity P-wave (km/s) = 5.90485 6.33579 6.12411
#
# Compressibility (1/GPa) = 0.01368794
#
# Stress axis : x y z
#
# Youngs Moduli (GPa) = 56.04581 56.04581 48.02083
#
# Poissons Ratio (x) = 0.11084 0.46660
# Poissons Ratio (y) = 0.11084 0.46660
# Poissons Ratio (z) = 0.54457 0.54457
#
# Static dielectric constant tensor:
#      x y z
#    x 1.680590 0.000000 0.000000 
#    y 0.000000 1.680590 0.000000 
#    z 0.000000 0.000000 1.616120 
# 
# From -- ./inp_files/4080.got.cif
#   From: 2010.05.17/outbox.cif.g08.bks.cpg/sg115_3_cif.got.tgz:4080.got - 2010.05.20 11:07:42.
