data_PCOD9557327
_publ_section_title
;
Structure prediction by ZEFSAII (Michael W. Deem and Ramdas Pophale) SiO2 
 PCOD9557327
Probable space group: P -4 M 2
;
_chemical_formula_sum "Si O2"
_cell_formula_units_Z 48
_cell_length_a 9.051799
_cell_length_b 9.051799
_cell_length_c 32.223471
_cell_angle_alpha 90.000000
_cell_angle_beta 90.000000
_cell_angle_gamma 90.000000
_cell_volume 2640.232195
_symmetry_space_group_name_H-M "P -4 M 2"
_symmetry_group_IT_number 115
_symmetry_cell_setting 'tetragonal'
loop_
_space_group_symop_operation_xyz
x,y,z
y,-x,-z
-x,-y,z
-y,x,-z
y,x,-z
-y,-x,-z
-x,y,z
x,-y,z
loop_
_atom_site_type_symbol
_atom_site_label
_atom_site_fract_x
_atom_site_fract_y
_atom_site_fract_z
Si Si1 0.174728 0.675985 0.539373
Si Si2 0.824074 0.825105 0.294596
Si Si3 0.176823 0.178151 0.044579
Si Si4 0.325214 0.323187 0.626126
Si Si5 0.177460 0.177021 0.135648
Si Si6 0.675526 0.324761 0.214996
O O1 0.239934 0.760067 0.500000
O O2 0.199359 0.500000 0.533728
O O3 0.254889 0.720293 0.582042
O O4 0.000000 0.701193 0.543186
O O5 0.758870 0.751631 0.335888
O O6 0.750168 0.752673 0.254371
O O7 0.000000 0.803358 0.292858
O O8 0.793936 0.000000 0.295011
O O9 0.230471 0.228636 0.089757
O O10 0.000000 0.203971 0.044621
O O11 0.195544 0.000000 0.044346
O O12 0.234822 0.234822 0.000000
O O13 0.500000 0.294412 0.626016
O O14 0.303274 0.500000 0.631042
O O15 0.256982 0.258723 0.172949
O O16 0.000000 0.199566 0.138222
O O17 0.201702 0.000000 0.138781
O O18 0.500000 0.299466 0.216074
O O19 0.702460 0.500000 0.216913
#
# Coordination Sequence:
#
# PCOD9557327 Si02
#       6
#     8   8   8   8   8   8
#     4  10  21  37  58  84 114 150 190 230 273 318
#     4  11  24  40  59  84 111 138 172 216 266 319
#     4   7  10  19  39  69 102 131 160 201 254 307
#     4  10  21  38  61  87 114 146 184 223 265 317
#     4   9  17  30  51  79 106 132 168 214 262 312
#     4  11  24  39  54  74 102 138 179 218 259 312
#
# _framework density 18.180219000000001
#
# number of rings (size 3 to 8) (size 9 to 14) (size 15 to 20)
#    0.000    2.333    0.000    4.500    0.000    9.667 
#    0.000    0.000    0.000    1.000    0.000    5.833 
#    0.000    0.000    0.000    0.000    0.000    0.000 
#
# Total GULP energy -267831.056656 kJ/mol
# GULP energy per Si atom -5579.813680 kJ/mol
# Density = 1.813884 g / cm^3
# Si number density = 18.180219 Si / 1000 Ang^3
#
#
#
# Elastic Constant Matrix: (Units=GPa)
#
#
# Indices 1 2 3 4 5 6 
#
# 1 69.8780 72.8328 91.7807 0.0000 0.0000 0.0000
# 2 72.8328 69.8768 91.7786 0.0000 0.0000 0.0000
# 3 91.7807 91.7786 235.1381 0.0000 0.0000 0.0000
# 4 0.0000 0.0000 0.0000 71.0658 0.0000 0.0000
# 5 0.0000 0.0000 0.0000 0.0000 71.0637 0.0000
# 6 0.0000 0.0000 0.0000 0.0000 0.0000 26.9791
#
#
#
# Elastic Compliance Matrix: (Units=1/GPa)
#
#
# Indices 1 2 3 4 5 6 
#
# 1 -0.162150 0.176221 -0.005491 0.000000 0.000000 0.000000
# 2 0.176221 -0.162148 -0.005495 0.000000 0.000000 0.000000
# 3 -0.005491 -0.005495 0.008541 0.000000 0.000000 0.000000
# 4 0.000000 0.000000 0.000000 0.014071 0.000000 0.000000
# 5 0.000000 0.000000 0.000000 0.000000 0.014072 0.000000
# 6 0.000000 0.000000 0.000000 0.000000 0.000000 0.037066
#
#
# Mechanical properties :
#
#
# Convention : Reuss Voigt Hill
#
# Bulk Modulus (GPa) = 67.96169 98.63078 83.29624
# Shear Modulus (GPa) = -8.67882 41.72177 16.52147
#
# Velocity S-wave (km/s) = -2.18727 4.79571 3.01784
# Velocity P-wave (km/s) = 5.57535 9.22142 7.61968
#
# Compressibility (1/GPa) = 0.01471417
#
# Stress axis : x y z
#
# Youngs Moduli (GPa) = -6.16713 -6.16721 117.08760
#
# Poissons Ratio (x) = 1.08679 0.64290
# Poissons Ratio (y) = 1.08678 0.64334
# Poissons Ratio (z) = -0.03386 -0.03389
#
# Static dielectric constant tensor:
#      x y z
#    x 1.605830 0.000000 0.000000 
#    y 0.000000 1.605830 0.000000 
#    z 0.000000 0.000000 1.624230 
# 
# From -- ./inp_files/6101.got.cif
#   From: 2010.05.17/outbox.cif.g08.bks.cpg/sg115_4_cif.got.tgz:6101.got - 2010.05.20 11:07:42.
