data_PCOD9557222
_publ_section_title
;
Structure prediction by ZEFSAII (Michael W. Deem and Ramdas Pophale) SiO2 
 PCOD9557222
Probable space group: P -4 M 2
;
_chemical_formula_sum "Si O2"
_cell_formula_units_Z 48
_cell_length_a 9.301174
_cell_length_b 9.301174
_cell_length_c 32.171184
_cell_angle_alpha 90.000000
_cell_angle_beta 90.000000
_cell_angle_gamma 90.000000
_cell_volume 2783.188251
_symmetry_space_group_name_H-M "P -4 M 2"
_symmetry_group_IT_number 115
_symmetry_cell_setting 'tetragonal'
loop_
_space_group_symop_operation_xyz
x,y,z
y,-x,-z
-x,-y,z
-y,x,-z
y,x,-z
-y,-x,-z
-x,y,z
x,-y,z
loop_
_atom_site_type_symbol
_atom_site_label
_atom_site_fract_x
_atom_site_fract_y
_atom_site_fract_z
Si Si1 0.824700 0.665455 0.293858
Si Si2 0.330416 0.172251 0.871459
Si Si3 0.828665 0.670385 0.537431
Si Si4 0.824525 0.165608 0.211551
Si Si5 0.170996 0.170520 0.622613
Si Si6 0.675222 0.666317 0.954433
O O1 0.778779 0.500000 0.292941
O O2 0.776945 0.749818 0.252702
O O3 0.781992 0.743869 0.336408
O O4 0.000000 0.667235 0.293369
O O5 0.500000 0.204968 0.865747
O O6 0.243502 0.220668 0.830898
O O7 0.280138 0.244069 0.914314
O O8 0.317228 0.000000 0.874950
O O9 0.743369 0.743369 0.500000
O O10 0.803546 0.500000 0.538667
O O11 0.788757 0.742966 0.581324
O O12 0.000000 0.694680 0.531487
O O13 0.000000 0.168036 0.211761
O O14 0.779480 0.000000 0.212715
O O15 0.000000 0.188191 0.629746
O O16 0.197286 0.000000 0.615967
O O17 0.500000 0.668741 0.955768
O O18 0.718794 0.500000 0.949721
O O19 0.721407 0.721407 0.000000
#
# Coordination Sequence:
#
# PCOD9557222 Si02
#       6
#     8   8   8   8   8   8
#     4   9  16  26  43  68  94 119 152 194 233 270
#     4   9  16  26  42  64  87 110 140 180 222 262
#     4  10  21  36  54  76 102 133 168 204 243 288
#     4   9  16  26  41  62  90 121 149 180 224 275
#     4   9  17  30  49  72  97 124 154 191 237 285
#     4   8  14  26  44  63  83 111 146 180 216 262
#
# _framework density 17.246409
#
# number of rings (size 3 to 8) (size 9 to 14) (size 15 to 20)
#    0.000    3.000    0.000    2.000    0.000    5.667 
#    0.000    2.500    0.000    2.500    0.000    0.000 
#    0.000    0.000    0.000    0.000    0.000    0.000 
#
# Total GULP energy -267481.733401 kJ/mol
# GULP energy per Si atom -5572.536113 kJ/mol
# Density = 1.720716 g / cm^3
# Si number density = 17.246409 Si / 1000 Ang^3
#
#
#
# Elastic Constant Matrix: (Units=GPa)
#
#
# Indices 1 2 3 4 5 6 
#
# 1 49.3877 37.9197 78.5986 0.0000 0.0000 0.0000
# 2 37.9197 49.3877 78.5986 0.0000 0.0000 0.0000
# 3 78.5986 78.5986 225.1277 0.0000 0.0000 0.0000
# 4 0.0000 0.0000 0.0000 201.7062 0.0000 0.0000
# 5 0.0000 0.0000 0.0000 0.0000 201.7062 0.0000
# 6 0.0000 0.0000 0.0000 0.0000 0.0000 10.4506
#
#
#
# Elastic Compliance Matrix: (Units=1/GPa)
#
#
# Indices 1 2 3 4 5 6 
#
# 1 0.059020 -0.028179 -0.010767 0.000000 0.000000 0.000000
# 2 -0.028179 0.059020 -0.010767 0.000000 0.000000 0.000000
# 3 -0.010767 -0.010767 0.011960 0.000000 0.000000 0.000000
# 4 0.000000 0.000000 0.000000 0.004958 0.000000 0.000000
# 5 0.000000 0.000000 0.000000 0.000000 0.004958 0.000000
# 6 0.000000 0.000000 0.000000 0.000000 0.000000 0.095688
#
#
# Mechanical properties :
#
#
# Convention : Reuss Voigt Hill
#
# Bulk Modulus (GPa) = 32.70994 79.34855 56.02925
# Shear Modulus (GPa) = 14.48347 91.35836 52.92091
#
# Velocity S-wave (km/s) = 2.90107 7.28611 5.54543
# Velocity P-wave (km/s) = 5.49809 10.81165 8.57674
#
# Compressibility (1/GPa) = 0.03057174
#
# Stress axis : x y z
#
# Youngs Moduli (GPa) = 16.94354 16.94354 83.61064
#
# Poissons Ratio (x) = 0.47746 0.90025
# Poissons Ratio (y) = 0.47746 0.90025
# Poissons Ratio (z) = 0.18243 0.18243
#
# Static dielectric constant tensor:
#      x y z
#    x 1.576250 0.000000 0.000000 
#    y 0.000000 1.576250 0.000000 
#    z 0.000000 0.000000 1.575320 
# 
# From -- ./inp_files/6052.got.cif
#   From: 2010.05.17/outbox.cif.g08.bks.cpg/sg115_4_cif.got.tgz:6052.got - 2010.05.20 11:07:42.
