data_PCOD9557287
_publ_section_title
;
Structure prediction by ZEFSAII (Michael W. Deem and Ramdas Pophale) SiO2 
 PCOD9557287
Probable space group: P -4 M 2
;
_chemical_formula_sum "Si O2"
_cell_formula_units_Z 48
_cell_length_a 9.148142
_cell_length_b 9.148142
_cell_length_c 31.902452
_cell_angle_alpha 90.000000
_cell_angle_beta 90.000000
_cell_angle_gamma 90.000000
_cell_volume 2669.868420
_symmetry_space_group_name_H-M "P -4 M 2"
_symmetry_group_IT_number 115
_symmetry_cell_setting 'tetragonal'
loop_
_space_group_symop_operation_xyz
x,y,z
y,-x,-z
-x,-y,z
-y,x,-z
y,x,-z
-y,-x,-z
-x,y,z
x,-y,z
loop_
_atom_site_type_symbol
_atom_site_label
_atom_site_fract_x
_atom_site_fract_y
_atom_site_fract_z
Si Si1 0.827240 0.174991 0.126471
Si Si2 0.327136 0.825823 0.038974
Si Si3 0.321807 0.330583 0.454207
Si Si4 0.328978 0.824778 0.369394
Si Si5 0.172497 0.175562 0.283588
Si Si6 0.674491 0.327329 0.794964
O O1 0.753868 0.214169 0.082144
O O2 0.750370 0.257883 0.164428
O O3 0.000000 0.205936 0.125606
O O4 0.808728 0.000000 0.132366
O O5 0.500000 0.799219 0.042926
O O6 0.305068 0.000000 0.032383
O O7 0.260308 0.739692 0.000000
O O8 0.273796 0.273796 0.500000
O O9 0.500000 0.326505 0.455621
O O10 0.278815 0.500000 0.449936
O O11 0.276077 0.243546 0.413063
O O12 0.500000 0.784083 0.363456
O O13 0.237764 0.780147 0.328655
O O14 0.322036 0.000000 0.372699
O O15 0.255987 0.255410 0.246253
O O16 0.000000 0.205575 0.281466
O O17 0.192942 0.000000 0.279336
O O18 0.500000 0.308584 0.794407
O O19 0.707369 0.500000 0.796114
#
# Coordination Sequence:
#
# PCOD9557287 Si02
#       6
#     8   8   8   8   8   8
#     4  10  21  38  61  86 111 143 183 224 267 317
#     4  10  21  37  58  84 113 147 186 226 269 316
#     4   8  14  26  45  68  94 126 164 205 250 302
#     4   9  17  30  49  72  97 127 165 209 255 304
#     4  10  21  37  56  77 103 137 176 216 261 315
#     4  11  24  39  56  81 111 141 175 217 265 316
#
# _framework density 17.978413
#
# number of rings (size 3 to 8) (size 9 to 14) (size 15 to 20)
#    0.000    2.333    0.000    3.000    0.000    7.667 
#    0.000    2.500    0.000    1.000    0.000    0.000 
#    0.000    0.000    0.000    0.000    0.000    0.000 
#
# Total GULP energy -267927.754925 kJ/mol
# GULP energy per Si atom -5581.828228 kJ/mol
# Density = 1.793749 g / cm^3
# Si number density = 17.978413 Si / 1000 Ang^3
#
#
#
# Elastic Constant Matrix: (Units=GPa)
#
#
# Indices 1 2 3 4 5 6 
#
# 1 73.5605 64.2034 92.0553 0.0000 0.0000 0.0000
# 2 64.2034 73.5605 92.0568 0.0000 0.0000 0.0000
# 3 92.0553 92.0568 216.0767 0.0000 0.0000 0.0000
# 4 0.0000 0.0000 0.0000 35.7771 0.0000 0.0000
# 5 0.0000 0.0000 0.0000 0.0000 35.7771 0.0000
# 6 0.0000 0.0000 0.0000 0.0000 0.0000 23.3576
#
#
#
# Elastic Compliance Matrix: (Units=1/GPa)
#
#
# Indices 1 2 3 4 5 6 
#
# 1 0.061862 -0.045007 -0.007180 0.000000 0.000000 0.000000
# 2 -0.045007 0.061864 -0.007182 0.000000 0.000000 0.000000
# 3 -0.007180 -0.007182 0.010747 0.000000 0.000000 0.000000
# 4 0.000000 0.000000 0.000000 0.027951 0.000000 0.000000
# 5 0.000000 0.000000 0.000000 0.000000 0.027951 0.000000
# 6 0.000000 0.000000 0.000000 0.000000 0.000000 0.042813
#
#
# Mechanical properties :
#
#
# Convention : Reuss Voigt Hill
#
# Bulk Modulus (GPa) = 63.55666 95.53652 79.54659
# Shear Modulus (GPa) = 13.99889 26.64119 20.32004
#
# Velocity S-wave (km/s) = 2.79346 3.85365 3.36556
# Velocity P-wave (km/s) = 6.77000 8.54727 7.71002
#
# Compressibility (1/GPa) = 0.01573399
#
# Stress axis : x y z
#
# Youngs Moduli (GPa) = 16.16502 16.16442 93.05007
#
# Poissons Ratio (x) = 0.72751 0.66813
# Poissons Ratio (y) = 0.72754 0.66830
# Poissons Ratio (z) = 0.11607 0.11609
#
# Static dielectric constant tensor:
#      x y z
#    x 1.602400 0.000000 0.000000 
#    y 0.000000 1.602400 0.000000 
#    z 0.000000 0.000000 1.593840 
# 
# From -- ./inp_files/5979.got.cif
#   From: 2010.05.17/outbox.cif.g08.bks.cpg/sg115_3_cif.got.tgz:5979.got - 2010.05.20 11:07:42.
