data_PCOD9557960
_publ_section_title
;
Structure prediction by ZEFSAII (Michael W. Deem and Ramdas Pophale) SiO2 
 PCOD9557960
Probable space group: P -4 C 2
;
_chemical_formula_sum "Si O2"
_cell_formula_units_Z 40
_cell_length_a 9.236487
_cell_length_b 9.236487
_cell_length_c 20.788000
_cell_angle_alpha 90.000000
_cell_angle_beta 90.000000
_cell_angle_gamma 90.000000
_cell_volume 1773.480243
_symmetry_space_group_name_H-M "P -4 C 2"
_symmetry_group_IT_number 116
_symmetry_cell_setting 'tetragonal'
loop_
_space_group_symop_operation_xyz
x,y,z
y,-x,-z
-x,-y,z
-y,x,-z
y,x,1/2-z
-y,-x,1/2-z
-x,y,1/2+z
x,-y,1/2+z
loop_
_atom_site_type_symbol
_atom_site_label
_atom_site_fract_x
_atom_site_fract_y
_atom_site_fract_z
Si Si1 0.664284 0.448497 0.312945
Si Si2 0.285062 0.753288 0.851473
Si Si3 0.158758 0.032616 0.814986
Si Si4 0.208321 0.116357 0.016162
Si Si5 0.620320 0.214127 0.400674
O O1 0.500000 0.500000 0.315802
O O2 0.656573 0.343428 0.250000
O O3 0.743453 0.600893 0.315624
O O4 0.688103 0.367591 0.379755
O O5 0.180982 0.766426 0.913340
O O6 0.452100 0.779048 0.877369
O O7 0.240396 0.882806 0.805451
O O8 0.116398 0.116398 0.750000
O O9 0.274648 0.111659 0.859298
O O10 0.000000 0.000000 0.845682
O O11 0.344425 0.167579 0.972681
O O12 0.057004 0.185509 0.989365
#
# Coordination Sequence:
#
# PCOD9557960 Si02
#       5
#     8   8   8   8   8
#     4   9  21  42  68  98 138 176 232 295 354 402
#     4  11  24  44  70 104 138 187 237 290 360 423
#     4  11  24  43  67 101 141 186 229 282 355 424
#     4  11  24  43  68  96 146 181 227 290 355 425
#     4  11  23  43  70 101 137 184 233 290 349 414
#
# _framework density 22.554523
#
# number of rings (size 3 to 8) (size 9 to 14) (size 15 to 20)
#    0.000    1.400    2.000    2.400    2.800    7.200 
#    0.000    7.000    0.000    0.000    0.000    0.000 
#    0.000    0.000    0.000    0.000    0.000    0.000 
#
# Total GULP energy -222822.525132 kJ/mol
# GULP energy per Si atom -5570.563128 kJ/mol
# Density = 2.250319 g / cm^3
# Si number density = 22.554523 Si / 1000 Ang^3
#
#
#
# Elastic Constant Matrix: (Units=GPa)
#
#
# Indices 1 2 3 4 5 6 
#
# 1 89.6241 33.9372 26.8559 0.0000 0.0000 0.0000
# 2 33.9372 89.6244 26.8559 0.0000 0.0000 0.0000
# 3 26.8559 26.8559 100.8196 0.0000 0.0000 0.0000
# 4 0.0000 0.0000 0.0000 26.5133 0.0000 0.0000
# 5 0.0000 0.0000 0.0000 0.0000 26.5130 0.0000
# 6 0.0000 0.0000 0.0000 0.0000 0.0000 35.5468
#
#
#
# Elastic Compliance Matrix: (Units=1/GPa)
#
#
# Indices 1 2 3 4 5 6 
#
# 1 0.013555 -0.004402 -0.002438 0.000000 0.000000 0.000000
# 2 -0.004402 0.013555 -0.002438 0.000000 0.000000 0.000000
# 3 -0.002438 -0.002438 0.011218 0.000000 0.000000 0.000000
# 4 0.000000 0.000000 0.000000 0.037717 0.000000 0.000000
# 5 0.000000 0.000000 0.000000 0.000000 0.037717 0.000000
# 6 0.000000 0.000000 0.000000 0.000000 0.000000 0.028132
#
#
# Mechanical properties :
#
#
# Convention : Reuss Voigt Hill
#
# Bulk Modulus (GPa) = 50.57896 50.59623 50.58760
# Shear Modulus (GPa) = 29.93264 30.54256 30.23760
#
# Velocity S-wave (km/s) = 3.64692 3.68389 3.66545
# Velocity P-wave (km/s) = 6.34092 6.36995 6.35545
#
# Compressibility (1/GPa) = 0.01977107
#
# Stress axis : x y z
#
# Youngs Moduli (GPa) = 73.77206 73.77235 89.14539
#
# Poissons Ratio (x) = 0.32476 0.21735
# Poissons Ratio (y) = 0.32476 0.21735
# Poissons Ratio (z) = 0.17987 0.17987
#
# Static dielectric constant tensor:
#      x y z
#    x 1.935690 0.000000 0.000000 
#    y 0.000000 1.935690 0.000000 
#    z 0.000000 0.000000 1.996260 
# 
# From -- ./inp_files/4460.got.cif
#   From: 2010.05.17/outbox.cif.g08.bks.cpg/sg116_3_cif.got.tgz:4460.got - 2010.05.20 11:11:43.
