data_PCOD9557754
_publ_section_title
;
Structure prediction by ZEFSAII (Michael W. Deem and Ramdas Pophale) SiO2 
 PCOD9557754
Probable space group: P -4 C 2
;
_chemical_formula_sum "Si O2"
_cell_formula_units_Z 42
_cell_length_a 15.491400
_cell_length_b 15.491400
_cell_length_c 8.824295
_cell_angle_alpha 90.000000
_cell_angle_beta 90.000000
_cell_angle_gamma 90.000000
_cell_volume 2117.684969
_symmetry_space_group_name_H-M "P -4 C 2"
_symmetry_group_IT_number 116
_symmetry_cell_setting 'tetragonal'
loop_
_space_group_symop_operation_xyz
x,y,z
y,-x,-z
-x,-y,z
-y,x,-z
y,x,1/2-z
-y,-x,1/2-z
-x,y,1/2+z
x,-y,1/2+z
loop_
_atom_site_type_symbol
_atom_site_label
_atom_site_fract_x
_atom_site_fract_y
_atom_site_fract_z
Si Si1 0.430559 0.930800 0.344718
Si Si2 0.123525 0.264090 0.205494
Si Si3 0.440719 0.218829 0.352483
Si Si4 0.672969 0.568624 0.852915
Si Si5 0.030929 0.312051 0.915216
Si Si6 0.500000 0.500000 0.000000
O O1 0.486081 0.850306 0.399497
O O2 0.377769 0.977440 0.477247
O O3 0.500000 0.000000 0.285391
O O4 0.366481 0.912542 0.205188
O O5 0.191545 0.191545 0.250000
O O6 0.168991 0.358562 0.215905
O O7 0.040612 0.262926 0.315941
O O8 0.088640 0.258611 0.032807
O O9 0.491462 0.280677 0.237427
O O10 0.410734 0.272326 0.497990
O O11 0.651657 0.651657 0.750000
O O12 0.580405 0.534127 0.905494
#
# Coordination Sequence:
#
# PCOD9557754 Si02
#       6
#     8   8   8   8   8   2
#     4  11  20  37  66  98 132 170 213 258 336 412
#     4  11  25  41  68  98 133 163 209 275 339 392
#     4  12  25  38  65  96 128 165 230 281 331 388
#     4  12  27  41  60  82 123 186 239 281 317 374
#     4  10  21  41  67  96 135 174 209 255 334 410
#     4  12  26  48  58  68 122 200 250 260 310 364
#
# _framework density 19.832977
#
# number of rings (size 3 to 8) (size 9 to 14) (size 15 to 20)
#    0.000    0.762    5.714    3.143    2.667    1.524 
#    0.000    3.810    0.000    1.714    0.000    0.000 
#    0.000    0.000    0.000    0.000    0.000    0.000 
#
# Total GULP energy -234819.312895 kJ/mol
# GULP energy per Si atom -5590.936021 kJ/mol
# Density = 1.978784 g / cm^3
# Si number density = 19.832977 Si / 1000 Ang^3
#
#
#
# Elastic Constant Matrix: (Units=GPa)
#
#
# Indices 1 2 3 4 5 6 
#
# 1 61.6146 13.2939 16.5652 0.0000 0.0000 0.0000
# 2 13.2939 61.6146 16.5652 0.0000 0.0000 0.0000
# 3 16.5652 16.5652 75.3944 0.0000 0.0000 0.0000
# 4 0.0000 0.0000 0.0000 41.7899 0.0000 0.0000
# 5 0.0000 0.0000 0.0000 0.0000 41.7899 0.0000
# 6 0.0000 0.0000 0.0000 0.0000 0.0000 41.0444
#
#
#
# Elastic Compliance Matrix: (Units=1/GPa)
#
#
# Indices 1 2 3 4 5 6 
#
# 1 0.017741 -0.002954 -0.003249 0.000000 0.000000 0.000000
# 2 -0.002954 0.017741 -0.003249 0.000000 0.000000 0.000000
# 3 -0.003249 -0.003249 0.014691 0.000000 0.000000 0.000000
# 4 0.000000 0.000000 0.000000 0.023929 0.000000 0.000000
# 5 0.000000 0.000000 0.000000 0.000000 0.023929 0.000000
# 6 0.000000 0.000000 0.000000 0.000000 0.000000 0.024364
#
#
# Mechanical properties :
#
#
# Convention : Reuss Voigt Hill
#
# Bulk Modulus (GPa) = 31.98055 32.38578 32.18316
# Shear Modulus (GPa) = 32.95506 35.07146 34.01326
#
# Velocity S-wave (km/s) = 4.08073 4.20973 4.14573
# Velocity P-wave (km/s) = 6.19380 6.32406 6.25927
#
# Compressibility (1/GPa) = 0.03126901
#
# Stress axis : x y z
#
# Youngs Moduli (GPa) = 56.36737 56.36737 68.06801
#
# Poissons Ratio (x) = 0.16652 0.22114
# Poissons Ratio (y) = 0.16652 0.22114
# Poissons Ratio (z) = 0.18313 0.18313
#
# Static dielectric constant tensor:
#      x y z
#    x 1.699070 0.000000 0.000000 
#    y 0.000000 1.699070 0.000000 
#    z 0.000000 0.000000 1.736330 
# 
# From -- ./inp_files/863.got.cif
#   From: 2010.05.17/outbox.cif.g08.bks.cpg/sg116_1_cif.got.tgz:863.got - 2010.05.20 11:11:43.
