data_PCOD9557190
_publ_section_title
;
Structure prediction by ZEFSAII (Michael W. Deem and Ramdas Pophale) SiO2 
 PCOD9557190
Probable space group: P -4 M 2
;
_chemical_formula_sum "Si O2"
_cell_formula_units_Z 40
_cell_length_a 9.058013
_cell_length_b 9.058013
_cell_length_c 27.009762
_cell_angle_alpha 90.000000
_cell_angle_beta 90.000000
_cell_angle_gamma 90.000000
_cell_volume 2216.086135
_symmetry_space_group_name_H-M "P -4 M 2"
_symmetry_group_IT_number 115
_symmetry_cell_setting 'tetragonal'
loop_
_space_group_symop_operation_xyz
x,y,z
y,-x,-z
-x,-y,z
-y,x,-z
y,x,-z
-y,-x,-z
-x,y,z
x,-y,z
loop_
_atom_site_type_symbol
_atom_site_label
_atom_site_fract_x
_atom_site_fract_y
_atom_site_fract_z
Si Si1 0.678135 0.325342 0.838505
Si Si2 0.175097 0.324362 0.452531
Si Si3 0.827381 0.177030 0.255307
Si Si4 0.325371 0.823171 0.358080
Si Si5 0.675131 0.320762 0.946801
O O1 0.500000 0.311648 0.837586
O O2 0.712085 0.500000 0.833801
O O3 0.747578 0.238570 0.793213
O O4 0.732483 0.272873 0.893037
O O5 0.249097 0.249097 0.500000
O O6 0.198704 0.500000 0.454601
O O7 0.245582 0.258568 0.402869
O O8 0.000000 0.296113 0.452944
O O9 0.741198 0.221692 0.305053
O O10 0.000000 0.211882 0.260800
O O11 0.811969 0.000000 0.250404
O O12 0.500000 0.794748 0.359342
O O13 0.302787 0.000000 0.363493
O O14 0.500000 0.287731 0.946720
O O15 0.686868 0.500000 0.947095
O O16 0.734273 0.265728 0.000000
#
# Coordination Sequence:
#
# PCOD9557190 Si02
#       5
#     8   8   8   8   8
#     4   9  17  29  48  75 102 128 163 209 260 310
#     4  11  24  40  59  85 115 146 179 213 252 300
#     4  10  21  36  53  73 100 137 177 213 254 307
#     4  10  21  38  60  83 105 133 173 219 264 308
#     4   7  10  19  38  65  95 124 156 199 251 304
#
# _framework density 18.049841000000001
#
# number of rings (size 3 to 8) (size 9 to 14) (size 15 to 20)
#    0.000    2.600    0.000    4.200    0.000    7.600 
#    0.000    0.000    0.000    1.200    0.000    7.000 
#    0.000    0.000    0.000    0.000    0.000    0.000 
#
# Total GULP energy -223027.992894 kJ/mol
# GULP energy per Si atom -5575.699822 kJ/mol
# Density = 1.800876 g / cm^3
# Si number density = 18.049841 Si / 1000 Ang^3
#
#
#
# Elastic Constant Matrix: (Units=GPa)
#
#
# Indices 1 2 3 4 5 6 
#
# 1 55.7881 58.2630 77.1497 0.0000 0.0000 0.0000
# 2 58.2630 55.7882 77.1497 0.0000 0.0000 0.0000
# 3 77.1497 77.1497 222.9866 0.0000 0.0000 0.0000
# 4 0.0000 0.0000 0.0000 123.8476 0.0000 0.0000
# 5 0.0000 0.0000 0.0000 0.0000 123.8506 0.0000
# 6 0.0000 0.0000 0.0000 0.0000 0.0000 24.5175
#
#
#
# Elastic Compliance Matrix: (Units=1/GPa)
#
#
# Indices 1 2 3 4 5 6 
#
# 1 -0.193790 0.210273 -0.005703 0.000000 0.000000 0.000000
# 2 0.210273 -0.193789 -0.005703 0.000000 0.000000 0.000000
# 3 -0.005703 -0.005703 0.008431 0.000000 0.000000 0.000000
# 4 0.000000 0.000000 0.000000 0.008074 0.000000 0.000000
# 5 0.000000 0.000000 0.000000 0.000000 0.008074 0.000000
# 6 0.000000 0.000000 0.000000 0.000000 0.000000 0.040787
#
#
# Mechanical properties :
#
#
# Convention : Reuss Voigt Hill
#
# Bulk Modulus (GPa) = 53.80411 84.40974 69.10693
# Shear Modulus (GPa) = -7.00526 62.57650 27.78562
#
# Velocity S-wave (km/s) = -1.97218 5.89440 3.92775
# Velocity P-wave (km/s) = 4.96864 9.65358 7.67721
#
# Compressibility (1/GPa) = 0.01858594
#
# Stress axis : x y z
#
# Youngs Moduli (GPa) = -5.16024 -5.16026 118.61111
#
# Poissons Ratio (x) = 1.08506 0.67643
# Poissons Ratio (y) = 1.08506 0.67646
# Poissons Ratio (z) = -0.02943 -0.02943
#
# Static dielectric constant tensor:
#      x y z
#    x 1.601600 0.000000 0.000000 
#    y 0.000000 1.601600 0.000000 
#    z 0.000000 0.000000 1.628910 
# 
# From -- ./inp_files/5135.got.cif
#   From: 2010.05.17/outbox.cif.g08.bks.cpg/sg115_3_cif.got.tgz:5135.got - 2010.05.20 11:07:42.
