data_PCOD9557617
_publ_section_title
;
Structure prediction by ZEFSAII (Michael W. Deem and Ramdas Pophale) SiO2 
 PCOD9557617
Probable space group: P -4 C 2
;
_chemical_formula_sum "Si O2"
_cell_formula_units_Z 56
_cell_length_a 11.777900
_cell_length_b 11.777900
_cell_length_c 22.579506
_cell_angle_alpha 90.000000
_cell_angle_beta 90.000000
_cell_angle_gamma 90.000000
_cell_volume 3132.204876
_symmetry_space_group_name_H-M "P -4 C 2"
_symmetry_group_IT_number 116
_symmetry_cell_setting 'tetragonal'
loop_
_space_group_symop_operation_xyz
x,y,z
y,-x,-z
-x,-y,z
-y,x,-z
y,x,1/2-z
-y,-x,1/2-z
-x,y,1/2+z
x,-y,1/2+z
loop_
_atom_site_type_symbol
_atom_site_label
_atom_site_fract_x
_atom_site_fract_y
_atom_site_fract_z
Si Si1 0.166017 0.398633 0.326431
Si Si2 0.837667 0.334352 0.334092
Si Si3 0.636353 0.363648 0.250000
Si Si4 0.001612 0.867155 0.635069
Si Si5 0.376192 0.376192 0.250000
Si Si6 0.863570 0.210003 0.450480
Si Si7 0.234257 0.872075 0.566446
Si Si8 0.027840 0.224884 0.254981
O O1 0.134418 0.531601 0.326541
O O2 0.294449 0.367911 0.306918
O O3 0.139732 0.342167 0.390211
O O4 0.100609 0.333478 0.273635
O O5 0.716906 0.327295 0.303056
O O6 0.830209 0.303657 0.402547
O O7 0.925684 0.245070 0.302677
O O8 0.505623 0.353089 0.268341
O O9 0.127525 0.850578 0.609863
O O10 0.977419 0.783437 0.689463
O O11 0.910444 0.852287 0.583402
O O12 0.000000 0.000000 0.653868
O O13 0.789362 0.206809 0.509754
O O14 0.999137 0.225780 0.458281
O O15 0.117232 0.117232 0.250000
#
# Coordination Sequence:
#
# PCOD9557617 Si02
#       8
#     8   8   4   8   4   8   8   8
#     4  11  21  39  58  85 115 158 197 240 298 363
#     4  11  23  37  59  85 122 152 196 245 301 364
#     4   9  20  38  61  90 114 152 189 250 304 349
#     4  10  20  31  51  83 114 144 188 237 285 340
#     4   9  18  38  66  84 113 152 202 240 295 362
#     4  11  21  35  54  79 114 156 193 239 289 348
#     4  11  20  36  55  80 114 155 197 236 290 348
#     4  12  20  34  54  86 120 149 187 234 300 366
#
# _framework density 17.878779000000002
#
# number of rings (size 3 to 8) (size 9 to 14) (size 15 to 20)
#    0.000    1.286    5.000    2.143    0.000    1.429 
#    0.000    1.429    0.000    3.429    0.000    0.000 
#    0.000    0.000    0.000    0.000    0.000    0.000 
#
# Total GULP energy -311791.129368 kJ/mol
# GULP energy per Si atom -5567.698739 kJ/mol
# Density = 1.783809 g / cm^3
# Si number density = 17.878779 Si / 1000 Ang^3
#
#
#
# Elastic Constant Matrix: (Units=GPa)
#
#
# Indices 1 2 3 4 5 6 
#
# 1 62.3214 37.6643 41.3535 0.0000 0.0000 0.0000
# 2 37.6643 62.3228 41.3533 0.0000 0.0000 0.0000
# 3 41.3535 41.3533 119.1276 0.0000 0.0000 0.0000
# 4 0.0000 0.0000 0.0000 20.8061 0.0000 0.0000
# 5 0.0000 0.0000 0.0000 0.0000 20.8065 0.0000
# 6 0.0000 0.0000 0.0000 0.0000 0.0000 20.9109
#
#
#
# Elastic Compliance Matrix: (Units=1/GPa)
#
#
# Indices 1 2 3 4 5 6 
#
# 1 0.027293 -0.013263 -0.004870 0.000000 0.000000 0.000000
# 2 -0.013263 0.027292 -0.004870 0.000000 0.000000 0.000000
# 3 -0.004870 -0.004870 0.011776 0.000000 0.000000 0.000000
# 4 0.000000 0.000000 0.000000 0.048063 0.000000 0.000000
# 5 0.000000 0.000000 0.000000 0.000000 0.048062 0.000000
# 6 0.000000 0.000000 0.000000 0.000000 0.000000 0.047822
#
#
# Mechanical properties :
#
#
# Convention : Reuss Voigt Hill
#
# Bulk Modulus (GPa) = 49.12940 53.83490 51.48215
# Shear Modulus (GPa) = 19.00427 20.73140 19.86783
#
# Velocity S-wave (km/s) = 3.26383 3.40892 3.33716
# Velocity P-wave (km/s) = 6.46083 6.75801 6.61109
#
# Compressibility (1/GPa) = 0.02035441
#
# Stress axis : x y z
#
# Youngs Moduli (GPa) = 36.63948 36.64056 84.92087
#
# Poissons Ratio (x) = 0.48595 0.41360
# Poissons Ratio (y) = 0.48593 0.41358
# Poissons Ratio (z) = 0.17845 0.17844
#
# Static dielectric constant tensor:
#      x y z
#    x 1.662680 0.000000 0.000000 
#    y 0.000000 1.662680 0.000000 
#    z 0.000000 0.000000 1.632360 
# 
# From -- ./inp_files/4634.got.cif
#   From: 2010.05.17/outbox.cif.g08.bks.cpg/sg116_3_cif.got.tgz:4634.got - 2010.05.20 11:11:43.
