data_PCOD9557033
_publ_section_title
;
Structure prediction by ZEFSAII (Michael W. Deem and Ramdas Pophale) SiO2 
 PCOD9557033
Probable space group: P -4 M 2
;
_chemical_formula_sum "Si O2"
_cell_formula_units_Z 56
_cell_length_a 14.491498
_cell_length_b 14.491498
_cell_length_c 12.604004
_cell_angle_alpha 90.000000
_cell_angle_beta 90.000000
_cell_angle_gamma 90.000000
_cell_volume 2646.885134
_symmetry_space_group_name_H-M "P -4 M 2"
_symmetry_group_IT_number 115
_symmetry_cell_setting 'tetragonal'
loop_
_space_group_symop_operation_xyz
x,y,z
y,-x,-z
-x,-y,z
-y,x,-z
y,x,-z
-y,-x,-z
-x,y,z
x,-y,z
loop_
_atom_site_type_symbol
_atom_site_label
_atom_site_fract_x
_atom_site_fract_y
_atom_site_fract_z
Si Si1 0.603906 0.339503 0.108746
Si Si2 0.603808 0.867152 0.193315
Si Si3 0.607988 0.603380 0.335890
Si Si4 0.294431 0.792737 0.622929
Si Si5 0.606115 0.110251 0.817697
Si Si6 0.708139 0.107310 0.403685
Si Si7 0.741676 0.896818 0.009660
O O1 0.500000 0.363237 0.074925
O O2 0.604120 0.240328 0.164161
O O3 0.628884 0.401421 0.209306
O O4 0.659823 0.340178 0.000000
O O5 0.500000 0.900220 0.167406
O O6 0.628036 0.885178 0.315493
O O7 0.688381 0.901608 0.121668
O O8 0.500000 0.633434 0.346082
O O9 0.614999 0.500000 0.380847
O O10 0.687686 0.667540 0.383052
O O11 0.341352 0.838648 0.723826
O O12 0.318223 0.853090 0.519388
O O13 0.183313 0.784265 0.632639
O O14 0.500000 0.140320 0.826212
O O15 0.606747 0.000000 0.798582
O O16 0.661508 0.126820 0.925516
O O17 0.736578 0.000000 0.410044
O O18 0.776580 0.000000 0.984769
O O19 0.822097 0.822097 0.000000
#
# Coordination Sequence:
#
# PCOD9557033 Si02
#       7
#     8   8   8   8   8   8   8
#     4  10  20  34  56  89 132 180 227 265 308 377
#     4  11  23  39  62  94 133 171 214 264 325 398
#     4  10  21  38  61  93 134 178 223 268 323 399
#     4  11  23  43  70  96 130 170 221 278 340 405
#     4  10  22  41  67 102 138 172 216 270 333 404
#     4  11  25  44  67  92 124 169 220 277 334 396
#     4  11  24  42  65  93 129 173 223 280 342 400
#
# _framework density 21.156942999999998
#
# number of rings (size 3 to 8) (size 9 to 14) (size 15 to 20)
#    0.000    1.429    1.429    3.429    2.000    3.714 
#    0.000    4.286    0.000   11.571    0.000    0.000 
#    0.000    0.000    0.000    0.000    0.000    0.000 
#
# Total GULP energy -312791.834571 kJ/mol
# GULP energy per Si atom -5585.568474 kJ/mol
# Density = 2.110879 g / cm^3
# Si number density = 21.156943 Si / 1000 Ang^3
#
#
#
# Elastic Constant Matrix: (Units=GPa)
#
#
# Indices 1 2 3 4 5 6 
#
# 1 130.2613 65.5662 44.2351 0.0000 0.0000 0.0000
# 2 65.5662 130.2604 44.2361 0.0000 0.0000 0.0000
# 3 44.2351 44.2361 94.7379 0.0000 0.0000 0.0000
# 4 0.0000 0.0000 0.0000 25.4623 0.0000 0.0000
# 5 0.0000 0.0000 0.0000 0.0000 25.4621 0.0000
# 6 0.0000 0.0000 0.0000 0.0000 0.0000 19.7989
#
#
#
# Elastic Compliance Matrix: (Units=1/GPa)
#
#
# Indices 1 2 3 4 5 6 
#
# 1 0.010964 -0.004493 -0.003022 0.000000 0.000000 0.000000
# 2 -0.004493 0.010965 -0.003022 0.000000 0.000000 0.000000
# 3 -0.003022 -0.003022 0.013377 0.000000 0.000000 0.000000
# 4 0.000000 0.000000 0.000000 0.039274 0.000000 0.000000
# 5 0.000000 0.000000 0.000000 0.000000 0.039274 0.000000
# 6 0.000000 0.000000 0.000000 0.000000 0.000000 0.050508
#
#
# Mechanical properties :
#
#
# Convention : Reuss Voigt Hill
#
# Bulk Modulus (GPa) = 70.25648 73.70384 71.98016
# Shear Modulus (GPa) = 26.29095 27.55946 26.92521
#
# Velocity S-wave (km/s) = 3.52897 3.61310 3.57128
# Velocity P-wave (km/s) = 7.06287 7.23314 7.14851
#
# Compressibility (1/GPa) = 0.01423356
#
# Stress axis : x y z
#
# Youngs Moduli (GPa) = 91.20426 91.20263 74.75308
#
# Poissons Ratio (x) = 0.40975 0.22588
# Poissons Ratio (y) = 0.40976 0.22590
# Poissons Ratio (z) = 0.27559 0.27561
#
# Static dielectric constant tensor:
#      x y z
#    x 1.796010 0.000000 0.000000 
#    y 0.000000 1.796010 0.000000 
#    z 0.000000 0.000000 1.776770 
# 
# From -- ./inp_files/3074.got.cif
#   From: 2010.05.17/outbox.cif.g08.bks.cpg/sg115_2_cif.got.tgz:3074.got - 2010.05.20 11:07:42.
