data_PCOD9557524
_publ_section_title
;
Structure prediction by ZEFSAII (Michael W. Deem and Ramdas Pophale) SiO2 
 PCOD9557524
Probable space group: P -4 C 2
;
_chemical_formula_sum "Si O2"
_cell_formula_units_Z 36
_cell_length_a 13.587490
_cell_length_b 13.587490
_cell_length_c 9.440720
_cell_angle_alpha 90.000000
_cell_angle_beta 90.000000
_cell_angle_gamma 90.000000
_cell_volume 1742.944636
_symmetry_space_group_name_H-M "P -4 C 2"
_symmetry_group_IT_number 116
_symmetry_cell_setting 'tetragonal'
loop_
_space_group_symop_operation_xyz
x,y,z
y,-x,-z
-x,-y,z
-y,x,-z
y,x,1/2-z
-y,-x,1/2-z
-x,y,1/2+z
x,-y,1/2+z
loop_
_atom_site_type_symbol
_atom_site_label
_atom_site_fract_x
_atom_site_fract_y
_atom_site_fract_z
Si Si1 0.000000 0.000000 0.000000
Si Si2 0.827957 0.883654 0.607637
Si Si3 0.896001 0.776033 0.351999
Si Si4 0.392587 0.240882 0.178523
Si Si5 0.425143 0.695976 0.354468
Si Si6 0.500000 0.500000 0.000000
O O1 0.078289 0.059440 0.909902
O O2 0.823542 0.823542 0.750000
O O3 0.823394 0.807086 0.480619
O O4 0.771308 0.987893 0.612627
O O5 0.867668 0.867668 0.250000
O O6 0.856569 0.672761 0.295527
O O7 0.327873 0.327873 0.250000
O O8 0.496674 0.244015 0.259250
O O9 0.404005 0.255733 0.008543
O O10 0.336319 0.663682 0.250000
O O11 0.474296 0.592885 0.403291
#
# Coordination Sequence:
#
# PCOD9557524 Si02
#       6
#     2   8   8   8   8   2
#     4   8  14  24  48  78 110 136 180 242 302 348
#     4  10  17  31  54  82 109 148 194 242 299 341
#     4  10  21  33  53  85 122 151 192 252 302 352
#     4  11  21  35  52  87 121 151 191 243 298 358
#     4  12  20  33  56  83 118 153 192 239 304 362
#     4  12  18  28  58  80 106 144 182 236 294 356
#
# _framework density 20.654702
#
# number of rings (size 3 to 8) (size 9 to 14) (size 15 to 20)
#    0.000    1.333    4.444    4.667    0.000    0.889 
#    0.000    0.000    0.000    0.000    0.000   65.333 
#    0.000    0.000    0.000    0.000    0.000    0.000 
#
# Total GULP energy -200477.326637 kJ/mol
# GULP energy per Si atom -5568.814629 kJ/mol
# Density = 2.060769 g / cm^3
# Si number density = 20.654702 Si / 1000 Ang^3
#
#
#
# Elastic Constant Matrix: (Units=GPa)
#
#
# Indices 1 2 3 4 5 6 
#
# 1 61.4838 49.0409 14.5830 0.0000 0.0000 0.0000
# 2 49.0409 61.4822 14.5832 0.0000 0.0000 0.0000
# 3 14.5830 14.5832 119.1141 0.0000 0.0000 0.0000
# 4 0.0000 0.0000 0.0000 9.0096 0.0000 0.0000
# 5 0.0000 0.0000 0.0000 0.0000 9.0098 0.0000
# 6 0.0000 0.0000 0.0000 0.0000 0.0000 36.4643
#
#
#
# Elastic Compliance Matrix: (Units=1/GPa)
#
#
# Indices 1 2 3 4 5 6 
#
# 1 0.044860 -0.035511 -0.001145 0.000000 0.000000 0.000000
# 2 -0.035511 0.044862 -0.001145 0.000000 0.000000 0.000000
# 3 -0.001145 -0.001145 0.008676 0.000000 0.000000 0.000000
# 4 0.000000 0.000000 0.000000 0.110992 0.000000 0.000000
# 5 0.000000 0.000000 0.000000 0.000000 0.110990 0.000000
# 6 0.000000 0.000000 0.000000 0.000000 0.000000 0.027424
#
#
# Mechanical properties :
#
#
# Convention : Reuss Voigt Hill
#
# Bulk Modulus (GPa) = 43.86628 44.27718 44.07173
# Shear Modulus (GPa) = 11.60082 21.82162 16.71122
#
# Velocity S-wave (km/s) = 2.37250 3.25391 2.84751
# Velocity P-wave (km/s) = 5.36554 5.96662 5.67405
#
# Compressibility (1/GPa) = 0.02279656
#
# Stress axis : x y z
#
# Youngs Moduli (GPa) = 22.29139 22.29078 115.26572
#
# Poissons Ratio (x) = 0.79157 0.13193
# Poissons Ratio (y) = 0.79159 0.13196
# Poissons Ratio (z) = 0.02551 0.02552
#
# Static dielectric constant tensor:
#      x y z
#    x 1.739460 0.000000 0.000000 
#    y 0.000000 1.739470 0.000000 
#    z 0.000000 0.000000 2.088710 
# 
# From -- ./inp_files/733.got.cif
#   From: 2010.05.17/outbox.cif.g08.bks.cpg/sg116_1_cif.got.tgz:733.got - 2010.05.20 11:11:43.
