data_PCOD9557654
_publ_section_title
;
Structure prediction by ZEFSAII (Michael W. Deem and Ramdas Pophale) SiO2 
 PCOD9557654
Probable space group: P -4 C 2
;
_chemical_formula_sum "Si O2"
_cell_formula_units_Z 52
_cell_length_a 16.625512
_cell_length_b 16.625512
_cell_length_c 9.069036
_cell_angle_alpha 90.000000
_cell_angle_beta 90.000000
_cell_angle_gamma 90.000000
_cell_volume 2506.750922
_symmetry_space_group_name_H-M "P -4 C 2"
_symmetry_group_IT_number 116
_symmetry_cell_setting 'tetragonal'
loop_
_space_group_symop_operation_xyz
x,y,z
y,-x,-z
-x,-y,z
-y,x,-z
y,x,1/2-z
-y,-x,1/2-z
-x,y,1/2+z
x,-y,1/2+z
loop_
_atom_site_type_symbol
_atom_site_label
_atom_site_fract_x
_atom_site_fract_y
_atom_site_fract_z
Si Si1 0.722102 0.415661 0.741238
Si Si2 0.084391 0.786157 0.273669
Si Si3 0.017842 0.126901 0.033291
Si Si4 0.144444 0.383248 0.715831
Si Si5 0.449454 0.387403 0.496007
Si Si6 0.669903 0.330098 0.250000
Si Si7 0.488040 0.821589 0.011849
O O1 0.669481 0.330520 0.750000
O O2 0.663549 0.472551 0.646434
O O3 0.756513 0.458699 0.888212
O O4 0.792304 0.423230 0.614576
O O5 0.170046 0.829955 0.250000
O O6 0.089628 0.695003 0.223290
O O7 0.057639 0.801889 0.440201
O O8 0.021942 0.837419 0.177639
O O9 0.083300 0.056554 0.051036
O O10 0.237309 0.350701 0.712808
O O11 0.135527 0.436053 0.863432
O O12 0.133083 0.442861 0.578680
O O13 0.411998 0.468170 0.430440
O O14 0.386252 0.349284 0.608161
#
# Coordination Sequence:
#
# PCOD9557654 Si02
#       7
#     8   8   8   8   8   4   8
#     4  11  20  34  47  65  89 137 196 258 316 385
#     4  10  20  37  64 101 136 163 201 237 302 367
#     4   9  18  36  68 106 143 168 179 215 289 390
#     4  11  22  40  58  82 114 161 211 271 302 371
#     4  11  24  32  44  67 100 140 202 263 330 390
#     4  12  22  35  50  72 105 150 194 266 322 366
#     4  10  23  37  53  72 109 156 210 256 330 363
#
# _framework density 20.743983
#
# number of rings (size 3 to 8) (size 9 to 14) (size 15 to 20)
#    0.000    1.538    2.308    4.154    4.308    2.462 
#    0.000    3.077    0.000    4.615    0.000    0.000 
#    0.000    0.000    0.000    0.000    0.000    0.000 
#
# Total GULP energy -289525.735469 kJ/mol
# GULP energy per Si atom -5567.802605 kJ/mol
# Density = 2.069677 g / cm^3
# Si number density = 20.743983 Si / 1000 Ang^3
#
#
#
# Elastic Constant Matrix: (Units=GPa)
#
#
# Indices 1 2 3 4 5 6 
#
# 1 36.4538 23.3832 23.5525 0.0000 0.0000 0.0000
# 2 23.3832 36.4528 23.5520 0.0000 0.0000 0.0000
# 3 23.5525 23.5520 108.3136 0.0000 0.0000 0.0000
# 4 0.0000 0.0000 0.0000 6.7618 0.0000 0.0000
# 5 0.0000 0.0000 0.0000 0.0000 6.7619 0.0000
# 6 0.0000 0.0000 0.0000 0.0000 0.0000 23.0144
#
#
#
# Elastic Compliance Matrix: (Units=1/GPa)
#
#
# Indices 1 2 3 4 5 6 
#
# 1 0.048336 -0.028173 -0.004385 0.000000 0.000000 0.000000
# 2 -0.028173 0.048338 -0.004384 0.000000 0.000000 0.000000
# 3 -0.004385 -0.004384 0.011139 0.000000 0.000000 0.000000
# 4 0.000000 0.000000 0.000000 0.147889 0.000000 0.000000
# 5 0.000000 0.000000 0.000000 0.000000 0.147887 0.000000
# 6 0.000000 0.000000 0.000000 0.000000 0.000000 0.043451
#
#
# Mechanical properties :
#
#
# Convention : Reuss Voigt Hill
#
# Bulk Modulus (GPa) = 29.47353 35.79950 32.63651
# Shear Modulus (GPa) = 9.39435 14.68980 12.04208
#
# Velocity S-wave (km/s) = 2.13039 2.66399 2.41199
# Velocity P-wave (km/s) = 4.50449 5.17278 4.85016
#
# Compressibility (1/GPa) = 0.03392875
#
# Stress axis : x y z
#
# Youngs Moduli (GPa) = 20.68834 20.68777 89.77277
#
# Poissons Ratio (x) = 0.58284 0.39361
# Poissons Ratio (y) = 0.58286 0.39361
# Poissons Ratio (z) = 0.09071 0.09071
#
# Static dielectric constant tensor:
#      x y z
#    x 1.783230 0.000000 0.000000 
#    y 0.000000 1.783230 0.000000 
#    z 0.000000 0.000000 1.766910 
# 
# From -- ./inp_files/1022.got.cif
#   From: 2010.05.17/outbox.cif.g08.bks.cpg/sg116_1_cif.got.tgz:1022.got - 2010.05.20 11:11:43.
