data_PCOD9557049
_publ_section_title
;
Structure prediction by ZEFSAII (Michael W. Deem and Ramdas Pophale) SiO2 
 PCOD9557049
Probable space group: P -4 M 2
;
_chemical_formula_sum "Si O2"
_cell_formula_units_Z 48
_cell_length_a 8.212823
_cell_length_b 8.212823
_cell_length_c 35.110402
_cell_angle_alpha 90.000000
_cell_angle_beta 90.000000
_cell_angle_gamma 90.000000
_cell_volume 2368.212823
_symmetry_space_group_name_H-M "P -4 M 2"
_symmetry_group_IT_number 115
_symmetry_cell_setting 'tetragonal'
loop_
_space_group_symop_operation_xyz
x,y,z
y,-x,-z
-x,-y,z
-y,x,-z
y,x,-z
-y,-x,-z
-x,y,z
x,-y,z
loop_
_atom_site_type_symbol
_atom_site_label
_atom_site_fract_x
_atom_site_fract_y
_atom_site_fract_z
Si Si1 0.803872 0.186300 0.540941
Si Si2 0.805643 0.500000 0.744207
Si Si3 0.689552 0.812146 0.960864
Si Si4 0.316141 0.304407 0.378844
Si Si5 0.500000 0.200095 0.167962
Si Si6 0.807782 0.186782 0.878927
Si Si7 0.696829 0.178057 0.699592
O O1 0.745792 0.254209 0.500000
O O2 0.758576 0.277460 0.579248
O O3 0.000000 0.182736 0.537856
O O4 0.745088 0.000000 0.545098
O O5 0.749949 0.500000 0.788042
O O6 0.749387 0.335222 0.723325
O O7 0.000000 0.500000 0.744023
O O8 0.500000 0.803400 0.950968
O O9 0.784506 0.761839 0.923005
O O10 0.734104 0.000000 0.968538
O O11 0.719631 0.719631 0.000000
O O12 0.500000 0.258794 0.368260
O O13 0.305742 0.500000 0.380476
O O14 0.202227 0.248203 0.344330
O O15 0.333594 0.256775 0.147229
O O16 0.500000 0.000000 0.166266
O O17 0.000000 0.175386 0.871217
O O18 0.741135 0.000000 0.874552
O O19 0.500000 0.178320 0.699393
O O20 0.751947 0.000000 0.713717
#
# Coordination Sequence:
#
# PCOD9557049 Si02
#       7
#     8   4   8   8   4   8   8
#     4   9  19  35  52  73 106 146 186 229 281 344
#     4  11  23  39  61  93 127 153 191 251 307 367
#     4  10  21  35  52  78 112 147 186 235 285 337
#     4  10  20  35  56  80 108 143 187 238 286 342
#     4   9  20  37  59  85 113 151 193 237 297 357
#     4   9  18  35  58  80 107 148 196 239 281 343
#     4  10  21  40  64  86 116 159 201 243 296 363
#
# _framework density 20.268450999999999
#
# number of rings (size 3 to 8) (size 9 to 14) (size 15 to 20)
#    0.000    2.333    0.833    1.750    1.167    4.667 
#    0.000    5.833    0.000    2.000    0.000    0.000 
#    0.000    0.000    0.000    0.000    0.000    0.000 
#
# Total GULP energy -267701.788946 kJ/mol
# GULP energy per Si atom -5577.120603 kJ/mol
# Density = 2.022232 g / cm^3
# Si number density = 20.268451 Si / 1000 Ang^3
#
#
#
# Elastic Constant Matrix: (Units=GPa)
#
#
# Indices 1 2 3 4 5 6 
#
# 1 57.1658 31.4792 45.7636 0.0000 0.0000 0.0000
# 2 31.4792 57.1657 45.7636 0.0000 0.0000 0.0000
# 3 45.7636 45.7636 128.8782 0.0000 0.0000 0.0000
# 4 0.0000 0.0000 0.0000 27.7601 0.0000 0.0000
# 5 0.0000 0.0000 0.0000 0.0000 27.7600 0.0000
# 6 0.0000 0.0000 0.0000 0.0000 0.0000 15.7447
#
#
#
# Elastic Compliance Matrix: (Units=1/GPa)
#
#
# Indices 1 2 3 4 5 6 
#
# 1 0.028371 -0.010560 -0.006325 0.000000 0.000000 0.000000
# 2 -0.010560 0.028371 -0.006325 0.000000 0.000000 0.000000
# 3 -0.006325 -0.006325 0.012251 0.000000 0.000000 0.000000
# 4 0.000000 0.000000 0.000000 0.036023 0.000000 0.000000
# 5 0.000000 0.000000 0.000000 0.000000 0.036023 0.000000
# 6 0.000000 0.000000 0.000000 0.000000 0.000000 0.063513
#
#
# Mechanical properties :
#
#
# Convention : Reuss Voigt Hill
#
# Bulk Modulus (GPa) = 44.29707 54.35808 49.32758
# Shear Modulus (GPa) = 19.34270 22.26653 20.80462
#
# Velocity S-wave (km/s) = 3.09257 3.31808 3.20731
# Velocity P-wave (km/s) = 5.88682 6.44646 6.17298
#
# Compressibility (1/GPa) = 0.02257486
#
# Stress axis : x y z
#
# Youngs Moduli (GPa) = 35.24725 35.24714 81.62663
#
# Poissons Ratio (x) = 0.37220 0.51626
# Poissons Ratio (y) = 0.37221 0.51626
# Poissons Ratio (z) = 0.22292 0.22293
#
# Static dielectric constant tensor:
#      x y z
#    x 1.727200 0.000000 0.000000 
#    y 0.000000 1.727200 0.000000 
#    z 0.000000 0.000000 1.710450 
# 
# From -- ./inp_files/6164.got.cif
#   From: 2010.05.17/outbox.cif.g08.bks.cpg/sg115_4_cif.got.tgz:6164.got - 2010.05.20 11:07:42.
