data_PCOD9557073
_publ_section_title
;
Structure prediction by ZEFSAII (Michael W. Deem and Ramdas Pophale) SiO2 
 PCOD9557073
Probable space group: P -4 M 2
;
_chemical_formula_sum "Si O2"
_cell_formula_units_Z 29
_cell_length_a 8.414410
_cell_length_b 8.414410
_cell_length_c 21.568133
_cell_angle_alpha 90.000000
_cell_angle_beta 90.000000
_cell_angle_gamma 90.000000
_cell_volume 1527.073329
_symmetry_space_group_name_H-M "P -4 M 2"
_symmetry_group_IT_number 115
_symmetry_cell_setting 'tetragonal'
loop_
_space_group_symop_operation_xyz
x,y,z
y,-x,-z
-x,-y,z
-y,x,-z
y,x,-z
-y,-x,-z
-x,y,z
x,-y,z
loop_
_atom_site_type_symbol
_atom_site_label
_atom_site_fract_x
_atom_site_fract_y
_atom_site_fract_z
Si Si1 0.322434 0.500000 0.878712
Si Si2 0.684076 0.187625 0.436682
Si Si3 0.500000 0.500000 0.000000
Si Si4 0.811574 0.177386 0.820438
Si Si5 0.688326 0.686481 0.694945
O O1 0.500000 0.500000 0.850112
O O2 0.246863 0.666112 0.857376
O O3 0.352433 0.500000 0.952695
O O4 0.772003 0.227998 0.500000
O O5 0.500000 0.237332 0.444919
O O6 0.743983 0.270901 0.374217
O O7 0.688914 0.000000 0.425721
O O8 0.769007 0.213456 0.748984
O O9 0.000000 0.172650 0.827471
O O10 0.748608 0.000000 0.837740
O O11 0.500000 0.691413 0.703844
O O12 0.740179 0.500000 0.699581
#
# Coordination Sequence:
#
# PCOD9557073 Si02
#       5
#     4   8   1   8   8
#     4  10  21  43  68  96 129 168 215 258 304 369
#     4  10  21  36  54  76 108 153 202 257 320 382
#     4   8  24  44  72 100 128 172 218 240 308 356
#     4  11  23  38  62  97 135 173 212 264 326 382
#     4  10  20  35  58  87 116 155 208 265 322 382
#
# _framework density 18.990573999999999
#
# number of rings (size 3 to 8) (size 9 to 14) (size 15 to 20)
#    0.414    1.379    1.379    2.897    0.000    6.069 
#    0.000    2.759    0.000    1.655    0.000    0.000 
#    0.000    0.000    0.000    0.000    0.000    0.000 
#
# Total GULP energy -161742.202216 kJ/mol
# GULP energy per Si atom -5577.317318 kJ/mol
# Density = 1.894735 g / cm^3
# Si number density = 18.990574 Si / 1000 Ang^3
#
#
#
# Elastic Constant Matrix: (Units=GPa)
#
#
# Indices 1 2 3 4 5 6 
#
# 1 86.4543 43.0369 39.6016 0.0000 0.0000 0.0000
# 2 43.0369 86.4550 39.6025 0.0000 0.0000 0.0000
# 3 39.6016 39.6025 108.8450 0.0000 0.0000 0.0000
# 4 0.0000 0.0000 0.0000 117.2641 0.0000 0.0000
# 5 0.0000 0.0000 0.0000 0.0000 117.2544 0.0000
# 6 0.0000 0.0000 0.0000 0.0000 0.0000 21.8557
#
#
#
# Elastic Compliance Matrix: (Units=1/GPa)
#
#
# Indices 1 2 3 4 5 6 
#
# 1 0.016483 -0.006550 -0.003614 0.000000 0.000000 0.000000
# 2 -0.006550 0.016483 -0.003614 0.000000 0.000000 0.000000
# 3 -0.003614 -0.003614 0.011817 0.000000 0.000000 0.000000
# 4 0.000000 0.000000 0.000000 0.008528 0.000000 0.000000
# 5 0.000000 0.000000 0.000000 0.000000 0.008528 0.000000
# 6 0.000000 0.000000 0.000000 0.000000 0.000000 0.045755
#
#
# Mechanical properties :
#
#
# Convention : Reuss Voigt Hill
#
# Bulk Modulus (GPa) = 58.04772 58.47070 58.25921
# Shear Modulus (GPa) = 35.48848 61.90905 48.69877
#
# Velocity S-wave (km/s) = 4.32758 5.71582 5.06945
# Velocity P-wave (km/s) = 7.45678 8.62653 8.06290
#
# Compressibility (1/GPa) = 0.01722721
#
# Stress axis : x y z
#
# Youngs Moduli (GPa) = 60.67012 60.67019 84.62226
#
# Poissons Ratio (x) = 0.39736 0.30582
# Poissons Ratio (y) = 0.39736 0.30583
# Poissons Ratio (z) = 0.21926 0.21927
#
# Static dielectric constant tensor:
#      x y z
#    x 1.665270 0.000000 0.000000 
#    y 0.000000 1.665270 0.000000 
#    z 0.000000 0.000000 1.647190 
# 
# From -- ./inp_files/4607.got.cif
#   From: 2010.05.17/outbox.cif.g08.bks.cpg/sg115_3_cif.got.tgz:4607.got - 2010.05.20 11:07:42.
