data_PCOD9557150
_publ_section_title
;
Structure prediction by ZEFSAII (Michael W. Deem and Ramdas Pophale) SiO2 
 PCOD9557150
Probable space group: P -4 M 2
;
_chemical_formula_sum "Si O2"
_cell_formula_units_Z 48
_cell_length_a 9.450877
_cell_length_b 9.450877
_cell_length_c 31.818998
_cell_angle_alpha 90.000000
_cell_angle_beta 90.000000
_cell_angle_gamma 90.000000
_cell_volume 2842.043503
_symmetry_space_group_name_H-M "P -4 M 2"
_symmetry_group_IT_number 115
_symmetry_cell_setting 'tetragonal'
loop_
_space_group_symop_operation_xyz
x,y,z
y,-x,-z
-x,-y,z
-y,x,-z
y,x,-z
-y,-x,-z
-x,y,z
x,-y,z
loop_
_atom_site_type_symbol
_atom_site_label
_atom_site_fract_x
_atom_site_fract_y
_atom_site_fract_z
Si Si1 0.331352 0.833178 0.795436
Si Si2 0.172540 0.163450 0.546568
Si Si3 0.831328 0.832533 0.710729
Si Si4 0.333522 0.330447 0.120418
Si Si5 0.166572 0.830782 0.048459
Si Si6 0.827416 0.337380 0.627856
O O1 0.500000 0.816863 0.789124
O O2 0.249484 0.791700 0.753187
O O3 0.289436 0.742821 0.836029
O O4 0.303374 0.000000 0.803311
O O5 0.214708 0.214708 0.500000
O O6 0.219622 0.257972 0.585553
O O7 0.000000 0.163340 0.546054
O O8 0.216387 0.000000 0.552334
O O9 0.784647 0.745284 0.669931
O O10 0.000000 0.812308 0.716338
O O11 0.807522 0.000000 0.703380
O O12 0.500000 0.299277 0.122194
O O13 0.316001 0.500000 0.115661
O O14 0.259915 0.251986 0.081779
O O15 0.000000 0.798161 0.054629
O O16 0.183050 0.000000 0.053510
O O17 0.203249 0.796752 0.000000
O O18 0.782312 0.500000 0.628620
O O19 0.000000 0.334965 0.627326
#
# Coordination Sequence:
#
# PCOD9557150 Si02
#       6
#     8   8   8   8   8   8
#     4   9  18  33  51  69  92 125 162 197 235 280
#     4   8  13  22  38  59  81 108 144 182 218 260
#     4   9  17  29  46  68  92 118 150 189 232 277
#     4  10  21  35  51  74 103 133 165 201 242 289
#     4   9  19  36  56  77 101 130 165 204 245 289
#     4   9  16  25  39  62  91 118 144 180 227 273
#
# _framework density 16.889257000000001
#
# number of rings (size 3 to 8) (size 9 to 14) (size 15 to 20)
#    0.000    3.000    0.000    2.000    0.000    5.333 
#    0.000    4.167    0.000    1.000    0.000    4.667 
#    0.000    0.000    0.000    0.000    0.000    0.000 
#
# Total GULP energy -267517.538908 kJ/mol
# GULP energy per Si atom -5573.282061 kJ/mol
# Density = 1.685082 g / cm^3
# Si number density = 16.889257 Si / 1000 Ang^3
#
#
#
# Elastic Constant Matrix: (Units=GPa)
#
#
# Indices 1 2 3 4 5 6 
#
# 1 53.5215 42.7550 86.6707 0.0000 0.0000 0.0000
# 2 42.7550 53.5216 86.6708 0.0000 0.0000 0.0000
# 3 86.6707 86.6708 209.5816 0.0000 0.0000 0.0000
# 4 0.0000 0.0000 0.0000 -11.7870 0.0000 0.0000
# 5 0.0000 0.0000 0.0000 0.0000 -11.7868 0.0000
# 6 0.0000 0.0000 0.0000 0.0000 0.0000 17.0909
#
#
#
# Elastic Compliance Matrix: (Units=1/GPa)
#
#
# Indices 1 2 3 4 5 6 
#
# 1 0.066772 -0.026109 -0.016816 0.000000 0.000000 0.000000
# 2 -0.026109 0.066772 -0.016816 0.000000 0.000000 0.000000
# 3 -0.016816 -0.016816 0.018679 0.000000 0.000000 0.000000
# 4 0.000000 0.000000 0.000000 -0.084839 0.000000 0.000000
# 5 0.000000 0.000000 0.000000 0.000000 -0.084841 0.000000
# 6 0.000000 0.000000 0.000000 0.000000 0.000000 0.058511
#
#
# Mechanical properties :
#
#
# Convention : Reuss Voigt Hill
#
# Bulk Modulus (GPa) = 30.54190 83.20197 56.87194
# Shear Modulus (GPa) = 29.16332 5.40530 17.28431
#
# Velocity S-wave (km/s) = 4.15991 1.79092 3.20252
# Velocity P-wave (km/s) = 6.41841 7.32439 6.88632
#
# Compressibility (1/GPa) = 0.03274190
#
# Stress axis : x y z
#
# Youngs Moduli (GPa) = 14.97639 14.97640 53.53482
#
# Poissons Ratio (x) = 0.39102 0.90023
# Poissons Ratio (y) = 0.39102 0.90023
# Poissons Ratio (z) = 0.25184 0.25184
#
# Static dielectric constant tensor:
#      x y z
#    x 1.557440 0.000000 0.000000 
#    y 0.000000 1.557440 0.000000 
#    z 0.000000 0.000000 1.556610 
# 
# From -- ./inp_files/6066.got.cif
#   From: 2010.05.17/outbox.cif.g08.bks.cpg/sg115_4_cif.got.tgz:6066.got - 2010.05.20 11:07:42.
