data_PCOD9557461
_publ_section_title
;
Structure prediction by ZEFSAII (Michael W. Deem and Ramdas Pophale) SiO2 
 PCOD9557461
Probable space group: P -4 M 2
;
_chemical_formula_sum "Si O2"
_cell_formula_units_Z 33
_cell_length_a 11.699007
_cell_length_b 11.699007
_cell_length_c 11.814033
_cell_angle_alpha 90.000000
_cell_angle_beta 90.000000
_cell_angle_gamma 90.000000
_cell_volume 1616.948476
_symmetry_space_group_name_H-M "P -4 M 2"
_symmetry_group_IT_number 115
_symmetry_cell_setting 'tetragonal'
loop_
_space_group_symop_operation_xyz
x,y,z
y,-x,-z
-x,-y,z
-y,x,-z
y,x,-z
-y,-x,-z
-x,y,z
x,-y,z
loop_
_atom_site_type_symbol
_atom_site_label
_atom_site_fract_x
_atom_site_fract_y
_atom_site_fract_z
Si Si1 0.500000 0.500000 0.500000
Si Si2 0.866202 0.133799 0.000000
Si Si3 0.237100 0.500000 0.442113
Si Si4 0.500000 0.765775 0.810847
Si Si5 0.713803 0.244475 0.177088
Si Si6 0.282746 0.136144 0.426077
Si Si7 0.500000 0.867769 0.052235
O O1 0.376590 0.500000 0.436072
O O2 0.826025 0.208577 0.106694
O O3 0.000000 0.152329 0.975696
O O4 0.185691 0.500000 0.316097
O O5 0.192470 0.609970 0.509118
O O6 0.619361 0.698827 0.819428
O O7 0.500000 0.850104 0.917523
O O8 0.721003 0.192211 0.301979
O O9 0.610124 0.190032 0.107781
O O10 0.173404 0.173404 0.500000
O O11 0.294884 0.000000 0.417916
O O12 0.500000 0.000000 0.081102
#
# Coordination Sequence:
#
# PCOD9557461 Si02
#       7
#     1   4   4   4   8   8   4
#     4  12  20  44  80 104 146 184 232 292 370 432
#     4  11  24  44  70  99 138 186 236 293 356 428
#     4  12  24  47  71 109 143 186 233 302 367 428
#     4  12  24  44  73 107 143 182 235 302 353 424
#     4  12  25  46  70 106 142 186 236 295 363 426
#     4  12  26  46  72 103 144 190 243 295 356 428
#     4  12  25  44  73 105 146 192 238 292 357 431
#
# _framework density 20.408815000000001
#
# number of rings (size 3 to 8) (size 9 to 14) (size 15 to 20)
#    0.000    0.121    6.061    3.273    0.000    3.636 
#    0.000    2.424    0.000    0.000    0.000    0.000 
#    0.000    0.000    0.000    0.000    0.000    0.000 
#
# Total GULP energy -184568.702955 kJ/mol
# GULP energy per Si atom -5592.990999 kJ/mol
# Density = 2.036236 g / cm^3
# Si number density = 20.408815 Si / 1000 Ang^3
#
#
#
# Elastic Constant Matrix: (Units=GPa)
#
#
# Indices 1 2 3 4 5 6 
#
# 1 147.7959 39.9282 44.9099 0.0000 0.0000 0.0000
# 2 39.9282 147.7954 44.9101 0.0000 0.0000 0.0000
# 3 44.9099 44.9101 162.2708 0.0000 0.0000 0.0000
# 4 0.0000 0.0000 0.0000 8.4023 0.0000 0.0000
# 5 0.0000 0.0000 0.0000 0.0000 8.4015 0.0000
# 6 0.0000 0.0000 0.0000 0.0000 0.0000 24.1628
#
#
#
# Elastic Compliance Matrix: (Units=1/GPa)
#
#
# Indices 1 2 3 4 5 6 
#
# 1 0.007705 -0.001565 -0.001699 0.000000 0.000000 0.000000
# 2 -0.001565 0.007705 -0.001699 0.000000 0.000000 0.000000
# 3 -0.001699 -0.001699 0.007103 0.000000 0.000000 0.000000
# 4 0.000000 0.000000 0.000000 0.119016 0.000000 0.000000
# 5 0.000000 0.000000 0.000000 0.000000 0.119026 0.000000
# 6 0.000000 0.000000 0.000000 0.000000 0.000000 0.041386
#
#
# Mechanical properties :
#
#
# Convention : Reuss Voigt Hill
#
# Bulk Modulus (GPa) = 79.45358 79.70650 79.58004
# Shear Modulus (GPa) = 15.81954 30.06757 22.94355
#
# Velocity S-wave (km/s) = 2.78714 3.84248 3.35654
# Velocity P-wave (km/s) = 7.02660 7.66980 7.35523
#
# Compressibility (1/GPa) = 0.01258596
#
# Stress axis : x y z
#
# Youngs Moduli (GPa) = 129.78037 129.77982 140.78278
#
# Poissons Ratio (x) = 0.20314 0.23923
# Poissons Ratio (y) = 0.20314 0.23924
# Poissons Ratio (z) = 0.22054 0.22054
#
# Static dielectric constant tensor:
#      x y z
#    x 1.733060 0.000000 0.000000 
#    y 0.000000 1.733070 0.000000 
#    z 0.000000 0.000000 1.701470 
# 
# From -- ./inp_files/2688.got.cif
#   From: 2010.05.17/outbox.cif.g08.bks.cpg/sg115_2_cif.got.tgz:2688.got - 2010.05.20 11:07:42.
