data_PCOD9557269
_publ_section_title
;
Structure prediction by ZEFSAII (Michael W. Deem and Ramdas Pophale) SiO2 
 PCOD9557269
Probable space group: P -4 M 2
;
_chemical_formula_sum "Si O2"
_cell_formula_units_Z 48
_cell_length_a 9.281124
_cell_length_b 9.281124
_cell_length_c 31.520116
_cell_angle_alpha 90.000000
_cell_angle_beta 90.000000
_cell_angle_gamma 90.000000
_cell_volume 2715.119553
_symmetry_space_group_name_H-M "P -4 M 2"
_symmetry_group_IT_number 115
_symmetry_cell_setting 'tetragonal'
loop_
_space_group_symop_operation_xyz
x,y,z
y,-x,-z
-x,-y,z
-y,x,-z
y,x,-z
-y,-x,-z
-x,y,z
x,-y,z
loop_
_atom_site_type_symbol
_atom_site_label
_atom_site_fract_x
_atom_site_fract_y
_atom_site_fract_z
Si Si1 0.171519 0.672788 0.133711
Si Si2 0.827195 0.331864 0.037579
Si Si3 0.327818 0.170572 0.712362
Si Si4 0.329946 0.671041 0.374781
Si Si5 0.671545 0.170702 0.461672
Si Si6 0.329154 0.828282 0.210470
O O1 0.191832 0.500000 0.138103
O O2 0.213174 0.713703 0.085486
O O3 0.260841 0.757158 0.168657
O O4 0.000000 0.699636 0.139063
O O5 0.788277 0.500000 0.033130
O O6 0.000000 0.321454 0.035139
O O7 0.756620 0.243381 0.000000
O O8 0.500000 0.191590 0.718846
O O9 0.291234 0.238009 0.666618
O O10 0.242101 0.251217 0.749142
O O11 0.299400 0.000000 0.713270
O O12 0.500000 0.697217 0.366324
O O13 0.312580 0.500000 0.382871
O O14 0.287971 0.758219 0.416700
O O15 0.756377 0.243624 0.500000
O O16 0.500000 0.195983 0.467486
O O17 0.696219 0.000000 0.460678
O O18 0.500000 0.799901 0.212313
O O19 0.306907 0.000000 0.210079
#
# Coordination Sequence:
#
# PCOD9557269 Si02
#       6
#     8   8   8   8   8   8
#     4   9  19  37  58  78 103 138 179 220 263 313
#     4   9  19  35  54  78 108 140 175 217 263 312
#     4  10  21  37  58  83 109 139 176 217 262 315
#     4   9  18  34  56  80 107 141 180 220 262 311
#     4  10  21  36  55  80 110 144 181 222 267 314
#     4  11  24  38  53  78 110 141 175 218 266 314
#
# _framework density 17.67878
#
# number of rings (size 3 to 8) (size 9 to 14) (size 15 to 20)
#    0.000    2.333    0.000    3.000    0.000    8.667 
#    0.000    8.333    0.000    0.000    0.000    0.000 
#    0.000    0.000    0.000    0.000    0.000    0.000 
#
# Total GULP energy -267980.710736 kJ/mol
# GULP energy per Si atom -5582.931474 kJ/mol
# Density = 1.763854 g / cm^3
# Si number density = 17.678780 Si / 1000 Ang^3
#
#
#
# Elastic Constant Matrix: (Units=GPa)
#
#
# Indices 1 2 3 4 5 6 
#
# 1 75.5210 69.0664 99.7909 0.0000 0.0000 0.0000
# 2 69.0664 75.5239 99.7939 0.0000 0.0000 0.0000
# 3 99.7909 99.7939 199.9016 0.0000 0.0000 0.0000
# 4 0.0000 0.0000 0.0000 89.6784 0.0000 0.0000
# 5 0.0000 0.0000 0.0000 0.0000 89.6715 0.0000
# 6 0.0000 0.0000 0.0000 0.0000 0.0000 28.4636
#
#
#
# Elastic Compliance Matrix: (Units=1/GPa)
#
#
# Indices 1 2 3 4 5 6 
#
# 1 0.088569 -0.066324 -0.011103 0.000000 0.000000 0.000000
# 2 -0.066324 0.088569 -0.011106 0.000000 0.000000 0.000000
# 3 -0.011103 -0.011106 0.016090 0.000000 0.000000 0.000000
# 4 0.000000 0.000000 0.000000 0.011151 0.000000 0.000000
# 5 0.000000 0.000000 0.000000 0.000000 0.011152 0.000000
# 6 0.000000 0.000000 0.000000 0.000000 0.000000 0.035133
#
#
# Mechanical properties :
#
#
# Convention : Reuss Voigt Hill
#
# Bulk Modulus (GPa) = 61.88087 98.69433 80.28760
# Shear Modulus (GPa) = 11.54423 47.04905 29.29664
#
# Velocity S-wave (km/s) = 2.55816 5.16440 4.07524
# Velocity P-wave (km/s) = 6.61849 9.56604 8.22537
#
# Compressibility (1/GPa) = 0.01616008
#
# Stress axis : x y z
#
# Youngs Moduli (GPa) = 11.29067 11.29063 62.15200
#
# Poissons Ratio (x) = 0.74884 0.69010
# Poissons Ratio (y) = 0.74884 0.69026
# Poissons Ratio (z) = 0.12537 0.12539
#
# Static dielectric constant tensor:
#      x y z
#    x 1.585150 0.000000 0.000000 
#    y 0.000000 1.585150 0.000000 
#    z 0.000000 0.000000 1.577660 
# 
# From -- ./inp_files/5937.got.cif
#   From: 2010.05.17/outbox.cif.g08.bks.cpg/sg115_3_cif.got.tgz:5937.got - 2010.05.20 11:07:42.
