data_PCOD9557980
_publ_section_title
;
Structure prediction by ZEFSAII (Michael W. Deem and Ramdas Pophale) SiO2 
 PCOD9557980
Probable space group: P -4 C 2
;
_chemical_formula_sum "Si O2"
_cell_formula_units_Z 40
_cell_length_a 8.400021
_cell_length_b 8.400021
_cell_length_c 24.538856
_cell_angle_alpha 90.000000
_cell_angle_beta 90.000000
_cell_angle_gamma 90.000000
_cell_volume 1731.470337
_symmetry_space_group_name_H-M "P -4 C 2"
_symmetry_group_IT_number 116
_symmetry_cell_setting 'tetragonal'
loop_
_space_group_symop_operation_xyz
x,y,z
y,-x,-z
-x,-y,z
-y,x,-z
y,x,1/2-z
-y,-x,1/2-z
-x,y,1/2+z
x,-y,1/2+z
loop_
_atom_site_type_symbol
_atom_site_label
_atom_site_fract_x
_atom_site_fract_y
_atom_site_fract_z
Si Si1 0.321866 0.432970 0.197091
Si Si2 0.735105 0.373449 0.500423
Si Si3 0.324391 0.070579 0.603037
Si Si4 0.238356 0.844815 0.306874
Si Si5 0.860427 0.248658 0.608773
O O1 0.500000 0.500000 0.191631
O O2 0.321163 0.321163 0.250000
O O3 0.204589 0.581074 0.206235
O O4 0.273279 0.339469 0.143767
O O5 0.561397 0.295233 0.509282
O O6 0.807367 0.300891 0.445885
O O7 0.854677 0.337706 0.550595
O O8 0.299034 0.158642 0.659900
O O9 0.500000 0.000000 0.598693
O O10 0.197140 0.929906 0.598833
O O11 0.142816 0.857185 0.250000
O O12 0.244636 0.988543 0.350553
#
# Coordination Sequence:
#
# PCOD9557980 Si02
#       5
#     8   8   8   8   8
#     4  11  24  47  78 114 147 200 265 326 383 473
#     4  11  26  49  80 112 149 200 265 330 395 481
#     4  12  27  48  74 111 153 202 259 321 400 477
#     4  12  28  49  76 113 161 205 263 325 404 484
#     4  12  28  46  80 111 158 204 257 332 405 482
#
# _framework density 23.101754
#
# number of rings (size 3 to 8) (size 9 to 14) (size 15 to 20)
#    0.000    0.400    4.000    3.600    8.400    2.400 
#    0.000    0.000    0.000    0.000    0.000    0.000 
#    0.000    0.000    0.000    0.000    0.000    0.000 
#
# Total GULP energy -223976.770638 kJ/mol
# GULP energy per Si atom -5599.419266 kJ/mol
# Density = 2.304917 g / cm^3
# Si number density = 23.101754 Si / 1000 Ang^3
#
#
#
# Elastic Constant Matrix: (Units=GPa)
#
#
# Indices 1 2 3 4 5 6 
#
# 1 82.3328 30.6831 26.5052 0.0000 0.0000 0.0000
# 2 30.6831 82.3327 26.5052 0.0000 0.0000 0.0000
# 3 26.5052 26.5052 148.5848 0.0000 0.0000 0.0000
# 4 0.0000 0.0000 0.0000 32.5086 0.0000 0.0000
# 5 0.0000 0.0000 0.0000 0.0000 32.5084 0.0000
# 6 0.0000 0.0000 0.0000 0.0000 0.0000 37.3996
#
#
#
# Elastic Compliance Matrix: (Units=1/GPa)
#
#
# Indices 1 2 3 4 5 6 
#
# 1 0.014509 -0.004852 -0.001723 0.000000 0.000000 0.000000
# 2 -0.004852 0.014509 -0.001723 0.000000 0.000000 0.000000
# 3 -0.001723 -0.001723 0.007345 0.000000 0.000000 0.000000
# 4 0.000000 0.000000 0.000000 0.030761 0.000000 0.000000
# 5 0.000000 0.000000 0.000000 0.000000 0.030761 0.000000
# 6 0.000000 0.000000 0.000000 0.000000 0.000000 0.026738
#
#
# Mechanical properties :
#
#
# Convention : Reuss Voigt Hill
#
# Bulk Modulus (GPa) = 50.58901 53.40415 51.99658
# Shear Modulus (GPa) = 33.82792 35.78711 34.80752
#
# Velocity S-wave (km/s) = 3.83077 3.94014 3.88584
# Velocity P-wave (km/s) = 6.44300 6.62320 6.53372
#
# Compressibility (1/GPa) = 0.01976714
#
# Stress axis : x y z
#
# Youngs Moduli (GPa) = 68.92404 68.92389 136.15243
#
# Poissons Ratio (x) = 0.33445 0.23453
# Poissons Ratio (y) = 0.33445 0.23453
# Poissons Ratio (z) = 0.11872 0.11872
#
# Static dielectric constant tensor:
#      x y z
#    x 1.879510 0.000000 0.000000 
#    y 0.000000 1.879510 0.000000 
#    z 0.000000 0.000000 1.864060 
# 
# From -- ./inp_files/4454.got.cif
#   From: 2010.05.17/outbox.cif.g08.bks.cpg/sg116_3_cif.got.tgz:4454.got - 2010.05.20 11:11:43.
