data_PCOD9557849
_publ_section_title
;
Structure prediction by ZEFSAII (Michael W. Deem and Ramdas Pophale) SiO2 
 PCOD9557849
Probable space group: P -4 C 2
;
_chemical_formula_sum "Si O2"
_cell_formula_units_Z 48
_cell_length_a 8.903389
_cell_length_b 8.903389
_cell_length_c 29.600958
_cell_angle_alpha 90.000000
_cell_angle_beta 90.000000
_cell_angle_gamma 90.000000
_cell_volume 2346.477877
_symmetry_space_group_name_H-M "P -4 C 2"
_symmetry_group_IT_number 116
_symmetry_cell_setting 'tetragonal'
loop_
_space_group_symop_operation_xyz
x,y,z
y,-x,-z
-x,-y,z
-y,x,-z
y,x,1/2-z
-y,-x,1/2-z
-x,y,1/2+z
x,-y,1/2+z
loop_
_atom_site_type_symbol
_atom_site_label
_atom_site_fract_x
_atom_site_fract_y
_atom_site_fract_z
Si Si1 0.444628 0.669821 0.114712
Si Si2 0.912711 0.263706 0.786707
Si Si3 0.136196 0.743816 0.891463
Si Si4 0.945175 0.666296 0.046095
Si Si5 0.248422 0.835356 0.047608
Si Si6 0.235635 0.588893 0.285422
O O1 0.500000 0.500000 0.111660
O O2 0.578106 0.791039 0.108004
O O3 0.322076 0.705563 0.077424
O O4 0.383220 0.701857 0.164584
O O5 0.855065 0.144936 0.750000
O O6 0.897200 0.215652 0.839258
O O7 0.811639 0.414739 0.781662
O O8 0.083288 0.315888 0.778857
O O9 0.259515 0.850522 0.913992
O O10 0.986356 0.749126 0.922037
O O11 0.000000 0.500000 0.057380
O O12 0.081510 0.781153 0.036644
O O13 0.856307 0.662347 0.998861
O O14 0.358515 0.641486 0.250000
#
# Coordination Sequence:
#
# PCOD9557849 Si02
#       6
#     8   8   8   8   8   8
#     4  11  24  43  70 101 136 183 231 290 356 413
#     4  10  23  44  66  97 136 180 227 283 349 412
#     4  11  23  45  69  97 139 185 229 287 355 420
#     4  12  26  44  68 103 137 181 238 288 349 424
#     4  12  24  45  71  99 139 184 229 287 355 430
#     4  10  23  41  67  98 134 176 227 284 347 418
#
# _framework density 20.456191
#
# number of rings (size 3 to 8) (size 9 to 14) (size 15 to 20)
#    0.000    1.000    3.333    3.000    4.667    1.667 
#    6.000    0.000    0.000    0.000    0.000    0.000 
#    0.000    0.000    0.000    0.000    0.000    0.000 
#
# Total GULP energy -268554.616313 kJ/mol
# GULP energy per Si atom -5594.887840 kJ/mol
# Density = 2.040963 g / cm^3
# Si number density = 20.456191 Si / 1000 Ang^3
#
#
#
# Elastic Constant Matrix: (Units=GPa)
#
#
# Indices 1 2 3 4 5 6 
#
# 1 51.0197 24.8346 32.9259 0.0000 0.0000 0.0000
# 2 24.8346 51.0209 32.9282 0.0000 0.0000 0.0000
# 3 32.9259 32.9282 73.7659 0.0000 0.0000 0.0000
# 4 0.0000 0.0000 0.0000 31.4269 0.0000 0.0000
# 5 0.0000 0.0000 0.0000 0.0000 31.4268 0.0000
# 6 0.0000 0.0000 0.0000 0.0000 0.0000 40.9311
#
#
#
# Elastic Compliance Matrix: (Units=1/GPa)
#
#
# Indices 1 2 3 4 5 6 
#
# 1 0.029856 -0.008332 -0.009607 0.000000 0.000000 0.000000
# 2 -0.008332 0.029857 -0.009609 0.000000 0.000000 0.000000
# 3 -0.009607 -0.009609 0.022134 0.000000 0.000000 0.000000
# 4 0.000000 0.000000 0.000000 0.031820 0.000000 0.000000
# 5 0.000000 0.000000 0.000000 0.000000 0.031820 0.000000
# 6 0.000000 0.000000 0.000000 0.000000 0.000000 0.024431
#
#
# Mechanical properties :
#
#
# Convention : Reuss Voigt Hill
#
# Bulk Modulus (GPa) = 37.38198 39.68709 38.53454
# Shear Modulus (GPa) = 21.37386 26.43147 23.90267
#
# Velocity S-wave (km/s) = 3.23594 3.59848 3.42201
# Velocity P-wave (km/s) = 5.68116 6.05876 5.87299
#
# Compressibility (1/GPa) = 0.02675085
#
# Stress axis : x y z
#
# Youngs Moduli (GPa) = 33.49395 33.49314 45.18003
#
# Poissons Ratio (x) = 0.27908 0.43404
# Poissons Ratio (y) = 0.27908 0.43411
# Poissons Ratio (z) = 0.32178 0.32182
#
# Static dielectric constant tensor:
#      x y z
#    x 1.729410 0.000000 0.000000 
#    y 0.000000 1.729410 0.000000 
#    z 0.000000 0.000000 1.702790 
# 
# From -- ./inp_files/5257.got.cif
#   From: 2010.05.17/outbox.cif.g08.bks.cpg/sg116_3_cif.got.tgz:5257.got - 2010.05.20 11:11:43.
