data_PCOD9557831
_publ_section_title
;
Structure prediction by ZEFSAII (Michael W. Deem and Ramdas Pophale) SiO2 
 PCOD9557831
Probable space group: P -4 C 2
;
_chemical_formula_sum "Si O2"
_cell_formula_units_Z 48
_cell_length_a 11.473835
_cell_length_b 11.473835
_cell_length_c 17.790363
_cell_angle_alpha 90.000000
_cell_angle_beta 90.000000
_cell_angle_gamma 90.000000
_cell_volume 2342.081535
_symmetry_space_group_name_H-M "P -4 C 2"
_symmetry_group_IT_number 116
_symmetry_cell_setting 'tetragonal'
loop_
_space_group_symop_operation_xyz
x,y,z
y,-x,-z
-x,-y,z
-y,x,-z
y,x,1/2-z
-y,-x,1/2-z
-x,y,1/2+z
x,-y,1/2+z
loop_
_atom_site_type_symbol
_atom_site_label
_atom_site_fract_x
_atom_site_fract_y
_atom_site_fract_z
Si Si1 0.886887 0.307860 0.752373
Si Si2 0.926079 0.831318 0.520284
Si Si3 0.129911 0.755176 0.179664
Si Si4 0.308645 0.494510 0.996446
Si Si5 0.136733 0.501758 0.629090
Si Si6 0.599957 0.902908 0.080179
O O1 0.784115 0.215886 0.750000
O O2 0.853891 0.418461 0.701950
O O3 0.914849 0.346871 0.836854
O O4 0.999342 0.254364 0.711693
O O5 0.872991 0.831263 0.604043
O O6 0.911932 0.706385 0.479741
O O7 0.063259 0.863482 0.523837
O O8 0.203539 0.796462 0.250000
O O9 0.168258 0.628563 0.152056
O O10 0.220705 0.457651 0.062792
O O11 0.389808 0.603292 0.021509
O O12 0.223306 0.539755 0.931134
O O13 0.000000 0.500000 0.606191
O O14 0.500000 0.000000 0.069512
#
# Coordination Sequence:
#
# PCOD9557831 Si02
#       6
#     8   8   8   8   8   8
#     4  11  24  42  67  96 134 175 225 281 342 410
#     4  11  25  43  66 101 140 177 228 287 346 411
#     4  11  23  41  68  97 135 178 219 278 343 413
#     4  11  25  42  65  95 132 175 228 285 343 402
#     4  10  22  44  66  93 130 178 222 281 342 407
#     4  12  25  41  71 102 130 181 233 281 340 427
#
# _framework density 20.494591
#
# number of rings (size 3 to 8) (size 9 to 14) (size 15 to 20)
#    0.000    1.000    1.667    5.000    4.667    4.333 
#    0.000    0.000    0.000    3.000    0.000    0.000 
#    0.000    0.000    0.000    0.000    0.000    0.000 
#
# Total GULP energy -268445.273300 kJ/mol
# GULP energy per Si atom -5592.609860 kJ/mol
# Density = 2.044794 g / cm^3
# Si number density = 20.494591 Si / 1000 Ang^3
#
#
#
# Elastic Constant Matrix: (Units=GPa)
#
#
# Indices 1 2 3 4 5 6 
#
# 1 32.8219 -1.0661 -17.0129 0.0000 0.0000 0.0000
# 2 -1.0661 32.8329 -17.0069 0.0000 0.0000 0.0000
# 3 -17.0129 -17.0069 84.8906 0.0000 0.0000 0.0000
# 4 0.0000 0.0000 0.0000 25.9037 0.0000 0.0000
# 5 0.0000 0.0000 0.0000 0.0000 25.9020 0.0000
# 6 0.0000 0.0000 0.0000 0.0000 0.0000 59.7672
#
#
#
# Elastic Compliance Matrix: (Units=1/GPa)
#
#
# Indices 1 2 3 4 5 6 
#
# 1 0.034804 0.005292 0.008035 0.000000 0.000000 0.000000
# 2 0.005292 0.034789 0.008030 0.000000 0.000000 0.000000
# 3 0.008035 0.008030 0.014999 0.000000 0.000000 0.000000
# 4 0.000000 0.000000 0.000000 0.038604 0.000000 0.000000
# 5 0.000000 0.000000 0.000000 0.000000 0.038607 0.000000
# 6 0.000000 0.000000 0.000000 0.000000 0.000000 0.016732
#
#
# Mechanical properties :
#
#
# Convention : Reuss Voigt Hill
#
# Bulk Modulus (GPa) = 7.85498 8.93040 8.39269
# Shear Modulus (GPa) = 28.04966 34.69001 31.36984
#
# Velocity S-wave (km/s) = 3.70352 4.11864 3.91658
# Velocity P-wave (km/s) = 4.70416 5.19466 4.95548
#
# Compressibility (1/GPa) = 0.12730780
#
# Stress axis : x y z
#
# Youngs Moduli (GPa) = 28.73195 28.74510 66.67116
#
# Poissons Ratio (x) = -0.15213 -0.53573
# Poissons Ratio (y) = -0.15206 -0.53538
# Poissons Ratio (z) = -0.23087 -0.23083
#
# Static dielectric constant tensor:
#      x y z
#    x 1.726610 0.000000 0.000000 
#    y 0.000000 1.726610 0.000000 
#    z 0.000000 0.000000 1.732180 
# 
# From -- ./inp_files/3406.got.cif
#   From: 2010.05.17/outbox.cif.g08.bks.cpg/sg116_2_cif.got.tgz:3406.got - 2010.05.20 11:11:43.
