data_PCOD9557120
_publ_section_title
;
Structure prediction by ZEFSAII (Michael W. Deem and Ramdas Pophale) SiO2 
 PCOD9557120
Probable space group: P -4 M 2
;
_chemical_formula_sum "Si O2"
_cell_formula_units_Z 56
_cell_length_a 14.494739
_cell_length_b 14.494739
_cell_length_c 15.058148
_cell_angle_alpha 90.000000
_cell_angle_beta 90.000000
_cell_angle_gamma 90.000000
_cell_volume 3163.678627
_symmetry_space_group_name_H-M "P -4 M 2"
_symmetry_group_IT_number 115
_symmetry_cell_setting 'tetragonal'
loop_
_space_group_symop_operation_xyz
x,y,z
y,-x,-z
-x,-y,z
-y,x,-z
y,x,-z
-y,-x,-z
-x,y,z
x,-y,z
loop_
_atom_site_type_symbol
_atom_site_label
_atom_site_fract_x
_atom_site_fract_y
_atom_site_fract_z
Si Si1 0.109847 0.890887 0.605634
Si Si2 0.212133 0.606507 0.219582
Si Si3 0.390256 0.249309 0.476522
Si Si4 0.279263 0.791463 0.301622
Si Si5 0.239817 0.393037 0.014657
Si Si6 0.098134 0.609623 0.383498
Si Si7 0.392695 0.108692 0.151592
O O1 0.125582 0.874419 0.500000
O O2 0.169663 0.819586 0.664147
O O3 0.000000 0.875224 0.621326
O O4 0.127654 0.000000 0.623406
O O5 0.244848 0.500000 0.235469
O O6 0.273864 0.689133 0.258283
O O7 0.121054 0.617371 0.279773
O O8 0.201670 0.618505 0.114643
O O9 0.348145 0.348145 0.500000
O O10 0.500000 0.251040 0.472304
O O11 0.346395 0.213244 0.385939
O O12 0.357246 0.181085 0.555303
O O13 0.324114 0.856653 0.227482
O O14 0.268910 0.500000 0.006279
O O15 0.163913 0.375127 0.939380
O O16 0.324773 0.324773 0.000000
O O17 0.093718 0.500000 0.401345
O O18 0.000000 0.651975 0.406959
O O19 0.500000 0.126937 0.177352
O O20 0.382976 0.000000 0.137381
#
# Coordination Sequence:
#
# PCOD9557120 Si02
#       7
#     8   8   8   8   8   8   8
#     4   9  20  38  57  82 117 154 196 243 290 344
#     4  10  21  36  57  84 115 146 187 238 288 340
#     4  11  23  38  55  81 115 156 198 239 283 340
#     4  12  21  36  59  85 114 156 195 237 286 346
#     4  10  20  38  62  86 116 148 184 232 285 343
#     4   9  19  36  56  80 112 145 184 237 287 332
#     4  10  22  39  60  87 118 151 189 236 288 343
#
# _framework density 17.700911999999999
#
# number of rings (size 3 to 8) (size 9 to 14) (size 15 to 20)
#    0.000    1.857    2.857    1.714    0.000    2.571 
#    0.000    4.286    0.000    1.286    0.000    0.000 
#    0.000    0.000    0.000    0.000    0.000    0.000 
#
# Total GULP energy -312302.190185 kJ/mol
# GULP energy per Si atom -5576.824825 kJ/mol
# Density = 1.766062 g / cm^3
# Si number density = 17.700912 Si / 1000 Ang^3
#
#
#
# Elastic Constant Matrix: (Units=GPa)
#
#
# Indices 1 2 3 4 5 6 
#
# 1 106.7704 58.8093 62.6852 0.0000 0.0000 0.0000
# 2 58.8093 106.7704 62.6853 0.0000 0.0000 0.0000
# 3 62.6852 62.6853 130.1875 0.0000 0.0000 0.0000
# 4 0.0000 0.0000 0.0000 22.9538 0.0000 0.0000
# 5 0.0000 0.0000 0.0000 0.0000 22.9537 0.0000
# 6 0.0000 0.0000 0.0000 0.0000 0.0000 24.2270
#
#
#
# Elastic Compliance Matrix: (Units=1/GPa)
#
#
# Indices 1 2 3 4 5 6 
#
# 1 0.015177 -0.005673 -0.004576 0.000000 0.000000 0.000000
# 2 -0.005673 0.015177 -0.004576 0.000000 0.000000 0.000000
# 3 -0.004576 -0.004576 0.012088 0.000000 0.000000 0.000000
# 4 0.000000 0.000000 0.000000 0.043566 0.000000 0.000000
# 5 0.000000 0.000000 0.000000 0.000000 0.043566 0.000000
# 6 0.000000 0.000000 0.000000 0.000000 0.000000 0.041276
#
#
# Mechanical properties :
#
#
# Convention : Reuss Voigt Hill
#
# Bulk Modulus (GPa) = 78.17614 79.12091 78.64852
# Shear Modulus (GPa) = 24.41810 24.66347 24.54079
#
# Velocity S-wave (km/s) = 3.71817 3.73680 3.72750
# Velocity P-wave (km/s) = 7.91795 7.96330 7.94066
#
# Compressibility (1/GPa) = 0.01279163
#
# Stress axis : x y z
#
# Youngs Moduli (GPa) = 65.88774 65.88767 82.72469
#
# Poissons Ratio (x) = 0.37377 0.37858
# Poissons Ratio (y) = 0.37377 0.37858
# Poissons Ratio (z) = 0.30153 0.30153
#
# Static dielectric constant tensor:
#      x y z
#    x 1.614670 0.000000 0.000000 
#    y 0.000000 1.614670 0.000000 
#    z 0.000000 0.000000 1.585200 
# 
# From -- ./inp_files/3878.got.cif
#   From: 2010.05.17/outbox.cif.g08.bks.cpg/sg115_2_cif.got.tgz:3878.got - 2010.05.20 11:07:42.
