data_PCOD9557982
_publ_section_title
;
Structure prediction by ZEFSAII (Michael W. Deem and Ramdas Pophale) SiO2 
 PCOD9557982
Probable space group: P -4 C 2
;
_chemical_formula_sum "Si O2"
_cell_formula_units_Z 30
_cell_length_a 7.739603
_cell_length_b 7.739603
_cell_length_c 21.052133
_cell_angle_alpha 90.000000
_cell_angle_beta 90.000000
_cell_angle_gamma 90.000000
_cell_volume 1261.053389
_symmetry_space_group_name_H-M "P -4 C 2"
_symmetry_group_IT_number 116
_symmetry_cell_setting 'tetragonal'
loop_
_space_group_symop_operation_xyz
x,y,z
y,-x,-z
-x,-y,z
-y,x,-z
y,x,1/2-z
-y,-x,1/2-z
-x,y,1/2+z
x,-y,1/2+z
loop_
_atom_site_type_symbol
_atom_site_label
_atom_site_fract_x
_atom_site_fract_y
_atom_site_fract_z
Si Si1 0.500000 0.500000 0.250000
Si Si2 0.500000 0.500000 0.500000
Si Si3 0.000000 0.000000 0.250000
Si Si4 0.817670 0.478158 0.157581
Si Si5 0.891441 0.723254 0.856069
Si Si6 0.624630 0.224190 0.595093
O O1 0.667810 0.492244 0.207687
O O2 0.519963 0.326308 0.541389
O O3 0.832012 0.022347 0.202740
O O4 0.817973 0.287541 0.127823
O O5 0.770105 0.635683 0.111953
O O6 0.000000 0.500000 0.189724
O O7 0.820951 0.523071 0.851240
O O8 0.036967 0.711043 0.910628
#
# Coordination Sequence:
#
# PCOD9557982 Si02
#       6
#     2   2   2   8   8   8
#     4  12  24  42  64 118 152 224 266 296 404 456
#     4  12  22  56  84 110 144 224 246 364 416 446
#     4  12  26  46  74 108 172 212 244 298 426 444
#     4  12  25  45  73 108 159 206 258 326 383 483
#     4  11  24  49  68 117 158 202 250 332 365 507
#     4  11  25  48  77 109 158 190 277 326 396 459
#
# _framework density 23.789638
#
# number of rings (size 3 to 8) (size 9 to 14) (size 15 to 20)
#    0.000    0.533    5.333    2.400    0.000    6.400 
#    9.600    0.000    0.000    0.000    0.000    0.000 
#    0.000    0.000    0.000    0.000    0.000    0.000 
#
# Total GULP energy -167161.794220 kJ/mol
# GULP energy per Si atom -5572.059807 kJ/mol
# Density = 2.373549 g / cm^3
# Si number density = 23.789638 Si / 1000 Ang^3
#
#
#
# Elastic Constant Matrix: (Units=GPa)
#
#
# Indices 1 2 3 4 5 6 
#
# 1 190.4961 59.2786 44.7510 0.0000 0.0000 0.0000
# 2 59.2786 190.4961 44.7510 0.0000 0.0000 0.0000
# 3 44.7510 44.7510 57.2585 0.0000 0.0000 0.0000
# 4 0.0000 0.0000 0.0000-3153.6093 0.0000 0.0000
# 5 0.0000 0.0000 0.0000 0.0000-3153.6093 0.0000
# 6 0.0000 0.0000 0.0000 0.0000 0.0000 32.7970
#
#
#
# Elastic Compliance Matrix: (Units=1/GPa)
#
#
# Indices 1 2 3 4 5 6 
#
# 1 0.006591 -0.001030 -0.004346 0.000000 0.000000 0.000000
# 2 -0.001030 0.006591 -0.004346 0.000000 0.000000 0.000000
# 3 -0.004346 -0.004346 0.024258 0.000000 0.000000 0.000000
# 4 0.000000 0.000000 0.000000 -0.000317 0.000000 0.000000
# 5 0.000000 0.000000 0.000000 0.000000 -0.000317 0.000000
# 6 0.000000 0.000000 0.000000 0.000000 0.000000 0.030491
#
#
# Mechanical properties :
#
#
# Convention : Reuss Voigt Hill
#
# Bulk Modulus (GPa) = 55.56993 81.75690 68.66341
# Shear Modulus (GPa) = 53.91401 -1235.58633 -590.83616
#
# Velocity S-wave (km/s) = 4.76571 -22.81464 -15.77649
# Velocity P-wave (km/s) = 7.32750 25.68207 17.40512
#
# Compressibility (1/GPa) = 0.01799534
#
# Stress axis : x y z
#
# Youngs Moduli (GPa) = 151.72258 151.72258 41.22282
#
# Poissons Ratio (x) = 0.15627 0.17917
# Poissons Ratio (y) = 0.15627 0.17917
# Poissons Ratio (z) = 0.65943 0.65943
#
# Static dielectric constant tensor:
#      x y z
#    x 2.008170 0.000000 0.000000 
#    y 0.000000 2.008170 0.000000 
#    z 0.000000 0.000000 1.957290 
# 
# From -- ./inp_files/3831.got.cif
#   From: 2010.05.17/outbox.cif.g08.bks.cpg/sg116_2_cif.got.tgz:3831.got - 2010.05.20 11:11:43.
