data_PCOD9557878
_publ_section_title
;
Structure prediction by ZEFSAII (Michael W. Deem and Ramdas Pophale) SiO2 
 PCOD9557878
Probable space group: P -4 C 2
;
_chemical_formula_sum "Si O2"
_cell_formula_units_Z 16
_cell_length_a 5.181187
_cell_length_b 5.181187
_cell_length_c 25.395317
_cell_angle_alpha 90.000000
_cell_angle_beta 90.000000
_cell_angle_gamma 90.000000
_cell_volume 681.729634
_symmetry_space_group_name_H-M "P -4 C 2"
_symmetry_group_IT_number 116
_symmetry_cell_setting 'tetragonal'
loop_
_space_group_symop_operation_xyz
x,y,z
y,-x,-z
-x,-y,z
-y,x,-z
y,x,1/2-z
-y,-x,1/2-z
-x,y,1/2+z
x,-y,1/2+z
loop_
_atom_site_type_symbol
_atom_site_label
_atom_site_fract_x
_atom_site_fract_y
_atom_site_fract_z
Si Si1 0.500000 0.500000 0.000000
Si Si2 0.000000 0.500000 0.675918
Si Si3 0.500000 0.500000 0.750000
Si Si4 0.746701 0.668257 0.400276
O O1 0.679991 0.676439 0.037631
O O2 0.242836 0.487571 0.714746
O O3 0.074475 0.725886 0.634138
O O4 0.500000 0.500000 0.381965
O O5 0.000000 0.500000 0.392478
#
# Coordination Sequence:
#
# PCOD9557878 Si02
#       4
#     2   4   2   8
#     4   8  22  44  72 114 156 196 238 308 384 466
#     4  12  28  54  72 118 142 210 254 332 382 462
#     4  12  30  48  84  98 158 194 270 318 400 444
#     4  10  24  45  75 110 154 199 245 315 374 476
#
# _framework density 23.469712000000001
#
# number of rings (size 3 to 8) (size 9 to 14) (size 15 to 20)
#    1.500    0.000    2.500    0.000    7.000    7.000 
#    0.000    0.000    0.000    0.000    0.000    0.000 
#    0.000    0.000    0.000    0.000    0.000    0.000 
#
# Total GULP energy -89091.811910 kJ/mol
# GULP energy per Si atom -5568.238244 kJ/mol
# Density = 2.341629 g / cm^3
# Si number density = 23.469712 Si / 1000 Ang^3
#
#
#
# Elastic Constant Matrix: (Units=GPa)
#
#
# Indices 1 2 3 4 5 6 
#
# 1 170.8369 58.1771 86.6014 0.0000 0.0000 0.0000
# 2 58.1771 170.8369 86.6014 0.0000 0.0000 0.0000
# 3 86.6014 86.6014 193.4675 0.0000 0.0000 0.0000
# 4 0.0000 0.0000 0.0000 -111.6312 0.0000 0.0000
# 5 0.0000 0.0000 0.0000 0.0000 -111.6312 0.0000
# 6 0.0000 0.0000 0.0000 0.0000 0.0000 37.9900
#
#
#
# Elastic Compliance Matrix: (Units=1/GPa)
#
#
# Indices 1 2 3 4 5 6 
#
# 1 0.007739 -0.001137 -0.002955 0.000000 0.000000 0.000000
# 2 -0.001137 0.007739 -0.002955 0.000000 0.000000 0.000000
# 3 -0.002955 -0.002955 0.007814 0.000000 0.000000 0.000000
# 4 0.000000 0.000000 0.000000 -0.008958 0.000000 0.000000
# 5 0.000000 0.000000 0.000000 0.000000 -0.008958 0.000000
# 6 0.000000 0.000000 0.000000 0.000000 0.000000 0.026323
#
#
# Mechanical properties :
#
#
# Convention : Reuss Voigt Hill
#
# Bulk Modulus (GPa) = 108.72888 110.87787 109.80338
# Shear Modulus (GPa) = 102.33541 -16.80372 42.76584
#
# Velocity S-wave (km/s) = 6.61043 -2.67867 4.27332
# Velocity P-wave (km/s) = 10.23189 6.14642 8.44009
#
# Compressibility (1/GPa) = 0.00919719
#
# Stress axis : x y z
#
# Youngs Moduli (GPa) = 129.21854 129.21854 127.97105
#
# Poissons Ratio (x) = 0.14698 0.37815
# Poissons Ratio (y) = 0.14698 0.37815
# Poissons Ratio (z) = 0.38184 0.38184
#
# Static dielectric constant tensor:
#      x y z
#    x 2.006680 0.000000 0.000000 
#    y 0.000000 2.006680 0.000000 
#    z 0.000000 0.000000 1.992430 
# 
# From -- ./inp_files/4228.got.cif
#   From: 2010.05.17/outbox.cif.g08.bks.cpg/sg116_3_cif.got.tgz:4228.got - 2010.05.20 11:11:43.
