data_PCOD9557213
_publ_section_title
;
Structure prediction by ZEFSAII (Michael W. Deem and Ramdas Pophale) SiO2 
 PCOD9557213
Probable space group: P -4 M 2
;
_chemical_formula_sum "Si O2"
_cell_formula_units_Z 40
_cell_length_a 14.532668
_cell_length_b 14.532668
_cell_length_c 10.315280
_cell_angle_alpha 90.000000
_cell_angle_beta 90.000000
_cell_angle_gamma 90.000000
_cell_volume 2178.571036
_symmetry_space_group_name_H-M "P -4 M 2"
_symmetry_group_IT_number 115
_symmetry_cell_setting 'tetragonal'
loop_
_space_group_symop_operation_xyz
x,y,z
y,-x,-z
-x,-y,z
-y,x,-z
y,x,-z
-y,-x,-z
-x,y,z
x,-y,z
loop_
_atom_site_type_symbol
_atom_site_label
_atom_site_fract_x
_atom_site_fract_y
_atom_site_fract_z
Si Si1 0.109933 0.892844 0.346243
Si Si2 0.206394 0.280771 0.223999
Si Si3 0.607985 0.239350 0.528458
Si Si4 0.604108 0.106495 0.985568
Si Si5 0.798262 0.604073 0.755168
O O1 0.125170 0.874831 0.500000
O O2 0.165828 0.818768 0.263075
O O3 0.000000 0.882768 0.323538
O O4 0.133854 0.000000 0.320478
O O5 0.190934 0.347691 0.347105
O O6 0.161995 0.322113 0.096314
O O7 0.315978 0.272401 0.208957
O O8 0.669002 0.330999 0.500000
O O9 0.500000 0.258800 0.548117
O O10 0.617576 0.179675 0.396526
O O11 0.500000 0.136961 0.951216
O O12 0.613050 0.000000 0.953765
O O13 0.613316 0.121730 0.139585
O O14 0.761270 0.500000 0.766155
#
# Coordination Sequence:
#
# PCOD9557213 Si02
#       5
#     8   8   8   8   8
#     4   9  18  32  50  75 107 140 173 211 262 324
#     4  11  19  33  56  81 105 135 176 226 269 307
#     4   9  18  32  52  78 106 138 176 217 262 315
#     4  10  21  36  53  75 105 140 176 216 266 319
#     4   9  19  35  52  72 102 139 175 210 256 318
#
# _framework density 18.360658999999998
#
# number of rings (size 3 to 8) (size 9 to 14) (size 15 to 20)
#    0.000    2.400    0.000    4.200    0.000    1.000 
#    0.000    2.000    0.000    6.600    0.000   16.800 
#    0.000    0.000    0.000    0.000    0.000    0.000 
#
# Total GULP energy -222888.651070 kJ/mol
# GULP energy per Si atom -5572.216277 kJ/mol
# Density = 1.831887 g / cm^3
# Si number density = 18.360659 Si / 1000 Ang^3
#
#
#
# Elastic Constant Matrix: (Units=GPa)
#
#
# Indices 1 2 3 4 5 6 
#
# 1 57.5491 25.6796 30.2404 0.0000 0.0000 0.0000
# 2 25.6796 57.5482 30.2404 0.0000 0.0000 0.0000
# 3 30.2404 30.2404 62.1907 0.0000 0.0000 0.0000
# 4 0.0000 0.0000 0.0000 22.8338 0.0000 0.0000
# 5 0.0000 0.0000 0.0000 0.0000 22.8338 0.0000
# 6 0.0000 0.0000 0.0000 0.0000 0.0000 15.3350
#
#
#
# Elastic Compliance Matrix: (Units=1/GPa)
#
#
# Indices 1 2 3 4 5 6 
#
# 1 0.024979 -0.006399 -0.009035 0.000000 0.000000 0.000000
# 2 -0.006399 0.024980 -0.009035 0.000000 0.000000 0.000000
# 3 -0.009035 -0.009035 0.024866 0.000000 0.000000 0.000000
# 4 0.000000 0.000000 0.000000 0.043795 0.000000 0.000000
# 5 0.000000 0.000000 0.000000 0.000000 0.043795 0.000000
# 6 0.000000 0.000000 0.000000 0.000000 0.000000 0.065210
#
#
# Mechanical properties :
#
#
# Convention : Reuss Voigt Hill
#
# Bulk Modulus (GPa) = 38.62821 38.84542 38.73681
# Shear Modulus (GPa) = 17.53207 18.27569 17.90388
#
# Velocity S-wave (km/s) = 3.09345 3.15837 3.12608
# Velocity P-wave (km/s) = 5.81752 5.87395 5.84580
#
# Compressibility (1/GPa) = 0.02588782
#
# Stress axis : x y z
#
# Youngs Moduli (GPa) = 40.03313 40.03232 40.21542
#
# Poissons Ratio (x) = 0.25616 0.36334
# Poissons Ratio (y) = 0.25617 0.36335
# Poissons Ratio (z) = 0.36169 0.36169
#
# Static dielectric constant tensor:
#      x y z
#    x 1.628160 0.000000 0.000000 
#    y 0.000000 1.628160 0.000000 
#    z 0.000000 0.000000 1.654750 
# 
# From -- ./inp_files/1582.got.cif
#   From: 2010.05.17/outbox.cif.g08.bks.cpg/sg115_1_cif.got.tgz:1582.got - 2010.05.20 11:07:42.
