data_PCOD9557371
_publ_section_title
;
Structure prediction by ZEFSAII (Michael W. Deem and Ramdas Pophale) SiO2 
 PCOD9557371
Probable space group: P -4 M 2
;
_chemical_formula_sum "Si O2"
_cell_formula_units_Z 25
_cell_length_a 8.176060
_cell_length_b 8.176060
_cell_length_c 18.585653
_cell_angle_alpha 90.000000
_cell_angle_beta 90.000000
_cell_angle_gamma 90.000000
_cell_volume 1242.412935
_symmetry_space_group_name_H-M "P -4 M 2"
_symmetry_group_IT_number 115
_symmetry_cell_setting 'tetragonal'
loop_
_space_group_symop_operation_xyz
x,y,z
y,-x,-z
-x,-y,z
-y,x,-z
y,x,-z
-y,-x,-z
-x,y,z
x,-y,z
loop_
_atom_site_type_symbol
_atom_site_label
_atom_site_fract_x
_atom_site_fract_y
_atom_site_fract_z
Si Si1 0.000000 0.701810 0.889224
Si Si2 0.693616 0.306385 0.500000
Si Si3 0.000000 0.000000 0.000000
Si Si4 0.805628 0.815731 0.345748
Si Si5 0.676537 0.305654 0.799634
O O1 0.162476 0.745287 0.843141
O O2 0.000000 0.500000 0.902888
O O3 0.000000 0.829382 0.955022
O O4 0.500000 0.276551 0.499172
O O5 0.765076 0.233186 0.573063
O O6 0.730572 0.702266 0.284570
O O7 0.000000 0.813997 0.336106
O O8 0.743339 0.000000 0.333839
O O9 0.500000 0.236470 0.823160
O O10 0.670236 0.500000 0.808701
#
# Coordination Sequence:
#
# PCOD9557371 Si02
#       5
#     4   4   1   8   8
#     4  10  24  46  68 100 139 171 208 267 318 370
#     4  11  24  39  54  78 116 163 216 269 326 388
#     4  12  28  44  76 104 136 170 220 248 308 416
#     4  11  23  37  57  86 122 161 212 269 326 383
#     4  10  21  39  65  94 126 169 216 261 318 383
#
# _framework density 20.122135
#
# number of rings (size 3 to 8) (size 9 to 14) (size 15 to 20)
#    0.000    1.440    1.600    2.880    2.240   10.880 
#    0.000    0.000    0.000    0.000    0.000    0.000 
#    0.000    0.000    0.000    0.000    0.000    0.000 
#
# Total GULP energy -139573.668630 kJ/mol
# GULP energy per Si atom -5582.946745 kJ/mol
# Density = 2.007634 g / cm^3
# Si number density = 20.122135 Si / 1000 Ang^3
#
#
#
# Elastic Constant Matrix: (Units=GPa)
#
#
# Indices 1 2 3 4 5 6 
#
# 1 71.3953 41.8108 36.1261 0.0000 0.0000 0.0000
# 2 41.8108 71.3932 36.1259 0.0000 0.0000 0.0000
# 3 36.1261 36.1259 102.7195 0.0000 0.0000 0.0000
# 4 0.0000 0.0000 0.0000 36.4029 0.0000 0.0000
# 5 0.0000 0.0000 0.0000 0.0000 36.4002 0.0000
# 6 0.0000 0.0000 0.0000 0.0000 0.0000 15.4600
#
#
#
# Elastic Compliance Matrix: (Units=1/GPa)
#
#
# Indices 1 2 3 4 5 6 
#
# 1 0.022596 -0.011206 -0.004006 0.000000 0.000000 0.000000
# 2 -0.011206 0.022597 -0.004006 0.000000 0.000000 0.000000
# 3 -0.004006 -0.004006 0.012553 0.000000 0.000000 0.000000
# 4 0.000000 0.000000 0.000000 0.027470 0.000000 0.000000
# 5 0.000000 0.000000 0.000000 0.000000 0.027472 0.000000
# 6 0.000000 0.000000 0.000000 0.000000 0.000000 0.064683
#
#
# Mechanical properties :
#
#
# Convention : Reuss Voigt Hill
#
# Bulk Modulus (GPa) = 51.78702 52.62598 52.20650
# Shear Modulus (GPa) = 22.49776 26.41564 24.45670
#
# Velocity S-wave (km/s) = 3.34737 3.62714 3.49006
# Velocity P-wave (km/s) = 6.38217 6.61450 6.49937
#
# Compressibility (1/GPa) = 0.01930986
#
# Stress axis : x y z
#
# Youngs Moduli (GPa) = 44.25544 44.25393 79.66237
#
# Poissons Ratio (x) = 0.49592 0.31911
# Poissons Ratio (y) = 0.49594 0.31913
# Poissons Ratio (z) = 0.17728 0.17728
#
# Static dielectric constant tensor:
#      x y z
#    x 1.725470 0.000000 0.000000 
#    y 0.000000 1.725470 0.000000 
#    z 0.000000 0.000000 1.702150 
# 
# From -- ./inp_files/4076.got.cif
#   From: 2010.05.17/outbox.cif.g08.bks.cpg/sg115_3_cif.got.tgz:4076.got - 2010.05.20 11:07:42.
