data_PCOD9557531
_publ_section_title
;
Structure prediction by ZEFSAII (Michael W. Deem and Ramdas Pophale) SiO2 
 PCOD9557531
Probable space group: P -4 C 2
;
_chemical_formula_sum "Si O2"
_cell_formula_units_Z 40
_cell_length_a 8.134170
_cell_length_b 8.134170
_cell_length_c 25.206099
_cell_angle_alpha 90.000000
_cell_angle_beta 90.000000
_cell_angle_gamma 90.000000
_cell_volume 1667.754523
_symmetry_space_group_name_H-M "P -4 C 2"
_symmetry_group_IT_number 116
_symmetry_cell_setting 'tetragonal'
loop_
_space_group_symop_operation_xyz
x,y,z
y,-x,-z
-x,-y,z
-y,x,-z
y,x,1/2-z
-y,-x,1/2-z
-x,y,1/2+z
x,-y,1/2+z
loop_
_atom_site_type_symbol
_atom_site_label
_atom_site_fract_x
_atom_site_fract_y
_atom_site_fract_z
Si Si1 0.195377 0.456201 0.918551
Si Si2 0.719374 0.792698 0.376639
Si Si3 0.245127 0.087462 0.672061
Si Si4 0.757801 0.886988 0.488024
Si Si5 0.045042 0.707598 0.721730
O O1 0.304028 0.612886 0.902707
O O2 0.205874 0.330273 0.869952
O O3 0.213078 0.367641 0.975032
O O4 0.000000 0.500000 0.917894
O O5 0.703916 0.909360 0.427439
O O6 0.617180 0.855732 0.325598
O O7 0.910508 0.782678 0.356201
O O8 0.079622 0.173681 0.690800
O O9 0.347253 0.059613 0.726726
O O10 0.933299 0.793941 0.487821
O O11 0.184471 0.815529 0.750000
#
# Coordination Sequence:
#
# PCOD9557531 Si02
#       5
#     8   8   8   8   8
#     4  10  19  32  45  76 114 139 168 221 266 308
#     4  10  18  29  47  75 109 138 171 212 265 315
#     4   9  15  28  47  75 109 130 170 211 270 316
#     4  11  20  29  51  78 104 138 174 212 264 313
#     4   9  16  26  49  79 103 132 170 212 261 327
#
# _framework density 23.984345999999999
#
# number of rings (size 3 to 8) (size 9 to 14) (size 15 to 20)
#    0.000    2.200    4.000    5.400    2.800    0.000 
#    0.000    0.000    0.000    9.000    0.000    0.000 
#    0.000    0.000    0.000    0.000    0.000    0.000 
#
# Total GULP energy -222915.769750 kJ/mol
# GULP energy per Si atom -5572.894244 kJ/mol
# Density = 2.392976 g / cm^3
# Si number density = 23.984346 Si / 1000 Ang^3
#
#
#
# Elastic Constant Matrix: (Units=GPa)
#
#
# Indices 1 2 3 4 5 6 
#
# 1 52.6511 -3.6313 15.2440 0.0000 0.0000 0.0000
# 2 -3.6313 52.6517 15.2437 0.0000 0.0000 0.0000
# 3 15.2440 15.2437 204.6257 0.0000 0.0000 0.0000
# 4 0.0000 0.0000 0.0000 -111.3509 0.0000 0.0000
# 5 0.0000 0.0000 0.0000 0.0000 -111.3512 0.0000
# 6 0.0000 0.0000 0.0000 0.0000 0.0000 13.7808
#
#
#
# Elastic Compliance Matrix: (Units=1/GPa)
#
#
# Indices 1 2 3 4 5 6 
#
# 1 0.019579 0.001812 -0.001594 0.000000 0.000000 0.000000
# 2 0.001812 0.019579 -0.001594 0.000000 0.000000 0.000000
# 3 -0.001594 -0.001594 0.005124 0.000000 0.000000 0.000000
# 4 0.000000 0.000000 0.000000 -0.008981 0.000000 0.000000
# 5 0.000000 0.000000 0.000000 0.000000 -0.008981 0.000000
# 6 0.000000 0.000000 0.000000 0.000000 0.000000 0.072565
#
#
# Mechanical properties :
#
#
# Convention : Reuss Voigt Hill
#
# Bulk Modulus (GPa) = 24.07782 40.40459 32.24121
# Shear Modulus (GPa) = 43.29718 -22.91280 10.19219
#
# Velocity S-wave (km/s) = 4.25341 -3.09418 2.06367
# Velocity P-wave (km/s) = 5.84660 2.02917 4.37608
#
# Compressibility (1/GPa) = 0.04153199
#
# Stress axis : x y z
#
# Youngs Moduli (GPa) = 51.07439 51.07502 195.14496
#
# Poissons Ratio (x) = -0.09253 0.31097
# Poissons Ratio (y) = -0.09253 0.31097
# Poissons Ratio (z) = 0.08139 0.08139
#
# Static dielectric constant tensor:
#      x y z
#    x 2.127410 0.000000 0.000000 
#    y 0.000000 2.127410 0.000000 
#    z 0.000000 0.000000 2.033120 
# 
# From -- ./inp_files/4418.got.cif
#   From: 2010.05.17/outbox.cif.g08.bks.cpg/sg116_3_cif.got.tgz:4418.got - 2010.05.20 11:11:43.
