data_PCOD9557802
_publ_section_title
;
Structure prediction by ZEFSAII (Michael W. Deem and Ramdas Pophale) SiO2 
 PCOD9557802
Probable space group: P -4 C 2
;
_chemical_formula_sum "Si O2"
_cell_formula_units_Z 56
_cell_length_a 15.058837
_cell_length_b 15.058837
_cell_length_c 11.499671
_cell_angle_alpha 90.000000
_cell_angle_beta 90.000000
_cell_angle_gamma 90.000000
_cell_volume 2607.763969
_symmetry_space_group_name_H-M "P -4 C 2"
_symmetry_group_IT_number 116
_symmetry_cell_setting 'tetragonal'
loop_
_space_group_symop_operation_xyz
x,y,z
y,-x,-z
-x,-y,z
-y,x,-z
y,x,1/2-z
-y,-x,1/2-z
-x,y,1/2+z
x,-y,1/2+z
loop_
_atom_site_type_symbol
_atom_site_label
_atom_site_fract_x
_atom_site_fract_y
_atom_site_fract_z
Si Si1 0.102363 0.770651 0.230708
Si Si2 0.916331 0.612815 0.062678
Si Si3 0.433598 0.628371 0.990603
Si Si4 0.221246 0.630685 0.362199
Si Si5 0.658504 0.884338 0.999790
Si Si6 0.514302 0.211682 0.361697
Si Si7 0.103212 0.750539 0.757748
O O1 0.128232 0.871768 0.250000
O O2 0.172072 0.716408 0.310518
O O3 0.113577 0.735366 0.099209
O O4 0.002666 0.757298 0.272477
O O5 0.882528 0.537372 0.151105
O O6 0.889866 0.701110 0.133462
O O7 0.016651 0.616302 0.017374
O O8 0.849455 0.597956 0.956798
O O9 0.454833 0.702709 0.893039
O O10 0.532403 0.606229 0.042138
O O11 0.369115 0.682169 0.078237
O O12 0.229513 0.563733 0.256886
O O13 0.587121 0.811657 0.960095
O O14 0.695167 0.866884 0.128406
O O15 0.159469 0.840532 0.750000
#
# Coordination Sequence:
#
# PCOD9557802 Si02
#       7
#     8   8   8   8   8   8   8
#     4  10  23  41  69  95 129 175 224 277 331 407
#     4  10  22  42  62  96 135 168 218 276 335 398
#     4  10  24  42  60  91 134 173 219 279 339 407
#     4  10  22  42  67  94 129 170 226 274 336 409
#     4  10  22  41  65  94 133 172 214 278 337 398
#     4  10  23  40  66  97 120 178 219 270 337 400
#     4  11  25  41  65  99 137 175 217 275 344 405
#
# _framework density 21.474335
#
# number of rings (size 3 to 8) (size 9 to 14) (size 15 to 20)
#    0.000    1.857    1.429    0.429   10.000    2.000 
#    0.000    1.429    0.000    1.714    0.000    0.000 
#    0.000    0.000    0.000    0.000    0.000    0.000 
#
# Total GULP energy -312287.257091 kJ/mol
# GULP energy per Si atom -5576.558162 kJ/mol
# Density = 2.142546 g / cm^3
# Si number density = 21.474335 Si / 1000 Ang^3
#
#
#
# Elastic Constant Matrix: (Units=GPa)
#
#
# Indices 1 2 3 4 5 6 
#
# 1 67.9651 44.1453 24.8153 0.0000 0.0000 0.0000
# 2 44.1453 67.9567 24.8155 0.0000 0.0000 0.0000
# 3 24.8153 24.8155 60.3665 0.0000 0.0000 0.0000
# 4 0.0000 0.0000 0.0000 9.4509 0.0000 0.0000
# 5 0.0000 0.0000 0.0000 0.0000 9.4509 0.0000
# 6 0.0000 0.0000 0.0000 0.0000 0.0000 43.6685
#
#
#
# Elastic Compliance Matrix: (Units=1/GPa)
#
#
# Indices 1 2 3 4 5 6 
#
# 1 0.026445 -0.015542 -0.004482 0.000000 0.000000 0.000000
# 2 -0.015542 0.026449 -0.004484 0.000000 0.000000 0.000000
# 3 -0.004482 -0.004484 0.020251 0.000000 0.000000 0.000000
# 4 0.000000 0.000000 0.000000 0.105810 0.000000 0.000000
# 5 0.000000 0.000000 0.000000 0.000000 0.105810 0.000000
# 6 0.000000 0.000000 0.000000 0.000000 0.000000 0.022900
#
#
# Mechanical properties :
#
#
# Convention : Reuss Voigt Hill
#
# Bulk Modulus (GPa) = 41.44294 42.64893 42.04593
# Shear Modulus (GPa) = 13.70900 19.34819 16.52859
#
# Velocity S-wave (km/s) = 2.52938 3.00491 2.77734
# Velocity P-wave (km/s) = 5.27931 5.65180 5.46872
#
# Compressibility (1/GPa) = 0.02412956
#
# Stress axis : x y z
#
# Youngs Moduli (GPa) = 37.81428 37.80864 49.38046
#
# Poissons Ratio (x) = 0.58764 0.22131
# Poissons Ratio (y) = 0.58772 0.22140
# Poissons Ratio (z) = 0.16948 0.16952
#
# Static dielectric constant tensor:
#      x y z
#    x 1.815580 0.000000 0.000000 
#    y 0.000000 1.815580 0.000000 
#    z 0.000000 0.000000 1.815130 
# 
# From -- ./inp_files/1984.got.cif
#   From: 2010.05.17/outbox.cif.g08.bks.cpg/sg116_1_cif.got.tgz:1984.got - 2010.05.20 11:11:43.
