data_PCOD9557053
_publ_section_title
;
Structure prediction by ZEFSAII (Michael W. Deem and Ramdas Pophale) SiO2 
 PCOD9557053
Probable space group: P -4 M 2
;
_chemical_formula_sum "Si O2"
_cell_formula_units_Z 56
_cell_length_a 15.576108
_cell_length_b 15.576108
_cell_length_c 10.937068
_cell_angle_alpha 90.000000
_cell_angle_beta 90.000000
_cell_angle_gamma 90.000000
_cell_volume 2653.498289
_symmetry_space_group_name_H-M "P -4 M 2"
_symmetry_group_IT_number 115
_symmetry_cell_setting 'tetragonal'
loop_
_space_group_symop_operation_xyz
x,y,z
y,-x,-z
-x,-y,z
-y,x,-z
y,x,-z
-y,-x,-z
-x,y,z
x,-y,z
loop_
_atom_site_type_symbol
_atom_site_label
_atom_site_fract_x
_atom_site_fract_y
_atom_site_fract_z
Si Si1 0.833585 0.404390 0.324789
Si Si2 0.160494 0.094779 0.314384
Si Si3 0.286628 0.903846 0.082673
Si Si4 0.664817 0.097397 0.428577
Si Si5 0.742985 0.905422 0.808220
Si Si6 0.598910 0.773970 0.223410
Si Si7 0.405285 0.633717 0.640394
O O1 0.858424 0.500000 0.284700
O O2 0.890348 0.371867 0.437306
O O3 0.839094 0.331045 0.224022
O O4 0.736356 0.406105 0.369686
O O5 0.218355 0.091293 0.191625
O O6 0.232296 0.110436 0.418382
O O7 0.102944 0.175932 0.281552
O O8 0.120968 0.000000 0.333440
O O9 0.344462 0.821046 0.117935
O O10 0.330049 0.000000 0.081015
O O11 0.240266 0.895706 0.952058
O O12 0.620618 0.166083 0.340407
O O13 0.648658 0.000000 0.386151
O O14 0.705503 0.000000 0.790414
O O15 0.500000 0.782042 0.188958
O O16 0.612372 0.676065 0.272362
O O17 0.397031 0.602970 0.500000
O O18 0.500000 0.606588 0.687467
#
# Coordination Sequence:
#
# PCOD9557053 Si02
#       7
#     8   8   8   8   8   8   8
#     4  11  23  38  57  84 119 161 206 249 306 378
#     4   9  19  36  59  84 112 152 201 251 305 364
#     4   9  20  38  58  86 121 158 205 253 301 363
#     4  10  20  35  56  84 118 154 200 256 305 358
#     4  11  23  37  58  88 123 162 200 249 312 369
#     4  11  21  35  59  88 117 156 201 248 309 369
#     4  11  23  39  59  88 124 158 200 253 312 380
#
# _framework density 21.104215
#
# number of rings (size 3 to 8) (size 9 to 14) (size 15 to 20)
#    0.000    1.714    1.429    4.714    0.000    4.714 
#    0.000    1.429    0.000    2.571    0.000    4.000 
#    0.000    6.857    0.000    0.000    0.000    0.000 
#
# Total GULP energy -312209.364234 kJ/mol
# GULP energy per Si atom -5575.167218 kJ/mol
# Density = 2.105618 g / cm^3
# Si number density = 21.104215 Si / 1000 Ang^3
#
#
#
# Elastic Constant Matrix: (Units=GPa)
#
#
# Indices 1 2 3 4 5 6 
#
# 1 100.5955 29.2736 16.9873 0.0000 0.0000 0.0000
# 2 29.2736 100.5957 16.9872 0.0000 0.0000 0.0000
# 3 16.9873 16.9872 8.9793 0.0000 0.0000 0.0000
# 4 0.0000 0.0000 0.0000 18.6516 0.0000 0.0000
# 5 0.0000 0.0000 0.0000 0.0000 18.6521 0.0000
# 6 0.0000 0.0000 0.0000 0.0000 0.0000 -112.5076
#
#
#
# Elastic Compliance Matrix: (Units=1/GPa)
#
#
# Indices 1 2 3 4 5 6 
#
# 1 0.014633 0.000612 -0.028841 0.000000 0.000000 0.000000
# 2 0.000612 0.014633 -0.028841 0.000000 0.000000 0.000000
# 3 -0.028841 -0.028841 0.220491 0.000000 0.000000 0.000000
# 4 0.000000 0.000000 0.000000 0.053615 0.000000 0.000000
# 5 0.000000 0.000000 0.000000 0.000000 0.053613 0.000000
# 6 0.000000 0.000000 0.000000 0.000000 0.000000 -0.008888
#
#
# Mechanical properties :
#
#
# Convention : Reuss Voigt Hill
#
# Bulk Modulus (GPa) = 7.37367 37.40740 22.39053
# Shear Modulus (GPa) = 9.85334 -5.24597 2.30369
#
# Velocity S-wave (km/s) = 2.16311 -1.57833 1.04592
# Velocity P-wave (km/s) = 3.12093 3.80027 3.47723
#
# Compressibility (1/GPa) = 0.13561772
#
# Stress axis : x y z
#
# Youngs Moduli (GPa) = 68.33879 68.33912 4.53533
#
# Poissons Ratio (x) = -0.04183 0.13080
# Poissons Ratio (y) = -0.04183 0.13080
# Poissons Ratio (z) = 1.97095 1.97095
#
# Static dielectric constant tensor:
#      x y z
#    x 1.794770 0.000000 0.000000 
#    y 0.000000 1.794770 0.000000 
#    z 0.000000 0.000000 1.795510 
# 
# From -- ./inp_files/3070.got.cif
#   From: 2010.05.17/outbox.cif.g08.bks.cpg/sg115_2_cif.got.tgz:3070.got - 2010.05.20 11:07:42.
