data_PCOD9557737
_publ_section_title
;
Structure prediction by ZEFSAII (Michael W. Deem and Ramdas Pophale) SiO2 
 PCOD9557737
Probable space group: P -4 C 2
;
_chemical_formula_sum "Si O2"
_cell_formula_units_Z 56
_cell_length_a 15.831429
_cell_length_b 15.831429
_cell_length_c 10.414438
_cell_angle_alpha 90.000000
_cell_angle_beta 90.000000
_cell_angle_gamma 90.000000
_cell_volume 2610.213755
_symmetry_space_group_name_H-M "P -4 C 2"
_symmetry_group_IT_number 116
_symmetry_cell_setting 'tetragonal'
loop_
_space_group_symop_operation_xyz
x,y,z
y,-x,-z
-x,-y,z
-y,x,-z
y,x,1/2-z
-y,-x,1/2-z
-x,y,1/2+z
x,-y,1/2+z
loop_
_atom_site_type_symbol
_atom_site_label
_atom_site_fract_x
_atom_site_fract_y
_atom_site_fract_z
Si Si1 0.987316 0.727535 0.343732
Si Si2 0.911581 0.697067 0.592824
Si Si3 0.149284 0.207550 0.932158
Si Si4 0.703020 0.175530 0.797451
Si Si5 0.253538 0.466915 0.259901
Si Si6 0.479771 0.362420 0.993414
Si Si7 0.226556 0.646591 0.251721
O O1 0.967305 0.673466 0.470712
O O2 0.893908 0.745735 0.294082
O O3 0.031976 0.686991 0.219751
O O4 0.051512 0.800341 0.390948
O O5 0.876650 0.794033 0.577281
O O6 0.823355 0.649134 0.616386
O O7 0.185875 0.278768 0.835918
O O8 0.157132 0.256093 0.065942
O O9 0.733947 0.266054 0.750000
O O10 0.602811 0.184743 0.781349
O O11 0.310524 0.444087 0.383837
O O12 0.212662 0.554925 0.306465
O O13 0.307611 0.494218 0.132597
O O14 0.411583 0.435229 0.962790
O O15 0.323369 0.676632 0.250000
#
# Coordination Sequence:
#
# PCOD9557737 Si02
#       7
#     8   8   8   8   8   8   8
#     4  11  21  39  66  95 125 164 214 261 321 390
#     4  10  21  39  70  96 126 169 213 262 324 396
#     4  10  21  43  65  95 124 174 214 256 324 400
#     4  12  24  38  64  94 126 164 218 271 321 386
#     4  12  25  39  63  94 129 169 225 272 321 387
#     4  11  23  40  60  87 126 171 217 279 344 389
#     4   9  20  38  64  90 127 173 218 264 319 380
#
# _framework density 21.454181999999999
#
# number of rings (size 3 to 8) (size 9 to 14) (size 15 to 20)
#    0.000    1.286    2.857    4.714    2.000    2.286 
#    0.000    2.857    0.000    5.571    0.000    0.000 
#    0.000    0.000    0.000    0.000    0.000    0.000 
#
# Total GULP energy -311812.199047 kJ/mol
# GULP energy per Si atom -5568.074983 kJ/mol
# Density = 2.140535 g / cm^3
# Si number density = 21.454182 Si / 1000 Ang^3
#
#
#
# Elastic Constant Matrix: (Units=GPa)
#
#
# Indices 1 2 3 4 5 6 
#
# 1 82.0915 16.7031 22.9324 0.0000 0.0000 0.0000
# 2 16.7031 82.0910 22.9324 0.0000 0.0000 0.0000
# 3 22.9324 22.9324 142.7977 0.0000 0.0000 0.0000
# 4 0.0000 0.0000 0.0000 30.8168 0.0000 0.0000
# 5 0.0000 0.0000 0.0000 0.0000 30.8170 0.0000
# 6 0.0000 0.0000 0.0000 0.0000 0.0000 16.3682
#
#
#
# Elastic Compliance Matrix: (Units=1/GPa)
#
#
# Indices 1 2 3 4 5 6 
#
# 1 0.013115 -0.002178 -0.001756 0.000000 0.000000 0.000000
# 2 -0.002178 0.013115 -0.001756 0.000000 0.000000 0.000000
# 3 -0.001756 -0.001756 0.007567 0.000000 0.000000 0.000000
# 4 0.000000 0.000000 0.000000 0.032450 0.000000 0.000000
# 5 0.000000 0.000000 0.000000 0.000000 0.032450 0.000000
# 6 0.000000 0.000000 0.000000 0.000000 0.000000 0.061094
#
#
# Mechanical properties :
#
#
# Convention : Reuss Voigt Hill
#
# Bulk Modulus (GPa) = 44.61088 48.01292 46.31190
# Shear Modulus (GPa) = 27.98848 31.89457 29.94152
#
# Velocity S-wave (km/s) = 3.61580 3.85988 3.73983
# Velocity P-wave (km/s) = 6.18633 6.50329 6.34679
#
# Compressibility (1/GPa) = 0.02241606
#
# Stress axis : x y z
#
# Youngs Moduli (GPa) = 76.24658 76.24612 132.15145
#
# Poissons Ratio (x) = 0.16606 0.23212
# Poissons Ratio (y) = 0.16606 0.23212
# Poissons Ratio (z) = 0.13393 0.13393
#
# Static dielectric constant tensor:
#      x y z
#    x 1.839160 0.000000 0.000000 
#    y 0.000000 1.839160 0.000000 
#    z 0.000000 0.000000 1.920540 
# 
# From -- ./inp_files/1992.got.cif
#   From: 2010.05.17/outbox.cif.g08.bks.cpg/sg116_1_cif.got.tgz:1992.got - 2010.05.20 11:11:43.
