data_PCOD9557072
_publ_section_title
;
Structure prediction by ZEFSAII (Michael W. Deem and Ramdas Pophale) SiO2 
 PCOD9557072
Probable space group: P -4 M 2
;
_chemical_formula_sum "Si O2"
_cell_formula_units_Z 29
_cell_length_a 8.408547
_cell_length_b 8.408547
_cell_length_c 21.439016
_cell_angle_alpha 90.000000
_cell_angle_beta 90.000000
_cell_angle_gamma 90.000000
_cell_volume 1515.816955
_symmetry_space_group_name_H-M "P -4 M 2"
_symmetry_group_IT_number 115
_symmetry_cell_setting 'tetragonal'
loop_
_space_group_symop_operation_xyz
x,y,z
y,-x,-z
-x,-y,z
-y,x,-z
y,x,-z
-y,-x,-z
-x,y,z
x,-y,z
loop_
_atom_site_type_symbol
_atom_site_label
_atom_site_fract_x
_atom_site_fract_y
_atom_site_fract_z
Si Si1 0.817832 0.191867 0.195357
Si Si2 0.000000 0.000000 0.500000
Si Si3 0.177844 0.000000 0.622071
Si Si4 0.323885 0.689303 0.320231
Si Si5 0.687299 0.185684 0.063977
O O1 0.705593 0.260363 0.248655
O O2 0.776154 0.246926 0.125558
O O3 0.000000 0.233839 0.210513
O O4 0.802875 0.000000 0.195549
O O5 0.852531 0.000000 0.547647
O O6 0.253810 0.833586 0.643016
O O7 0.000000 0.000000 0.651040
O O8 0.500000 0.749331 0.340483
O O9 0.326448 0.500000 0.324333
O O10 0.500000 0.193794 0.076566
O O11 0.731757 0.000000 0.055429
O O12 0.727309 0.272692 0.000000
#
# Coordination Sequence:
#
# PCOD9557072 Si02
#       5
#     8   1   4   8   8
#     4  10  20  35  58  87 115 154 209 265 320 381
#     4   8  24  44  72 100 128 164 218 248 300 356
#     4  10  21  43  68  96 127 166 217 258 302 369
#     4  11  23  38  61  96 136 173 210 263 326 382
#     4  10  21  36  53  75 107 150 202 258 318 383
#
# _framework density 19.131596999999999
#
# number of rings (size 3 to 8) (size 9 to 14) (size 15 to 20)
#    0.414    1.379    1.379    2.897    0.000    6.069 
#    0.000    2.759    0.000    1.655    0.000    0.000 
#    0.000    0.000    0.000    0.000    0.000    0.000 
#
# Total GULP energy -161770.549331 kJ/mol
# GULP energy per Si atom -5578.294805 kJ/mol
# Density = 1.908805 g / cm^3
# Si number density = 19.131597 Si / 1000 Ang^3
#
#
#
# Elastic Constant Matrix: (Units=GPa)
#
#
# Indices 1 2 3 4 5 6 
#
# 1 84.3380 45.0765 34.1314 0.0000 0.0000 0.0000
# 2 45.0765 84.3367 34.1307 0.0000 0.0000 0.0000
# 3 34.1314 34.1307 108.5828 0.0000 0.0000 0.0000
# 4 0.0000 0.0000 0.0000 -3.4507 0.0000 0.0000
# 5 0.0000 0.0000 0.0000 0.0000 -3.4503 0.0000
# 6 0.0000 0.0000 0.0000 0.0000 0.0000 24.9914
#
#
#
# Elastic Compliance Matrix: (Units=1/GPa)
#
#
# Indices 1 2 3 4 5 6 
#
# 1 0.017367 -0.008104 -0.002912 0.000000 0.000000 0.000000
# 2 -0.008104 0.017367 -0.002912 0.000000 0.000000 0.000000
# 3 -0.002912 -0.002912 0.011040 0.000000 0.000000 0.000000
# 4 0.000000 0.000000 0.000000 -0.289797 0.000000 0.000000
# 5 0.000000 0.000000 0.000000 0.000000 -0.289827 0.000000
# 6 0.000000 0.000000 0.000000 0.000000 0.000000 0.040014
#
#
# Mechanical properties :
#
#
# Convention : Reuss Voigt Hill
#
# Bulk Modulus (GPa) = 55.80562 55.99275 55.89919
# Shear Modulus (GPa) = -10.86934 14.54601 1.83833
#
# Velocity S-wave (km/s) = -2.38614 2.76037 0.98131
# Velocity P-wave (km/s) = 4.65200 6.28412 5.52862
#
# Compressibility (1/GPa) = 0.01791934
#
# Stress axis : x y z
#
# Youngs Moduli (GPa) = 57.58144 57.58079 90.57965
#
# Poissons Ratio (x) = 0.46663 0.26374
# Poissons Ratio (y) = 0.46663 0.26373
# Poissons Ratio (z) = 0.16766 0.16765
#
# Static dielectric constant tensor:
#      x y z
#    x 1.694480 0.000000 0.000000 
#    y 0.000000 1.694480 0.000000 
#    z 0.000000 0.000000 1.653650 
# 
# From -- ./inp_files/4534.got.cif
#   From: 2010.05.17/outbox.cif.g08.bks.cpg/sg115_3_cif.got.tgz:4534.got - 2010.05.20 11:07:42.
