data_PCOD9557103
_publ_section_title
;
Structure prediction by ZEFSAII (Michael W. Deem and Ramdas Pophale) SiO2 
 PCOD9557103
Probable space group: P -4 M 2
;
_chemical_formula_sum "Si O2"
_cell_formula_units_Z 56
_cell_length_a 14.994715
_cell_length_b 14.994715
_cell_length_c 11.679513
_cell_angle_alpha 90.000000
_cell_angle_beta 90.000000
_cell_angle_gamma 90.000000
_cell_volume 2626.038964
_symmetry_space_group_name_H-M "P -4 M 2"
_symmetry_group_IT_number 115
_symmetry_cell_setting 'tetragonal'
loop_
_space_group_symop_operation_xyz
x,y,z
y,-x,-z
-x,-y,z
-y,x,-z
y,x,-z
-y,-x,-z
-x,y,z
x,-y,z
loop_
_atom_site_type_symbol
_atom_site_label
_atom_site_fract_x
_atom_site_fract_y
_atom_site_fract_z
Si Si1 0.838250 0.103308 0.620986
Si Si2 0.603203 0.899296 0.893258
Si Si3 0.654797 0.231972 0.087812
Si Si4 0.142323 0.596416 0.572669
Si Si5 0.905005 0.253766 0.751350
Si Si6 0.597945 0.331323 0.307544
Si Si7 0.196186 0.345506 0.337066
O O1 0.886900 0.113101 0.500000
O O2 0.899130 0.151286 0.714661
O O3 0.754344 0.171532 0.621951
O O4 0.814356 0.000000 0.641508
O O5 0.500000 0.905647 0.861824
O O6 0.646555 0.846080 0.788297
O O7 0.639224 0.000000 0.905224
O O8 0.608205 0.842284 0.009559
O O9 0.721982 0.176229 0.167174
O O10 0.600465 0.290801 0.178831
O O11 0.703696 0.296304 0.000000
O O12 0.105901 0.500000 0.611109
O O13 0.100962 0.680150 0.640204
O O14 0.245998 0.597867 0.609123
O O15 0.143811 0.601164 0.435726
O O16 0.000000 0.272727 0.807485
O O17 0.500000 0.377217 0.323080
O O18 0.698057 0.370407 0.329116
#
# Coordination Sequence:
#
# PCOD9557103 Si02
#       7
#     8   8   8   8   8   8   8
#     4  12  23  38  60  87 125 169 214 260 311 381
#     4  11  24  39  59  91 127 167 215 266 324 388
#     4  11  20  40  63  87 121 165 217 266 323 384
#     4  10  21  37  61  92 123 163 204 252 323 387
#     4  11  23  39  60  89 125 164 216 272 322 381
#     4  10  20  36  63  92 121 160 211 261 318 385
#     4  12  20  40  63  92 130 167 209 261 326 387
#
# _framework density 21.324892999999999
#
# number of rings (size 3 to 8) (size 9 to 14) (size 15 to 20)
#    0.000    1.000    5.714    2.571    0.000    2.429 
#    0.000    0.714    0.000    1.714    0.000    5.000 
#    0.000    0.000    0.000    0.000    0.000    0.000 
#
# Total GULP energy -312146.839221 kJ/mol
# GULP energy per Si atom -5574.050700 kJ/mol
# Density = 2.127636 g / cm^3
# Si number density = 21.324893 Si / 1000 Ang^3
#
#
#
# Elastic Constant Matrix: (Units=GPa)
#
#
# Indices 1 2 3 4 5 6 
#
# 1 89.0303 -0.6616 1.2888 0.0000 0.0000 0.0000
# 2 -0.6616 89.0271 1.2884 0.0000 0.0000 0.0000
# 3 1.2888 1.2884 83.7455 0.0000 0.0000 0.0000
# 4 0.0000 0.0000 0.0000 14.1073 0.0000 0.0000
# 5 0.0000 0.0000 0.0000 0.0000 14.1076 0.0000
# 6 0.0000 0.0000 0.0000 0.0000 0.0000 9.8014
#
#
#
# Elastic Compliance Matrix: (Units=1/GPa)
#
#
# Indices 1 2 3 4 5 6 
#
# 1 0.011235 0.000086 -0.000174 0.000000 0.000000 0.000000
# 2 0.000086 0.011236 -0.000174 0.000000 0.000000 0.000000
# 3 -0.000174 -0.000174 0.011946 0.000000 0.000000 0.000000
# 4 0.000000 0.000000 0.000000 0.070885 0.000000 0.000000
# 5 0.000000 0.000000 0.000000 0.000000 0.070884 0.000000
# 6 0.000000 0.000000 0.000000 0.000000 0.000000 0.102026
#
#
# Mechanical properties :
#
#
# Convention : Reuss Voigt Hill
#
# Bulk Modulus (GPa) = 29.50504 29.51489 29.50996
# Shear Modulus (GPa) = 17.23930 24.92908 21.08419
#
# Velocity S-wave (km/s) = 2.84634 3.42279 3.14779
# Velocity P-wave (km/s) = 4.96671 5.43059 5.20382
#
# Compressibility (1/GPa) = 0.03389252
#
# Stress axis : x y z
#
# Youngs Moduli (GPa) = 89.00523 89.00204 83.70794
#
# Poissons Ratio (x) = -0.00766 0.01458
# Poissons Ratio (y) = -0.00766 0.01458
# Poissons Ratio (z) = 0.01551 0.01550
#
# Static dielectric constant tensor:
#      x y z
#    x 1.850030 0.000000 0.000000 
#    y 0.000000 1.850040 0.000000 
#    z 0.000000 0.000000 1.761250 
# 
# From -- ./inp_files/3067.got.cif
#   From: 2010.05.17/outbox.cif.g08.bks.cpg/sg115_2_cif.got.tgz:3067.got - 2010.05.20 11:07:42.
