data_PCOD9557842
_publ_section_title
;
Structure prediction by ZEFSAII (Michael W. Deem and Ramdas Pophale) SiO2 
 PCOD9557842
Probable space group: P -4 C 2
;
_chemical_formula_sum "Si O2"
_cell_formula_units_Z 42
_cell_length_a 15.382413
_cell_length_b 15.382413
_cell_length_c 9.115555
_cell_angle_alpha 90.000000
_cell_angle_beta 90.000000
_cell_angle_gamma 90.000000
_cell_volume 2156.910133
_symmetry_space_group_name_H-M "P -4 C 2"
_symmetry_group_IT_number 116
_symmetry_cell_setting 'tetragonal'
loop_
_space_group_symop_operation_xyz
x,y,z
y,-x,-z
-x,-y,z
-y,x,-z
y,x,1/2-z
-y,-x,1/2-z
-x,y,1/2+z
x,-y,1/2+z
loop_
_atom_site_type_symbol
_atom_site_label
_atom_site_fract_x
_atom_site_fract_y
_atom_site_fract_z
Si Si1 0.100275 0.326344 0.503944
Si Si2 0.424735 0.318164 0.430693
Si Si3 0.500000 0.500000 0.000000
Si Si4 0.361662 0.077972 0.661086
Si Si5 0.524272 0.797906 0.153074
Si Si6 0.735532 0.756246 0.573120
O O1 0.072989 0.331942 0.672002
O O2 0.163153 0.403779 0.453488
O O3 0.167837 0.245760 0.505660
O O4 0.014764 0.341956 0.409067
O O5 0.462284 0.415469 0.412739
O O6 0.440510 0.249979 0.298476
O O7 0.473394 0.277452 0.569651
O O8 0.324877 0.310579 0.482264
O O9 0.457897 0.120758 0.674377
O O10 0.308281 0.149538 0.568669
O O11 0.734992 0.734992 0.750000
#
# Coordination Sequence:
#
# PCOD9557842 Si02
#       6
#     8   8   2   8   8   8
#     4  11  22  40  65  91 124 164 212 267 331 396
#     4  11  25  40  60  87 125 178 226 276 322 377
#     4  12  28  38  60  90 124 174 244 274 312 382
#     4  10  23  39  64  94 125 166 209 272 325 390
#     4  11  23  41  60  88 127 169 223 274 331 372
#     4   9  22  44  63  86 132 172 208 268 337 397
#
# _framework density 19.472299
#
# number of rings (size 3 to 8) (size 9 to 14) (size 15 to 20)
#    0.000    1.524    1.905    1.714   10.667    5.333 
#    0.000    0.000    0.000    0.571    0.000    4.000 
#    0.000    0.000    0.000    0.000    0.000    0.000 
#
# Total GULP energy -234068.249165 kJ/mol
# GULP energy per Si atom -5573.053552 kJ/mol
# Density = 1.942798 g / cm^3
# Si number density = 19.472299 Si / 1000 Ang^3
#
#
#
# Elastic Constant Matrix: (Units=GPa)
#
#
# Indices 1 2 3 4 5 6 
#
# 1 116.7372 47.8992 30.0323 0.0000 0.0000 0.0000
# 2 47.8992 116.7372 30.0323 0.0000 0.0000 0.0000
# 3 30.0323 30.0323 58.4346 0.0000 0.0000 0.0000
# 4 0.0000 0.0000 0.0000 24.4155 0.0000 0.0000
# 5 0.0000 0.0000 0.0000 0.0000 24.4155 0.0000
# 6 0.0000 0.0000 0.0000 0.0000 0.0000 9.7364
#
#
#
# Elastic Compliance Matrix: (Units=1/GPa)
#
#
# Indices 1 2 3 4 5 6 
#
# 1 0.011001 -0.003526 -0.003842 0.000000 0.000000 0.000000
# 2 -0.003526 0.011001 -0.003842 0.000000 0.000000 0.000000
# 3 -0.003842 -0.003842 0.021062 0.000000 0.000000 0.000000
# 4 0.000000 0.000000 0.000000 0.040958 0.000000 0.000000
# 5 0.000000 0.000000 0.000000 0.000000 0.040958 0.000000
# 6 0.000000 0.000000 0.000000 0.000000 0.000000 0.102707
#
#
# Mechanical properties :
#
#
# Convention : Reuss Voigt Hill
#
# Bulk Modulus (GPa) = 48.43700 56.42631 52.43165
# Shear Modulus (GPa) = 19.45608 23.97648 21.71628
#
# Velocity S-wave (km/s) = 3.16439 3.51281 3.34314
# Velocity P-wave (km/s) = 6.18708 6.74491 6.47201
#
# Compressibility (1/GPa) = 0.02064537
#
# Stress axis : x y z
#
# Youngs Moduli (GPa) = 90.89840 90.89840 47.47787
#
# Poissons Ratio (x) = 0.32047 0.18242
# Poissons Ratio (y) = 0.32047 0.18242
# Poissons Ratio (z) = 0.34924 0.34924
#
# Static dielectric constant tensor:
#      x y z
#    x 1.736030 0.000000 0.000000 
#    y 0.000000 1.736030 0.000000 
#    z 0.000000 0.000000 1.700050 
# 
# From -- ./inp_files/835.got.cif
#   From: 2010.05.17/outbox.cif.g08.bks.cpg/sg116_1_cif.got.tgz:835.got - 2010.05.20 11:11:43.
