data_PCOD9557856
_publ_section_title
;
Structure prediction by ZEFSAII (Michael W. Deem and Ramdas Pophale) SiO2 
 PCOD9557856
Probable space group: P -4 C 2
;
_chemical_formula_sum "Si O2"
_cell_formula_units_Z 64
_cell_length_a 11.598223
_cell_length_b 11.598223
_cell_length_c 22.828194
_cell_angle_alpha 90.000000
_cell_angle_beta 90.000000
_cell_angle_gamma 90.000000
_cell_volume 3070.820732
_symmetry_space_group_name_H-M "P -4 C 2"
_symmetry_group_IT_number 116
_symmetry_cell_setting 'tetragonal'
loop_
_space_group_symop_operation_xyz
x,y,z
y,-x,-z
-x,-y,z
-y,x,-z
y,x,1/2-z
-y,-x,1/2-z
-x,y,1/2+z
x,-y,1/2+z
loop_
_atom_site_type_symbol
_atom_site_label
_atom_site_fract_x
_atom_site_fract_y
_atom_site_fract_z
Si Si1 0.708258 0.055709 0.002025
Si Si2 0.534107 0.136620 0.168384
Si Si3 0.509072 0.138433 0.300861
Si Si4 0.370102 0.166233 0.062903
Si Si5 0.635289 0.782643 0.407021
Si Si6 0.793466 0.774276 0.681535
Si Si7 0.463219 0.660437 0.477052
Si Si8 0.074946 0.118207 0.579788
O O1 0.647974 0.965002 0.044789
O O2 0.808238 0.110600 0.041528
O O3 0.779435 0.994115 0.950557
O O4 0.623552 0.136361 0.964848
O O5 0.496618 0.179641 0.233436
O O6 0.466104 0.181354 0.112101
O O7 0.667183 0.177276 0.162969
O O8 0.500000 0.000000 0.168974
O O9 0.407706 0.171753 0.345504
O O10 0.635450 0.183162 0.323473
O O11 0.500000 0.000000 0.299511
O O12 0.259770 0.233177 0.089651
O O13 0.394458 0.232486 0.002267
O O14 0.543512 0.682702 0.422108
O O15 0.802196 0.802196 0.750000
O O16 0.887335 0.843196 0.643990
O O17 0.554051 0.622508 0.527515
O O18 0.000000 0.000000 0.576996
#
# Coordination Sequence:
#
# PCOD9557856 Si02
#       8
#     8   8   8   8   8   8   8   8
#     4  12  23  39  58  96 130 168 214 274 338 392
#     4  10  23  43  64  92 127 167 221 278 326 391
#     4  10  23  43  64  92 127 167 221 278 326 391
#     4  11  24  38  62  92 122 169 214 256 328 399
#     4  11  24  38  62  92 122 169 214 256 328 399
#     4  10  24  43  67  96 130 177 227 281 340 392
#     4   9  22  39  54  84 126 157 200 265 316 376
#     4  12  22  41  64  89 139 170 207 276 331 401
#
# _framework density 20.841332999999999
#
# number of rings (size 3 to 8) (size 9 to 14) (size 15 to 20)
#    0.000    1.375    2.500    1.500    8.750    0.750 
#    0.000    0.000    0.000    9.750    0.000    0.000 
#    0.000    0.000    0.000    0.000    0.000    0.000 
#
# Total GULP energy -356943.126463 kJ/mol
# GULP energy per Si atom -5577.236351 kJ/mol
# Density = 2.079390 g / cm^3
# Si number density = 20.841333 Si / 1000 Ang^3
#
#
#
# Elastic Constant Matrix: (Units=GPa)
#
#
# Indices 1 2 3 4 5 6 
#
# 1 62.0185 28.7217 33.3576 0.0000 0.0000 0.0000
# 2 28.7217 62.0185 33.3576 0.0000 0.0000 0.0000
# 3 33.3576 33.3576 90.0682 0.0000 0.0000 0.0000
# 4 0.0000 0.0000 0.0000 23.5539 0.0000 0.0000
# 5 0.0000 0.0000 0.0000 0.0000 23.5539 0.0000
# 6 0.0000 0.0000 0.0000 0.0000 0.0000 35.7637
#
#
#
# Elastic Compliance Matrix: (Units=1/GPa)
#
#
# Indices 1 2 3 4 5 6 
#
# 1 0.022589 -0.007444 -0.005609 0.000000 0.000000 0.000000
# 2 -0.007444 0.022589 -0.005609 0.000000 0.000000 0.000000
# 3 -0.005609 -0.005609 0.015257 0.000000 0.000000 0.000000
# 4 0.000000 0.000000 0.000000 0.042456 0.000000 0.000000
# 5 0.000000 0.000000 0.000000 0.000000 0.042456 0.000000
# 6 0.000000 0.000000 0.000000 0.000000 0.000000 0.027961
#
#
# Mechanical properties :
#
#
# Convention : Reuss Voigt Hill
#
# Bulk Modulus (GPa) = 43.27038 44.99768 44.13403
# Shear Modulus (GPa) = 22.90060 24.48551 23.69306
#
# Velocity S-wave (km/s) = 3.31842 3.43133 3.37535
# Velocity P-wave (km/s) = 5.95730 6.11033 6.03430
#
# Compressibility (1/GPa) = 0.02311050
#
# Stress axis : x y z
#
# Youngs Moduli (GPa) = 44.27015 44.27015 65.54250
#
# Poissons Ratio (x) = 0.32956 0.36762
# Poissons Ratio (y) = 0.32956 0.36762
# Poissons Ratio (z) = 0.24830 0.24830
#
# Static dielectric constant tensor:
#      x y z
#    x 1.857640 0.000000 0.000000 
#    y 0.000000 1.857640 0.000000 
#    z 0.000000 0.000000 1.730430 
# 
# From -- ./inp_files/4652.got.cif
#   From: 2010.05.17/outbox.cif.g08.bks.cpg/sg116_3_cif.got.tgz:4652.got - 2010.05.20 11:11:43.
