data_PCOD9557488
_publ_section_title
;
Structure prediction by ZEFSAII (Michael W. Deem and Ramdas Pophale) SiO2 
 PCOD9557488
Probable space group: P -4 M 2
;
_chemical_formula_sum "Si O2"
_cell_formula_units_Z 44
_cell_length_a 9.000000
_cell_length_b 9.000000
_cell_length_c 30.000000
_cell_angle_alpha 90.000000
_cell_angle_beta 90.000000
_cell_angle_gamma 90.000000
_cell_volume 2430.000000
_symmetry_space_group_name_H-M "P -4 M 2"
_symmetry_group_IT_number 115
_symmetry_cell_setting 'tetragonal'
loop_
_space_group_symop_operation_xyz
x,y,z
y,-x,-z
-x,-y,z
-y,x,-z
y,x,-z
-y,-x,-z
-x,y,z
x,-y,z
loop_
_atom_site_type_symbol
_atom_site_label
_atom_site_fract_x
_atom_site_fract_y
_atom_site_fract_z
Si Si1 0.322830 0.322830 0.500000
Si Si2 0.672573 0.319252 0.137139
Si Si3 0.177566 0.676417 0.681665
Si Si4 0.176334 0.321664 0.405901
Si Si5 0.678354 0.823705 0.956260
Si Si6 0.321106 0.176145 0.769368
O O1 0.298249 0.500000 0.505310
O O2 0.243052 0.275301 0.454072
O O3 0.500000 0.274213 0.137541
O O4 0.677994 0.500000 0.137054
O O5 0.750042 0.272150 0.090745
O O6 0.752464 0.272790 0.183213
O O7 0.208673 0.500000 0.681972
O O8 0.244886 0.747310 0.636590
O O9 0.246594 0.749407 0.726199
O O10 0.000000 0.698046 0.681881
O O11 0.199647 0.500000 0.402200
O O12 0.000000 0.293336 0.405092
O O13 0.500000 0.800615 0.959958
O O14 0.705923 0.000000 0.954468
O O15 0.754048 0.754048 0.000000
O O16 0.500000 0.196001 0.765831
O O17 0.290785 0.000000 0.769804
#
# Coordination Sequence:
#
# PCOD9557488 Si02
#       6
#     4   8   8   8   8   8
#     4   9  18  34  56  81 110 144 180 219 264 315
#     4   9  17  31  54  82 109 139 177 221 268 318
#     4  11  24  39  55  78 109 145 185 228 272 319
#     4  10  21  37  58  84 112 143 181 224 270 322
#     4  10  20  34  53  78 108 141 178 221 268 318
#     4  10  20  35  57  84 112 142 178 221 270 325
#
# _framework density 18.106995999999999
#
# number of rings (size 3 to 8) (size 9 to 14) (size 15 to 20)
#    0.000    2.091    0.000    3.273    0.000    9.818 
#    0.000    2.727    0.000    5.455    0.000    0.000 
#    0.000    0.000    0.000    0.000    0.000    0.000 
#
# Total GULP energy -245687.728165 kJ/mol
# GULP energy per Si atom -5583.812004 kJ/mol
# Density = 1.806578 g / cm^3
# Si number density = 18.106996 Si / 1000 Ang^3
#
#
#
# Elastic Constant Matrix: (Units=GPa)
#
#
# Indices 1 2 3 4 5 6 
#
# 1 88.4039 66.9726 98.0203 0.0000 0.0000 0.0000
# 2 66.9726 88.4039 98.0203 0.0000 0.0000 0.0000
# 3 98.0203 98.0203 252.6395 0.0000 0.0000 0.0000
# 4 0.0000 0.0000 0.0000 20.7779 0.0000 0.0000
# 5 0.0000 0.0000 0.0000 0.0000 20.7779 0.0000
# 6 0.0000 0.0000 0.0000 0.0000 0.0000 22.2133
#
#
#
# Elastic Compliance Matrix: (Units=1/GPa)
#
#
# Indices 1 2 3 4 5 6 
#
# 1 0.029634 -0.017026 -0.004892 0.000000 0.000000 0.000000
# 2 -0.017026 0.029634 -0.004892 0.000000 0.000000 0.000000
# 3 -0.004892 -0.004892 0.007754 0.000000 0.000000 0.000000
# 4 0.000000 0.000000 0.000000 0.048128 0.000000 0.000000
# 5 0.000000 0.000000 0.000000 0.000000 0.048128 0.000000
# 6 0.000000 0.000000 0.000000 0.000000 0.000000 0.045018
#
#
# Mechanical properties :
#
#
# Convention : Reuss Voigt Hill
#
# Bulk Modulus (GPa) = 74.60985 106.16377 90.38681
# Shear Modulus (GPa) = 18.76991 23.84944 21.30968
#
# Velocity S-wave (km/s) = 3.22314 3.63318 3.43428
# Velocity P-wave (km/s) = 7.42603 8.73834 8.10878
#
# Compressibility (1/GPa) = 0.01340306
#
# Stress axis : x y z
#
# Youngs Moduli (GPa) = 33.74468 33.74468 128.96598
#
# Poissons Ratio (x) = 0.57455 0.63086
# Poissons Ratio (y) = 0.57455 0.63086
# Poissons Ratio (z) = 0.16507 0.16507
#
# Static dielectric constant tensor:
#      x y z
#    x 1.612350 0.000000 0.000000 
#    y 0.000000 1.612350 0.000000 
#    z 0.000000 0.000000 1.590250 
# 
# From -- ./inp_files/5761.got.cif
#   From: 2010.05.17/outbox.ucp.g08.bks.cvg/sg115_3_cif.got.tgz:5761.got - 2010.06.11 11:33:38.
