data_PCOD9557899
_publ_section_title
;
Structure prediction by ZEFSAII (Michael W. Deem and Ramdas Pophale) SiO2 
 PCOD9557899
Probable space group: P -4 C 2
;
_chemical_formula_sum "Si O2"
_cell_formula_units_Z 30
_cell_length_a 10.955629
_cell_length_b 10.955629
_cell_length_c 11.553151
_cell_angle_alpha 90.000000
_cell_angle_beta 90.000000
_cell_angle_gamma 90.000000
_cell_volume 1386.676270
_symmetry_space_group_name_H-M "P -4 C 2"
_symmetry_group_IT_number 116
_symmetry_cell_setting 'tetragonal'
loop_
_space_group_symop_operation_xyz
x,y,z
y,-x,-z
-x,-y,z
-y,x,-z
y,x,1/2-z
-y,-x,1/2-z
-x,y,1/2+z
x,-y,1/2+z
loop_
_atom_site_type_symbol
_atom_site_label
_atom_site_fract_x
_atom_site_fract_y
_atom_site_fract_z
Si Si1 0.301676 0.698325 0.250000
Si Si2 0.934024 0.253530 0.635986
Si Si3 0.000000 0.000000 0.250000
Si Si4 0.772939 0.579049 0.293892
Si Si5 0.831248 0.703941 0.511018
O O1 0.261129 0.557717 0.261780
O O2 0.268157 0.761619 0.370495
O O3 0.888284 0.355157 0.728657
O O4 0.816339 0.198534 0.572882
O O5 0.028076 0.309190 0.545021
O O6 0.996868 0.130922 0.686042
O O7 0.660414 0.660414 0.250000
O O8 0.788881 0.590816 0.432329
#
# Coordination Sequence:
#
# PCOD9557899 Si02
#       5
#     4   8   2   8   8
#     4  12  28  46  74 102 146 200 250 305 388 436
#     4  11  23  44  72 111 146 195 242 309 375 455
#     4  12  18  42  76 106 156 188 248 294 378 454
#     4  10  25  50  69 107 143 191 255 307 374 449
#     4  11  25  44  73 106 147 188 254 304 383 447
#
# _framework density 21.634464000000001
#
# number of rings (size 3 to 8) (size 9 to 14) (size 15 to 20)
#    0.000    1.067    4.000    2.800   11.200    1.067 
#    0.000    0.000    0.000    0.000    0.000    0.000 
#    0.000    0.000    0.000    0.000    0.000    0.000 
#
# Total GULP energy -167444.029690 kJ/mol
# GULP energy per Si atom -5581.467656 kJ/mol
# Density = 2.158522 g / cm^3
# Si number density = 21.634464 Si / 1000 Ang^3
#
#
#
# Elastic Constant Matrix: (Units=GPa)
#
#
# Indices 1 2 3 4 5 6 
#
# 1 63.6287 56.4290 32.6427 0.0000 0.0000 0.0000
# 2 56.4290 63.6275 32.6422 0.0000 0.0000 0.0000
# 3 32.6427 32.6422 107.7925 0.0000 0.0000 0.0000
# 4 0.0000 0.0000 0.0000 13.2922 0.0000 0.0000
# 5 0.0000 0.0000 0.0000 0.0000 13.2891 0.0000
# 6 0.0000 0.0000 0.0000 0.0000 0.0000 27.4466
#
#
#
# Elastic Compliance Matrix: (Units=1/GPa)
#
#
# Indices 1 2 3 4 5 6 
#
# 1 0.074438 -0.064467 -0.003020 0.000000 0.000000 0.000000
# 2 -0.064467 0.074439 -0.003019 0.000000 0.000000 0.000000
# 3 -0.003020 -0.003019 0.011106 0.000000 0.000000 0.000000
# 4 0.000000 0.000000 0.000000 0.075232 0.000000 0.000000
# 5 0.000000 0.000000 0.000000 0.000000 0.075250 0.000000
# 6 0.000000 0.000000 0.000000 0.000000 0.000000 0.036434
#
#
# Mechanical properties :
#
#
# Convention : Reuss Voigt Hill
#
# Bulk Modulus (GPa) = 52.71406 53.16404 52.93905
# Shear Modulus (GPa) = 10.11662 18.36124 14.23893
#
# Velocity S-wave (km/s) = 2.16479 2.91641 2.56825
# Velocity P-wave (km/s) = 5.53779 5.99731 5.77212
#
# Compressibility (1/GPa) = 0.01897027
#
# Stress axis : x y z
#
# Youngs Moduli (GPa) = 13.43396 13.43373 90.04211
#
# Poissons Ratio (x) = 0.86604 0.27190
# Poissons Ratio (y) = 0.86605 0.27188
# Poissons Ratio (z) = 0.04057 0.04056
#
# Static dielectric constant tensor:
#      x y z
#    x 1.837040 0.000000 0.000000 
#    y 0.000000 1.837040 0.000000 
#    z 0.000000 0.000000 1.847300 
# 
# From -- ./inp_files/1491.got.cif
#   From: 2010.05.17/outbox.cif.g08.bks.cpg/sg116_1_cif.got.tgz:1491.got - 2010.05.20 11:11:43.
