data_PCOD9557048
_publ_section_title
;
Structure prediction by ZEFSAII (Michael W. Deem and Ramdas Pophale) SiO2 
 PCOD9557048
Probable space group: P -4 M 2
;
_chemical_formula_sum "Si O2"
_cell_formula_units_Z 48
_cell_length_a 7.916424
_cell_length_b 7.916424
_cell_length_c 36.389493
_cell_angle_alpha 90.000000
_cell_angle_beta 90.000000
_cell_angle_gamma 90.000000
_cell_volume 2280.521118
_symmetry_space_group_name_H-M "P -4 M 2"
_symmetry_group_IT_number 115
_symmetry_cell_setting 'tetragonal'
loop_
_space_group_symop_operation_xyz
x,y,z
y,-x,-z
-x,-y,z
-y,x,-z
y,x,-z
-y,-x,-z
-x,y,z
x,-y,z
loop_
_atom_site_type_symbol
_atom_site_label
_atom_site_fract_x
_atom_site_fract_y
_atom_site_fract_z
Si Si1 0.200773 0.000000 0.407074
Si Si2 0.702912 0.307380 0.459037
Si Si3 0.802147 0.704194 0.802844
Si Si4 0.201778 0.682108 0.276612
Si Si5 0.798808 0.705279 0.882363
Si Si6 0.000000 0.791883 0.676731
Si Si7 0.309347 0.798397 0.039545
O O1 0.251279 0.831575 0.429081
O O2 0.265920 0.000000 0.365308
O O3 0.000000 0.000000 0.404851
O O4 0.753258 0.246743 0.500000
O O5 0.500000 0.317591 0.460495
O O6 0.766262 0.500000 0.452325
O O7 0.796889 0.500000 0.803065
O O8 0.711639 0.765905 0.766456
O O9 0.731570 0.761341 0.842647
O O10 0.000000 0.754108 0.800043
O O11 0.271413 0.500000 0.287613
O O12 0.000000 0.679712 0.281705
O O13 0.267108 0.836221 0.300835
O O14 0.782233 0.500000 0.884037
O O15 0.733267 0.768912 0.921937
O O16 0.000000 0.741039 0.880358
O O17 0.000000 0.000000 0.677042
O O18 0.500000 0.730876 0.036861
O O19 0.317877 0.000000 0.044523
O O20 0.229266 0.770735 0.000000
#
# Coordination Sequence:
#
# PCOD9557048 Si02
#       7
#     4   8   8   8   8   4   8
#     4  11  23  35  59  93 119 149 201 257 297 343
#     4   9  20  39  60  84 120 164 201 239 297 360
#     4   9  16  29  52  78  99 123 163 216 269 319
#     4  10  20  35  56  77 103 144 185 221 270 332
#     4   7  12  25  45  67  91 121 158 200 248 304
#     4   9  20  39  55  77 113 151 187 229 279 333
#     4   9  17  30  47  66  90 123 161 199 243 297
#
# _framework density 21.047822
#
# number of rings (size 3 to 8) (size 9 to 14) (size 15 to 20)
#    0.000    3.000    0.833    2.750    1.167    1.667 
#    0.000    5.000    0.000    8.000    0.000    0.000 
#    0.000    0.000    0.000    0.000    0.000    0.000 
#
# Total GULP energy -267482.083809 kJ/mol
# GULP energy per Si atom -5572.543413 kJ/mol
# Density = 2.099992 g / cm^3
# Si number density = 21.047822 Si / 1000 Ang^3
#
#
#
# Elastic Constant Matrix: (Units=GPa)
#
#
# Indices 1 2 3 4 5 6 
#
# 1 54.1296 15.9421 49.6690 0.0000 0.0000 0.0000
# 2 15.9421 54.1294 49.6688 0.0000 0.0000 0.0000
# 3 49.6690 49.6688 207.6071 0.0000 0.0000 0.0000
# 4 0.0000 0.0000 0.0000 -58.6912 0.0000 0.0000
# 5 0.0000 0.0000 0.0000 0.0000 -58.8854 0.0000
# 6 0.0000 0.0000 0.0000 0.0000 0.0000 15.5072
#
#
#
# Elastic Compliance Matrix: (Units=1/GPa)
#
#
# Indices 1 2 3 4 5 6 
#
# 1 0.023891 -0.002296 -0.005167 0.000000 0.000000 0.000000
# 2 -0.002296 0.023891 -0.005167 0.000000 0.000000 0.000000
# 3 -0.005167 -0.005167 0.007289 0.000000 0.000000 0.000000
# 4 0.000000 0.000000 0.000000 -0.017038 0.000000 0.000000
# 5 0.000000 0.000000 0.000000 0.000000 -0.016982 0.000000
# 6 0.000000 0.000000 0.000000 0.000000 0.000000 0.064486
#
#
# Mechanical properties :
#
#
# Convention : Reuss Voigt Hill
#
# Bulk Modulus (GPa) = 33.54162 60.71400 47.12781
# Shear Modulus (GPa) = 41.41392 -7.04147 17.18623
#
# Velocity S-wave (km/s) = 4.44059 -1.83104 2.86060
# Velocity P-wave (km/s) = 6.50094 4.94349 5.77496
#
# Compressibility (1/GPa) = 0.02981371
#
# Stress axis : x y z
#
# Youngs Moduli (GPa) = 41.85650 41.85643 137.19345
#
# Poissons Ratio (x) = 0.09608 0.70883
# Poissons Ratio (y) = 0.09608 0.70883
# Poissons Ratio (z) = 0.21626 0.21626
#
# Static dielectric constant tensor:
#      x y z
#    x 2.160230 0.000000 0.000000 
#    y 0.000000 2.159240 0.000000 
#    z 0.000000 0.000000 1.786720 
# 
# From -- ./inp_files/6129.got.cif
#   From: 2010.05.17/outbox.cif.g08.bks.cpg/sg115_4_cif.got.tgz:6129.got - 2010.05.20 11:07:42.
