data_PCOD9557204
_publ_section_title
;
Structure prediction by ZEFSAII (Michael W. Deem and Ramdas Pophale) SiO2 
 PCOD9557204
Probable space group: P -4 M 2
;
_chemical_formula_sum "Si O2"
_cell_formula_units_Z 48
_cell_length_a 9.214784
_cell_length_b 9.214784
_cell_length_c 32.434703
_cell_angle_alpha 90.000000
_cell_angle_beta 90.000000
_cell_angle_gamma 90.000000
_cell_volume 2754.103421
_symmetry_space_group_name_H-M "P -4 M 2"
_symmetry_group_IT_number 115
_symmetry_cell_setting 'tetragonal'
loop_
_space_group_symop_operation_xyz
x,y,z
y,-x,-z
-x,-y,z
-y,x,-z
y,x,-z
-y,-x,-z
-x,y,z
x,-y,z
loop_
_atom_site_type_symbol
_atom_site_label
_atom_site_fract_x
_atom_site_fract_y
_atom_site_fract_z
Si Si1 0.173755 0.829431 0.123008
Si Si2 0.671891 0.173146 0.962077
Si Si3 0.323625 0.330383 0.710930
Si Si4 0.674930 0.671181 0.378915
Si Si5 0.174575 0.170240 0.545980
Si Si6 0.324679 0.328215 0.198685
O O1 0.215469 0.747582 0.080904
O O2 0.253413 0.760421 0.162023
O O3 0.000000 0.812282 0.128015
O O4 0.205823 0.000000 0.119389
O O5 0.500000 0.199183 0.959765
O O6 0.695189 0.000000 0.967779
O O7 0.742382 0.257619 0.000000
O O8 0.500000 0.327304 0.710686
O O9 0.281479 0.500000 0.711045
O O10 0.277408 0.270326 0.666431
O O11 0.279715 0.271070 0.755631
O O12 0.500000 0.685018 0.379122
O O13 0.708248 0.500000 0.382760
O O14 0.742224 0.755639 0.416921
O O15 0.219967 0.219967 0.500000
O O16 0.000000 0.181341 0.547417
O O17 0.211911 0.000000 0.550004
O O18 0.500000 0.313889 0.197806
O O19 0.292499 0.500000 0.194003
#
# Coordination Sequence:
#
# PCOD9557204 Si02
#       6
#     8   8   8   8   8   8
#     4  10  21  36  53  74 103 138 171 203 243 290
#     4  10  21  37  57  79 102 131 167 205 246 292
#     4   7  12  26  47  70  97 127 157 193 240 290
#     4   9  17  30  50  75  99 122 154 199 246 291
#     4   9  19  35  50  64  89 127 165 198 237 288
#     4   9  17  31  53  77  99 128 167 206 243 286
#
# _framework density 17.428538
#
# number of rings (size 3 to 8) (size 9 to 14) (size 15 to 20)
#    0.000    3.000    0.000    3.500    0.000    4.333 
#    0.000    4.167    0.000    8.000    0.000    0.000 
#    0.000    0.000    0.000    0.000    0.000    0.000 
#
# Total GULP energy -267381.393049 kJ/mol
# GULP energy per Si atom -5570.445689 kJ/mol
# Density = 1.738887 g / cm^3
# Si number density = 17.428538 Si / 1000 Ang^3
#
#
#
# Elastic Constant Matrix: (Units=GPa)
#
#
# Indices 1 2 3 4 5 6 
#
# 1 33.8948 34.3398 62.6630 0.0000 0.0000 0.0000
# 2 34.3398 33.8952 62.6621 0.0000 0.0000 0.0000
# 3 62.6630 62.6621 209.9797 0.0000 0.0000 0.0000
# 4 0.0000 0.0000 0.0000 120.6214 0.0000 0.0000
# 5 0.0000 0.0000 0.0000 0.0000 120.6131 0.0000
# 6 0.0000 0.0000 0.0000 0.0000 0.0000 27.1540
#
#
#
# Elastic Compliance Matrix: (Units=1/GPa)
#
#
# Indices 1 2 3 4 5 6 
#
# 1 -1.107929 1.140323 -0.009662 0.000000 0.000000 0.000000
# 2 1.140323 -1.107855 -0.009694 0.000000 0.000000 0.000000
# 3 -0.009662 -0.009694 0.010539 0.000000 0.000000 0.000000
# 4 0.000000 0.000000 0.000000 0.008290 0.000000 0.000000
# 5 0.000000 0.000000 0.000000 0.000000 0.008291 0.000000
# 6 0.000000 0.000000 0.000000 0.000000 0.000000 0.036827
#
#
# Mechanical properties :
#
#
# Convention : Reuss Voigt Hill
#
# Bulk Modulus (GPa) = 27.25699 66.34441 46.80070
# Shear Modulus (GPa) = -1.14115 61.55135 30.20510
#
# Velocity S-wave (km/s) = -0.81005 5.94921 4.16755
# Velocity P-wave (km/s) = 3.84686 9.23796 7.07596
#
# Compressibility (1/GPa) = 0.03668783
#
# Stress axis : x y z
#
# Youngs Moduli (GPa) = -0.90258 -0.90265 94.88903
#
# Poissons Ratio (x) = 1.02931 0.91680
# Poissons Ratio (y) = 1.02924 0.91987
# Poissons Ratio (z) = -0.00872 -0.00875
#
# Static dielectric constant tensor:
#      x y z
#    x 1.577880 0.000000 0.000000 
#    y 0.000000 1.577880 0.000000 
#    z 0.000000 0.000000 1.608270 
# 
# From -- ./inp_files/5991.got.cif
#   From: 2010.05.17/outbox.cif.g08.bks.cpg/sg115_3_cif.got.tgz:5991.got - 2010.05.20 11:07:42.
