data_PCOD9557591
_publ_section_title
;
Structure prediction by ZEFSAII (Michael W. Deem and Ramdas Pophale) SiO2 
 PCOD9557591
Probable space group: P -4 C 2
;
_chemical_formula_sum "Si O2"
_cell_formula_units_Z 56
_cell_length_a 12.107246
_cell_length_b 12.107246
_cell_length_c 20.726293
_cell_angle_alpha 90.000000
_cell_angle_beta 90.000000
_cell_angle_gamma 90.000000
_cell_volume 3038.172068
_symmetry_space_group_name_H-M "P -4 C 2"
_symmetry_group_IT_number 116
_symmetry_cell_setting 'tetragonal'
loop_
_space_group_symop_operation_xyz
x,y,z
y,-x,-z
-x,-y,z
-y,x,-z
y,x,1/2-z
-y,-x,1/2-z
-x,y,1/2+z
x,-y,1/2+z
loop_
_atom_site_type_symbol
_atom_site_label
_atom_site_fract_x
_atom_site_fract_y
_atom_site_fract_z
Si Si1 0.373810 0.000000 0.212664
Si Si2 0.368244 0.239830 0.553124
Si Si3 0.247595 0.218509 0.679255
Si Si4 0.752404 0.218511 0.679255
Si Si5 0.272796 1.000000 0.847368
Si Si6 0.632853 1.000000 0.492777
Si Si7 0.631755 0.239830 0.553124
O O1 0.308232 0.897214 0.185454
O O2 0.500000 0.000000 0.191576
O O3 0.308234 0.102788 0.185455
O O4 0.365550 1.000000 0.290799
O O5 0.305123 0.273404 0.618386
O O6 0.337415 0.114146 0.529917
O O7 0.500000 0.242632 0.561131
O O8 0.324265 0.324266 0.500000
O O9 0.269092 0.269092 0.750000
O O10 0.115872 0.210555 0.666634
O O11 0.730906 0.269095 0.750000
O O12 0.884127 0.210557 0.666635
O O13 0.694876 0.273405 0.618386
O O14 0.315649 1.000000 0.920721
O O15 0.500000 0.000000 0.486148
O O16 0.662585 0.114146 0.529917
#
# Coordination Sequence:
#
# PCOD9557591 Si02
#       7
#     8   8   8   8   8   8   8
#     4  10  20  35  57  86 123 161 206 252 301 366
#     4  11  22  38  61  88 121 159 204 253 306 368
#     4  10  21  37  59  88 121 159 202 250 306 363
#     4  10  21  37  59  88 121 159 202 250 306 363
#     4  10  19  35  58  87 121 154 203 254 306 357
#     4  10  20  36  61  87 114 155 202 248 296 361
#     4  11  22  38  61  88 121 159 204 253 306 368
#
# _framework density 18.432136
#
# number of rings (size 3 to 8) (size 9 to 14) (size 15 to 20)
#    0.000    1.714    2.857    2.143    0.000    2.000 
#    0.000    4.286    0.000    0.429    0.000    0.000 
#    0.000    0.000    0.000    0.000    0.000    0.000 
#
# Total GULP energy -312085.761561 kJ/mol
# GULP energy per Si atom -5572.960028 kJ/mol
# Density = 1.839018 g / cm^3
# Si number density = 18.432136 Si / 1000 Ang^3
#
#
#
# Elastic Constant Matrix: (Units=GPa)
#
#
# Indices 1 2 3 4 5 6 
#
# 1 89.1581 33.1337 32.0359 0.0000 0.0000 0.0000
# 2 33.1337 89.1576 32.0357 0.0000 0.0000 0.0000
# 3 32.0359 32.0357 157.6601 0.0000 0.0000 0.0000
# 4 0.0000 0.0000 0.0000 16.3401 0.0000 0.0000
# 5 0.0000 0.0000 0.0000 0.0000 16.3395 0.0000
# 6 0.0000 0.0000 0.0000 0.0000 0.0000 23.3178
#
#
#
# Elastic Compliance Matrix: (Units=1/GPa)
#
#
# Indices 1 2 3 4 5 6 
#
# 1 0.013500 -0.004349 -0.001860 0.000000 0.000000 0.000000
# 2 -0.004349 0.013500 -0.001860 0.000000 0.000000 0.000000
# 3 -0.001860 -0.001860 0.007098 0.000000 0.000000 0.000000
# 4 0.000000 0.000000 0.000000 0.061199 0.000000 0.000000
# 5 0.000000 0.000000 0.000000 0.000000 0.061201 0.000000
# 6 0.000000 0.000000 0.000000 0.000000 0.000000 0.042886
#
#
# Mechanical properties :
#
#
# Convention : Reuss Voigt Hill
#
# Bulk Modulus (GPa) = 55.66936 58.93183 57.30060
# Shear Modulus (GPa) = 22.57241 27.11752 24.84496
#
# Velocity S-wave (km/s) = 3.50326 3.83979 3.67538
# Velocity P-wave (km/s) = 6.82874 7.19030 7.01185
#
# Compressibility (1/GPa) = 0.01796320
#
# Stress axis : x y z
#
# Youngs Moduli (GPa) = 74.07186 74.07146 140.87579
#
# Poissons Ratio (x) = 0.32214 0.26196
# Poissons Ratio (y) = 0.32214 0.26196
# Poissons Ratio (z) = 0.13774 0.13774
#
# Static dielectric constant tensor:
#      x y z
#    x 1.373870 0.000000 0.000000 
#    y 0.000000 1.373830 0.000000 
#    z 0.000000 0.000000 1.706390 
# 
# From -- ./inp_files/4126.got.cif
#   From: 2010.05.17/outbox.cif.g08.bks.cpg/sg116_3_cif.got.tgz:4126.got - 2010.05.20 11:11:43.
