data_PCOD9557364
_publ_section_title
;
Structure prediction by ZEFSAII (Michael W. Deem and Ramdas Pophale) SiO2 
 PCOD9557364
Probable space group: P -4 M 2
;
_chemical_formula_sum "Si O2"
_cell_formula_units_Z 56
_cell_length_a 14.563272
_cell_length_b 14.563272
_cell_length_c 13.240452
_cell_angle_alpha 90.000000
_cell_angle_beta 90.000000
_cell_angle_gamma 90.000000
_cell_volume 2808.152786
_symmetry_space_group_name_H-M "P -4 M 2"
_symmetry_group_IT_number 115
_symmetry_cell_setting 'tetragonal'
loop_
_space_group_symop_operation_xyz
x,y,z
y,-x,-z
-x,-y,z
-y,x,-z
y,x,-z
-y,-x,-z
-x,y,z
x,-y,z
loop_
_atom_site_type_symbol
_atom_site_label
_atom_site_fract_x
_atom_site_fract_y
_atom_site_fract_z
Si Si1 0.602724 0.402958 0.620206
Si Si2 0.390848 0.896885 0.997183
Si Si3 0.713754 0.207507 0.827849
Si Si4 0.802414 0.608933 0.796027
Si Si5 0.611165 0.894903 0.418709
Si Si6 0.388404 0.195693 0.631532
Si Si7 0.895562 0.108061 0.878472
O O1 0.592622 0.407379 0.500000
O O2 0.500000 0.402682 0.665201
O O3 0.648590 0.500000 0.648850
O O4 0.640787 0.302375 0.632985
O O5 0.500000 0.889937 0.976761
O O6 0.335917 0.825155 0.929557
O O7 0.359720 0.000000 0.972314
O O8 0.377119 0.877307 0.115542
O O9 0.722758 0.318125 0.822213
O O10 0.658278 0.162203 0.734344
O O11 0.816833 0.168141 0.828310
O O12 0.780369 0.500000 0.802467
O O13 0.841312 0.631908 0.684750
O O14 0.500000 0.896687 0.422805
O O15 0.640097 0.848582 0.524766
O O16 0.643751 0.000000 0.413569
O O17 0.500000 0.190093 0.637296
O O18 0.000000 0.135708 0.853300
O O19 0.884967 0.000000 0.853485
O O20 0.884881 0.115120 0.000000
#
# Coordination Sequence:
#
# PCOD9557364 Si02
#       7
#     8   8   8   8   8   8   8
#     4   8  15  29  51  75 101 139 188 240 283 317
#     4  10  21  39  63  89 117 148 188 241 297 352
#     4  12  23  34  57  88 123 156 188 230 289 356
#     4  10  22  38  58  84 114 155 203 245 283 329
#     4   9  19  37  58  79 109 150 195 243 289 333
#     4  10  22  36  53  82 119 154 191 235 287 347
#     4   9  19  37  60  85 112 143 185 239 294 345
#
# _framework density 19.941934
#
# number of rings (size 3 to 8) (size 9 to 14) (size 15 to 20)
#    0.000    2.286    0.000    3.429    2.000    5.714 
#    0.000    1.429    0.000    1.286    0.000    4.000 
#    0.000    4.571    0.000    0.143    0.000    0.000 
#
# Total GULP energy -312195.721805 kJ/mol
# GULP energy per Si atom -5574.923604 kJ/mol
# Density = 1.989654 g / cm^3
# Si number density = 19.941934 Si / 1000 Ang^3
#
#
#
# Elastic Constant Matrix: (Units=GPa)
#
#
# Indices 1 2 3 4 5 6 
#
# 1 76.0203 42.1008 44.8007 0.0000 0.0000 0.0000
# 2 42.1008 76.0204 44.8007 0.0000 0.0000 0.0000
# 3 44.8007 44.8007 101.6114 0.0000 0.0000 0.0000
# 4 0.0000 0.0000 0.0000 -10.7579 0.0000 0.0000
# 5 0.0000 0.0000 0.0000 0.0000 -10.7581 0.0000
# 6 0.0000 0.0000 0.0000 0.0000 0.0000 13.5321
#
#
#
# Elastic Compliance Matrix: (Units=1/GPa)
#
#
# Indices 1 2 3 4 5 6 
#
# 1 0.021101 -0.008381 -0.005608 0.000000 0.000000 0.000000
# 2 -0.008381 0.021101 -0.005608 0.000000 0.000000 0.000000
# 3 -0.005608 -0.005608 0.014787 0.000000 0.000000 0.000000
# 4 0.000000 0.000000 0.000000 -0.092955 0.000000 0.000000
# 5 0.000000 0.000000 0.000000 0.000000 -0.092953 0.000000
# 6 0.000000 0.000000 0.000000 0.000000 0.000000 0.073898
#
#
# Mechanical properties :
#
#
# Convention : Reuss Voigt Hill
#
# Bulk Modulus (GPa) = 56.19943 57.45074 56.82509
# Shear Modulus (GPa) = -505.29446 6.53321 -249.38063
#
# Velocity S-wave (km/s) = -15.93527 1.81197 -11.19486
# Velocity P-wave (km/s) = 17.61631 5.76621 11.77042
#
# Compressibility (1/GPa) = 0.01779377
#
# Stress axis : x y z
#
# Youngs Moduli (GPa) = 47.39143 47.39154 67.62761
#
# Poissons Ratio (x) = 0.39718 0.37928
# Poissons Ratio (y) = 0.39717 0.37928
# Poissons Ratio (z) = 0.26579 0.26579
#
# Static dielectric constant tensor:
#      x y z
#    x 1.746770 0.000000 0.000000 
#    y 0.000000 1.746770 0.000000 
#    z 0.000000 0.000000 1.708560 
# 
# From -- ./inp_files/3079.got.cif
#   From: 2010.05.17/outbox.cif.g08.bks.cpg/sg115_2_cif.got.tgz:3079.got - 2010.05.20 11:07:42.
