data_PCOD9557822
_publ_section_title
;
Structure prediction by ZEFSAII (Michael W. Deem and Ramdas Pophale) SiO2 
 PCOD9557822
Probable space group: P -4 C 2
;
_chemical_formula_sum "Si O2"
_cell_formula_units_Z 34
_cell_length_a 11.433017
_cell_length_b 11.433017
_cell_length_c 11.518225
_cell_angle_alpha 90.000000
_cell_angle_beta 90.000000
_cell_angle_gamma 90.000000
_cell_volume 1505.591854
_symmetry_space_group_name_H-M "P -4 C 2"
_symmetry_group_IT_number 116
_symmetry_cell_setting 'tetragonal'
loop_
_space_group_symop_operation_xyz
x,y,z
y,-x,-z
-x,-y,z
-y,x,-z
y,x,1/2-z
-y,-x,1/2-z
-x,y,1/2+z
x,-y,1/2+z
loop_
_atom_site_type_symbol
_atom_site_label
_atom_site_fract_x
_atom_site_fract_y
_atom_site_fract_z
Si Si1 0.000000 0.000000 0.500000
Si Si2 0.216570 0.076223 0.651929
Si Si3 0.843560 0.336120 0.813482
Si Si4 0.485106 0.315820 0.321165
Si Si5 0.297215 0.693881 0.471632
O O1 0.885173 0.988422 0.579108
O O2 0.151511 0.151511 0.750000
O O3 0.284036 0.166674 0.570458
O O4 0.301829 0.977143 0.700923
O O5 0.764783 0.235218 0.750000
O O6 0.799431 0.455025 0.753568
O O7 0.804257 0.334827 0.947990
O O8 0.326680 0.383313 0.635805
O O9 0.418401 0.418401 0.250000
O O10 0.415015 0.307365 0.442325
#
# Coordination Sequence:
#
# PCOD9557822 Si02
#       5
#     2   8   8   8   8
#     4  12  22  40  68  98 140 184 230 280 348 438
#     4  12  24  37  68 102 138 183 238 279 355 429
#     4   9  20  42  66  97 138 177 226 299 348 415
#     4   9  22  44  73  95 135 178 235 298 358 407
#     4  10  22  43  67 100 132 181 237 290 351 423
#
# _framework density 22.582481999999999
#
# number of rings (size 3 to 8) (size 9 to 14) (size 15 to 20)
#    0.000    2.353    2.353    1.765    3.294    4.235 
#    0.000   11.765    0.000    0.000    0.000    0.000 
#    0.000    0.000    0.000    0.000    0.000    0.000 
#
# Total GULP energy -190214.795364 kJ/mol
# GULP energy per Si atom -5594.552805 kJ/mol
# Density = 2.253108 g / cm^3
# Si number density = 22.582482 Si / 1000 Ang^3
#
#
#
# Elastic Constant Matrix: (Units=GPa)
#
#
# Indices 1 2 3 4 5 6 
#
# 1 1602.0499-1492.0540 28.2429 0.0000 0.0000 0.0000
# 2 -1492.0540 1601.8635 28.1346 0.0000 0.0000 0.0000
# 3 28.2429 28.1346 109.8278 0.0000 0.0000 0.0000
# 4 0.0000 0.0000 0.0000 -13.7418 0.0000 0.0000
# 5 0.0000 0.0000 0.0000 0.0000 -13.7417 0.0000
# 6 0.0000 0.0000 0.0000 0.0000 0.0000 32.6475
#
#
#
# Elastic Compliance Matrix: (Units=1/GPa)
#
#
# Indices 1 2 3 4 5 6 
#
# 1 0.005401 0.005078 -0.002690 0.000000 0.000000 0.000000
# 2 0.005078 0.005401 -0.002689 0.000000 0.000000 0.000000
# 3 -0.002690 -0.002689 0.010486 0.000000 0.000000 0.000000
# 4 0.000000 0.000000 0.000000 -0.072770 0.000000 0.000000
# 5 0.000000 0.000000 0.000000 0.000000 -0.072771 0.000000
# 6 0.000000 0.000000 0.000000 0.000000 0.000000 0.030630
#
#
# Mechanical properties :
#
#
# Convention : Reuss Voigt Hill
#
# Bulk Modulus (GPa) = 48.34408 49.15423 48.74915
# Shear Modulus (GPa) = -58.05419 317.66064 129.80322
#
# Velocity S-wave (km/s) = -5.07577 11.87317 7.58976
# Velocity P-wave (km/s) = 3.59124 14.48367 9.92169
#
# Compressibility (1/GPa) = 0.02068506
#
# Stress axis : x y z
#
# Youngs Moduli (GPa) = 185.16179 185.14661 95.36759
#
# Poissons Ratio (x) = -0.94012 0.25650
# Poissons Ratio (y) = -0.94020 0.25648
# Poissons Ratio (z) = 0.49801 0.49793
#
# Static dielectric constant tensor:
#      x y z
#    x 1.886010 0.000000 0.000000 
#    y 0.000000 1.886010 0.000000 
#    z 0.000000 0.000000 0.124010 
# 
# From -- ./inp_files/671.got.cif
#   From: 2010.05.17/outbox.cif.g08.bks.cpg/sg116_1_cif.got.tgz:671.got - 2010.05.20 11:11:43.
