data_PCOD9557809
_publ_section_title
;
Structure prediction by ZEFSAII (Michael W. Deem and Ramdas Pophale) SiO2 
 PCOD9557809
Probable space group: P -4 C 2
;
_chemical_formula_sum "Si O2"
_cell_formula_units_Z 60
_cell_length_a 15.953195
_cell_length_b 15.953195
_cell_length_c 12.705283
_cell_angle_alpha 90.000000
_cell_angle_beta 90.000000
_cell_angle_gamma 90.000000
_cell_volume 3233.550817
_symmetry_space_group_name_H-M "P -4 C 2"
_symmetry_group_IT_number 116
_symmetry_cell_setting 'tetragonal'
loop_
_space_group_symop_operation_xyz
x,y,z
y,-x,-z
-x,-y,z
-y,x,-z
y,x,1/2-z
-y,-x,1/2-z
-x,y,1/2+z
x,-y,1/2+z
loop_
_atom_site_type_symbol
_atom_site_label
_atom_site_fract_x
_atom_site_fract_y
_atom_site_fract_z
Si Si1 0.388093 0.520734 0.939128
Si Si2 0.454546 0.089042 0.231171
Si Si3 0.777887 0.120703 0.331409
Si Si4 0.263908 0.071704 0.289011
Si Si5 0.796262 0.602749 0.683038
Si Si6 0.787343 0.167990 0.581646
Si Si7 0.603133 0.396868 0.250000
Si Si8 0.789148 0.605934 0.439303
O O1 0.407240 0.467918 0.836225
O O2 0.295317 0.554286 0.925449
O O3 0.452511 0.595246 0.967769
O O4 0.365353 0.081291 0.291430
O O5 0.523619 0.153762 0.273555
O O6 0.428137 0.131130 0.122032
O O7 0.500000 0.000000 0.223388
O O8 0.849706 0.150295 0.250000
O O9 0.693784 0.167066 0.287150
O O10 0.794076 0.142227 0.456916
O O11 0.761236 0.022164 0.319350
O O12 0.219780 0.135046 0.371246
O O13 0.231699 0.095519 0.169886
O O14 0.697628 0.596888 0.705730
O O15 0.810292 0.601537 0.559959
O O16 0.703066 0.223993 0.589784
#
# Coordination Sequence:
#
# PCOD9557809 Si02
#       8
#     8   8   8   8   8   8   4   8
#     4  11  24  40  60  88 121 167 224 273 314 374
#     4  11  22  41  66 100 129 168 219 273 336 392
#     4  11  23  40  70 100 132 171 214 268 337 397
#     4  10  22  45  68  96 135 169 223 273 324 409
#     4  11  22  41  63  95 129 167 218 266 331 393
#     4   9  23  44  67  95 129 177 214 268 333 400
#     4  12  22  43  64  86 132 175 216 276 328 394
#     4  10  22  42  64  89 128 172 218 269 326 395
#
# _framework density 18.555451999999999
#
# number of rings (size 3 to 8) (size 9 to 14) (size 15 to 20)
#    0.000    1.467    4.667    0.000    1.867    2.667 
#    4.800    4.000    0.000    0.000    0.000    0.000 
#    0.000    0.000    0.000    0.000    0.000    0.000 
#
# Total GULP energy -334374.310600 kJ/mol
# GULP energy per Si atom -5572.905177 kJ/mol
# Density = 1.851322 g / cm^3
# Si number density = 18.555452 Si / 1000 Ang^3
#
#
#
# Elastic Constant Matrix: (Units=GPa)
#
#
# Indices 1 2 3 4 5 6 
#
# 1 61.5234 23.0570 22.3677 0.0000 0.0000 0.0000
# 2 23.0570 61.5337 22.3704 0.0000 0.0000 0.0000
# 3 22.3677 22.3704 70.9970 0.0000 0.0000 0.0000
# 4 0.0000 0.0000 0.0000 29.2001 0.0000 0.0000
# 5 0.0000 0.0000 0.0000 0.0000 29.1997 0.0000
# 6 0.0000 0.0000 0.0000 0.0000 0.0000 33.2883
#
#
#
# Elastic Compliance Matrix: (Units=1/GPa)
#
#
# Indices 1 2 3 4 5 6 
#
# 1 0.020091 -0.005903 -0.004470 0.000000 0.000000 0.000000
# 2 -0.005903 0.020088 -0.004470 0.000000 0.000000 0.000000
# 3 -0.004470 -0.004470 0.016902 0.000000 0.000000 0.000000
# 4 0.000000 0.000000 0.000000 0.034246 0.000000 0.000000
# 5 0.000000 0.000000 0.000000 0.000000 0.034247 0.000000
# 6 0.000000 0.000000 0.000000 0.000000 0.000000 0.030041
#
#
# Mechanical properties :
#
#
# Convention : Reuss Voigt Hill
#
# Bulk Modulus (GPa) = 36.50218 36.62714 36.56466
# Shear Modulus (GPa) = 25.71583 26.75490 26.23536
#
# Velocity S-wave (km/s) = 3.72679 3.80134 3.76425
# Velocity P-wave (km/s) = 6.18331 6.24892 6.21620
#
# Compressibility (1/GPa) = 0.02739562
#
# Stress axis : x y z
#
# Youngs Moduli (GPa) = 49.77252 49.78038 59.16583
#
# Poissons Ratio (x) = 0.29387 0.26445
# Poissons Ratio (y) = 0.29383 0.26445
# Poissons Ratio (z) = 0.22247 0.22250
#
# Static dielectric constant tensor:
#      x y z
#    x 1.564250 0.000000 0.000000 
#    y 0.000000 1.564240 0.000000 
#    z 0.000000 0.000000 1.683870 
# 
# From -- ./inp_files/2789.got.cif
#   From: 2010.05.17/outbox.cif.g08.bks.cpg/sg116_2_cif.got.tgz:2789.got - 2010.05.20 11:11:43.
