data_PCOD9557945
_publ_section_title
;
Structure prediction by ZEFSAII (Michael W. Deem and Ramdas Pophale) SiO2 
 PCOD9557945
Probable space group: P -4 C 2
;
_chemical_formula_sum "Si O2"
_cell_formula_units_Z 40
_cell_length_a 9.011727
_cell_length_b 9.011727
_cell_length_c 21.347633
_cell_angle_alpha 90.000000
_cell_angle_beta 90.000000
_cell_angle_gamma 90.000000
_cell_volume 1733.667395
_symmetry_space_group_name_H-M "P -4 C 2"
_symmetry_group_IT_number 116
_symmetry_cell_setting 'tetragonal'
loop_
_space_group_symop_operation_xyz
x,y,z
y,-x,-z
-x,-y,z
-y,x,-z
y,x,1/2-z
-y,-x,1/2-z
-x,y,1/2+z
x,-y,1/2+z
loop_
_atom_site_type_symbol
_atom_site_label
_atom_site_fract_x
_atom_site_fract_y
_atom_site_fract_z
Si Si1 0.223702 0.013606 0.223678
Si Si2 0.430523 0.838413 0.521101
Si Si3 0.896586 0.130354 0.908386
Si Si4 0.647304 0.928667 0.840612
Si Si5 0.621669 0.624714 0.903831
O O1 0.174735 0.174735 0.250000
O O2 0.216327 0.022593 0.149469
O O3 0.354302 0.955696 0.266168
O O4 0.099184 0.900817 0.250000
O O5 0.258473 0.850280 0.543506
O O6 0.531430 0.764409 0.574837
O O7 0.435019 0.722970 0.463269
O O8 0.500000 0.000000 0.507985
O O9 0.770941 0.030523 0.874476
O O10 0.000000 0.000000 0.934196
O O11 0.657609 0.754297 0.854636
O O12 0.500000 0.000000 0.867204
O O13 0.500000 0.500000 0.886137
#
# Coordination Sequence:
#
# PCOD9557945 Si02
#       5
#     8   8   8   8   8
#     4   9  17  39  66  92 134 172 219 294 365 405
#     4  12  26  42  69 105 141 193 241 299 364 444
#     4  11  22  45  71 102 136 181 244 312 362 430
#     4  11  23  39  72 103 131 189 242 291 362 439
#     4  12  25  49  67  95 151 198 235 295 373 441
#
# _framework density 23.072475000000001
#
# number of rings (size 3 to 8) (size 9 to 14) (size 15 to 20)
#    0.000    1.000    6.000    3.000    2.800    0.800 
#    0.000    0.000    0.000    0.000    0.000    0.000 
#    0.000    0.000    0.000    0.000    0.000    0.000 
#
# Total GULP energy -223216.660416 kJ/mol
# GULP energy per Si atom -5580.416510 kJ/mol
# Density = 2.301996 g / cm^3
# Si number density = 23.072475 Si / 1000 Ang^3
#
#
#
# Elastic Constant Matrix: (Units=GPa)
#
#
# Indices 1 2 3 4 5 6 
#
# 1 127.5482 61.8068 27.5785 0.0000 0.0000 0.0000
# 2 61.8068 127.5477 27.5783 0.0000 0.0000 0.0000
# 3 27.5785 27.5783 86.2515 0.0000 0.0000 0.0000
# 4 0.0000 0.0000 0.0000 16.1296 0.0000 0.0000
# 5 0.0000 0.0000 0.0000 0.0000 16.1297 0.0000
# 6 0.0000 0.0000 0.0000 0.0000 0.0000 45.5925
#
#
#
# Elastic Compliance Matrix: (Units=1/GPa)
#
#
# Indices 1 2 3 4 5 6 
#
# 1 0.010517 -0.004694 -0.001862 0.000000 0.000000 0.000000
# 2 -0.004694 0.010517 -0.001862 0.000000 0.000000 0.000000
# 3 -0.001862 -0.001862 0.012785 0.000000 0.000000 0.000000
# 4 0.000000 0.000000 0.000000 0.061998 0.000000 0.000000
# 5 0.000000 0.000000 0.000000 0.000000 0.061997 0.000000
# 6 0.000000 0.000000 0.000000 0.000000 0.000000 0.021933
#
#
# Mechanical properties :
#
#
# Convention : Reuss Voigt Hill
#
# Bulk Modulus (GPa) = 58.88028 63.91939 61.39983
# Shear Modulus (GPa) = 24.72245 30.52926 27.62586
#
# Velocity S-wave (km/s) = 3.27695 3.64151 3.46403
# Velocity P-wave (km/s) = 6.31609 6.74127 6.53214
#
# Compressibility (1/GPa) = 0.01698362
#
# Stress axis : x y z
#
# Youngs Moduli (GPa) = 95.08134 95.08104 78.21821
#
# Poissons Ratio (x) = 0.44630 0.14564
# Poissons Ratio (y) = 0.44630 0.14564
# Poissons Ratio (z) = 0.17704 0.17704
#
# Static dielectric constant tensor:
#      x y z
#    x 1.886330 0.000000 0.000000 
#    y 0.000000 1.886330 0.000000 
#    z 0.000000 0.000000 1.923160 
# 
# From -- ./inp_files/4446.got.cif
#   From: 2010.05.17/outbox.cif.g08.bks.cpg/sg116_3_cif.got.tgz:4446.got - 2010.05.20 11:11:43.
