data_PCOD9557193
_publ_section_title
;
Structure prediction by ZEFSAII (Michael W. Deem and Ramdas Pophale) SiO2 
 PCOD9557193
Probable space group: P -4 M 2
;
_chemical_formula_sum "Si O2"
_cell_formula_units_Z 48
_cell_length_a 9.362856
_cell_length_b 9.362856
_cell_length_c 32.037974
_cell_angle_alpha 90.000000
_cell_angle_beta 90.000000
_cell_angle_gamma 90.000000
_cell_volume 2808.547237
_symmetry_space_group_name_H-M "P -4 M 2"
_symmetry_group_IT_number 115
_symmetry_cell_setting 'tetragonal'
loop_
_space_group_symop_operation_xyz
x,y,z
y,-x,-z
-x,-y,z
-y,x,-z
y,x,-z
-y,-x,-z
-x,y,z
x,-y,z
loop_
_atom_site_type_symbol
_atom_site_label
_atom_site_fract_x
_atom_site_fract_y
_atom_site_fract_z
Si Si1 0.832381 0.671583 0.205741
Si Si2 0.171158 0.832332 0.951931
Si Si3 0.328614 0.667284 0.879009
Si Si4 0.335067 0.826182 0.373200
Si Si5 0.329077 0.170777 0.279897
Si Si6 0.825602 0.165476 0.545684
O O1 0.819816 0.500000 0.210211
O O2 0.752666 0.712164 0.162873
O O3 0.756619 0.747619 0.244465
O O4 0.000000 0.707586 0.203534
O O5 0.251830 0.736385 0.918630
O O6 0.000000 0.818478 0.947215
O O7 0.206759 0.000000 0.945679
O O8 0.205446 0.794555 0.000000
O O9 0.500000 0.679924 0.883850
O O10 0.293607 0.500000 0.874723
O O11 0.500000 0.784043 0.377195
O O12 0.284318 0.784191 0.326904
O O13 0.248815 0.776153 0.413466
O O14 0.330928 0.000000 0.373418
O O15 0.500000 0.195914 0.276205
O O16 0.307305 0.000000 0.276097
O O17 0.779274 0.220727 0.500000
O O18 0.000000 0.170361 0.544840
O O19 0.784858 0.000000 0.549422
#
# Coordination Sequence:
#
# PCOD9557193 Si02
#       6
#     8   8   8   8   8   8
#     4  10  21  36  53  73  98 130 166 202 244 294
#     4   9  19  36  56  78 105 136 168 202 243 290
#     4  10  21  36  54  76 101 131 168 206 243 287
#     4   8  14  25  41  62  89 119 150 186 230 279
#     4   9  18  32  50  73  98 124 159 202 244 289
#     4   8  13  21  35  57  83 111 146 186 225 268
#
# _framework density 17.090685000000001
#
# number of rings (size 3 to 8) (size 9 to 14) (size 15 to 20)
#    0.000    3.000    0.000    3.000    0.000    4.667 
#    0.000    4.167    0.000    1.000    0.000    2.333 
#    0.000    0.000    0.000    0.000    0.000    0.000 
#
# Total GULP energy -267460.979072 kJ/mol
# GULP energy per Si atom -5572.103731 kJ/mol
# Density = 1.705179 g / cm^3
# Si number density = 17.090685 Si / 1000 Ang^3
#
#
#
# Elastic Constant Matrix: (Units=GPa)
#
#
# Indices 1 2 3 4 5 6 
#
# 1 51.7029 40.9164 80.0765 0.0000 0.0000 0.0000
# 2 40.9164 51.7029 80.0766 0.0000 0.0000 0.0000
# 3 80.0765 80.0766 204.6356 0.0000 0.0000 0.0000
# 4 0.0000 0.0000 0.0000 130.7900 0.0000 0.0000
# 5 0.0000 0.0000 0.0000 0.0000 130.7911 0.0000
# 6 0.0000 0.0000 0.0000 0.0000 0.0000 23.0781
#
#
#
# Elastic Compliance Matrix: (Units=1/GPa)
#
#
# Indices 1 2 3 4 5 6 
#
# 1 0.063049 -0.029659 -0.013066 0.000000 0.000000 0.000000
# 2 -0.029659 0.063049 -0.013066 0.000000 0.000000 0.000000
# 3 -0.013066 -0.013066 0.015112 0.000000 0.000000 0.000000
# 4 0.000000 0.000000 0.000000 0.007646 0.000000 0.000000
# 5 0.000000 0.000000 0.000000 0.000000 0.007646 0.000000
# 6 0.000000 0.000000 0.000000 0.000000 0.000000 0.043331
#
#
# Mechanical properties :
#
#
# Convention : Reuss Voigt Hill
#
# Bulk Modulus (GPa) = 33.75129 78.90892 56.33011
# Shear Modulus (GPa) = 15.56225 64.06331 39.81278
#
# Velocity S-wave (km/s) = 3.02084 6.12909 4.83173
# Velocity P-wave (km/s) = 5.65319 9.81624 8.00990
#
# Compressibility (1/GPa) = 0.02962850
#
# Stress axis : x y z
#
# Youngs Moduli (GPa) = 15.86077 15.86069 66.17101
#
# Poissons Ratio (x) = 0.47041 0.86457
# Poissons Ratio (y) = 0.47042 0.86458
# Poissons Ratio (z) = 0.20723 0.20723
#
# Static dielectric constant tensor:
#      x y z
#    x 1.567130 0.000000 0.000000 
#    y 0.000000 1.567130 0.000000 
#    z 0.000000 0.000000 1.578690 
# 
# From -- ./inp_files/6013.got.cif
#   From: 2010.05.17/outbox.cif.g08.bks.cpg/sg115_4_cif.got.tgz:6013.got - 2010.05.20 11:07:42.
