data_PCOD9557611
_publ_section_title
;
Structure prediction by ZEFSAII (Michael W. Deem and Ramdas Pophale) SiO2 
 PCOD9557611
Probable space group: P -4 C 2
;
_chemical_formula_sum "Si O2"
_cell_formula_units_Z 48
_cell_length_a 8.625611
_cell_length_b 8.625611
_cell_length_c 30.509678
_cell_angle_alpha 90.000000
_cell_angle_beta 90.000000
_cell_angle_gamma 90.000000
_cell_volume 2269.955591
_symmetry_space_group_name_H-M "P -4 C 2"
_symmetry_group_IT_number 116
_symmetry_cell_setting 'tetragonal'
loop_
_space_group_symop_operation_xyz
x,y,z
y,-x,-z
-x,-y,z
-y,x,-z
y,x,1/2-z
-y,-x,1/2-z
-x,y,1/2+z
x,-y,1/2+z
loop_
_atom_site_type_symbol
_atom_site_label
_atom_site_fract_x
_atom_site_fract_y
_atom_site_fract_z
Si Si1 0.662296 0.066287 0.897631
Si Si2 0.000000 0.500000 0.428800
Si Si3 0.065097 0.170805 0.188117
Si Si4 0.000000 0.500000 0.737475
Si Si5 0.745925 0.991355 0.995217
Si Si6 0.563632 0.335135 0.611257
Si Si7 0.264053 0.588610 0.790987
O O1 0.797161 0.025908 0.863018
O O2 0.678921 0.998764 0.946301
O O3 0.661285 0.252757 0.898663
O O4 0.500000 0.000000 0.879908
O O5 0.986046 0.639362 0.462725
O O6 0.166330 0.502722 0.403741
O O7 0.250326 0.174238 0.196758
O O8 0.018713 0.336371 0.211380
O O9 0.000000 0.000000 0.200509
O O10 0.143270 0.472755 0.769861
O O11 0.845369 0.144527 0.001103
O O12 0.500000 0.500000 0.593021
O O13 0.538032 0.336719 0.663633
O O14 0.373752 0.626249 0.750000
#
# Coordination Sequence:
#
# PCOD9557611 Si02
#       7
#     8   4   8   4   8   8   8
#     4  11  23  45  67  99 144 183 233 298 355 437
#     4  12  25  45  70 106 140 184 244 293 361 440
#     4  10  22  40  68 103 138 184 240 290 360 443
#     4  10  19  41  64  98 142 182 226 303 355 404
#     4  11  25  43  68 100 137 181 231 288 360 429
#     4  11  26  47  69 101 142 188 237 294 365 434
#     4   9  21  42  65  94 141 176 231 292 349 430
#
# _framework density 21.145786999999999
#
# number of rings (size 3 to 8) (size 9 to 14) (size 15 to 20)
#    0.000    1.500    3.333    0.500    4.667    3.333 
#    3.000    5.000    0.000    0.000    0.000    0.000 
#    0.000    0.000    0.000    0.000    0.000    0.000 
#
# Total GULP energy -267453.165188 kJ/mol
# GULP energy per Si atom -5571.940941 kJ/mol
# Density = 2.109766 g / cm^3
# Si number density = 21.145787 Si / 1000 Ang^3
#
#
#
# Elastic Constant Matrix: (Units=GPa)
#
#
# Indices 1 2 3 4 5 6 
#
# 1 55.1697 3.0979 35.0554 0.0000 0.0000 0.0000
# 2 3.0979 55.1696 35.0554 0.0000 0.0000 0.0000
# 3 35.0554 35.0554 121.9212 0.0000 0.0000 0.0000
# 4 0.0000 0.0000 0.0000 88.9827 0.0000 0.0000
# 5 0.0000 0.0000 0.0000 0.0000 88.9566 0.0000
# 6 0.0000 0.0000 0.0000 0.0000 0.0000 35.4584
#
#
#
# Elastic Compliance Matrix: (Units=1/GPa)
#
#
# Indices 1 2 3 4 5 6 
#
# 1 0.022722 0.003518 -0.007545 0.000000 0.000000 0.000000
# 2 0.003518 0.022722 -0.007545 0.000000 0.000000 0.000000
# 3 -0.007545 -0.007545 0.012541 0.000000 0.000000 0.000000
# 4 0.000000 0.000000 0.000000 0.011238 0.000000 0.000000
# 5 0.000000 0.000000 0.000000 0.000000 0.011241 0.000000
# 6 0.000000 0.000000 0.000000 0.000000 0.000000 0.028202
#
#
# Mechanical properties :
#
#
# Convention : Reuss Voigt Hill
#
# Bulk Modulus (GPa) = 28.70057 42.07534 35.38795
# Shear Modulus (GPa) = 34.86159 53.28299 44.07229
#
# Velocity S-wave (km/s) = 4.06474 5.02520 4.57027
# Velocity P-wave (km/s) = 5.96922 7.32196 6.67992
#
# Compressibility (1/GPa) = 0.03484251
#
# Stress axis : x y z
#
# Youngs Moduli (GPa) = 44.00946 44.00931 79.74050
#
# Poissons Ratio (x) = -0.15483 0.60163
# Poissons Ratio (y) = -0.15483 0.60163
# Poissons Ratio (z) = 0.33204 0.33204
#
# Static dielectric constant tensor:
#      x y z
#    x 1.727250 0.000000 0.000000 
#    y 0.000000 1.727240 0.000000 
#    z 0.000000 0.000000 1.779600 
# 
# From -- ./inp_files/5321.got.cif
#   From: 2010.05.17/outbox.cif.g08.bks.cpg/sg116_3_cif.got.tgz:5321.got - 2010.05.20 11:11:43.
