data_PCOD9557624
_publ_section_title
;
Structure prediction by ZEFSAII (Michael W. Deem and Ramdas Pophale) SiO2 
 PCOD9557624
Probable space group: P -4 C 2
;
_chemical_formula_sum "Si O2"
_cell_formula_units_Z 26
_cell_length_a 11.415516
_cell_length_b 11.415516
_cell_length_c 8.359939
_cell_angle_alpha 90.000000
_cell_angle_beta 90.000000
_cell_angle_gamma 90.000000
_cell_volume 1089.417137
_symmetry_space_group_name_H-M "P -4 C 2"
_symmetry_group_IT_number 116
_symmetry_cell_setting 'tetragonal'
loop_
_space_group_symop_operation_xyz
x,y,z
y,-x,-z
-x,-y,z
-y,x,-z
y,x,1/2-z
-y,-x,1/2-z
-x,y,1/2+z
x,-y,1/2+z
loop_
_atom_site_type_symbol
_atom_site_label
_atom_site_fract_x
_atom_site_fract_y
_atom_site_fract_z
Si Si1 0.345249 0.441189 0.081241
Si Si2 0.863336 0.323468 0.447237
Si Si3 0.000000 0.000000 0.750000
Si Si4 0.757152 0.913725 0.899531
O O1 0.385599 0.385599 0.250000
O O2 0.379211 0.576275 0.057475
O O3 0.212016 0.421726 0.032343
O O4 0.870963 0.312911 0.256338
O O5 0.798154 0.201161 0.492843
O O6 0.995982 0.318706 0.503249
O O7 0.122760 0.015780 0.846733
#
# Coordination Sequence:
#
# PCOD9557624 Si02
#       4
#     8   8   2   8
#     4  11  26  46  77  95 125 168 236 284 341 387
#     4  10  22  38  65  97 136 177 218 274 324 402
#     4   8  16  30  52  86 124 178 220 250 288 382
#     4  10  20  33  63  92 144 167 233 255 341 377
#
# _framework density 23.865974999999999
#
# number of rings (size 3 to 8) (size 9 to 14) (size 15 to 20)
#    0.000    2.154    0.000    5.538   15.077    1.231 
#    0.000    1.538    0.000    0.000    0.000    0.000 
#    0.000    0.000    0.000    0.000    0.000    0.000 
#
# Total GULP energy -145205.812452 kJ/mol
# GULP energy per Si atom -5584.838940 kJ/mol
# Density = 2.381166 g / cm^3
# Si number density = 23.865975 Si / 1000 Ang^3
#
#
#
# Elastic Constant Matrix: (Units=GPa)
#
#
# Indices 1 2 3 4 5 6 
#
# 1 24.0640 0.4328 1.3171 0.0000 0.0000 0.0000
# 2 0.4328 24.0640 1.3171 0.0000 0.0000 0.0000
# 3 1.3171 1.3171 77.9671 0.0000 0.0000 0.0000
# 4 0.0000 0.0000 0.0000 22.9034 0.0000 0.0000
# 5 0.0000 0.0000 0.0000 0.0000 22.9034 0.0000
# 6 0.0000 0.0000 0.0000 0.0000 0.0000 48.6187
#
#
#
# Elastic Compliance Matrix: (Units=1/GPa)
#
#
# Indices 1 2 3 4 5 6 
#
# 1 0.041606 -0.000710 -0.000691 0.000000 0.000000 0.000000
# 2 -0.000710 0.041606 -0.000691 0.000000 0.000000 0.000000
# 3 -0.000691 -0.000691 0.012849 0.000000 0.000000 0.000000
# 4 0.000000 0.000000 0.000000 0.043662 0.000000 0.000000
# 5 0.000000 0.000000 0.000000 0.000000 0.043662 0.000000
# 6 0.000000 0.000000 0.000000 0.000000 0.000000 0.020568
#
#
# Mechanical properties :
#
#
# Convention : Reuss Voigt Hill
#
# Bulk Modulus (GPa) = 10.88401 14.69212 12.78807
# Shear Modulus (GPa) = 20.94118 27.08697 24.01407
#
# Velocity S-wave (km/s) = 2.96539 3.37257 3.17552
# Velocity P-wave (km/s) = 4.03672 4.61900 4.33764
#
# Compressibility (1/GPa) = 0.09187789
#
# Stress axis : x y z
#
# Youngs Moduli (GPa) = 24.03473 24.03473 77.82548
#
# Poissons Ratio (x) = 0.01707 0.05377
# Poissons Ratio (y) = 0.01707 0.05377
# Poissons Ratio (z) = 0.01660 0.01660
#
# Static dielectric constant tensor:
#      x y z
#    x 1.933770 0.000000 0.000000 
#    y 0.000000 1.933770 0.000000 
#    z 0.000000 0.000000 1.920020 
# 
# From -- ./inp_files/504.got.cif
#   From: 2010.05.17/outbox.cif.g08.bks.cpg/sg116_1_cif.got.tgz:504.got - 2010.05.20 11:11:43.
