data_PCOD9557321
_publ_section_title
;
Structure prediction by ZEFSAII (Michael W. Deem and Ramdas Pophale) SiO2 
 PCOD9557321
Probable space group: P -4 M 2
;
_chemical_formula_sum "Si O2"
_cell_formula_units_Z 48
_cell_length_a 9.252425
_cell_length_b 9.252425
_cell_length_c 31.589051
_cell_angle_alpha 90.000000
_cell_angle_beta 90.000000
_cell_angle_gamma 90.000000
_cell_volume 2704.255526
_symmetry_space_group_name_H-M "P -4 M 2"
_symmetry_group_IT_number 115
_symmetry_cell_setting 'tetragonal'
loop_
_space_group_symop_operation_xyz
x,y,z
y,-x,-z
-x,-y,z
-y,x,-z
y,x,-z
-y,-x,-z
-x,y,z
x,-y,z
loop_
_atom_site_type_symbol
_atom_site_label
_atom_site_fract_x
_atom_site_fract_y
_atom_site_fract_z
Si Si1 0.172715 0.170739 0.373390
Si Si2 0.672570 0.329147 0.295883
Si Si3 0.169008 0.826720 0.877210
Si Si4 0.328994 0.828093 0.538356
Si Si5 0.827437 0.172740 0.218913
Si Si6 0.669249 0.326117 0.046966
O O1 0.257697 0.247474 0.335716
O O2 0.206744 0.246880 0.417995
O O3 0.000000 0.186514 0.366135
O O4 0.204956 0.000000 0.375105
O O5 0.500000 0.310354 0.295848
O O6 0.704587 0.500000 0.298242
O O7 0.740849 0.260896 0.253691
O O8 0.212710 0.785785 0.829281
O O9 0.258687 0.754797 0.914353
O O10 0.000000 0.789222 0.882064
O O11 0.180975 0.000000 0.879746
O O12 0.261310 0.738691 0.500000
O O13 0.500000 0.801021 0.542679
O O14 0.308844 0.000000 0.530395
O O15 0.000000 0.196624 0.223776
O O16 0.803782 0.000000 0.223994
O O17 0.500000 0.288215 0.050804
O O18 0.679491 0.500000 0.047940
O O19 0.720482 0.279519 0.000000
#
# Coordination Sequence:
#
# PCOD9557321 Si02
#       6
#     8   8   8   8   8   8
#     4  10  21  38  61  85 108 140 183 227 269 315
#     4  11  24  38  53  79 113 144 176 217 265 316
#     4   9  19  35  54  78 106 134 169 216 265 312
#     4  10  21  37  58  84 113 146 183 222 267 318
#     4   9  19  37  58  78 103 137 176 216 261 315
#     4   9  19  35  52  72 102 139 176 214 258 310
#
# _framework density 17.749803
#
# number of rings (size 3 to 8) (size 9 to 14) (size 15 to 20)
#    0.000    2.333    0.000    3.500    0.000    9.000 
#    0.000    7.500    0.000    0.000    0.000    0.000 
#    0.000    0.000    0.000    0.000    0.000    0.000 
#
# Total GULP energy -267958.051348 kJ/mol
# GULP energy per Si atom -5582.459403 kJ/mol
# Density = 1.770940 g / cm^3
# Si number density = 17.749803 Si / 1000 Ang^3
#
#
#
# Elastic Constant Matrix: (Units=GPa)
#
#
# Indices 1 2 3 4 5 6 
#
# 1 70.4578 60.4811 88.2259 0.0000 0.0000 0.0000
# 2 60.4811 70.4574 88.2272 0.0000 0.0000 0.0000
# 3 88.2259 88.2272 182.3828 0.0000 0.0000 0.0000
# 4 0.0000 0.0000 0.0000 81.8848 0.0000 0.0000
# 5 0.0000 0.0000 0.0000 0.0000 81.8834 0.0000
# 6 0.0000 0.0000 0.0000 0.0000 0.0000 33.2171
#
#
#
# Elastic Compliance Matrix: (Units=1/GPa)
#
#
# Indices 1 2 3 4 5 6 
#
# 1 0.061086 -0.039148 -0.010612 0.000000 0.000000 0.000000
# 2 -0.039148 0.061089 -0.010614 0.000000 0.000000 0.000000
# 3 -0.010612 -0.010614 0.015751 0.000000 0.000000 0.000000
# 4 0.000000 0.000000 0.000000 0.012212 0.000000 0.000000
# 5 0.000000 0.000000 0.000000 0.000000 0.012212 0.000000
# 6 0.000000 0.000000 0.000000 0.000000 0.000000 0.030105
#
#
# Mechanical properties :
#
#
# Convention : Reuss Voigt Hill
#
# Bulk Modulus (GPa) = 58.21592 88.57404 73.39498
# Shear Modulus (GPa) = 15.67745 45.15466 30.41605
#
# Velocity S-wave (km/s) = 2.97517 5.04923 4.14406
# Velocity P-wave (km/s) = 6.68367 9.16530 8.02104
#
# Compressibility (1/GPa) = 0.01717743
#
# Stress axis : x y z
#
# Youngs Moduli (GPa) = 16.37045 16.36951 63.48864
#
# Poissons Ratio (x) = 0.64084 0.67372
# Poissons Ratio (y) = 0.64087 0.67388
# Poissons Ratio (z) = 0.17372 0.17375
#
# Static dielectric constant tensor:
#      x y z
#    x 1.587030 0.000000 0.000000 
#    y 0.000000 1.587030 0.000000 
#    z 0.000000 0.000000 1.585010 
# 
# From -- ./inp_files/6042.got.cif
#   From: 2010.05.17/outbox.cif.g08.bks.cpg/sg115_4_cif.got.tgz:6042.got - 2010.05.20 11:07:42.
