data_PCOD9557664
_publ_section_title
;
Structure prediction by ZEFSAII (Michael W. Deem and Ramdas Pophale) SiO2 
 PCOD9557664
Probable space group: P -4 C 2
;
_chemical_formula_sum "Si O2"
_cell_formula_units_Z 36
_cell_length_a 10.370307
_cell_length_b 10.370307
_cell_length_c 14.927429
_cell_angle_alpha 90.000000
_cell_angle_beta 90.000000
_cell_angle_gamma 90.000000
_cell_volume 1605.344487
_symmetry_space_group_name_H-M "P -4 C 2"
_symmetry_group_IT_number 116
_symmetry_cell_setting 'tetragonal'
loop_
_space_group_symop_operation_xyz
x,y,z
y,-x,-z
-x,-y,z
-y,x,-z
y,x,1/2-z
-y,-x,1/2-z
-x,y,1/2+z
x,-y,1/2+z
loop_
_atom_site_type_symbol
_atom_site_label
_atom_site_fract_x
_atom_site_fract_y
_atom_site_fract_z
Si Si1 0.353575 0.895305 0.733703
Si Si2 0.867010 0.191953 0.612611
Si Si3 0.500000 0.000000 0.489976
Si Si4 0.399007 0.161265 0.654745
Si Si5 0.254582 0.144807 0.918809
O O1 0.222639 0.894437 0.675054
O O2 0.328008 0.852390 0.834696
O O3 0.456017 0.801165 0.684738
O O4 0.381097 0.047476 0.727515
O O5 0.808895 0.181068 0.514479
O O6 0.020710 0.171970 0.613764
O O7 0.579298 0.909951 0.559397
O O8 0.396778 0.912167 0.438267
O O9 0.272831 0.247572 0.642221
#
# Coordination Sequence:
#
# PCOD9557664 Si02
#       5
#     8   8   4   8   8
#     4   9  21  41  60  91 146 188 224 286 370 419
#     4  11  21  37  65  97 138 184 236 296 348 423
#     4  10  20  38  62  98 140 186 222 294 352 420
#     4  10  20  41  61  95 139 184 227 281 350 440
#     4  12  22  38  68 102 136 182 243 291 353 418
#
# _framework density 22.425096
#
# number of rings (size 3 to 8) (size 9 to 14) (size 15 to 20)
#    0.000    1.778    6.667    0.000    0.000    5.778 
#    0.000    4.444    0.000    4.667    0.000    9.333 
#    0.000    0.000    0.000    0.000    0.000    0.000 
#
# Total GULP energy -200444.266162 kJ/mol
# GULP energy per Si atom -5567.896282 kJ/mol
# Density = 2.237406 g / cm^3
# Si number density = 22.425096 Si / 1000 Ang^3
#
#
#
# Elastic Constant Matrix: (Units=GPa)
#
#
# Indices 1 2 3 4 5 6 
#
# 1 106.5321 43.1152 41.9405 0.0000 0.0000 0.0000
# 2 43.1152 106.5321 41.9405 0.0000 0.0000 0.0000
# 3 41.9405 41.9405 95.9856 0.0000 0.0000 0.0000
# 4 0.0000 0.0000 0.0000 21.4444 0.0000 0.0000
# 5 0.0000 0.0000 0.0000 0.0000 21.4444 0.0000
# 6 0.0000 0.0000 0.0000 0.0000 0.0000 38.0574
#
#
#
# Elastic Compliance Matrix: (Units=1/GPa)
#
#
# Indices 1 2 3 4 5 6 
#
# 1 0.012309 -0.003459 -0.003867 0.000000 0.000000 0.000000
# 2 -0.003459 0.012309 -0.003867 0.000000 0.000000 0.000000
# 3 -0.003867 -0.003867 0.013797 0.000000 0.000000 0.000000
# 4 0.000000 0.000000 0.000000 0.046632 0.000000 0.000000
# 5 0.000000 0.000000 0.000000 0.000000 0.046632 0.000000
# 6 0.000000 0.000000 0.000000 0.000000 0.000000 0.026276
#
#
# Mechanical properties :
#
#
# Convention : Reuss Voigt Hill
#
# Bulk Modulus (GPa) = 62.38463 62.56024 62.47244
# Shear Modulus (GPa) = 26.92715 28.32616 27.62665
#
# Velocity S-wave (km/s) = 3.46896 3.55793 3.51373
# Velocity P-wave (km/s) = 6.62755 6.69601 6.66186
#
# Compressibility (1/GPa) = 0.01602959
#
# Stress axis : x y z
#
# Youngs Moduli (GPa) = 81.23962 81.23962 72.47701
#
# Poissons Ratio (x) = 0.28104 0.28026
# Poissons Ratio (y) = 0.28104 0.28026
# Poissons Ratio (z) = 0.31415 0.31415
#
# Static dielectric constant tensor:
#      x y z
#    x 1.970420 0.000000 0.000000 
#    y 0.000000 1.970420 0.000000 
#    z 0.000000 0.000000 1.879360 
# 
# From -- ./inp_files/2484.got.cif
#   From: 2010.05.17/outbox.cif.g08.bks.cpg/sg116_2_cif.got.tgz:2484.got - 2010.05.20 11:11:43.
