data_PCOD9557455
_publ_section_title
;
Structure prediction by ZEFSAII (Michael W. Deem and Ramdas Pophale) SiO2 
 PCOD9557455
Probable space group: P -4 M 2
;
_chemical_formula_sum "Si O2"
_cell_formula_units_Z 48
_cell_length_a 9.017124
_cell_length_b 9.017124
_cell_length_c 32.851744
_cell_angle_alpha 90.000000
_cell_angle_beta 90.000000
_cell_angle_gamma 90.000000
_cell_volume 2671.126856
_symmetry_space_group_name_H-M "P -4 M 2"
_symmetry_group_IT_number 115
_symmetry_cell_setting 'tetragonal'
loop_
_space_group_symop_operation_xyz
x,y,z
y,-x,-z
-x,-y,z
-y,x,-z
y,x,-z
-y,-x,-z
-x,y,z
x,-y,z
loop_
_atom_site_type_symbol
_atom_site_label
_atom_site_fract_x
_atom_site_fract_y
_atom_site_fract_z
Si Si1 0.319538 0.325825 0.368099
Si Si2 0.679693 0.677304 0.543827
Si Si3 0.176024 0.324099 0.117881
Si Si4 0.680451 0.172433 0.285938
Si Si5 0.323692 0.821180 0.195875
Si Si6 0.323639 0.823760 0.039365
O O1 0.500000 0.311796 0.368513
O O2 0.286342 0.500000 0.366273
O O3 0.266002 0.266438 0.412187
O O4 0.265184 0.251526 0.326684
O O5 0.735315 0.735315 0.500000
O O6 0.500000 0.694107 0.544163
O O7 0.707218 0.500000 0.543470
O O8 0.204097 0.500000 0.116824
O O9 0.236625 0.256187 0.159764
O O10 0.256675 0.246899 0.080055
O O11 0.000000 0.299690 0.114622
O O12 0.500000 0.180956 0.285913
O O13 0.725630 0.228629 0.241217
O O14 0.720066 0.000000 0.288359
O O15 0.500000 0.791412 0.191614
O O16 0.305954 0.000000 0.193833
O O17 0.500000 0.798716 0.038105
O O18 0.297199 0.000000 0.039336
O O19 0.248749 0.751252 0.000000
#
# Coordination Sequence:
#
# PCOD9557455 Si02
#       6
#     8   8   8   8   8   8
#     4   8  12  17  27  45  69  99 136 175 217 269
#     4   7   9  13  21  35  59  91 124 161 209 262
#     4  11  24  39  55  79 109 138 171 210 250 294
#     4   8  14  24  37  55  82 113 144 183 231 279
#     4   9  18  33  52  73  97 128 166 204 245 296
#     4  11  24  41  62  88 115 143 177 213 248 290
#
# _framework density 17.969943000000001
#
# number of rings (size 3 to 8) (size 9 to 14) (size 15 to 20)
#    0.000    3.000    0.000    4.500    0.000    7.667 
#    0.000    1.667    0.000    0.000    0.000    0.000 
#    0.000    1.333    0.000    9.333    0.000    9.333 
#
# Total GULP energy -267299.155487 kJ/mol
# GULP energy per Si atom -5568.732406 kJ/mol
# Density = 1.792904 g / cm^3
# Si number density = 17.969943 Si / 1000 Ang^3
#
#
#
# Elastic Constant Matrix: (Units=GPa)
#
#
# Indices 1 2 3 4 5 6 
#
# 1 42.0351 45.0087 66.9372 0.0000 0.0000 0.0000
# 2 45.0087 42.0346 66.9365 0.0000 0.0000 0.0000
# 3 66.9372 66.9365 241.3252 0.0000 0.0000 0.0000
# 4 0.0000 0.0000 0.0000 -91.4058 0.0000 0.0000
# 5 0.0000 0.0000 0.0000 0.0000 -91.3949 0.0000
# 6 0.0000 0.0000 0.0000 0.0000 0.0000 19.2577
#
#
#
# Elastic Compliance Matrix: (Units=1/GPa)
#
#
# Indices 1 2 3 4 5 6 
#
# 1 -0.158116 0.178152 -0.005557 0.000000 0.000000 0.000000
# 2 0.178152 -0.158117 -0.005558 0.000000 0.000000 0.000000
# 3 -0.005557 -0.005558 0.007227 0.000000 0.000000 0.000000
# 4 0.000000 0.000000 0.000000 -0.010940 0.000000 0.000000
# 5 0.000000 0.000000 0.000000 0.000000 -0.010942 0.000000
# 6 0.000000 0.000000 0.000000 0.000000 0.000000 0.051927
#
#
# Mechanical properties :
#
#
# Convention : Reuss Voigt Hill
#
# Bulk Modulus (GPa) = 39.89023 75.90662 57.89843
# Shear Modulus (GPa) = -8.26884 -22.94110 -15.60497
#
# Velocity S-wave (km/s) = -2.14743 -3.57688 -2.95005
# Velocity P-wave (km/s) = 4.01221 5.02731 4.54817
#
# Compressibility (1/GPa) = 0.02506879
#
# Stress axis : x y z
#
# Youngs Moduli (GPa) = -6.32447 -6.32443 138.37585
#
# Poissons Ratio (x) = 1.12671 0.76895
# Poissons Ratio (y) = 1.12672 0.76906
# Poissons Ratio (z) = -0.03514 -0.03515
#
# Static dielectric constant tensor:
#      x y z
#    x 1.599380 0.000000 0.000000 
#    y 0.000000 1.599380 0.000000 
#    z 0.000000 0.000000 1.655750 
# 
# From -- ./inp_files/6058.got.cif
#   From: 2010.05.17/outbox.cif.g08.bks.cpg/sg115_4_cif.got.tgz:6058.got - 2010.05.20 11:07:42.
