data_PCOD9557766
_publ_section_title
;
Structure prediction by ZEFSAII (Michael W. Deem and Ramdas Pophale) SiO2 
 PCOD9557766
Probable space group: P -4 C 2
;
_chemical_formula_sum "Si O2"
_cell_formula_units_Z 56
_cell_length_a 9.548420
_cell_length_b 9.548420
_cell_length_c 23.638656
_cell_angle_alpha 90.000000
_cell_angle_beta 90.000000
_cell_angle_gamma 90.000000
_cell_volume 2155.191215
_symmetry_space_group_name_H-M "P -4 C 2"
_symmetry_group_IT_number 116
_symmetry_cell_setting 'tetragonal'
loop_
_space_group_symop_operation_xyz
x,y,z
y,-x,-z
-x,-y,z
-y,x,-z
y,x,1/2-z
-y,-x,1/2-z
-x,y,1/2+z
x,-y,1/2+z
loop_
_atom_site_type_symbol
_atom_site_label
_atom_site_fract_x
_atom_site_fract_y
_atom_site_fract_z
Si Si1 0.483673 0.259446 0.667739
Si Si2 0.297067 0.467361 0.174066
Si Si3 0.812625 0.130376 0.481597
Si Si4 0.839156 0.522807 0.455474
Si Si5 0.829894 0.991197 0.864667
Si Si6 0.402986 0.141845 0.429366
Si Si7 0.889474 0.655434 0.740029
O O1 0.635122 0.317521 0.688662
O O2 0.394822 0.397803 0.683387
O O3 0.498212 0.246168 0.600857
O O4 0.412879 0.123012 0.696376
O O5 0.260481 0.470842 0.108411
O O6 0.158364 0.515334 0.206799
O O7 0.813272 0.413917 0.505803
O O8 0.805291 0.131485 0.412421
O O9 0.965953 0.180719 0.499555
O O10 0.824559 0.672438 0.485942
O O11 0.000000 0.500000 0.438508
O O12 0.746722 0.980403 0.805149
O O13 0.744592 0.114029 0.897236
O O14 0.000000 0.000000 0.858126
O O15 0.500000 0.000000 0.425708
O O16 0.773169 0.773169 0.750000
#
# Coordination Sequence:
#
# PCOD9557766 Si02
#       7
#     8   8   8   8   8   8   8
#     4  10  24  42  71 108 142 197 262 328 391 475
#     4  10  21  44  74 103 138 196 261 322 398 477
#     4  11  23  41  71 113 157 206 259 328 410 492
#     4  11  24  42  67 106 158 202 257 334 403 481
#     4  12  24  46  75 107 148 210 266 319 405 491
#     4  11  22  43  73 105 148 202 252 320 398 485
#     4  10  22  45  74  99 141 197 257 326 394 470
#
# _framework density 25.983774
#
# number of rings (size 3 to 8) (size 9 to 14) (size 15 to 20)
#    0.000    1.286    5.714    0.429    2.000    6.571 
#    2.571    1.429    6.286    0.857    0.000    0.000 
#    0.000    0.000    0.000    0.000    0.000    0.000 
#
# Total GULP energy -311842.776653 kJ/mol
# GULP energy per Si atom -5568.621012 kJ/mol
# Density = 2.592463 g / cm^3
# Si number density = 25.983774 Si / 1000 Ang^3
#
#
#
# Elastic Constant Matrix: (Units=GPa)
#
#
# Indices 1 2 3 4 5 6 
#
# 1 104.5631 51.0004 40.3409 0.0000 0.0000 0.0000
# 2 51.0004 104.5631 40.3409 0.0000 0.0000 0.0000
# 3 40.3409 40.3409 170.4988 0.0000 0.0000 0.0000
# 4 0.0000 0.0000 0.0000 34.6864 0.0000 0.0000
# 5 0.0000 0.0000 0.0000 0.0000 34.6864 0.0000
# 6 0.0000 0.0000 0.0000 0.0000 0.0000 37.8653
#
#
#
# Elastic Compliance Matrix: (Units=1/GPa)
#
#
# Indices 1 2 3 4 5 6 
#
# 1 0.012999 -0.005671 -0.001734 0.000000 0.000000 0.000000
# 2 -0.005671 0.012999 -0.001734 0.000000 0.000000 0.000000
# 3 -0.001734 -0.001734 0.006686 0.000000 0.000000 0.000000
# 4 0.000000 0.000000 0.000000 0.028830 0.000000 0.000000
# 5 0.000000 0.000000 0.000000 0.000000 0.028830 0.000000
# 6 0.000000 0.000000 0.000000 0.000000 0.000000 0.026409
#
#
# Mechanical properties :
#
#
# Convention : Reuss Voigt Hill
#
# Bulk Modulus (GPa) = 69.41759 71.44324 70.43041
# Shear Modulus (GPa) = 35.75760 37.97717 36.86738
#
# Velocity S-wave (km/s) = 3.71368 3.82720 3.77086
# Velocity P-wave (km/s) = 6.72029 6.86185 6.79144
#
# Compressibility (1/GPa) = 0.01440557
#
# Stress axis : x y z
#
# Youngs Moduli (GPa) = 76.93157 76.93157 149.57636
#
# Poissons Ratio (x) = 0.43629 0.25932
# Poissons Ratio (y) = 0.43629 0.25932
# Poissons Ratio (z) = 0.13338 0.13338
#
# Static dielectric constant tensor:
#      x y z
#    x 2.239470 0.000000 0.000000 
#    y 0.000000 2.239470 0.000000 
#    z 0.000000 0.000000 2.173560 
# 
# From -- ./inp_files/4618.got.cif
#   From: 2010.05.17/outbox.cif.g08.bks.cpg/sg116_3_cif.got.tgz:4618.got - 2010.05.20 11:11:43.
