data_PCOD9557688
_publ_section_title
;
Structure prediction by ZEFSAII (Michael W. Deem and Ramdas Pophale) SiO2 
 PCOD9557688
Probable space group: P -4 C 2
;
_chemical_formula_sum "Si O2"
_cell_formula_units_Z 58
_cell_length_a 17.818429
_cell_length_b 17.818429
_cell_length_c 9.795933
_cell_angle_alpha 90.000000
_cell_angle_beta 90.000000
_cell_angle_gamma 90.000000
_cell_volume 3110.173580
_symmetry_space_group_name_H-M "P -4 C 2"
_symmetry_group_IT_number 116
_symmetry_cell_setting 'tetragonal'
loop_
_space_group_symop_operation_xyz
x,y,z
y,-x,-z
-x,-y,z
-y,x,-z
y,x,1/2-z
-y,-x,1/2-z
-x,y,1/2+z
x,-y,1/2+z
loop_
_atom_site_type_symbol
_atom_site_label
_atom_site_fract_x
_atom_site_fract_y
_atom_site_fract_z
Si Si1 0.071643 0.642977 0.605971
Si Si2 0.337130 0.933241 0.213758
Si Si3 0.793801 0.282569 0.135395
Si Si4 0.237247 0.705433 0.603190
Si Si5 0.376336 0.386059 0.409599
Si Si6 0.134109 0.502940 0.731792
Si Si7 0.220884 0.443767 0.498355
Si Si8 0.500000 0.500000 0.000000
O O1 0.054055 0.661167 0.448661
O O2 0.157033 0.668920 0.626558
O O3 0.075804 0.556223 0.653486
O O4 0.009597 0.677432 0.704991
O O5 0.281262 0.869993 0.275791
O O6 0.421285 0.901414 0.243318
O O7 0.729481 0.270519 0.250000
O O8 0.796057 0.361274 0.056335
O O9 0.771069 0.228801 0.010064
O O10 0.264939 0.735062 0.750000
O O11 0.301283 0.647822 0.542885
O O12 0.376380 0.376380 0.250000
O O13 0.306569 0.438977 0.452254
O O14 0.453189 0.429825 0.438340
O O15 0.203828 0.495849 0.627260
O O16 0.165970 0.535162 0.873880
#
# Coordination Sequence:
#
# PCOD9557688 Si02
#       8
#     8   8   8   8   8   8   8   2
#     4  12  24  39  62  90 128 167 208 260 315 393
#     4  11  26  37  59  93 131 162 209 260 325 381
#     4  10  20  43  61  89 118 161 212 261 309 373
#     4  10  22  42  68  85 118 169 217 256 314 387
#     4  10  23  42  56  82 112 154 208 274 326 376
#     4  11  22  41  61  89 123 165 204 259 320 393
#     4  10  23  38  66  87 113 159 217 256 321 392
#     4  12  26  36  56  82 116 144 206 284 346 360
#
# _framework density 18.648477
#
# number of rings (size 3 to 8) (size 9 to 14) (size 15 to 20)
#    0.000    1.379    2.759    3.103    9.655    1.103 
#    2.483    0.000    0.000    0.000    0.000    0.000 
#    0.000    3.310    0.000    0.000    0.000    0.000 
#
# Total GULP energy -322946.471451 kJ/mol
# GULP energy per Si atom -5568.042611 kJ/mol
# Density = 1.860603 g / cm^3
# Si number density = 18.648477 Si / 1000 Ang^3
#
#
#
# Elastic Constant Matrix: (Units=GPa)
#
#
# Indices 1 2 3 4 5 6 
#
# 1 71.4964 29.5261 32.9901 0.0000 0.0000 0.0000
# 2 29.5261 71.4963 32.9896 0.0000 0.0000 0.0000
# 3 32.9901 32.9896 125.5304 0.0000 0.0000 0.0000
# 4 0.0000 0.0000 0.0000 31.0457 0.0000 0.0000
# 5 0.0000 0.0000 0.0000 0.0000 31.0453 0.0000
# 6 0.0000 0.0000 0.0000 0.0000 0.0000 18.3014
#
#
#
# Elastic Compliance Matrix: (Units=1/GPa)
#
#
# Indices 1 2 3 4 5 6 
#
# 1 0.017888 -0.005938 -0.003141 0.000000 0.000000 0.000000
# 2 -0.005938 0.017888 -0.003140 0.000000 0.000000 0.000000
# 3 -0.003141 -0.003140 0.009617 0.000000 0.000000 0.000000
# 4 0.000000 0.000000 0.000000 0.032211 0.000000 0.000000
# 5 0.000000 0.000000 0.000000 0.000000 0.032211 0.000000
# 6 0.000000 0.000000 0.000000 0.000000 0.000000 0.054641
#
#
# Mechanical properties :
#
#
# Convention : Reuss Voigt Hill
#
# Bulk Modulus (GPa) = 47.72188 51.05939 49.39063
# Shear Modulus (GPa) = 25.52600 27.61296 26.56948
#
# Velocity S-wave (km/s) = 3.70374 3.85217 3.77869
# Velocity P-wave (km/s) = 6.62843 6.87205 6.75133
#
# Compressibility (1/GPa) = 0.02095475
#
# Stress axis : x y z
#
# Youngs Moduli (GPa) = 55.90288 55.90305 103.98410
#
# Poissons Ratio (x) = 0.33197 0.32656
# Poissons Ratio (y) = 0.33197 0.32655
# Poissons Ratio (z) = 0.17556 0.17556
#
# Static dielectric constant tensor:
#      x y z
#    x 1.683960 0.000000 0.000000 
#    y 0.000000 1.683970 0.000000 
#    z 0.000000 0.000000 1.660630 
# 
# From -- ./inp_files/1039.got.cif
#   From: 2010.05.17/outbox.cif.g08.bks.cpg/sg116_1_cif.got.tgz:1039.got - 2010.05.20 11:11:43.
