data_PCOD9557574
_publ_section_title
;
Structure prediction by ZEFSAII (Michael W. Deem and Ramdas Pophale) SiO2 
 PCOD9557574
Probable space group: P -4 C 2
;
_chemical_formula_sum "Si O2"
_cell_formula_units_Z 64
_cell_length_a 10.833444
_cell_length_b 10.833444
_cell_length_c 25.024729
_cell_angle_alpha 90.000000
_cell_angle_beta 90.000000
_cell_angle_gamma 90.000000
_cell_volume 2936.990005
_symmetry_space_group_name_H-M "P -4 C 2"
_symmetry_group_IT_number 116
_symmetry_cell_setting 'tetragonal'
loop_
_space_group_symop_operation_xyz
x,y,z
y,-x,-z
-x,-y,z
-y,x,-z
y,x,1/2-z
-y,-x,1/2-z
-x,y,1/2+z
x,-y,1/2+z
loop_
_atom_site_type_symbol
_atom_site_label
_atom_site_fract_x
_atom_site_fract_y
_atom_site_fract_z
Si Si1 0.124307 0.423727 0.937230
Si Si2 0.093734 0.826117 0.506410
Si Si3 0.123553 0.701953 0.328877
Si Si4 0.170349 0.704407 0.609875
Si Si5 0.150218 0.474366 0.541436
Si Si6 0.854145 0.470709 0.234578
Si Si7 0.838985 0.717170 0.294088
Si Si8 0.686000 0.882441 0.865427
O O1 0.102415 0.295634 0.969875
O O2 0.164609 0.385306 0.878342
O O3 0.000000 0.500000 0.927294
O O4 0.195061 0.509632 0.980700
O O5 0.159817 0.804995 0.562884
O O6 0.950418 0.853078 0.518518
O O7 0.172575 0.639830 0.275218
O O8 0.185371 0.831664 0.343490
O O9 0.976080 0.708826 0.319527
O O10 0.205675 0.582005 0.577817
O O11 0.256724 0.748111 0.657006
O O12 0.031125 0.685055 0.632836
O O13 0.164929 0.350957 0.575481
O O14 0.000000 0.500000 0.539906
O O15 0.802185 0.595551 0.260328
O O16 0.833200 0.419563 0.175285
O O17 0.000000 0.500000 0.236199
O O18 0.825896 0.825896 0.250000
#
# Coordination Sequence:
#
# PCOD9557574 Si02
#       8
#     8   8   8   8   8   8   8   8
#     4  10  19  34  53  79 116 153 196 237 276 340
#     4  10  20  33  51  81 119 153 181 225 292 357
#     4  11  23  36  56  85 118 153 189 240 298 347
#     4  10  19  33  56  83 111 146 189 233 284 347
#     4   8  17  33  57  82 108 151 197 234 278 343
#     4  10  21  38  56  77 109 152 198 235 275 339
#     4  11  22  37  58  85 115 151 192 239 293 353
#     4  11  20  37  60  85 115 150 192 241 294 347
#
# _framework density 21.791015999999999
#
# number of rings (size 3 to 8) (size 9 to 14) (size 15 to 20)
#    0.000    1.875    0.000    7.125    0.000    1.500 
#    0.000    3.125    0.000    5.250    0.000    0.000 
#    0.000    4.500    0.000    0.000    0.000    0.000 
#
# Total GULP energy -357071.201758 kJ/mol
# GULP energy per Si atom -5579.237527 kJ/mol
# Density = 2.174142 g / cm^3
# Si number density = 21.791016 Si / 1000 Ang^3
#
#
#
# Elastic Constant Matrix: (Units=GPa)
#
#
# Indices 1 2 3 4 5 6 
#
# 1 33.3073 -2.0858 6.7358 0.0000 0.0000 0.0000
# 2 -2.0858 33.3073 6.7358 0.0000 0.0000 0.0000
# 3 6.7358 6.7358 107.2311 0.0000 0.0000 0.0000
# 4 0.0000 0.0000 0.0000 30.2663 0.0000 0.0000
# 5 0.0000 0.0000 0.0000 0.0000 30.2663 0.0000
# 6 0.0000 0.0000 0.0000 0.0000 0.0000 15.6282
#
#
#
# Elastic Compliance Matrix: (Units=1/GPa)
#
#
# Indices 1 2 3 4 5 6 
#
# 1 0.030588 0.002334 -0.002068 0.000000 0.000000 0.000000
# 2 0.002334 0.030588 -0.002068 0.000000 0.000000 0.000000
# 3 -0.002068 -0.002068 0.009585 0.000000 0.000000 0.000000
# 4 0.000000 0.000000 0.000000 0.033040 0.000000 0.000000
# 5 0.000000 0.000000 0.000000 0.000000 0.033040 0.000000
# 6 0.000000 0.000000 0.000000 0.000000 0.000000 0.063987
#
#
# Mechanical properties :
#
#
# Convention : Reuss Voigt Hill
#
# Bulk Modulus (GPa) = 14.89056 21.84636 18.36846
# Shear Modulus (GPa) = 22.04407 26.06281 24.05344
#
# Velocity S-wave (km/s) = 3.18404 3.46213 3.32599
# Velocity P-wave (km/s) = 4.51283 5.10185 4.81636
#
# Compressibility (1/GPa) = 0.06715663
#
# Stress axis : x y z
#
# Youngs Moduli (GPa) = 32.69272 32.69272 104.32470
#
# Poissons Ratio (x) = -0.07630 0.21574
# Poissons Ratio (y) = -0.07630 0.21574
# Poissons Ratio (z) = 0.06761 0.06761
#
# Static dielectric constant tensor:
#      x y z
#    x 1.824670 0.000000 0.000000 
#    y 0.000000 1.824670 0.000000 
#    z 0.000000 0.000000 1.834470 
# 
# From -- ./inp_files/4659.got.cif
#   From: 2010.05.17/outbox.cif.g08.bks.cpg/sg116_3_cif.got.tgz:4659.got - 2010.05.20 11:11:43.
