data_PCOD9557764
_publ_section_title
;
Structure prediction by ZEFSAII (Michael W. Deem and Ramdas Pophale) SiO2 
 PCOD9557764
Probable space group: P -4 C 2
;
_chemical_formula_sum "Si O2"
_cell_formula_units_Z 26
_cell_length_a 10.179545
_cell_length_b 10.179545
_cell_length_c 10.054496
_cell_angle_alpha 90.000000
_cell_angle_beta 90.000000
_cell_angle_gamma 90.000000
_cell_volume 1041.878411
_symmetry_space_group_name_H-M "P -4 C 2"
_symmetry_group_IT_number 116
_symmetry_cell_setting 'tetragonal'
loop_
_space_group_symop_operation_xyz
x,y,z
y,-x,-z
-x,-y,z
-y,x,-z
y,x,1/2-z
-y,-x,1/2-z
-x,y,1/2+z
x,-y,1/2+z
loop_
_atom_site_type_symbol
_atom_site_label
_atom_site_fract_x
_atom_site_fract_y
_atom_site_fract_z
Si Si1 0.629905 0.151364 0.771319
Si Si2 0.500000 0.500000 0.000000
Si Si3 0.209328 0.451166 0.952153
Si Si4 0.065555 0.799326 0.518466
O O1 0.723856 0.276145 0.750000
O O2 0.554250 0.131557 0.636200
O O3 0.722790 0.044606 0.841956
O O4 0.528360 0.187421 0.889772
O O5 0.468042 0.636025 0.076250
O O6 0.151991 0.304745 0.935821
O O7 0.929385 0.847718 0.458744
#
# Coordination Sequence:
#
# PCOD9557764 Si02
#       4
#     8   2   8   8
#     4  10  21  43  75 108 155 203 269 334 412 489
#     4  12  20  42  68 110 152 214 248 330 436 458
#     4  10  22  39  78 109 157 206 264 341 406 499
#     4   9  21  47  83 108 155 221 281 333 402 493
#
# _framework density 24.954926
#
# number of rings (size 3 to 8) (size 9 to 14) (size 15 to 20)
#    1.846    0.308    3.077    0.000    0.000    2.462 
#    0.000   12.308   27.077    0.000    0.000    4.308 
#    0.000    0.000    0.000    0.000    0.000    0.000 
#
# Total GULP energy -145146.582628 kJ/mol
# GULP energy per Si atom -5582.560870 kJ/mol
# Density = 2.489813 g / cm^3
# Si number density = 24.954926 Si / 1000 Ang^3
#
#
#
# Elastic Constant Matrix: (Units=GPa)
#
#
# Indices 1 2 3 4 5 6 
#
# 1 139.5721 55.7862 12.9444 0.0000 0.0000 0.0000
# 2 55.7862 139.5720 12.9447 0.0000 0.0000 0.0000
# 3 12.9444 12.9447 96.0937 0.0000 0.0000 0.0000
# 4 0.0000 0.0000 0.0000 148.3624 0.0000 0.0000
# 5 0.0000 0.0000 0.0000 0.0000 149.0179 0.0000
# 6 0.0000 0.0000 0.0000 0.0000 0.0000 44.5404
#
#
#
# Elastic Compliance Matrix: (Units=1/GPa)
#
#
# Indices 1 2 3 4 5 6 
#
# 1 0.008574 -0.003362 -0.000702 0.000000 0.000000 0.000000
# 2 -0.003362 0.008574 -0.000702 0.000000 0.000000 0.000000
# 3 -0.000702 -0.000702 0.010596 0.000000 0.000000 0.000000
# 4 0.000000 0.000000 0.000000 0.006740 0.000000 0.000000
# 5 0.000000 0.000000 0.000000 0.000000 0.006711 0.000000
# 6 0.000000 0.000000 0.000000 0.000000 0.000000 0.022452
#
#
# Mechanical properties :
#
#
# Convention : Reuss Voigt Hill
#
# Bulk Modulus (GPa) = 54.91174 59.84315 57.37744
# Shear Modulus (GPa) = 63.09385 87.95499 75.52442
#
# Velocity S-wave (km/s) = 5.03369 5.94324 5.50727
# Velocity P-wave (km/s) = 7.47236 8.43378 7.96758
#
# Compressibility (1/GPa) = 0.01821104
#
# Stress axis : x y z
#
# Youngs Moduli (GPa) = 116.63840 116.63825 94.37830
#
# Poissons Ratio (x) = 0.39210 0.06626
# Poissons Ratio (y) = 0.39210 0.06626
# Poissons Ratio (z) = 0.08189 0.08189
#
# Static dielectric constant tensor:
#      x y z
#    x 1.849890 0.000000 0.000000 
#    y 0.000000 1.850550 0.000000 
#    z 0.000000 0.000000 2.000830 
# 
# From -- ./inp_files/1414.got.cif
#   From: 2010.05.17/outbox.cif.g08.bks.cpg/sg116_1_cif.got.tgz:1414.got - 2010.05.20 11:11:43.
