data_PCOD9557412
_publ_section_title
;
Structure prediction by ZEFSAII (Michael W. Deem and Ramdas Pophale) SiO2 
 PCOD9557412
Probable space group: P -4 M 2
;
_chemical_formula_sum "Si O2"
_cell_formula_units_Z 48
_cell_length_a 13.286571
_cell_length_b 13.286571
_cell_length_c 12.686987
_cell_angle_alpha 90.000000
_cell_angle_beta 90.000000
_cell_angle_gamma 90.000000
_cell_volume 2239.671482
_symmetry_space_group_name_H-M "P -4 M 2"
_symmetry_group_IT_number 115
_symmetry_cell_setting 'tetragonal'
loop_
_space_group_symop_operation_xyz
x,y,z
y,-x,-z
-x,-y,z
-y,x,-z
y,x,-z
-y,-x,-z
-x,y,z
x,-y,z
loop_
_atom_site_type_symbol
_atom_site_label
_atom_site_fract_x
_atom_site_fract_y
_atom_site_fract_z
Si Si1 0.327409 0.118711 0.392260
Si Si2 0.117531 0.383332 0.220272
Si Si3 0.611707 0.877956 0.160109
Si Si4 0.245683 0.387403 0.427678
Si Si5 0.881976 0.891558 0.659234
Si Si6 0.185249 0.831539 0.888269
O O1 0.380605 0.150809 0.284103
O O2 0.385276 0.150359 0.495022
O O3 0.211587 0.156818 0.391099
O O4 0.321191 0.000000 0.385788
O O5 0.130664 0.500000 0.188666
O O6 0.198070 0.360505 0.313466
O O7 0.136249 0.300789 0.130097
O O8 0.000000 0.372998 0.254244
O O9 0.500000 0.851976 0.120293
O O10 0.622913 0.000000 0.151457
O O11 0.710423 0.826711 0.112773
O O12 0.322965 0.322965 0.500000
O O13 0.286872 0.500000 0.416170
O O14 0.869159 0.875276 0.784650
O O15 0.000000 0.896476 0.634749
O O16 0.837102 0.000000 0.627886
O O17 0.138623 0.861378 0.000000
#
# Coordination Sequence:
#
# PCOD9557412 Si02
#       6
#     8   8   8   8   8   8
#     4   9  17  31  54  82 108 138 179 221 264 321
#     4  10  23  42  61  84 117 156 197 242 292 346
#     4   9  18  33  53  79 110 139 173 225 284 338
#     4  11  22  36  57  84 114 150 192 234 279 335
#     4   9  18  32  50  77 114 148 178 219 274 338
#     4  11  22  35  54  78 104 140 189 241 290 341
#
# _framework density 21.431715000000001
#
# number of rings (size 3 to 8) (size 9 to 14) (size 15 to 20)
#    0.000    2.167    0.000    5.000    0.000    5.167 
#    0.000    3.333    0.000    3.500    0.000    3.500 
#    0.000    0.000    0.000    0.000    0.000    0.000 
#
# Total GULP energy -267715.806052 kJ/mol
# GULP energy per Si atom -5577.412626 kJ/mol
# Density = 2.138294 g / cm^3
# Si number density = 21.431715 Si / 1000 Ang^3
#
#
#
# Elastic Constant Matrix: (Units=GPa)
#
#
# Indices 1 2 3 4 5 6 
#
# 1 87.3051 35.3644 -1.0496 0.0000 0.0000 0.0000
# 2 35.3644 87.3053 -1.0496 0.0000 0.0000 0.0000
# 3 -1.0496 -1.0496 84.0542 0.0000 0.0000 0.0000
# 4 0.0000 0.0000 0.0000 -0.5671 0.0000 0.0000
# 5 0.0000 0.0000 0.0000 0.0000 -0.5669 0.0000
# 6 0.0000 0.0000 0.0000 0.0000 0.0000 27.4058
#
#
#
# Elastic Compliance Matrix: (Units=1/GPa)
#
#
# Indices 1 2 3 4 5 6 
#
# 1 0.013703 -0.005549 0.000102 0.000000 0.000000 0.000000
# 2 -0.005549 0.013703 0.000102 0.000000 0.000000 0.000000
# 3 0.000102 0.000102 0.011900 0.000000 0.000000 0.000000
# 4 0.000000 0.000000 0.000000 -1.763422 0.000000 0.000000
# 5 0.000000 0.000000 0.000000 0.000000 -1.764026 0.000000
# 6 0.000000 0.000000 0.000000 0.000000 0.000000 0.036489
#
#
# Mechanical properties :
#
#
# Convention : Reuss Voigt Hill
#
# Bulk Modulus (GPa) = 34.94753 36.13280 35.54017
# Shear Modulus (GPa) = -1.45712 20.28099 9.41194
#
# Velocity S-wave (km/s) = -0.82545 3.07955 2.09789
# Velocity P-wave (km/s) = 3.92853 5.43516 4.74206
#
# Compressibility (1/GPa) = 0.02861432
#
# Stress axis : x y z
#
# Youngs Moduli (GPa) = 72.97558 72.97570 84.03623
#
# Poissons Ratio (x) = 0.40498 -0.00856
# Poissons Ratio (y) = 0.40498 -0.00856
# Poissons Ratio (z) = -0.00743 -0.00743
#
# Static dielectric constant tensor:
#      x y z
#    x 1.810100 0.000000 0.000000 
#    y 0.000000 1.810090 0.000000 
#    z 0.000000 0.000000 1.776320 
# 
# From -- ./inp_files/2963.got.cif
#   From: 2010.05.17/outbox.cif.g08.bks.cpg/sg115_2_cif.got.tgz:2963.got - 2010.05.20 11:07:42.
