data_PCOD9557565
_publ_section_title
;
Structure prediction by ZEFSAII (Michael W. Deem and Ramdas Pophale) SiO2 
 PCOD9557565
Probable space group: P -4 C 2
;
_chemical_formula_sum "Si O2"
_cell_formula_units_Z 56
_cell_length_a 11.843258
_cell_length_b 11.843258
_cell_length_c 26.013357
_cell_angle_alpha 90.000000
_cell_angle_beta 90.000000
_cell_angle_gamma 90.000000
_cell_volume 3648.705251
_symmetry_space_group_name_H-M "P -4 C 2"
_symmetry_group_IT_number 116
_symmetry_cell_setting 'tetragonal'
loop_
_space_group_symop_operation_xyz
x,y,z
y,-x,-z
-x,-y,z
-y,x,-z
y,x,1/2-z
-y,-x,1/2-z
-x,y,1/2+z
x,-y,1/2+z
loop_
_atom_site_type_symbol
_atom_site_label
_atom_site_fract_x
_atom_site_fract_y
_atom_site_fract_z
Si Si1 0.863932 0.745920 0.606491
Si Si2 0.500000 0.136581 0.356639
Si Si3 0.866764 0.133236 1.000000
Si Si4 0.500000 0.137073 0.737648
Si Si5 0.746477 0.864583 0.201844
Si Si6 0.135417 0.253523 0.798156
Si Si7 0.863932 0.745920 0.106491
O O1 0.831331 0.615368 0.615052
O O2 0.838801 0.793519 0.550033
O O3 0.800623 0.817111 0.650001
O O4 1.000000 0.756165 0.614184
O O5 0.500000 0.175726 0.297208
O O6 0.384631 0.168669 0.384948
O O7 0.500000 0.000000 0.354682
O O8 0.793519 0.161199 0.949967
O O9 0.000000 0.149009 0.988103
O O10 0.615876 0.170720 0.709980
O O11 0.384124 0.170720 0.709980
O O12 0.500000 0.000000 0.739049
O O13 0.815563 0.815563 0.250000
O O14 0.800623 0.817111 0.150001
O O15 0.751985 0.000000 0.202390
O O16 0.184437 0.184437 0.750000
#
# Coordination Sequence:
#
# PCOD9557565 Si02
#       7
#     8   8   8   8   8   8   8
#     4  10  19  32  51  74 100 131 166 201 246 297
#     4   9  16  30  49  69  96 133 168 197 237 294
#     4   9  18  32  48  70 102 131 158 204 256 293
#     4   9  18  32  45  67 102 135 162 197 243 288
#     4  11  20  30  48  73 100 129 162 200 246 297
#     4  11  20  30  48  73 100 129 162 200 246 297
#     4  10  19  32  51  74 100 131 166 201 246 297
#
# _framework density 15.347910000000001
#
# number of rings (size 3 to 8) (size 9 to 14) (size 15 to 20)
#    0.000    2.143    2.857    1.714    0.000    3.143 
#    0.000    1.429    0.000    8.143    0.000    0.000 
#    0.000    0.000    0.000    0.000    0.000    0.000 
#
# Total GULP energy -312181.467246 kJ/mol
# GULP energy per Si atom -5574.669058 kJ/mol
# Density = 1.531298 g / cm^3
# Si number density = 15.347910 Si / 1000 Ang^3
#
#
#
# Elastic Constant Matrix: (Units=GPa)
#
#
# Indices 1 2 3 4 5 6 
#
# 1 91.6520 46.8853 69.8693 0.0000 0.0000 0.0000
# 2 46.8853 91.6520 69.8693 0.0000 0.0000 0.0000
# 3 69.8693 69.8693 143.0722 0.0000 0.0000 0.0000
# 4 0.0000 0.0000 0.0000 17.6770 0.0000 0.0000
# 5 0.0000 0.0000 0.0000 0.0000 17.6770 0.0000
# 6 0.0000 0.0000 0.0000 0.0000 0.0000 4.9762
#
#
#
# Elastic Compliance Matrix: (Units=1/GPa)
#
#
# Indices 1 2 3 4 5 6 
#
# 1 0.018282 -0.004056 -0.006947 0.000000 0.000000 0.000000
# 2 -0.004056 0.018282 -0.006947 0.000000 0.000000 0.000000
# 3 -0.006947 -0.006947 0.013775 0.000000 0.000000 0.000000
# 4 0.000000 0.000000 0.000000 0.056571 0.000000 0.000000
# 5 0.000000 0.000000 0.000000 0.000000 0.056571 0.000000
# 6 0.000000 0.000000 0.000000 0.000000 0.000000 0.200957
#
#
# Mechanical properties :
#
#
# Convention : Reuss Voigt Hill
#
# Bulk Modulus (GPa) = 69.26371 77.73604 73.49987
# Shear Modulus (GPa) = 12.34111 17.38286 14.86199
#
# Velocity S-wave (km/s) = 2.83873 3.36905 3.11519
# Velocity P-wave (km/s) = 7.48141 8.11746 7.80592
#
# Compressibility (1/GPa) = 0.01443757
#
# Stress axis : x y z
#
# Youngs Moduli (GPa) = 54.69921 54.69921 72.59705
#
# Poissons Ratio (x) = 0.22187 0.50434
# Poissons Ratio (y) = 0.22187 0.50434
# Poissons Ratio (z) = 0.38000 0.38000
#
# Static dielectric constant tensor:
#      x y z
#    x 1.507920 0.000000 0.000000 
#    y 0.000000 1.507920 0.000000 
#    z 0.000000 0.000000 1.485610 
# 
# From -- ./inp_files/4121.got.cif
#   From: 2010.05.17/outbox.cif.g08.bks.cpg/sg116_3_cif.got.tgz:4121.got - 2010.05.20 11:11:43.
