data_PCOD9557903
_publ_section_title
;
Structure prediction by ZEFSAII (Michael W. Deem and Ramdas Pophale) SiO2 
 PCOD9557903
Probable space group: P -4 C 2
;
_chemical_formula_sum "Si O2"
_cell_formula_units_Z 20
_cell_length_a 4.961330
_cell_length_b 4.961330
_cell_length_c 33.063507
_cell_angle_alpha 90.000000
_cell_angle_beta 90.000000
_cell_angle_gamma 90.000000
_cell_volume 813.851459
_symmetry_space_group_name_H-M "P -4 C 2"
_symmetry_group_IT_number 116
_symmetry_cell_setting 'tetragonal'
loop_
_space_group_symop_operation_xyz
x,y,z
y,-x,-z
-x,-y,z
-y,x,-z
y,x,1/2-z
-y,-x,1/2-z
-x,y,1/2+z
x,-y,1/2+z
loop_
_atom_site_type_symbol
_atom_site_label
_atom_site_fract_x
_atom_site_fract_y
_atom_site_fract_z
Si Si1 0.253676 0.702761 0.681956
Si Si2 0.000000 0.000000 0.750000
Si Si3 0.000000 0.000000 0.610265
Si Si4 0.500000 0.500000 0.500000
Si Si5 0.500000 0.000000 0.944562
O O1 0.500000 0.500000 0.683406
O O2 0.000000 0.500000 0.686527
O O3 0.217569 0.864697 0.640257
O O4 0.229361 0.924295 0.717306
O O5 0.906151 0.751939 0.582702
O O6 0.750158 0.413290 0.527756
#
# Coordination Sequence:
#
# PCOD9557903 Si02
#       5
#     8   2   4   2   4
#     4  11  26  46  73 109 147 201 252 315 379 449
#     4  10  26  40  74 100 156 190 262 308 384 442
#     4  11  26  48  78 109 152 196 252 309 380 450
#     4  12  28  48  76 112 148 194 244 300 388 448
#     4  12  26  48  76 110 150 194 244 310 370 466
#
# _framework density 24.574511000000001
#
# number of rings (size 3 to 8) (size 9 to 14) (size 15 to 20)
#    0.000    0.800    2.000    3.000    8.400    8.000 
#    0.000    0.000    0.000    0.000    0.000    0.000 
#    0.000    0.000    0.000    0.000    0.000    0.000 
#
# Total GULP energy -111859.453836 kJ/mol
# GULP energy per Si atom -5592.972692 kJ/mol
# Density = 2.451858 g / cm^3
# Si number density = 24.574511 Si / 1000 Ang^3
#
#
#
# Elastic Constant Matrix: (Units=GPa)
#
#
# Indices 1 2 3 4 5 6 
#
# 1 180.5464 61.3471 48.0236 0.0000 0.0000 0.0000
# 2 61.3471 180.5464 48.0236 0.0000 0.0000 0.0000
# 3 48.0236 48.0236 141.2979 0.0000 0.0000 0.0000
# 4 0.0000 0.0000 0.0000 -497.9434 0.0000 0.0000
# 5 0.0000 0.0000 0.0000 0.0000 -497.9434 0.0000
# 6 0.0000 0.0000 0.0000 0.0000 0.0000 59.6415
#
#
#
# Elastic Compliance Matrix: (Units=1/GPa)
#
#
# Indices 1 2 3 4 5 6 
#
# 1 0.006584 -0.001805 -0.001624 0.000000 0.000000 0.000000
# 2 -0.001805 0.006584 -0.001624 0.000000 0.000000 0.000000
# 3 -0.001624 -0.001624 0.008181 0.000000 0.000000 0.000000
# 4 0.000000 0.000000 0.000000 -0.002008 0.000000 0.000000
# 5 0.000000 0.000000 0.000000 0.000000 -0.002008 0.000000
# 6 0.000000 0.000000 0.000000 0.000000 0.000000 0.016767
#
#
# Mechanical properties :
#
#
# Convention : Reuss Voigt Hill
#
# Bulk Modulus (GPa) = 88.94999 90.79773 89.87386
# Shear Modulus (GPa) = 104.26499 -164.24931 -29.99216
#
# Velocity S-wave (km/s) = 6.52075 -8.18428 -3.49730
# Velocity P-wave (km/s) = 9.64200 7.23061 4.51035
#
# Compressibility (1/GPa) = 0.01124227
#
# Stress axis : x y z
#
# Youngs Moduli (GPa) = 151.88000 151.88000 122.22947
#
# Poissons Ratio (x) = 0.27417 0.19853
# Poissons Ratio (y) = 0.27417 0.19853
# Poissons Ratio (z) = 0.24669 0.24669
#
# Static dielectric constant tensor:
#      x y z
#    x 1.961220 0.000000 0.000000 
#    y 0.000000 1.961220 0.000000 
#    z 0.000000 0.000000 1.953800 
# 
# From -- ./inp_files/5020.got.cif
#   From: 2010.05.17/outbox.cif.g08.bks.cpg/sg116_3_cif.got.tgz:5020.got - 2010.05.20 11:11:43.
