data_PCOD9557631
_publ_section_title
;
Structure prediction by ZEFSAII (Michael W. Deem and Ramdas Pophale) SiO2 
 PCOD9557631
Probable space group: P -4 C 2
;
_chemical_formula_sum "Si O2"
_cell_formula_units_Z 24
_cell_length_a 6.977715
_cell_length_b 6.977715
_cell_length_c 19.285888
_cell_angle_alpha 90.000000
_cell_angle_beta 90.000000
_cell_angle_gamma 90.000000
_cell_volume 939.001086
_symmetry_space_group_name_H-M "P -4 C 2"
_symmetry_group_IT_number 116
_symmetry_cell_setting 'tetragonal'
loop_
_space_group_symop_operation_xyz
x,y,z
y,-x,-z
-x,-y,z
-y,x,-z
y,x,1/2-z
-y,-x,1/2-z
-x,y,1/2+z
x,-y,1/2+z
loop_
_atom_site_type_symbol
_atom_site_label
_atom_site_fract_x
_atom_site_fract_y
_atom_site_fract_z
Si Si1 0.000000 0.000000 0.250000
Si Si2 0.711181 0.866204 0.506233
Si Si3 0.500000 0.500000 0.250000
Si Si4 0.298900 0.200926 0.662810
Si Si5 0.000000 0.500000 0.615302
O O1 0.977195 0.190223 0.299468
O O2 0.639600 0.829315 0.583512
O O3 0.909594 0.759384 0.496943
O O4 0.590300 0.841174 0.436775
O O5 0.310970 0.530879 0.297445
O O6 0.116727 0.346619 0.658645
#
# Coordination Sequence:
#
# PCOD9557631 Si02
#       5
#     2   8   2   8   4
#     4  10  20  40  62  74 112 168 204 238 268 366
#     4   9  18  35  58  82 108 145 197 248 288 344
#     4  10  24  36  50  82 128 160 176 238 312 374
#     4  10  21  38  56  83 117 153 198 238 299 359
#     4  10  20  34  60  86 106 142 192 248 296 344
#
# _framework density 25.559072
#
# number of rings (size 3 to 8) (size 9 to 14) (size 15 to 20)
#    0.000    2.333    0.000    4.000    0.000    6.667 
#    0.000    6.667    0.000    0.000    0.000    0.000 
#    0.000    0.000    0.000    0.000    0.000    0.000 
#
# Total GULP energy -133851.783423 kJ/mol
# GULP energy per Si atom -5577.157643 kJ/mol
# Density = 2.550090 g / cm^3
# Si number density = 25.559072 Si / 1000 Ang^3
#
#
#
# Elastic Constant Matrix: (Units=GPa)
#
#
# Indices 1 2 3 4 5 6 
#
# 1 -30.7927 178.3105 40.0075 0.0000 0.0000 0.0000
# 2 178.3105 -30.7927 40.0075 0.0000 0.0000 0.0000
# 3 40.0075 40.0075 153.8983 0.0000 0.0000 0.0000
# 4 0.0000 0.0000 0.0000 7.7621 0.0000 0.0000
# 5 0.0000 0.0000 0.0000 0.0000 7.7621 0.0000
# 6 0.0000 0.0000 0.0000 0.0000 0.0000 -44.7166
#
#
#
# Elastic Compliance Matrix: (Units=1/GPa)
#
#
# Indices 1 2 3 4 5 6 
#
# 1 0.001555 0.006337 -0.002052 0.000000 0.000000 0.000000
# 2 0.006337 0.001555 -0.002052 0.000000 0.000000 0.000000
# 3 -0.002052 -0.002052 0.007564 0.000000 0.000000 0.000000
# 4 0.000000 0.000000 0.000000 0.128831 0.000000 0.000000
# 5 0.000000 0.000000 0.000000 0.000000 0.128831 0.000000
# 6 0.000000 0.000000 0.000000 0.000000 0.000000 -0.022363
#
#
# Mechanical properties :
#
#
# Convention : Reuss Voigt Hill
#
# Bulk Modulus (GPa) = 66.04325 67.66266 66.85295
# Shear Modulus (GPa) = 20.27971 -16.90598 1.68687
#
# Velocity S-wave (km/s) = 2.81987 -2.57465 0.81328
# Velocity P-wave (km/s) = 6.04134 4.20619 5.20528
#
# Compressibility (1/GPa) = 0.01514159
#
# Stress axis : x y z
#
# Youngs Moduli (GPa) = 643.23813 643.23813 132.19784
#
# Poissons Ratio (x) = -4.07618 0.27120
# Poissons Ratio (y) = -4.07618 0.27120
# Poissons Ratio (z) = 1.31961 1.31961
#
# Static dielectric constant tensor:
#      x y z
#    x 2.037740 0.000000 0.000000 
#    y 0.000000 2.037740 0.000000 
#    z 0.000000 0.000000 2.816140 
# 
# From -- ./inp_files/2988.got.cif
#   From: 2010.05.17/outbox.cif.g08.bks.cpg/sg116_2_cif.got.tgz:2988.got - 2010.05.20 11:11:43.
