data_PCOD9557923
_publ_section_title
;
Structure prediction by ZEFSAII (Michael W. Deem and Ramdas Pophale) SiO2 
 PCOD9557923
Probable space group: P -4 C 2
;
_chemical_formula_sum "Si O2"
_cell_formula_units_Z 40
_cell_length_a 11.698389
_cell_length_b 11.698389
_cell_length_c 13.907410
_cell_angle_alpha 90.000000
_cell_angle_beta 90.000000
_cell_angle_gamma 90.000000
_cell_volume 1903.261118
_symmetry_space_group_name_H-M "P -4 C 2"
_symmetry_group_IT_number 116
_symmetry_cell_setting 'tetragonal'
loop_
_space_group_symop_operation_xyz
x,y,z
y,-x,-z
-x,-y,z
-y,x,-z
y,x,1/2-z
-y,-x,1/2-z
-x,y,1/2+z
x,-y,1/2+z
loop_
_atom_site_type_symbol
_atom_site_label
_atom_site_fract_x
_atom_site_fract_y
_atom_site_fract_z
Si Si1 0.094018 0.165409 0.508596
Si Si2 0.164104 0.580686 0.569071
Si Si3 0.452577 0.873597 0.145031
Si Si4 0.770034 0.301534 0.849002
Si Si5 0.913556 0.648803 0.649906
O O1 0.142599 0.245727 0.424408
O O2 0.115110 0.227785 0.609443
O O3 0.958681 0.149413 0.496443
O O4 0.162241 0.603005 0.455282
O O5 0.273790 0.644406 0.610342
O O6 0.157418 0.446026 0.589834
O O7 0.047511 0.625225 0.622260
O O8 0.565526 0.797725 0.165831
O O9 0.374762 0.886243 0.239221
O O10 0.500000 0.000000 0.125381
O O11 0.769211 0.230790 0.750000
#
# Coordination Sequence:
#
# PCOD9557923 Si02
#       5
#     8   8   8   8   8
#     4  11  24  43  63  96 150 195 228 282 358 441
#     4  11  21  38  64  99 134 176 232 296 350 399
#     4  12  22  38  71 100 131 182 242 298 344 427
#     4  12  23  40  68 102 139 178 238 300 357 411
#     4  11  20  40  66  93 135 185 243 283 345 411
#
# _framework density 21.016559000000001
#
# number of rings (size 3 to 8) (size 9 to 14) (size 15 to 20)
#    0.000    0.600   10.000    0.000    0.000    0.000 
#    0.000    5.000    0.000    0.600    0.000    1.400 
#    0.000    0.000    0.000    0.000    0.000    0.000 
#
# Total GULP energy -223610.934890 kJ/mol
# GULP energy per Si atom -5590.273372 kJ/mol
# Density = 2.096872 g / cm^3
# Si number density = 21.016559 Si / 1000 Ang^3
#
#
#
# Elastic Constant Matrix: (Units=GPa)
#
#
# Indices 1 2 3 4 5 6 
#
# 1 59.3205 36.8165 9.6744 0.0000 0.0000 0.0000
# 2 36.8165 59.3210 9.6747 0.0000 0.0000 0.0000
# 3 9.6744 9.6747 107.1911 0.0000 0.0000 0.0000
# 4 0.0000 0.0000 0.0000 13.4509 0.0000 0.0000
# 5 0.0000 0.0000 0.0000 0.0000 13.4515 0.0000
# 6 0.0000 0.0000 0.0000 0.0000 0.0000 28.0273
#
#
#
# Elastic Compliance Matrix: (Units=1/GPa)
#
#
# Indices 1 2 3 4 5 6 
#
# 1 0.027515 -0.016921 -0.000956 0.000000 0.000000 0.000000
# 2 -0.016921 0.027515 -0.000956 0.000000 0.000000 0.000000
# 3 -0.000956 -0.000956 0.009502 0.000000 0.000000 0.000000
# 4 0.000000 0.000000 0.000000 0.074345 0.000000 0.000000
# 5 0.000000 0.000000 0.000000 0.000000 0.074341 0.000000
# 6 0.000000 0.000000 0.000000 0.000000 0.000000 0.035680
#
#
# Mechanical properties :
#
#
# Convention : Reuss Voigt Hill
#
# Bulk Modulus (GPa) = 37.22250 37.57376 37.39813
# Shear Modulus (GPa) = 16.91938 22.29706 19.60822
#
# Velocity S-wave (km/s) = 2.84042 3.26072 3.05780
# Velocity P-wave (km/s) = 5.33917 5.66510 5.50455
#
# Compressibility (1/GPa) = 0.02686547
#
# Stress axis : x y z
#
# Youngs Moduli (GPa) = 36.34345 36.34374 105.24398
#
# Poissons Ratio (x) = 0.61497 0.10063
# Poissons Ratio (y) = 0.61496 0.10064
# Poissons Ratio (z) = 0.03475 0.03475
#
# Static dielectric constant tensor:
#      x y z
#    x 1.776670 0.000000 0.000000 
#    y 0.000000 1.776680 0.000000 
#    z 0.000000 0.000000 1.796630 
# 
# From -- ./inp_files/2537.got.cif
#   From: 2010.05.17/outbox.cif.g08.bks.cpg/sg116_2_cif.got.tgz:2537.got - 2010.05.20 11:11:43.
