data_PCOD9557703
_publ_section_title
;
Structure prediction by ZEFSAII (Michael W. Deem and Ramdas Pophale) SiO2 
 PCOD9557703
Probable space group: P -4 C 2
;
_chemical_formula_sum "Si O2"
_cell_formula_units_Z 40
_cell_length_a 15.407082
_cell_length_b 15.407082
_cell_length_c 7.693235
_cell_angle_alpha 90.000000
_cell_angle_beta 90.000000
_cell_angle_gamma 90.000000
_cell_volume 1826.206090
_symmetry_space_group_name_H-M "P -4 C 2"
_symmetry_group_IT_number 116
_symmetry_cell_setting 'tetragonal'
loop_
_space_group_symop_operation_xyz
x,y,z
y,-x,-z
-x,-y,z
-y,x,-z
y,x,1/2-z
-y,-x,1/2-z
-x,y,1/2+z
x,-y,1/2+z
loop_
_atom_site_type_symbol
_atom_site_label
_atom_site_fract_x
_atom_site_fract_y
_atom_site_fract_z
Si Si1 0.260006 0.234640 0.557971
Si Si2 0.117244 0.361859 0.473375
Si Si3 0.614630 0.513807 0.100296
Si Si4 0.919390 0.635862 0.868491
Si Si5 0.427309 0.206343 0.359313
O O1 0.274420 0.274420 0.750000
O O2 0.169749 0.271004 0.488951
O O3 0.273856 0.131605 0.591517
O O4 0.338195 0.253145 0.426208
O O5 0.105451 0.392140 0.673199
O O6 0.173431 0.415261 0.334900
O O7 0.021090 0.355586 0.394632
O O8 0.575397 0.575397 0.250000
O O9 0.716956 0.504286 0.120630
O O10 0.568745 0.421206 0.066831
O O11 0.876126 0.572061 0.010693
#
# Coordination Sequence:
#
# PCOD9557703 Si02
#       5
#     8   8   8   8   8
#     4   8  17  28  48  83 119 163 216 259 315 395
#     4  11  16  33  54  88 137 171 228 271 342 389
#     4  11  24  45  68  97 134 171 217 284 356 422
#     4   9  19  30  54  93 132 175 221 285 320 406
#     4  10  21  36  60  93 128 172 222 268 337 412
#
# _framework density 21.903333
#
# number of rings (size 3 to 8) (size 9 to 14) (size 15 to 20)
#    1.200    1.000    2.000    3.000    0.000    1.600 
#    7.200    0.000    0.000    0.600    0.000   15.400 
#    0.000    0.000    0.000    0.000    0.000    0.000 
#
# Total GULP energy -223014.582440 kJ/mol
# GULP energy per Si atom -5575.364561 kJ/mol
# Density = 2.185348 g / cm^3
# Si number density = 21.903333 Si / 1000 Ang^3
#
#
#
# Elastic Constant Matrix: (Units=GPa)
#
#
# Indices 1 2 3 4 5 6 
#
# 1 125.4856 33.6829 38.5823 0.0000 0.0000 0.0000
# 2 33.6829 125.4856 38.5823 0.0000 0.0000 0.0000
# 3 38.5823 38.5823 129.8651 0.0000 0.0000 0.0000
# 4 0.0000 0.0000 0.0000 36.1643 0.0000 0.0000
# 5 0.0000 0.0000 0.0000 0.0000 36.1643 0.0000
# 6 0.0000 0.0000 0.0000 0.0000 0.0000 13.2766
#
#
#
# Elastic Compliance Matrix: (Units=1/GPa)
#
#
# Indices 1 2 3 4 5 6 
#
# 1 0.009116 -0.001777 -0.002181 0.000000 0.000000 0.000000
# 2 -0.001777 0.009116 -0.002181 0.000000 0.000000 0.000000
# 3 -0.002181 -0.002181 0.008996 0.000000 0.000000 0.000000
# 4 0.000000 0.000000 0.000000 0.027652 0.000000 0.000000
# 5 0.000000 0.000000 0.000000 0.000000 0.027652 0.000000
# 6 0.000000 0.000000 0.000000 0.000000 0.000000 0.075320
#
#
# Mechanical properties :
#
#
# Convention : Reuss Voigt Hill
#
# Bulk Modulus (GPa) = 66.87559 66.94790 66.91175
# Shear Modulus (GPa) = 28.55312 35.12031 31.83672
#
# Velocity S-wave (km/s) = 3.61445 4.00862 3.81663
# Velocity P-wave (km/s) = 6.92946 7.21505 7.07370
#
# Compressibility (1/GPa) = 0.01495314
#
# Stress axis : x y z
#
# Youngs Moduli (GPa) = 109.69277 109.69277 111.16046
#
# Poissons Ratio (x) = 0.19488 0.24240
# Poissons Ratio (y) = 0.19488 0.24240
# Poissons Ratio (z) = 0.23920 0.23920
#
# Static dielectric constant tensor:
#      x y z
#    x 1.805610 0.000000 0.000000 
#    y 0.000000 1.805610 0.000000 
#    z 0.000000 0.000000 1.911770 
# 
# From -- ./inp_files/823.got.cif
#   From: 2010.05.17/outbox.cif.g08.bks.cpg/sg116_1_cif.got.tgz:823.got - 2010.05.20 11:11:43.
