data_PCOD9557676
_publ_section_title
;
Structure prediction by ZEFSAII (Michael W. Deem and Ramdas Pophale) SiO2 
 PCOD9557676
Probable space group: P -4 C 2
;
_chemical_formula_sum "Si O2"
_cell_formula_units_Z 56
_cell_length_a 11.068837
_cell_length_b 11.068837
_cell_length_c 20.237900
_cell_angle_alpha 90.000000
_cell_angle_beta 90.000000
_cell_angle_gamma 90.000000
_cell_volume 2479.530357
_symmetry_space_group_name_H-M "P -4 C 2"
_symmetry_group_IT_number 116
_symmetry_cell_setting 'tetragonal'
loop_
_space_group_symop_operation_xyz
x,y,z
y,-x,-z
-x,-y,z
-y,x,-z
y,x,1/2-z
-y,-x,1/2-z
-x,y,1/2+z
x,-y,1/2+z
loop_
_atom_site_type_symbol
_atom_site_label
_atom_site_fract_x
_atom_site_fract_y
_atom_site_fract_z
Si Si1 0.824862 0.571306 0.203891
Si Si2 0.002134 0.359937 0.305960
Si Si3 0.294704 0.774332 0.613909
Si Si4 0.602007 0.733885 0.691886
Si Si5 0.876799 0.157489 0.009507
Si Si6 0.637876 0.799007 0.896462
Si Si7 0.304364 0.468349 0.484155
O O1 0.943345 0.636287 0.232303
O O2 0.751929 0.664846 0.158963
O O3 0.763189 0.528601 0.273791
O O4 0.847048 0.450412 0.161059
O O5 0.097648 0.288124 0.349159
O O6 0.000000 0.500000 0.330068
O O7 0.862490 0.327986 0.308053
O O8 0.216774 0.793889 0.547458
O O9 0.431138 0.746746 0.587327
O O10 0.650286 0.650286 0.750000
O O11 0.661659 0.667973 0.628427
O O12 0.858999 0.238493 0.076045
O O13 0.016829 0.159694 0.986338
O O14 0.554267 0.797394 0.961488
O O15 0.368678 0.592151 0.501772
#
# Coordination Sequence:
#
# PCOD9557676 Si02
#       7
#     8   8   8   8   8   8   8
#     4  10  21  39  60  92 125 162 209 257 313 380
#     4  10  22  38  60  91 126 161 210 263 305 375
#     4  11  22  40  63  90 127 163 206 264 318 372
#     4   9  20  37  62  88 121 167 206 253 310 374
#     4  10  23  42  65  94 124 165 218 267 319 381
#     4  10  20  40  64  87 125 166 206 255 321 375
#     4  10  21  36  57  86 122 162 195 243 302 368
#
# _framework density 22.584921000000001
#
# number of rings (size 3 to 8) (size 9 to 14) (size 15 to 20)
#    0.000    2.000    1.429    1.286    4.000    4.571 
#    0.000    0.000    0.000    0.857    0.000    2.000 
#    0.000    0.000    0.000    0.000    0.000    0.000 
#
# Total GULP energy -311758.767774 kJ/mol
# GULP energy per Si atom -5567.120853 kJ/mol
# Density = 2.253352 g / cm^3
# Si number density = 22.584921 Si / 1000 Ang^3
#
#
#
# Elastic Constant Matrix: (Units=GPa)
#
#
# Indices 1 2 3 4 5 6 
#
# 1 44.6068 3.7435 7.1870 0.0000 0.0000 0.0000
# 2 3.7435 44.6068 7.1870 0.0000 0.0000 0.0000
# 3 7.1870 7.1870 98.5027 0.0000 0.0000 0.0000
# 4 0.0000 0.0000 0.0000 17.4956 0.0000 0.0000
# 5 0.0000 0.0000 0.0000 0.0000 17.4956 0.0000
# 6 0.0000 0.0000 0.0000 0.0000 0.0000 24.7370
#
#
#
# Elastic Compliance Matrix: (Units=1/GPa)
#
#
# Indices 1 2 3 4 5 6 
#
# 1 0.022806 -0.001665 -0.001543 0.000000 0.000000 0.000000
# 2 -0.001665 0.022806 -0.001543 0.000000 0.000000 0.000000
# 3 -0.001543 -0.001543 0.010377 0.000000 0.000000 0.000000
# 4 0.000000 0.000000 0.000000 0.057157 0.000000 0.000000
# 5 0.000000 0.000000 0.000000 0.000000 0.057157 0.000000
# 6 0.000000 0.000000 0.000000 0.000000 0.000000 0.040425
#
#
# Mechanical properties :
#
#
# Convention : Reuss Voigt Hill
#
# Bulk Modulus (GPa) = 21.51045 24.88349 23.19697
# Shear Modulus (GPa) = 21.21100 23.25223 22.23161
#
# Velocity S-wave (km/s) = 3.06791 3.21214 3.14085
# Velocity P-wave (km/s) = 4.70046 4.97983 4.84216
#
# Compressibility (1/GPa) = 0.04648904
#
# Stress axis : x y z
#
# Youngs Moduli (GPa) = 43.84732 43.84732 96.36607
#
# Poissons Ratio (x) = 0.07302 0.14865
# Poissons Ratio (y) = 0.07302 0.14865
# Poissons Ratio (z) = 0.06763 0.06763
#
# Static dielectric constant tensor:
#      x y z
#    x 1.877400 0.000000 0.000000 
#    y 0.000000 1.877400 0.000000 
#    z 0.000000 0.000000 1.886950 
# 
# From -- ./inp_files/4132.got.cif
#   From: 2010.05.17/outbox.cif.g08.bks.cpg/sg116_3_cif.got.tgz:4132.got - 2010.05.20 11:11:43.
