data_PCOD9557742
_publ_section_title
;
Structure prediction by ZEFSAII (Michael W. Deem and Ramdas Pophale) SiO2 
 PCOD9557742
Probable space group: P -4 C 2
;
_chemical_formula_sum "Si O2"
_cell_formula_units_Z 40
_cell_length_a 8.410759
_cell_length_b 8.410759
_cell_length_c 23.372103
_cell_angle_alpha 90.000000
_cell_angle_beta 90.000000
_cell_angle_gamma 90.000000
_cell_volume 1653.362829
_symmetry_space_group_name_H-M "P -4 C 2"
_symmetry_group_IT_number 116
_symmetry_cell_setting 'tetragonal'
loop_
_space_group_symop_operation_xyz
x,y,z
y,-x,-z
-x,-y,z
-y,x,-z
y,x,1/2-z
-y,-x,1/2-z
-x,y,1/2+z
x,-y,1/2+z
loop_
_atom_site_type_symbol
_atom_site_label
_atom_site_fract_x
_atom_site_fract_y
_atom_site_fract_z
Si Si1 0.189452 0.100676 0.868954
Si Si2 0.313022 0.156366 0.460523
Si Si3 0.325575 0.016354 0.080168
Si Si4 0.113304 0.646546 0.718177
Si Si5 0.532505 0.686279 0.880671
O O1 0.016418 0.173166 0.879693
O O2 0.287572 0.266429 0.869304
O O3 0.256852 0.992632 0.921051
O O4 0.233562 0.011130 0.811394
O O5 0.313992 0.099708 0.525306
O O6 0.477766 0.228626 0.439076
O O7 0.189240 0.294936 0.445724
O O8 0.500000 0.000000 0.106055
O O9 0.243677 0.756324 0.750000
O O10 0.217940 0.564491 0.667968
O O11 0.000000 0.500000 0.742424
O O12 0.500000 0.500000 0.879990
#
# Coordination Sequence:
#
# PCOD9557742 Si02
#       5
#     8   8   8   8   8
#     4  10  21  40  64  94 136 175 219 285 351 398
#     4  11  22  38  59  88 132 179 226 274 333 401
#     4  12  23  37  59  92 127 185 233 271 333 413
#     4   9  20  42  74 105 135 178 229 294 369 437
#     4  10  21  41  65  96 136 172 222 293 347 406
#
# _framework density 24.193118999999999
#
# number of rings (size 3 to 8) (size 9 to 14) (size 15 to 20)
#    0.000    1.600    2.000    4.800    0.000    0.400 
#    0.000   10.000    0.000   26.400    0.000    5.600 
#    0.000    0.000    0.000    0.000    0.000    0.000 
#
# Total GULP energy -223491.431936 kJ/mol
# GULP energy per Si atom -5587.285798 kJ/mol
# Density = 2.413805 g / cm^3
# Si number density = 24.193119 Si / 1000 Ang^3
#
#
#
# Elastic Constant Matrix: (Units=GPa)
#
#
# Indices 1 2 3 4 5 6 
#
# 1 116.6240 22.0263 16.3581 0.0000 0.0000 0.0000
# 2 22.0263 116.6250 16.3580 0.0000 0.0000 0.0000
# 3 16.3581 16.3580 47.6155 0.0000 0.0000 0.0000
# 4 0.0000 0.0000 0.0000 20.7007 0.0000 0.0000
# 5 0.0000 0.0000 0.0000 0.0000 20.7001 0.0000
# 6 0.0000 0.0000 0.0000 0.0000 0.0000 43.4591
#
#
#
# Elastic Compliance Matrix: (Units=1/GPa)
#
#
# Indices 1 2 3 4 5 6 
#
# 1 0.009210 -0.001361 -0.002696 0.000000 0.000000 0.000000
# 2 -0.001361 0.009210 -0.002696 0.000000 0.000000 0.000000
# 3 -0.002696 -0.002696 0.022854 0.000000 0.000000 0.000000
# 4 0.000000 0.000000 0.000000 0.048308 0.000000 0.000000
# 5 0.000000 0.000000 0.000000 0.000000 0.048309 0.000000
# 6 0.000000 0.000000 0.000000 0.000000 0.000000 0.023010
#
#
# Mechanical properties :
#
#
# Convention : Reuss Voigt Hill
#
# Bulk Modulus (GPa) = 36.01525 43.37216 39.69370
# Shear Modulus (GPa) = 27.22368 32.04678 29.63523
#
# Velocity S-wave (km/s) = 3.35814 3.64349 3.50372
# Velocity P-wave (km/s) = 5.47312 5.97213 5.72806
#
# Compressibility (1/GPa) = 0.02776602
#
# Stress axis : x y z
#
# Youngs Moduli (GPa) = 108.57932 108.58045 43.75560
#
# Poissons Ratio (x) = 0.14780 0.11798
# Poissons Ratio (y) = 0.14780 0.11798
# Poissons Ratio (z) = 0.29277 0.29277
#
# Static dielectric constant tensor:
#      x y z
#    x 1.968060 0.000000 0.000000 
#    y 0.000000 1.968060 0.000000 
#    z 0.000000 0.000000 1.900500 
# 
# From -- ./inp_files/4437.got.cif
#   From: 2010.05.17/outbox.cif.g08.bks.cpg/sg116_3_cif.got.tgz:4437.got - 2010.05.20 11:11:43.
