data_PCOD9557622
_publ_section_title
;
Structure prediction by ZEFSAII (Michael W. Deem and Ramdas Pophale) SiO2 
 PCOD9557622
Probable space group: P -4 C 2
;
_chemical_formula_sum "Si O2"
_cell_formula_units_Z 52
_cell_length_a 21.193940
_cell_length_b 21.193940
_cell_length_c 5.195643
_cell_angle_alpha 90.000000
_cell_angle_beta 90.000000
_cell_angle_gamma 90.000000
_cell_volume 2333.794991
_symmetry_space_group_name_H-M "P -4 C 2"
_symmetry_group_IT_number 116
_symmetry_cell_setting 'tetragonal'
loop_
_space_group_symop_operation_xyz
x,y,z
y,-x,-z
-x,-y,z
-y,x,-z
y,x,1/2-z
-y,-x,1/2-z
-x,y,1/2+z
x,-y,1/2+z
loop_
_atom_site_type_symbol
_atom_site_label
_atom_site_fract_x
_atom_site_fract_y
_atom_site_fract_z
Si Si1 0.276797 0.075535 0.316575
Si Si2 0.376217 0.376217 0.750000
Si Si3 0.260590 0.651165 0.869137
Si Si4 0.541016 0.284471 0.998870
Si Si5 0.979876 0.601443 0.674615
Si Si6 0.678449 0.138129 0.309740
Si Si7 0.037027 0.866353 0.651353
O O1 0.288773 0.129129 0.533863
O O2 0.209080 0.045062 0.354874
O O3 0.333444 0.023713 0.343360
O O4 0.280283 0.105123 0.033651
O O5 0.319489 0.372469 0.542220
O O6 0.357013 0.436272 0.929158
O O7 0.282491 0.717510 0.750000
O O8 0.252543 0.603707 0.626282
O O9 0.204021 0.659503 0.067462
O O10 0.508417 0.268822 0.270672
O O11 0.907398 0.617926 0.711088
O O12 0.989744 0.567681 0.410831
O O13 0.100629 0.899372 0.750000
O O14 0.014206 0.884722 0.367912
#
# Coordination Sequence:
#
# PCOD9557622 Si02
#       7
#     8   4   8   8   8   8   8
#     4  10  20  36  57  80 110 154 197 252 306 387
#     4  10  22  42  62  93 130 170 212 264 315 370
#     4  10  23  38  58  92 135 168 202 259 320 383
#     4  11  22  40  67  91 122 175 223 258 308 369
#     4   8  14  28  48  71  99 141 186 231 282 343
#     4  10  20  33  56  81 119 157 190 236 304 376
#     4  12  25  42  60  77 103 140 199 267 333 396
#
# _framework density 22.281305
#
# number of rings (size 3 to 8) (size 9 to 14) (size 15 to 20)
#    0.000    1.846    1.538    4.154    4.308    1.538 
#    0.000    0.000    0.000    1.385    0.000    0.000 
#    0.000   33.231    0.000    0.000    0.000    0.000 
#
# Total GULP energy -289627.357011 kJ/mol
# GULP energy per Si atom -5569.756866 kJ/mol
# Density = 2.223059 g / cm^3
# Si number density = 22.281305 Si / 1000 Ang^3
#
#
#
# Elastic Constant Matrix: (Units=GPa)
#
#
# Indices 1 2 3 4 5 6 
#
# 1 69.2047 2.9176 3.1213 0.0000 0.0000 0.0000
# 2 2.9176 69.2077 3.1218 0.0000 0.0000 0.0000
# 3 3.1213 3.1218 129.2861 0.0000 0.0000 0.0000
# 4 0.0000 0.0000 0.0000 25.5161 0.0000 0.0000
# 5 0.0000 0.0000 0.0000 0.0000 25.5159 0.0000
# 6 0.0000 0.0000 0.0000 0.0000 0.0000 8.0354
#
#
#
# Elastic Compliance Matrix: (Units=1/GPa)
#
#
# Indices 1 2 3 4 5 6 
#
# 1 0.014490 -0.000596 -0.000335 0.000000 0.000000 0.000000
# 2 -0.000596 0.014490 -0.000335 0.000000 0.000000 0.000000
# 3 -0.000335 -0.000335 0.007751 0.000000 0.000000 0.000000
# 4 0.000000 0.000000 0.000000 0.039191 0.000000 0.000000
# 5 0.000000 0.000000 0.000000 0.000000 0.039191 0.000000
# 6 0.000000 0.000000 0.000000 0.000000 0.000000 0.124449
#
#
# Mechanical properties :
#
#
# Convention : Reuss Voigt Hill
#
# Bulk Modulus (GPa) = 29.24208 31.77999 30.51104
# Shear Modulus (GPa) = 19.72429 29.04933 24.38681
#
# Velocity S-wave (km/s) = 2.97853 3.61467 3.31191
# Velocity P-wave (km/s) = 4.99813 5.63162 5.32431
#
# Compressibility (1/GPa) = 0.03419730
#
# Stress axis : x y z
#
# Youngs Moduli (GPa) = 69.01250 69.01545 129.01585
#
# Poissons Ratio (x) = 0.04111 0.04328
# Poissons Ratio (y) = 0.04111 0.04328
# Poissons Ratio (z) = 0.02315 0.02315
#
# Static dielectric constant tensor:
#      x y z
#    x 1.870040 0.000000 0.000000 
#    y 0.000000 1.870040 0.000000 
#    z 0.000000 0.000000 1.885820 
# 
# From -- ./inp_files/201.got.cif
#   From: 2010.05.17/outbox.cif.g08.bks.cpg/sg116_1_cif.got.tgz:201.got - 2010.05.20 11:11:43.
