data_PCOD9557312
_publ_section_title
;
Structure prediction by ZEFSAII (Michael W. Deem and Ramdas Pophale) SiO2 
 PCOD9557312
Probable space group: P -4 M 2
;
_chemical_formula_sum "Si O2"
_cell_formula_units_Z 44
_cell_length_a 9.140420
_cell_length_b 9.140420
_cell_length_c 29.732801
_cell_angle_alpha 90.000000
_cell_angle_beta 90.000000
_cell_angle_gamma 90.000000
_cell_volume 2484.094584
_symmetry_space_group_name_H-M "P -4 M 2"
_symmetry_group_IT_number 115
_symmetry_cell_setting 'tetragonal'
loop_
_space_group_symop_operation_xyz
x,y,z
y,-x,-z
-x,-y,z
-y,x,-z
y,x,-z
-y,-x,-z
-x,y,z
x,-y,z
loop_
_atom_site_type_symbol
_atom_site_label
_atom_site_fract_x
_atom_site_fract_y
_atom_site_fract_z
Si Si1 0.323597 0.827575 0.958234
Si Si2 0.824779 0.327276 0.407024
Si Si3 0.826349 0.173652 0.500000
Si Si4 0.827407 0.674338 0.677248
Si Si5 0.822340 0.328422 0.139681
Si Si6 0.323822 0.174625 0.761640
O O1 0.500000 0.814609 0.958334
O O2 0.268622 0.774671 0.908861
O O3 0.288889 0.000000 0.962303
O O4 0.257169 0.742832 0.000000
O O5 0.795295 0.500000 0.405687
O O6 0.782732 0.260415 0.455315
O O7 0.743974 0.246903 0.366571
O O8 0.000000 0.305984 0.401961
O O9 0.000000 0.196492 0.507512
O O10 0.807932 0.500000 0.676817
O O11 0.753510 0.741659 0.721529
O O12 0.000000 0.707157 0.677098
O O13 0.782083 0.500000 0.140001
O O14 0.777315 0.269699 0.188496
O O15 0.000000 0.323380 0.139222
O O16 0.500000 0.195636 0.759550
O O17 0.298636 0.000000 0.757247
#
# Coordination Sequence:
#
# PCOD9557312 Si02
#       6
#     8   8   4   8   8   8
#     4   9  17  30  48  70  97 129 164 202 246 295
#     4  10  21  37  58  83 108 136 173 213 250 293
#     4   9  18  34  56  81 110 142 172 205 248 295
#     4  11  24  38  51  72 105 141 172 205 249 299
#     4   7  12  26  48  71  94 122 159 203 247 293
#     4   9  17  32  56  80  97 120 162 212 256 300
#
# _framework density 17.712692000000001
#
# number of rings (size 3 to 8) (size 9 to 14) (size 15 to 20)
#    0.000    2.818    0.000    3.818    0.000    6.182 
#    0.000    3.636    0.000    8.727    0.000    0.000 
#    0.000    0.000    0.000    0.000    0.000    0.000 
#
# Total GULP energy -245201.881803 kJ/mol
# GULP energy per Si atom -5572.770041 kJ/mol
# Density = 1.767238 g / cm^3
# Si number density = 17.712692 Si / 1000 Ang^3
#
#
#
# Elastic Constant Matrix: (Units=GPa)
#
#
# Indices 1 2 3 4 5 6 
#
# 1 44.0594 46.3930 73.4740 0.0000 0.0000 0.0000
# 2 46.3930 44.0609 73.4759 0.0000 0.0000 0.0000
# 3 73.4740 73.4759 222.5126 0.0000 0.0000 0.0000
# 4 0.0000 0.0000 0.0000 34.1530 0.0000 0.0000
# 5 0.0000 0.0000 0.0000 0.0000 34.1526 0.0000
# 6 0.0000 0.0000 0.0000 0.0000 0.0000 25.2308
#
#
#
# Elastic Compliance Matrix: (Units=1/GPa)
#
#
# Indices 1 2 3 4 5 6 
#
# 1 -0.202406 0.226254 -0.007877 0.000000 0.000000 0.000000
# 2 0.226254 -0.202403 -0.007874 0.000000 0.000000 0.000000
# 3 -0.007877 -0.007874 0.009695 0.000000 0.000000 0.000000
# 4 0.000000 0.000000 0.000000 0.029280 0.000000 0.000000
# 5 0.000000 0.000000 0.000000 0.000000 0.029280 0.000000
# 6 0.000000 0.000000 0.000000 0.000000 0.000000 0.039634
#
#
# Mechanical properties :
#
#
# Convention : Reuss Voigt Hill
#
# Bulk Modulus (GPa) = 38.62031 77.47986 58.05009
# Shear Modulus (GPa) = -7.04925 26.52662 9.73868
#
# Velocity S-wave (km/s) = -1.99710 3.87409 2.34735
# Velocity P-wave (km/s) = 4.06610 7.99055 6.33964
#
# Compressibility (1/GPa) = 0.02589311
#
# Stress axis : x y z
#
# Youngs Moduli (GPa) = -4.94057 -4.94064 103.14549
#
# Poissons Ratio (x) = 1.11784 0.81243
# Poissons Ratio (y) = 1.11782 0.81217
# Poissons Ratio (z) = -0.03891 -0.03890
#
# Static dielectric constant tensor:
#      x y z
#    x 1.589890 0.000000 0.000000 
#    y 0.000000 1.589890 0.000000 
#    z 0.000000 0.000000 1.621170 
# 
# From -- ./inp_files/5732.got.cif
#   From: 2010.05.17/outbox.cif.g08.bks.cpg/sg115_3_cif.got.tgz:5732.got - 2010.05.20 11:07:42.
