data_PCOD9557795
_publ_section_title
;
Structure prediction by ZEFSAII (Michael W. Deem and Ramdas Pophale) SiO2 
 PCOD9557795
Probable space group: P -4 C 2
;
_chemical_formula_sum "Si O2"
_cell_formula_units_Z 48
_cell_length_a 8.549609
_cell_length_b 8.549609
_cell_length_c 27.121590
_cell_angle_alpha 90.000000
_cell_angle_beta 90.000000
_cell_angle_gamma 90.000000
_cell_volume 1982.474699
_symmetry_space_group_name_H-M "P -4 C 2"
_symmetry_group_IT_number 116
_symmetry_cell_setting 'tetragonal'
loop_
_space_group_symop_operation_xyz
x,y,z
y,-x,-z
-x,-y,z
-y,x,-z
y,x,1/2-z
-y,-x,1/2-z
-x,y,1/2+z
x,-y,1/2+z
loop_
_atom_site_type_symbol
_atom_site_label
_atom_site_fract_x
_atom_site_fract_y
_atom_site_fract_z
Si Si1 0.187132 0.520114 0.646127
Si Si2 0.607138 0.652915 0.063337
Si Si3 0.187709 0.539718 0.252893
Si Si4 0.210812 0.603394 0.360574
Si Si5 0.906022 0.338169 0.008798
Si Si6 0.160004 0.073705 0.581241
O O1 0.248186 0.622794 0.600345
O O2 0.237237 0.554748 0.703526
O O3 0.283715 0.360493 0.639547
O O4 0.000000 0.500000 0.644388
O O5 0.500000 0.500000 0.061295
O O6 0.504596 0.780390 0.091974
O O7 0.642649 0.729172 0.011210
O O8 0.288542 0.711458 0.250000
O O9 0.214800 0.508231 0.310469
O O10 0.000000 0.500000 0.250166
O O11 0.072455 0.721962 0.372920
O O12 0.000000 0.500000 0.014087
O O13 0.987970 0.234820 0.966206
O O14 0.889305 0.241894 0.058769
O O15 0.000000 0.000000 0.597680
#
# Coordination Sequence:
#
# PCOD9557795 Si02
#       6
#     8   8   8   8   8   8
#     4   9  20  39  64 101 133 176 226 290 353 427
#     4  10  23  42  65 100 133 173 237 284 356 429
#     4   9  19  38  66  99 143 179 231 292 366 440
#     4  10  22  40  67  98 132 183 227 291 354 433
#     4  12  25  46  68  94 139 183 235 297 361 428
#     4  12  26  47  65  97 135 189 237 291 368 428
#
# _framework density 24.212164999999999
#
# number of rings (size 3 to 8) (size 9 to 14) (size 15 to 20)
#    0.000    1.667    3.333    0.000    4.667    4.000 
#    0.000    3.333    0.000    4.500    0.000    0.000 
#    0.000    0.000    0.000    0.000    0.000    0.000 
#
# Total GULP energy -267632.306450 kJ/mol
# GULP energy per Si atom -5575.673051 kJ/mol
# Density = 2.415706 g / cm^3
# Si number density = 24.212165 Si / 1000 Ang^3
#
#
#
# Elastic Constant Matrix: (Units=GPa)
#
#
# Indices 1 2 3 4 5 6 
#
# 1 97.2505 45.3154 28.5821 0.0000 0.0000 0.0000
# 2 45.3154 97.2503 28.5820 0.0000 0.0000 0.0000
# 3 28.5821 28.5820 105.9287 0.0000 0.0000 0.0000
# 4 0.0000 0.0000 0.0000 -32.4122 0.0000 0.0000
# 5 0.0000 0.0000 0.0000 0.0000 -32.4114 0.0000
# 6 0.0000 0.0000 0.0000 0.0000 0.0000 46.2784
#
#
#
# Elastic Compliance Matrix: (Units=1/GPa)
#
#
# Indices 1 2 3 4 5 6 
#
# 1 0.013560 -0.005695 -0.002122 0.000000 0.000000 0.000000
# 2 -0.005695 0.013560 -0.002122 0.000000 0.000000 0.000000
# 3 -0.002122 -0.002122 0.010586 0.000000 0.000000 0.000000
# 4 0.000000 0.000000 0.000000 -0.030853 0.000000 0.000000
# 5 0.000000 0.000000 0.000000 0.000000 -0.030853 0.000000
# 6 0.000000 0.000000 0.000000 0.000000 0.000000 0.021608
#
#
# Mechanical properties :
#
#
# Convention : Reuss Voigt Hill
#
# Bulk Modulus (GPa) = 56.09423 56.15428 56.12426
# Shear Modulus (GPa) = 213.41092 9.48763 111.44928
#
# Velocity S-wave (km/s) = 9.39858 1.98168 6.79192
# Velocity P-wave (km/s) = 11.87417 5.33657 9.20529
#
# Compressibility (1/GPa) = 0.01782715
#
# Stress axis : x y z
#
# Youngs Moduli (GPa) = 73.74614 73.74607 94.46825
#
# Poissons Ratio (x) = 0.41997 0.20048
# Poissons Ratio (y) = 0.41997 0.20048
# Poissons Ratio (z) = 0.15651 0.15651
#
# Static dielectric constant tensor:
#      x y z
#    x 2.057200 0.000000 0.000000 
#    y 0.000000 2.057200 0.000000 
#    z 0.000000 0.000000 1.918670 
# 
# From -- ./inp_files/5266.got.cif
#   From: 2010.05.17/outbox.cif.g08.bks.cpg/sg116_3_cif.got.tgz:5266.got - 2010.05.20 11:11:43.
