data_PCOD9557243
_publ_section_title
;
Structure prediction by ZEFSAII (Michael W. Deem and Ramdas Pophale) SiO2 
 PCOD9557243
Probable space group: P -4 M 2
;
_chemical_formula_sum "Si O2"
_cell_formula_units_Z 48
_cell_length_a 9.249772
_cell_length_b 9.249772
_cell_length_c 31.656320
_cell_angle_alpha 90.000000
_cell_angle_beta 90.000000
_cell_angle_gamma 90.000000
_cell_volume 2708.460355
_symmetry_space_group_name_H-M "P -4 M 2"
_symmetry_group_IT_number 115
_symmetry_cell_setting 'tetragonal'
loop_
_space_group_symop_operation_xyz
x,y,z
y,-x,-z
-x,-y,z
-y,x,-z
y,x,-z
-y,-x,-z
-x,y,z
x,-y,z
loop_
_atom_site_type_symbol
_atom_site_label
_atom_site_fract_x
_atom_site_fract_y
_atom_site_fract_z
Si Si1 0.672312 0.828747 0.538477
Si Si2 0.171940 0.171814 0.297039
Si Si3 0.327192 0.329655 0.124615
Si Si4 0.827234 0.670203 0.210766
Si Si5 0.828773 0.672545 0.961430
Si Si6 0.327289 0.329434 0.625986
O O1 0.759076 0.759076 0.500000
O O2 0.500000 0.806729 0.531712
O O3 0.711222 0.750727 0.582383
O O4 0.698717 0.000000 0.541551
O O5 0.215589 0.240707 0.252152
O O6 0.258895 0.244172 0.335012
O O7 0.000000 0.200894 0.302644
O O8 0.192891 0.000000 0.296519
O O9 0.500000 0.315011 0.129598
O O10 0.294903 0.500000 0.118092
O O11 0.250234 0.282767 0.167737
O O12 0.282866 0.241348 0.083217
O O13 0.794287 0.500000 0.217461
O O14 0.000000 0.683966 0.205520
O O15 0.803283 0.500000 0.966244
O O16 0.000000 0.697308 0.960955
O O17 0.754784 0.754784 0.000000
O O18 0.500000 0.311111 0.632290
O O19 0.297144 0.500000 0.622627
#
# Coordination Sequence:
#
# PCOD9557243 Si02
#       6
#     8   8   8   8   8   8
#     4  10  21  37  58  83 110 142 179 219 265 316
#     4  10  21  36  54  78 109 144 180 218 263 315
#     4   9  18  33  53  76 102 134 173 216 260 308
#     4   9  18  33  53  76 103 137 176 216 258 308
#     4  10  21  36  54  77 105 138 176 217 262 313
#     4  10  21  37  58  82 107 139 180 224 268 314
#
# _framework density 17.722248
#
# number of rings (size 3 to 8) (size 9 to 14) (size 15 to 20)
#    0.000    2.333    0.000    2.000    0.000    6.667 
#    0.000    3.333    0.000    0.000    0.000    0.000 
#    0.000    0.000    0.000    0.000    0.000    0.000 
#
# Total GULP energy -267985.793034 kJ/mol
# GULP energy per Si atom -5583.037355 kJ/mol
# Density = 1.768191 g / cm^3
# Si number density = 17.722248 Si / 1000 Ang^3
#
#
#
# Elastic Constant Matrix: (Units=GPa)
#
#
# Indices 1 2 3 4 5 6 
#
# 1 68.5625 66.6721 99.8033 0.0000 0.0000 0.0000
# 2 66.6721 68.5625 99.8033 0.0000 0.0000 0.0000
# 3 99.8033 99.8033 219.9144 0.0000 0.0000 0.0000
# 4 0.0000 0.0000 0.0000 274.3631 0.0000 0.0000
# 5 0.0000 0.0000 0.0000 0.0000 274.3631 0.0000
# 6 0.0000 0.0000 0.0000 0.0000 0.0000 24.1715
#
#
#
# Elastic Compliance Matrix: (Units=1/GPa)
#
#
# Indices 1 2 3 4 5 6 
#
# 1 0.275695 -0.253298 -0.010165 0.000000 0.000000 0.000000
# 2 -0.253298 0.275695 -0.010165 0.000000 0.000000 0.000000
# 3 -0.010165 -0.010165 0.013773 0.000000 0.000000 0.000000
# 4 0.000000 0.000000 0.000000 0.003645 0.000000 0.000000
# 5 0.000000 0.000000 0.000000 0.000000 0.003645 0.000000
# 6 0.000000 0.000000 0.000000 0.000000 0.000000 0.041371
#
#
# Mechanical properties :
#
#
# Convention : Reuss Voigt Hill
#
# Bulk Modulus (GPa) = 55.83529 98.84413 77.33971
# Shear Modulus (GPa) = 4.28431 120.63025 62.45728
#
# Velocity S-wave (km/s) = 1.55651 8.25923 5.94296
# Velocity P-wave (km/s) = 5.89953 12.11810 9.53029
#
# Compressibility (1/GPa) = 0.01790982
#
# Stress axis : x y z
#
# Youngs Moduli (GPa) = 3.62719 3.62719 72.60450
#
# Poissons Ratio (x) = 0.91876 0.73800
# Poissons Ratio (y) = 0.91876 0.73800
# Poissons Ratio (z) = 0.03687 0.03687
#
# Static dielectric constant tensor:
#      x y z
#    x 1.590970 0.000000 0.000000 
#    y 0.000000 1.590970 0.000000 
#    z 0.000000 0.000000 1.568340 
# 
# From -- ./inp_files/5938.got.cif
#   From: 2010.05.17/outbox.cif.g08.bks.cpg/sg115_3_cif.got.tgz:5938.got - 2010.05.20 11:07:42.
