data_PCOD9557933
_publ_section_title
;
Structure prediction by ZEFSAII (Michael W. Deem and Ramdas Pophale) SiO2 
 PCOD9557933
Probable space group: P -4 C 2
;
_chemical_formula_sum "Si O2"
_cell_formula_units_Z 56
_cell_length_a 11.304833
_cell_length_b 11.304833
_cell_length_c 19.277749
_cell_angle_alpha 90.000000
_cell_angle_beta 90.000000
_cell_angle_gamma 90.000000
_cell_volume 2463.681848
_symmetry_space_group_name_H-M "P -4 C 2"
_symmetry_group_IT_number 116
_symmetry_cell_setting 'tetragonal'
loop_
_space_group_symop_operation_xyz
x,y,z
y,-x,-z
-x,-y,z
-y,x,-z
y,x,1/2-z
-y,-x,1/2-z
-x,y,1/2+z
x,-y,1/2+z
loop_
_atom_site_type_symbol
_atom_site_label
_atom_site_fract_x
_atom_site_fract_y
_atom_site_fract_z
Si Si1 0.701566 0.047579 0.924567
Si Si2 0.517287 0.229458 0.621715
Si Si3 0.571675 0.716056 0.386628
Si Si4 0.099010 0.824667 0.183318
Si Si5 0.272031 0.835990 0.064925
Si Si6 0.550912 0.133219 0.272395
Si Si7 0.397026 0.834559 0.482722
O O1 0.659239 0.173249 0.897592
O O2 0.803434 0.005416 0.872251
O O3 0.604586 0.941888 0.927857
O O4 0.717344 0.063494 0.007388
O O5 0.597464 0.349360 0.621322
O O6 0.385946 0.235816 0.590909
O O7 0.497455 0.170856 0.696383
O O8 0.573255 0.144513 0.562579
O O9 0.495965 0.759030 0.320752
O O10 0.483848 0.732368 0.452652
O O11 0.092742 0.907259 0.250000
O O12 0.203334 0.870926 0.133746
O O13 0.126224 0.692758 0.214821
O O14 0.201294 0.737619 0.022936
O O15 0.500000 0.000000 0.285102
#
# Coordination Sequence:
#
# PCOD9557933 Si02
#       7
#     8   8   8   8   8   8   8
#     4  11  22  40  71  94 135 183 247 302 344 425
#     4  12  25  36  63 103 144 172 243 293 357 439
#     4  12  22  41  62 100 139 191 234 290 366 421
#     4  11  23  44  71 103 141 180 244 296 366 428
#     4  11  23  40  66 106 132 185 239 294 366 420
#     4  12  24  41  67 100 136 197 245 293 354 430
#     4  11  22  40  66  95 135 183 240 300 354 428
#
# _framework density 22.730208000000001
#
# number of rings (size 3 to 8) (size 9 to 14) (size 15 to 20)
#    0.000    0.571    8.571    0.857    2.000    0.571 
#    0.000    1.429    0.000    6.857    7.429    0.000 
#    0.000    0.000    0.000    0.000    0.000    0.000 
#
# Total GULP energy -311919.654702 kJ/mol
# GULP energy per Si atom -5569.993834 kJ/mol
# Density = 2.267847 g / cm^3
# Si number density = 22.730208 Si / 1000 Ang^3
#
#
#
# Elastic Constant Matrix: (Units=GPa)
#
#
# Indices 1 2 3 4 5 6 
#
# 1 36.2583 43.5947 17.6726 0.0000 0.0000 0.0000
# 2 43.5947 36.2567 17.6723 0.0000 0.0000 0.0000
# 3 17.6726 17.6723 153.0371 0.0000 0.0000 0.0000
# 4 0.0000 0.0000 0.0000 21.1792 0.0000 0.0000
# 5 0.0000 0.0000 0.0000 0.0000 21.1796 0.0000
# 6 0.0000 0.0000 0.0000 0.0000 0.0000 28.7768
#
#
#
# Elastic Compliance Matrix: (Units=1/GPa)
#
#
# Indices 1 2 3 4 5 6 
#
# 1 -0.061545 0.074744 -0.001524 0.000000 0.000000 0.000000
# 2 0.074744 -0.061548 -0.001524 0.000000 0.000000 0.000000
# 3 -0.001524 -0.001524 0.006886 0.000000 0.000000 0.000000
# 4 0.000000 0.000000 0.000000 0.047216 0.000000 0.000000
# 5 0.000000 0.000000 0.000000 0.000000 0.047215 0.000000
# 6 0.000000 0.000000 0.000000 0.000000 0.000000 0.034750
#
#
# Mechanical properties :
#
#
# Convention : Reuss Voigt Hill
#
# Bulk Modulus (GPa) = 36.78418 42.60347 39.69382
# Shear Modulus (GPa) = -41.20110 24.00127 -8.59991
#
# Velocity S-wave (km/s) = -4.26210 3.25302 -1.94723
# Velocity P-wave (km/s) = 2.82888 5.73527 3.52780
#
# Compressibility (1/GPa) = 0.02718560
#
# Stress axis : x y z
#
# Youngs Moduli (GPa) = -16.24817 -16.24748 145.21483
#
# Poissons Ratio (x) = 1.21441 0.22132
# Poissons Ratio (y) = 1.21446 0.22131
# Poissons Ratio (z) = -0.02476 -0.02476
#
# Static dielectric constant tensor:
#      x y z
#    x 1.986850 0.000000 0.000000 
#    y 0.000000 1.986850 0.000000 
#    z 0.000000 0.000000 1.911520 
# 
# From -- ./inp_files/4141.got.cif
#   From: 2010.05.17/outbox.cif.g08.bks.cpg/sg116_3_cif.got.tgz:4141.got - 2010.05.20 11:11:43.
