data_PCOD9557792
_publ_section_title
;
Structure prediction by ZEFSAII (Michael W. Deem and Ramdas Pophale) SiO2 
 PCOD9557792
Probable space group: P -4 C 2
;
_chemical_formula_sum "Si O2"
_cell_formula_units_Z 40
_cell_length_a 7.834135
_cell_length_b 7.834135
_cell_length_c 33.607082
_cell_angle_alpha 90.000000
_cell_angle_beta 90.000000
_cell_angle_gamma 90.000000
_cell_volume 2062.590001
_symmetry_space_group_name_H-M "P -4 C 2"
_symmetry_group_IT_number 116
_symmetry_cell_setting 'tetragonal'
loop_
_space_group_symop_operation_xyz
x,y,z
y,-x,-z
-x,-y,z
-y,x,-z
y,x,1/2-z
-y,-x,1/2-z
-x,y,1/2+z
x,-y,1/2+z
loop_
_atom_site_type_symbol
_atom_site_label
_atom_site_fract_x
_atom_site_fract_y
_atom_site_fract_z
Si Si1 0.500000 0.204052 0.561436
Si Si2 0.500001 0.696203 0.152346
Si Si3 0.797724 0.797724 0.500000
Si Si4 0.203251 0.807035 0.793185
Si Si5 0.796749 0.807034 0.793185
O O1 0.500000 0.281365 0.605088
O O2 0.669325 0.246280 0.535914
O O3 0.330675 0.246280 0.535914
O O4 0.500000 0.000000 0.566541
O O5 0.500000 0.500000 0.162846
O O6 0.671469 0.768504 0.172214
O O7 0.328533 0.768505 0.172214
O O8 0.000000 0.773999 0.509503
O O9 0.262305 0.737695 0.750000
O O10 0.000000 0.821410 0.788202
O O11 0.270123 0.000001 0.800953
O O12 0.737695 0.737695 0.750000
#
# Coordination Sequence:
#
# PCOD9557792 Si02
#       5
#     8   8   8   8   8
#     4  10  22  40  62  86 115 156 196 238 295 353
#     4  12  26  36  56  94 127 158 194 245 306 358
#     4   9  20  39  64  90 116 153 198 243 296 356
#     4   9  20  40  63  84 114 162 210 251 296 348
#     4   9  20  40  63  84 114 162 210 251 296 348
#
# _framework density 19.393090999999998
#
# number of rings (size 3 to 8) (size 9 to 14) (size 15 to 20)
#    0.000    2.200    0.000    3.000    5.600    2.400 
#    0.000    4.000    0.000    0.000    0.000    0.000 
#    0.000    0.000    0.000    0.000    0.000    0.000 
#
# Total GULP energy -223084.003220 kJ/mol
# GULP energy per Si atom -5577.100080 kJ/mol
# Density = 1.934895 g / cm^3
# Si number density = 19.393091 Si / 1000 Ang^3
#
#
#
# Elastic Constant Matrix: (Units=GPa)
#
#
# Indices 1 2 3 4 5 6 
#
# 1 74.4972 30.7718 51.7762 0.0000 0.0000 0.0000
# 2 30.7718 74.4972 51.7762 0.0000 0.0000 0.0000
# 3 51.7762 51.7762 121.3944 0.0000 0.0000 0.0000
# 4 0.0000 0.0000 0.0000 42.3958 0.0000 0.0000
# 5 0.0000 0.0000 0.0000 0.0000 42.3947 0.0000
# 6 0.0000 0.0000 0.0000 0.0000 0.0000 17.8056
#
#
#
# Elastic Compliance Matrix: (Units=1/GPa)
#
#
# Indices 1 2 3 4 5 6 
#
# 1 0.019618 -0.003252 -0.006980 0.000000 0.000000 0.000000
# 2 -0.003252 0.019618 -0.006980 0.000000 0.000000 0.000000
# 3 -0.006980 -0.006980 0.014192 0.000000 0.000000 0.000000
# 4 0.000000 0.000000 0.000000 0.023587 0.000000 0.000000
# 5 0.000000 0.000000 0.000000 0.000000 0.023588 0.000000
# 6 0.000000 0.000000 0.000000 0.000000 0.000000 0.056162
#
#
# Mechanical properties :
#
#
# Convention : Reuss Voigt Hill
#
# Bulk Modulus (GPa) = 52.62405 59.89303 56.25854
# Shear Modulus (GPa) = 25.31333 29.59019 27.45176
#
# Velocity S-wave (km/s) = 3.61678 3.91040 3.76645
# Velocity P-wave (km/s) = 6.68101 7.16513 6.92730
#
# Compressibility (1/GPa) = 0.01900272
#
# Stress axis : x y z
#
# Youngs Moduli (GPa) = 50.97373 50.97367 70.46242
#
# Poissons Ratio (x) = 0.16577 0.49185
# Poissons Ratio (y) = 0.16577 0.49185
# Poissons Ratio (z) = 0.35581 0.35581
#
# Static dielectric constant tensor:
#      x y z
#    x 1.534070 0.000000 0.000000 
#    y 0.000000 1.534050 0.000000 
#    z 0.000000 0.000000 1.654590 
# 
# From -- ./inp_files/4853.got.cif
#   From: 2010.05.17/outbox.cif.g08.bks.cpg/sg116_3_cif.got.tgz:4853.got - 2010.05.20 11:11:43.
