data_PCOD9557385
_publ_section_title
;
Structure prediction by ZEFSAII (Michael W. Deem and Ramdas Pophale) SiO2 
 PCOD9557385
Probable space group: P -4 M 2
;
_chemical_formula_sum "Si O2"
_cell_formula_units_Z 48
_cell_length_a 20.450875
_cell_length_b 20.450875
_cell_length_c 5.331581
_cell_angle_alpha 90.000000
_cell_angle_beta 90.000000
_cell_angle_gamma 90.000000
_cell_volume 2229.871311
_symmetry_space_group_name_H-M "P -4 M 2"
_symmetry_group_IT_number 115
_symmetry_cell_setting 'tetragonal'
loop_
_space_group_symop_operation_xyz
x,y,z
y,-x,-z
-x,-y,z
-y,x,-z
y,x,-z
-y,-x,-z
-x,y,z
x,-y,z
loop_
_atom_site_type_symbol
_atom_site_label
_atom_site_fract_x
_atom_site_fract_y
_atom_site_fract_z
Si Si1 0.269331 0.121191 0.320568
Si Si2 0.925228 0.663805 0.203732
Si Si3 0.575399 0.671416 0.436130
Si Si4 0.925396 0.129254 0.748758
Si Si5 0.325912 0.246748 0.179180
Si Si6 0.196246 0.424465 0.216250
O O1 0.283347 0.080623 0.572247
O O2 0.193061 0.119987 0.263424
O O3 0.296669 0.194399 0.369115
O O4 0.305435 0.094359 0.067804
O O5 0.872478 0.609038 0.291979
O O6 0.000000 0.640353 0.188547
O O7 0.596962 0.596962 0.500000
O O8 0.500000 0.671655 0.343701
O O9 0.638300 0.688214 0.266198
O O10 0.578665 0.736969 0.615846
O O11 0.912388 0.087613 0.500000
O O12 0.000000 0.152617 0.754281
O O13 0.910024 0.089977 0.000000
O O14 0.267130 0.267130 0.000000
O O15 0.384592 0.212725 0.032249
O O16 0.184515 0.500000 0.168301
#
# Coordination Sequence:
#
# PCOD9557385 Si02
#       6
#     8   8   8   8   8   8
#     4  11  24  42  66  97 130 167 214 272 335 390
#     4  11  22  40  65  94 132 172 212 266 329 396
#     4  11  22  39  63  91 126 168 217 271 331 394
#     4  12  26  44  66  93 127 170 218 270 326 390
#     4  11  21  38  64  93 123 164 214 273 328 396
#     4  10  22  39  60  88 124 167 213 264 321 388
#
# _framework density 21.525905000000002
#
# number of rings (size 3 to 8) (size 9 to 14) (size 15 to 20)
#    0.000    1.000    3.333    4.000    0.000    3.500 
#    0.000    0.000    0.000    2.000    0.000    0.000 
#    0.000    0.000    0.000    0.000    0.000    0.000 
#
# Total GULP energy -267476.830535 kJ/mol
# GULP energy per Si atom -5572.433969 kJ/mol
# Density = 2.147691 g / cm^3
# Si number density = 21.525905 Si / 1000 Ang^3
#
#
#
# Elastic Constant Matrix: (Units=GPa)
#
#
# Indices 1 2 3 4 5 6 
#
# 1 57.7354 44.7285 14.5251 0.0000 0.0000 0.0000
# 2 44.7285 57.7609 14.5258 0.0000 0.0000 0.0000
# 3 14.5251 14.5258 72.3325 0.0000 0.0000 0.0000
# 4 0.0000 0.0000 0.0000 22.0260 0.0000 0.0000
# 5 0.0000 0.0000 0.0000 0.0000 22.0276 0.0000
# 6 0.0000 0.0000 0.0000 0.0000 0.0000 23.8614
#
#
#
# Elastic Compliance Matrix: (Units=1/GPa)
#
#
# Indices 1 2 3 4 5 6 
#
# 1 0.043587 -0.033230 -0.002080 0.000000 0.000000 0.000000
# 2 -0.033230 0.043567 -0.002076 0.000000 0.000000 0.000000
# 3 -0.002080 -0.002076 0.014660 0.000000 0.000000 0.000000
# 4 0.000000 0.000000 0.000000 0.045401 0.000000 0.000000
# 5 0.000000 0.000000 0.000000 0.000000 0.045398 0.000000
# 6 0.000000 0.000000 0.000000 0.000000 0.000000 0.041909
#
#
# Mechanical properties :
#
#
# Convention : Reuss Voigt Hill
#
# Bulk Modulus (GPa) = 36.97855 37.26531 37.12193
# Shear Modulus (GPa) = 15.70812 21.18630 18.44721
#
# Velocity S-wave (km/s) = 2.70428 3.14064 2.93059
# Velocity P-wave (km/s) = 5.19296 5.52276 5.36040
#
# Compressibility (1/GPa) = 0.02704271
#
# Stress axis : x y z
#
# Youngs Moduli (GPa) = 22.94247 22.95305 68.21474
#
# Poissons Ratio (x) = 0.76273 0.14186
# Poissons Ratio (y) = 0.76238 0.14163
# Poissons Ratio (z) = 0.04771 0.04766
#
# Static dielectric constant tensor:
#      x y z
#    x 1.782370 0.000000 0.000000 
#    y 0.000000 1.782370 0.000000 
#    z 0.000000 0.000000 1.962560 
# 
# From -- ./inp_files/638.got.cif
#   From: 2010.05.17/outbox.cif.g08.bks.cpg/sg115_1_cif.got.tgz:638.got - 2010.05.20 11:07:42.
