data_PCOD9557866
_publ_section_title
;
Structure prediction by ZEFSAII (Michael W. Deem and Ramdas Pophale) SiO2 
 PCOD9557866
Probable space group: P -4 C 2
;
_chemical_formula_sum "Si O2"
_cell_formula_units_Z 38
_cell_length_a 11.672660
_cell_length_b 11.672660
_cell_length_c 12.493036
_cell_angle_alpha 90.000000
_cell_angle_beta 90.000000
_cell_angle_gamma 90.000000
_cell_volume 1702.188542
_symmetry_space_group_name_H-M "P -4 C 2"
_symmetry_group_IT_number 116
_symmetry_cell_setting 'tetragonal'
loop_
_space_group_symop_operation_xyz
x,y,z
y,-x,-z
-x,-y,z
-y,x,-z
y,x,1/2-z
-y,-x,1/2-z
-x,y,1/2+z
x,-y,1/2+z
loop_
_atom_site_type_symbol
_atom_site_label
_atom_site_fract_x
_atom_site_fract_y
_atom_site_fract_z
Si Si1 0.646675 0.206004 0.454418
Si Si2 0.000000 0.000000 0.000000
Si Si3 0.386695 0.830030 0.005876
Si Si4 0.999370 0.770305 0.134889
Si Si5 0.500000 0.000000 0.671360
Si Si6 0.305646 0.144529 0.198887
O O1 0.718111 0.323193 0.447619
O O2 0.508967 0.207895 0.455668
O O3 0.682337 0.158000 0.572546
O O4 0.696039 0.114318 0.371318
O O5 0.016070 0.888680 0.074024
O O6 0.418946 0.923114 0.096172
O O7 0.299878 0.899187 0.928426
O O8 0.952218 0.779773 0.255579
O O9 0.573457 0.091958 0.735128
O O10 0.262976 0.262976 0.250000
#
# Coordination Sequence:
#
# PCOD9557866 Si02
#       6
#     8   2   8   8   4   8
#     4  11  24  42  65  98 127 179 221 271 327 405
#     4  12  24  40  66 104 136 162 228 264 342 412
#     4  11  21  42  66  89 134 169 221 267 330 392
#     4  12  22  40  66  92 132 174 207 275 338 397
#     4  10  24  40  64  98 126 174 232 268 322 426
#     4  11  22  37  65  94 128 170 216 264 335 398
#
# _framework density 22.324200999999999
#
# number of rings (size 3 to 8) (size 9 to 14) (size 15 to 20)
#    0.000    0.842    8.421    0.000    2.947    0.421 
#    0.000   10.000    0.000    0.000    0.000    0.000 
#    0.000    0.000    0.000    0.000    0.000    0.000 
#
# Total GULP energy -212231.306756 kJ/mol
# GULP energy per Si atom -5585.034388 kJ/mol
# Density = 2.227339 g / cm^3
# Si number density = 22.324201 Si / 1000 Ang^3
#
#
#
# Elastic Constant Matrix: (Units=GPa)
#
#
# Indices 1 2 3 4 5 6 
#
# 1 132.6481 55.9299 -5.7545 0.0000 0.0000 0.0000
# 2 55.9299 132.6481 -5.7545 0.0000 0.0000 0.0000
# 3 -5.7545 -5.7545 38.2126 0.0000 0.0000 0.0000
# 4 0.0000 0.0000 0.0000 16.2336 0.0000 0.0000
# 5 0.0000 0.0000 0.0000 0.0000 16.2336 0.0000
# 6 0.0000 0.0000 0.0000 0.0000 0.0000 64.1138
#
#
#
# Elastic Compliance Matrix: (Units=1/GPa)
#
#
# Indices 1 2 3 4 5 6 
#
# 1 0.009193 -0.003841 0.000806 0.000000 0.000000 0.000000
# 2 -0.003841 0.009193 0.000806 0.000000 0.000000 0.000000
# 3 0.000806 0.000806 0.026412 0.000000 0.000000 0.000000
# 4 0.000000 0.000000 0.000000 0.061601 0.000000 0.000000
# 5 0.000000 0.000000 0.000000 0.000000 0.061601 0.000000
# 6 0.000000 0.000000 0.000000 0.000000 0.000000 0.015597
#
#
# Mechanical properties :
#
#
# Convention : Reuss Voigt Hill
#
# Bulk Modulus (GPa) = 24.78922 43.59449 34.19186
# Shear Modulus (GPa) = 24.81351 36.58871 30.70111
#
# Velocity S-wave (km/s) = 3.33754 4.05281 3.71244
# Velocity P-wave (km/s) = 5.09711 6.43977 5.80738
#
# Compressibility (1/GPa) = 0.04034011
#
# Stress axis : x y z
#
# Youngs Moduli (GPa) = 108.77400 108.77400 37.86140
#
# Poissons Ratio (x) = 0.41784 -0.03052
# Poissons Ratio (y) = 0.41784 -0.03052
# Poissons Ratio (z) = -0.08767 -0.08767
#
# Static dielectric constant tensor:
#      x y z
#    x 1.859940 0.000000 0.000000 
#    y 0.000000 1.859940 0.000000 
#    z 0.000000 0.000000 1.922920 
# 
# From -- ./inp_files/3256.got.cif
#   From: 2010.05.17/outbox.cif.g08.bks.cpg/sg116_2_cif.got.tgz:3256.got - 2010.05.20 11:11:43.
