data_PCOD9557432
_publ_section_title
;
Structure prediction by ZEFSAII (Michael W. Deem and Ramdas Pophale) SiO2 
 PCOD9557432
Probable space group: P -4 M 2
;
_chemical_formula_sum "Si O2"
_cell_formula_units_Z 32
_cell_length_a 14.295040
_cell_length_b 14.295040
_cell_length_c 9.234485
_cell_angle_alpha 90.000000
_cell_angle_beta 90.000000
_cell_angle_gamma 90.000000
_cell_volume 1887.050098
_symmetry_space_group_name_H-M "P -4 M 2"
_symmetry_group_IT_number 115
_symmetry_cell_setting 'tetragonal'
loop_
_space_group_symop_operation_xyz
x,y,z
y,-x,-z
-x,-y,z
-y,x,-z
y,x,-z
-y,-x,-z
-x,y,z
x,-y,z
loop_
_atom_site_type_symbol
_atom_site_label
_atom_site_fract_x
_atom_site_fract_y
_atom_site_fract_z
Si Si1 0.391243 0.110911 0.850527
Si Si2 0.388486 0.390952 0.165055
Si Si3 0.239267 0.889227 0.094260
Si Si4 0.751574 0.266963 0.330263
O O1 0.500000 0.139429 0.861579
O O2 0.334756 0.165554 0.726642
O O3 0.388573 0.000000 0.822999
O O4 0.333103 0.127363 0.998509
O O5 0.500000 0.385995 0.174062
O O6 0.362324 0.500000 0.186402
O O7 0.339812 0.323327 0.277759
O O8 0.362841 0.362841 0.000000
O O9 0.243574 0.829275 0.240323
O O10 0.228765 0.000000 0.116151
O O11 0.154780 0.845221 0.000000
O O12 0.750566 0.249435 0.500000
#
# Coordination Sequence:
#
# PCOD9557432 Si02
#       4
#     8   8   8   8
#     4   9  18  35  57  76  96 128 172 216 253 293
#     4   9  18  33  52  72  97 135 182 223 253 287
#     4   9  19  36  57  78  98 127 170 215 254 296
#     4  11  22  32  48  76 109 140 164 199 253 312
#
# _framework density 16.957685000000001
#
# number of rings (size 3 to 8) (size 9 to 14) (size 15 to 20)
#    0.000    2.500    0.000    3.750    0.000    6.250 
#    0.000    1.250    0.000    3.000    0.000    3.500 
#    0.000    0.000    0.000    0.000    0.000    0.000 
#
# Total GULP energy -178515.156697 kJ/mol
# GULP energy per Si atom -5578.598647 kJ/mol
# Density = 1.691909 g / cm^3
# Si number density = 16.957685 Si / 1000 Ang^3
#
#
#
# Elastic Constant Matrix: (Units=GPa)
#
#
# Indices 1 2 3 4 5 6 
#
# 1 126.8560 51.3602 69.6865 0.0000 0.0000 0.0000
# 2 51.3602 126.8550 69.6864 0.0000 0.0000 0.0000
# 3 69.6865 69.6864 161.7897 0.0000 0.0000 0.0000
# 4 0.0000 0.0000 0.0000 56.5262 0.0000 0.0000
# 5 0.0000 0.0000 0.0000 0.0000 56.5027 0.0000
# 6 0.0000 0.0000 0.0000 0.0000 0.0000 24.1914
#
#
#
# Elastic Compliance Matrix: (Units=1/GPa)
#
#
# Indices 1 2 3 4 5 6 
#
# 1 0.010854 -0.002392 -0.003644 0.000000 0.000000 0.000000
# 2 -0.002392 0.010854 -0.003645 0.000000 0.000000 0.000000
# 3 -0.003644 -0.003645 0.009320 0.000000 0.000000 0.000000
# 4 0.000000 0.000000 0.000000 0.017691 0.000000 0.000000
# 5 0.000000 0.000000 0.000000 0.000000 0.017698 0.000000
# 6 0.000000 0.000000 0.000000 0.000000 0.000000 0.041337
#
#
# Mechanical properties :
#
#
# Convention : Reuss Voigt Hill
#
# Bulk Modulus (GPa) = 85.72570 88.55186 87.13878
# Shear Modulus (GPa) = 38.16660 42.42857 40.29759
#
# Velocity S-wave (km/s) = 4.74930 5.00745 4.88008
# Velocity P-wave (km/s) = 8.98537 9.26096 9.12421
#
# Compressibility (1/GPa) = 0.01166511
#
# Stress axis : x y z
#
# Youngs Moduli (GPa) = 92.13575 92.13489 107.29170
#
# Poissons Ratio (x) = 0.22041 0.39102
# Poissons Ratio (y) = 0.22041 0.39102
# Poissons Ratio (z) = 0.33579 0.33579
#
# Static dielectric constant tensor:
#      x y z
#    x 1.560880 0.000000 0.000000 
#    y 0.000000 1.560860 0.000000 
#    z 0.000000 0.000000 1.537420 
# 
# From -- ./inp_files/1294.got.cif
#   From: 2010.05.17/outbox.cif.g08.bks.cpg/sg115_1_cif.got.tgz:1294.got - 2010.05.20 11:07:42.
