data_PCOD9557978
_publ_section_title
;
Structure prediction by ZEFSAII (Michael W. Deem and Ramdas Pophale) SiO2 
 PCOD9557978
Probable space group: P -4 C 2
;
_chemical_formula_sum "Si O2"
_cell_formula_units_Z 34
_cell_length_a 10.777360
_cell_length_b 10.777360
_cell_length_c 12.911670
_cell_angle_alpha 90.000000
_cell_angle_beta 90.000000
_cell_angle_gamma 90.000000
_cell_volume 1499.709690
_symmetry_space_group_name_H-M "P -4 C 2"
_symmetry_group_IT_number 116
_symmetry_cell_setting 'tetragonal'
loop_
_space_group_symop_operation_xyz
x,y,z
y,-x,-z
-x,-y,z
-y,x,-z
y,x,1/2-z
-y,-x,1/2-z
-x,y,1/2+z
x,-y,1/2+z
loop_
_atom_site_type_symbol
_atom_site_label
_atom_site_fract_x
_atom_site_fract_y
_atom_site_fract_z
Si Si1 0.726788 0.218149 0.508317
Si Si2 0.680100 0.460777 0.161298
Si Si3 0.892006 0.408471 0.794199
Si Si4 0.971957 0.651259 0.084093
Si Si5 0.500000 0.500000 0.000000
O O1 0.646637 0.278418 0.416404
O O2 0.657764 0.184080 0.616121
O O3 0.845272 0.303653 0.530432
O O4 0.737685 0.078947 0.462464
O O5 0.594257 0.405744 0.250000
O O6 0.793474 0.520965 0.221095
O O7 0.604131 0.546057 0.080371
O O8 0.960025 0.325368 0.707526
O O9 0.000000 0.500000 0.835458
O O10 0.000000 0.500000 0.071609
#
# Coordination Sequence:
#
# PCOD9557978 Si02
#       5
#     8   8   8   8   2
#     4  12  26  45  77 103 154 204 255 322 384 466
#     4  12  26  43  71 111 153 197 255 312 387 469
#     4  11  24  47  74 108 155 199 253 315 390 462
#     4  11  25  48  72 111 146 204 256 316 393 456
#     4  12  26  44  68 110 156 200 246 316 396 458
#
# _framework density 22.671056
#
# number of rings (size 3 to 8) (size 9 to 14) (size 15 to 20)
#    0.000    0.471    4.706    4.588    6.588    2.353 
#    0.000    0.000    0.000    2.824    0.000    0.000 
#    0.000    0.000    0.000    0.000    0.000    0.000 
#
# Total GULP energy -189866.431154 kJ/mol
# GULP energy per Si atom -5584.306799 kJ/mol
# Density = 2.261946 g / cm^3
# Si number density = 22.671056 Si / 1000 Ang^3
#
#
#
# Elastic Constant Matrix: (Units=GPa)
#
#
# Indices 1 2 3 4 5 6 
#
# 1 114.4453 53.7815 65.6916 0.0000 0.0000 0.0000
# 2 53.7815 114.4449 65.6913 0.0000 0.0000 0.0000
# 3 65.6916 65.6913 186.7229 0.0000 0.0000 0.0000
# 4 0.0000 0.0000 0.0000 36.9119 0.0000 0.0000
# 5 0.0000 0.0000 0.0000 0.0000 36.9136 0.0000
# 6 0.0000 0.0000 0.0000 0.0000 0.0000 40.2183
#
#
#
# Elastic Compliance Matrix: (Units=1/GPa)
#
#
# Indices 1 2 3 4 5 6 
#
# 1 0.012340 -0.004144 -0.002884 0.000000 0.000000 0.000000
# 2 -0.004144 0.012340 -0.002884 0.000000 0.000000 0.000000
# 3 -0.002884 -0.002884 0.007385 0.000000 0.000000 0.000000
# 4 0.000000 0.000000 0.000000 0.027092 0.000000 0.000000
# 5 0.000000 0.000000 0.000000 0.000000 0.027090 0.000000
# 6 0.000000 0.000000 0.000000 0.000000 0.000000 0.024864
#
#
# Mechanical properties :
#
#
# Convention : Reuss Voigt Hill
#
# Bulk Modulus (GPa) = 81.67977 87.32689 84.50333
# Shear Modulus (GPa) = 37.03298 38.17199 37.60248
#
# Velocity S-wave (km/s) = 4.04603 4.10778 4.07702
# Velocity P-wave (km/s) = 7.61141 7.81673 7.71475
#
# Compressibility (1/GPa) = 0.01224293
#
# Stress axis : x y z
#
# Youngs Moduli (GPa) = 81.03480 81.03468 135.41867
#
# Poissons Ratio (x) = 0.33580 0.39049
# Poissons Ratio (y) = 0.33581 0.39049
# Poissons Ratio (z) = 0.23367 0.23367
#
# Static dielectric constant tensor:
#      x y z
#    x 1.948250 0.000000 0.000000 
#    y 0.000000 1.948250 0.000000 
#    z 0.000000 0.000000 1.853950 
# 
# From -- ./inp_files/1689.got.cif
#   From: 2010.05.17/outbox.cif.g08.bks.cpg/sg116_1_cif.got.tgz:1689.got - 2010.05.20 11:11:43.
