data_PCOD9557504
_publ_section_title
;
Structure prediction by ZEFSAII (Michael W. Deem and Ramdas Pophale) SiO2 
 PCOD9557504
Probable space group: P -4 M 2
;
_chemical_formula_sum "Si O2"
_cell_formula_units_Z 48
_cell_length_a 9.000000
_cell_length_b 9.000000
_cell_length_c 30.000000
_cell_angle_alpha 90.000000
_cell_angle_beta 90.000000
_cell_angle_gamma 90.000000
_cell_volume 2430.000000
_symmetry_space_group_name_H-M "P -4 M 2"
_symmetry_group_IT_number 115
_symmetry_cell_setting 'tetragonal'
loop_
_space_group_symop_operation_xyz
x,y,z
y,-x,-z
-x,-y,z
-y,x,-z
y,x,-z
-y,-x,-z
-x,y,z
x,-y,z
loop_
_atom_site_type_symbol
_atom_site_label
_atom_site_fract_x
_atom_site_fract_y
_atom_site_fract_z
Si Si1 0.667623 0.166421 0.964953
Si Si2 0.336665 0.675751 0.199257
Si Si3 0.825524 0.833997 0.873677
Si Si4 0.169937 0.825773 0.724179
Si Si5 0.327818 0.681561 0.547752
Si Si6 0.177030 0.325680 0.636204
O O1 0.500000 0.182422 0.947634
O O2 0.783661 0.173349 0.925081
O O3 0.678755 0.000000 0.985022
O O4 0.709480 0.290521 0.000000
O O5 0.500000 0.727557 0.213453
O O6 0.334664 0.500000 0.198270
O O7 0.293186 0.739481 0.151755
O O8 0.217897 0.737384 0.233370
O O9 0.000000 0.820059 0.866086
O O10 0.779390 0.000000 0.858075
O O11 0.235468 0.751650 0.680201
O O12 0.000000 0.771999 0.730713
O O13 0.165194 0.000000 0.717753
O O14 0.267924 0.732077 0.500000
O O15 0.500000 0.721635 0.552022
O O16 0.321059 0.500000 0.546426
O O17 0.241298 0.735341 0.590503
O O18 0.212185 0.500000 0.638653
O O19 0.000000 0.308813 0.635497
#
# Coordination Sequence:
#
# PCOD9557504 Si02
#       6
#     8   8   8   8   8   8
#     4  10  21  37  58  84 114 149 187 226 270 318
#     4  11  24  39  56  81 111 141 175 217 265 316
#     4  10  21  38  61  86 111 143 183 224 267 317
#     4  10  21  37  56  77 103 137 176 216 261 315
#     4   8  14  26  45  68  94 126 164 205 250 302
#     4   9  17  30  49  72  98 129 166 209 256 306
#
# _framework density 19.753086
#
# number of rings (size 3 to 8) (size 9 to 14) (size 15 to 20)
#    0.000    2.333    0.000    3.000    0.000    7.667 
#    0.000    2.500    0.000    1.000    0.000    0.000 
#    0.000    0.000    0.000    0.000    0.000    0.000 
#
# Total GULP energy -267468.702919 kJ/mol
# GULP energy per Si atom -5572.264644 kJ/mol
# Density = 1.970813 g / cm^3
# Si number density = 19.753086 Si / 1000 Ang^3
#
#
#
# Elastic Constant Matrix: (Units=GPa)
#
#
# Indices 1 2 3 4 5 6 
#
# 1 -25.3644 32.1940 16.9492 0.0000 0.0000 0.0000
# 2 32.1940 -25.3649 16.9482 0.0000 0.0000 0.0000
# 3 16.9492 16.9482 54.9037 0.0000 0.0000 0.0000
# 4 0.0000 0.0000 0.0000 24.8680 0.0000 0.0000
# 5 0.0000 0.0000 0.0000 0.0000 24.8682 0.0000
# 6 0.0000 0.0000 0.0000 0.0000 0.0000 -5.1707
#
#
#
# Elastic Compliance Matrix: (Units=1/GPa)
#
#
# Indices 1 2 3 4 5 6 
#
# 1 -0.146248 -0.128875 0.084930 0.000000 0.000000 0.000000
# 2 -0.128875 -0.146248 0.084930 0.000000 0.000000 0.000000
# 3 0.084930 0.084930 -0.034222 0.000000 0.000000 0.000000
# 4 0.000000 0.000000 0.000000 0.040212 0.000000 0.000000
# 5 0.000000 0.000000 0.000000 0.000000 0.040212 0.000000
# 6 0.000000 0.000000 0.000000 0.000000 0.000000 -0.193396
#
#
# Mechanical properties :
#
#
# Convention : Reuss Voigt Hill
#
# Bulk Modulus (GPa) = -4.08585 15.15082 5.53248
# Shear Modulus (GPa) = -8.28851 4.78529 -1.75161
#
# Velocity S-wave (km/s) = -2.05065 1.55814 -0.94270
# Velocity P-wave (km/s) = 2.77125 3.30512 1.27358
#
# Compressibility (1/GPa) = -0.24474725
#
# Stress axis : x y z
#
# Youngs Moduli (GPa) = -6.83770 -6.83768 -29.22095
#
# Poissons Ratio (x) = -0.88120 2.48174
# Poissons Ratio (y) = -0.88121 2.48174
# Poissons Ratio (z) = 0.58073 0.58072
#
# Static dielectric constant tensor:
#      x y z
#    x 1.695420 0.000000 0.000000 
#    y 0.000000 1.695420 0.000000 
#    z 0.000000 0.000000 1.812160 
# 
# From -- ./inp_files/6012.got.cif
#   From: 2010.05.17/outbox.ucp.g08.bks.cvg/sg115_4_cif.got.tgz:6012.got - 2010.06.11 11:33:38.
