data_PCOD9557609
_publ_section_title
;
Structure prediction by ZEFSAII (Michael W. Deem and Ramdas Pophale) SiO2 
 PCOD9557609
Probable space group: P -4 C 2
;
_chemical_formula_sum "Si O2"
_cell_formula_units_Z 42
_cell_length_a 12.150558
_cell_length_b 12.150558
_cell_length_c 14.870110
_cell_angle_alpha 90.000000
_cell_angle_beta 90.000000
_cell_angle_gamma 90.000000
_cell_volume 2195.364448
_symmetry_space_group_name_H-M "P -4 C 2"
_symmetry_group_IT_number 116
_symmetry_cell_setting 'tetragonal'
loop_
_space_group_symop_operation_xyz
x,y,z
y,-x,-z
-x,-y,z
-y,x,-z
y,x,1/2-z
-y,-x,1/2-z
-x,y,1/2+z
x,-y,1/2+z
loop_
_atom_site_type_symbol
_atom_site_label
_atom_site_fract_x
_atom_site_fract_y
_atom_site_fract_z
Si Si1 0.000000 0.000000 0.250000
Si Si2 0.069584 0.197105 0.120307
Si Si3 0.620215 0.971656 0.253605
Si Si4 0.746054 0.854449 0.980657
Si Si5 0.124021 0.468566 0.427493
Si Si6 0.680981 0.796318 0.671875
O O1 0.014620 0.103236 0.182578
O O2 0.094668 0.300621 0.182647
O O3 0.979805 0.240399 0.049841
O O4 0.175563 0.158756 0.066505
O O5 0.596567 0.904455 0.163878
O O6 0.500000 0.000000 0.293357
O O7 0.676019 0.087058 0.224609
O O8 0.787561 0.779632 0.898850
O O9 0.619676 0.826784 0.004170
O O10 0.195897 0.571610 0.391886
O O11 0.000000 0.500000 0.460271
O O12 0.704816 0.704816 0.750000
#
# Coordination Sequence:
#
# PCOD9557609 Si02
#       6
#     2   8   8   8   8   8
#     4  12  24  34  52  80 134 180 190 234 310 380
#     4  12  22  36  55  87 128 160 201 241 300 371
#     4   9  19  37  62  85 118 156 204 243 294 357
#     4  12  23  36  61  91 122 158 199 252 304 354
#     4   9  21  40  59  89 120 150 208 256 289 356
#     4  10  19  40  61  89 118 159 199 252 304 364
#
# _framework density 19.131218000000001
#
# number of rings (size 3 to 8) (size 9 to 14) (size 15 to 20)
#    0.000    1.905    1.905    5.714    0.000    2.286 
#    0.000    0.000    0.000    0.571    4.952    0.000 
#    0.000    0.000    0.000    0.000    0.000    0.000 
#
# Total GULP energy -234197.427143 kJ/mol
# GULP energy per Si atom -5576.129218 kJ/mol
# Density = 1.908767 g / cm^3
# Si number density = 19.131218 Si / 1000 Ang^3
#
#
#
# Elastic Constant Matrix: (Units=GPa)
#
#
# Indices 1 2 3 4 5 6 
#
# 1 59.7091 22.3653 20.3063 0.0000 0.0000 0.0000
# 2 22.3653 59.7091 20.3063 0.0000 0.0000 0.0000
# 3 20.3063 20.3063 42.2237 0.0000 0.0000 0.0000
# 4 0.0000 0.0000 0.0000 -54.3797 0.0000 0.0000
# 5 0.0000 0.0000 0.0000 0.0000 -54.3797 0.0000
# 6 0.0000 0.0000 0.0000 0.0000 0.0000 4.6172
#
#
#
# Elastic Compliance Matrix: (Units=1/GPa)
#
#
# Indices 1 2 3 4 5 6 
#
# 1 0.021384 -0.005395 -0.007689 0.000000 0.000000 0.000000
# 2 -0.005395 0.021384 -0.007689 0.000000 0.000000 0.000000
# 3 -0.007689 -0.007689 0.031079 0.000000 0.000000 0.000000
# 4 0.000000 0.000000 0.000000 -0.018389 0.000000 0.000000
# 5 0.000000 0.000000 0.000000 0.000000 -0.018389 0.000000
# 6 0.000000 0.000000 0.000000 0.000000 0.000000 0.216581
#
#
# Mechanical properties :
#
#
# Convention : Reuss Voigt Hill
#
# Bulk Modulus (GPa) = 30.96010 31.95528 31.45769
# Shear Modulus (GPa) = 16.34185 -14.25082 1.04551
#
# Velocity S-wave (km/s) = 2.92584 -2.73224 0.74005
# Velocity P-wave (km/s) = 5.25663 2.60498 4.14838
#
# Compressibility (1/GPa) = 0.03229964
#
# Stress axis : x y z
#
# Youngs Moduli (GPa) = 46.76478 46.76478 32.17561
#
# Poissons Ratio (x) = 0.25228 0.24741
# Poissons Ratio (y) = 0.25228 0.24741
# Poissons Ratio (z) = 0.35960 0.35960
#
# Static dielectric constant tensor:
#      x y z
#    x 1.681950 0.000000 0.000000 
#    y 0.000000 1.681950 0.000000 
#    z 0.000000 0.000000 1.684690 
# 
# From -- ./inp_files/3325.got.cif
#   From: 2010.05.17/outbox.cif.g08.bks.cpg/sg116_2_cif.got.tgz:3325.got - 2010.05.20 11:11:43.
