data_PCOD9557989
_publ_section_title
;
Structure prediction by ZEFSAII (Michael W. Deem and Ramdas Pophale) SiO2 
 PCOD9557989
Probable space group: P -4 C 2
;
_chemical_formula_sum "Si O2"
_cell_formula_units_Z 40
_cell_length_a 13.269843
_cell_length_b 13.269843
_cell_length_c 9.543089
_cell_angle_alpha 90.000000
_cell_angle_beta 90.000000
_cell_angle_gamma 90.000000
_cell_volume 1680.430453
_symmetry_space_group_name_H-M "P -4 C 2"
_symmetry_group_IT_number 116
_symmetry_cell_setting 'tetragonal'
loop_
_space_group_symop_operation_xyz
x,y,z
y,-x,-z
-x,-y,z
-y,x,-z
y,x,1/2-z
-y,-x,1/2-z
-x,y,1/2+z
x,-y,1/2+z
loop_
_atom_site_type_symbol
_atom_site_label
_atom_site_fract_x
_atom_site_fract_y
_atom_site_fract_z
Si Si1 0.382214 0.743154 0.452380
Si Si2 0.394417 0.060352 0.429417
Si Si3 0.001137 0.165837 0.976113
Si Si4 0.136296 0.714930 0.818773
Si Si5 0.238233 0.563016 0.360257
O O1 0.318808 0.831373 0.525731
O O2 0.311525 0.652170 0.409328
O O3 0.461562 0.716588 0.573469
O O4 0.434191 0.773608 0.306664
O O5 0.379320 0.104582 0.273536
O O6 0.414915 0.136296 0.556774
O O7 0.500000 0.000000 0.425987
O O8 0.275614 0.028610 0.457411
O O9 0.952475 0.203463 0.830316
O O10 0.096568 0.090723 0.962786
O O11 0.232199 0.767802 0.750000
#
# Coordination Sequence:
#
# PCOD9557989 Si02
#       5
#     8   8   8   8   8
#     4  11  25  45  76 109 157 209 265 329 404 476
#     4  12  27  48  78 118 156 207 271 336 411 493
#     4  11  25  46  73 113 159 210 269 336 413 494
#     4  12  24  49  77 109 160 213 262 338 416 481
#     4  11  25  46  73 114 152 205 267 333 398 488
#
# _framework density 23.803424
#
# number of rings (size 3 to 8) (size 9 to 14) (size 15 to 20)
#    0.000    0.600    4.000    2.400    0.000    6.800 
#    0.000    3.000    0.000    0.000    0.000    0.000 
#    0.000    0.000    0.000    0.000    0.000    0.000 
#
# Total GULP energy -223330.381887 kJ/mol
# GULP energy per Si atom -5583.259547 kJ/mol
# Density = 2.374925 g / cm^3
# Si number density = 23.803424 Si / 1000 Ang^3
#
#
#
# Elastic Constant Matrix: (Units=GPa)
#
#
# Indices 1 2 3 4 5 6 
#
# 1 132.9635 63.8608 40.1676 0.0000 0.0000 0.0000
# 2 63.8608 132.9645 40.1678 0.0000 0.0000 0.0000
# 3 40.1676 40.1678 133.5855 0.0000 0.0000 0.0000
# 4 0.0000 0.0000 0.0000 21.0852 0.0000 0.0000
# 5 0.0000 0.0000 0.0000 0.0000 21.1090 0.0000
# 6 0.0000 0.0000 0.0000 0.0000 0.0000 52.1381
#
#
#
# Elastic Compliance Matrix: (Units=1/GPa)
#
#
# Indices 1 2 3 4 5 6 
#
# 1 0.010131 -0.004340 -0.001741 0.000000 0.000000 0.000000
# 2 -0.004340 0.010131 -0.001741 0.000000 0.000000 0.000000
# 3 -0.001741 -0.001741 0.008533 0.000000 0.000000 0.000000
# 4 0.000000 0.000000 0.000000 0.047427 0.000000 0.000000
# 5 0.000000 0.000000 0.000000 0.000000 0.047373 0.000000
# 6 0.000000 0.000000 0.000000 0.000000 0.000000 0.019180
#
#
# Mechanical properties :
#
#
# Convention : Reuss Voigt Hill
#
# Bulk Modulus (GPa) = 76.04403 76.43401 76.23902
# Shear Modulus (GPa) = 30.71174 35.88759 33.29966
#
# Velocity S-wave (km/s) = 3.59586 3.88708 3.74430
# Velocity P-wave (km/s) = 7.01829 7.23368 7.12680
#
# Compressibility (1/GPa) = 0.01315028
#
# Stress axis : x y z
#
# Youngs Moduli (GPa) = 98.70394 98.70460 117.19076
#
# Poissons Ratio (x) = 0.42836 0.20408
# Poissons Ratio (y) = 0.42836 0.20408
# Poissons Ratio (z) = 0.17188 0.17189
#
# Static dielectric constant tensor:
#      x y z
#    x 2.218580 0.000000 0.000000 
#    y 0.000000 2.218900 0.000000 
#    z 0.000000 0.000000 1.933950 
# 
# From -- ./inp_files/787.got.cif
#   From: 2010.05.17/outbox.cif.g08.bks.cpg/sg116_1_cif.got.tgz:787.got - 2010.05.20 11:11:43.
