data_PCOD9557443
_publ_section_title
;
Structure prediction by ZEFSAII (Michael W. Deem and Ramdas Pophale) SiO2 
 PCOD9557443
Probable space group: P -4 M 2
;
_chemical_formula_sum "Si O2"
_cell_formula_units_Z 48
_cell_length_a 7.853492
_cell_length_b 7.853492
_cell_length_c 36.662437
_cell_angle_alpha 90.000000
_cell_angle_beta 90.000000
_cell_angle_gamma 90.000000
_cell_volume 2261.241467
_symmetry_space_group_name_H-M "P -4 M 2"
_symmetry_group_IT_number 115
_symmetry_cell_setting 'tetragonal'
loop_
_space_group_symop_operation_xyz
x,y,z
y,-x,-z
-x,-y,z
-y,x,-z
y,x,-z
-y,-x,-z
-x,y,z
x,-y,z
loop_
_atom_site_type_symbol
_atom_site_label
_atom_site_fract_x
_atom_site_fract_y
_atom_site_fract_z
Si Si1 0.686272 0.798143 0.460647
Si Si2 0.696161 0.795247 0.116255
Si Si3 0.297057 0.000000 0.590067
Si Si4 0.295539 0.698165 0.806037
Si Si5 0.708884 0.000000 0.673150
Si Si6 0.291993 0.302065 0.725722
Si Si7 0.702871 0.191502 0.039292
O O1 0.714380 0.714380 0.500000
O O2 0.500000 0.749682 0.446275
O O3 0.834654 0.756026 0.432653
O O4 0.690128 0.000000 0.467249
O O5 0.500000 0.730052 0.118859
O O6 0.778068 0.757854 0.155436
O O7 0.770169 0.731369 0.077521
O O8 0.690492 0.000000 0.112729
O O9 0.500000 0.000000 0.591865
O O10 0.231518 0.000000 0.631449
O O11 0.500000 0.699826 0.805980
O O12 0.237645 0.500000 0.806434
O O13 0.239703 0.761760 0.766270
O O14 0.763102 0.169013 0.695082
O O15 0.500000 0.000000 0.673104
O O16 0.500000 0.304036 0.725497
O O17 0.239048 0.500000 0.720687
O O18 0.500000 0.182858 0.045039
O O19 0.771753 0.000000 0.035876
O O20 0.726828 0.273173 0.000000
#
# Coordination Sequence:
#
# PCOD9557443 Si02
#       7
#     8   8   4   8   4   8   8
#     4  11  23  40  63  89 120 161 207 253 305 366
#     4   8  14  25  41  62  88 116 148 190 240 295
#     4  11  23  37  57  91 125 159 203 250 305 357
#     4   8  13  22  40  66  91 117 155 200 247 302
#     4   9  18  31  49  75 111 149 185 225 274 337
#     4   8  14  26  45  69  98 136 179 220 266 323
#     4   9  18  31  46  65  89 119 156 195 238 297
#
# _framework density 21.227277000000001
#
# number of rings (size 3 to 8) (size 9 to 14) (size 15 to 20)
#    0.000    3.000    0.833    2.750    0.000    2.833 
#    0.000    3.333    1.833    2.000    0.000    2.333 
#    0.000    0.000    0.000    0.000    0.000    0.000 
#
# Total GULP energy -267420.179807 kJ/mol
# GULP energy per Si atom -5571.253746 kJ/mol
# Density = 2.117896 g / cm^3
# Si number density = 21.227277 Si / 1000 Ang^3
#
#
#
# Elastic Constant Matrix: (Units=GPa)
#
#
# Indices 1 2 3 4 5 6 
#
# 1 60.7045 15.9950 50.0203 0.0000 0.0000 0.0000
# 2 15.9950 60.7044 50.0200 0.0000 0.0000 0.0000
# 3 50.0203 50.0200 217.9459 0.0000 0.0000 0.0000
# 4 0.0000 0.0000 0.0000 14.7173 0.0000 0.0000
# 5 0.0000 0.0000 0.0000 0.0000 14.7174 0.0000
# 6 0.0000 0.0000 0.0000 0.0000 0.0000 41.7724
#
#
#
# Elastic Compliance Matrix: (Units=1/GPa)
#
#
# Indices 1 2 3 4 5 6 
#
# 1 0.020487 -0.001879 -0.004271 0.000000 0.000000 0.000000
# 2 -0.001879 0.020487 -0.004271 0.000000 0.000000 0.000000
# 3 -0.004271 -0.004271 0.006549 0.000000 0.000000 0.000000
# 4 0.000000 0.000000 0.000000 0.067947 0.000000 0.000000
# 5 0.000000 0.000000 0.000000 0.000000 0.067947 0.000000
# 6 0.000000 0.000000 0.000000 0.000000 0.000000 0.023939
#
#
# Mechanical properties :
#
#
# Convention : Reuss Voigt Hill
#
# Bulk Modulus (GPa) = 37.47806 63.49170 50.48488
# Shear Modulus (GPa) = 21.08884 29.12938 25.10911
#
# Velocity S-wave (km/s) = 3.15537 3.70842 3.44302
# Velocity P-wave (km/s) = 5.56499 6.95068 6.29607
#
# Compressibility (1/GPa) = 0.02668228
#
# Stress axis : x y z
#
# Youngs Moduli (GPa) = 48.81034 48.81033 152.70373
#
# Poissons Ratio (x) = 0.09172 0.65216
# Poissons Ratio (y) = 0.09172 0.65216
# Poissons Ratio (z) = 0.20846 0.20846
#
# Static dielectric constant tensor:
#      x y z
#    x 1.779740 0.000000 0.000000 
#    y 0.000000 1.779740 0.000000 
#    z 0.000000 0.000000 1.809430 
# 
# From -- ./inp_files/6130.got.cif
#   From: 2010.05.17/outbox.cif.g08.bks.cpg/sg115_4_cif.got.tgz:6130.got - 2010.05.20 11:07:42.
