data_PCOD9557835
_publ_section_title
;
Structure prediction by ZEFSAII (Michael W. Deem and Ramdas Pophale) SiO2 
 PCOD9557835
Probable space group: P -4 C 2
;
_chemical_formula_sum "Si O2"
_cell_formula_units_Z 34
_cell_length_a 10.709073
_cell_length_b 10.709073
_cell_length_c 12.375731
_cell_angle_alpha 90.000000
_cell_angle_beta 90.000000
_cell_angle_gamma 90.000000
_cell_volume 1419.301360
_symmetry_space_group_name_H-M "P -4 C 2"
_symmetry_group_IT_number 116
_symmetry_cell_setting 'tetragonal'
loop_
_space_group_symop_operation_xyz
x,y,z
y,-x,-z
-x,-y,z
-y,x,-z
y,x,1/2-z
-y,-x,1/2-z
-x,y,1/2+z
x,-y,1/2+z
loop_
_atom_site_type_symbol
_atom_site_label
_atom_site_fract_x
_atom_site_fract_y
_atom_site_fract_z
Si Si1 0.000000 0.000000 0.000000
Si Si2 0.728135 0.727470 0.983753
Si Si3 0.500000 0.000000 0.254365
Si Si4 0.997749 0.276786 0.573318
Si Si5 0.745590 0.401050 0.816945
Si Si6 0.352024 0.647977 0.250000
O O1 0.009326 0.123735 0.076754
O O2 0.710154 0.695548 0.859735
O O3 0.713609 0.876847 0.996690
O O4 0.865374 0.686046 0.021316
O O5 0.621985 0.684387 0.066840
O O6 0.624232 0.020473 0.329171
O O7 0.541665 0.883169 0.183255
O O8 0.728563 0.271438 0.750000
O O9 0.676764 0.503302 0.745022
#
# Coordination Sequence:
#
# PCOD9557835 Si02
#       6
#     2   8   4   8   8   4
#     4   8  20  44  72 110 160 210 256 322 412 480
#     4  11  26  47  79 111 156 203 267 330 409 490
#     4  12  24  46  78 116 150 202 268 330 408 478
#     4  10  22  45  76 113 154 203 258 334 402 483
#     4  12  28  50  74 111 154 207 262 333 407 485
#     4  12  29  48  74 109 152 210 255 324 402 476
#
# _framework density 23.955448000000001
#
# number of rings (size 3 to 8) (size 9 to 14) (size 15 to 20)
#    0.000    0.941    4.706    0.353    9.882    0.000 
#    0.000    0.000    0.000    4.235    0.000    0.000 
#    0.000    0.000    0.000    0.000    0.000    0.000 
#
# Total GULP energy -189536.865407 kJ/mol
# GULP energy per Si atom -5574.613688 kJ/mol
# Density = 2.390092 g / cm^3
# Si number density = 23.955448 Si / 1000 Ang^3
#
#
#
# Elastic Constant Matrix: (Units=GPa)
#
#
# Indices 1 2 3 4 5 6 
#
# 1 104.9514 31.7977 43.8299 0.0000 0.0000 0.0000
# 2 31.7977 104.9519 43.8298 0.0000 0.0000 0.0000
# 3 43.8299 43.8298 130.6429 0.0000 0.0000 0.0000
# 4 0.0000 0.0000 0.0000 28.4317 0.0000 0.0000
# 5 0.0000 0.0000 0.0000 0.0000 28.4316 0.0000
# 6 0.0000 0.0000 0.0000 0.0000 0.0000 38.7679
#
#
#
# Elastic Compliance Matrix: (Units=1/GPa)
#
#
# Indices 1 2 3 4 5 6 
#
# 1 0.011493 -0.002177 -0.003126 0.000000 0.000000 0.000000
# 2 -0.002177 0.011493 -0.003126 0.000000 0.000000 0.000000
# 3 -0.003126 -0.003126 0.009752 0.000000 0.000000 0.000000
# 4 0.000000 0.000000 0.000000 0.035172 0.000000 0.000000
# 5 0.000000 0.000000 0.000000 0.000000 0.035172 0.000000
# 6 0.000000 0.000000 0.000000 0.000000 0.000000 0.025795
#
#
# Mechanical properties :
#
#
# Convention : Reuss Voigt Hill
#
# Bulk Modulus (GPa) = 62.96466 64.38456 63.67461
# Shear Modulus (GPa) = 33.10687 33.86548 33.48618
#
# Velocity S-wave (km/s) = 3.72158 3.76398 3.74284
# Velocity P-wave (km/s) = 6.69388 6.76943 6.73176
#
# Compressibility (1/GPa) = 0.01588193
#
# Stress axis : x y z
#
# Youngs Moduli (GPa) = 87.00925 87.00980 102.54683
#
# Poissons Ratio (x) = 0.18940 0.32051
# Poissons Ratio (y) = 0.18940 0.32051
# Poissons Ratio (z) = 0.27195 0.27195
#
# Static dielectric constant tensor:
#      x y z
#    x 1.975410 0.000000 0.000000 
#    y 0.000000 1.975410 0.000000 
#    z 0.000000 0.000000 1.896130 
# 
# From -- ./inp_files/1751.got.cif
#   From: 2010.05.17/outbox.cif.g08.bks.cpg/sg116_1_cif.got.tgz:1751.got - 2010.05.20 11:11:43.
