data_PCOD9557944
_publ_section_title
;
Structure prediction by ZEFSAII (Michael W. Deem and Ramdas Pophale) SiO2 
 PCOD9557944
Probable space group: P -4 C 2
;
_chemical_formula_sum "Si O2"
_cell_formula_units_Z 34
_cell_length_a 11.219951
_cell_length_b 11.219951
_cell_length_c 12.143479
_cell_angle_alpha 90.000000
_cell_angle_beta 90.000000
_cell_angle_gamma 90.000000
_cell_volume 1528.709789
_symmetry_space_group_name_H-M "P -4 C 2"
_symmetry_group_IT_number 116
_symmetry_cell_setting 'tetragonal'
loop_
_space_group_symop_operation_xyz
x,y,z
y,-x,-z
-x,-y,z
-y,x,-z
y,x,1/2-z
-y,-x,1/2-z
-x,y,1/2+z
x,-y,1/2+z
loop_
_atom_site_type_symbol
_atom_site_label
_atom_site_fract_x
_atom_site_fract_y
_atom_site_fract_z
Si Si1 0.174670 0.196616 0.573598
Si Si2 0.000000 0.000000 0.000000
Si Si3 0.431209 0.873887 0.066487
Si Si4 0.787341 0.332687 0.843775
Si Si5 0.026825 0.633454 0.667039
O O1 0.096168 0.076997 0.566840
O O2 0.305031 0.162857 0.620450
O O3 0.195890 0.250390 0.450874
O O4 0.089301 0.293696 0.631154
O O5 0.533777 0.784477 0.106510
O O6 0.500000 0.000000 0.080014
O O7 0.392145 0.888868 0.938781
O O8 0.686911 0.313090 0.750000
O O9 0.901989 0.307559 0.766077
O O10 0.000000 0.500000 0.703392
#
# Coordination Sequence:
#
# PCOD9557944 Si02
#       5
#     8   2   8   8   8
#     4  12  23  43  70 104 147 186 231 305 363 430
#     4  12  20  36  66 100 148 170 224 288 362 432
#     4  11  22  44  69 102 146 191 231 296 360 422
#     4  12  23  43  73 103 137 191 251 288 358 442
#     4  11  23  41  72 102 138 186 230 290 370 438
#
# _framework density 22.240978999999999
#
# number of rings (size 3 to 8) (size 9 to 14) (size 15 to 20)
#    0.000    0.471    9.412    0.706    0.000    0.000 
#    0.000   17.059    0.000    9.176    0.000    0.000 
#    0.000    0.000    0.000    0.000    0.000    0.000 
#
# Total GULP energy -189458.917373 kJ/mol
# GULP energy per Si atom -5572.321099 kJ/mol
# Density = 2.219036 g / cm^3
# Si number density = 22.240979 Si / 1000 Ang^3
#
#
#
# Elastic Constant Matrix: (Units=GPa)
#
#
# Indices 1 2 3 4 5 6 
#
# 1 122.2182 80.9232 43.2056 0.0000 0.0000 0.0000
# 2 80.9232 122.2153 43.2055 0.0000 0.0000 0.0000
# 3 43.2056 43.2055 136.1010 0.0000 0.0000 0.0000
# 4 0.0000 0.0000 0.0000 40.7270 0.0000 0.0000
# 5 0.0000 0.0000 0.0000 0.0000 40.7262 0.0000
# 6 0.0000 0.0000 0.0000 0.0000 0.0000 35.2456
#
#
#
# Elastic Compliance Matrix: (Units=1/GPa)
#
#
# Indices 1 2 3 4 5 6 
#
# 1 0.014954 -0.009263 -0.001807 0.000000 0.000000 0.000000
# 2 -0.009263 0.014954 -0.001807 0.000000 0.000000 0.000000
# 3 -0.001807 -0.001807 0.008495 0.000000 0.000000 0.000000
# 4 0.000000 0.000000 0.000000 0.024554 0.000000 0.000000
# 5 0.000000 0.000000 0.000000 0.000000 0.024554 0.000000
# 6 0.000000 0.000000 0.000000 0.000000 0.000000 0.028372
#
#
# Mechanical properties :
#
#
# Convention : Reuss Voigt Hill
#
# Bulk Modulus (GPa) = 79.04976 79.46702 79.25839
# Shear Modulus (GPa) = 34.28131 37.55312 35.91722
#
# Velocity S-wave (km/s) = 3.93027 4.11355 4.02296
# Velocity P-wave (km/s) = 7.49771 7.63998 7.56918
#
# Compressibility (1/GPa) = 0.01265026
#
# Stress axis : x y z
#
# Youngs Moduli (GPa) = 66.87242 66.87067 117.72240
#
# Poissons Ratio (x) = 0.61941 0.21268
# Poissons Ratio (y) = 0.61943 0.21269
# Poissons Ratio (z) = 0.12081 0.12082
#
# Static dielectric constant tensor:
#      x y z
#    x 1.763860 0.000000 0.000000 
#    y 0.000000 1.763850 0.000000 
#    z 0.000000 0.000000 1.884160 
# 
# From -- ./inp_files/1716.got.cif
#   From: 2010.05.17/outbox.cif.g08.bks.cpg/sg116_1_cif.got.tgz:1716.got - 2010.05.20 11:11:43.
