data_PCOD9557527
_publ_section_title
;
Structure prediction by ZEFSAII (Michael W. Deem and Ramdas Pophale) SiO2 
 PCOD9557527
Probable space group: P -4 C 2
;
_chemical_formula_sum "Si O2"
_cell_formula_units_Z 64
_cell_length_a 17.148552
_cell_length_b 17.148552
_cell_length_c 11.227950
_cell_angle_alpha 90.000000
_cell_angle_beta 90.000000
_cell_angle_gamma 90.000000
_cell_volume 3301.835096
_symmetry_space_group_name_H-M "P -4 C 2"
_symmetry_group_IT_number 116
_symmetry_cell_setting 'tetragonal'
loop_
_space_group_symop_operation_xyz
x,y,z
y,-x,-z
-x,-y,z
-y,x,-z
y,x,1/2-z
-y,-x,1/2-z
-x,y,1/2+z
x,-y,1/2+z
loop_
_atom_site_type_symbol
_atom_site_label
_atom_site_fract_x
_atom_site_fract_y
_atom_site_fract_z
Si Si1 0.271069 0.761041 0.992129
Si Si2 0.692415 0.031327 0.383982
Si Si3 0.108755 0.215270 0.187450
Si Si4 0.859372 0.660055 0.396226
Si Si5 0.492130 0.228019 0.173299
Si Si6 0.564542 0.935666 0.468708
Si Si7 0.654927 0.145947 0.179292
Si Si8 0.450767 0.242727 0.424676
O O1 0.231366 0.831128 0.918976
O O2 0.217743 0.687281 0.968292
O O3 0.358310 0.748437 0.943616
O O4 0.284541 0.793022 0.123874
O O5 0.676044 0.070849 0.511602
O O6 0.689257 0.098041 0.286519
O O7 0.767727 0.977155 0.363320
O O8 0.617435 0.975076 0.367605
O O9 0.134135 0.134135 0.250000
O O10 0.127506 0.281874 0.285820
O O11 0.838515 0.573484 0.351338
O O12 0.575155 0.190615 0.207188
O O13 0.469060 0.273406 0.293197
O O14 0.506434 0.270334 0.045823
O O15 0.624399 0.912188 0.574355
O O16 0.532554 0.851629 0.426874
O O17 0.500000 0.000000 0.502099
#
# Coordination Sequence:
#
# PCOD9557527 Si02
#       8
#     8   8   8   8   8   8   8   8
#     4   9  19  38  49  70 101 145 178 226 258 323
#     4  12  20  31  49  78 100 137 177 227 269 327
#     4  10  20  35  52  70 103 137 182 225 265 316
#     4  11  21  32  57  73  99 142 194 215 267 331
#     4  10  18  32  48  78 105 145 176 220 259 327
#     4  10  18  28  43  68 104 141 168 202 255 317
#     4  10  21  32  47  72 118 134 168 217 275 320
#     4  10  19  32  48  69 109 143 179 218 267 323
#
# _framework density 19.38316
#
# number of rings (size 3 to 8) (size 9 to 14) (size 15 to 20)
#    0.000    2.000    3.750    3.750    0.000    3.000 
#    0.000    0.000    0.000    0.000    0.000    1.750 
#    0.000    8.000    0.000   22.000    0.000    1.000 
#
# Total GULP energy -356631.715239 kJ/mol
# GULP energy per Si atom -5572.370551 kJ/mol
# Density = 1.933904 g / cm^3
# Si number density = 19.383160 Si / 1000 Ang^3
#
#
#
# Elastic Constant Matrix: (Units=GPa)
#
#
# Indices 1 2 3 4 5 6 
#
# 1 27.0780 2.3558 1.7007 0.0000 0.0000 0.0000
# 2 2.3558 27.0780 1.7007 0.0000 0.0000 0.0000
# 3 1.7007 1.7007 63.5255 0.0000 0.0000 0.0000
# 4 0.0000 0.0000 0.0000 15.1023 0.0000 0.0000
# 5 0.0000 0.0000 0.0000 0.0000 15.1023 0.0000
# 6 0.0000 0.0000 0.0000 0.0000 0.0000 18.6950
#
#
#
# Elastic Compliance Matrix: (Units=1/GPa)
#
#
# Indices 1 2 3 4 5 6 
#
# 1 0.037265 -0.003185 -0.000912 0.000000 0.000000 0.000000
# 2 -0.003185 0.037265 -0.000912 0.000000 0.000000 0.000000
# 3 -0.000912 -0.000912 0.015791 0.000000 0.000000 0.000000
# 4 0.000000 0.000000 0.000000 0.066215 0.000000 0.000000
# 5 0.000000 0.000000 0.000000 0.000000 0.066215 0.000000
# 6 0.000000 0.000000 0.000000 0.000000 0.000000 0.053490
#
#
# Mechanical properties :
#
#
# Convention : Reuss Voigt Hill
#
# Bulk Modulus (GPa) = 12.45313 14.35510 13.40411
# Shear Modulus (GPa) = 15.97308 17.24152 16.60730
#
# Velocity S-wave (km/s) = 2.87378 2.98570 2.93027
# Velocity P-wave (km/s) = 4.17733 4.39408 4.28708
#
# Compressibility (1/GPa) = 0.08030109
#
# Stress axis : x y z
#
# Youngs Moduli (GPa) = 26.83499 26.83499 63.32895
#
# Poissons Ratio (x) = 0.08546 0.05778
# Poissons Ratio (y) = 0.08546 0.05778
# Poissons Ratio (z) = 0.02448 0.02448
#
# Static dielectric constant tensor:
#      x y z
#    x 1.698420 0.000000 0.000000 
#    y 0.000000 1.698420 0.000000 
#    z 0.000000 0.000000 1.779020 
# 
# From -- ./inp_files/2084.got.cif
#   From: 2010.05.17/outbox.cif.g08.bks.cpg/sg116_2_cif.got.tgz:2084.got - 2010.05.20 11:11:43.
