data_PCOD9557904
_publ_section_title
;
Structure prediction by ZEFSAII (Michael W. Deem and Ramdas Pophale) SiO2 
 PCOD9557904
Probable space group: P -4 C 2
;
_chemical_formula_sum "Si O2"
_cell_formula_units_Z 56
_cell_length_a 14.859307
_cell_length_b 14.859307
_cell_length_c 10.698685
_cell_angle_alpha 90.000000
_cell_angle_beta 90.000000
_cell_angle_gamma 90.000000
_cell_volume 2362.258998
_symmetry_space_group_name_H-M "P -4 C 2"
_symmetry_group_IT_number 116
_symmetry_cell_setting 'tetragonal'
loop_
_space_group_symop_operation_xyz
x,y,z
y,-x,-z
-x,-y,z
-y,x,-z
y,x,1/2-z
-y,-x,1/2-z
-x,y,1/2+z
x,-y,1/2+z
loop_
_atom_site_type_symbol
_atom_site_label
_atom_site_fract_x
_atom_site_fract_y
_atom_site_fract_z
Si Si1 0.069314 0.762430 0.058558
Si Si2 0.683302 0.880568 0.701136
Si Si3 0.594138 0.950016 0.097511
Si Si4 0.550216 0.271537 0.290371
Si Si5 0.785195 0.637464 0.235513
Si Si6 0.782469 0.129480 0.940282
Si Si7 0.420978 0.409290 0.567956
O O1 0.117787 0.756117 0.189981
O O2 0.131764 0.806537 0.953588
O O3 0.050935 0.659120 0.021209
O O4 0.973954 0.810617 0.070405
O O5 0.607606 0.807732 0.730897
O O6 0.726830 0.861498 0.568183
O O7 0.641025 0.980418 0.693080
O O8 0.599825 0.848272 0.151460
O O9 0.500000 0.000000 0.070352
O O10 0.455264 0.233760 0.337040
O O11 0.610483 0.316835 0.400791
O O12 0.535549 0.348619 0.179778
O O13 0.689595 0.689595 0.250000
O O14 0.842470 0.713188 0.165898
O O15 0.405679 0.519655 0.558439
#
# Coordination Sequence:
#
# PCOD9557904 Si02
#       7
#     8   8   8   8   8   8   8
#     4  11  25  45  73 103 152 189 246 307 382 461
#     4  11  25  44  71 107 147 189 247 311 380 448
#     4  11  23  46  70 108 146 192 242 314 382 454
#     4  11  27  42  69 103 134 194 250 308 365 452
#     4  12  25  44  74 105 147 188 256 303 387 457
#     4  11  26  45  73 108 144 198 240 314 381 465
#     4  10  26  45  63  89 143 188 241 302 367 425
#
# _framework density 23.706122000000001
#
# number of rings (size 3 to 8) (size 9 to 14) (size 15 to 20)
#    0.000    1.000    4.286    0.429   10.000    6.571 
#    0.000    0.000    0.000    1.714    0.000    0.000 
#    0.000    0.000    0.000    0.000    0.000    0.000 
#
# Total GULP energy -312012.233885 kJ/mol
# GULP energy per Si atom -5571.647034 kJ/mol
# Density = 2.365217 g / cm^3
# Si number density = 23.706122 Si / 1000 Ang^3
#
#
#
# Elastic Constant Matrix: (Units=GPa)
#
#
# Indices 1 2 3 4 5 6 
#
# 1 74.5990 60.6925 20.9471 0.0000 0.0000 0.0000
# 2 60.6925 74.5990 20.9471 0.0000 0.0000 0.0000
# 3 20.9471 20.9471 52.0080 0.0000 0.0000 0.0000
# 4 0.0000 0.0000 0.0000 32.8542 0.0000 0.0000
# 5 0.0000 0.0000 0.0000 0.0000 32.8542 0.0000
# 6 0.0000 0.0000 0.0000 0.0000 0.0000 37.2251
#
#
#
# Elastic Compliance Matrix: (Units=1/GPa)
#
#
# Indices 1 2 3 4 5 6 
#
# 1 0.040177 -0.031732 -0.003401 0.000000 0.000000 0.000000
# 2 -0.031732 0.040177 -0.003401 0.000000 0.000000 0.000000
# 3 -0.003401 -0.003401 0.021968 0.000000 0.000000 0.000000
# 4 0.000000 0.000000 0.000000 0.030437 0.000000 0.000000
# 5 0.000000 0.000000 0.000000 0.000000 0.030437 0.000000
# 6 0.000000 0.000000 0.000000 0.000000 0.000000 0.026864
#
#
# Mechanical properties :
#
#
# Convention : Reuss Voigt Hill
#
# Bulk Modulus (GPa) = 39.60076 45.15324 42.37700
# Shear Modulus (GPa) = 18.14576 27.16132 22.65354
#
# Velocity S-wave (km/s) = 2.76967 3.38857 3.09463
# Velocity P-wave (km/s) = 5.19319 5.86500 5.53929
#
# Compressibility (1/GPa) = 0.02525204
#
# Stress axis : x y z
#
# Youngs Moduli (GPa) = 24.88996 24.88996 45.52156
#
# Poissons Ratio (x) = 0.78981 0.15483
# Poissons Ratio (y) = 0.78981 0.15483
# Poissons Ratio (z) = 0.08466 0.08466
#
# Static dielectric constant tensor:
#      x y z
#    x 1.966650 0.000000 0.000000 
#    y 0.000000 1.966650 0.000000 
#    z 0.000000 0.000000 1.946480 
# 
# From -- ./inp_files/2014.got.cif
#   From: 2010.05.17/outbox.cif.g08.bks.cpg/sg116_2_cif.got.tgz:2014.got - 2010.05.20 11:11:43.
