data_PCOD9557719
_publ_section_title
;
Structure prediction by ZEFSAII (Michael W. Deem and Ramdas Pophale) SiO2 
 PCOD9557719
Probable space group: P -4 C 2
;
_chemical_formula_sum "Si O2"
_cell_formula_units_Z 56
_cell_length_a 12.339555
_cell_length_b 12.339555
_cell_length_c 19.519017
_cell_angle_alpha 90.000000
_cell_angle_beta 90.000000
_cell_angle_gamma 90.000000
_cell_volume 2972.055659
_symmetry_space_group_name_H-M "P -4 C 2"
_symmetry_group_IT_number 116
_symmetry_cell_setting 'tetragonal'
loop_
_space_group_symop_operation_xyz
x,y,z
y,-x,-z
-x,-y,z
-y,x,-z
y,x,1/2-z
-y,-x,1/2-z
-x,y,1/2+z
x,-y,1/2+z
loop_
_atom_site_type_symbol
_atom_site_label
_atom_site_fract_x
_atom_site_fract_y
_atom_site_fract_z
Si Si1 0.879504 0.449481 0.093287
Si Si2 0.735561 0.904162 0.265019
Si Si3 0.669012 0.152452 0.262491
Si Si4 0.530634 0.878210 0.180198
Si Si5 0.020304 0.828237 0.489747
Si Si6 0.864481 0.339371 0.948429
Si Si7 0.176235 0.314926 0.082813
O O1 0.847255 0.387530 0.162518
O O2 0.810557 0.556780 0.076431
O O3 0.000000 0.500000 0.102388
O O4 0.874823 0.372286 0.027408
O O5 0.852124 0.852124 0.250000
O O6 0.643156 0.849361 0.217299
O O7 0.707010 0.871147 0.342074
O O8 0.720630 0.032179 0.254461
O O9 0.762779 0.237222 0.250000
O O10 0.574214 0.181839 0.207982
O O11 0.557597 0.879384 0.100221
O O12 0.500000 0.000000 0.202357
O O13 0.089450 0.741531 0.532265
O O14 0.923772 0.894279 0.529380
O O15 0.954709 0.755373 0.434798
O O16 0.749954 0.285813 0.931334
#
# Coordination Sequence:
#
# PCOD9557719 Si02
#       7
#     8   8   8   8   8   8   8
#     4  12  21  41  66  87 126 174 216 262 330 388
#     4  11  20  40  63  88 124 167 206 256 323 388
#     4  11  24  42  64  93 129 173 215 266 319 393
#     4  10  21  38  60  90 122 157 216 263 298 369
#     4   9  19  35  52  85 127 159 188 242 317 389
#     4  11  22  36  62  96 118 163 211 267 314 382
#     4  11  21  38  63  86 120 169 208 251 327 391
#
# _framework density 18.842177
#
# number of rings (size 3 to 8) (size 9 to 14) (size 15 to 20)
#    0.000    1.286    5.714    0.857    0.000    1.429 
#   12.857    1.429    0.000    6.000    0.000    0.000 
#    0.000    0.000    0.000    0.000    0.000    0.000 
#
# Total GULP energy -312170.496408 kJ/mol
# GULP energy per Si atom -5574.473150 kJ/mol
# Density = 1.879929 g / cm^3
# Si number density = 18.842177 Si / 1000 Ang^3
#
#
#
# Elastic Constant Matrix: (Units=GPa)
#
#
# Indices 1 2 3 4 5 6 
#
# 1 99.0933 55.7971 26.9788 0.0000 0.0000 0.0000
# 2 55.7971 99.0947 26.9792 0.0000 0.0000 0.0000
# 3 26.9788 26.9792 40.2537 0.0000 0.0000 0.0000
# 4 0.0000 0.0000 0.0000 23.5227 0.0000 0.0000
# 5 0.0000 0.0000 0.0000 0.0000 23.5219 0.0000
# 6 0.0000 0.0000 0.0000 0.0000 0.0000 14.6429
#
#
#
# Elastic Compliance Matrix: (Units=1/GPa)
#
#
# Indices 1 2 3 4 5 6 
#
# 1 0.015760 -0.007337 -0.005645 0.000000 0.000000 0.000000
# 2 -0.007337 0.015759 -0.005645 0.000000 0.000000 0.000000
# 3 -0.005645 -0.005645 0.032409 0.000000 0.000000 0.000000
# 4 0.000000 0.000000 0.000000 0.042512 0.000000 0.000000
# 5 0.000000 0.000000 0.000000 0.000000 0.042514 0.000000
# 6 0.000000 0.000000 0.000000 0.000000 0.000000 0.068292
#
#
# Mechanical properties :
#
#
# Convention : Reuss Voigt Hill
#
# Bulk Modulus (GPa) = 37.48913 50.88354 44.18633
# Shear Modulus (GPa) = 18.98312 20.91661 19.94987
#
# Velocity S-wave (km/s) = 3.17753 3.33542 3.25743
# Velocity P-wave (km/s) = 5.77943 6.47280 6.13592
#
# Compressibility (1/GPa) = 0.02667440
#
# Stress axis : x y z
#
# Youngs Moduli (GPa) = 63.45345 63.45407 30.85530
#
# Poissons Ratio (x) = 0.46555 0.17418
# Poissons Ratio (y) = 0.46555 0.17418
# Poissons Ratio (z) = 0.35819 0.35821
#
# Static dielectric constant tensor:
#      x y z
#    x 1.690980 0.000000 0.000000 
#    y 0.000000 1.690980 0.000000 
#    z 0.000000 0.000000 1.683050 
# 
# From -- ./inp_files/4156.got.cif
#   From: 2010.05.17/outbox.cif.g08.bks.cpg/sg116_3_cif.got.tgz:4156.got - 2010.05.20 11:11:43.
