data_PCOD9557572
_publ_section_title
;
Structure prediction by ZEFSAII (Michael W. Deem and Ramdas Pophale) SiO2 
 PCOD9557572
Probable space group: P -4 C 2
;
_chemical_formula_sum "Si O2"
_cell_formula_units_Z 48
_cell_length_a 15.343615
_cell_length_b 15.343615
_cell_length_c 13.016925
_cell_angle_alpha 90.000000
_cell_angle_beta 90.000000
_cell_angle_gamma 90.000000
_cell_volume 3064.529370
_symmetry_space_group_name_H-M "P -4 C 2"
_symmetry_group_IT_number 116
_symmetry_cell_setting 'tetragonal'
loop_
_space_group_symop_operation_xyz
x,y,z
y,-x,-z
-x,-y,z
-y,x,-z
y,x,1/2-z
-y,-x,1/2-z
-x,y,1/2+z
x,-y,1/2+z
loop_
_atom_site_type_symbol
_atom_site_label
_atom_site_fract_x
_atom_site_fract_y
_atom_site_fract_z
Si Si1 0.615633 0.177551 0.844632
Si Si2 0.328139 0.462990 0.283356
Si Si3 0.913865 0.618074 0.371016
Si Si4 0.896402 0.583636 0.934295
Si Si5 0.717111 0.652011 0.850687
Si Si6 0.740671 0.317191 0.937885
O O1 0.549427 0.254407 0.806032
O O2 0.630346 0.113762 0.748117
O O3 0.700790 0.232699 0.879945
O O4 0.584617 0.124526 0.944114
O O5 0.419074 0.419074 0.250000
O O6 0.330149 0.560621 0.324184
O O7 0.292613 0.399847 0.372885
O O8 0.898744 0.516259 0.397522
O O9 0.844736 0.676042 0.433917
O O10 0.013937 0.630428 0.402390
O O11 0.815464 0.628623 0.879054
O O12 0.709720 0.709720 0.750000
O O13 0.678592 0.700365 0.949379
#
# Coordination Sequence:
#
# PCOD9557572 Si02
#       6
#     8   8   8   8   8   8
#     4   9  18  34  51  69 105 133 172 206 254 314
#     4   9  18  35  51  65  95 143 181 209 248 298
#     4  10  19  33  54  72  98 131 173 210 263 308
#     4  10  21  32  49  80  97 129 172 215 266 313
#     4  11  22  32  49  73 106 132 172 224 266 292
#     4   9  19  33  53  70  97 140 174 215 248 306
#
# _framework density 15.663088999999999
#
# number of rings (size 3 to 8) (size 9 to 14) (size 15 to 20)
#    0.000    2.333    3.333    1.500    2.333    5.667 
#    0.000    0.000    0.000    0.000    0.000    0.000 
#    0.000   34.667    0.000    0.000    0.000    0.000 
#
# Total GULP energy -267450.232009 kJ/mol
# GULP energy per Si atom -5571.879834 kJ/mol
# Density = 1.562744 g / cm^3
# Si number density = 15.663089 Si / 1000 Ang^3
#
#
#
# Elastic Constant Matrix: (Units=GPa)
#
#
# Indices 1 2 3 4 5 6 
#
# 1 68.2946 31.6161 52.9703 0.0000 0.0000 0.0000
# 2 31.6161 68.2946 52.9703 0.0000 0.0000 0.0000
# 3 52.9703 52.9703 125.6081 0.0000 0.0000 0.0000
# 4 0.0000 0.0000 0.0000 16.2274 0.0000 0.0000
# 5 0.0000 0.0000 0.0000 0.0000 16.2274 0.0000
# 6 0.0000 0.0000 0.0000 0.0000 0.0000 13.4485
#
#
#
# Elastic Compliance Matrix: (Units=1/GPa)
#
#
# Indices 1 2 3 4 5 6 
#
# 1 0.022684 -0.004580 -0.007635 0.000000 0.000000 0.000000
# 2 -0.004580 0.022684 -0.007635 0.000000 0.000000 0.000000
# 3 -0.007635 -0.007635 0.014401 0.000000 0.000000 0.000000
# 4 0.000000 0.000000 0.000000 0.061624 0.000000 0.000000
# 5 0.000000 0.000000 0.000000 0.000000 0.061624 0.000000
# 6 0.000000 0.000000 0.000000 0.000000 0.000000 0.074358
#
#
# Mechanical properties :
#
#
# Convention : Reuss Voigt Hill
#
# Bulk Modulus (GPa) = 49.82477 59.70117 54.76297
# Shear Modulus (GPa) = 16.46011 17.49003 16.97507
#
# Velocity S-wave (km/s) = 3.24525 3.34524 3.29563
# Velocity P-wave (km/s) = 6.77655 7.28831 7.03708
#
# Compressibility (1/GPa) = 0.02007034
#
# Stress axis : x y z
#
# Youngs Moduli (GPa) = 44.08334 44.08334 69.44087
#
# Poissons Ratio (x) = 0.20189 0.53018
# Poissons Ratio (y) = 0.20189 0.53018
# Poissons Ratio (z) = 0.33657 0.33657
#
# Static dielectric constant tensor:
#      x y z
#    x 1.530740 0.000000 0.000000 
#    y 0.000000 1.530740 0.000000 
#    z 0.000000 0.000000 1.541280 
# 
# From -- ./inp_files/1895.got.cif
#   From: 2010.05.17/outbox.cif.g08.bks.cpg/sg116_1_cif.got.tgz:1895.got - 2010.05.20 11:11:43.
