data_PCOD9557641
_publ_section_title
;
Structure prediction by ZEFSAII (Michael W. Deem and Ramdas Pophale) SiO2 
 PCOD9557641
Probable space group: P -4 C 2
;
_chemical_formula_sum "Si O2"
_cell_formula_units_Z 58
_cell_length_a 17.082939
_cell_length_b 17.082939
_cell_length_c 9.428978
_cell_angle_alpha 90.000000
_cell_angle_beta 90.000000
_cell_angle_gamma 90.000000
_cell_volume 2751.628523
_symmetry_space_group_name_H-M "P -4 C 2"
_symmetry_group_IT_number 116
_symmetry_cell_setting 'tetragonal'
loop_
_space_group_symop_operation_xyz
x,y,z
y,-x,-z
-x,-y,z
-y,x,-z
y,x,1/2-z
-y,-x,1/2-z
-x,y,1/2+z
x,-y,1/2+z
loop_
_atom_site_type_symbol
_atom_site_label
_atom_site_fract_x
_atom_site_fract_y
_atom_site_fract_z
Si Si1 0.964390 0.097165 0.094157
Si Si2 0.802531 0.482359 0.305796
Si Si3 0.072546 0.635473 0.420004
Si Si4 0.582721 0.653445 0.114142
Si Si5 0.342378 0.253945 0.876587
Si Si6 0.240888 0.880677 0.315301
Si Si7 0.949507 0.573964 0.205144
Si Si8 0.500000 0.500000 0.500000
O O1 0.941566 0.058435 0.250000
O O2 0.945067 0.188728 0.106621
O O3 0.051552 0.084132 0.030157
O O4 0.854272 0.425087 0.405425
O O5 0.726309 0.524116 0.366592
O O6 0.773647 0.426068 0.180619
O O7 0.864141 0.545267 0.248412
O O8 0.092047 0.708540 0.319751
O O9 0.054555 0.640590 0.585663
O O10 0.997543 0.598858 0.342538
O O11 0.634005 0.634005 0.250000
O O12 0.642132 0.680634 0.992521
O O13 0.533428 0.575212 0.082425
O O14 0.294702 0.294702 0.750000
O O15 0.295893 0.174154 0.913256
O O16 0.176048 0.823953 0.250000
O O17 0.000000 0.500000 0.145375
#
# Coordination Sequence:
#
# PCOD9557641 Si02
#       8
#     8   8   8   8   8   8   8   2
#     4  10  20  38  62  88 115 150 194 238 283 339
#     4  10  21  38  62  87 118 157 201 248 299 358
#     4  10  21  37  61  90 121 157 195 238 294 360
#     4  12  25  41  61  89 117 152 210 264 306 361
#     4  10  21  40  62  84 119 161 195 241 308 365
#     4   9  21  38  58  85 119 157 194 231 288 357
#     4  10  20  36  60  91 122 154 195 242 294 354
#     4  12  26  44  64  86 118 160 208 266 326 368
#
# _framework density 21.078427999999999
#
# number of rings (size 3 to 8) (size 9 to 14) (size 15 to 20)
#    0.000    1.793    0.000    4.759    0.000    7.724 
#    0.000    1.379    0.000    0.000    0.000    0.000 
#    0.000    0.000    0.000    0.000    0.000    0.000 
#
# Total GULP energy -323578.406004 kJ/mol
# GULP energy per Si atom -5578.938035 kJ/mol
# Density = 2.103045 g / cm^3
# Si number density = 21.078428 Si / 1000 Ang^3
#
#
#
# Elastic Constant Matrix: (Units=GPa)
#
#
# Indices 1 2 3 4 5 6 
#
# 1 71.6459 9.1266 7.6787 0.0000 0.0000 0.0000
# 2 9.1266 71.6426 7.6771 0.0000 0.0000 0.0000
# 3 7.6787 7.6771 48.0006 0.0000 0.0000 0.0000
# 4 0.0000 0.0000 0.0000 18.6277 0.0000 0.0000
# 5 0.0000 0.0000 0.0000 0.0000 18.6264 0.0000
# 6 0.0000 0.0000 0.0000 0.0000 0.0000 30.1215
#
#
#
# Elastic Compliance Matrix: (Units=1/GPa)
#
#
# Indices 1 2 3 4 5 6 
#
# 1 0.014382 -0.001613 -0.002043 0.000000 0.000000 0.000000
# 2 -0.001613 0.014383 -0.002042 0.000000 0.000000 0.000000
# 3 -0.002043 -0.002042 0.021486 0.000000 0.000000 0.000000
# 4 0.000000 0.000000 0.000000 0.053684 0.000000 0.000000
# 5 0.000000 0.000000 0.000000 0.000000 0.053687 0.000000
# 6 0.000000 0.000000 0.000000 0.000000 0.000000 0.033199
#
#
# Mechanical properties :
#
#
# Convention : Reuss Voigt Hill
#
# Bulk Modulus (GPa) = 25.73696 26.69489 26.21593
# Shear Modulus (GPa) = 23.23759 24.59556 23.91658
#
# Velocity S-wave (km/s) = 3.32390 3.41964 3.37211
# Velocity P-wave (km/s) = 5.19304 5.31827 5.25602
#
# Compressibility (1/GPa) = 0.03885463
#
# Stress axis : x y z
#
# Youngs Moduli (GPa) = 69.53158 69.52883 46.54092
#
# Poissons Ratio (x) = 0.11217 0.09507
# Poissons Ratio (y) = 0.11217 0.09505
# Poissons Ratio (z) = 0.14203 0.14199
#
# Static dielectric constant tensor:
#      x y z
#    x 1.794120 0.000000 0.000000 
#    y 0.000000 1.794130 0.000000 
#    z 0.000000 0.000000 1.740110 
# 
# From -- ./inp_files/1060.got.cif
#   From: 2010.05.17/outbox.cif.g08.bks.cpg/sg116_1_cif.got.tgz:1060.got - 2010.05.20 11:11:43.
