data_PCOD9557720
_publ_section_title
;
Structure prediction by ZEFSAII (Michael W. Deem and Ramdas Pophale) SiO2 
 PCOD9557720
Probable space group: P -4 C 2
;
_chemical_formula_sum "Si O2"
_cell_formula_units_Z 40
_cell_length_a 19.544812
_cell_length_b 19.544812
_cell_length_c 4.935422
_cell_angle_alpha 90.000000
_cell_angle_beta 90.000000
_cell_angle_gamma 90.000000
_cell_volume 1885.329605
_symmetry_space_group_name_H-M "P -4 C 2"
_symmetry_group_IT_number 116
_symmetry_cell_setting 'tetragonal'
loop_
_space_group_symop_operation_xyz
x,y,z
y,-x,-z
-x,-y,z
-y,x,-z
y,x,1/2-z
-y,-x,1/2-z
-x,y,1/2+z
x,-y,1/2+z
loop_
_atom_site_type_symbol
_atom_site_label
_atom_site_fract_x
_atom_site_fract_y
_atom_site_fract_z
Si Si1 0.765391 0.831900 0.988591
Si Si2 0.855438 0.547631 0.260780
Si Si3 0.641481 0.734777 0.054228
Si Si4 0.542682 0.647852 0.692242
Si Si5 0.332926 0.045690 0.031434
O O1 0.819586 0.819586 0.750000
O O2 0.800068 0.800068 0.250000
O O3 0.698564 0.785111 0.928522
O O4 0.733683 0.905860 0.052818
O O5 0.859775 0.482113 0.459427
O O6 0.784897 0.588990 0.292468
O O7 0.912351 0.601101 0.363963
O O8 0.681072 0.681072 0.250000
O O9 0.597952 0.699244 0.817966
O O10 0.573557 0.573557 0.750000
O O11 0.523869 0.655849 0.380830
O O12 0.333229 0.979111 0.222103
#
# Coordination Sequence:
#
# PCOD9557720 Si02
#       5
#     8   8   8   8   8
#     4  10  21  38  62  90 123 157 194 243 295 341
#     4  11  24  40  60  86 120 161 204 250 300 365
#     4  10  22  40  62  86 111 143 191 251 311 359
#     4  12  25  40  57  74  97 131 174 229 293 363
#     4  11  23  39  61  91 128 167 205 245 290 348
#
# _framework density 21.216448
#
# number of rings (size 3 to 8) (size 9 to 14) (size 15 to 20)
#    0.000    1.200    0.000    6.000    0.000   14.800 
#    0.000    0.000    0.000    0.000    0.000    0.000 
#    0.000   28.000    0.000    0.000    0.000    0.000 
#
# Total GULP energy -223833.359951 kJ/mol
# GULP energy per Si atom -5595.833999 kJ/mol
# Density = 2.116816 g / cm^3
# Si number density = 21.216448 Si / 1000 Ang^3
#
#
#
# Elastic Constant Matrix: (Units=GPa)
#
#
# Indices 1 2 3 4 5 6 
#
# 1 73.6158 17.7716 -1.4885 0.0000 0.0000 0.0000
# 2 17.7716 73.6158 -1.4885 0.0000 0.0000 0.0000
# 3 -1.4885 -1.4885 50.7830 0.0000 0.0000 0.0000
# 4 0.0000 0.0000 0.0000 43.7868 0.0000 0.0000
# 5 0.0000 0.0000 0.0000 0.0000 43.7868 0.0000
# 6 0.0000 0.0000 0.0000 0.0000 0.0000 35.7854
#
#
#
# Elastic Compliance Matrix: (Units=1/GPa)
#
#
# Indices 1 2 3 4 5 6 
#
# 1 0.014430 -0.003477 0.000321 0.000000 0.000000 0.000000
# 2 -0.003477 0.014430 0.000321 0.000000 0.000000 0.000000
# 3 0.000321 0.000321 0.019710 0.000000 0.000000 0.000000
# 4 0.000000 0.000000 0.000000 0.022838 0.000000 0.000000
# 5 0.000000 0.000000 0.000000 0.000000 0.022838 0.000000
# 6 0.000000 0.000000 0.000000 0.000000 0.000000 0.027944
#
#
# Mechanical properties :
#
#
# Convention : Reuss Voigt Hill
#
# Bulk Modulus (GPa) = 23.30981 25.28931 24.29956
# Shear Modulus (GPa) = 35.17149 36.88646 36.02898
#
# Velocity S-wave (km/s) = 4.07596 4.17415 4.12535
# Velocity P-wave (km/s) = 5.75863 5.93101 5.84546
#
# Compressibility (1/GPa) = 0.04290039
#
# Stress axis : x y z
#
# Youngs Moduli (GPa) = 69.30044 69.30044 50.73450
#
# Poissons Ratio (x) = 0.24096 -0.01629
# Poissons Ratio (y) = 0.24096 -0.01629
# Poissons Ratio (z) = -0.02225 -0.02225
#
# Static dielectric constant tensor:
#      x y z
#    x 1.780440 0.000000 0.000000 
#    y 0.000000 1.780440 0.000000 
#    z 0.000000 0.000000 1.745830 
# 
# From -- ./inp_files/134.got.cif
#   From: 2010.05.17/outbox.cif.g08.bks.cpg/sg116_1_cif.got.tgz:134.got - 2010.05.20 11:11:43.
