data_PCOD9557126
_publ_section_title
;
Structure prediction by ZEFSAII (Michael W. Deem and Ramdas Pophale) SiO2 
 PCOD9557126
Probable space group: P -4 M 2
;
_chemical_formula_sum "Si O2"
_cell_formula_units_Z 44
_cell_length_a 8.044597
_cell_length_b 8.044597
_cell_length_c 33.501175
_cell_angle_alpha 90.000000
_cell_angle_beta 90.000000
_cell_angle_gamma 90.000000
_cell_volume 2168.046661
_symmetry_space_group_name_H-M "P -4 M 2"
_symmetry_group_IT_number 115
_symmetry_cell_setting 'tetragonal'
loop_
_space_group_symop_operation_xyz
x,y,z
y,-x,-z
-x,-y,z
-y,x,-z
y,x,-z
-y,-x,-z
-x,y,z
x,-y,z
loop_
_atom_site_type_symbol
_atom_site_label
_atom_site_fract_x
_atom_site_fract_y
_atom_site_fract_z
Si Si1 0.696788 0.689256 0.702011
Si Si2 0.294914 0.000000 0.650003
Si Si3 0.301987 0.313339 0.041774
Si Si4 0.699176 0.809235 0.210739
Si Si5 0.000000 0.699918 0.441119
Si Si6 0.801453 0.813875 0.874315
Si Si7 0.698309 0.698309 0.500000
O O1 0.500000 0.677441 0.694803
O O2 0.765685 0.500000 0.697259
O O3 0.721652 0.744162 0.747987
O O4 0.761464 0.833152 0.672956
O O5 0.500000 0.000000 0.650820
O O6 0.238192 0.000000 0.604192
O O7 0.500000 0.321165 0.035158
O O8 0.234145 0.500000 0.046085
O O9 0.279053 0.231532 0.084553
O O10 0.236078 0.236078 0.000000
O O11 0.500000 0.812739 0.209339
O O12 0.752982 0.733879 0.168314
O O13 0.759964 0.000000 0.213737
O O14 0.169498 0.740766 0.465111
O O15 0.000000 0.500000 0.438648
O O16 0.000000 0.811730 0.869356
O O17 0.741882 0.000000 0.880718
O O18 0.719351 0.500000 0.509914
#
# Coordination Sequence:
#
# PCOD9557126 Si02
#       7
#     8   4   8   8   4   8   4
#     4   9  18  32  51  76 105 139 179 223 271 324
#     4   9  18  32  52  80 110 141 181 225 276 327
#     4   9  19  36  55  73  95 125 161 203 252 306
#     4   9  18  33  52  71  96 133 171 210 256 306
#     4   9  18  33  55  83 114 149 189 238 285 335
#     4  10  21  34  49  74 102 129 165 206 251 306
#     4   9  18  33  56  84 112 151 198 239 292 350
#
# _framework density 20.294765000000002
#
# number of rings (size 3 to 8) (size 9 to 14) (size 15 to 20)
#    0.000    2.818    0.000    1.091    1.273    3.818 
#    0.000    8.182    4.000    0.000    0.000    0.000 
#    0.000    0.000    0.000    0.000    0.000    0.000 
#
# Total GULP energy -244954.683840 kJ/mol
# GULP energy per Si atom -5567.151905 kJ/mol
# Density = 2.024857 g / cm^3
# Si number density = 20.294765 Si / 1000 Ang^3
#
#
#
# Elastic Constant Matrix: (Units=GPa)
#
#
# Indices 1 2 3 4 5 6 
#
# 1 45.0438 23.1644 52.4073 0.0000 0.0000 0.0000
# 2 23.1644 45.0438 52.4073 0.0000 0.0000 0.0000
# 3 52.4073 52.4073 194.6667 0.0000 0.0000 0.0000
# 4 0.0000 0.0000 0.0000 38.1424 0.0000 0.0000
# 5 0.0000 0.0000 0.0000 0.0000 38.1424 0.0000
# 6 0.0000 0.0000 0.0000 0.0000 0.0000 10.5188
#
#
#
# Elastic Compliance Matrix: (Units=1/GPa)
#
#
# Indices 1 2 3 4 5 6 
#
# 1 0.035356 -0.010350 -0.006732 0.000000 0.000000 0.000000
# 2 -0.010350 0.035356 -0.006732 0.000000 0.000000 0.000000
# 3 -0.006732 -0.006732 0.008762 0.000000 0.000000 0.000000
# 4 0.000000 0.000000 0.000000 0.026218 0.000000 0.000000
# 5 0.000000 0.000000 0.000000 0.000000 0.026218 0.000000
# 6 0.000000 0.000000 0.000000 0.000000 0.000000 0.095068
#
#
# Mechanical properties :
#
#
# Convention : Reuss Voigt Hill
#
# Bulk Modulus (GPa) = 31.40149 60.07912 45.74031
# Shear Modulus (GPa) = 17.53045 27.81241 22.67143
#
# Velocity S-wave (km/s) = 2.94222 3.70594 3.34594
# Velocity P-wave (km/s) = 5.20082 6.92672 6.12487
#
# Compressibility (1/GPa) = 0.03184562
#
# Stress axis : x y z
#
# Youngs Moduli (GPa) = 28.28409 28.28409 114.13327
#
# Poissons Ratio (x) = 0.29273 0.76834
# Poissons Ratio (y) = 0.29273 0.76834
# Poissons Ratio (z) = 0.19041 0.19041
#
# Static dielectric constant tensor:
#      x y z
#    x 1.738580 0.000000 0.000000 
#    y 0.000000 1.738580 0.000000 
#    z 0.000000 0.000000 1.753880 
# 
# From -- ./inp_files/5874.got.cif
#   From: 2010.05.17/outbox.cif.g08.bks.cpg/sg115_3_cif.got.tgz:5874.got - 2010.05.20 11:07:42.
