data_PCOD9557314
_publ_section_title
;
Structure prediction by ZEFSAII (Michael W. Deem and Ramdas Pophale) SiO2 
 PCOD9557314
Probable space group: P -4 M 2
;
_chemical_formula_sum "Si O2"
_cell_formula_units_Z 44
_cell_length_a 9.244637
_cell_length_b 9.244637
_cell_length_c 29.458916
_cell_angle_alpha 90.000000
_cell_angle_beta 90.000000
_cell_angle_gamma 90.000000
_cell_volume 2517.656566
_symmetry_space_group_name_H-M "P -4 M 2"
_symmetry_group_IT_number 115
_symmetry_cell_setting 'tetragonal'
loop_
_space_group_symop_operation_xyz
x,y,z
y,-x,-z
-x,-y,z
-y,x,-z
y,x,-z
-y,-x,-z
-x,y,z
x,-y,z
loop_
_atom_site_type_symbol
_atom_site_label
_atom_site_fract_x
_atom_site_fract_y
_atom_site_fract_z
Si Si1 0.167833 0.176611 0.049547
Si Si2 0.172142 0.328367 0.323312
Si Si3 0.328952 0.328952 0.500000
Si Si4 0.333090 0.176076 0.138947
Si Si5 0.828003 0.674334 0.759842
Si Si6 0.171272 0.327298 0.593538
O O1 0.249078 0.226821 0.094530
O O2 0.000000 0.216819 0.053139
O O3 0.173999 0.000000 0.048607
O O4 0.224419 0.224419 0.000000
O O5 0.199166 0.500000 0.325286
O O6 0.246145 0.260331 0.278922
O O7 0.241011 0.251671 0.367071
O O8 0.000000 0.304437 0.322111
O O9 0.307489 0.500000 0.490560
O O10 0.237638 0.290518 0.544434
O O11 0.500000 0.219414 0.135331
O O12 0.279532 0.217495 0.189147
O O13 0.329203 0.000000 0.138692
O O14 0.810099 0.500000 0.756842
O O15 0.000000 0.702856 0.754407
O O16 0.193470 0.500000 0.600447
O O17 0.000000 0.299605 0.594692
#
# Coordination Sequence:
#
# PCOD9557314 Si02
#       6
#     8   8   4   8   8   8
#     4   8  13  21  35  58  87 118 154 193 230 274
#     4  11  24  38  52  74 104 136 170 209 252 299
#     4   9  18  34  56  81 110 144 178 209 244 289
#     4   8  14  25  42  65  92 120 152 193 239 287
#     4   9  18  33  53  76  99 125 163 209 253 300
#     4  10  21  37  58  83 109 138 173 211 249 293
#
# _framework density 17.476568
#
# number of rings (size 3 to 8) (size 9 to 14) (size 15 to 20)
#    0.000    2.818    0.000    3.273    0.000    6.545 
#    0.000    3.636    0.000    1.091    0.000    2.545 
#    0.000    0.000    0.000    0.000    0.000    0.000 
#
# Total GULP energy -245262.190153 kJ/mol
# GULP energy per Si atom -5574.140685 kJ/mol
# Density = 1.743679 g / cm^3
# Si number density = 17.476568 Si / 1000 Ang^3
#
#
#
# Elastic Constant Matrix: (Units=GPa)
#
#
# Indices 1 2 3 4 5 6 
#
# 1 58.4453 50.1537 86.8830 0.0000 0.0000 0.0000
# 2 50.1537 58.4453 86.8830 0.0000 0.0000 0.0000
# 3 86.8830 86.8830 216.4196 0.0000 0.0000 0.0000
# 4 0.0000 0.0000 0.0000 39.6716 0.0000 0.0000
# 5 0.0000 0.0000 0.0000 0.0000 39.6716 0.0000
# 6 0.0000 0.0000 0.0000 0.0000 0.0000 20.3510
#
#
#
# Elastic Compliance Matrix: (Units=1/GPa)
#
#
# Indices 1 2 3 4 5 6 
#
# 1 0.073176 -0.047429 -0.010336 0.000000 0.000000 0.000000
# 2 -0.047429 0.073176 -0.010336 0.000000 0.000000 0.000000
# 3 -0.010336 -0.010336 0.012920 0.000000 0.000000 0.000000
# 4 0.000000 0.000000 0.000000 0.025207 0.000000 0.000000
# 5 0.000000 0.000000 0.000000 0.000000 0.025207 0.000000
# 6 0.000000 0.000000 0.000000 0.000000 0.000000 0.049138
#
#
# Mechanical properties :
#
#
# Convention : Reuss Voigt Hill
#
# Bulk Modulus (GPa) = 43.34902 86.79443 65.07172
# Shear Modulus (GPa) = 12.41575 27.23154 19.82365
#
# Velocity S-wave (km/s) = 2.66827 3.95165 3.37159
# Velocity P-wave (km/s) = 5.86095 8.40190 7.24371
#
# Compressibility (1/GPa) = 0.02306857
#
# Stress axis : x y z
#
# Youngs Moduli (GPa) = 13.66577 13.66577 77.40070
#
# Poissons Ratio (x) = 0.64815 0.80003
# Poissons Ratio (y) = 0.64815 0.80003
# Poissons Ratio (z) = 0.14125 0.14125
#
# Static dielectric constant tensor:
#      x y z
#    x 1.582750 0.000000 0.000000 
#    y 0.000000 1.582750 0.000000 
#    z 0.000000 0.000000 1.599620 
# 
# From -- ./inp_files/5694.got.cif
#   From: 2010.05.17/outbox.cif.g08.bks.cpg/sg115_3_cif.got.tgz:5694.got - 2010.05.20 11:07:42.
