data_PCOD9557181
_publ_section_title
;
Structure prediction by ZEFSAII (Michael W. Deem and Ramdas Pophale) SiO2 
 PCOD9557181
Probable space group: P -4 M 2
;
_chemical_formula_sum "Si O2"
_cell_formula_units_Z 31
_cell_length_a 7.496655
_cell_length_b 7.496655
_cell_length_c 29.806628
_cell_angle_alpha 90.000000
_cell_angle_beta 90.000000
_cell_angle_gamma 90.000000
_cell_volume 1675.127611
_symmetry_space_group_name_H-M "P -4 M 2"
_symmetry_group_IT_number 115
_symmetry_cell_setting 'tetragonal'
loop_
_space_group_symop_operation_xyz
x,y,z
y,-x,-z
-x,-y,z
-y,x,-z
y,x,-z
-y,-x,-z
-x,y,z
x,-y,z
loop_
_atom_site_type_symbol
_atom_site_label
_atom_site_fract_x
_atom_site_fract_y
_atom_site_fract_z
Si Si1 0.000000 0.287737 0.076761
Si Si2 0.284736 0.000000 0.621026
Si Si3 0.000000 0.712269 0.775002
Si Si4 0.000000 0.000000 0.698248
Si Si5 0.717035 0.296433 0.549345
Si Si6 0.709207 0.709209 0.150878
Si Si7 0.000000 0.000000 0.000000
O O1 0.169964 0.245491 0.108220
O O2 0.000000 0.170996 0.032405
O O3 0.000000 0.500000 0.067497
O O4 0.235409 0.830246 0.590218
O O5 0.500000 0.000000 0.628024
O O6 0.172705 0.000000 0.666265
O O7 0.830033 0.754513 0.806463
O O8 0.000000 0.500000 0.765747
O O9 0.000000 0.828912 0.730639
O O10 0.771715 0.228286 0.500000
O O11 0.500000 0.298797 0.547262
O O12 0.777496 0.500000 0.555539
O O13 0.500000 0.737467 0.140992
O O14 0.737467 0.500000 0.160767
#
# Coordination Sequence:
#
# PCOD9557181 Si02
#       7
#     4   4   4   2   8   8   1
#     4  10  21  35  53  79 110 145 182 218 258 304
#     4  10  22  37  51  72 104 139 169 200 246 303
#     4  10  21  37  57  80 104 130 167 218 267 310
#     4  12  26  37  49  76 108 139 173 200 242 318
#     4   8  15  31  55  78  98 125 166 213 254 291
#     4   9  18  35  60  84 102 128 173 226 273 308
#     4  12  24  34  48  76 116 160 190 204 244 312
#
# _framework density 18.506053000000001
#
# number of rings (size 3 to 8) (size 9 to 14) (size 15 to 20)
#    0.000    2.581    0.000    2.323    0.000    4.129 
#    0.000    1.290    0.000    0.000    0.000    0.000 
#    0.000    0.000    0.000    0.000    0.000    0.000 
#
# Total GULP energy -173078.721167 kJ/mol
# GULP energy per Si atom -5583.184554 kJ/mol
# Density = 1.846393 g / cm^3
# Si number density = 18.506053 Si / 1000 Ang^3
#
#
#
# Elastic Constant Matrix: (Units=GPa)
#
#
# Indices 1 2 3 4 5 6 
#
# 1 93.9345 49.4691 87.2953 0.0000 0.0000 0.0000
# 2 49.4691 93.9344 87.2954 0.0000 0.0000 0.0000
# 3 87.2953 87.2954 183.5574 0.0000 0.0000 0.0000
# 4 0.0000 0.0000 0.0000 -15.6059 0.0000 0.0000
# 5 0.0000 0.0000 0.0000 0.0000 -15.6059 0.0000
# 6 0.0000 0.0000 0.0000 0.0000 0.0000 14.3759
#
#
#
# Elastic Compliance Matrix: (Units=1/GPa)
#
#
# Indices 1 2 3 4 5 6 
#
# 1 0.019527 -0.002963 -0.007877 0.000000 0.000000 0.000000
# 2 -0.002963 0.019527 -0.007877 0.000000 0.000000 0.000000
# 3 -0.007877 -0.007877 0.012940 0.000000 0.000000 0.000000
# 4 0.000000 0.000000 0.000000 -0.064078 0.000000 0.000000
# 5 0.000000 0.000000 0.000000 0.000000 -0.064078 0.000000
# 6 0.000000 0.000000 0.000000 0.000000 0.000000 0.069561
#
#
# Mechanical properties :
#
#
# Convention : Reuss Voigt Hill
#
# Bulk Modulus (GPa) = 68.68746 91.06066 79.87406
# Shear Modulus (GPa) = 140.11295 6.45727 73.28511
#
# Velocity S-wave (km/s) = 8.71070 1.86999 6.29973
# Velocity P-wave (km/s) = 11.76287 7.34678 9.80664
#
# Compressibility (1/GPa) = 0.01455870
#
# Stress axis : x y z
#
# Youngs Moduli (GPa) = 51.21224 51.21211 77.27724
#
# Poissons Ratio (x) = 0.15173 0.60874
# Poissons Ratio (y) = 0.15173 0.60874
# Poissons Ratio (z) = 0.40342 0.40342
#
# Static dielectric constant tensor:
#      x y z
#    x 1.659400 0.000000 0.000000 
#    y 0.000000 1.659400 0.000000 
#    z 0.000000 0.000000 1.581130 
# 
# From -- ./inp_files/5050.got.cif
#   From: 2010.05.17/outbox.cif.g08.bks.cpg/sg115_3_cif.got.tgz:5050.got - 2010.05.20 11:07:42.
