data_PCOD9557003
_publ_section_title
;
Structure prediction by ZEFSAII (Michael W. Deem and Ramdas Pophale) SiO2 
 PCOD9557003
Probable space group: P -4 M 2
;
_chemical_formula_sum "Si O2"
_cell_formula_units_Z 48
_cell_length_a 8.229246
_cell_length_b 8.229246
_cell_length_c 34.542421
_cell_angle_alpha 90.000000
_cell_angle_beta 90.000000
_cell_angle_gamma 90.000000
_cell_volume 2339.229667
_symmetry_space_group_name_H-M "P -4 M 2"
_symmetry_group_IT_number 115
_symmetry_cell_setting 'tetragonal'
loop_
_space_group_symop_operation_xyz
x,y,z
y,-x,-z
-x,-y,z
-y,x,-z
y,x,-z
-y,-x,-z
-x,y,z
x,-y,z
loop_
_atom_site_type_symbol
_atom_site_label
_atom_site_fract_x
_atom_site_fract_y
_atom_site_fract_z
Si Si1 0.302909 0.819524 0.660153
Si Si2 0.306605 0.306605 0.000000
Si Si3 0.687202 0.691435 0.420225
Si Si4 0.807245 0.500000 0.706604
Si Si5 0.807764 0.689838 0.916451
Si Si6 0.812575 0.812575 0.500000
Si Si7 0.695052 0.500000 0.794434
Si Si8 0.693464 0.178203 0.837237
O O1 0.500000 0.813996 0.660103
O O2 0.248287 0.794662 0.615539
O O3 0.244815 0.664693 0.684438
O O4 0.253620 0.000000 0.673931
O O5 0.250565 0.228552 0.040161
O O6 0.278377 0.500000 0.003098
O O7 0.500000 0.709684 0.408140
O O8 0.720742 0.500000 0.425553
O O9 0.713211 0.771515 0.461663
O O10 0.730612 0.500000 0.749172
O O11 0.000000 0.500000 0.709966
O O12 0.753208 0.500000 0.914245
O O13 0.722639 0.788734 0.882561
O O14 0.000000 0.694127 0.909789
O O15 0.000000 0.786475 0.489624
O O16 0.500000 0.500000 0.800344
O O17 0.759977 0.335128 0.814416
O O18 0.500000 0.173852 0.830214
O O19 0.759997 0.000000 0.826514
#
# Coordination Sequence:
#
# PCOD9557003 Si02
#       8
#     8   4   8   4   8   4   4   8
#     4  10  21  41  69  95 123 164 214 263 311 373
#     4   9  18  32  52  77 110 156 206 251 293 342
#     4  10  20  37  62  88 115 152 205 261 312 366
#     4  12  26  42  64  96 134 168 202 252 320 388
#     4  10  20  34  54  81 116 156 197 244 302 363
#     4  11  24  37  50  78 122 165 204 251 308 372
#     4  10  22  42  66  90 122 158 204 258 302 366
#     4  10  21  38  63  91 116 151 199 250 304 363
#
# _framework density 20.519577000000002
#
# number of rings (size 3 to 8) (size 9 to 14) (size 15 to 20)
#    0.000    1.833    1.667    2.250    0.000    6.667 
#    0.000    3.333    0.000    0.000    0.000    0.000 
#    0.000    0.000    0.000    0.000    0.000    0.000 
#
# Total GULP energy -268045.239271 kJ/mol
# GULP energy per Si atom -5584.275818 kJ/mol
# Density = 2.047287 g / cm^3
# Si number density = 20.519577 Si / 1000 Ang^3
#
#
#
# Elastic Constant Matrix: (Units=GPa)
#
#
# Indices 1 2 3 4 5 6 
#
# 1 79.1091 -2.2171 20.8630 0.0000 0.0000 0.0000
# 2 -2.2171 79.1091 20.8630 0.0000 0.0000 0.0000
# 3 20.8630 20.8630 91.1099 0.0000 0.0000 0.0000
# 4 0.0000 0.0000 0.0000 -15.8737 0.0000 0.0000
# 5 0.0000 0.0000 0.0000 0.0000 -15.8737 0.0000
# 6 0.0000 0.0000 0.0000 0.0000 0.0000 14.3419
#
#
#
# Elastic Compliance Matrix: (Units=1/GPa)
#
#
# Indices 1 2 3 4 5 6 
#
# 1 0.013573 0.001277 -0.003401 0.000000 0.000000 0.000000
# 2 0.001277 0.013573 -0.003401 0.000000 0.000000 0.000000
# 3 -0.003401 -0.003401 0.012533 0.000000 0.000000 0.000000
# 4 0.000000 0.000000 0.000000 -0.062997 0.000000 0.000000
# 5 0.000000 0.000000 0.000000 0.000000 -0.062997 0.000000
# 6 0.000000 0.000000 0.000000 0.000000 0.000000 0.069726
#
#
# Mechanical properties :
#
#
# Convention : Reuss Voigt Hill
#
# Bulk Modulus (GPa) = 34.92600 36.48288 35.70444
# Shear Modulus (GPa) = 1249.14747 10.50686 629.82717
#
# Velocity S-wave (km/s) = 24.69981 2.26529 17.53870
# Velocity P-wave (km/s) = 28.81837 4.96590 20.67799
#
# Compressibility (1/GPa) = 0.02863197
#
# Stress axis : x y z
#
# Youngs Moduli (GPa) = 73.67361 73.67361 79.78845
#
# Poissons Ratio (x) = -0.09410 0.27133
# Poissons Ratio (y) = -0.09410 0.27133
# Poissons Ratio (z) = 0.25053 0.25053
#
# Static dielectric constant tensor:
#      x y z
#    x 1.742240 0.000000 0.000000 
#    y 0.000000 1.742240 0.000000 
#    z 0.000000 0.000000 1.606710 
# 
# From -- ./inp_files/6295.got.cif
#   From: 2010.05.17/outbox.cif.g08.bks.cpg/sg115_4_cif.got.tgz:6295.got - 2010.05.20 11:07:42.
