data_PCOD9557007
_publ_section_title
;
Structure prediction by ZEFSAII (Michael W. Deem and Ramdas Pophale) SiO2 
 PCOD9557007
Probable space group: P -4 M 2
;
_chemical_formula_sum "Si O2"
_cell_formula_units_Z 40
_cell_length_a 9.295337
_cell_length_b 9.295337
_cell_length_c 26.359804
_cell_angle_alpha 90.000000
_cell_angle_beta 90.000000
_cell_angle_gamma 90.000000
_cell_volume 2277.573788
_symmetry_space_group_name_H-M "P -4 M 2"
_symmetry_group_IT_number 115
_symmetry_cell_setting 'tetragonal'
loop_
_space_group_symop_operation_xyz
x,y,z
y,-x,-z
-x,-y,z
-y,x,-z
y,x,-z
-y,-x,-z
-x,y,z
x,-y,z
loop_
_atom_site_type_symbol
_atom_site_label
_atom_site_fract_x
_atom_site_fract_y
_atom_site_fract_z
Si Si1 0.169730 0.172819 0.240719
Si Si2 0.326750 0.831636 0.454870
Si Si3 0.334280 0.174936 0.341999
Si Si4 0.670463 0.670988 0.148698
Si Si5 0.829608 0.829622 0.059213
O O1 0.235557 0.217433 0.295022
O O2 0.251636 0.252574 0.195738
O O3 0.000000 0.201749 0.238538
O O4 0.190005 0.000000 0.235458
O O5 0.256395 0.743606 0.500000
O O6 0.500000 0.823011 0.457069
O O7 0.285184 0.779431 0.398205
O O8 0.287014 0.000000 0.459586
O O9 0.500000 0.220815 0.333828
O O10 0.335638 0.000000 0.343574
O O11 0.500000 0.698392 0.150916
O O12 0.694282 0.500000 0.150439
O O13 0.736653 0.736724 0.097485
O O14 0.000000 0.804259 0.067805
O O15 0.804211 0.000000 0.067777
O O16 0.799394 0.799394 0.000000
#
# Coordination Sequence:
#
# PCOD9557007 Si02
#       5
#     8   8   8   8   8
#     4  10  20  34  55  81 104 129 168 216 262 310
#     4   9  18  32  50  74 103 134 170 210 252 303
#     4   8  15  30  51  73  99 132 169 210 255 303
#     4  11  24  38  52  75 108 143 177 212 252 302
#     4   9  19  37  60  84 108 135 171 214 257 303
#
# _framework density 17.562550000000002
#
# number of rings (size 3 to 8) (size 9 to 14) (size 15 to 20)
#    0.000    2.600    0.000    3.600    0.000    7.600 
#    0.000    6.000    0.000    1.200    0.000    0.000 
#    0.000    0.000    0.000    0.000    0.000    0.000 
#
# Total GULP energy -223149.991649 kJ/mol
# GULP energy per Si atom -5578.749791 kJ/mol
# Density = 1.752258 g / cm^3
# Si number density = 17.562550 Si / 1000 Ang^3
#
#
#
# Elastic Constant Matrix: (Units=GPa)
#
#
# Indices 1 2 3 4 5 6 
#
# 1 71.9166 66.0482 90.0355 0.0000 0.0000 0.0000
# 2 66.0482 71.9186 90.0363 0.0000 0.0000 0.0000
# 3 90.0355 90.0363 167.6075 0.0000 0.0000 0.0000
# 4 0.0000 0.0000 0.0000 157.2074 0.0000 0.0000
# 5 0.0000 0.0000 0.0000 0.0000 157.1897 0.0000
# 6 0.0000 0.0000 0.0000 0.0000 0.0000 27.7652
#
#
#
# Elastic Compliance Matrix: (Units=1/GPa)
#
#
# Indices 1 2 3 4 5 6 
#
# 1 0.097315 -0.073061 -0.013029 0.000000 0.000000 0.000000
# 2 -0.073061 0.097311 -0.013027 0.000000 0.000000 0.000000
# 3 -0.013029 -0.013027 0.019963 0.000000 0.000000 0.000000
# 4 0.000000 0.000000 0.000000 0.006361 0.000000 0.000000
# 5 0.000000 0.000000 0.000000 0.000000 0.006362 0.000000
# 6 0.000000 0.000000 0.000000 0.000000 0.000000 0.036016
#
#
# Mechanical properties :
#
#
# Convention : Reuss Voigt Hill
#
# Bulk Modulus (GPa) = 61.14074 89.29807 75.21941
# Shear Modulus (GPa) = 10.70635 72.78732 41.74683
#
# Velocity S-wave (km/s) = 2.47171 6.44473 4.88078
# Velocity P-wave (km/s) = 6.56007 10.31191 8.64205
#
# Compressibility (1/GPa) = 0.01635571
#
# Stress axis : x y z
#
# Youngs Moduli (GPa) = 10.27586 10.27638 50.09341
#
# Poissons Ratio (x) = 0.75081 0.65264
# Poissons Ratio (y) = 0.75077 0.65255
# Poissons Ratio (z) = 0.13388 0.13387
#
# Static dielectric constant tensor:
#      x y z
#    x 1.576150 0.000000 0.000000 
#    y 0.000000 1.576150 0.000000 
#    z 0.000000 0.000000 1.592830 
# 
# From -- ./inp_files/5136.got.cif
#   From: 2010.05.17/outbox.cif.g08.bks.cpg/sg115_3_cif.got.tgz:5136.got - 2010.05.20 11:07:42.
