data_PCOD9557397
_publ_section_title
;
Structure prediction by ZEFSAII (Michael W. Deem and Ramdas Pophale) SiO2 
 PCOD9557397
Probable space group: P -4 M 2
;
_chemical_formula_sum "Si O2"
_cell_formula_units_Z 33
_cell_length_a 12.203031
_cell_length_b 12.203031
_cell_length_c 11.320066
_cell_angle_alpha 90.000000
_cell_angle_beta 90.000000
_cell_angle_gamma 90.000000
_cell_volume 1685.715919
_symmetry_space_group_name_H-M "P -4 M 2"
_symmetry_group_IT_number 115
_symmetry_cell_setting 'tetragonal'
loop_
_space_group_symop_operation_xyz
x,y,z
y,-x,-z
-x,-y,z
-y,x,-z
y,x,-z
-y,-x,-z
-x,y,z
x,-y,z
loop_
_atom_site_type_symbol
_atom_site_label
_atom_site_fract_x
_atom_site_fract_y
_atom_site_fract_z
Si Si1 0.371142 0.779529 0.576462
Si Si2 0.625403 0.127597 0.032232
Si Si3 0.000000 0.838421 0.716817
Si Si4 0.229857 0.802607 0.813248
Si Si5 0.000000 0.000000 0.500000
Si Si6 0.623792 0.000000 0.421922
O O1 0.317523 0.682478 0.500000
O O2 0.500000 0.761991 0.600860
O O3 0.300201 0.793308 0.694800
O O4 0.361130 0.891869 0.501580
O O5 0.500000 0.161190 0.011555
O O6 0.698103 0.140547 0.914219
O O7 0.626873 0.000000 0.064310
O O8 0.684280 0.198281 0.132938
O O9 0.113000 0.860366 0.785687
O O10 0.000000 0.711689 0.680636
O O11 0.000000 0.899387 0.590679
O O12 0.500000 0.000000 0.375542
#
# Coordination Sequence:
#
# PCOD9557397 Si02
#       6
#     8   8   4   8   1   4
#     4  11  23  40  64  95 131 169 215 266 323 385
#     4  10  23  43  66  91 122 166 219 267 314 375
#     4  12  22  40  62  95 128 174 204 255 315 394
#     4  11  23  40  64  95 128 163 213 263 322 379
#     4  12  28  36  56  90 152 176 192 232 330 420
#     4  10  22  40  63  90 125 167 214 260 304 374
#
# _framework density 19.576252
#
# number of rings (size 3 to 8) (size 9 to 14) (size 15 to 20)
#    0.000    1.212    3.636    2.182    3.394    2.182 
#    0.000    0.000    0.000   11.636    0.000    0.000 
#    0.000    0.000    0.000    0.000    0.000    0.000 
#
# Total GULP energy -184454.875699 kJ/mol
# GULP energy per Si atom -5589.541688 kJ/mol
# Density = 1.953170 g / cm^3
# Si number density = 19.576252 Si / 1000 Ang^3
#
#
#
# Elastic Constant Matrix: (Units=GPa)
#
#
# Indices 1 2 3 4 5 6 
#
# 1 122.7393 44.0729 33.6535 0.0000 0.0000 0.0000
# 2 44.0729 122.7404 33.6522 0.0000 0.0000 0.0000
# 3 33.6535 33.6522 60.2607 0.0000 0.0000 0.0000
# 4 0.0000 0.0000 0.0000 16.6313 0.0000 0.0000
# 5 0.0000 0.0000 0.0000 0.0000 16.6303 0.0000
# 6 0.0000 0.0000 0.0000 0.0000 0.0000 25.9779
#
#
#
# Elastic Compliance Matrix: (Units=1/GPa)
#
#
# Indices 1 2 3 4 5 6 
#
# 1 0.010225 -0.002487 -0.004322 0.000000 0.000000 0.000000
# 2 -0.002487 0.010225 -0.004321 0.000000 0.000000 0.000000
# 3 -0.004322 -0.004321 0.021421 0.000000 0.000000 0.000000
# 4 0.000000 0.000000 0.000000 0.060128 0.000000 0.000000
# 5 0.000000 0.000000 0.000000 0.000000 0.060131 0.000000
# 6 0.000000 0.000000 0.000000 0.000000 0.000000 0.038494
#
#
# Mechanical properties :
#
#
# Convention : Reuss Voigt Hill
#
# Bulk Modulus (GPa) = 50.98928 58.72193 54.85561
# Shear Modulus (GPa) = 21.79395 24.80536 23.29966
#
# Velocity S-wave (km/s) = 3.34021 3.56352 3.45367
# Velocity P-wave (km/s) = 6.40149 6.85516 6.63220
#
# Compressibility (1/GPa) = 0.01961196
#
# Stress axis : x y z
#
# Youngs Moduli (GPa) = 97.79721 97.79967 46.68246
#
# Poissons Ratio (x) = 0.24320 0.20175
# Poissons Ratio (y) = 0.24319 0.20173
# Poissons Ratio (z) = 0.42266 0.42262
#
# Static dielectric constant tensor:
#      x y z
#    x 1.690750 0.000000 0.000000 
#    y 0.000000 1.690750 0.000000 
#    z 0.000000 0.000000 1.665470 
# 
# From -- ./inp_files/2601.got.cif
#   From: 2010.05.17/outbox.cif.g08.bks.cpg/sg115_2_cif.got.tgz:2601.got - 2010.05.20 11:07:42.
