data_PCOD9557694
_publ_section_title
;
Structure prediction by ZEFSAII (Michael W. Deem and Ramdas Pophale) SiO2 
 PCOD9557694
Probable space group: P -4 C 2
;
_chemical_formula_sum "Si O2"
_cell_formula_units_Z 38
_cell_length_a 7.599684
_cell_length_b 7.599684
_cell_length_c 27.959398
_cell_angle_alpha 90.000000
_cell_angle_beta 90.000000
_cell_angle_gamma 90.000000
_cell_volume 1614.800537
_symmetry_space_group_name_H-M "P -4 C 2"
_symmetry_group_IT_number 116
_symmetry_cell_setting 'tetragonal'
loop_
_space_group_symop_operation_xyz
x,y,z
y,-x,-z
-x,-y,z
-y,x,-z
y,x,1/2-z
-y,-x,1/2-z
-x,y,1/2+z
x,-y,1/2+z
loop_
_atom_site_type_symbol
_atom_site_label
_atom_site_fract_x
_atom_site_fract_y
_atom_site_fract_z
Si Si1 0.649941 0.758191 0.885067
Si Si2 0.064490 0.794753 0.208190
Si Si3 0.000000 0.000000 0.000000
Si Si4 0.293165 0.992096 0.069382
Si Si5 0.712879 0.355262 0.859257
Si Si6 0.292995 0.707006 0.750000
O O1 0.716061 0.868941 0.840187
O O2 0.687988 0.551698 0.877323
O O3 0.438536 0.765155 0.883674
O O4 0.794215 0.786699 0.926033
O O5 0.208401 0.791600 0.250000
O O6 0.906257 0.688606 0.231630
O O7 0.000000 0.000000 0.201855
O O8 0.841914 0.922898 0.032524
O O9 0.290041 0.098581 0.120462
O O10 0.500000 0.000000 0.054807
O O11 0.686973 0.379524 0.802005
#
# Coordination Sequence:
#
# PCOD9557694 Si02
#       6
#     8   8   2   8   8   4
#     4  10  22  40  66  87 134 184 214 282 327 390
#     4   9  19  34  52  80 123 175 223 267 311 360
#     4  12  28  44  84  98 128 168 220 280 364 438
#     4  10  24  48  69 101 137 167 216 288 345 410
#     4  10  23  41  62  97 136 176 229 272 327 391
#     4  10  21  35  52  94 132 176 232 260 304 380
#
# _framework density 23.532318
#
# number of rings (size 3 to 8) (size 9 to 14) (size 15 to 20)
#    0.000    2.316    0.000    2.526    7.368    3.368 
#    3.789    0.000    0.000    0.000    0.000    0.000 
#    0.000    0.000    0.000    0.000    0.000    0.000 
#
# Total GULP energy -211644.899602 kJ/mol
# GULP energy per Si atom -5569.602621 kJ/mol
# Density = 2.347876 g / cm^3
# Si number density = 23.532318 Si / 1000 Ang^3
#
#
#
# Elastic Constant Matrix: (Units=GPa)
#
#
# Indices 1 2 3 4 5 6 
#
# 1 56.0299 39.2815 19.1255 0.0000 0.0000 0.0000
# 2 39.2815 56.0306 19.1255 0.0000 0.0000 0.0000
# 3 19.1255 19.1255 71.0241 0.0000 0.0000 0.0000
# 4 0.0000 0.0000 0.0000 16.8895 0.0000 0.0000
# 5 0.0000 0.0000 0.0000 0.0000 16.8895 0.0000
# 6 0.0000 0.0000 0.0000 0.0000 0.0000 24.6099
#
#
#
# Elastic Compliance Matrix: (Units=1/GPa)
#
#
# Indices 1 2 3 4 5 6 
#
# 1 0.035735 -0.023971 -0.003168 0.000000 0.000000 0.000000
# 2 -0.023971 0.035734 -0.003168 0.000000 0.000000 0.000000
# 3 -0.003168 -0.003168 0.015786 0.000000 0.000000 0.000000
# 4 0.000000 0.000000 0.000000 0.059208 0.000000 0.000000
# 5 0.000000 0.000000 0.000000 0.000000 0.059208 0.000000
# 6 0.000000 0.000000 0.000000 0.000000 0.000000 0.040634
#
#
# Mechanical properties :
#
#
# Convention : Reuss Voigt Hill
#
# Bulk Modulus (GPa) = 37.53535 37.57216 37.55375
# Shear Modulus (GPa) = 15.83287 18.71460 17.27373
#
# Velocity S-wave (km/s) = 2.59668 2.82312 2.71226
# Velocity P-wave (km/s) = 4.99755 5.16018 5.07952
#
# Compressibility (1/GPa) = 0.02664156
#
# Stress axis : x y z
#
# Youngs Moduli (GPa) = 27.98400 27.98441 63.34856
#
# Poissons Ratio (x) = 0.67082 0.20067
# Poissons Ratio (y) = 0.67081 0.20066
# Poissons Ratio (z) = 0.08864 0.08864
#
# Static dielectric constant tensor:
#      x y z
#    x 2.007290 0.000000 0.000000 
#    y 0.000000 2.007160 0.000000 
#    z 0.000000 0.000000 2.158690 
# 
# From -- ./inp_files/4479.got.cif
#   From: 2010.05.17/outbox.cif.g08.bks.cpg/sg116_3_cif.got.tgz:4479.got - 2010.05.20 11:11:43.
