data_PCOD9557956
_publ_section_title
;
Structure prediction by ZEFSAII (Michael W. Deem and Ramdas Pophale) SiO2 
 PCOD9557956
Probable space group: P -4 C 2
;
_chemical_formula_sum "Si O2"
_cell_formula_units_Z 40
_cell_length_a 14.650299
_cell_length_b 14.650299
_cell_length_c 8.949514
_cell_angle_alpha 90.000000
_cell_angle_beta 90.000000
_cell_angle_gamma 90.000000
_cell_volume 1920.845473
_symmetry_space_group_name_H-M "P -4 C 2"
_symmetry_group_IT_number 116
_symmetry_cell_setting 'tetragonal'
loop_
_space_group_symop_operation_xyz
x,y,z
y,-x,-z
-x,-y,z
-y,x,-z
y,x,1/2-z
-y,-x,1/2-z
-x,y,1/2+z
x,-y,1/2+z
loop_
_atom_site_type_symbol
_atom_site_label
_atom_site_fract_x
_atom_site_fract_y
_atom_site_fract_z
Si Si1 0.650178 0.246419 0.377733
Si Si2 0.434396 0.614066 0.579127
Si Si3 0.830974 0.196247 0.915304
Si Si4 0.592203 0.061908 0.257162
Si Si5 0.726711 0.978760 0.502484
O O1 0.683264 0.316737 0.250000
O O2 0.602078 0.290869 0.521029
O O3 0.742282 0.207130 0.450282
O O4 0.585099 0.166301 0.314090
O O5 0.539911 0.608832 0.534476
O O6 0.412045 0.587956 0.750000
O O7 0.788526 0.211475 0.750000
O O8 0.937306 0.223093 0.915068
O O9 0.802728 0.093673 0.955357
O O10 0.647252 0.065631 0.103024
O O11 0.500000 0.000000 0.250369
O O12 0.666522 0.016134 0.366161
#
# Coordination Sequence:
#
# PCOD9557956 Si02
#       5
#     8   8   8   8   8
#     4  11  23  42  69 101 137 186 231 286 353 417
#     4  11  23  44  68  98 138 181 235 295 351 417
#     4  11  23  43  67  94 135 176 226 286 349 416
#     4  11  24  44  67 100 139 183 227 286 346 417
#     4  11  23  43  68  97 136 178 229 286 348 416
#
# _framework density 20.824165000000001
#
# number of rings (size 3 to 8) (size 9 to 14) (size 15 to 20)
#    0.000    1.000    4.000    3.600    0.000    2.000 
#   18.000    1.000    0.000    0.000    0.000    0.000 
#    0.000    0.000    0.000    0.000    0.000    0.000 
#
# Total GULP energy -223057.788101 kJ/mol
# GULP energy per Si atom -5576.444703 kJ/mol
# Density = 2.077677 g / cm^3
# Si number density = 20.824165 Si / 1000 Ang^3
#
#
#
# Elastic Constant Matrix: (Units=GPa)
#
#
# Indices 1 2 3 4 5 6 
#
# 1 100.4419 6.9190 16.4801 0.0000 0.0000 0.0000
# 2 6.9190 100.4412 16.4793 0.0000 0.0000 0.0000
# 3 16.4801 16.4793 107.8951 0.0000 0.0000 0.0000
# 4 0.0000 0.0000 0.0000 26.4098 0.0000 0.0000
# 5 0.0000 0.0000 0.0000 0.0000 26.4105 0.0000
# 6 0.0000 0.0000 0.0000 0.0000 0.0000 34.9174
#
#
#
# Elastic Compliance Matrix: (Units=1/GPa)
#
#
# Indices 1 2 3 4 5 6 
#
# 1 0.010233 -0.000460 -0.001493 0.000000 0.000000 0.000000
# 2 -0.000460 0.010233 -0.001493 0.000000 0.000000 0.000000
# 3 -0.001493 -0.001493 0.009724 0.000000 0.000000 0.000000
# 4 0.000000 0.000000 0.000000 0.037865 0.000000 0.000000
# 5 0.000000 0.000000 0.000000 0.000000 0.037864 0.000000
# 6 0.000000 0.000000 0.000000 0.000000 0.000000 0.028639
#
#
# Mechanical properties :
#
#
# Convention : Reuss Voigt Hill
#
# Bulk Modulus (GPa) = 42.92048 43.17056 43.04552
# Shear Modulus (GPa) = 33.50895 35.47419 34.49157
#
# Velocity S-wave (km/s) = 4.01576 4.13184 4.07421
# Velocity P-wave (km/s) = 6.49287 6.59839 6.54585
#
# Compressibility (1/GPa) = 0.02329890
#
# Stress axis : x y z
#
# Youngs Moduli (GPa) = 97.72683 97.72638 102.83585
#
# Poissons Ratio (x) = 0.04495 0.15350
# Poissons Ratio (y) = 0.04495 0.15349
# Poissons Ratio (z) = 0.14588 0.14587
#
# Static dielectric constant tensor:
#      x y z
#    x 1.789350 0.000000 0.000000 
#    y 0.000000 1.789350 0.000000 
#    z 0.000000 0.000000 1.772720 
# 
# From -- ./inp_files/803.got.cif
#   From: 2010.05.17/outbox.cif.g08.bks.cpg/sg116_1_cif.got.tgz:803.got - 2010.05.20 11:11:43.
