data_PCOD9557685
_publ_section_title
;
Structure prediction by ZEFSAII (Michael W. Deem and Ramdas Pophale) SiO2 
 PCOD9557685
Probable space group: P -4 C 2
;
_chemical_formula_sum "Si O2"
_cell_formula_units_Z 32
_cell_length_a 11.372727
_cell_length_b 11.372727
_cell_length_c 12.308584
_cell_angle_alpha 90.000000
_cell_angle_beta 90.000000
_cell_angle_gamma 90.000000
_cell_volume 1591.978954
_symmetry_space_group_name_H-M "P -4 C 2"
_symmetry_group_IT_number 116
_symmetry_cell_setting 'tetragonal'
loop_
_space_group_symop_operation_xyz
x,y,z
y,-x,-z
-x,-y,z
-y,x,-z
y,x,1/2-z
-y,-x,1/2-z
-x,y,1/2+z
x,-y,1/2+z
loop_
_atom_site_type_symbol
_atom_site_label
_atom_site_fract_x
_atom_site_fract_y
_atom_site_fract_z
Si Si1 0.000000 0.000000 0.250000
Si Si2 0.127941 0.235043 0.137397
Si Si3 0.295429 0.551467 0.667431
Si Si4 0.870767 0.166684 0.095701
Si Si5 0.500000 0.500000 0.500000
Si Si6 0.706447 0.706447 0.750000
O O1 0.094903 0.954073 0.157785
O O2 0.169743 0.169743 0.250000
O O3 0.189101 0.362558 0.135171
O O4 0.986744 0.242549 0.126171
O O5 0.161355 0.158734 0.031128
O O6 0.372449 0.627551 0.750000
O O7 0.382784 0.518155 0.570129
O O8 0.267402 0.429576 0.726939
O O9 0.755464 0.220527 0.149274
#
# Coordination Sequence:
#
# PCOD9557685 Si02
#       6
#     2   8   8   8   2   4
#     4  10  20  42  68 100 138 180 238 266 336 466
#     4  11  25  43  68 106 143 185 237 303 364 437
#     4  11  23  42  68  99 135 183 247 298 359 439
#     4  11  23  42  72 102 140 189 233 292 369 433
#     4  12  18  40  72  98 124 188 238 296 356 450
#     4  11  23  43  69 102 132 190 241 303 361 435
#
# _framework density 20.100767999999999
#
# number of rings (size 3 to 8) (size 9 to 14) (size 15 to 20)
#    0.000    1.000    3.750    3.000    3.500    1.000 
#    0.000    0.000    0.000    0.000    0.000    0.000 
#    0.000    0.000    0.000    0.000    0.000    0.000 
#
# Total GULP energy -178236.609401 kJ/mol
# GULP energy per Si atom -5569.894044 kJ/mol
# Density = 2.005502 g / cm^3
# Si number density = 20.100768 Si / 1000 Ang^3
#
#
#
# Elastic Constant Matrix: (Units=GPa)
#
#
# Indices 1 2 3 4 5 6 
#
# 1 42.6146 181.9668 64.3548 0.0000 0.0000 0.0000
# 2 181.9668 42.6118 64.3679 0.0000 0.0000 0.0000
# 3 64.3548 64.3679 155.4260 0.0000 0.0000 0.0000
# 4 0.0000 0.0000 0.0000 31.3960 0.0000 0.0000
# 5 0.0000 0.0000 0.0000 0.0000 31.3964 0.0000
# 6 0.0000 0.0000 0.0000 0.0000 0.0000 36.3966
#
#
#
# Elastic Compliance Matrix: (Units=1/GPa)
#
#
# Indices 1 2 3 4 5 6 
#
# 1 -0.000668 0.006507 -0.002418 0.000000 0.000000 0.000000
# 2 0.006507 -0.000669 -0.002417 0.000000 0.000000 0.000000
# 3 -0.002418 -0.002417 0.008436 0.000000 0.000000 0.000000
# 4 0.000000 0.000000 0.000000 0.031851 0.000000 0.000000
# 5 0.000000 0.000000 0.000000 0.000000 0.031851 0.000000
# 6 0.000000 0.000000 0.000000 0.000000 0.000000 0.027475
#
#
# Mechanical properties :
#
#
# Convention : Reuss Voigt Hill
#
# Bulk Modulus (GPa) = 95.76288 95.78124 95.77206
# Shear Modulus (GPa) = 50.80628 15.16866 32.98747
#
# Velocity S-wave (km/s) = 5.03296 2.75003 4.05545
# Velocity P-wave (km/s) = 9.02879 7.60510 8.34735
#
# Compressibility (1/GPa) = 0.01044246
#
# Stress axis : x y z
#
# Youngs Moduli (GPa) = -1495.99659 -1494.71781 118.53596
#
# Poissons Ratio (x) = 9.72651 0.28664
# Poissons Ratio (y) = 9.73483 0.28654
# Poissons Ratio (z) = -3.61751 -3.61316
#
# Static dielectric constant tensor:
#      x y z
#    x 1.841290 0.000000 0.000000 
#    y 0.000000 1.841290 0.000000 
#    z 0.000000 0.000000 1.770000 
# 
# From -- ./inp_files/1663.got.cif
#   From: 2010.05.17/outbox.cif.g08.bks.cpg/sg116_1_cif.got.tgz:1663.got - 2010.05.20 11:11:43.
