data_PCOD9557025
_publ_section_title
;
Structure prediction by ZEFSAII (Michael W. Deem and Ramdas Pophale) SiO2 
 PCOD9557025
Probable space group: P -4 M 2
;
_chemical_formula_sum "Si O2"
_cell_formula_units_Z 25
_cell_length_a 8.035842
_cell_length_b 8.035842
_cell_length_c 18.398992
_cell_angle_alpha 90.000000
_cell_angle_beta 90.000000
_cell_angle_gamma 90.000000
_cell_volume 1188.110431
_symmetry_space_group_name_H-M "P -4 M 2"
_symmetry_group_IT_number 115
_symmetry_cell_setting 'tetragonal'
loop_
_space_group_symop_operation_xyz
x,y,z
y,-x,-z
-x,-y,z
-y,x,-z
y,x,-z
-y,-x,-z
-x,y,z
x,-y,z
loop_
_atom_site_type_symbol
_atom_site_label
_atom_site_fract_x
_atom_site_fract_y
_atom_site_fract_z
Si Si1 0.801801 0.198200 0.500000
Si Si2 0.305658 0.801892 0.657655
Si Si3 0.814582 0.304946 0.808257
Si Si4 0.500000 0.500000 0.000000
Si Si5 0.184243 0.500000 0.105147
O O1 0.727539 0.259587 0.575935
O O2 0.000000 0.227245 0.503820
O O3 0.500000 0.780753 0.674125
O O4 0.203755 0.716733 0.721556
O O5 0.266818 0.000000 0.658777
O O6 0.795078 0.500000 0.826227
O O7 0.664712 0.206590 0.845661
O O8 0.000000 0.250759 0.830388
O O9 0.333793 0.500000 0.048160
O O10 0.000000 0.500000 0.072135
#
# Coordination Sequence:
#
# PCOD9557025 Si02
#       5
#     4   8   8   1   4
#     4   9  18  32  48  73 118 172 226 285 341 398
#     4  10  20  34  55  85 123 170 227 286 342 398
#     4  11  23  41  68 101 138 181 230 282 335 397
#     4  12  28  52  76 112 152 178 212 272 320 412
#     4  12  26  48  78 108 143 183 220 271 332 394
#
# _framework density 21.041816000000001
#
# number of rings (size 3 to 8) (size 9 to 14) (size 15 to 20)
#    0.000    1.440    3.200    1.920    0.000    6.400 
#    0.000    3.200    0.000    0.000    0.000    0.000 
#    0.000    0.000    0.000    0.000    0.000    0.000 
#
# Total GULP energy -139762.707642 kJ/mol
# GULP energy per Si atom -5590.508306 kJ/mol
# Density = 2.099392 g / cm^3
# Si number density = 21.041816 Si / 1000 Ang^3
#
#
#
# Elastic Constant Matrix: (Units=GPa)
#
#
# Indices 1 2 3 4 5 6 
#
# 1 51.5549 83.6520 32.9538 0.0000 0.0000 0.0000
# 2 83.6520 51.5538 32.9539 0.0000 0.0000 0.0000
# 3 32.9538 32.9539 83.0985 0.0000 0.0000 0.0000
# 4 0.0000 0.0000 0.0000 -84.6954 0.0000 0.0000
# 5 0.0000 0.0000 0.0000 0.0000 -84.7152 0.0000
# 6 0.0000 0.0000 0.0000 0.0000 0.0000 9.1946
#
#
#
# Elastic Compliance Matrix: (Units=1/GPa)
#
#
# Indices 1 2 3 4 5 6 
#
# 1 -0.010993 0.020162 -0.003636 0.000000 0.000000 0.000000
# 2 0.020162 -0.010993 -0.003636 0.000000 0.000000 0.000000
# 3 -0.003636 -0.003636 0.014918 0.000000 0.000000 0.000000
# 4 0.000000 0.000000 0.000000 -0.011807 0.000000 0.000000
# 5 0.000000 0.000000 0.000000 0.000000 -0.011804 0.000000
# 6 0.000000 0.000000 0.000000 0.000000 0.000000 0.108759
#
#
# Mechanical properties :
#
#
# Convention : Reuss Voigt Hill
#
# Bulk Modulus (GPa) = 53.44445 53.92519 53.68482
# Shear Modulus (GPa) = 85.41724 -29.60003 27.90861
#
# Velocity S-wave (km/s) = 6.37826 -3.75470 3.64585
# Velocity P-wave (km/s) = 8.92733 2.62416 6.57964
#
# Compressibility (1/GPa) = 0.01871102
#
# Stress axis : x y z
#
# Youngs Moduli (GPa) = -90.96643 -90.96357 67.03484
#
# Poissons Ratio (x) = 1.83398 0.24374
# Poissons Ratio (y) = 1.83404 0.24372
# Poissons Ratio (z) = -0.33075 -0.33072
#
# Static dielectric constant tensor:
#      x y z
#    x 1.756310 0.000000 0.000000 
#    y 0.000000 1.756310 0.000000 
#    z 0.000000 0.000000 1.764350 
# 
# From -- ./inp_files/3987.got.cif
#   From: 2010.05.17/outbox.cif.g08.bks.cpg/sg115_2_cif.got.tgz:3987.got - 2010.05.20 11:07:42.
