data_PCOD9557731
_publ_section_title
;
Structure prediction by ZEFSAII (Michael W. Deem and Ramdas Pophale) SiO2 
 PCOD9557731
Probable space group: P -4 C 2
;
_chemical_formula_sum "Si O2"
_cell_formula_units_Z 40
_cell_length_a 11.977990
_cell_length_b 11.977990
_cell_length_c 14.158280
_cell_angle_alpha 90.000000
_cell_angle_beta 90.000000
_cell_angle_gamma 90.000000
_cell_volume 2031.320209
_symmetry_space_group_name_H-M "P -4 C 2"
_symmetry_group_IT_number 116
_symmetry_cell_setting 'tetragonal'
loop_
_space_group_symop_operation_xyz
x,y,z
y,-x,-z
-x,-y,z
-y,x,-z
y,x,1/2-z
-y,-x,1/2-z
-x,y,1/2+z
x,-y,1/2+z
loop_
_atom_site_type_symbol
_atom_site_label
_atom_site_fract_x
_atom_site_fract_y
_atom_site_fract_z
Si Si1 0.102794 0.155295 0.643870
Si Si2 0.590894 0.823236 0.467380
Si Si3 0.329237 0.214666 0.970066
Si Si4 0.998026 0.713248 0.406037
Si Si5 0.272175 0.899703 0.794521
O O1 0.113551 0.113551 0.750000
O O2 0.175656 0.266698 0.625160
O O3 0.166764 0.059926 0.585857
O O4 0.974672 0.191667 0.638293
O O5 0.666798 0.718482 0.498229
O O6 0.461320 0.794953 0.467386
O O7 0.624791 0.922029 0.540761
O O8 0.629914 0.860402 0.363026
O O9 0.286542 0.120557 0.043092
O O10 0.974551 0.689989 0.295213
O O11 0.200983 0.799018 0.750000
#
# Coordination Sequence:
#
# PCOD9557731 Si02
#       5
#     8   8   8   8   8
#     4   9  21  38  59  94 128 164 206 258 322 390
#     4  11  24  43  66  94 130 171 221 276 320 391
#     4  11  22  44  64  92 129 168 221 269 328 380
#     4  10  21  39  64  94 126 163 210 260 327 390
#     4  11  21  40  63  97 133 168 215 260 327 399
#
# _framework density 19.691627
#
# number of rings (size 3 to 8) (size 9 to 14) (size 15 to 20)
#    0.000    1.600    4.000    0.600    0.000    4.000 
#   18.000    0.000    0.000    0.000    0.000    0.000 
#    0.000    0.000    0.000    0.000    0.000    0.000 
#
# Total GULP energy -223227.577148 kJ/mol
# GULP energy per Si atom -5580.689429 kJ/mol
# Density = 1.964681 g / cm^3
# Si number density = 19.691627 Si / 1000 Ang^3
#
#
#
# Elastic Constant Matrix: (Units=GPa)
#
#
# Indices 1 2 3 4 5 6 
#
# 1 100.5222 49.3206 25.0212 0.0000 0.0000 0.0000
# 2 49.3206 100.5253 25.0197 0.0000 0.0000 0.0000
# 3 25.0212 25.0197 65.9828 0.0000 0.0000 0.0000
# 4 0.0000 0.0000 0.0000 17.5228 0.0000 0.0000
# 5 0.0000 0.0000 0.0000 0.0000 17.5224 0.0000
# 6 0.0000 0.0000 0.0000 0.0000 0.0000 14.5855
#
#
#
# Elastic Compliance Matrix: (Units=1/GPa)
#
#
# Indices 1 2 3 4 5 6 
#
# 1 0.013586 -0.005944 -0.002898 0.000000 0.000000 0.000000
# 2 -0.005944 0.013585 -0.002897 0.000000 0.000000 0.000000
# 3 -0.002898 -0.002897 0.017353 0.000000 0.000000 0.000000
# 4 0.000000 0.000000 0.000000 0.057068 0.000000 0.000000
# 5 0.000000 0.000000 0.000000 0.000000 0.057070 0.000000
# 6 0.000000 0.000000 0.000000 0.000000 0.000000 0.068561
#
#
# Mechanical properties :
#
#
# Convention : Reuss Voigt Hill
#
# Bulk Modulus (GPa) = 47.51657 51.75034 49.63345
# Shear Modulus (GPa) = 19.40106 21.10406 20.25256
#
# Velocity S-wave (km/s) = 3.14227 3.27728 3.21048
# Velocity P-wave (km/s) = 6.11129 6.37637 6.24524
#
# Compressibility (1/GPa) = 0.02104529
#
# Stress axis : x y z
#
# Youngs Moduli (GPa) = 73.60547 73.60893 57.62716
#
# Poissons Ratio (x) = 0.43756 0.16700
# Poissons Ratio (y) = 0.43754 0.16696
# Poissons Ratio (z) = 0.21330 0.21326
#
# Static dielectric constant tensor:
#      x y z
#    x 1.696270 0.000000 0.000000 
#    y 0.000000 1.696260 0.000000 
#    z 0.000000 0.000000 1.756880 
# 
# From -- ./inp_files/2545.got.cif
#   From: 2010.05.17/outbox.cif.g08.bks.cpg/sg116_2_cif.got.tgz:2545.got - 2010.05.20 11:11:43.
