data_PCOD9557888
_publ_section_title
;
Structure prediction by ZEFSAII (Michael W. Deem and Ramdas Pophale) SiO2 
 PCOD9557888
Probable space group: P -4 C 2
;
_chemical_formula_sum "Si O2"
_cell_formula_units_Z 42
_cell_length_a 14.851557
_cell_length_b 14.851557
_cell_length_c 8.607712
_cell_angle_alpha 90.000000
_cell_angle_beta 90.000000
_cell_angle_gamma 90.000000
_cell_volume 1898.592236
_symmetry_space_group_name_H-M "P -4 C 2"
_symmetry_group_IT_number 116
_symmetry_cell_setting 'tetragonal'
loop_
_space_group_symop_operation_xyz
x,y,z
y,-x,-z
-x,-y,z
-y,x,-z
y,x,1/2-z
-y,-x,1/2-z
-x,y,1/2+z
x,-y,1/2+z
loop_
_atom_site_type_symbol
_atom_site_label
_atom_site_fract_x
_atom_site_fract_y
_atom_site_fract_z
Si Si1 0.817309 0.079204 0.858200
Si Si2 0.000000 0.000000 0.000000
Si Si3 0.420361 0.929256 0.406665
Si Si4 0.325345 0.589351 0.614870
Si Si5 0.701447 0.048093 0.134912
Si Si6 0.431691 0.744752 0.576492
O O1 0.835729 0.164272 0.750000
O O2 0.765304 0.007954 0.750738
O O3 0.762866 0.102043 0.013976
O O4 0.913089 0.036448 0.907531
O O5 0.369494 0.904016 0.247114
O O6 0.445088 0.839129 0.495844
O O7 0.500000 0.000000 0.372978
O O8 0.353428 0.980684 0.524237
O O9 0.404616 0.595385 0.750000
O O10 0.341209 0.687044 0.539213
O O11 0.317721 0.512763 0.488332
O O12 0.244210 0.575103 0.737083
#
# Coordination Sequence:
#
# PCOD9557888 Si02
#       6
#     8   2   8   8   8   8
#     4  11  22  41  65  96 142 179 236 290 357 428
#     4  12  22  36  78  92 134 204 222 280 354 460
#     4  11  24  44  73  92 135 188 243 297 356 440
#     4   8  21  39  65  97 139 167 221 284 344 433
#     4  10  25  41  62 105 128 179 244 299 349 420
#     4   9  21  42  66 100 134 176 224 275 364 417
#
# _framework density 22.121652999999998
#
# number of rings (size 3 to 8) (size 9 to 14) (size 15 to 20)
#    1.143    0.762    1.905    0.857    5.333    1.143 
#    6.857    0.000    4.190    0.000    0.000    0.000 
#    0.000    0.000    0.000    0.000    0.000    0.000 
#
# Total GULP energy -233866.644457 kJ/mol
# GULP energy per Si atom -5568.253439 kJ/mol
# Density = 2.207130 g / cm^3
# Si number density = 22.121653 Si / 1000 Ang^3
#
#
#
# Elastic Constant Matrix: (Units=GPa)
#
#
# Indices 1 2 3 4 5 6 
#
# 1 68.3513 23.2614 30.4272 0.0000 0.0000 0.0000
# 2 23.2614 68.3500 30.4270 0.0000 0.0000 0.0000
# 3 30.4272 30.4270 90.5826 0.0000 0.0000 0.0000
# 4 0.0000 0.0000 0.0000 34.9229 0.0000 0.0000
# 5 0.0000 0.0000 0.0000 0.0000 34.9236 0.0000
# 6 0.0000 0.0000 0.0000 0.0000 0.0000 9.3802
#
#
#
# Elastic Compliance Matrix: (Units=1/GPa)
#
#
# Indices 1 2 3 4 5 6 
#
# 1 0.018114 -0.004064 -0.004720 0.000000 0.000000 0.000000
# 2 -0.004064 0.018115 -0.004720 0.000000 0.000000 0.000000
# 3 -0.004720 -0.004720 0.014210 0.000000 0.000000 0.000000
# 4 0.000000 0.000000 0.000000 0.028635 0.000000 0.000000
# 5 0.000000 0.000000 0.000000 0.000000 0.028634 0.000000
# 6 0.000000 0.000000 0.000000 0.000000 0.000000 0.106607
#
#
# Mechanical properties :
#
#
# Convention : Reuss Voigt Hill
#
# Bulk Modulus (GPa) = 42.67483 43.94610 43.31046
# Shear Modulus (GPa) = 20.06968 25.38990 22.72979
#
# Velocity S-wave (km/s) = 3.01531 3.39151 3.20893
# Velocity P-wave (km/s) = 5.60854 5.93677 5.77498
#
# Compressibility (1/GPa) = 0.02343302
#
# Stress axis : x y z
#
# Youngs Moduli (GPa) = 55.20509 55.20395 70.37116
#
# Poissons Ratio (x) = 0.22434 0.33213
# Poissons Ratio (y) = 0.22434 0.33213
# Poissons Ratio (z) = 0.26055 0.26055
#
# Static dielectric constant tensor:
#      x y z
#    x 1.865950 0.000000 0.000000 
#    y 0.000000 1.865960 0.000000 
#    z 0.000000 0.000000 1.868920 
# 
# From -- ./inp_files/827.got.cif
#   From: 2010.05.17/outbox.cif.g08.bks.cpg/sg116_1_cif.got.tgz:827.got - 2010.05.20 11:11:43.
