data_PCOD9557777
_publ_section_title
;
Structure prediction by ZEFSAII (Michael W. Deem and Ramdas Pophale) SiO2 
 PCOD9557777
Probable space group: P -4 C 2
;
_chemical_formula_sum "Si O2"
_cell_formula_units_Z 64
_cell_length_a 12.492055
_cell_length_b 12.492055
_cell_length_c 17.246654
_cell_angle_alpha 90.000000
_cell_angle_beta 90.000000
_cell_angle_gamma 90.000000
_cell_volume 2691.365160
_symmetry_space_group_name_H-M "P -4 C 2"
_symmetry_group_IT_number 116
_symmetry_cell_setting 'tetragonal'
loop_
_space_group_symop_operation_xyz
x,y,z
y,-x,-z
-x,-y,z
-y,x,-z
y,x,1/2-z
-y,-x,1/2-z
-x,y,1/2+z
x,-y,1/2+z
loop_
_atom_site_type_symbol
_atom_site_label
_atom_site_fract_x
_atom_site_fract_y
_atom_site_fract_z
Si Si1 0.651845 0.587504 0.483343
Si Si2 0.240508 0.814007 0.837160
Si Si3 0.130409 0.640254 0.509357
Si Si4 0.490914 0.807355 0.624514
Si Si5 0.323537 0.498417 0.734675
Si Si6 0.182669 0.563375 0.099460
Si Si7 0.028546 0.699890 0.884811
Si Si8 0.370811 0.022924 0.778514
O O1 0.635672 0.463388 0.508345
O O2 0.700764 0.574924 0.399124
O O3 0.747858 0.628127 0.537213
O O4 0.245371 0.754630 0.750000
O O5 0.116117 0.790709 0.861448
O O6 0.299982 0.924007 0.811598
O O7 0.294456 0.805125 0.924513
O O8 0.183865 0.592619 0.430670
O O9 0.113729 0.527054 0.555095
O O10 0.033337 0.705051 0.467501
O O11 0.510073 0.781536 0.712523
O O12 0.411084 0.904398 0.611335
O O13 0.392642 0.392642 0.750000
O O14 0.405897 0.594104 0.750000
O O15 0.271920 0.497066 0.650707
O O16 0.114079 0.635732 0.156358
O O17 0.957684 0.677976 0.807270
O O18 0.500000 0.000000 0.773498
#
# Coordination Sequence:
#
# PCOD9557777 Si02
#       8
#     8   8   8   8   8   8   8   8
#     4  10  22  38  54  86 141 193 234 283 350 425
#     4  10  25  43  71 105 147 185 243 301 390 470
#     4  11  24  42  66 102 145 182 245 313 386 433
#     4  11  24  35  64  94 135 187 252 305 353 422
#     4  11  24  41  61  94 152 215 259 295 358 447
#     4  11  23  35  66  94 128 196 247 303 357 428
#     4  11  25  42  65 105 144 186 237 320 386 451
#     4  11  21  40  67  98 140 187 237 308 377 436
#
# _framework density 23.779751999999998
#
# number of rings (size 3 to 8) (size 9 to 14) (size 15 to 20)
#    0.000    1.250    1.250    4.125   12.250    2.000 
#    0.000    0.000    0.000    0.375    0.000    4.375 
#    0.000    0.000    0.000    0.000    0.000    0.000 
#
# Total GULP energy -356505.629202 kJ/mol
# GULP energy per Si atom -5570.400456 kJ/mol
# Density = 2.372563 g / cm^3
# Si number density = 23.779752 Si / 1000 Ang^3
#
#
#
# Elastic Constant Matrix: (Units=GPa)
#
#
# Indices 1 2 3 4 5 6 
#
# 1 53.4980 69.7621 40.6552 0.0000 0.0000 0.0000
# 2 69.7621 53.4996 40.6556 0.0000 0.0000 0.0000
# 3 40.6552 40.6556 177.3114 0.0000 0.0000 0.0000
# 4 0.0000 0.0000 0.0000 37.6992 0.0000 0.0000
# 5 0.0000 0.0000 0.0000 0.0000 37.6988 0.0000
# 6 0.0000 0.0000 0.0000 0.0000 0.0000 37.5141
#
#
#
# Elastic Compliance Matrix: (Units=1/GPa)
#
#
# Indices 1 2 3 4 5 6 
#
# 1 -0.025965 0.035523 -0.002192 0.000000 0.000000 0.000000
# 2 0.035523 -0.025964 -0.002192 0.000000 0.000000 0.000000
# 3 -0.002192 -0.002192 0.006645 0.000000 0.000000 0.000000
# 4 0.000000 0.000000 0.000000 0.026526 0.000000 0.000000
# 5 0.000000 0.000000 0.000000 0.000000 0.026526 0.000000
# 6 0.000000 0.000000 0.000000 0.000000 0.000000 0.026657
#
#
# Mechanical properties :
#
#
# Convention : Reuss Voigt Hill
#
# Bulk Modulus (GPa) = 58.83938 65.16161 62.00049
# Shear Modulus (GPa) = -225.31583 31.46483 -96.92550
#
# Velocity S-wave (km/s) = -9.74458 3.64150 -6.39126
# Velocity P-wave (km/s) = 10.09019 6.71880 5.32304
#
# Compressibility (1/GPa) = 0.01699542
#
# Stress axis : x y z
#
# Youngs Moduli (GPa) = -38.51316 -38.51439 150.49246
#
# Poissons Ratio (x) = 1.36816 0.32983
# Poissons Ratio (y) = 1.36812 0.32984
# Poissons Ratio (z) = -0.08441 -0.08441
#
# Static dielectric constant tensor:
#      x y z
#    x 1.983910 0.000000 0.000000 
#    y 0.000000 1.983910 0.000000 
#    z 0.000000 0.000000 2.018430 
# 
# From -- ./inp_files/3516.got.cif
#   From: 2010.05.17/outbox.cif.g08.bks.cpg/sg116_2_cif.got.tgz:3516.got - 2010.05.20 11:11:43.
