data_PCOD9557405
_publ_section_title
;
Structure prediction by ZEFSAII (Michael W. Deem and Ramdas Pophale) SiO2 
 PCOD9557405
Probable space group: P -4 M 2
;
_chemical_formula_sum "Si O2"
_cell_formula_units_Z 38
_cell_length_a 7.738181
_cell_length_b 7.738181
_cell_length_c 31.221042
_cell_angle_alpha 90.000000
_cell_angle_beta 90.000000
_cell_angle_gamma 90.000000
_cell_volume 1869.498673
_symmetry_space_group_name_H-M "P -4 M 2"
_symmetry_group_IT_number 115
_symmetry_cell_setting 'tetragonal'
loop_
_space_group_symop_operation_xyz
x,y,z
y,-x,-z
-x,-y,z
-y,x,-z
y,x,-z
-y,-x,-z
-x,y,z
x,-y,z
loop_
_atom_site_type_symbol
_atom_site_label
_atom_site_fract_x
_atom_site_fract_y
_atom_site_fract_z
Si Si1 0.703606 0.710424 0.953667
Si Si2 0.710209 0.187381 0.139398
Si Si3 0.210204 0.311389 0.593451
Si Si4 0.793664 0.793664 0.500000
Si Si5 0.209809 0.000000 0.656203
Si Si6 0.500000 0.000000 0.727241
Si Si7 0.500000 0.290179 0.798280
O O1 0.500000 0.750330 0.950890
O O2 0.718100 0.500000 0.954859
O O3 0.785672 0.771184 0.909430
O O4 0.771013 0.771013 0.000000
O O5 0.500000 0.191893 0.137019
O O6 0.756605 0.336398 0.172118
O O7 0.764858 0.000000 0.154950
O O8 0.263817 0.500000 0.608406
O O9 0.271403 0.281804 0.544767
O O10 0.256566 0.163919 0.626663
O O11 0.000000 0.305873 0.590864
O O12 0.000000 0.765369 0.497421
O O13 0.328441 0.000000 0.697876
O O14 0.000000 0.000000 0.663876
O O15 0.500000 0.828431 0.756609
O O16 0.500000 0.500000 0.790598
#
# Coordination Sequence:
#
# PCOD9557405 Si02
#       7
#     8   8   8   4   4   2   4
#     4   8  12  20  40  71 109 155 198 234 281 344
#     4   9  16  29  54  84 116 155 194 239 300 358
#     4   9  17  32  57  88 122 165 205 243 296 353
#     4   9  14  26  50  81 122 168 210 247 283 340
#     4  10  22  44  64  86 122 160 200 254 306 362
#     4  12  28  44  68  96 112 156 212 252 324 376
#     4  10  22  42  64  88 120 146 196 262 308 358
#
# _framework density 20.326307
#
# number of rings (size 3 to 8) (size 9 to 14) (size 15 to 20)
#    0.000    2.842    2.105    0.632    0.000    1.684 
#    1.895    0.000    2.316    0.000    0.000    0.000 
#    0.000    0.000    0.000    0.000    0.000    0.000 
#
# Total GULP energy -211995.379719 kJ/mol
# GULP energy per Si atom -5578.825782 kJ/mol
# Density = 2.028004 g / cm^3
# Si number density = 20.326307 Si / 1000 Ang^3
#
#
#
# Elastic Constant Matrix: (Units=GPa)
#
#
# Indices 1 2 3 4 5 6 
#
# 1 83.2840 44.2913 69.9251 0.0000 0.0000 0.0000
# 2 44.2913 83.2840 69.9251 0.0000 0.0000 0.0000
# 3 69.9251 69.9251 164.7309 0.0000 0.0000 0.0000
# 4 0.0000 0.0000 0.0000 -37.4616 0.0000 0.0000
# 5 0.0000 0.0000 0.0000 0.0000 -37.4616 0.0000
# 6 0.0000 0.0000 0.0000 0.0000 0.0000 -0.1913
#
#
#
# Elastic Compliance Matrix: (Units=1/GPa)
#
#
# Indices 1 2 3 4 5 6 
#
# 1 0.020153 -0.005493 -0.006223 0.000000 0.000000 0.000000
# 2 -0.005493 0.020153 -0.006223 0.000000 0.000000 0.000000
# 3 -0.006223 -0.006223 0.011354 0.000000 0.000000 0.000000
# 4 0.000000 0.000000 0.000000 -0.026694 0.000000 0.000000
# 5 0.000000 0.000000 0.000000 0.000000 -0.026694 0.000000
# 6 0.000000 0.000000 0.000000 0.000000 0.000000 -5.228024
#
#
# Mechanical properties :
#
#
# Convention : Reuss Voigt Hill
#
# Bulk Modulus (GPa) = 63.36282 77.73133 70.54707
# Shear Modulus (GPa) = -0.96365 -5.21242 -3.08803
#
# Velocity S-wave (km/s) = -0.68929 -1.60310 -1.23391
# Velocity P-wave (km/s) = 5.53236 5.90747 5.72299
#
# Compressibility (1/GPa) = 0.01578213
#
# Stress axis : x y z
#
# Youngs Moduli (GPa) = 49.62029 49.62029 88.07777
#
# Poissons Ratio (x) = 0.27255 0.54811
# Poissons Ratio (y) = 0.27255 0.54811
# Poissons Ratio (z) = 0.30879 0.30879
#
# Static dielectric constant tensor:
#      x y z
#    x 1.742720 0.000000 0.000000 
#    y 0.000000 1.742720 0.000000 
#    z 0.000000 0.000000 1.688130 
# 
# From -- ./inp_files/5226.got.cif
#   From: 2010.05.17/outbox.cif.g08.bks.cpg/sg115_3_cif.got.tgz:5226.got - 2010.05.20 11:07:42.
