data_PCOD9557620
_publ_section_title
;
Structure prediction by ZEFSAII (Michael W. Deem and Ramdas Pophale) SiO2 
 PCOD9557620
Probable space group: P -4 C 2
;
_chemical_formula_sum "Si O2"
_cell_formula_units_Z 28
_cell_length_a 13.336146
_cell_length_b 13.336146
_cell_length_c 8.557351
_cell_angle_alpha 90.000000
_cell_angle_beta 90.000000
_cell_angle_gamma 90.000000
_cell_volume 1521.948752
_symmetry_space_group_name_H-M "P -4 C 2"
_symmetry_group_IT_number 116
_symmetry_cell_setting 'tetragonal'
loop_
_space_group_symop_operation_xyz
x,y,z
y,-x,-z
-x,-y,z
-y,x,-z
y,x,1/2-z
-y,-x,1/2-z
-x,y,1/2+z
x,-y,1/2+z
loop_
_atom_site_type_symbol
_atom_site_label
_atom_site_fract_x
_atom_site_fract_y
_atom_site_fract_z
Si Si1 0.131225 0.593325 0.896035
Si Si2 0.543624 0.692128 0.330621
Si Si3 0.314952 0.710381 0.424289
Si Si4 0.500000 0.000000 0.340361
O O1 0.220953 0.542256 0.799136
O O2 0.040027 0.588862 0.772454
O O3 0.188637 0.687579 0.971522
O O4 0.088003 0.535746 0.045884
O O5 0.594480 0.594480 0.250000
O O6 0.431721 0.679374 0.392562
O O7 0.620851 0.724748 0.467313
O O8 0.273897 0.726104 0.250000
#
# Coordination Sequence:
#
# PCOD9557620 Si02
#       4
#     8   8   8   4
#     4  10  20  33  50  73  87 125 174 228 271 288
#     4  10  21  33  46  70 102 135 183 219 249 298
#     4  11  21  32  50  68 105 138 176 227 249 297
#     4  10  20  34  58  64  92 120 174 254 242 320
#
# _framework density 18.397465
#
# number of rings (size 3 to 8) (size 9 to 14) (size 15 to 20)
#    0.000    1.714    2.857    3.429    0.000    3.429 
#    0.000    0.000    0.000    0.000    0.000    0.000 
#    0.000    0.000    0.000    0.000    0.000  861.429 
#
# Total GULP energy -155879.355077 kJ/mol
# GULP energy per Si atom -5567.119824 kJ/mol
# Density = 1.835559 g / cm^3
# Si number density = 18.397465 Si / 1000 Ang^3
#
#
#
# Elastic Constant Matrix: (Units=GPa)
#
#
# Indices 1 2 3 4 5 6 
#
# 1 59.0263 7.3376 31.3267 0.0000 0.0000 0.0000
# 2 7.3376 59.0261 31.3265 0.0000 0.0000 0.0000
# 3 31.3267 31.3265 146.2432 0.0000 0.0000 0.0000
# 4 0.0000 0.0000 0.0000 37.6468 0.0000 0.0000
# 5 0.0000 0.0000 0.0000 0.0000 37.6468 0.0000
# 6 0.0000 0.0000 0.0000 0.0000 0.0000 8.4750
#
#
#
# Elastic Compliance Matrix: (Units=1/GPa)
#
#
# Indices 1 2 3 4 5 6 
#
# 1 0.019117 -0.000229 -0.004046 0.000000 0.000000 0.000000
# 2 -0.000229 0.019117 -0.004046 0.000000 0.000000 0.000000
# 3 -0.004046 -0.004046 0.008571 0.000000 0.000000 0.000000
# 4 0.000000 0.000000 0.000000 0.026563 0.000000 0.000000
# 5 0.000000 0.000000 0.000000 0.000000 0.026563 0.000000
# 6 0.000000 0.000000 0.000000 0.000000 0.000000 0.117993
#
#
# Mechanical properties :
#
#
# Convention : Reuss Voigt Hill
#
# Bulk Modulus (GPa) = 33.15241 44.91968 39.03605
# Shear Modulus (GPa) = 20.43969 29.70739 25.07354
#
# Velocity S-wave (km/s) = 3.33679 4.02276 3.69573
# Velocity P-wave (km/s) = 5.73627 6.78572 6.28295
#
# Compressibility (1/GPa) = 0.03016372
#
# Stress axis : x y z
#
# Youngs Moduli (GPa) = 52.30834 52.30813 116.66813
#
# Poissons Ratio (x) = 0.01199 0.47204
# Poissons Ratio (y) = 0.01199 0.47204
# Poissons Ratio (z) = 0.21164 0.21164
#
# Static dielectric constant tensor:
#      x y z
#    x 1.670400 0.000000 0.000000 
#    y 0.000000 1.670400 0.000000 
#    z 0.000000 0.000000 1.734840 
# 
# From -- ./inp_files/571.got.cif
#   From: 2010.05.17/outbox.cif.g08.bks.cpg/sg116_1_cif.got.tgz:571.got - 2010.05.20 11:11:43.
