data_PCOD9557503
_publ_section_title
;
Structure prediction by ZEFSAII (Michael W. Deem and Ramdas Pophale) SiO2 
 PCOD9557503
Probable space group: P -4 M 2
;
_chemical_formula_sum "Si O2"
_cell_formula_units_Z 32
_cell_length_a 9.000000
_cell_length_b 9.000000
_cell_length_c 21.000000
_cell_angle_alpha 90.000000
_cell_angle_beta 90.000000
_cell_angle_gamma 90.000000
_cell_volume 1701.000000
_symmetry_space_group_name_H-M "P -4 M 2"
_symmetry_group_IT_number 115
_symmetry_cell_setting 'tetragonal'
loop_
_space_group_symop_operation_xyz
x,y,z
y,-x,-z
-x,-y,z
-y,x,-z
y,x,-z
-y,-x,-z
-x,y,z
x,-y,z
loop_
_atom_site_type_symbol
_atom_site_label
_atom_site_fract_x
_atom_site_fract_y
_atom_site_fract_z
Si Si1 0.820916 0.827892 0.429138
Si Si2 0.823388 0.325077 0.820369
Si Si3 0.172179 0.676838 0.059599
Si Si4 0.322487 0.327421 0.310236
O O1 0.776874 0.776874 0.500000
O O2 0.755089 0.730300 0.373432
O O3 0.000000 0.824966 0.427566
O O4 0.774556 0.000000 0.420641
O O5 0.784548 0.500000 0.827710
O O6 0.748317 0.233922 0.876273
O O7 0.765863 0.275727 0.751426
O O8 0.000000 0.311628 0.823926
O O9 0.184529 0.500000 0.063641
O O10 0.000000 0.716377 0.050350
O O11 0.264032 0.735969 0.000000
O O12 0.500000 0.309840 0.317458
O O13 0.290297 0.500000 0.298998
#
# Coordination Sequence:
#
# PCOD9557503 Si02
#       4
#     8   8   8   8
#     4   9  19  36  56  78 106 142 184 228 275 328
#     4  10  21  38  60  84 110 144 186 228 272 324
#     4  11  24  40  59  85 115 147 184 225 271 324
#     4  10  21  36  55  81 112 145 182 225 274 328
#
# _framework density 18.812463000000001
#
# number of rings (size 3 to 8) (size 9 to 14) (size 15 to 20)
#    0.000    2.000    0.000    3.750    0.000   10.500 
#    0.000    3.750    0.000    0.000    0.000    0.000 
#    0.000    0.000    0.000    0.000    0.000    0.000 
#
# Total GULP energy -178749.134494 kJ/mol
# GULP energy per Si atom -5585.910453 kJ/mol
# Density = 1.876965 g / cm^3
# Si number density = 18.812463 Si / 1000 Ang^3
#
#
#
# Elastic Constant Matrix: (Units=GPa)
#
#
# Indices 1 2 3 4 5 6 
#
# 1 16.1953 31.7034 26.7815 0.0000 0.0000 0.0000
# 2 31.7034 16.2034 26.7872 0.0000 0.0000 0.0000
# 3 26.7815 26.7872 99.7806 0.0000 0.0000 0.0000
# 4 0.0000 0.0000 0.0000 36.6181 0.0000 0.0000
# 5 0.0000 0.0000 0.0000 0.0000 36.6180 0.0000
# 6 0.0000 0.0000 0.0000 0.0000 0.0000 28.8102
#
#
#
# Elastic Compliance Matrix: (Units=1/GPa)
#
#
# Indices 1 2 3 4 5 6 
#
# 1 -0.017339 0.047165 -0.008008 0.000000 0.000000 0.000000
# 2 0.047165 -0.017330 -0.008007 0.000000 0.000000 0.000000
# 3 -0.008008 -0.008007 0.014321 0.000000 0.000000 0.000000
# 4 0.000000 0.000000 0.000000 0.027309 0.000000 0.000000
# 5 0.000000 0.000000 0.000000 0.000000 0.027309 0.000000
# 6 0.000000 0.000000 0.000000 0.000000 0.000000 0.034710
#
#
# Mechanical properties :
#
#
# Convention : Reuss Voigt Hill
#
# Bulk Modulus (GPa) = 23.83699 33.63597 28.73648
# Shear Modulus (GPa) = 241.97195 23.53642 132.75419
#
# Velocity S-wave (km/s) = 11.35352 3.54094 8.40954
# Velocity P-wave (km/s) = 13.58559 5.88524 10.46911
#
# Compressibility (1/GPa) = 0.04195161
#
# Stress axis : x y z
#
# Youngs Moduli (GPa) = -57.67218 -57.70440 69.82811
#
# Poissons Ratio (x) = 2.72161 0.55918
# Poissons Ratio (y) = 2.72009 0.55910
# Poissons Ratio (z) = -0.46184 -0.46203
#
# Static dielectric constant tensor:
#      x y z
#    x 1.634090 0.000000 0.000000 
#    y 0.000000 1.634090 0.000000 
#    z 0.000000 0.000000 1.615660 
# 
# From -- ./inp_files/4586.got.cif
#   From: 2010.05.17/outbox.ucp.g08.bks.cvg/sg115_3_cif.got.tgz:4586.got - 2010.06.11 11:33:38.
