data_PCOD9557859
_publ_section_title
;
Structure prediction by ZEFSAII (Michael W. Deem and Ramdas Pophale) SiO2 
 PCOD9557859
Probable space group: P -4 C 2
;
_chemical_formula_sum "Si O2"
_cell_formula_units_Z 38
_cell_length_a 14.281671
_cell_length_b 14.281671
_cell_length_c 8.463400
_cell_angle_alpha 90.000000
_cell_angle_beta 90.000000
_cell_angle_gamma 90.000000
_cell_volume 1726.246915
_symmetry_space_group_name_H-M "P -4 C 2"
_symmetry_group_IT_number 116
_symmetry_cell_setting 'tetragonal'
loop_
_space_group_symop_operation_xyz
x,y,z
y,-x,-z
-x,-y,z
-y,x,-z
y,x,1/2-z
-y,-x,1/2-z
-x,y,1/2+z
x,-y,1/2+z
loop_
_atom_site_type_symbol
_atom_site_label
_atom_site_fract_x
_atom_site_fract_y
_atom_site_fract_z
Si Si1 0.395376 0.604625 0.750000
Si Si2 0.500000 0.500000 0.500000
Si Si3 0.118559 0.259578 0.184714
Si Si4 0.556283 0.800277 0.408354
Si Si5 0.364836 0.789199 0.257050
Si Si6 0.073043 0.205455 0.825422
O O1 0.471112 0.584616 0.612995
O O2 0.296672 0.587357 0.671558
O O3 0.214035 0.214035 0.250000
O O4 0.125142 0.372348 0.170847
O O5 0.035008 0.225507 0.295827
O O6 0.099771 0.219207 0.008585
O O7 0.445108 0.804631 0.385519
O O8 0.582827 0.800858 0.591064
O O9 0.309923 0.690077 0.250000
O O10 0.284544 0.867328 0.268279
O O11 0.108319 0.108319 0.750000
#
# Coordination Sequence:
#
# PCOD9557859 Si02
#       6
#     4   2   8   8   8   8
#     4  11  22  38  52  88 117 168 204 262 301 360
#     4  10  24  34  56  78 124 162 220 254 304 354
#     4  11  23  43  67  96 127 163 205 257 316 382
#     4  11  24  39  62  88 127 170 209 260 315 364
#     4  10  25  42  61  91 127 168 216 262 311 368
#     4  10  23  44  68  96 126 162 204 261 316 378
#
# _framework density 22.013071
#
# number of rings (size 3 to 8) (size 9 to 14) (size 15 to 20)
#    0.000    1.474    1.053    2.526    8.842    4.632 
#    0.000    6.316    0.000    0.000    0.000    0.000 
#    0.000    0.000    0.000    0.000    0.000    0.000 
#
# Total GULP energy -212501.909945 kJ/mol
# GULP energy per Si atom -5592.155525 kJ/mol
# Density = 2.196297 g / cm^3
# Si number density = 22.013071 Si / 1000 Ang^3
#
#
#
# Elastic Constant Matrix: (Units=GPa)
#
#
# Indices 1 2 3 4 5 6 
#
# 1 57.9020 16.7715 0.7573 0.0000 0.0000 0.0000
# 2 16.7715 57.9038 0.7594 0.0000 0.0000 0.0000
# 3 0.7573 0.7594 47.5964 0.0000 0.0000 0.0000
# 4 0.0000 0.0000 0.0000 20.0224 0.0000 0.0000
# 5 0.0000 0.0000 0.0000 0.0000 20.0210 0.0000
# 6 0.0000 0.0000 0.0000 0.0000 0.0000 27.3029
#
#
#
# Elastic Compliance Matrix: (Units=1/GPa)
#
#
# Indices 1 2 3 4 5 6 
#
# 1 0.018854 -0.005458 -0.000213 0.000000 0.000000 0.000000
# 2 -0.005458 0.018854 -0.000214 0.000000 0.000000 0.000000
# 3 -0.000213 -0.000214 0.021017 0.000000 0.000000 0.000000
# 4 0.000000 0.000000 0.000000 0.049944 0.000000 0.000000
# 5 0.000000 0.000000 0.000000 0.000000 0.049947 0.000000
# 6 0.000000 0.000000 0.000000 0.000000 0.000000 0.036626
#
#
# Mechanical properties :
#
#
# Convention : Reuss Voigt Hill
#
# Bulk Modulus (GPa) = 21.29714 22.21985 21.75849
# Shear Modulus (GPa) = 22.45530 23.14352 22.79941
#
# Velocity S-wave (km/s) = 3.19735 3.24598 3.22175
# Velocity P-wave (km/s) = 4.82975 4.91572 4.87293
#
# Compressibility (1/GPa) = 0.04695467
#
# Stress axis : x y z
#
# Youngs Moduli (GPa) = 53.03819 53.03975 47.58096
#
# Poissons Ratio (x) = 0.28951 0.01013
# Poissons Ratio (y) = 0.28950 0.01018
# Poissons Ratio (z) = 0.01129 0.01135
#
# Static dielectric constant tensor:
#      x y z
#    x 1.818350 0.000000 0.000000 
#    y 0.000000 1.818350 0.000000 
#    z 0.000000 0.000000 1.852790 
# 
# From -- ./inp_files/717.got.cif
#   From: 2010.05.17/outbox.cif.g08.bks.cpg/sg116_1_cif.got.tgz:717.got - 2010.05.20 11:11:43.
