data_PCOD9557266
_publ_section_title
;
Structure prediction by ZEFSAII (Michael W. Deem and Ramdas Pophale) SiO2 
 PCOD9557266
Probable space group: P -4 M 2
;
_chemical_formula_sum "Si O2"
_cell_formula_units_Z 25
_cell_length_a 14.201871
_cell_length_b 14.201871
_cell_length_c 3.845122
_cell_angle_alpha 90.000000
_cell_angle_beta 90.000000
_cell_angle_gamma 90.000000
_cell_volume 775.534729
_symmetry_space_group_name_H-M "P -4 M 2"
_symmetry_group_IT_number 115
_symmetry_cell_setting 'tetragonal'
loop_
_space_group_symop_operation_xyz
x,y,z
y,-x,-z
-x,-y,z
-y,x,-z
y,x,-z
-y,-x,-z
-x,y,z
x,-y,z
loop_
_atom_site_type_symbol
_atom_site_label
_atom_site_fract_x
_atom_site_fract_y
_atom_site_fract_z
Si Si1 0.395676 0.000000 0.512154
Si Si2 0.799564 0.799564 0.000000
Si Si3 0.000000 0.794609 0.019934
Si Si4 0.604815 0.395186 0.500000
Si Si5 0.197209 0.399095 0.919341
Si Si6 0.000000 0.000000 0.000000
O O1 0.396183 0.098086 0.292278
O O2 0.500000 0.000000 0.685587
O O3 0.300094 0.000000 0.745978
O O4 0.694980 0.801639 0.844626
O O5 0.797773 0.900767 0.185197
O O6 0.000000 0.898651 0.192453
O O7 0.500000 0.394465 0.675579
O O8 0.603788 0.297344 0.282816
O O9 0.196366 0.500000 0.103396
#
# Coordination Sequence:
#
# PCOD9557266 Si02
#       6
#     4   4   4   4   8   1
#     4  10  21  38  59  82 109 145 188 226 266 323
#     4  11  22  37  56  81 114 143 178 228 280 327
#     4  10  21  37  58  80 110 148 183 223 273 326
#     4   9  18  34  54  76 106 143 182 222 264 319
#     4  10  21  36  55  80 110 143 181 226 273 323
#     4   8  20  40  56  86 120 142 176 228 280 318
#
# _framework density 32.235821999999999
#
# number of rings (size 3 to 8) (size 9 to 14) (size 15 to 20)
#    0.000    2.080    0.000    2.880    0.000    2.560 
#    0.000    1.600    0.000    0.000    0.000    0.000 
#    0.000    0.000    0.000    0.000    0.000    0.000 
#
# Total GULP energy -139393.020634 kJ/mol
# GULP energy per Si atom -5575.720825 kJ/mol
# Density = 3.216245 g / cm^3
# Si number density = 32.235822 Si / 1000 Ang^3
#
#
#
# Elastic Constant Matrix: (Units=GPa)
#
#
# Indices 1 2 3 4 5 6 
#
# 1 471.1988 19.5713 91.3154 0.0000 0.0000 0.0000
# 2 19.5713 471.1999 91.3150 0.0000 0.0000 0.0000
# 3 91.3154 91.3150 77.4868 0.0000 0.0000 0.0000
# 4 0.0000 0.0000 0.0000 70.3785 0.0000 0.0000
# 5 0.0000 0.0000 0.0000 0.0000 70.3790 0.0000
# 6 0.0000 0.0000 0.0000 0.0000 0.0000 52.7864
#
#
#
# Elastic Compliance Matrix: (Units=1/GPa)
#
#
# Indices 1 2 3 4 5 6 
#
# 1 0.002922 0.000707 -0.004277 0.000000 0.000000 0.000000
# 2 0.000707 0.002922 -0.004277 0.000000 0.000000 0.000000
# 3 -0.004277 -0.004277 0.022986 0.000000 0.000000 0.000000
# 4 0.000000 0.000000 0.000000 0.014209 0.000000 0.000000
# 5 0.000000 0.000000 0.000000 0.000000 0.014209 0.000000
# 6 0.000000 0.000000 0.000000 0.000000 0.000000 0.018944
#
#
# Mechanical properties :
#
#
# Convention : Reuss Voigt Hill
#
# Bulk Modulus (GPa) = 76.12322 158.25431 117.18877
# Shear Modulus (GPa) = 51.94160 93.22102 72.58131
#
# Velocity S-wave (km/s) = 4.01846 5.38342 4.75022
# Velocity P-wave (km/s) = 6.72283 9.37235 8.15590
#
# Compressibility (1/GPa) = 0.01313660
#
# Stress axis : x y z
#
# Youngs Moduli (GPa) = 342.26854 342.27043 43.50565
#
# Poissons Ratio (x) = -0.24214 0.18607
# Poissons Ratio (y) = -0.24214 0.18606
# Poissons Ratio (z) = 1.46382 1.46382
#
# Static dielectric constant tensor:
#      x y z
#    x 2.398810 0.000000 0.000000 
#    y 0.000000 2.398810 0.000000 
#    z 0.000000 0.000000 2.574160 
# 
# From -- ./inp_files/321.got.cif
#   From: 2010.05.17/outbox.cif.g08.bks.cpg/sg115_1_cif.got.tgz:321.got - 2010.05.20 11:07:42.
