data_PCOD9557528
_publ_section_title
;
Structure prediction by ZEFSAII (Michael W. Deem and Ramdas Pophale) SiO2 
 PCOD9557528
Probable space group: P -4 C 2
;
_chemical_formula_sum "Si O2"
_cell_formula_units_Z 64
_cell_length_a 12.501569
_cell_length_b 12.501569
_cell_length_c 28.177164
_cell_angle_alpha 90.000000
_cell_angle_beta 90.000000
_cell_angle_gamma 90.000000
_cell_volume 4403.787194
_symmetry_space_group_name_H-M "P -4 C 2"
_symmetry_group_IT_number 116
_symmetry_cell_setting 'tetragonal'
loop_
_space_group_symop_operation_xyz
x,y,z
y,-x,-z
-x,-y,z
-y,x,-z
y,x,1/2-z
-y,-x,1/2-z
-x,y,1/2+z
x,-y,1/2+z
loop_
_atom_site_type_symbol
_atom_site_label
_atom_site_fract_x
_atom_site_fract_y
_atom_site_fract_z
Si Si1 0.292303 0.884599 0.056925
Si Si2 0.869740 0.691988 0.052487
Si Si3 0.124352 0.506019 0.123827
Si Si4 0.677291 0.500178 0.693307
Si Si5 0.292303 0.884599 0.443075
Si Si6 0.869740 0.691988 0.447513
Si Si7 0.499822 0.322709 0.693307
Si Si8 0.875648 0.493981 0.376173
O O1 0.190808 0.809192 0.063862
O O2 0.383840 0.862124 0.095051
O O3 0.264294 0.009999 0.059668
O O4 0.335786 0.863379 0.003517
O O5 0.858611 0.589915 0.086213
O O6 0.780723 0.780723 0.062752
O O7 0.990001 0.735706 0.059668
O O8 0.212721 0.498767 0.164655
O O9 0.137876 0.616160 0.095051
O O10 0.000000 0.500000 0.140095
O O11 0.602851 0.397149 0.682227
O O12 0.604023 0.604023 0.681830
O O13 0.695179 0.500689 0.750000
O O14 0.335786 0.863379 0.496483
O O15 0.858611 0.589915 0.413787
O O16 0.501233 0.212721 0.664655
O O17 0.000000 0.500000 0.359905
#
# Coordination Sequence:
#
# PCOD9557528 Si02
#       8
#     8   8   8   8   8   8   8   8
#     4   9  17  28  42  61  85 113 143 172 202 238
#     4   9  17  28  42  61  85 113 143 172 202 238
#     4  10  18  28  44  64  87 111 135 168 209 250
#     4   9  18  32  48  64  82 106 137 172 208 247
#     4   9  17  28  42  61  85 113 143 172 202 238
#     4   9  17  28  42  61  85 113 143 172 202 238
#     4   9  18  32  48  64  82 106 137 172 208 247
#     4  10  18  28  44  64  87 111 135 168 209 250
#
# _framework density 14.532947
#
# number of rings (size 3 to 8) (size 9 to 14) (size 15 to 20)
#    0.000    2.750    0.000    3.000    0.000    4.000 
#    0.000    2.500    0.000    0.000    0.000   10.500 
#    0.000    0.000    0.000   46.500    0.000    0.500 
#
# Total GULP energy -356520.790890 kJ/mol
# GULP energy per Si atom -5570.637358 kJ/mol
# Density = 1.449987 g / cm^3
# Si number density = 14.532947 Si / 1000 Ang^3
#
#
#
# Elastic Constant Matrix: (Units=GPa)
#
#
# Indices 1 2 3 4 5 6 
#
# 1 44.6982 6.7640 23.0146 0.0000 0.0000 0.0000
# 2 6.7640 44.6982 23.0146 0.0000 0.0000 0.0000
# 3 23.0146 23.0146 40.0922 0.0000 0.0000 0.0000
# 4 0.0000 0.0000 0.0000 25.5883 0.0000 0.0000
# 5 0.0000 0.0000 0.0000 0.0000 25.5883 0.0000
# 6 0.0000 0.0000 0.0000 0.0000 0.0000 17.9493
#
#
#
# Elastic Compliance Matrix: (Units=1/GPa)
#
#
# Indices 1 2 3 4 5 6 
#
# 1 0.033149 0.006788 -0.022925 0.000000 0.000000 0.000000
# 2 0.006788 0.033149 -0.022925 0.000000 0.000000 0.000000
# 3 -0.022925 -0.022925 0.051263 0.000000 0.000000 0.000000
# 4 0.000000 0.000000 0.000000 0.039080 0.000000 0.000000
# 5 0.000000 0.000000 0.000000 0.000000 0.039080 0.000000
# 6 0.000000 0.000000 0.000000 0.000000 0.000000 0.055712
#
#
# Mechanical properties :
#
#
# Convention : Reuss Voigt Hill
#
# Bulk Modulus (GPa) = 25.35828 26.11943 25.73885
# Shear Modulus (GPa) = 14.58982 18.93823 16.76403
#
# Velocity S-wave (km/s) = 3.17190 3.61380 3.40003
# Velocity P-wave (km/s) = 5.55889 5.95183 5.75871
#
# Compressibility (1/GPa) = 0.03943485
#
# Stress axis : x y z
#
# Youngs Moduli (GPa) = 30.16674 30.16674 19.50740
#
# Poissons Ratio (x) = -0.20476 0.44721
# Poissons Ratio (y) = -0.20476 0.44721
# Poissons Ratio (z) = 0.69158 0.69158
#
# Static dielectric constant tensor:
#      x y z
#    x 1.465310 0.000000 0.000000 
#    y 0.000000 1.465310 0.000000 
#    z 0.000000 0.000000 1.463420 
# 
# From -- ./inp_files/4979.got.cif
#   From: 2010.05.17/outbox.cif.g08.bks.cpg/sg116_3_cif.got.tgz:4979.got - 2010.05.20 11:11:43.
