data_PCOD9557761
_publ_section_title
;
Structure prediction by ZEFSAII (Michael W. Deem and Ramdas Pophale) SiO2 
 PCOD9557761
Probable space group: P -4 C 2
;
_chemical_formula_sum "Si O2"
_cell_formula_units_Z 48
_cell_length_a 9.322111
_cell_length_b 9.322111
_cell_length_c 27.430936
_cell_angle_alpha 90.000000
_cell_angle_beta 90.000000
_cell_angle_gamma 90.000000
_cell_volume 2383.796438
_symmetry_space_group_name_H-M "P -4 C 2"
_symmetry_group_IT_number 116
_symmetry_cell_setting 'tetragonal'
loop_
_space_group_symop_operation_xyz
x,y,z
y,-x,-z
-x,-y,z
-y,x,-z
y,x,1/2-z
-y,-x,1/2-z
-x,y,1/2+z
x,-y,1/2+z
loop_
_atom_site_type_symbol
_atom_site_label
_atom_site_fract_x
_atom_site_fract_y
_atom_site_fract_z
Si Si1 0.919308 0.785567 0.515279
Si Si2 0.298013 0.424969 0.475692
Si Si3 0.238411 0.617486 0.183874
Si Si4 0.520392 0.829400 0.709565
Si Si5 0.657679 0.663341 0.367508
Si Si6 0.992145 0.663518 0.112700
O O1 0.851095 0.647176 0.489967
O O2 0.933497 0.761519 0.572789
O O3 0.077158 0.821884 0.496052
O O4 0.325162 0.578907 0.499700
O O5 0.320558 0.422543 0.417696
O O6 0.215726 0.527770 0.233592
O O7 0.329395 0.761310 0.191164
O O8 0.321991 0.509115 0.147893
O O9 0.085163 0.656875 0.161569
O O10 0.403330 0.747540 0.676807
O O11 0.500000 0.000000 0.705294
O O12 0.703191 0.827810 0.378287
O O13 0.000000 0.500000 0.093077
#
# Coordination Sequence:
#
# PCOD9557761 Si02
#       6
#     8   8   8   8   8   8
#     4  11  24  42  61  92 133 172 220 265 324 400
#     4  11  25  40  62  93 126 167 219 273 320 394
#     4  10  23  42  70  93 130 171 214 276 334 398
#     4  11  24  42  64 102 130 164 219 277 332 393
#     4  11  22  41  65  97 121 171 219 266 333 386
#     4  10  21  42  69  91 126 180 218 264 338 398
#
# _framework density 20.135946000000001
#
# number of rings (size 3 to 8) (size 9 to 14) (size 15 to 20)
#    0.000    1.333    1.667    4.500    7.000    2.667 
#    0.000    0.000    0.000    2.000    0.000    0.000 
#    0.000    0.000    0.000    0.000    0.000    0.000 
#
# Total GULP energy -268216.757231 kJ/mol
# GULP energy per Si atom -5587.849109 kJ/mol
# Density = 2.009012 g / cm^3
# Si number density = 20.135946 Si / 1000 Ang^3
#
#
#
# Elastic Constant Matrix: (Units=GPa)
#
#
# Indices 1 2 3 4 5 6 
#
# 1 55.5344 20.7696 28.4614 0.0000 0.0000 0.0000
# 2 20.7696 55.5344 28.4614 0.0000 0.0000 0.0000
# 3 28.4614 28.4614 130.3422 0.0000 0.0000 0.0000
# 4 0.0000 0.0000 0.0000 39.9195 0.0000 0.0000
# 5 0.0000 0.0000 0.0000 0.0000 39.9195 0.0000
# 6 0.0000 0.0000 0.0000 0.0000 0.0000 34.4724
#
#
#
# Elastic Compliance Matrix: (Units=1/GPa)
#
#
# Indices 1 2 3 4 5 6 
#
# 1 0.022210 -0.006554 -0.003419 0.000000 0.000000 0.000000
# 2 -0.006554 0.022210 -0.003419 0.000000 0.000000 0.000000
# 3 -0.003419 -0.003419 0.009165 0.000000 0.000000 0.000000
# 4 0.000000 0.000000 0.000000 0.025050 0.000000 0.000000
# 5 0.000000 0.000000 0.000000 0.000000 0.025050 0.000000
# 6 0.000000 0.000000 0.000000 0.000000 0.000000 0.029009
#
#
# Mechanical properties :
#
#
# Convention : Reuss Voigt Hill
#
# Bulk Modulus (GPa) = 37.31032 44.08841 40.69937
# Shear Modulus (GPa) = 29.68902 33.77683 31.73292
#
# Velocity S-wave (km/s) = 3.84399 4.10010 3.97411
# Velocity P-wave (km/s) = 6.18637 6.66013 6.42762
#
# Compressibility (1/GPa) = 0.02680224
#
# Stress axis : x y z
#
# Youngs Moduli (GPa) = 45.02432 45.02432 109.10999
#
# Poissons Ratio (x) = 0.29511 0.37300
# Poissons Ratio (y) = 0.29511 0.37300
# Poissons Ratio (z) = 0.15392 0.15392
#
# Static dielectric constant tensor:
#      x y z
#    x 1.703030 0.000000 0.000000 
#    y 0.000000 1.703030 0.000000 
#    z 0.000000 0.000000 1.708920 
# 
# From -- ./inp_files/5229.got.cif
#   From: 2010.05.17/outbox.cif.g08.bks.cpg/sg116_3_cif.got.tgz:5229.got - 2010.05.20 11:11:43.
