data_PCOD9557961
_publ_section_title
;
Structure prediction by ZEFSAII (Michael W. Deem and Ramdas Pophale) SiO2 
 PCOD9557961
Probable space group: P -4 C 2
;
_chemical_formula_sum "Si O2"
_cell_formula_units_Z 48
_cell_length_a 9.779582
_cell_length_b 9.779582
_cell_length_c 24.005933
_cell_angle_alpha 90.000000
_cell_angle_beta 90.000000
_cell_angle_gamma 90.000000
_cell_volume 2295.932812
_symmetry_space_group_name_H-M "P -4 C 2"
_symmetry_group_IT_number 116
_symmetry_cell_setting 'tetragonal'
loop_
_space_group_symop_operation_xyz
x,y,z
y,-x,-z
-x,-y,z
-y,x,-z
y,x,1/2-z
-y,-x,1/2-z
-x,y,1/2+z
x,-y,1/2+z
loop_
_atom_site_type_symbol
_atom_site_label
_atom_site_fract_x
_atom_site_fract_y
_atom_site_fract_z
Si Si1 0.519445 0.845584 0.031648
Si Si2 0.405803 0.121049 0.846450
Si Si3 0.569971 0.646169 0.626421
Si Si4 0.172999 0.766912 0.505494
Si Si5 0.506106 0.274938 0.740654
Si Si6 0.951522 0.859092 0.596485
O O1 0.483167 0.721292 0.072281
O O2 0.673997 0.824196 0.012311
O O3 0.500000 0.000000 0.054571
O O4 0.396411 0.832489 0.987524
O O5 0.391801 0.269956 0.874990
O O6 0.466462 0.159834 0.785415
O O7 0.500000 0.000000 0.870127
O O8 0.253264 0.065817 0.855898
O O9 0.500000 0.500000 0.636006
O O10 0.523942 0.749727 0.675908
O O11 0.069133 0.823838 0.551272
O O12 0.129154 0.817093 0.443373
O O13 0.394652 0.394652 0.750000
O O14 0.654230 0.345770 0.750000
O O15 0.000000 0.000000 0.622250
#
# Coordination Sequence:
#
# PCOD9557961 Si02
#       6
#     8   8   8   8   8   8
#     4  12  27  42  63 100 132 179 235 286 336 412
#     4  11  25  40  71 105 129 177 234 283 338 421
#     4  11  23  43  71  98 131 176 226 292 354 399
#     4  12  25  43  64  93 138 182 231 280 341 402
#     4   9  17  41  69  93 128 169 218 281 352 400
#     4  12  23  44  66  92 140 194 225 267 349 420
#
# _framework density 20.906533
#
# number of rings (size 3 to 8) (size 9 to 14) (size 15 to 20)
#    0.000    0.833    8.333    0.000    7.000    0.667 
#    0.000    0.000   11.000    0.000    0.000    0.000 
#    0.000    0.000    0.000    0.000    0.000    0.000 
#
# Total GULP energy -267608.683850 kJ/mol
# GULP energy per Si atom -5575.180914 kJ/mol
# Density = 2.085895 g / cm^3
# Si number density = 20.906533 Si / 1000 Ang^3
#
#
#
# Elastic Constant Matrix: (Units=GPa)
#
#
# Indices 1 2 3 4 5 6 
#
# 1 116.2675 44.7867 17.6061 0.0000 0.0000 0.0000
# 2 44.7867 116.2675 17.6061 0.0000 0.0000 0.0000
# 3 17.6061 17.6061 44.9913 0.0000 0.0000 0.0000
# 4 0.0000 0.0000 0.0000 18.0899 0.0000 0.0000
# 5 0.0000 0.0000 0.0000 0.0000 18.0899 0.0000
# 6 0.0000 0.0000 0.0000 0.0000 0.0000 31.1244
#
#
#
# Elastic Compliance Matrix: (Units=1/GPa)
#
#
# Indices 1 2 3 4 5 6 
#
# 1 0.010390 -0.003600 -0.002657 0.000000 0.000000 0.000000
# 2 -0.003600 0.010390 -0.002657 0.000000 0.000000 0.000000
# 3 -0.002657 -0.002657 0.024306 0.000000 0.000000 0.000000
# 4 0.000000 0.000000 0.000000 0.055279 0.000000 0.000000
# 5 0.000000 0.000000 0.000000 0.000000 0.055279 0.000000
# 6 0.000000 0.000000 0.000000 0.000000 0.000000 0.032129
#
#
# Mechanical properties :
#
#
# Convention : Reuss Voigt Hill
#
# Bulk Modulus (GPa) = 36.68675 48.61376 42.65026
# Shear Modulus (GPa) = 23.28964 26.62935 24.95950
#
# Velocity S-wave (km/s) = 3.34127 3.57281 3.45898
# Velocity P-wave (km/s) = 5.69838 6.35007 6.03303
#
# Compressibility (1/GPa) = 0.02725780
#
# Stress axis : x y z
#
# Youngs Moduli (GPa) = 96.24739 96.24739 41.14196
#
# Poissons Ratio (x) = 0.34648 0.10932
# Poissons Ratio (y) = 0.34648 0.10932
# Poissons Ratio (z) = 0.25574 0.25574
#
# Static dielectric constant tensor:
#      x y z
#    x 1.762880 0.000000 0.000000 
#    y 0.000000 1.762880 0.000000 
#    z 0.000000 0.000000 1.860860 
# 
# From -- ./inp_files/5265.got.cif
#   From: 2010.05.17/outbox.cif.g08.bks.cpg/sg116_3_cif.got.tgz:5265.got - 2010.05.20 11:11:43.
