data_PCOD9557317
_publ_section_title
;
Structure prediction by ZEFSAII (Michael W. Deem and Ramdas Pophale) SiO2 
 PCOD9557317
Probable space group: P -4 M 2
;
_chemical_formula_sum "Si O2"
_cell_formula_units_Z 48
_cell_length_a 9.064176
_cell_length_b 9.064176
_cell_length_c 31.560485
_cell_angle_alpha 90.000000
_cell_angle_beta 90.000000
_cell_angle_gamma 90.000000
_cell_volume 2592.986931
_symmetry_space_group_name_H-M "P -4 M 2"
_symmetry_group_IT_number 115
_symmetry_cell_setting 'tetragonal'
loop_
_space_group_symop_operation_xyz
x,y,z
y,-x,-z
-x,-y,z
-y,x,-z
y,x,-z
-y,-x,-z
-x,y,z
x,-y,z
loop_
_atom_site_type_symbol
_atom_site_label
_atom_site_fract_x
_atom_site_fract_y
_atom_site_fract_z
Si Si1 0.175031 0.175332 0.628328
Si Si2 0.175818 0.675839 0.959206
Si Si3 0.824478 0.674807 0.540121
Si Si4 0.824289 0.324668 0.122187
Si Si5 0.825250 0.676596 0.797137
Si Si6 0.676210 0.326380 0.291533
O O1 0.222022 0.248849 0.584046
O O2 0.261379 0.241556 0.667952
O O3 0.000000 0.206137 0.633810
O O4 0.194856 0.000000 0.625917
O O5 0.200825 0.500000 0.960132
O O6 0.246654 0.744816 0.917184
O O7 0.000000 0.701330 0.959454
O O8 0.249316 0.750684 0.000000
O O9 0.741022 0.741022 0.500000
O O10 0.801266 0.500000 0.543079
O O11 0.000000 0.702175 0.534907
O O12 0.796274 0.500000 0.121002
O O13 0.761447 0.256440 0.165395
O O14 0.000000 0.301287 0.119414
O O15 0.803245 0.500000 0.802696
O O16 0.758801 0.717660 0.751460
O O17 0.000000 0.705445 0.798339
O O18 0.500000 0.307205 0.297488
O O19 0.706076 0.500000 0.286604
#
# Coordination Sequence:
#
# PCOD9557317 Si02
#       6
#     8   8   8   8   8   8
#     4  10  21  37  58  83 111 146 187 230 278 332
#     4  11  24  41  62  89 119 152 193 238 285 339
#     4  10  21  37  58  83 111 145 185 229 278 332
#     4  11  24  40  59  86 119 154 193 236 283 337
#     4  10  21  38  61  87 114 148 191 236 283 337
#     4  10  21  37  58  84 114 149 188 231 281 335
#
# _framework density 18.511472000000001
#
# number of rings (size 3 to 8) (size 9 to 14) (size 15 to 20)
#    0.000    1.667    0.000    4.000    0.000   12.000 
#    0.000    0.000    0.000    0.000    0.000    0.000 
#    0.000    0.000    0.000    0.000    0.000    0.000 
#
# Total GULP energy -268378.310661 kJ/mol
# GULP energy per Si atom -5591.214805 kJ/mol
# Density = 1.846934 g / cm^3
# Si number density = 18.511472 Si / 1000 Ang^3
#
#
#
# Elastic Constant Matrix: (Units=GPa)
#
#
# Indices 1 2 3 4 5 6 
#
# 1 95.4883 89.8406 94.3164 0.0000 0.0000 0.0000
# 2 89.8406 95.4883 94.3164 0.0000 0.0000 0.0000
# 3 94.3164 94.3164 193.6340 0.0000 0.0000 0.0000
# 4 0.0000 0.0000 0.0000 42.0902 0.0000 0.0000
# 5 0.0000 0.0000 0.0000 0.0000 42.0902 0.0000
# 6 0.0000 0.0000 0.0000 0.0000 0.0000 31.6712
#
#
#
# Elastic Compliance Matrix: (Units=1/GPa)
#
#
# Indices 1 2 3 4 5 6 
#
# 1 0.093882 -0.083181 -0.005212 0.000000 0.000000 0.000000
# 2 -0.083181 0.093882 -0.005212 0.000000 0.000000 0.000000
# 3 -0.005212 -0.005212 0.010242 0.000000 0.000000 0.000000
# 4 0.000000 0.000000 0.000000 0.023759 0.000000 0.000000
# 5 0.000000 0.000000 0.000000 0.000000 0.023759 0.000000
# 6 0.000000 0.000000 0.000000 0.000000 0.000000 0.031574
#
#
# Mechanical properties :
#
#
# Convention : Reuss Voigt Hill
#
# Bulk Modulus (GPa) = 92.63648 104.61747 98.62698
# Shear Modulus (GPa) = 10.68585 30.24614 20.46600
#
# Velocity S-wave (km/s) = 2.40522 4.04655 3.32864
# Velocity P-wave (km/s) = 7.60689 8.85835 8.25637
#
# Compressibility (1/GPa) = 0.01079488
#
# Stress axis : x y z
#
# Youngs Moduli (GPa) = 10.65163 10.65163 97.63624
#
# Poissons Ratio (x) = 0.88602 0.50891
# Poissons Ratio (y) = 0.88602 0.50891
# Poissons Ratio (z) = 0.05552 0.05552
#
# Static dielectric constant tensor:
#      x y z
#    x 1.618950 0.000000 0.000000 
#    y 0.000000 1.618950 0.000000 
#    z 0.000000 0.000000 1.594080 
# 
# From -- ./inp_files/5904.got.cif
#   From: 2010.05.17/outbox.cif.g08.bks.cpg/sg115_3_cif.got.tgz:5904.got - 2010.05.20 11:07:42.
