data_PCOD9557635
_publ_section_title
;
Structure prediction by ZEFSAII (Michael W. Deem and Ramdas Pophale) SiO2 
 PCOD9557635
Probable space group: P -4 C 2
;
_chemical_formula_sum "Si O2"
_cell_formula_units_Z 64
_cell_length_a 21.856110
_cell_length_b 21.856110
_cell_length_c 9.042218
_cell_angle_alpha 90.000000
_cell_angle_beta 90.000000
_cell_angle_gamma 90.000000
_cell_volume 4319.372996
_symmetry_space_group_name_H-M "P -4 C 2"
_symmetry_group_IT_number 116
_symmetry_cell_setting 'tetragonal'
loop_
_space_group_symop_operation_xyz
x,y,z
y,-x,-z
-x,-y,z
-y,x,-z
y,x,1/2-z
-y,-x,1/2-z
-x,y,1/2+z
x,-y,1/2+z
loop_
_atom_site_type_symbol
_atom_site_label
_atom_site_fract_x
_atom_site_fract_y
_atom_site_fract_z
Si Si1 0.919466 0.466780 0.972603
Si Si2 0.481942 0.702951 0.056317
Si Si3 0.321274 0.703815 0.417035
Si Si4 0.221448 0.630267 0.577907
Si Si5 0.597927 0.208456 0.582964
Si Si6 0.595096 0.003097 0.274075
Si Si7 0.558150 0.634077 0.842621
Si Si8 0.913033 0.385725 0.477479
O O1 0.856095 0.430947 0.959450
O O2 0.909662 0.539509 0.973156
O O3 0.961171 0.444048 0.837186
O O4 0.954931 0.445771 0.118880
O O5 0.431877 0.743884 0.973087
O O6 0.542045 0.743644 0.078729
O O7 0.456856 0.683696 0.215596
O O8 0.504430 0.643785 0.961445
O O9 0.296735 0.703266 0.250000
O O10 0.268721 0.682457 0.528498
O O11 0.352099 0.766568 0.468242
O O12 0.377240 0.654067 0.416480
O O13 0.208969 0.625158 0.752170
O O14 0.156095 0.636226 0.496944
O O15 0.632246 0.049743 0.169549
O O16 0.629731 0.955958 0.382051
O O17 0.572393 0.572393 0.750000
#
# Coordination Sequence:
#
# PCOD9557635 Si02
#       8
#     8   8   8   8   8   8   8   8
#     4  11  19  31  46  67  96 125 159 184 227 273
#     4  11  20  33  52  71  90 108 147 179 230 293
#     4  10  22  37  52  70  94 109 145 196 248 283
#     4  12  21  34  50  75  93 119 151 193 238 288
#     4  11  23  33  51  73  93 118 152 194 236 292
#     4  10  21  32  42  67  99 133 153 187 221 263
#     4  10  20  36  52  71  84 110 132 184 235 293
#     4  11  20  30  49  67 100 127 159 186 223 279
#
# _framework density 14.816964
#
# number of rings (size 3 to 8) (size 9 to 14) (size 15 to 20)
#    0.000    1.250    6.250    3.375    1.750    0.000 
#    0.000    0.625    0.000    1.125    0.000    0.000 
#    0.000    0.000    0.000    0.000    0.000    0.000 
#
# Total GULP energy -357030.898929 kJ/mol
# GULP energy per Si atom -5578.607796 kJ/mol
# Density = 1.478324 g / cm^3
# Si number density = 14.816964 Si / 1000 Ang^3
#
#
#
# Elastic Constant Matrix: (Units=GPa)
#
#
# Indices 1 2 3 4 5 6 
#
# 1 54.5705 27.8244 15.7580 0.0000 0.0000 0.0000
# 2 27.8244 54.5706 15.7581 0.0000 0.0000 0.0000
# 3 15.7580 15.7581 64.0264 0.0000 0.0000 0.0000
# 4 0.0000 0.0000 0.0000 16.4026 0.0000 0.0000
# 5 0.0000 0.0000 0.0000 0.0000 16.4027 0.0000
# 6 0.0000 0.0000 0.0000 0.0000 0.0000 11.8815
#
#
#
# Elastic Compliance Matrix: (Units=1/GPa)
#
#
# Indices 1 2 3 4 5 6 
#
# 1 0.025393 -0.011995 -0.003297 0.000000 0.000000 0.000000
# 2 -0.011995 0.025393 -0.003298 0.000000 0.000000 0.000000
# 3 -0.003297 -0.003298 0.017242 0.000000 0.000000 0.000000
# 4 0.000000 0.000000 0.000000 0.060966 0.000000 0.000000
# 5 0.000000 0.000000 0.000000 0.000000 0.060966 0.000000
# 6 0.000000 0.000000 0.000000 0.000000 0.000000 0.084165
#
#
# Mechanical properties :
#
#
# Convention : Reuss Voigt Hill
#
# Bulk Modulus (GPa) = 32.41732 32.42759 32.42245
# Shear Modulus (GPa) = 15.54787 16.52582 16.03685
#
# Velocity S-wave (km/s) = 3.24285 3.34328 3.29345
# Velocity P-wave (km/s) = 5.99562 6.06929 6.03257
#
# Compressibility (1/GPa) = 0.03084771
#
# Stress axis : x y z
#
# Youngs Moduli (GPa) = 39.38053 39.38052 57.99898
#
# Poissons Ratio (x) = 0.47238 0.19125
# Poissons Ratio (y) = 0.47238 0.19125
# Poissons Ratio (z) = 0.12985 0.12986
#
# Static dielectric constant tensor:
#      x y z
#    x 1.488840 0.000000 0.000000 
#    y 0.000000 1.488840 0.000000 
#    z 0.000000 0.000000 1.539810 
# 
# From -- ./inp_files/1141.got.cif
#   From: 2010.05.17/outbox.cif.g08.bks.cpg/sg116_1_cif.got.tgz:1141.got - 2010.05.20 11:11:43.
