data_PCOD9557379
_publ_section_title
;
Structure prediction by ZEFSAII (Michael W. Deem and Ramdas Pophale) SiO2 
 PCOD9557379
Probable space group: P -4 M 2
;
_chemical_formula_sum "Si O2"
_cell_formula_units_Z 48
_cell_length_a 13.617837
_cell_length_b 13.617837
_cell_length_c 13.316477
_cell_angle_alpha 90.000000
_cell_angle_beta 90.000000
_cell_angle_gamma 90.000000
_cell_volume 2469.480530
_symmetry_space_group_name_H-M "P -4 M 2"
_symmetry_group_IT_number 115
_symmetry_cell_setting 'tetragonal'
loop_
_space_group_symop_operation_xyz
x,y,z
y,-x,-z
-x,-y,z
-y,x,-z
y,x,-z
-y,-x,-z
-x,y,z
x,-y,z
loop_
_atom_site_type_symbol
_atom_site_label
_atom_site_fract_x
_atom_site_fract_y
_atom_site_fract_z
Si Si1 0.882897 0.382252 0.829001
Si Si2 0.386894 0.106850 0.392121
Si Si3 0.382293 0.114327 0.778198
Si Si4 0.307458 0.798761 0.576386
Si Si5 0.695039 0.312561 0.109363
Si Si6 0.608360 0.617307 0.315685
O O1 0.864689 0.500000 0.843314
O O2 0.857497 0.347117 0.714651
O O3 0.000000 0.367431 0.844235
O O4 0.805545 0.319982 0.892297
O O5 0.500000 0.095236 0.365749
O O6 0.383555 0.162928 0.495275
O O7 0.341688 0.000000 0.411805
O O8 0.500000 0.131243 0.758492
O O9 0.319575 0.135834 0.676310
O O10 0.346988 0.195058 0.859555
O O11 0.371430 0.000000 0.807467
O O12 0.213648 0.786353 0.500000
O O13 0.335429 0.691453 0.615989
O O14 0.629960 0.354616 0.200535
O O15 0.657406 0.342595 0.000000
O O16 0.500000 0.652331 0.344347
O O17 0.612908 0.500000 0.325864
#
# Coordination Sequence:
#
# PCOD9557379 Si02
#       6
#     8   8   8   8   8   8
#     4   9  19  35  55  82 114 143 175 223 281 338
#     4   9  16  28  49  74  98 128 167 210 257 308
#     4  10  22  40  59  82 116 154 192 237 288 343
#     4  11  20  30  49  76 107 144 183 222 262 314
#     4  11  22  36  57  81 104 137 185 241 295 341
#     4  10  22  36  47  68 108 153 191 225 266 323
#
# _framework density 19.437286
#
# number of rings (size 3 to 8) (size 9 to 14) (size 15 to 20)
#    0.000    2.000    0.000    7.000    0.000    8.000 
#    0.000    3.333    0.000    0.500    0.000    1.167 
#    0.000    4.333    0.000    0.000    0.000    0.000 
#
# Total GULP energy -267237.195674 kJ/mol
# GULP energy per Si atom -5567.441577 kJ/mol
# Density = 1.939305 g / cm^3
# Si number density = 19.437286 Si / 1000 Ang^3
#
#
#
# Elastic Constant Matrix: (Units=GPa)
#
#
# Indices 1 2 3 4 5 6 
#
# 1 66.0817 23.0159 0.0648 0.0000 0.0000 0.0000
# 2 23.0159 66.0809 0.0645 0.0000 0.0000 0.0000
# 3 0.0648 0.0645 66.6434 0.0000 0.0000 0.0000
# 4 0.0000 0.0000 0.0000 3.2138 0.0000 0.0000
# 5 0.0000 0.0000 0.0000 0.0000 3.2141 0.0000
# 6 0.0000 0.0000 0.0000 0.0000 0.0000 20.2570
#
#
#
# Elastic Compliance Matrix: (Units=1/GPa)
#
#
# Indices 1 2 3 4 5 6 
#
# 1 0.017222 -0.005998 -0.000011 0.000000 0.000000 0.000000
# 2 -0.005998 0.017222 -0.000011 0.000000 0.000000 0.000000
# 3 -0.000011 -0.000011 0.015005 0.000000 0.000000 0.000000
# 4 0.000000 0.000000 0.000000 0.311160 0.000000 0.000000
# 5 0.000000 0.000000 0.000000 0.000000 0.311133 0.000000
# 6 0.000000 0.000000 0.000000 0.000000 0.000000 0.049366
#
#
# Mechanical properties :
#
#
# Convention : Reuss Voigt Hill
#
# Bulk Modulus (GPa) = 26.73143 27.23293 26.98218
# Shear Modulus (GPa) = 6.70584 17.04768 11.87676
#
# Velocity S-wave (km/s) = 1.85943 2.96473 2.47458
# Velocity P-wave (km/s) = 4.28865 5.07549 4.69857
#
# Compressibility (1/GPa) = 0.03740914
#
# Stress axis : x y z
#
# Youngs Moduli (GPa) = 58.06526 58.06459 66.64328
#
# Poissons Ratio (x) = 0.34829 0.00073
# Poissons Ratio (y) = 0.34830 0.00072
# Poissons Ratio (z) = 0.00064 0.00063
#
# Static dielectric constant tensor:
#      x y z
#    x 1.752090 0.000000 0.000000 
#    y 0.000000 1.752090 0.000000 
#    z 0.000000 0.000000 1.692350 
# 
# From -- ./inp_files/2905.got.cif
#   From: 2010.05.17/outbox.cif.g08.bks.cpg/sg115_2_cif.got.tgz:2905.got - 2010.05.20 11:07:42.
