data_PCOD9557357
_publ_section_title
;
Structure prediction by ZEFSAII (Michael W. Deem and Ramdas Pophale) SiO2 
 PCOD9557357
Probable space group: P -4 M 2
;
_chemical_formula_sum "Si O2"
_cell_formula_units_Z 44
_cell_length_a 7.924316
_cell_length_b 7.924316
_cell_length_c 33.515937
_cell_angle_alpha 90.000000
_cell_angle_beta 90.000000
_cell_angle_gamma 90.000000
_cell_volume 2104.626027
_symmetry_space_group_name_H-M "P -4 M 2"
_symmetry_group_IT_number 115
_symmetry_cell_setting 'tetragonal'
loop_
_space_group_symop_operation_xyz
x,y,z
y,-x,-z
-x,-y,z
-y,x,-z
y,x,-z
-y,-x,-z
-x,y,z
x,-y,z
loop_
_atom_site_type_symbol
_atom_site_label
_atom_site_fract_x
_atom_site_fract_y
_atom_site_fract_z
Si Si1 0.500000 0.208162 0.268744
Si Si2 0.202609 0.306707 0.127346
Si Si3 0.200035 0.500000 0.640413
Si Si4 0.702959 0.694999 0.042486
Si Si5 0.298227 0.298227 0.500000
Si Si6 0.815645 0.703338 0.413563
Si Si7 0.199976 0.191499 0.784988
O O1 0.500000 0.266655 0.314437
O O2 0.667580 0.265713 0.245275
O O3 0.500000 0.000000 0.268027
O O4 0.266746 0.500000 0.128237
O O5 0.256010 0.225977 0.085263
O O6 0.250585 0.225118 0.169299
O O7 0.000000 0.309245 0.126781
O O8 0.250000 0.664861 0.615568
O O9 0.000000 0.500000 0.643546
O O10 0.500000 0.690289 0.039116
O O11 0.765496 0.500000 0.044967
O O12 0.766136 0.766136 0.000000
O O13 0.271167 0.500000 0.503459
O O14 0.217810 0.236480 0.458830
O O15 0.816542 0.500000 0.415842
O O16 0.000000 0.761478 0.399828
O O17 0.000000 0.179375 0.778217
O O18 0.270399 0.000000 0.780775
#
# Coordination Sequence:
#
# PCOD9557357 Si02
#       7
#     4   8   4   8   4   8   8
#     4   9  20  37  57  79 103 141 185 225 275 337
#     4   9  17  29  46  69  97 125 157 204 259 311
#     4  11  23  39  59  85 121 155 195 251 299 351
#     4   8  14  25  41  61  87 122 160 194 236 298
#     4   9  16  32  58  85 114 156 199 242 289 344
#     4  10  21  38  61  87 119 160 201 242 295 355
#     4   9  18  34  54  74  99 131 171 220 273 328
#
# _framework density 20.906328999999999
#
# number of rings (size 3 to 8) (size 9 to 14) (size 15 to 20)
#    0.000    2.818    0.909    0.818    1.273    1.818 
#    0.000    4.545    0.000    3.273    0.000    0.000 
#    0.000    0.000    0.000    0.000    0.000    0.000 
#
# Total GULP energy -245312.506975 kJ/mol
# GULP energy per Si atom -5575.284249 kJ/mol
# Density = 2.085875 g / cm^3
# Si number density = 20.906329 Si / 1000 Ang^3
#
#
#
# Elastic Constant Matrix: (Units=GPa)
#
#
# Indices 1 2 3 4 5 6 
#
# 1 54.0737 25.8073 55.1078 0.0000 0.0000 0.0000
# 2 25.8073 54.0737 55.1078 0.0000 0.0000 0.0000
# 3 55.1078 55.1078 209.5955 0.0000 0.0000 0.0000
# 4 0.0000 0.0000 0.0000 34.0732 0.0000 0.0000
# 5 0.0000 0.0000 0.0000 0.0000 34.0732 0.0000
# 6 0.0000 0.0000 0.0000 0.0000 0.0000 2.8654
#
#
#
# Elastic Compliance Matrix: (Units=1/GPa)
#
#
# Indices 1 2 3 4 5 6 
#
# 1 0.027511 -0.007866 -0.005165 0.000000 0.000000 0.000000
# 2 -0.007866 0.027511 -0.005165 0.000000 0.000000 0.000000
# 3 -0.005165 -0.005165 0.007487 0.000000 0.000000 0.000000
# 4 0.000000 0.000000 0.000000 0.029349 0.000000 0.000000
# 5 0.000000 0.000000 0.000000 0.000000 0.029349 0.000000
# 6 0.000000 0.000000 0.000000 0.000000 0.000000 0.348990
#
#
# Mechanical properties :
#
#
# Convention : Reuss Voigt Hill
#
# Bulk Modulus (GPa) = 38.28928 65.53208 51.91068
# Shear Modulus (GPa) = 9.70316 26.31702 18.01009
#
# Velocity S-wave (km/s) = 2.15669 3.55182 2.93826
# Velocity P-wave (km/s) = 4.95542 6.94508 6.03284
#
# Compressibility (1/GPa) = 0.02611697
#
# Stress axis : x y z
#
# Youngs Moduli (GPa) = 36.34844 36.34844 133.56068
#
# Poissons Ratio (x) = 0.28592 0.68987
# Poissons Ratio (y) = 0.28592 0.68987
# Poissons Ratio (z) = 0.18775 0.18775
#
# Static dielectric constant tensor:
#      x y z
#    x 1.757240 0.000000 0.000000 
#    y 0.000000 1.757240 0.000000 
#    z 0.000000 0.000000 1.764190 
# 
# From -- ./inp_files/5882.got.cif
#   From: 2010.05.17/outbox.cif.g08.bks.cpg/sg115_3_cif.got.tgz:5882.got - 2010.05.20 11:07:42.
