data_PCOD9557564
_publ_section_title
;
Structure prediction by ZEFSAII (Michael W. Deem and Ramdas Pophale) SiO2 
 PCOD9557564
Probable space group: P -4 C 2
;
_chemical_formula_sum "Si O2"
_cell_formula_units_Z 64
_cell_length_a 21.259015
_cell_length_b 21.259015
_cell_length_c 8.264480
_cell_angle_alpha 90.000000
_cell_angle_beta 90.000000
_cell_angle_gamma 90.000000
_cell_volume 3735.096354
_symmetry_space_group_name_H-M "P -4 C 2"
_symmetry_group_IT_number 116
_symmetry_cell_setting 'tetragonal'
loop_
_space_group_symop_operation_xyz
x,y,z
y,-x,-z
-x,-y,z
-y,x,-z
y,x,1/2-z
-y,-x,1/2-z
-x,y,1/2+z
x,-y,1/2+z
loop_
_atom_site_type_symbol
_atom_site_label
_atom_site_fract_x
_atom_site_fract_y
_atom_site_fract_z
Si Si1 0.324449 0.226345 0.283993
Si Si2 0.874106 0.591723 0.793791
Si Si3 0.578995 0.331791 0.658221
Si Si4 0.387087 0.898451 0.697440
Si Si5 0.237339 0.667097 0.330722
Si Si6 0.699155 0.547375 0.662207
Si Si7 0.988609 0.575876 0.598769
Si Si8 0.485889 0.824357 0.509553
O O1 0.256520 0.256520 0.250000
O O2 0.376267 0.270486 0.192437
O O3 0.333384 0.153989 0.227833
O O4 0.332295 0.237143 0.475824
O O5 0.836028 0.656745 0.780629
O O6 0.947947 0.587047 0.764944
O O7 0.853458 0.549520 0.641662
O O8 0.847224 0.555246 0.949241
O O9 0.612814 0.387187 0.750000
O O10 0.577500 0.347165 0.467960
O O11 0.510102 0.324154 0.733495
O O12 0.390847 0.945799 0.540560
O O13 0.445768 0.851828 0.659524
O O14 0.394958 0.944392 0.850937
O O15 0.274636 0.725365 0.250000
O O16 0.270826 0.603564 0.265453
O O17 0.751921 0.518872 0.538067
O O18 0.000000 0.500000 0.571154
#
# Coordination Sequence:
#
# PCOD9557564 Si02
#       8
#     8   8   8   8   8   8   8   8
#     4  11  24  40  58  80 113 147 198 250 297 342
#     4  10  22  32  53  73 113 143 185 230 282 344
#     4  11  22  37  59  81 106 137 180 243 302 367
#     4  11  24  36  54  78 116 153 192 233 290 339
#     4  11  24  37  59  82 106 143 195 245 302 348
#     4  11  21  37  56  82 104 134 177 242 300 363
#     4  11  23  36  52  81 118 155 194 235 289 357
#     4  10  19  32  50  75 103 139 182 221 284 336
#
# _framework density 17.134765999999999
#
# number of rings (size 3 to 8) (size 9 to 14) (size 15 to 20)
#    0.000    1.250    2.500    4.875    8.750    0.000 
#    0.000    0.000    0.000    3.000    0.000    0.000 
#    0.000    0.000    0.000    0.000    0.000    5.000 
#
# Total GULP energy -356624.507179 kJ/mol
# GULP energy per Si atom -5572.257925 kJ/mol
# Density = 1.709577 g / cm^3
# Si number density = 17.134766 Si / 1000 Ang^3
#
#
#
# Elastic Constant Matrix: (Units=GPa)
#
#
# Indices 1 2 3 4 5 6 
#
# 1 76.1756 36.1719 27.6553 0.0000 0.0000 0.0000
# 2 36.1719 76.1733 27.6565 0.0000 0.0000 0.0000
# 3 27.6553 27.6565 90.8237 0.0000 0.0000 0.0000
# 4 0.0000 0.0000 0.0000 22.7727 0.0000 0.0000
# 5 0.0000 0.0000 0.0000 0.0000 22.7726 0.0000
# 6 0.0000 0.0000 0.0000 0.0000 0.0000 18.9908
#
#
#
# Elastic Compliance Matrix: (Units=1/GPa)
#
#
# Indices 1 2 3 4 5 6 
#
# 1 0.017734 -0.007264 -0.003188 0.000000 0.000000 0.000000
# 2 -0.007264 0.017735 -0.003189 0.000000 0.000000 0.000000
# 3 -0.003188 -0.003189 0.012952 0.000000 0.000000 0.000000
# 4 0.000000 0.000000 0.000000 0.043912 0.000000 0.000000
# 5 0.000000 0.000000 0.000000 0.000000 0.043912 0.000000
# 6 0.000000 0.000000 0.000000 0.000000 0.000000 0.052657
#
#
# Mechanical properties :
#
#
# Convention : Reuss Voigt Hill
#
# Bulk Modulus (GPa) = 47.30330 47.34889 47.32610
# Shear Modulus (GPa) = 22.39833 23.01980 22.70907
#
# Velocity S-wave (km/s) = 3.61943 3.66929 3.64445
# Velocity P-wave (km/s) = 6.71815 6.75610 6.73715
#
# Compressibility (1/GPa) = 0.02114017
#
# Stress axis : x y z
#
# Youngs Moduli (GPa) = 56.38822 56.38563 77.20779
#
# Poissons Ratio (x) = 0.40958 0.24614
# Poissons Ratio (y) = 0.40959 0.24619
# Poissons Ratio (z) = 0.17977 0.17979
#
# Static dielectric constant tensor:
#      x y z
#    x 1.675210 0.000000 0.000000 
#    y 0.000000 1.675210 0.000000 
#    z 0.000000 0.000000 1.714240 
# 
# From -- ./inp_files/1146.got.cif
#   From: 2010.05.17/outbox.cif.g08.bks.cpg/sg116_1_cif.got.tgz:1146.got - 2010.05.20 11:11:43.
