data_PCOD9557228
_publ_section_title
;
Structure prediction by ZEFSAII (Michael W. Deem and Ramdas Pophale) SiO2 
 PCOD9557228
Probable space group: P -4 M 2
;
_chemical_formula_sum "Si O2"
_cell_formula_units_Z 48
_cell_length_a 9.425505
_cell_length_b 9.425505
_cell_length_c 31.968668
_cell_angle_alpha 90.000000
_cell_angle_beta 90.000000
_cell_angle_gamma 90.000000
_cell_volume 2840.101085
_symmetry_space_group_name_H-M "P -4 M 2"
_symmetry_group_IT_number 115
_symmetry_cell_setting 'tetragonal'
loop_
_space_group_symop_operation_xyz
x,y,z
y,-x,-z
-x,-y,z
-y,x,-z
y,x,-z
-y,-x,-z
-x,y,z
x,-y,z
loop_
_atom_site_type_symbol
_atom_site_label
_atom_site_fract_x
_atom_site_fract_y
_atom_site_fract_z
Si Si1 0.331571 0.169242 0.536615
Si Si2 0.668446 0.831397 0.294695
Si Si3 0.166692 0.830779 0.621201
Si Si4 0.327327 0.836237 0.870505
Si Si5 0.668978 0.668437 0.211429
Si Si6 0.332678 0.829185 0.963723
O O1 0.256294 0.256294 0.500000
O O2 0.500000 0.194385 0.537459
O O3 0.259823 0.207100 0.580941
O O4 0.308306 0.000000 0.530085
O O5 0.500000 0.806260 0.300104
O O6 0.750181 0.789110 0.336730
O O7 0.716117 0.749088 0.253221
O O8 0.689524 0.000000 0.288803
O O9 0.000000 0.798313 0.613163
O O10 0.178178 0.000000 0.627688
O O11 0.500000 0.833962 0.871090
O O12 0.281112 0.745067 0.830857
O O13 0.284130 0.786075 0.916838
O O14 0.284133 0.000000 0.865345
O O15 0.500000 0.688521 0.207096
O O16 0.695592 0.500000 0.216163
O O17 0.500000 0.795275 0.967959
O O18 0.319468 0.000000 0.965890
O O19 0.245267 0.754733 0.000000
#
# Coordination Sequence:
#
# PCOD9557228 Si02
#       6
#     8   8   8   8   8   8
#     4  10  21  36  54  77 104 133 166 204 246 292
#     4   9  18  32  48  67  94 126 156 189 234 284
#     4   9  18  33  52  72  95 126 163 200 237 280
#     4   8  15  29  47  66  90 120 153 190 232 278
#     4   9  17  29  46  68  92 119 153 191 231 277
#     4   9  18  32  49  70  96 125 159 199 242 290
#
# _framework density 16.900807
#
# number of rings (size 3 to 8) (size 9 to 14) (size 15 to 20)
#    0.000    3.000    0.000    1.500    0.000    4.000 
#    0.000    4.167    0.000    3.000    0.000    0.000 
#    0.000    0.000    0.000    0.000    0.000    0.000 
#
# Total GULP energy -267491.040690 kJ/mol
# GULP energy per Si atom -5572.730014 kJ/mol
# Density = 1.686234 g / cm^3
# Si number density = 16.900807 Si / 1000 Ang^3
#
#
#
# Elastic Constant Matrix: (Units=GPa)
#
#
# Indices 1 2 3 4 5 6 
#
# 1 40.0516 39.5459 77.8119 0.0000 0.0000 0.0000
# 2 39.5459 40.0516 77.8119 0.0000 0.0000 0.0000
# 3 77.8119 77.8119 215.0924 0.0000 0.0000 0.0000
# 4 0.0000 0.0000 0.0000 36.2507 0.0000 0.0000
# 5 0.0000 0.0000 0.0000 0.0000 36.2507 0.0000
# 6 0.0000 0.0000 0.0000 0.0000 0.0000 19.7209
#
#
#
# Elastic Compliance Matrix: (Units=1/GPa)
#
#
# Indices 1 2 3 4 5 6 
#
# 1 1.010130 -0.967209 -0.015527 0.000000 0.000000 0.000000
# 2 -0.967209 1.010130 -0.015527 0.000000 0.000000 0.000000
# 3 -0.015527 -0.015527 0.015883 0.000000 0.000000 0.000000
# 4 0.000000 0.000000 0.000000 0.027586 0.000000 0.000000
# 5 0.000000 0.000000 0.000000 0.000000 0.027586 0.000000
# 6 0.000000 0.000000 0.000000 0.000000 0.000000 0.050708
#
#
# Mechanical properties :
#
#
# Convention : Reuss Voigt Hill
#
# Bulk Modulus (GPa) = 25.24208 76.17058 50.70633
# Shear Modulus (GPa) = 1.20431 25.11286 13.15859
#
# Velocity S-wave (km/s) = 0.84506 3.85892 2.79333
# Velocity P-wave (km/s) = 3.98999 8.06362 6.36168
#
# Compressibility (1/GPa) = 0.03961639
#
# Stress axis : x y z
#
# Youngs Moduli (GPa) = 0.98997 0.98997 62.95959
#
# Poissons Ratio (x) = 0.95751 0.97757
# Poissons Ratio (y) = 0.95751 0.97757
# Poissons Ratio (z) = 0.01537 0.01537
#
# Static dielectric constant tensor:
#      x y z
#    x 1.562290 0.000000 0.000000 
#    y 0.000000 1.562290 0.000000 
#    z 0.000000 0.000000 1.558440 
# 
# From -- ./inp_files/5894.got.cif
#   From: 2010.05.17/outbox.cif.g08.bks.cpg/sg115_3_cif.got.tgz:5894.got - 2010.05.20 11:07:42.
