data_PCOD9557137
_publ_section_title
;
Structure prediction by ZEFSAII (Michael W. Deem and Ramdas Pophale) SiO2 
 PCOD9557137
Probable space group: P -4 M 2
;
_chemical_formula_sum "Si O2"
_cell_formula_units_Z 48
_cell_length_a 9.432462
_cell_length_b 9.432462
_cell_length_c 31.963271
_cell_angle_alpha 90.000000
_cell_angle_beta 90.000000
_cell_angle_gamma 90.000000
_cell_volume 2843.815032
_symmetry_space_group_name_H-M "P -4 M 2"
_symmetry_group_IT_number 115
_symmetry_cell_setting 'tetragonal'
loop_
_space_group_symop_operation_xyz
x,y,z
y,-x,-z
-x,-y,z
-y,x,-z
y,x,-z
-y,-x,-z
-x,y,z
x,-y,z
loop_
_atom_site_type_symbol
_atom_site_label
_atom_site_fract_x
_atom_site_fract_y
_atom_site_fract_z
Si Si1 0.331816 0.668185 0.000000
Si Si2 0.672394 0.663439 0.334898
Si Si3 0.829809 0.166847 0.167978
Si Si4 0.669687 0.669206 0.759032
Si Si5 0.830930 0.668021 0.583353
Si Si6 0.169381 0.666813 0.084030
Si Si7 0.831353 0.831353 0.500000
O O1 0.289077 0.751868 0.958356
O O2 0.500000 0.691043 0.006292
O O3 0.500000 0.666109 0.334549
O O4 0.715452 0.500000 0.340494
O O5 0.714928 0.710518 0.288263
O O6 0.718972 0.755932 0.374230
O O7 0.752173 0.244907 0.205920
O O8 0.789200 0.241384 0.124252
O O9 0.000000 0.182825 0.172467
O O10 0.796874 0.000000 0.167247
O O11 0.500000 0.691879 0.763304
O O12 0.693961 0.500000 0.762821
O O13 0.802464 0.500000 0.578399
O O14 0.784502 0.750206 0.541763
O O15 0.000000 0.686007 0.587633
O O16 0.201139 0.500000 0.091674
O O17 0.000000 0.679645 0.078308
O O18 0.000000 0.808254 0.494793
#
# Coordination Sequence:
#
# PCOD9557137 Si02
#       7
#     4   8   8   8   8   8   4
#     4   9  18  32  50  73  98 122 154 199 244 285
#     4   8  15  29  48  70  95 120 149 189 235 281
#     4  10  21  35  50  72 102 133 166 204 244 287
#     4   9  18  33  53  75  98 127 163 201 243 292
#     4   9  17  29  46  67  89 116 151 188 226 271
#     4   9  18  33  51  69  93 128 163 194 237 291
#     4   9  18  32  46  61  88 124 154 183 226 276
#
# _framework density 16.878734000000001
#
# number of rings (size 3 to 8) (size 9 to 14) (size 15 to 20)
#    0.000    3.000    0.000    1.500    0.000    4.000 
#    0.000    4.167    0.000    3.000    0.000    0.000 
#    0.000    0.000    0.000    0.000    0.000    0.000 
#
# Total GULP energy -267491.673493 kJ/mol
# GULP energy per Si atom -5572.743198 kJ/mol
# Density = 1.684032 g / cm^3
# Si number density = 16.878734 Si / 1000 Ang^3
#
#
#
# Elastic Constant Matrix: (Units=GPa)
#
#
# Indices 1 2 3 4 5 6 
#
# 1 41.5601 41.0044 80.1138 0.0000 0.0000 0.0000
# 2 41.0044 41.5599 80.1139 0.0000 0.0000 0.0000
# 3 80.1138 80.1139 219.7654 0.0000 0.0000 0.0000
# 4 0.0000 0.0000 0.0000-1315.4998 0.0000 0.0000
# 5 0.0000 0.0000 0.0000 0.0000-1319.6275 0.0000
# 6 0.0000 0.0000 0.0000 0.0000 0.0000 20.0413
#
#
#
# Elastic Compliance Matrix: (Units=1/GPa)
#
#
# Indices 1 2 3 4 5 6 
#
# 1 0.920665 -0.879276 -0.015088 0.000000 0.000000 0.000000
# 2 -0.879276 0.920686 -0.015096 0.000000 0.000000 0.000000
# 3 -0.015088 -0.015096 0.015554 0.000000 0.000000 0.000000
# 4 0.000000 0.000000 0.000000 -0.000760 0.000000 0.000000
# 5 0.000000 0.000000 0.000000 0.000000 -0.000758 0.000000
# 6 0.000000 0.000000 0.000000 0.000000 0.000000 0.049897
#
#
# Mechanical properties :
#
#
# Convention : Reuss Voigt Hill
#
# Bulk Modulus (GPa) = 26.32589 78.37218 52.34904
# Shear Modulus (GPa) = 1.33802 -516.24031 -257.45114
#
# Velocity S-wave (km/s) = 0.89132 -17.50761 -12.36370
# Velocity P-wave (km/s) = 4.08536 19.03038 13.14278
#
# Compressibility (1/GPa) = 0.03798542
#
# Stress axis : x y z
#
# Youngs Moduli (GPa) = 1.08617 1.08615 64.29341
#
# Poissons Ratio (x) = 0.95502 0.97006
# Poissons Ratio (y) = 0.95504 0.97058
# Poissons Ratio (z) = 0.01639 0.01640
#
# Static dielectric constant tensor:
#      x y z
#    x 1.561530 0.000000 0.000000 
#    y 0.000000 1.561530 0.000000 
#    z 0.000000 0.000000 1.556460 
# 
# From -- ./inp_files/6219.got.cif
#   From: 2010.05.17/outbox.cif.g08.bks.cpg/sg115_4_cif.got.tgz:6219.got - 2010.05.20 11:07:42.
