data_PCOD9557987
_publ_section_title
;
Structure prediction by ZEFSAII (Michael W. Deem and Ramdas Pophale) SiO2 
 PCOD9557987
Probable space group: P -4 C 2
;
_chemical_formula_sum "Si O2"
_cell_formula_units_Z 34
_cell_length_a 8.601282
_cell_length_b 8.601282
_cell_length_c 21.189401
_cell_angle_alpha 90.000000
_cell_angle_beta 90.000000
_cell_angle_gamma 90.000000
_cell_volume 1567.635368
_symmetry_space_group_name_H-M "P -4 C 2"
_symmetry_group_IT_number 116
_symmetry_cell_setting 'tetragonal'
loop_
_space_group_symop_operation_xyz
x,y,z
y,-x,-z
-x,-y,z
-y,x,-z
y,x,1/2-z
-y,-x,1/2-z
-x,y,1/2+z
x,-y,1/2+z
loop_
_atom_site_type_symbol
_atom_site_label
_atom_site_fract_x
_atom_site_fract_y
_atom_site_fract_z
Si Si1 0.000000 0.000000 0.000000
Si Si2 0.325390 0.417431 0.435598
Si Si3 0.872682 0.281850 0.189343
Si Si4 0.810495 0.271471 0.444687
Si Si5 0.641465 0.215970 0.810751
O O1 0.837870 0.047353 0.034090
O O2 0.500000 0.500000 0.436309
O O3 0.283091 0.314086 0.497114
O O4 0.189405 0.545209 0.429274
O O5 0.331995 0.308798 0.374866
O O6 0.805732 0.194269 0.250000
O O7 0.805347 0.240508 0.120912
O O8 0.830341 0.462503 0.196353
O O9 0.057302 0.261842 0.187278
O O10 0.686780 0.313221 0.750000
#
# Coordination Sequence:
#
# PCOD9557987 Si02
#       5
#     2   8   8   8   8
#     4  12  32  44  66 108 160 200 224 306 384 468
#     4  12  22  45  82 110 134 186 255 322 355 424
#     4  11  25  44  70 103 154 199 239 306 377 447
#     4  12  24  47  72 109 145 188 248 301 376 440
#     4  11  25  44  72 109 143 191 255 310 368 434
#
# _framework density 21.688717
#
# number of rings (size 3 to 8) (size 9 to 14) (size 15 to 20)
#    0.000    0.471    4.706    2.824    0.000    7.059 
#    0.000    0.000    0.000    0.000    0.000    0.000 
#    0.000    0.000    0.000    0.000    0.000    0.000 
#
# Total GULP energy -189732.718899 kJ/mol
# GULP energy per Si atom -5580.374085 kJ/mol
# Density = 2.163935 g / cm^3
# Si number density = 21.688717 Si / 1000 Ang^3
#
#
#
# Elastic Constant Matrix: (Units=GPa)
#
#
# Indices 1 2 3 4 5 6 
#
# 1 99.5800 47.0464 59.6794 0.0000 0.0000 0.0000
# 2 47.0464 99.5780 59.6769 0.0000 0.0000 0.0000
# 3 59.6794 59.6769 182.1838 0.0000 0.0000 0.0000
# 4 0.0000 0.0000 0.0000 -101.8200 0.0000 0.0000
# 5 0.0000 0.0000 0.0000 0.0000 -101.6778 0.0000
# 6 0.0000 0.0000 0.0000 0.0000 0.0000 39.6316
#
#
#
# Elastic Compliance Matrix: (Units=1/GPa)
#
#
# Indices 1 2 3 4 5 6 
#
# 1 0.014168 -0.004868 -0.003047 0.000000 0.000000 0.000000
# 2 -0.004868 0.014168 -0.003046 0.000000 0.000000 0.000000
# 3 -0.003047 -0.003046 0.007485 0.000000 0.000000 0.000000
# 4 0.000000 0.000000 0.000000 -0.009821 0.000000 0.000000
# 5 0.000000 0.000000 0.000000 0.000000 -0.009835 0.000000
# 6 0.000000 0.000000 0.000000 0.000000 0.000000 0.025232
#
#
# Mechanical properties :
#
#
# Convention : Reuss Voigt Hill
#
# Bulk Modulus (GPa) = 71.94718 79.34967 75.64842
# Shear Modulus (GPa) = 73.58235 -18.44398 27.56919
#
# Velocity S-wave (km/s) = 5.83097 -2.91932 3.56916
# Velocity P-wave (km/s) = 8.86444 5.03010 7.20695
#
# Compressibility (1/GPa) = 0.01389909
#
# Stress axis : x y z
#
# Youngs Moduli (GPa) = 70.58248 70.58215 133.60451
#
# Poissons Ratio (x) = 0.34359 0.40703
# Poissons Ratio (y) = 0.34359 0.40699
# Poissons Ratio (z) = 0.21503 0.21501
#
# Static dielectric constant tensor:
#      x y z
#    x 2.194720 0.000000 0.000000 
#    y 0.000000 2.195120 0.000000 
#    z 0.000000 0.000000 1.652380 
# 
# From -- ./inp_files/3887.got.cif
#   From: 2010.05.17/outbox.cif.g08.bks.cpg/sg116_2_cif.got.tgz:3887.got - 2010.05.20 11:11:43.
