data_PCOD9557545
_publ_section_title
;
Structure prediction by ZEFSAII (Michael W. Deem and Ramdas Pophale) SiO2 
 PCOD9557545
Probable space group: P -4 C 2
;
_chemical_formula_sum "Si O2"
_cell_formula_units_Z 40
_cell_length_a 8.542112
_cell_length_b 8.542112
_cell_length_c 25.628077
_cell_angle_alpha 90.000000
_cell_angle_beta 90.000000
_cell_angle_gamma 90.000000
_cell_volume 1870.021255
_symmetry_space_group_name_H-M "P -4 C 2"
_symmetry_group_IT_number 116
_symmetry_cell_setting 'tetragonal'
loop_
_space_group_symop_operation_xyz
x,y,z
y,-x,-z
-x,-y,z
-y,x,-z
y,x,1/2-z
-y,-x,1/2-z
-x,y,1/2+z
x,-y,1/2+z
loop_
_atom_site_type_symbol
_atom_site_label
_atom_site_fract_x
_atom_site_fract_y
_atom_site_fract_z
Si Si1 0.271783 0.524155 0.977836
Si Si2 0.808006 0.488412 0.361225
Si Si3 0.821741 0.161944 0.856980
Si Si4 0.163987 0.825892 0.187827
Si Si5 0.087340 0.796989 0.976338
O O1 0.255165 0.462594 0.919688
O O2 0.116658 0.619070 0.989769
O O3 0.400208 0.664040 0.981523
O O4 0.753930 0.664070 0.344023
O O5 0.760366 0.333909 0.329372
O O6 0.000000 0.500000 0.363124
O O7 0.844114 0.162369 0.919691
O O8 0.997232 0.164373 0.834071
O O9 0.751557 0.998362 0.834953
O O10 0.162257 0.837744 0.250000
O O11 0.905708 0.837193 0.979403
#
# Coordination Sequence:
#
# PCOD9557545 Si02
#       5
#     8   8   8   8   8
#     4  10  23  36  53  80 119 170 196 240 312 377
#     4   9  20  36  59  88 125 158 205 269 318 365
#     4   9  18  32  53  94 125 153 204 272 311 372
#     4  10  18  32  61  91 115 165 212 256 324 376
#     4  10  20  32  57  93 119 154 204 256 302 378
#
# _framework density 21.390132000000001
#
# number of rings (size 3 to 8) (size 9 to 14) (size 15 to 20)
#    0.000    2.400    0.000    3.600   11.200    0.000 
#    0.000    0.000    0.000   43.200    0.000    0.000 
#    0.000    0.000    0.000    0.000    0.000    0.000 
#
# Total GULP energy -222775.031864 kJ/mol
# GULP energy per Si atom -5569.375797 kJ/mol
# Density = 2.134145 g / cm^3
# Si number density = 21.390132 Si / 1000 Ang^3
#
#
#
# Elastic Constant Matrix: (Units=GPa)
#
#
# Indices 1 2 3 4 5 6 
#
# 1 93.2601 42.3624 40.0492 0.0000 0.0000 0.0000
# 2 42.3624 93.2599 40.0491 0.0000 0.0000 0.0000
# 3 40.0492 40.0491 90.7126 0.0000 0.0000 0.0000
# 4 0.0000 0.0000 0.0000 2968.3639 0.0000 0.0000
# 5 0.0000 0.0000 0.0000 0.0000 2972.7737 0.0000
# 6 0.0000 0.0000 0.0000 0.0000 0.0000 23.8581
#
#
#
# Elastic Compliance Matrix: (Units=1/GPa)
#
#
# Indices 1 2 3 4 5 6 
#
# 1 0.014811 -0.004837 -0.004404 0.000000 0.000000 0.000000
# 2 -0.004837 0.014811 -0.004404 0.000000 0.000000 0.000000
# 3 -0.004404 -0.004404 0.014912 0.000000 0.000000 0.000000
# 4 0.000000 0.000000 0.000000 0.000337 0.000000 0.000000
# 5 0.000000 0.000000 0.000000 0.000000 0.000336 0.000000
# 6 0.000000 0.000000 0.000000 0.000000 0.000000 0.041914
#
#
# Mechanical properties :
#
#
# Convention : Reuss Voigt Hill
#
# Bulk Modulus (GPa) = 57.98363 58.01711 58.00037
# Shear Modulus (GPa) = 41.61212 1203.31726 622.46469
#
# Velocity S-wave (km/s) = 4.41544 23.74402 17.07739
# Velocity P-wave (km/s) = 7.29118 27.90854 20.39667
#
# Compressibility (1/GPa) = 0.01724625
#
# Stress axis : x y z
#
# Youngs Moduli (GPa) = 67.51869 67.51864 67.05962
#
# Poissons Ratio (x) = 0.32656 0.29530
# Poissons Ratio (y) = 0.32656 0.29530
# Poissons Ratio (z) = 0.29732 0.29732
#
# Static dielectric constant tensor:
#      x y z
#    x 0.352990 0.000000 0.000000 
#    y 0.000000 0.355260 0.000000 
#    z 0.000000 0.000000 1.718280 
# 
# From -- ./inp_files/4837.got.cif
#   From: 2010.05.17/outbox.cif.g08.bks.cpg/sg116_3_cif.got.tgz:4837.got - 2010.05.20 11:11:43.
