data_PCOD9557549
_publ_section_title
;
Structure prediction by ZEFSAII (Michael W. Deem and Ramdas Pophale) SiO2 
 PCOD9557549
Probable space group: P -4 C 2
;
_chemical_formula_sum "Si O2"
_cell_formula_units_Z 48
_cell_length_a 14.728318
_cell_length_b 14.728318
_cell_length_c 10.262510
_cell_angle_alpha 90.000000
_cell_angle_beta 90.000000
_cell_angle_gamma 90.000000
_cell_volume 2226.178060
_symmetry_space_group_name_H-M "P -4 C 2"
_symmetry_group_IT_number 116
_symmetry_cell_setting 'tetragonal'
loop_
_space_group_symop_operation_xyz
x,y,z
y,-x,-z
-x,-y,z
-y,x,-z
y,x,1/2-z
-y,-x,1/2-z
-x,y,1/2+z
x,-y,1/2+z
loop_
_atom_site_type_symbol
_atom_site_label
_atom_site_fract_x
_atom_site_fract_y
_atom_site_fract_z
Si Si1 0.838061 0.145511 0.044398
Si Si2 0.258824 0.557091 0.125089
Si Si3 0.500000 0.500000 0.750000
Si Si4 0.914926 0.340002 0.067881
Si Si5 0.000000 0.000000 0.500000
Si Si6 0.563399 0.672374 0.598467
Si Si7 0.851485 0.851485 0.250000
Si Si8 0.721943 0.991385 0.688696
O O1 0.810357 0.164549 0.893501
O O2 0.869300 0.241723 0.096554
O O3 0.924691 0.075310 0.049784
O O4 0.756747 0.101002 0.123035
O O5 0.160875 0.584721 0.075740
O O6 0.258054 0.549250 0.281732
O O7 0.333446 0.636184 0.095914
O O8 0.294634 0.472633 0.040026
O O9 0.506365 0.586297 0.655049
O O10 0.984836 0.342249 0.186693
O O11 0.957080 0.329291 0.926698
O O12 0.953130 0.814483 0.275030
#
# Coordination Sequence:
#
# PCOD9557549 Si02
#       8
#     8   8   2   8   2   8   4   8
#     4  11  21  31  53  78 124 153 207 256 327 383
#     4  10  22  41  67  99 131 165 201 258 320 391
#     4   8  16  34  70 102 142 162 176 250 336 406
#     4  11  24  39  59  90 124 166 212 262 323 375
#     4  12  16  30  44  84 106 168 194 268 322 384
#     4  10  20  37  66 103 136 159 202 243 328 398
#     4  10  18  35  45  84 107 166 198 263 320 380
#     4  11  21  37  56  81 126 162 215 260 319 372
#
# _framework density 21.561616999999998
#
# number of rings (size 3 to 8) (size 9 to 14) (size 15 to 20)
#    0.000    1.667    5.000    2.500    4.667    1.000 
#    0.000   11.667    0.000    3.000    0.000    0.000 
#    0.000    0.000    0.000    0.000    0.000    0.000 
#
# Total GULP energy -267353.640501 kJ/mol
# GULP energy per Si atom -5569.867510 kJ/mol
# Density = 2.151254 g / cm^3
# Si number density = 21.561617 Si / 1000 Ang^3
#
#
#
# Elastic Constant Matrix: (Units=GPa)
#
#
# Indices 1 2 3 4 5 6 
#
# 1 4.1068 18.9524 8.1107 0.0000 0.0000 0.0000
# 2 18.9524 4.1068 8.1107 0.0000 0.0000 0.0000
# 3 8.1107 8.1107 125.1959 0.0000 0.0000 0.0000
# 4 0.0000 0.0000 0.0000 6.9694 0.0000 0.0000
# 5 0.0000 0.0000 0.0000 0.0000 6.9694 0.0000
# 6 0.0000 0.0000 0.0000 0.0000 0.0000 22.3016
#
#
#
# Elastic Compliance Matrix: (Units=1/GPa)
#
#
# Indices 1 2 3 4 5 6 
#
# 1 -0.010961 0.056399 -0.002944 0.000000 0.000000 0.000000
# 2 0.056399 -0.010961 -0.002944 0.000000 0.000000 0.000000
# 3 -0.002944 -0.002944 0.008369 0.000000 0.000000 0.000000
# 4 0.000000 0.000000 0.000000 0.143485 0.000000 0.000000
# 5 0.000000 0.000000 0.000000 0.000000 0.143485 0.000000
# 6 0.000000 0.000000 0.000000 0.000000 0.000000 0.044840
#
#
# Mechanical properties :
#
#
# Convention : Reuss Voigt Hill
#
# Bulk Modulus (GPa) = 11.43259 22.63967 17.03613
# Shear Modulus (GPa) = 20.29308 13.79712 17.04510
#
# Velocity S-wave (km/s) = 3.07117 2.53235 2.81469
# Velocity P-wave (km/s) = 4.22965 4.36729 4.29902
#
# Compressibility (1/GPa) = 0.08746923
#
# Stress axis : x y z
#
# Youngs Moduli (GPa) = -91.23155 -91.23155 119.49025
#
# Poissons Ratio (x) = 5.14533 0.35173
# Poissons Ratio (y) = 5.14533 0.35173
# Poissons Ratio (z) = -0.26855 -0.26855
#
# Static dielectric constant tensor:
#      x y z
#    x 1.815660 0.000000 0.000000 
#    y 0.000000 1.815660 0.000000 
#    z 0.000000 0.000000 1.869960 
# 
# From -- ./inp_files/1969.got.cif
#   From: 2010.05.17/outbox.cif.g08.bks.cpg/sg116_1_cif.got.tgz:1969.got - 2010.05.20 11:11:43.
