data_PCOD9557474
_publ_section_title
;
Structure prediction by ZEFSAII (Michael W. Deem and Ramdas Pophale) SiO2 
 PCOD9557474
Probable space group: P -4 M 2
;
_chemical_formula_sum "Si O2"
_cell_formula_units_Z 48
_cell_length_a 9.460649
_cell_length_b 9.460649
_cell_length_c 31.918294
_cell_angle_alpha 90.000000
_cell_angle_beta 90.000000
_cell_angle_gamma 90.000000
_cell_volume 2856.811140
_symmetry_space_group_name_H-M "P -4 M 2"
_symmetry_group_IT_number 115
_symmetry_cell_setting 'tetragonal'
loop_
_space_group_symop_operation_xyz
x,y,z
y,-x,-z
-x,-y,z
-y,x,-z
y,x,-z
-y,-x,-z
-x,y,z
x,-y,z
loop_
_atom_site_type_symbol
_atom_site_label
_atom_site_fract_x
_atom_site_fract_y
_atom_site_fract_z
Si Si1 0.332023 0.667978 0.000000
Si Si2 0.672193 0.662665 0.333509
Si Si3 0.832460 0.168104 0.167008
Si Si4 0.832774 0.668934 0.748953
Si Si5 0.832857 0.668969 0.584065
Si Si6 0.167908 0.667999 0.083477
Si Si7 0.832309 0.832309 0.500000
O O1 0.250126 0.713243 0.041766
O O2 0.500000 0.690981 0.005610
O O3 0.500000 0.664577 0.333520
O O4 0.717905 0.500000 0.333477
O O5 0.715980 0.744500 0.291502
O O6 0.716081 0.744318 0.375539
O O7 0.747906 0.210182 0.208586
O O8 0.787138 0.250294 0.125301
O O9 0.000000 0.193534 0.173134
O O10 0.812343 0.000000 0.160946
O O11 0.814848 0.500000 0.754086
O O12 0.000000 0.695068 0.741826
O O13 0.815155 0.500000 0.579004
O O14 0.790097 0.747542 0.541525
O O15 0.000000 0.695405 0.591238
O O16 0.190760 0.500000 0.089070
O O17 0.000000 0.691196 0.077789
O O18 0.000000 0.809764 0.493438
#
# Coordination Sequence:
#
# PCOD9557474 Si02
#       7
#     4   8   8   8   8   8   4
#     4   9  18  32  48  67  92 120 150 185 224 266
#     4   9  17  29  46  69  94 118 148 187 226 264
#     4   9  18  32  48  67  92 120 150 185 224 266
#     4   9  17  30  48  68  90 118 152 187 222 263
#     4   9  17  30  48  67  88 118 152 183 220 266
#     4   9  18  32  48  66  90 120 150 181 222 269
#     4   9  18  32  48  67  92 120 150 185 224 266
#
# _framework density 16.801949
#
# number of rings (size 3 to 8) (size 9 to 14) (size 15 to 20)
#    0.000    3.000    0.000    0.500    0.000    4.667 
#    0.000    0.833    0.000    5.000    0.000    0.000 
#    0.000    0.000    0.000    0.000    0.000    0.000 
#
# Total GULP energy -267515.834534 kJ/mol
# GULP energy per Si atom -5573.246553 kJ/mol
# Density = 1.676371 g / cm^3
# Si number density = 16.801949 Si / 1000 Ang^3
#
#
#
# Elastic Constant Matrix: (Units=GPa)
#
#
# Indices 1 2 3 4 5 6 
#
# 1 41.0670 37.4625 80.0493 0.0000 0.0000 0.0000
# 2 37.4625 41.0667 80.0493 0.0000 0.0000 0.0000
# 3 80.0493 80.0493 223.3892 0.0000 0.0000 0.0000
# 4 0.0000 0.0000 0.0000 36.5362 0.0000 0.0000
# 5 0.0000 0.0000 0.0000 0.0000 36.5359 0.0000
# 6 0.0000 0.0000 0.0000 0.0000 0.0000 14.6881
#
#
#
# Elastic Compliance Matrix: (Units=1/GPa)
#
#
# Indices 1 2 3 4 5 6 
#
# 1 0.162349 -0.115091 -0.016934 0.000000 0.000000 0.000000
# 2 -0.115091 0.162353 -0.016936 0.000000 0.000000 0.000000
# 3 -0.016934 -0.016936 0.016613 0.000000 0.000000 0.000000
# 4 0.000000 0.000000 0.000000 0.027370 0.000000 0.000000
# 5 0.000000 0.000000 0.000000 0.000000 0.027370 0.000000
# 6 0.000000 0.000000 0.000000 0.000000 0.000000 0.068082
#
#
# Mechanical properties :
#
#
# Convention : Reuss Voigt Hill
#
# Bulk Modulus (GPa) = 23.04536 77.84947 50.44742
# Shear Modulus (GPa) = 6.43895 24.74951 15.59423
#
# Velocity S-wave (km/s) = 1.95974 3.84215 3.04981
# Velocity P-wave (km/s) = 4.34355 8.13124 6.51857
#
# Compressibility (1/GPa) = 0.04339268
#
# Stress axis : x y z
#
# Youngs Moduli (GPa) = 6.15958 6.15942 60.19208
#
# Poissons Ratio (x) = 0.70890 1.01931
# Poissons Ratio (y) = 0.70891 1.01940
# Poissons Ratio (z) = 0.10431 0.10431
#
# Static dielectric constant tensor:
#      x y z
#    x 1.560170 0.000000 0.000000 
#    y 0.000000 1.560180 0.000000 
#    z 0.000000 0.000000 1.541620 
# 
# From -- ./inp_files/6221.got.cif
#   From: 2010.05.17/outbox.cif.g08.bks.cpg/sg115_4_cif.got.tgz:6221.got - 2010.05.20 11:07:42.
