data_PCOD9557958
_publ_section_title
;
Structure prediction by ZEFSAII (Michael W. Deem and Ramdas Pophale) SiO2 
 PCOD9557958
Probable space group: P -4 C 2
;
_chemical_formula_sum "Si O2"
_cell_formula_units_Z 56
_cell_length_a 15.090085
_cell_length_b 15.090085
_cell_length_c 10.445401
_cell_angle_alpha 90.000000
_cell_angle_beta 90.000000
_cell_angle_gamma 90.000000
_cell_volume 2378.529211
_symmetry_space_group_name_H-M "P -4 C 2"
_symmetry_group_IT_number 116
_symmetry_cell_setting 'tetragonal'
loop_
_space_group_symop_operation_xyz
x,y,z
y,-x,-z
-x,-y,z
-y,x,-z
y,x,1/2-z
-y,-x,1/2-z
-x,y,1/2+z
x,-y,1/2+z
loop_
_atom_site_type_symbol
_atom_site_label
_atom_site_fract_x
_atom_site_fract_y
_atom_site_fract_z
Si Si1 0.067116 0.765716 0.060807
Si Si2 0.679248 0.880110 0.700051
Si Si3 0.593704 0.954092 0.086183
Si Si4 0.533696 0.260033 0.287693
Si Si5 0.795653 0.647811 0.242749
Si Si6 0.784590 0.127104 0.941796
Si Si7 0.527364 0.362678 0.528085
O O1 0.111555 0.757548 0.197853
O O2 0.134084 0.806520 0.958515
O O3 0.045308 0.663796 0.027781
O O4 0.974131 0.815682 0.059240
O O5 0.605454 0.809658 0.739364
O O6 0.721316 0.857728 0.563670
O O7 0.633579 0.976178 0.687282
O O8 0.604291 0.853729 0.140833
O O9 0.500000 0.000000 0.052215
O O10 0.441322 0.218338 0.337992
O O11 0.572009 0.304326 0.416330
O O12 0.503848 0.319155 0.162637
O O13 0.700847 0.700847 0.250000
O O14 0.854931 0.722817 0.178530
O O15 0.443684 0.405464 0.453155
#
# Coordination Sequence:
#
# PCOD9557958 Si02
#       7
#     8   8   8   8   8   8   8
#     4  11  25  44  71  98 144 188 243 303 371 443
#     4  11  25  42  66 102 141 182 230 303 366 441
#     4  11  23  43  67 101 137 184 236 292 368 438
#     4  12  26  41  71 104 138 184 238 300 364 440
#     4  12  23  42  71 102 143 184 244 290 368 439
#     4  11  25  45  69 103 141 191 242 307 369 445
#     4  11  25  46  66  93 135 186 238 295 358 432
#
# _framework density 23.543962000000001
#
# number of rings (size 3 to 8) (size 9 to 14) (size 15 to 20)
#    0.000    0.714    4.286    3.000    2.000    7.714 
#    0.000    0.000    0.000    1.714    0.000    0.000 
#    0.000    0.000    0.000    0.000    0.000    0.000 
#
# Total GULP energy -312627.419713 kJ/mol
# GULP energy per Si atom -5582.632495 kJ/mol
# Density = 2.349037 g / cm^3
# Si number density = 23.543962 Si / 1000 Ang^3
#
#
#
# Elastic Constant Matrix: (Units=GPa)
#
#
# Indices 1 2 3 4 5 6 
#
# 1 85.9333 56.4067 21.1516 0.0000 0.0000 0.0000
# 2 56.4067 85.9333 21.1516 0.0000 0.0000 0.0000
# 3 21.1516 21.1516 81.5844 0.0000 0.0000 0.0000
# 4 0.0000 0.0000 0.0000 30.8462 0.0000 0.0000
# 5 0.0000 0.0000 0.0000 0.0000 30.8462 0.0000
# 6 0.0000 0.0000 0.0000 0.0000 0.0000 41.7246
#
#
#
# Elastic Compliance Matrix: (Units=1/GPa)
#
#
# Indices 1 2 3 4 5 6 
#
# 1 0.020740 -0.013128 -0.001973 0.000000 0.000000 0.000000
# 2 -0.013128 0.020740 -0.001973 0.000000 0.000000 0.000000
# 3 -0.001973 -0.001973 0.013281 0.000000 0.000000 0.000000
# 4 0.000000 0.000000 0.000000 0.032419 0.000000 0.000000
# 5 0.000000 0.000000 0.000000 0.000000 0.032419 0.000000
# 6 0.000000 0.000000 0.000000 0.000000 0.000000 0.023967
#
#
# Mechanical properties :
#
#
# Convention : Reuss Voigt Hill
#
# Bulk Modulus (GPa) = 48.51892 50.09676 49.30784
# Shear Modulus (GPa) = 27.08785 30.99945 29.04365
#
# Velocity S-wave (km/s) = 3.39561 3.63252 3.51606
# Velocity P-wave (km/s) = 6.00218 6.23841 6.12143
#
# Compressibility (1/GPa) = 0.02061052
#
# Stress axis : x y z
#
# Youngs Moduli (GPa) = 48.21640 48.21640 75.29817
#
# Poissons Ratio (x) = 0.63298 0.14860
# Poissons Ratio (y) = 0.63298 0.14860
# Poissons Ratio (z) = 0.09515 0.09515
#
# Static dielectric constant tensor:
#      x y z
#    x 1.942000 0.000000 0.000000 
#    y 0.000000 1.942000 0.000000 
#    z 0.000000 0.000000 1.925280 
# 
# From -- ./inp_files/2015.got.cif
#   From: 2010.05.17/outbox.cif.g08.bks.cpg/sg116_2_cif.got.tgz:2015.got - 2010.05.20 11:11:43.
