data_PCOD9557689
_publ_section_title
;
Structure prediction by ZEFSAII (Michael W. Deem and Ramdas Pophale) SiO2 
 PCOD9557689
Probable space group: P -4 C 2
;
_chemical_formula_sum "Si O2"
_cell_formula_units_Z 48
_cell_length_a 8.306210
_cell_length_b 8.306210
_cell_length_c 31.790368
_cell_angle_alpha 90.000000
_cell_angle_beta 90.000000
_cell_angle_gamma 90.000000
_cell_volume 2193.316819
_symmetry_space_group_name_H-M "P -4 C 2"
_symmetry_group_IT_number 116
_symmetry_cell_setting 'tetragonal'
loop_
_space_group_symop_operation_xyz
x,y,z
y,-x,-z
-x,-y,z
-y,x,-z
y,x,1/2-z
-y,-x,1/2-z
-x,y,1/2+z
x,-y,1/2+z
loop_
_atom_site_type_symbol
_atom_site_label
_atom_site_fract_x
_atom_site_fract_y
_atom_site_fract_z
Si Si1 0.596460 0.748061 0.490342
Si Si2 0.823885 0.059659 0.669634
Si Si3 0.500000 0.500000 0.842152
Si Si4 0.253084 0.732481 0.199956
Si Si5 0.737404 0.262597 0.750000
Si Si6 0.000000 0.500000 0.948909
Si Si7 0.500000 0.000000 0.785983
Si Si8 0.704254 0.734265 0.098203
O O1 0.694989 0.591434 0.506456
O O2 0.619093 0.902401 0.519965
O O3 0.646583 0.777919 0.442327
O O4 0.769958 0.175453 0.706464
O O5 0.818228 0.155306 0.626437
O O6 0.721702 0.895843 0.673841
O O7 0.000000 0.000000 0.680367
O O8 0.616769 0.600350 0.811844
O O9 0.604820 0.383802 0.871933
O O10 0.232823 0.767178 0.250000
O O11 0.359248 0.912954 0.312038
O O12 0.842164 0.429233 0.738939
O O13 0.861899 0.422877 0.920572
#
# Coordination Sequence:
#
# PCOD9557689 Si02
#       8
#     8   8   4   8   4   4   4   8
#     4   9  19  41  72  99 135 173 225 280 359 440
#     4  12  24  46  67  96 145 190 237 287 358 421
#     4  12  27  42  67 108 146 174 242 312 351 417
#     4  12  26  43  67 100 135 197 249 296 357 422
#     4  12  25  46  69  96 138 201 240 292 367 422
#     4  10  20  43  73  96 130 182 222 276 367 435
#     4  12  26  41  71  92 136 184 258 302 353 427
#     4  11  24  43  68 107 137 182 227 300 351 421
#
# _framework density 21.88466
#
# number of rings (size 3 to 8) (size 9 to 14) (size 15 to 20)
#    0.000    0.833    3.333    4.500    4.667    0.667 
#    9.000    0.000    0.000    0.000    0.000    0.000 
#    0.000    0.000    0.000    0.000    0.000    0.000 
#
# Total GULP energy -267723.635419 kJ/mol
# GULP energy per Si atom -5577.575738 kJ/mol
# Density = 2.183485 g / cm^3
# Si number density = 21.884660 Si / 1000 Ang^3
#
#
#
# Elastic Constant Matrix: (Units=GPa)
#
#
# Indices 1 2 3 4 5 6 
#
# 1 69.6275 1.1961 2.5590 0.0000 0.0000 0.0000
# 2 1.1961 69.6270 2.5588 0.0000 0.0000 0.0000
# 3 2.5590 2.5588 83.3519 0.0000 0.0000 0.0000
# 4 0.0000 0.0000 0.0000 -707.8181 0.0000 0.0000
# 5 0.0000 0.0000 0.0000 0.0000 -707.8877 0.0000
# 6 0.0000 0.0000 0.0000 0.0000 0.0000 29.3062
#
#
#
# Elastic Compliance Matrix: (Units=1/GPa)
#
#
# Indices 1 2 3 4 5 6 
#
# 1 0.014382 -0.000231 -0.000434 0.000000 0.000000 0.000000
# 2 -0.000231 0.014382 -0.000434 0.000000 0.000000 0.000000
# 3 -0.000434 -0.000434 0.012024 0.000000 0.000000 0.000000
# 4 0.000000 0.000000 0.000000 -0.001413 0.000000 0.000000
# 5 0.000000 0.000000 0.000000 0.000000 -0.001413 0.000000
# 6 0.000000 0.000000 0.000000 0.000000 0.000000 0.034123
#
#
# Mechanical properties :
#
#
# Convention : Reuss Voigt Hill
#
# Bulk Modulus (GPa) = 25.91458 26.13713 26.02585
# Shear Modulus (GPa) = 57.37366 -262.86041 -102.74338
#
# Velocity S-wave (km/s) = 5.12575 -10.97144 -6.85927
# Velocity P-wave (km/s) = 6.84823 12.18719 7.12844
#
# Compressibility (1/GPa) = 0.03858832
#
# Stress axis : x y z
#
# Youngs Moduli (GPa) = 69.53100 69.53052 83.16698
#
# Poissons Ratio (x) = 0.01607 0.03613
# Poissons Ratio (y) = 0.01607 0.03613
# Poissons Ratio (z) = 0.03021 0.03021
#
# Static dielectric constant tensor:
#      x y z
#    x 1.936380 0.000000 0.000000 
#    y 0.000000 1.936370 0.000000 
#    z 0.000000 0.000000 1.773540 
# 
# From -- ./inp_files/5339.got.cif
#   From: 2010.05.17/outbox.cif.g08.bks.cpg/sg116_3_cif.got.tgz:5339.got - 2010.05.20 11:11:43.
