data_PCOD9557599
_publ_section_title
;
Structure prediction by ZEFSAII (Michael W. Deem and Ramdas Pophale) SiO2 
 PCOD9557599
Probable space group: P -4 C 2
;
_chemical_formula_sum "Si O2"
_cell_formula_units_Z 48
_cell_length_a 16.119792
_cell_length_b 16.119792
_cell_length_c 11.499884
_cell_angle_alpha 90.000000
_cell_angle_beta 90.000000
_cell_angle_gamma 90.000000
_cell_volume 2988.218340
_symmetry_space_group_name_H-M "P -4 C 2"
_symmetry_group_IT_number 116
_symmetry_cell_setting 'tetragonal'
loop_
_space_group_symop_operation_xyz
x,y,z
y,-x,-z
-x,-y,z
-y,x,-z
y,x,1/2-z
-y,-x,1/2-z
-x,y,1/2+z
x,-y,1/2+z
loop_
_atom_site_type_symbol
_atom_site_label
_atom_site_fract_x
_atom_site_fract_y
_atom_site_fract_z
Si Si1 0.255520 0.375171 0.302672
Si Si2 0.634993 0.192291 0.088928
Si Si3 0.321936 0.451285 0.759022
Si Si4 0.387877 0.916276 0.317745
Si Si5 0.895082 0.584994 0.151563
Si Si6 0.237189 0.332703 0.566712
O O1 0.291260 0.291260 0.250000
O O2 0.309824 0.451111 0.250918
O O3 0.163198 0.391168 0.258801
O O4 0.258516 0.366804 0.440311
O O5 0.573244 0.267963 0.126261
O O6 0.629463 0.122667 0.189908
O O7 0.721664 0.242536 0.084562
O O8 0.612190 0.150784 0.966857
O O9 0.414583 0.414583 0.750000
O O10 0.276089 0.397241 0.659642
O O11 0.485248 0.902493 0.346253
O O12 0.335149 0.860221 0.406264
O O13 0.375895 0.014139 0.332162
#
# Coordination Sequence:
#
# PCOD9557599 Si02
#       6
#     8   8   8   8   8   8
#     4  12  22  33  51  76 107 138 179 229 274 300
#     4  10  19  37  52  74 108 138 183 211 262 327
#     4   9  20  34  53  69  96 146 190 219 250 309
#     4  10  22  33  57  75 107 143 176 216 270 332
#     4  11  22  33  50  84 105 137 173 228 270 317
#     4  10  20  36  55  73 104 146 176 218 265 318
#
# _framework density 16.063082999999999
#
# number of rings (size 3 to 8) (size 9 to 14) (size 15 to 20)
#    0.000    1.667    5.000    2.500    2.333    1.667 
#    0.000    0.000    0.000    2.000    0.000    0.000 
#    0.000    8.667    0.000    0.000    0.000    0.000 
#
# Total GULP energy -267533.187870 kJ/mol
# GULP energy per Si atom -5573.608081 kJ/mol
# Density = 1.602652 g / cm^3
# Si number density = 16.063083 Si / 1000 Ang^3
#
#
#
# Elastic Constant Matrix: (Units=GPa)
#
#
# Indices 1 2 3 4 5 6 
#
# 1 73.8965 43.9546 21.1551 0.0000 0.0000 0.0000
# 2 43.9546 73.8965 21.1551 0.0000 0.0000 0.0000
# 3 21.1551 21.1551 78.3178 0.0000 0.0000 0.0000
# 4 0.0000 0.0000 0.0000 13.4048 0.0000 0.0000
# 5 0.0000 0.0000 0.0000 0.0000 13.4048 0.0000
# 6 0.0000 0.0000 0.0000 0.0000 0.0000 21.5775
#
#
#
# Elastic Compliance Matrix: (Units=1/GPa)
#
#
# Indices 1 2 3 4 5 6 
#
# 1 0.021397 -0.012001 -0.002538 0.000000 0.000000 0.000000
# 2 -0.012001 0.021397 -0.002538 0.000000 0.000000 0.000000
# 3 -0.002538 -0.002538 0.014140 0.000000 0.000000 0.000000
# 4 0.000000 0.000000 0.000000 0.074600 0.000000 0.000000
# 5 0.000000 0.000000 0.000000 0.000000 0.074600 0.000000
# 6 0.000000 0.000000 0.000000 0.000000 0.000000 0.046345
#
#
# Mechanical properties :
#
#
# Convention : Reuss Voigt Hill
#
# Bulk Modulus (GPa) = 43.89805 44.29337 44.09571
# Shear Modulus (GPa) = 16.99373 19.00051 17.99712
#
# Velocity S-wave (km/s) = 3.25612 3.44302 3.35087
# Velocity P-wave (km/s) = 6.44394 6.59093 6.51785
#
# Compressibility (1/GPa) = 0.02278005
#
# Stress axis : x y z
#
# Youngs Moduli (GPa) = 46.73497 46.73497 70.72279
#
# Poissons Ratio (x) = 0.56085 0.17951
# Poissons Ratio (y) = 0.56085 0.17951
# Poissons Ratio (z) = 0.11862 0.11862
#
# Static dielectric constant tensor:
#      x y z
#    x 1.552910 0.000000 0.000000 
#    y 0.000000 1.552910 0.000000 
#    z 0.000000 0.000000 1.560950 
# 
# From -- ./inp_files/1920.got.cif
#   From: 2010.05.17/outbox.cif.g08.bks.cpg/sg116_1_cif.got.tgz:1920.got - 2010.05.20 11:11:43.
