data_PCOD9557772
_publ_section_title
;
Structure prediction by ZEFSAII (Michael W. Deem and Ramdas Pophale) SiO2 
 PCOD9557772
Probable space group: P -4 C 2
;
_chemical_formula_sum "Si O2"
_cell_formula_units_Z 64
_cell_length_a 11.962102
_cell_length_b 11.962102
_cell_length_c 22.852095
_cell_angle_alpha 90.000000
_cell_angle_beta 90.000000
_cell_angle_gamma 90.000000
_cell_volume 3269.949333
_symmetry_space_group_name_H-M "P -4 C 2"
_symmetry_group_IT_number 116
_symmetry_cell_setting 'tetragonal'
loop_
_space_group_symop_operation_xyz
x,y,z
y,-x,-z
-x,-y,z
-y,x,-z
y,x,1/2-z
-y,-x,1/2-z
-x,y,1/2+z
x,-y,1/2+z
loop_
_atom_site_type_symbol
_atom_site_label
_atom_site_fract_x
_atom_site_fract_y
_atom_site_fract_z
Si Si1 0.954000 0.118259 0.186358
Si Si2 0.638880 0.195485 0.508596
Si Si3 0.982563 0.632388 0.055149
Si Si4 0.375847 0.201937 0.534284
Si Si5 0.133973 0.292188 0.839711
Si Si6 0.870120 0.320272 0.860115
Si Si7 0.305798 0.136766 0.323754
Si Si8 0.131713 0.500929 0.267015
O O1 0.918088 0.081913 0.250000
O O2 0.838684 0.164633 0.159628
O O3 0.042553 0.217259 0.196893
O O4 0.000000 0.000000 0.158170
O O5 0.506342 0.206058 0.518490
O O6 0.691661 0.312615 0.491387
O O7 0.680653 0.148299 0.570712
O O8 0.674630 0.106999 0.458435
O O9 0.917403 0.656048 0.114746
O O10 0.000000 0.500000 0.051856
O O11 0.904483 0.670375 0.001775
O O12 0.349424 0.183363 0.602151
O O13 0.163952 0.370308 0.782820
O O14 0.998169 0.291376 0.844716
O O15 0.775913 0.240716 0.833452
O O16 0.851601 0.438749 0.828870
O O17 0.412793 0.170371 0.283516
O O18 0.000000 0.500000 0.254158
#
# Coordination Sequence:
#
# PCOD9557772 Si02
#       8
#     8   8   8   8   8   8   8   8
#     4  11  23  36  55  88 132 169 203 256 332 394
#     4  11  22  40  61  94 123 168 216 272 327 388
#     4  10  22  36  59  88 123 156 201 266 319 376
#     4  11  22  39  65  90 124 164 214 266 322 388
#     4  11  21  40  62  92 128 176 216 257 319 412
#     4  11  20  35  62  91 125 164 225 264 318 386
#     4  12  22  39  58  93 130 165 216 269 325 387
#     4  10  22  35  61  91 121 166 222 264 305 383
#
# _framework density 19.57217
#
# number of rings (size 3 to 8) (size 9 to 14) (size 15 to 20)
#    0.000    1.125    5.000    3.000    1.750    0.250 
#    0.000    0.000    0.000    0.000    0.000    0.000 
#    0.000    0.000    0.000    0.000    0.000    0.000 
#
# Total GULP energy -356459.419064 kJ/mol
# GULP energy per Si atom -5569.678423 kJ/mol
# Density = 1.952762 g / cm^3
# Si number density = 19.572170 Si / 1000 Ang^3
#
#
#
# Elastic Constant Matrix: (Units=GPa)
#
#
# Indices 1 2 3 4 5 6 
#
# 1 63.1875 23.1782 10.8123 0.0000 0.0000 0.0000
# 2 23.1782 63.1878 10.8124 0.0000 0.0000 0.0000
# 3 10.8123 10.8124 48.4993 0.0000 0.0000 0.0000
# 4 0.0000 0.0000 0.0000 25.8381 0.0000 0.0000
# 5 0.0000 0.0000 0.0000 0.0000 25.8380 0.0000
# 6 0.0000 0.0000 0.0000 0.0000 0.0000 19.3244
#
#
#
# Elastic Compliance Matrix: (Units=1/GPa)
#
#
# Indices 1 2 3 4 5 6 
#
# 1 0.018629 -0.006365 -0.002734 0.000000 0.000000 0.000000
# 2 -0.006365 0.018629 -0.002734 0.000000 0.000000 0.000000
# 3 -0.002734 -0.002734 0.021838 0.000000 0.000000 0.000000
# 4 0.000000 0.000000 0.000000 0.038703 0.000000 0.000000
# 5 0.000000 0.000000 0.000000 0.000000 0.038703 0.000000
# 6 0.000000 0.000000 0.000000 0.000000 0.000000 0.051748
#
#
# Mechanical properties :
#
#
# Convention : Reuss Voigt Hill
#
# Bulk Modulus (GPa) = 28.22587 29.38671 28.80629
# Shear Modulus (GPa) = 22.34891 22.87154 22.61022
#
# Velocity S-wave (km/s) = 3.38283 3.42215 3.40254
# Velocity P-wave (km/s) = 5.45076 5.53732 5.49421
#
# Compressibility (1/GPa) = 0.03542849
#
# Stress axis : x y z
#
# Youngs Moduli (GPa) = 53.68065 53.68089 45.79204
#
# Poissons Ratio (x) = 0.34170 0.12519
# Poissons Ratio (y) = 0.34170 0.12519
# Poissons Ratio (z) = 0.14676 0.14676
#
# Static dielectric constant tensor:
#      x y z
#    x 1.735750 0.000000 0.000000 
#    y 0.000000 1.735750 0.000000 
#    z 0.000000 0.000000 1.724330 
# 
# From -- ./inp_files/4658.got.cif
#   From: 2010.05.17/outbox.cif.g08.bks.cpg/sg116_3_cif.got.tgz:4658.got - 2010.05.20 11:11:43.
