data_PCOD9557997
_publ_section_title
;
Structure prediction by ZEFSAII (Michael W. Deem and Ramdas Pophale) SiO2 
 PCOD9557997
Probable space group: P -4 C 2
;
_chemical_formula_sum "Si O2"
_cell_formula_units_Z 36
_cell_length_a 8.341774
_cell_length_b 8.341774
_cell_length_c 21.275422
_cell_angle_alpha 90.000000
_cell_angle_beta 90.000000
_cell_angle_gamma 90.000000
_cell_volume 1480.454356
_symmetry_space_group_name_H-M "P -4 C 2"
_symmetry_group_IT_number 116
_symmetry_cell_setting 'tetragonal'
loop_
_space_group_symop_operation_xyz
x,y,z
y,-x,-z
-x,-y,z
-y,x,-z
y,x,1/2-z
-y,-x,1/2-z
-x,y,1/2+z
x,-y,1/2+z
loop_
_atom_site_type_symbol
_atom_site_label
_atom_site_fract_x
_atom_site_fract_y
_atom_site_fract_z
Si Si1 0.242081 0.492801 0.748675
Si Si2 0.000000 0.500000 0.636727
Si Si3 0.084763 0.643209 0.872008
Si Si4 0.849857 0.887783 0.913703
Si Si5 0.315829 0.683540 0.984151
O O1 0.312904 0.312904 0.750000
O O2 0.390874 0.609127 0.750000
O O3 0.146592 0.560322 0.808682
O O4 0.147683 0.519279 0.684550
O O5 0.965082 0.675834 0.604355
O O6 0.233820 0.690425 0.915980
O O7 0.000000 0.500000 0.909845
O O8 0.945952 0.776035 0.862721
O O9 0.808948 0.772933 0.971663
O O10 0.000000 0.000000 0.929997
O O11 0.506507 0.708985 0.985292
#
# Coordination Sequence:
#
# PCOD9557997 Si02
#       5
#     8   4   8   8   8
#     4  11  26  47  79 113 155 211 272 345 423 507
#     4  12  28  50  78 116 162 220 288 344 436 512
#     4  12  25  49  74 111 158 206 268 341 418 497
#     4  12  30  49  79 117 166 220 281 358 430 516
#     4  11  28  49  79 113 157 213 276 343 428 511
#
# _framework density 24.316859000000001
#
# number of rings (size 3 to 8) (size 9 to 14) (size 15 to 20)
#    0.000    0.444    3.333    2.667   10.889    1.778 
#    0.000    2.222    0.000    0.000    0.000    0.000 
#    0.000    0.000    0.000    0.000    0.000    0.000 
#
# Total GULP energy -200955.954799 kJ/mol
# GULP energy per Si atom -5582.109856 kJ/mol
# Density = 2.426151 g / cm^3
# Si number density = 24.316859 Si / 1000 Ang^3
#
#
#
# Elastic Constant Matrix: (Units=GPa)
#
#
# Indices 1 2 3 4 5 6 
#
# 1 166.9045 89.2515 59.6760 0.0000 0.0000 0.0000
# 2 89.2515 166.9055 59.6762 0.0000 0.0000 0.0000
# 3 59.6760 59.6762 107.9960 0.0000 0.0000 0.0000
# 4 0.0000 0.0000 0.0000 43.1099 0.0000 0.0000
# 5 0.0000 0.0000 0.0000 0.0000 43.1104 0.0000
# 6 0.0000 0.0000 0.0000 0.0000 0.0000 62.4050
#
#
#
# Elastic Compliance Matrix: (Units=1/GPa)
#
#
# Indices 1 2 3 4 5 6 
#
# 1 0.009068 -0.003810 -0.002905 0.000000 0.000000 0.000000
# 2 -0.003810 0.009068 -0.002905 0.000000 0.000000 0.000000
# 3 -0.002905 -0.002905 0.012470 0.000000 0.000000 0.000000
# 4 0.000000 0.000000 0.000000 0.023197 0.000000 0.000000
# 5 0.000000 0.000000 0.000000 0.000000 0.023196 0.000000
# 6 0.000000 0.000000 0.000000 0.000000 0.000000 0.016024
#
#
# Mechanical properties :
#
#
# Convention : Reuss Voigt Hill
#
# Bulk Modulus (GPa) = 87.99281 95.44593 91.71937
# Shear Modulus (GPa) = 43.08426 45.27188 44.17807
#
# Velocity S-wave (km/s) = 4.21382 4.31948 4.26698
# Velocity P-wave (km/s) = 7.74207 8.01332 7.87886
#
# Compressibility (1/GPa) = 0.01136457
#
# Stress axis : x y z
#
# Youngs Moduli (GPa) = 110.28240 110.28309 80.19084
#
# Poissons Ratio (x) = 0.42019 0.23297
# Poissons Ratio (y) = 0.42019 0.23297
# Poissons Ratio (z) = 0.32039 0.32039
#
# Static dielectric constant tensor:
#      x y z
#    x 2.061640 0.000000 0.000000 
#    y 0.000000 2.061640 0.000000 
#    z 0.000000 0.000000 1.932830 
# 
# From -- ./inp_files/3872.got.cif
#   From: 2010.05.17/outbox.cif.g08.bks.cpg/sg116_2_cif.got.tgz:3872.got - 2010.05.20 11:11:43.
