data_PCOD9557030
_publ_section_title
;
Structure prediction by ZEFSAII (Michael W. Deem and Ramdas Pophale) SiO2 
 PCOD9557030
Probable space group: P -4 M 2
;
_chemical_formula_sum "Si O2"
_cell_formula_units_Z 40
_cell_length_a 7.980892
_cell_length_b 7.980892
_cell_length_c 30.389200
_cell_angle_alpha 90.000000
_cell_angle_beta 90.000000
_cell_angle_gamma 90.000000
_cell_volume 1935.629066
_symmetry_space_group_name_H-M "P -4 M 2"
_symmetry_group_IT_number 115
_symmetry_cell_setting 'tetragonal'
loop_
_space_group_symop_operation_xyz
x,y,z
y,-x,-z
-x,-y,z
-y,x,-z
y,x,-z
-y,-x,-z
-x,y,z
x,-y,z
loop_
_atom_site_type_symbol
_atom_site_label
_atom_site_fract_x
_atom_site_fract_y
_atom_site_fract_z
Si Si1 0.818744 0.701212 0.735115
Si Si2 0.699690 0.188600 0.546831
Si Si3 0.297415 0.500000 0.210785
Si Si4 0.500000 0.797563 0.890860
Si Si5 0.808931 0.203860 0.949722
Si Si6 0.203125 0.305724 0.359153
O O1 0.819158 0.500000 0.739486
O O2 0.664321 0.766620 0.763735
O O3 0.791278 0.741183 0.683867
O O4 0.000000 0.765995 0.749510
O O5 0.728017 0.271984 0.500000
O O6 0.500000 0.179147 0.553224
O O7 0.761007 0.264206 0.593206
O O8 0.767640 0.000000 0.542959
O O9 0.500000 0.500000 0.213989
O O10 0.250978 0.500000 0.159928
O O11 0.332196 0.737428 0.915843
O O12 0.500000 0.000000 0.893831
O O13 0.000000 0.263381 0.941667
O O14 0.814701 0.000000 0.947762
O O15 0.757697 0.242304 0.000000
O O16 0.256861 0.500000 0.353419
O O17 0.000000 0.303731 0.361345
#
# Coordination Sequence:
#
# PCOD9557030 Si02
#       6
#     8   8   4   4   8   8
#     4  10  21  37  58  80 103 141 187 227 278 343
#     4   9  19  34  50  72 104 139 172 212 263 320
#     4  10  22  40  54  74 116 148 174 230 290 325
#     4  10  20  34  56  84 110 146 194 232 274 337
#     4   8  15  31  54  79 112 149 183 229 282 327
#     4   9  18  34  55  77 103 135 175 226 280 329
#
# _framework density 20.665116999999999
#
# number of rings (size 3 to 8) (size 9 to 14) (size 15 to 20)
#    0.000    2.800    1.000    1.800    0.000    4.000 
#    1.800    6.000    0.000    0.000    0.000    0.000 
#    0.000    0.000    0.000    0.000    0.000    0.000 
#
# Total GULP energy -223063.620884 kJ/mol
# GULP energy per Si atom -5576.590522 kJ/mol
# Density = 2.061808 g / cm^3
# Si number density = 20.665117 Si / 1000 Ang^3
#
#
#
# Elastic Constant Matrix: (Units=GPa)
#
#
# Indices 1 2 3 4 5 6 
#
# 1 63.1385 23.6319 51.6926 0.0000 0.0000 0.0000
# 2 23.6319 63.1381 51.6922 0.0000 0.0000 0.0000
# 3 51.6926 51.6922 175.7290 0.0000 0.0000 0.0000
# 4 0.0000 0.0000 0.0000 27.0698 0.0000 0.0000
# 5 0.0000 0.0000 0.0000 0.0000 27.0698 0.0000
# 6 0.0000 0.0000 0.0000 0.0000 0.0000 25.6591
#
#
#
# Elastic Compliance Matrix: (Units=1/GPa)
#
#
# Indices 1 2 3 4 5 6 
#
# 1 0.021528 -0.003784 -0.005219 0.000000 0.000000 0.000000
# 2 -0.003784 0.021528 -0.005219 0.000000 0.000000 0.000000
# 3 -0.005219 -0.005219 0.008761 0.000000 0.000000 0.000000
# 4 0.000000 0.000000 0.000000 0.036941 0.000000 0.000000
# 5 0.000000 0.000000 0.000000 0.000000 0.036942 0.000000
# 6 0.000000 0.000000 0.000000 0.000000 0.000000 0.038973
#
#
# Mechanical properties :
#
#
# Convention : Reuss Voigt Hill
#
# Bulk Modulus (GPa) = 42.78878 61.78211 52.28544
# Shear Modulus (GPa) = 24.88683 27.62567 26.25625
#
# Velocity S-wave (km/s) = 3.47406 3.66023 3.56836
# Velocity P-wave (km/s) = 6.06983 6.91554 6.50644
#
# Compressibility (1/GPa) = 0.02337061
#
# Stress axis : x y z
#
# Youngs Moduli (GPa) = 46.45137 46.45117 114.13855
#
# Poissons Ratio (x) = 0.17579 0.59574
# Poissons Ratio (y) = 0.17579 0.59574
# Poissons Ratio (z) = 0.24245 0.24245
#
# Static dielectric constant tensor:
#      x y z
#    x 1.756740 0.000000 0.000000 
#    y 0.000000 1.756740 0.000000 
#    z 0.000000 0.000000 1.719380 
# 
# From -- ./inp_files/5552.got.cif
#   From: 2010.05.17/outbox.cif.g08.bks.cpg/sg115_3_cif.got.tgz:5552.got - 2010.05.20 11:07:42.
