data_PCOD9557710
_publ_section_title
;
Structure prediction by ZEFSAII (Michael W. Deem and Ramdas Pophale) SiO2 
 PCOD9557710
Probable space group: P -4 C 2
;
_chemical_formula_sum "Si O2"
_cell_formula_units_Z 56
_cell_length_a 10.979517
_cell_length_b 10.979517
_cell_length_c 21.990508
_cell_angle_alpha 90.000000
_cell_angle_beta 90.000000
_cell_angle_gamma 90.000000
_cell_volume 2650.951200
_symmetry_space_group_name_H-M "P -4 C 2"
_symmetry_group_IT_number 116
_symmetry_cell_setting 'tetragonal'
loop_
_space_group_symop_operation_xyz
x,y,z
y,-x,-z
-x,-y,z
-y,x,-z
y,x,1/2-z
-y,-x,1/2-z
-x,y,1/2+z
x,-y,1/2+z
loop_
_atom_site_type_symbol
_atom_site_label
_atom_site_fract_x
_atom_site_fract_y
_atom_site_fract_z
Si Si1 0.707282 0.498744 0.248639
Si Si2 0.199193 0.041700 0.930855
Si Si3 0.584587 0.190033 0.376641
Si Si4 0.199151 0.663102 0.576813
Si Si5 0.995128 0.761372 0.929708
Si Si6 0.607102 0.797907 0.131893
Si Si7 0.258448 0.379707 0.943380
O O1 0.613029 0.613029 0.250000
O O2 0.618463 0.381538 0.250000
O O3 0.790661 0.465334 0.190908
O O4 0.791561 0.527018 0.307365
O O5 0.298635 0.106007 0.887885
O O6 0.069153 0.106295 0.919147
O O7 0.227495 0.898754 0.922371
O O8 0.232161 0.055435 0.002772
O O9 0.468809 0.141192 0.413853
O O10 0.632713 0.318382 0.405029
O O11 0.293114 0.690844 0.630276
O O12 0.272669 0.648510 0.514247
O O13 0.871741 0.682871 0.931182
O O14 0.083106 0.687341 0.884184
O O15 0.516309 0.765290 0.077072
#
# Coordination Sequence:
#
# PCOD9557710 Si02
#       7
#     8   8   8   8   8   8   8
#     4  11  23  43  64  85 125 176 222 274 332 400
#     4  10  22  40  65  95 136 175 216 273 343 405
#     4  11  21  40  63  89 128 174 223 271 332 401
#     4  11  22  36  61  98 136 169 211 269 339 408
#     4  10  21  39  63  97 133 172 218 270 337 410
#     4  12  22  37  63  93 129 172 223 274 328 406
#     4  10  21  37  60  96 135 166 209 273 341 403
#
# _framework density 21.124493000000001
#
# number of rings (size 3 to 8) (size 9 to 14) (size 15 to 20)
#    0.000    1.286    2.857    5.143    0.000    4.857 
#    0.000    4.286    0.000    0.000    0.000    0.000 
#    0.000    0.000    0.000    0.000    0.000    0.000 
#
# Total GULP energy -311917.400780 kJ/mol
# GULP energy per Si atom -5569.953585 kJ/mol
# Density = 2.107641 g / cm^3
# Si number density = 21.124493 Si / 1000 Ang^3
#
#
#
# Elastic Constant Matrix: (Units=GPa)
#
#
# Indices 1 2 3 4 5 6 
#
# 1 96.0637 42.1454 54.7029 0.0000 0.0000 0.0000
# 2 42.1454 96.0639 54.7030 0.0000 0.0000 0.0000
# 3 54.7029 54.7030 131.7482 0.0000 0.0000 0.0000
# 4 0.0000 0.0000 0.0000 14.2089 0.0000 0.0000
# 5 0.0000 0.0000 0.0000 0.0000 14.2079 0.0000
# 6 0.0000 0.0000 0.0000 0.0000 0.0000 19.0225
#
#
#
# Elastic Compliance Matrix: (Units=1/GPa)
#
#
# Indices 1 2 3 4 5 6 
#
# 1 0.014662 -0.003884 -0.004475 0.000000 0.000000 0.000000
# 2 -0.003884 0.014662 -0.004475 0.000000 0.000000 0.000000
# 3 -0.004475 -0.004475 0.011306 0.000000 0.000000 0.000000
# 4 0.000000 0.000000 0.000000 0.070379 0.000000 0.000000
# 5 0.000000 0.000000 0.000000 0.000000 0.070383 0.000000
# 6 0.000000 0.000000 0.000000 0.000000 0.000000 0.052569
#
#
# Mechanical properties :
#
#
# Convention : Reuss Voigt Hill
#
# Bulk Modulus (GPa) = 66.83652 69.66425 68.25038
# Shear Modulus (GPa) = 18.89513 20.97615 19.93564
#
# Velocity S-wave (km/s) = 2.99401 3.15457 3.07534
# Velocity P-wave (km/s) = 6.60758 6.80573 6.70739
#
# Compressibility (1/GPa) = 0.01496188
#
# Stress axis : x y z
#
# Youngs Moduli (GPa) = 68.20257 68.20270 88.44551
#
# Poissons Ratio (x) = 0.26492 0.39580
# Poissons Ratio (y) = 0.26492 0.39580
# Poissons Ratio (z) = 0.30521 0.30521
#
# Static dielectric constant tensor:
#      x y z
#    x 1.804130 0.000000 0.000000 
#    y 0.000000 1.804130 0.000000 
#    z 0.000000 0.000000 1.756780 
# 
# From -- ./inp_files/4152.got.cif
#   From: 2010.05.17/outbox.cif.g08.bks.cpg/sg116_3_cif.got.tgz:4152.got - 2010.05.20 11:11:43.
