data_PCOD9557286
_publ_section_title
;
Structure prediction by ZEFSAII (Michael W. Deem and Ramdas Pophale) SiO2 
 PCOD9557286
Probable space group: P -4 M 2
;
_chemical_formula_sum "Si O2"
_cell_formula_units_Z 28
_cell_length_a 9.187225
_cell_length_b 9.187225
_cell_length_c 18.764601
_cell_angle_alpha 90.000000
_cell_angle_beta 90.000000
_cell_angle_gamma 90.000000
_cell_volume 1583.828084
_symmetry_space_group_name_H-M "P -4 M 2"
_symmetry_group_IT_number 115
_symmetry_cell_setting 'tetragonal'
loop_
_space_group_symop_operation_xyz
x,y,z
y,-x,-z
-x,-y,z
-y,x,-z
y,x,-z
-y,-x,-z
-x,y,z
x,-y,z
loop_
_atom_site_type_symbol
_atom_site_label
_atom_site_fract_x
_atom_site_fract_y
_atom_site_fract_z
Si Si1 0.677423 0.331412 0.577892
Si Si2 0.825475 0.827803 0.132641
Si Si3 0.670351 0.174385 0.721615
Si Si4 0.673049 0.673049 0.000000
O O1 0.725051 0.274950 0.500000
O O2 0.500000 0.327792 0.575460
O O3 0.720638 0.500000 0.585328
O O4 0.722639 0.243938 0.647646
O O5 0.782162 0.761763 0.209157
O O6 0.000000 0.805617 0.124434
O O7 0.797630 0.000000 0.129961
O O8 0.743141 0.746596 0.069412
O O9 0.500000 0.214488 0.732068
O O10 0.677453 0.000000 0.715379
O O11 0.698681 0.500000 0.001474
#
# Coordination Sequence:
#
# PCOD9557286 Si02
#       4
#     8   8   8   4
#     4   8  14  26  45  68  94 126 164 205 249 296
#     4  10  21  37  56  77 103 136 171 206 249 302
#     4   9  17  30  49  72  98 129 165 205 249 297
#     4  11  24  39  56  80 106 131 164 207 252 298
#
# _framework density 17.678687
#
# number of rings (size 3 to 8) (size 9 to 14) (size 15 to 20)
#    0.000    2.714    0.000    2.571    0.000    5.714 
#    0.000    4.286    0.000    1.714    0.000    0.000 
#    0.000    0.000    0.000    0.000    0.000    0.000 
#
# Total GULP energy -156129.699585 kJ/mol
# GULP energy per Si atom -5576.060699 kJ/mol
# Density = 1.763845 g / cm^3
# Si number density = 17.678687 Si / 1000 Ang^3
#
#
#
# Elastic Constant Matrix: (Units=GPa)
#
#
# Indices 1 2 3 4 5 6 
#
# 1 53.9719 51.5422 80.7937 0.0000 0.0000 0.0000
# 2 51.5422 53.9722 80.7938 0.0000 0.0000 0.0000
# 3 80.7937 80.7938 224.2512 0.0000 0.0000 0.0000
# 4 0.0000 0.0000 0.0000 74.5071 0.0000 0.0000
# 5 0.0000 0.0000 0.0000 0.0000 74.5094 0.0000
# 6 0.0000 0.0000 0.0000 0.0000 0.0000 19.0287
#
#
#
# Elastic Compliance Matrix: (Units=1/GPa)
#
#
# Indices 1 2 3 4 5 6 
#
# 1 0.216346 -0.195202 -0.007618 0.000000 0.000000 0.000000
# 2 -0.195202 0.216344 -0.007617 0.000000 0.000000 0.000000
# 3 -0.007618 -0.007617 0.009948 0.000000 0.000000 0.000000
# 4 0.000000 0.000000 0.000000 0.013422 0.000000 0.000000
# 5 0.000000 0.000000 0.000000 0.000000 0.013421 0.000000
# 6 0.000000 0.000000 0.000000 0.000000 0.000000 0.052552
#
#
# Mechanical properties :
#
#
# Convention : Reuss Voigt Hill
#
# Bulk Modulus (GPa) = 45.94678 84.27273 65.10976
# Shear Modulus (GPa) = 5.26225 41.54674 23.40450
#
# Velocity S-wave (km/s) = 1.72716 4.85305 3.64247
# Velocity P-wave (km/s) = 5.47940 8.89805 7.38915
#
# Compressibility (1/GPa) = 0.02176431
#
# Stress axis : x y z
#
# Youngs Moduli (GPa) = 4.62222 4.62226 100.52129
#
# Poissons Ratio (x) = 0.90228 0.76574
# Poissons Ratio (y) = 0.90227 0.76569
# Poissons Ratio (z) = 0.03521 0.03521
#
# Static dielectric constant tensor:
#      x y z
#    x 1.592030 0.000000 0.000000 
#    y 0.000000 1.592030 0.000000 
#    z 0.000000 0.000000 1.597470 
# 
# From -- ./inp_files/4013.got.cif
#   From: 2010.05.17/outbox.cif.g08.bks.cpg/sg115_3_cif.got.tgz:4013.got - 2010.05.20 11:07:42.
