data_PCOD9557203
_publ_section_title
;
Structure prediction by ZEFSAII (Michael W. Deem and Ramdas Pophale) SiO2 
 PCOD9557203
Probable space group: P -4 M 2
;
_chemical_formula_sum "Si O2"
_cell_formula_units_Z 48
_cell_length_a 9.101055
_cell_length_b 9.101055
_cell_length_c 32.044975
_cell_angle_alpha 90.000000
_cell_angle_beta 90.000000
_cell_angle_gamma 90.000000
_cell_volume 2654.259711
_symmetry_space_group_name_H-M "P -4 M 2"
_symmetry_group_IT_number 115
_symmetry_cell_setting 'tetragonal'
loop_
_space_group_symop_operation_xyz
x,y,z
y,-x,-z
-x,-y,z
-y,x,-z
y,x,-z
-y,-x,-z
-x,y,z
x,-y,z
loop_
_atom_site_type_symbol
_atom_site_label
_atom_site_fract_x
_atom_site_fract_y
_atom_site_fract_z
Si Si1 0.172566 0.823924 0.124572
Si Si2 0.175410 0.673680 0.960670
Si Si3 0.674766 0.174784 0.380533
Si Si4 0.677052 0.825056 0.698138
Si Si5 0.675189 0.824772 0.539919
Si Si6 0.178685 0.670142 0.208753
O O1 0.257232 0.774108 0.083256
O O2 0.228405 0.757794 0.168134
O O3 0.000000 0.785620 0.120042
O O4 0.183334 0.000000 0.127003
O O5 0.200115 0.500000 0.960459
O O6 0.000000 0.700522 0.964024
O O7 0.253283 0.746718 0.000000
O O8 0.500000 0.199420 0.383718
O O9 0.736610 0.241274 0.337643
O O10 0.756384 0.254191 0.418642
O O11 0.701456 0.000000 0.382286
O O12 0.500000 0.806877 0.694923
O O13 0.721960 0.777154 0.745023
O O14 0.706221 0.000000 0.693583
O O15 0.749234 0.749234 0.500000
O O16 0.500000 0.799368 0.539586
O O17 0.699878 0.000000 0.538824
O O18 0.221153 0.500000 0.204508
O O19 0.000000 0.675637 0.209118
#
# Coordination Sequence:
#
# PCOD9557203 Si02
#       6
#     8   8   8   8   8   8
#     4   9  17  30  50  75 101 131 169 211 255 307
#     4  10  21  36  53  74 101 134 171 212 260 312
#     4  11  24  39  55  80 113 147 185 226 268 317
#     4   9  18  34  56  81 108 140 180 223 266 314
#     4  11  24  41  62  88 115 144 181 223 267 318
#     4   8  15  29  50  76 104 133 169 214 260 308
#
# _framework density 18.084139
#
# number of rings (size 3 to 8) (size 9 to 14) (size 15 to 20)
#    0.000    2.333    0.000    3.500    0.000    9.333 
#    0.000    4.167    0.000    3.000    0.000    0.000 
#    0.000    0.000    0.000    0.000    0.000    0.000 
#
# Total GULP energy -267892.835814 kJ/mol
# GULP energy per Si atom -5581.100746 kJ/mol
# Density = 1.804298 g / cm^3
# Si number density = 18.084139 Si / 1000 Ang^3
#
#
#
# Elastic Constant Matrix: (Units=GPa)
#
#
# Indices 1 2 3 4 5 6 
#
# 1 69.9837 70.0660 87.5938 0.0000 0.0000 0.0000
# 2 70.0660 69.9843 87.5942 0.0000 0.0000 0.0000
# 3 87.5938 87.5942 223.8546 0.0000 0.0000 0.0000
# 4 0.0000 0.0000 0.0000 88.0257 0.0000 0.0000
# 5 0.0000 0.0000 0.0000 0.0000 88.0223 0.0000
# 6 0.0000 0.0000 0.0000 0.0000 0.0000 23.8005
#
#
#
# Elastic Compliance Matrix: (Units=1/GPa)
#
#
# Indices 1 2 3 4 5 6 
#
# 1 -6.088468 6.102431 -0.005474 0.000000 0.000000 0.000000
# 2 6.102431 -6.088420 -0.005471 0.000000 0.000000 0.000000
# 3 -0.005474 -0.005471 0.008750 0.000000 0.000000 0.000000
# 4 0.000000 0.000000 0.000000 0.011360 0.000000 0.000000
# 5 0.000000 0.000000 0.000000 0.000000 0.011361 0.000000
# 6 0.000000 0.000000 0.000000 0.000000 0.000000 0.042016
#
#
# Mechanical properties :
#
#
# Convention : Reuss Voigt Hill
#
# Bulk Modulus (GPa) = 67.42436 94.92560 81.17498
# Shear Modulus (GPa) = -0.20592 47.87427 23.83418
#
# Velocity S-wave (km/s) = -0.33781 5.15078 3.63431
# Velocity P-wave (km/s) = 6.10020 9.37972 7.91175
#
# Compressibility (1/GPa) = 0.01483144
#
# Stress axis : x y z
#
# Youngs Moduli (GPa) = -0.16424 -0.16425 114.28355
#
# Poissons Ratio (x) = 1.00230 0.62561
# Poissons Ratio (y) = 1.00229 0.62528
# Poissons Ratio (z) = -0.00090 -0.00090
#
# Static dielectric constant tensor:
#      x y z
#    x 1.603980 0.000000 0.000000 
#    y 0.000000 1.603980 0.000000 
#    z 0.000000 0.000000 1.609550 
# 
# From -- ./inp_files/6080.got.cif
#   From: 2010.05.17/outbox.cif.g08.bks.cpg/sg115_4_cif.got.tgz:6080.got - 2010.05.20 11:07:42.
