data_PCOD9557281
_publ_section_title
;
Structure prediction by ZEFSAII (Michael W. Deem and Ramdas Pophale) SiO2 
 PCOD9557281
Probable space group: P -4 M 2
;
_chemical_formula_sum "Si O2"
_cell_formula_units_Z 48
_cell_length_a 8.095247
_cell_length_b 8.095247
_cell_length_c 35.393531
_cell_angle_alpha 90.000000
_cell_angle_beta 90.000000
_cell_angle_gamma 90.000000
_cell_volume 2319.445116
_symmetry_space_group_name_H-M "P -4 M 2"
_symmetry_group_IT_number 115
_symmetry_cell_setting 'tetragonal'
loop_
_space_group_symop_operation_xyz
x,y,z
y,-x,-z
-x,-y,z
-y,x,-z
y,x,-z
-y,-x,-z
-x,y,z
x,-y,z
loop_
_atom_site_type_symbol
_atom_site_label
_atom_site_fract_x
_atom_site_fract_y
_atom_site_fract_z
Si Si1 0.191019 0.691166 0.700256
Si Si2 0.691466 0.701722 0.959643
Si Si3 0.688513 0.698750 0.123109
Si Si4 0.688197 0.000000 0.747856
Si Si5 0.315803 0.302993 0.620110
Si Si6 0.000000 0.811547 0.169530
Si Si7 0.198038 0.187251 0.459890
O O1 0.254424 0.500000 0.704115
O O2 0.279573 0.834320 0.723631
O O3 0.202233 0.736992 0.655760
O O4 0.000000 0.689951 0.711687
O O5 0.500000 0.757142 0.958867
O O6 0.690116 0.500000 0.961149
O O7 0.764729 0.740305 0.918602
O O8 0.761166 0.761166 0.000000
O O9 0.500000 0.756142 0.132058
O O10 0.678141 0.500000 0.119733
O O11 0.831443 0.735944 0.152808
O O12 0.500000 0.000000 0.760850
O O13 0.796770 0.000000 0.785392
O O14 0.500000 0.252791 0.631501
O O15 0.309402 0.500000 0.615569
O O16 0.276545 0.232152 0.579170
O O17 0.000000 0.000000 0.157638
O O18 0.259803 0.259803 0.500000
O O19 0.000000 0.180263 0.464606
O O20 0.262285 0.000000 0.455461
#
# Coordination Sequence:
#
# PCOD9557281 Si02
#       7
#     8   8   8   4   8   4   8
#     4  10  22  42  67  94 125 159 196 241 299 369
#     4   7  10  20  45  81 113 143 188 245 298 349
#     4   9  18  35  61  89 117 154 202 255 307 360
#     4  12  26  44  68  94 120 154 198 254 308 364
#     4  10  21  36  55  82 115 150 188 233 288 347
#     4  12  26  42  60  84 122 164 204 246 300 368
#     4   9  19  35  53  75 106 147 195 243 289 343
#
# _framework density 20.694606
#
# number of rings (size 3 to 8) (size 9 to 14) (size 15 to 20)
#    0.000    2.500    0.000    4.500    1.167    4.000 
#    0.000    2.500    1.833    0.000    0.000    0.000 
#    0.000    0.000    0.000    0.000    0.000    0.000 
#
# Total GULP energy -267478.478403 kJ/mol
# GULP energy per Si atom -5572.468300 kJ/mol
# Density = 2.064750 g / cm^3
# Si number density = 20.694606 Si / 1000 Ang^3
#
#
#
# Elastic Constant Matrix: (Units=GPa)
#
#
# Indices 1 2 3 4 5 6 
#
# 1 47.3554 17.4734 22.1112 0.0000 0.0000 0.0000
# 2 17.4734 47.3554 22.1112 0.0000 0.0000 0.0000
# 3 22.1112 22.1112 112.7832 0.0000 0.0000 0.0000
# 4 0.0000 0.0000 0.0000 24.8196 0.0000 0.0000
# 5 0.0000 0.0000 0.0000 0.0000 24.8196 0.0000
# 6 0.0000 0.0000 0.0000 0.0000 0.0000 12.2393
#
#
#
# Elastic Compliance Matrix: (Units=1/GPa)
#
#
# Indices 1 2 3 4 5 6 
#
# 1 0.025636 -0.007829 -0.003491 0.000000 0.000000 0.000000
# 2 -0.007829 0.025636 -0.003491 0.000000 0.000000 0.000000
# 3 -0.003491 -0.003491 0.010235 0.000000 0.000000 0.000000
# 4 0.000000 0.000000 0.000000 0.040291 0.000000 0.000000
# 5 0.000000 0.000000 0.000000 0.000000 0.040291 0.000000
# 6 0.000000 0.000000 0.000000 0.000000 0.000000 0.081704
#
#
# Mechanical properties :
#
#
# Convention : Reuss Voigt Hill
#
# Bulk Modulus (GPa) = 31.36307 36.76504 34.06406
# Shear Modulus (GPa) = 18.93630 22.09558 20.51594
#
# Velocity S-wave (km/s) = 3.02824 3.27111 3.15201
# Velocity P-wave (km/s) = 5.23594 5.66312 5.45371
#
# Compressibility (1/GPa) = 0.03188463
#
# Stress axis : x y z
#
# Youngs Moduli (GPa) = 39.00796 39.00796 97.70021
#
# Poissons Ratio (x) = 0.30540 0.34107
# Poissons Ratio (y) = 0.30540 0.34107
# Poissons Ratio (z) = 0.13618 0.13618
#
# Static dielectric constant tensor:
#      x y z
#    x 1.753250 0.000000 0.000000 
#    y 0.000000 1.753250 0.000000 
#    z 0.000000 0.000000 1.758460 
# 
# From -- ./inp_files/6258.got.cif
#   From: 2010.05.17/outbox.cif.g08.bks.cpg/sg115_4_cif.got.tgz:6258.got - 2010.05.20 11:07:42.
