data_PCOD9557625
_publ_section_title
;
Structure prediction by ZEFSAII (Michael W. Deem and Ramdas Pophale) SiO2 
 PCOD9557625
Probable space group: P -4 C 2
;
_chemical_formula_sum "Si O2"
_cell_formula_units_Z 64
_cell_length_a 11.382783
_cell_length_b 11.382783
_cell_length_c 25.291169
_cell_angle_alpha 90.000000
_cell_angle_beta 90.000000
_cell_angle_gamma 90.000000
_cell_volume 3276.919832
_symmetry_space_group_name_H-M "P -4 C 2"
_symmetry_group_IT_number 116
_symmetry_cell_setting 'tetragonal'
loop_
_space_group_symop_operation_xyz
x,y,z
y,-x,-z
-x,-y,z
-y,x,-z
y,x,1/2-z
-y,-x,1/2-z
-x,y,1/2+z
x,-y,1/2+z
loop_
_atom_site_type_symbol
_atom_site_label
_atom_site_fract_x
_atom_site_fract_y
_atom_site_fract_z
Si Si1 0.807730 0.381264 0.152972
Si Si2 0.495237 0.302635 0.250000
Si Si3 0.737275 0.453713 0.559869
Si Si4 0.453713 0.262725 0.059869
Si Si5 0.979749 0.368558 0.585880
Si Si6 0.618736 0.192270 0.152972
Si Si7 0.189527 0.000000 0.500000
Si Si8 0.368558 0.979749 0.585880
O O1 0.775642 0.473399 0.198979
O O2 0.752269 0.438504 0.100097
O O3 0.739997 0.260004 0.164513
O O4 0.945951 0.365481 0.140120
O O5 0.369751 0.369751 0.250000
O O6 0.592140 0.407861 0.250000
O O7 0.526602 0.224358 0.198979
O O8 0.753626 0.500000 0.500000
O O9 0.614146 0.385854 0.563438
O O10 0.839540 0.363592 0.579865
O O11 0.561495 0.247731 0.100097
O O12 0.363592 0.160460 0.079865
O O13 0.035175 0.271871 0.548228
O O14 0.000000 0.500000 0.564568
O O15 0.634519 0.054049 0.140120
O O16 0.106221 0.106221 0.483806
O O17 0.271871 0.035175 0.548228
O O18 0.500000 0.000000 0.564568
#
# Coordination Sequence:
#
# PCOD9557625 Si02
#       8
#     8   8   8   8   8   8   8   8
#     4  10  20  35  56  80 106 138 176 220 270 323
#     4   9  18  34  57  84 111 137 173 225 276 323
#     4  11  22  35  53  78 111 147 181 222 269 320
#     4  11  22  35  53  78 111 147 181 222 269 320
#     4  10  20  34  49  71 103 138 174 211 260 318
#     4  10  20  35  56  80 106 138 176 220 270 323
#     4  11  21  32  50  74 101 137 180 224 262 305
#     4  10  20  34  49  71 103 138 174 211 260 318
#
# _framework density 19.530535
#
# number of rings (size 3 to 8) (size 9 to 14) (size 15 to 20)
#    0.000    1.750    0.000    6.375    0.000    3.750 
#    0.000    5.625    0.000    0.000    0.000    2.625 
#    0.000   14.000    0.000    0.000    0.000    5.250 
#
# Total GULP energy -356570.343076 kJ/mol
# GULP energy per Si atom -5571.411611 kJ/mol
# Density = 1.948608 g / cm^3
# Si number density = 19.530535 Si / 1000 Ang^3
#
#
#
# Elastic Constant Matrix: (Units=GPa)
#
#
# Indices 1 2 3 4 5 6 
#
# 1 69.0797 24.1058 16.8094 0.0000 0.0000 0.0000
# 2 24.1058 69.0797 16.8093 0.0000 0.0000 0.0000
# 3 16.8094 16.8093 93.1154 0.0000 0.0000 0.0000
# 4 0.0000 0.0000 0.0000 16.3118 0.0000 0.0000
# 5 0.0000 0.0000 0.0000 0.0000 16.3137 0.0000
# 6 0.0000 0.0000 0.0000 0.0000 0.0000 25.8435
#
#
#
# Elastic Compliance Matrix: (Units=1/GPa)
#
#
# Indices 1 2 3 4 5 6 
#
# 1 0.016857 -0.005378 -0.002072 0.000000 0.000000 0.000000
# 2 -0.005378 0.016857 -0.002072 0.000000 0.000000 0.000000
# 3 -0.002072 -0.002072 0.011488 0.000000 0.000000 0.000000
# 4 0.000000 0.000000 0.000000 0.061305 0.000000 0.000000
# 5 0.000000 0.000000 0.000000 0.000000 0.061298 0.000000
# 6 0.000000 0.000000 0.000000 0.000000 0.000000 0.038694
#
#
# Mechanical properties :
#
#
# Convention : Reuss Voigt Hill
#
# Bulk Modulus (GPa) = 38.23141 38.52487 38.37814
# Shear Modulus (GPa) = 21.34350 23.26382 22.30366
#
# Velocity S-wave (km/s) = 3.30938 3.45505 3.38300
# Velocity P-wave (km/s) = 5.84982 5.97367 5.91207
#
# Compressibility (1/GPa) = 0.02615650
#
# Stress axis : x y z
#
# Youngs Moduli (GPa) = 59.32258 59.32259 87.05109
#
# Poissons Ratio (x) = 0.31904 0.18039
# Poissons Ratio (y) = 0.31904 0.18038
# Poissons Ratio (z) = 0.12293 0.12293
#
# Static dielectric constant tensor:
#      x y z
#    x 1.738450 0.000000 0.000000 
#    y 0.000000 1.738450 0.000000 
#    z 0.000000 0.000000 1.684960 
# 
# From -- ./inp_files/4653.got.cif
#   From: 2010.05.17/outbox.cif.g08.bks.cpg/sg116_3_cif.got.tgz:4653.got - 2010.05.20 11:11:43.
