data_PCOD9557854
_publ_section_title
;
Structure prediction by ZEFSAII (Michael W. Deem and Ramdas Pophale) SiO2 
 PCOD9557854
Probable space group: P -4 C 2
;
_chemical_formula_sum "Si O2"
_cell_formula_units_Z 26
_cell_length_a 8.101441
_cell_length_b 8.101441
_cell_length_c 17.405677
_cell_angle_alpha 90.000000
_cell_angle_beta 90.000000
_cell_angle_gamma 90.000000
_cell_volume 1142.392826
_symmetry_space_group_name_H-M "P -4 C 2"
_symmetry_group_IT_number 116
_symmetry_cell_setting 'tetragonal'
loop_
_space_group_symop_operation_xyz
x,y,z
y,-x,-z
-x,-y,z
-y,x,-z
y,x,1/2-z
-y,-x,1/2-z
-x,y,1/2+z
x,-y,1/2+z
loop_
_atom_site_type_symbol
_atom_site_label
_atom_site_fract_x
_atom_site_fract_y
_atom_site_fract_z
Si Si1 0.786138 0.393362 0.144992
Si Si2 0.000000 0.000000 0.500000
Si Si3 0.811279 0.521773 0.319968
Si Si4 0.733292 0.864541 0.391541
O O1 0.789461 0.471943 0.230642
O O2 0.612492 0.301899 0.136070
O O3 0.817848 0.544362 0.086491
O O4 0.949180 0.279063 0.142409
O O5 0.876499 0.881915 0.453366
O O6 0.776562 0.711682 0.337166
O O7 0.000000 0.500000 0.341610
#
# Coordination Sequence:
#
# PCOD9557854 Si02
#       4
#     8   2   8   8
#     4  10  23  42  72 112 141 180 244 320 391 432
#     4  12  28  48  70  92 152 224 256 294 360 488
#     4  11  21  40  75 113 141 179 234 323 392 441
#     4  11  23  46  66 102 146 193 250 300 366 462
#
# _framework density 22.759246999999998
#
# number of rings (size 3 to 8) (size 9 to 14) (size 15 to 20)
#    0.000    1.231    3.077    3.692    0.000    2.462 
#   16.615    0.000    0.000    0.000    0.000    0.000 
#    0.000    0.000    0.000    0.000    0.000    0.000 
#
# Total GULP energy -145088.600983 kJ/mol
# GULP energy per Si atom -5580.330807 kJ/mol
# Density = 2.270745 g / cm^3
# Si number density = 22.759247 Si / 1000 Ang^3
#
#
#
# Elastic Constant Matrix: (Units=GPa)
#
#
# Indices 1 2 3 4 5 6 
#
# 1 94.5580 75.6178 35.2031 0.0000 0.0000 0.0000
# 2 75.6178 94.5580 35.2031 0.0000 0.0000 0.0000
# 3 35.2031 35.2031 25.0092 0.0000 0.0000 0.0000
# 4 0.0000 0.0000 0.0000 10.2681 0.0000 0.0000
# 5 0.0000 0.0000 0.0000 0.0000 10.2681 0.0000
# 6 0.0000 0.0000 0.0000 0.0000 0.0000 60.2865
#
#
#
# Elastic Compliance Matrix: (Units=1/GPa)
#
#
# Indices 1 2 3 4 5 6 
#
# 1 0.033434 -0.019364 -0.019805 0.000000 0.000000 0.000000
# 2 -0.019364 0.033434 -0.019805 0.000000 0.000000 0.000000
# 3 -0.019805 -0.019805 0.095742 0.000000 0.000000 0.000000
# 4 0.000000 0.000000 0.000000 0.097389 0.000000 0.000000
# 5 0.000000 0.000000 0.000000 0.000000 0.097389 0.000000
# 6 0.000000 0.000000 0.000000 0.000000 0.000000 0.016587
#
#
# Mechanical properties :
#
#
# Convention : Reuss Voigt Hill
#
# Bulk Modulus (GPa) = 22.39109 56.24146 39.31628
# Shear Modulus (GPa) = 9.86562 20.70464 15.28513
#
# Velocity S-wave (km/s) = 2.08427 3.01944 2.59434
# Velocity P-wave (km/s) = 3.95624 6.07627 5.12703
#
# Compressibility (1/GPa) = 0.04466062
#
# Stress axis : x y z
#
# Youngs Moduli (GPa) = 29.90973 29.90973 10.44476
#
# Poissons Ratio (x) = 0.57916 0.20686
# Poissons Ratio (y) = 0.57916 0.20686
# Poissons Ratio (z) = 0.59238 0.59238
#
# Static dielectric constant tensor:
#      x y z
#    x 1.901170 0.000000 0.000000 
#    y 0.000000 1.901170 0.000000 
#    z 0.000000 0.000000 1.876420 
# 
# From -- ./inp_files/3614.got.cif
#   From: 2010.05.17/outbox.cif.g08.bks.cpg/sg116_2_cif.got.tgz:3614.got - 2010.05.20 11:11:43.
