data_PCOD9557457
_publ_section_title
;
Structure prediction by ZEFSAII (Michael W. Deem and Ramdas Pophale) SiO2 
 PCOD9557457
Probable space group: P -4 M 2
;
_chemical_formula_sum "Si O2"
_cell_formula_units_Z 40
_cell_length_a 9.071618
_cell_length_b 9.071618
_cell_length_c 26.973623
_cell_angle_alpha 90.000000
_cell_angle_beta 90.000000
_cell_angle_gamma 90.000000
_cell_volume 2219.774159
_symmetry_space_group_name_H-M "P -4 M 2"
_symmetry_group_IT_number 115
_symmetry_cell_setting 'tetragonal'
loop_
_space_group_symop_operation_xyz
x,y,z
y,-x,-z
-x,-y,z
-y,x,-z
y,x,-z
-y,-x,-z
-x,y,z
x,-y,z
loop_
_atom_site_type_symbol
_atom_site_label
_atom_site_fract_x
_atom_site_fract_y
_atom_site_fract_z
Si Si1 0.171668 0.820138 0.553919
Si Si2 0.324430 0.175629 0.952387
Si Si3 0.677748 0.824465 0.763388
Si Si4 0.824820 0.675229 0.857467
Si Si5 0.820623 0.329262 0.346622
O O1 0.229994 0.770007 0.500000
O O2 0.249322 0.767910 0.603883
O O3 0.000000 0.781810 0.557029
O O4 0.180727 0.000000 0.552957
O O5 0.500000 0.201376 0.952613
O O6 0.253662 0.243521 0.903063
O O7 0.299624 0.000000 0.953789
O O8 0.250996 0.250996 0.000000
O O9 0.500000 0.805608 0.766313
O O10 0.757423 0.736552 0.806540
O O11 0.726673 0.777106 0.707942
O O12 0.706014 0.000000 0.768936
O O13 0.800450 0.500000 0.861347
O O14 0.000000 0.702551 0.859155
O O15 0.778913 0.500000 0.349580
O O16 0.000000 0.322705 0.346816
#
# Coordination Sequence:
#
# PCOD9557457 Si02
#       5
#     8   8   8   8   8
#     4   8  13  21  35  58  87 118 155 198 241 289
#     4  11  24  41  62  88 115 143 178 217 255 300
#     4   9  18  33  53  77 102 130 170 217 261 308
#     4  11  24  39  55  79 110 142 177 215 256 306
#     4   8  14  25  42  65  93 123 157 200 248 298
#
# _framework density 18.019852
#
# number of rings (size 3 to 8) (size 9 to 14) (size 15 to 20)
#    0.000    2.600    0.000    4.200    0.000    9.200 
#    0.000    2.000    0.000    1.200    0.000    2.800 
#    0.000    0.000    0.000    0.000    0.000    0.000 
#
# Total GULP energy -223039.045239 kJ/mol
# GULP energy per Si atom -5575.976131 kJ/mol
# Density = 1.797884 g / cm^3
# Si number density = 18.019852 Si / 1000 Ang^3
#
#
#
# Elastic Constant Matrix: (Units=GPa)
#
#
# Indices 1 2 3 4 5 6 
#
# 1 65.5695 58.6326 80.8620 0.0000 0.0000 0.0000
# 2 58.6326 65.5697 80.8621 0.0000 0.0000 0.0000
# 3 80.8620 80.8621 230.9121 0.0000 0.0000 0.0000
# 4 0.0000 0.0000 0.0000 95.3936 0.0000 0.0000
# 5 0.0000 0.0000 0.0000 0.0000 95.3957 0.0000
# 6 0.0000 0.0000 0.0000 0.0000 0.0000 21.1483
#
#
#
# Elastic Compliance Matrix: (Units=1/GPa)
#
#
# Indices 1 2 3 4 5 6 
#
# 1 0.079478 -0.064678 -0.005183 0.000000 0.000000 0.000000
# 2 -0.064678 0.079478 -0.005183 0.000000 0.000000 0.000000
# 3 -0.005183 -0.005183 0.007960 0.000000 0.000000 0.000000
# 4 0.000000 0.000000 0.000000 0.010483 0.000000 0.000000
# 5 0.000000 0.000000 0.000000 0.000000 0.010483 0.000000
# 6 0.000000 0.000000 0.000000 0.000000 0.000000 0.047285
#
#
# Mechanical properties :
#
#
# Convention : Reuss Voigt Hill
#
# Bulk Modulus (GPa) = 59.42020 89.19608 74.30814
# Shear Modulus (GPa) = 12.79221 51.83382 32.31301
#
# Velocity S-wave (km/s) = 2.66728 5.36911 4.23920
# Velocity P-wave (km/s) = 6.52168 9.38310 8.08006
#
# Compressibility (1/GPa) = 0.01682929
#
# Stress axis : x y z
#
# Youngs Moduli (GPa) = 12.58211 12.58216 125.62135
#
# Poissons Ratio (x) = 0.81379 0.65106
# Poissons Ratio (y) = 0.81379 0.65105
# Poissons Ratio (z) = 0.06521 0.06521
#
# Static dielectric constant tensor:
#      x y z
#    x 1.602690 0.000000 0.000000 
#    y 0.000000 1.602690 0.000000 
#    z 0.000000 0.000000 1.628920 
# 
# From -- ./inp_files/5137.got.cif
#   From: 2010.05.17/outbox.cif.g08.bks.cpg/sg115_3_cif.got.tgz:5137.got - 2010.05.20 11:07:42.
