data_PCOD9557952
_publ_section_title
;
Structure prediction by ZEFSAII (Michael W. Deem and Ramdas Pophale) SiO2 
 PCOD9557952
Probable space group: P -4 C 2
;
_chemical_formula_sum "Si O2"
_cell_formula_units_Z 40
_cell_length_a 14.375983
_cell_length_b 14.375983
_cell_length_c 8.901533
_cell_angle_alpha 90.000000
_cell_angle_beta 90.000000
_cell_angle_gamma 90.000000
_cell_volume 1839.669920
_symmetry_space_group_name_H-M "P -4 C 2"
_symmetry_group_IT_number 116
_symmetry_cell_setting 'tetragonal'
loop_
_space_group_symop_operation_xyz
x,y,z
y,-x,-z
-x,-y,z
-y,x,-z
y,x,1/2-z
-y,-x,1/2-z
-x,y,1/2+z
x,-y,1/2+z
loop_
_atom_site_type_symbol
_atom_site_label
_atom_site_fract_x
_atom_site_fract_y
_atom_site_fract_z
Si Si1 0.612253 0.750981 0.814709
Si Si2 0.114635 0.936969 0.584895
Si Si3 0.316655 0.102123 0.188170
Si Si4 0.709445 0.419518 0.836860
Si Si5 0.396506 0.963889 0.393463
O O1 0.704265 0.704265 0.750000
O O2 0.525755 0.724747 0.709146
O O3 0.618380 0.862151 0.823877
O O4 0.593190 0.712270 0.983322
O O5 0.071587 0.928414 0.750000
O O6 0.217113 0.894920 0.606576
O O7 0.043542 0.885037 0.472522
O O8 0.358994 0.202441 0.221139
O O9 0.320956 0.037131 0.333308
O O10 0.384335 0.051440 0.070245
O O11 0.620641 0.379360 0.750000
O O12 0.500000 0.000000 0.362661
#
# Coordination Sequence:
#
# PCOD9557952 Si02
#       5
#     8   8   8   8   8
#     4  11  25  43  69 101 137 184 229 291 351 431
#     4  11  23  41  63  92 138 187 237 291 349 414
#     4  11  24  39  68  99 135 187 235 295 346 426
#     4  11  24  44  68  99 138 176 231 286 351 418
#     4  11  23  41  66  98 138 180 231 292 360 414
#
# _framework density 21.743031999999999
#
# number of rings (size 3 to 8) (size 9 to 14) (size 15 to 20)
#    0.000    1.000    2.000    4.800    2.800    5.200 
#    0.000    2.000    0.000    0.000    0.000    0.000 
#    0.000    0.000    0.000    0.000    0.000    0.000 
#
# Total GULP energy -223710.720166 kJ/mol
# GULP energy per Si atom -5592.768004 kJ/mol
# Density = 2.169354 g / cm^3
# Si number density = 21.743032 Si / 1000 Ang^3
#
#
#
# Elastic Constant Matrix: (Units=GPa)
#
#
# Indices 1 2 3 4 5 6 
#
# 1 83.5308 14.5111 7.1447 0.0000 0.0000 0.0000
# 2 14.5111 83.5285 7.1430 0.0000 0.0000 0.0000
# 3 7.1447 7.1430 67.6983 0.0000 0.0000 0.0000
# 4 0.0000 0.0000 0.0000 33.0948 0.0000 0.0000
# 5 0.0000 0.0000 0.0000 0.0000 33.0957 0.0000
# 6 0.0000 0.0000 0.0000 0.0000 0.0000 34.7291
#
#
#
# Elastic Compliance Matrix: (Units=1/GPa)
#
#
# Indices 1 2 3 4 5 6 
#
# 1 0.012424 -0.002065 -0.001093 0.000000 0.000000 0.000000
# 2 -0.002065 0.012424 -0.001093 0.000000 0.000000 0.000000
# 3 -0.001093 -0.001093 0.015002 0.000000 0.000000 0.000000
# 4 0.000000 0.000000 0.000000 0.030216 0.000000 0.000000
# 5 0.000000 0.000000 0.000000 0.000000 0.030215 0.000000
# 6 0.000000 0.000000 0.000000 0.000000 0.000000 0.028794
#
#
# Mechanical properties :
#
#
# Convention : Reuss Voigt Hill
#
# Bulk Modulus (GPa) = 31.90013 32.48391 32.19202
# Shear Modulus (GPa) = 33.77747 33.91450 33.84598
#
# Velocity S-wave (km/s) = 3.94570 3.95370 3.94970
# Velocity P-wave (km/s) = 5.95495 5.98454 5.96976
#
# Compressibility (1/GPa) = 0.03134783
#
# Stress axis : x y z
#
# Youngs Moduli (GPa) = 80.49028 80.48845 66.65724
#
# Poissons Ratio (x) = 0.16620 0.07288
# Poissons Ratio (y) = 0.16620 0.07286
# Poissons Ratio (z) = 0.08800 0.08797
#
# Static dielectric constant tensor:
#      x y z
#    x 1.801890 0.000000 0.000000 
#    y 0.000000 1.801890 0.000000 
#    z 0.000000 0.000000 1.801940 
# 
# From -- ./inp_files/790.got.cif
#   From: 2010.05.17/outbox.cif.g08.bks.cpg/sg116_1_cif.got.tgz:790.got - 2010.05.20 11:11:43.
