data_PCOD9557814
_publ_section_title
;
Structure prediction by ZEFSAII (Michael W. Deem and Ramdas Pophale) SiO2 
 PCOD9557814
Probable space group: P -4 C 2
;
_chemical_formula_sum "Si O2"
_cell_formula_units_Z 40
_cell_length_a 11.469308
_cell_length_b 11.469308
_cell_length_c 15.313129
_cell_angle_alpha 90.000000
_cell_angle_beta 90.000000
_cell_angle_gamma 90.000000
_cell_volume 2014.365952
_symmetry_space_group_name_H-M "P -4 C 2"
_symmetry_group_IT_number 116
_symmetry_cell_setting 'tetragonal'
loop_
_space_group_symop_operation_xyz
x,y,z
y,-x,-z
-x,-y,z
-y,x,-z
y,x,1/2-z
-y,-x,1/2-z
-x,y,1/2+z
x,-y,1/2+z
loop_
_atom_site_type_symbol
_atom_site_label
_atom_site_fract_x
_atom_site_fract_y
_atom_site_fract_z
Si Si1 0.277790 0.245743 0.091814
Si Si2 0.138266 0.138266 0.750000
Si Si3 0.866164 0.502525 0.326279
Si Si4 0.862545 0.137456 0.750000
Si Si5 0.717528 0.264714 0.109016
Si Si6 0.672702 0.479314 0.682284
O O1 0.387614 0.165216 0.114397
O O2 0.181949 0.207714 0.164276
O O3 0.312866 0.380037 0.110063
O O4 0.254967 0.239175 0.989631
O O5 0.222587 0.178994 0.828029
O O6 0.000481 0.156045 0.766399
O O7 0.825582 0.386562 0.374853
O O8 0.788635 0.513887 0.240039
O O9 0.000000 0.500000 0.303860
O O10 0.664913 0.391677 0.139355
O O11 0.578372 0.421629 0.750000
#
# Coordination Sequence:
#
# PCOD9557814 Si02
#       6
#     8   4   8   4   8   8
#     4  11  24  42  69  97 135 176 220 278 341 403
#     4  11  26  42  69  92 134 178 229 288 332 407
#     4  11  22  41  67  95 131 175 221 269 328 396
#     4  11  24  48  64  93 132 184 228 275 350 398
#     4  12  24  42  67 104 133 172 225 283 332 408
#     4  10  22  42  67  97 136 179 214 269 341 402
#
# _framework density 19.857364
#
# number of rings (size 3 to 8) (size 9 to 14) (size 15 to 20)
#    0.000    1.000    5.000    2.400    0.000    8.800 
#    0.000    8.000    0.000    0.000    0.000    0.000 
#    0.000    0.000    0.000    0.000    0.000    0.000 
#
# Total GULP energy -223311.732166 kJ/mol
# GULP energy per Si atom -5582.793304 kJ/mol
# Density = 1.981217 g / cm^3
# Si number density = 19.857364 Si / 1000 Ang^3
#
#
#
# Elastic Constant Matrix: (Units=GPa)
#
#
# Indices 1 2 3 4 5 6 
#
# 1 105.8381 29.2068 27.2371 0.0000 0.0000 0.0000
# 2 29.2068 105.8361 27.2364 0.0000 0.0000 0.0000
# 3 27.2371 27.2364 141.7608 0.0000 0.0000 0.0000
# 4 0.0000 0.0000 0.0000 -1.3475 0.0000 0.0000
# 5 0.0000 0.0000 0.0000 0.0000 -1.3451 0.0000
# 6 0.0000 0.0000 0.0000 0.0000 0.0000 26.9999
#
#
#
# Elastic Compliance Matrix: (Units=1/GPa)
#
#
# Indices 1 2 3 4 5 6 
#
# 1 0.010538 -0.002511 -0.001542 0.000000 0.000000 0.000000
# 2 -0.002511 0.010538 -0.001542 0.000000 0.000000 0.000000
# 3 -0.001542 -0.001542 0.007647 0.000000 0.000000 0.000000
# 4 0.000000 0.000000 0.000000 -0.742134 0.000000 0.000000
# 5 0.000000 0.000000 0.000000 0.000000 -0.743412 0.000000
# 6 0.000000 0.000000 0.000000 0.000000 0.000000 0.037037
#
#
# Mechanical properties :
#
#
# Convention : Reuss Voigt Hill
#
# Bulk Modulus (GPa) = 57.03875 57.86619 57.45247
# Shear Modulus (GPa) = -3.56443 22.84510 9.64034
#
# Velocity S-wave (km/s) = -1.34124 3.39552 2.20575
# Velocity P-wave (km/s) = 5.13693 6.67660 5.95672
#
# Compressibility (1/GPa) = 0.01753194
#
# Stress axis : x y z
#
# Youngs Moduli (GPa) = 94.89202 94.89031 130.77411
#
# Poissons Ratio (x) = 0.23830 0.20169
# Poissons Ratio (y) = 0.23830 0.20169
# Poissons Ratio (z) = 0.14635 0.14634
#
# Static dielectric constant tensor:
#      x y z
#    x 1.725150 0.000000 0.000000 
#    y 0.000000 1.725160 0.000000 
#    z 0.000000 0.000000 1.691240 
# 
# From -- ./inp_files/2632.got.cif
#   From: 2010.05.17/outbox.cif.g08.bks.cpg/sg116_2_cif.got.tgz:2632.got - 2010.05.20 11:11:43.
