data_PCOD9557894
_publ_section_title
;
Structure prediction by ZEFSAII (Michael W. Deem and Ramdas Pophale) SiO2 
 PCOD9557894
Probable space group: P -4 C 2
;
_chemical_formula_sum "Si O2"
_cell_formula_units_Z 40
_cell_length_a 8.055304
_cell_length_b 8.055304
_cell_length_c 24.823028
_cell_angle_alpha 90.000000
_cell_angle_beta 90.000000
_cell_angle_gamma 90.000000
_cell_volume 1610.714718
_symmetry_space_group_name_H-M "P -4 C 2"
_symmetry_group_IT_number 116
_symmetry_cell_setting 'tetragonal'
loop_
_space_group_symop_operation_xyz
x,y,z
y,-x,-z
-x,-y,z
-y,x,-z
y,x,1/2-z
-y,-x,1/2-z
-x,y,1/2+z
x,-y,1/2+z
loop_
_atom_site_type_symbol
_atom_site_label
_atom_site_fract_x
_atom_site_fract_y
_atom_site_fract_z
Si Si1 0.743532 0.010953 0.494595
Si Si2 0.052550 0.806908 0.199172
Si Si3 0.611162 0.772692 0.896950
Si Si4 0.399893 0.699271 0.635927
Si Si5 0.500000 0.000000 0.582232
Si Si6 0.710569 0.710569 0.250000
O O1 0.650317 0.122470 0.450436
O O2 0.866040 0.137425 0.526225
O O3 0.626428 0.925164 0.538407
O O4 0.175374 0.824627 0.250000
O O5 0.135608 0.710516 0.150415
O O6 0.891446 0.710605 0.221725
O O7 0.000000 0.000000 0.186360
O O8 0.659197 0.577412 0.891497
O O9 0.414565 0.748357 0.886411
O O10 0.385030 0.890284 0.620332
O O11 0.410598 0.683328 0.700056
#
# Coordination Sequence:
#
# PCOD9557894 Si02
#       6
#     8   8   8   8   4   4
#     4  11  27  49  79 110 146 204 261 327 399 488
#     4   9  23  43  72 105 150 198 249 318 388 481
#     4  11  26  47  74 109 151 200 259 326 395 478
#     4  11  28  45  73 109 154 204 255 327 397 477
#     4  12  28  48  74 110 156 196 258 330 398 486
#     4  10  25  45  70 110 144 202 254 309 397 464
#
# _framework density 24.833696
#
# number of rings (size 3 to 8) (size 9 to 14) (size 15 to 20)
#    0.000    1.600    2.000    0.000   16.800    1.600 
#    0.000    2.000    0.000    0.000    0.000    0.000 
#    0.000    0.000    0.000    0.000    0.000    0.000 
#
# Total GULP energy -223373.939939 kJ/mol
# GULP energy per Si atom -5584.348498 kJ/mol
# Density = 2.477717 g / cm^3
# Si number density = 24.833696 Si / 1000 Ang^3
#
#
#
# Elastic Constant Matrix: (Units=GPa)
#
#
# Indices 1 2 3 4 5 6 
#
# 1 100.1799 47.7682 74.2110 0.0000 0.0000 0.0000
# 2 47.7682 100.1803 74.2110 0.0000 0.0000 0.0000
# 3 74.2110 74.2110 166.1087 0.0000 0.0000 0.0000
# 4 0.0000 0.0000 0.0000 31.9699 0.0000 0.0000
# 5 0.0000 0.0000 0.0000 0.0000 31.9699 0.0000
# 6 0.0000 0.0000 0.0000 0.0000 0.0000 40.9101
#
#
#
# Elastic Compliance Matrix: (Units=1/GPa)
#
#
# Indices 1 2 3 4 5 6 
#
# 1 0.015664 -0.003415 -0.005472 0.000000 0.000000 0.000000
# 2 -0.003415 0.015664 -0.005472 0.000000 0.000000 0.000000
# 3 -0.005472 -0.005472 0.010910 0.000000 0.000000 0.000000
# 4 0.000000 0.000000 0.000000 0.031279 0.000000 0.000000
# 5 0.000000 0.000000 0.000000 0.000000 0.031279 0.000000
# 6 0.000000 0.000000 0.000000 0.000000 0.000000 0.024444
#
#
# Mechanical properties :
#
#
# Convention : Reuss Voigt Hill
#
# Bulk Modulus (GPa) = 73.97355 84.31658 79.14506
# Shear Modulus (GPa) = 30.77538 32.32190 31.54864
#
# Velocity S-wave (km/s) = 3.52413 3.61159 3.56813
# Velocity P-wave (km/s) = 6.81260 7.17061 6.99390
#
# Compressibility (1/GPa) = 0.01351835
#
# Stress axis : x y z
#
# Youngs Moduli (GPa) = 63.83908 63.83942 91.66019
#
# Poissons Ratio (x) = 0.21803 0.50160
# Poissons Ratio (y) = 0.21803 0.50160
# Poissons Ratio (z) = 0.34935 0.34935
#
# Static dielectric constant tensor:
#      x y z
#    x 2.143650 0.000000 0.000000 
#    y 0.000000 2.143650 0.000000 
#    z 0.000000 0.000000 1.905000 
# 
# From -- ./inp_files/4468.got.cif
#   From: 2010.05.17/outbox.cif.g08.bks.cpg/sg116_3_cif.got.tgz:4468.got - 2010.05.20 11:11:43.
