data_PCOD9557139
_publ_section_title
;
Structure prediction by ZEFSAII (Michael W. Deem and Ramdas Pophale) SiO2 
 PCOD9557139
Probable space group: P -4 M 2
;
_chemical_formula_sum "Si O2"
_cell_formula_units_Z 44
_cell_length_a 9.112722
_cell_length_b 9.112722
_cell_length_c 29.790043
_cell_angle_alpha 90.000000
_cell_angle_beta 90.000000
_cell_angle_gamma 90.000000
_cell_volume 2473.815881
_symmetry_space_group_name_H-M "P -4 M 2"
_symmetry_group_IT_number 115
_symmetry_cell_setting 'tetragonal'
loop_
_space_group_symop_operation_xyz
x,y,z
y,-x,-z
-x,-y,z
-y,x,-z
y,x,-z
-y,-x,-z
-x,y,z
x,-y,z
loop_
_atom_site_type_symbol
_atom_site_label
_atom_site_fract_x
_atom_site_fract_y
_atom_site_fract_z
Si Si1 0.674348 0.825600 0.957406
Si Si2 0.321776 0.171658 0.225949
Si Si3 0.325540 0.173722 0.592103
Si Si4 0.325405 0.325405 0.500000
Si Si5 0.326826 0.177155 0.323835
Si Si6 0.675102 0.176973 0.127343
O O1 0.500000 0.798921 0.957666
O O2 0.745295 0.761121 0.912299
O O3 0.699074 0.000000 0.960022
O O4 0.747835 0.747835 0.000000
O O5 0.500000 0.175396 0.226385
O O6 0.274955 0.231928 0.274425
O O7 0.277440 0.230863 0.177209
O O8 0.279818 0.000000 0.225683
O O9 0.500000 0.203429 0.596124
O O10 0.275336 0.245953 0.545325
O O11 0.245345 0.240963 0.634931
O O12 0.303709 0.000000 0.590256
O O13 0.301059 0.500000 0.505097
O O14 0.500000 0.211418 0.328321
O O15 0.313689 0.000000 0.324202
O O16 0.500000 0.203040 0.122561
O O17 0.695273 0.000000 0.125258
#
# Coordination Sequence:
#
# PCOD9557139 Si02
#       6
#     8   8   8   4   8   8
#     4  11  24  39  54  75 103 134 169 208 251 300
#     4   7  12  26  49  76 103 130 164 206 246 286
#     4  10  21  35  50  72 103 134 163 201 252 304
#     4   9  18  34  54  71  90 124 170 213 250 295
#     4   9  17  31  53  78 102 132 171 210 246 288
#     4   9  17  32  56  82 105 131 166 208 252 296
#
# _framework density 17.786287999999999
#
# number of rings (size 3 to 8) (size 9 to 14) (size 15 to 20)
#    0.000    2.818    0.000    3.818    0.000    6.182 
#    0.000    3.636    0.000    8.727    0.000    0.000 
#    0.000    0.000    0.000    0.000    0.000    0.000 
#
# Total GULP energy -245200.277784 kJ/mol
# GULP energy per Si atom -5572.733586 kJ/mol
# Density = 1.774581 g / cm^3
# Si number density = 17.786288 Si / 1000 Ang^3
#
#
#
# Elastic Constant Matrix: (Units=GPa)
#
#
# Indices 1 2 3 4 5 6 
#
# 1 38.8989 45.6095 65.1540 0.0000 0.0000 0.0000
# 2 45.6095 38.8989 65.1540 0.0000 0.0000 0.0000
# 3 65.1540 65.1540 220.5198 0.0000 0.0000 0.0000
# 4 0.0000 0.0000 0.0000 34.1662 0.0000 0.0000
# 5 0.0000 0.0000 0.0000 0.0000 34.1662 0.0000
# 6 0.0000 0.0000 0.0000 0.0000 0.0000 26.0684
#
#
#
# Elastic Compliance Matrix: (Units=1/GPa)
#
#
# Indices 1 2 3 4 5 6 
#
# 1 -0.063641 0.085377 -0.006422 0.000000 0.000000 0.000000
# 2 0.085377 -0.063641 -0.006422 0.000000 0.000000 0.000000
# 3 -0.006422 -0.006422 0.008329 0.000000 0.000000 0.000000
# 4 0.000000 0.000000 0.000000 0.029269 0.000000 0.000000
# 5 0.000000 0.000000 0.000000 0.000000 0.029269 0.000000
# 6 0.000000 0.000000 0.000000 0.000000 0.000000 0.038361
#
#
# Mechanical properties :
#
#
# Convention : Reuss Voigt Hill
#
# Bulk Modulus (GPa) = 38.29550 72.23918 55.26734
# Shear Modulus (GPa) = -31.56220 27.04019 -2.26101
#
# Velocity S-wave (km/s) = -4.21708 3.90331 -1.12870
# Velocity P-wave (km/s) = 1.46083 7.81138 5.42603
#
# Compressibility (1/GPa) = 0.02611273
#
# Stress axis : x y z
#
# Youngs Moduli (GPa) = -15.71304 -15.71304 120.05553
#
# Poissons Ratio (x) = 1.34153 0.77098
# Poissons Ratio (y) = 1.34153 0.77098
# Poissons Ratio (z) = -0.10091 -0.10091
#
# Static dielectric constant tensor:
#      x y z
#    x 1.593240 0.000000 0.000000 
#    y 0.000000 1.593240 0.000000 
#    z 0.000000 0.000000 1.625430 
# 
# From -- ./inp_files/5767.got.cif
#   From: 2010.05.17/outbox.cif.g08.bks.cpg/sg115_3_cif.got.tgz:5767.got - 2010.05.20 11:07:42.
