data_PCOD9557473
_publ_section_title
;
Structure prediction by ZEFSAII (Michael W. Deem and Ramdas Pophale) SiO2 
 PCOD9557473
Probable space group: P -4 M 2
;
_chemical_formula_sum "Si O2"
_cell_formula_units_Z 56
_cell_length_a 14.572517
_cell_length_b 14.572517
_cell_length_c 17.002413
_cell_angle_alpha 90.000000
_cell_angle_beta 90.000000
_cell_angle_gamma 90.000000
_cell_volume 3610.602700
_symmetry_space_group_name_H-M "P -4 M 2"
_symmetry_group_IT_number 115
_symmetry_cell_setting 'tetragonal'
loop_
_space_group_symop_operation_xyz
x,y,z
y,-x,-z
-x,-y,z
-y,x,-z
y,x,-z
-y,-x,-z
-x,y,z
x,-y,z
loop_
_atom_site_type_symbol
_atom_site_label
_atom_site_fract_x
_atom_site_fract_y
_atom_site_fract_z
Si Si1 0.892439 0.259044 0.319807
Si Si2 0.892439 0.740957 0.680193
Si Si3 0.756622 0.393543 0.594603
Si Si4 0.603186 0.888688 0.000000
Si Si5 0.756621 0.606457 0.405397
Si Si6 0.106862 0.256781 0.866461
Si Si7 0.256781 0.893138 0.866461
O O1 0.833893 0.166107 0.335098
O O2 0.841562 0.340096 0.366338
O O3 0.885240 0.278139 0.226210
O O4 0.000000 0.250093 0.339495
O O5 0.841563 0.659905 0.633662
O O6 0.885240 0.721862 0.773790
O O7 0.000000 0.749908 0.660504
O O8 0.750888 0.500000 0.618365
O O9 0.665608 0.334393 0.614800
O O10 0.766372 0.390561 0.500000
O O11 0.500000 0.852814 0.000000
O O12 0.660312 0.863057 0.077467
O O13 0.598304 0.000000 0.000001
O O14 0.660312 0.863057 0.922534
O O15 0.750886 0.500000 0.381635
O O16 0.169209 0.169209 0.883455
O O17 0.000000 0.237383 0.882797
O O18 0.237384 0.000000 0.882797
#
# Coordination Sequence:
#
# PCOD9557473 Si02
#       7
#     8   8   8   8   8   8   8
#     4   9  18  31  46  66  92 121 153 188 225 267
#     4   9  18  31  46  66  92 121 153 188 225 267
#     4   9  18  32  49  69  92 117 147 186 231 276
#     4   9  17  28  41  59  85 115 145 177 213 254
#     4   9  18  32  49  69  92 117 147 186 231 276
#     4   9  17  29  45  65  89 116 146 181 220 262
#     4   9  17  29  45  65  89 116 146 181 220 262
#
# _framework density 15.509876
#
# number of rings (size 3 to 8) (size 9 to 14) (size 15 to 20)
#    0.000    3.000    0.000    0.429    0.000    3.143 
#    0.000    8.571    0.000    2.571    0.000    4.000 
#    0.000    4.571    0.000    0.000    0.000    0.857 
#
# Total GULP energy -311831.615478 kJ/mol
# GULP energy per Si atom -5568.421705 kJ/mol
# Density = 1.547457 g / cm^3
# Si number density = 15.509876 Si / 1000 Ang^3
#
#
#
# Elastic Constant Matrix: (Units=GPa)
#
#
# Indices 1 2 3 4 5 6 
#
# 1 130.4225 72.3869 47.0334 0.0000 0.0000 0.0000
# 2 72.3869 130.4225 47.0334 0.0000 0.0000 0.0000
# 3 47.0334 47.0334 30.6740 0.0000 0.0000 0.0000
# 4 0.0000 0.0000 0.0000 23.7880 0.0000 0.0000
# 5 0.0000 0.0000 0.0000 0.0000 23.7880 0.0000
# 6 0.0000 0.0000 0.0000 0.0000 0.0000 9.6147
#
#
#
# Elastic Compliance Matrix: (Units=1/GPa)
#
#
# Indices 1 2 3 4 5 6 
#
# 1 0.017152 -0.000079 -0.026178 0.000000 0.000000 0.000000
# 2 -0.000079 0.017152 -0.026178 0.000000 0.000000 0.000000
# 3 -0.026178 -0.026178 0.112880 0.000000 0.000000 0.000000
# 4 0.000000 0.000000 0.000000 0.042038 0.000000 0.000000
# 5 0.000000 0.000000 0.000000 0.000000 0.042038 0.000000
# 6 0.000000 0.000000 0.000000 0.000000 0.000000 0.104008
#
#
# Mechanical properties :
#
#
# Convention : Reuss Voigt Hill
#
# Bulk Modulus (GPa) = 23.63324 69.38070 46.50697
# Shear Modulus (GPa) = 11.00738 19.77584 15.39161
#
# Velocity S-wave (km/s) = 2.66691 3.57466 3.15362
# Velocity P-wave (km/s) = 4.97532 7.86562 6.58110
#
# Compressibility (1/GPa) = 0.04231328
#
# Stress axis : x y z
#
# Youngs Moduli (GPa) = 58.30344 58.30344 8.85899
#
# Poissons Ratio (x) = 0.00461 0.23191
# Poissons Ratio (y) = 0.00461 0.23191
# Poissons Ratio (z) = 1.52626 1.52626
#
# Static dielectric constant tensor:
#      x y z
#    x 1.501890 0.000000 0.000000 
#    y 0.000000 1.501890 0.000000 
#    z 0.000000 0.000000 1.522840 
# 
# From -- ./inp_files/3824.got.cif
#   From: 2010.05.17/outbox.cif.g08.bks.cpg/sg115_2_cif.got.tgz:3824.got - 2010.05.20 11:07:42.
