data_PCOD9557217
_publ_section_title
;
Structure prediction by ZEFSAII (Michael W. Deem and Ramdas Pophale) SiO2 
 PCOD9557217
Probable space group: P -4 M 2
;
_chemical_formula_sum "Si O2"
_cell_formula_units_Z 48
_cell_length_a 9.409572
_cell_length_b 9.409572
_cell_length_c 31.936609
_cell_angle_alpha 90.000000
_cell_angle_beta 90.000000
_cell_angle_gamma 90.000000
_cell_volume 2827.668805
_symmetry_space_group_name_H-M "P -4 M 2"
_symmetry_group_IT_number 115
_symmetry_cell_setting 'tetragonal'
loop_
_space_group_symop_operation_xyz
x,y,z
y,-x,-z
-x,-y,z
-y,x,-z
y,x,-z
-y,-x,-z
-x,y,z
x,-y,z
loop_
_atom_site_type_symbol
_atom_site_label
_atom_site_fract_x
_atom_site_fract_y
_atom_site_fract_z
Si Si1 0.670984 0.832789 0.536343
Si Si2 0.173396 0.163268 0.288873
Si Si3 0.669452 0.332969 0.121489
Si Si4 0.830637 0.668262 0.206065
Si Si5 0.831345 0.669533 0.963207
Si Si6 0.335962 0.173162 0.629962
O O1 0.745067 0.745067 0.500000
O O2 0.500000 0.820510 0.533996
O O3 0.712546 0.784396 0.583381
O O4 0.706330 0.000000 0.532157
O O5 0.216962 0.246015 0.246982
O O6 0.221202 0.240926 0.331293
O O7 0.000000 0.166434 0.289364
O O8 0.218178 0.000000 0.287866
O O9 0.500000 0.320390 0.128009
O O10 0.700924 0.500000 0.113343
O O11 0.750689 0.290042 0.163630
O O12 0.708055 0.239962 0.081192
O O13 0.806727 0.500000 0.212949
O O14 0.000000 0.689176 0.200764
O O15 0.807808 0.500000 0.969542
O O16 0.000000 0.694663 0.962470
O O17 0.756060 0.756060 0.000000
O O18 0.500000 0.216496 0.635979
O O19 0.335382 0.000000 0.629752
#
# Coordination Sequence:
#
# PCOD9557217 Si02
#       6
#     8   8   8   8   8   8
#     4   9  18  31  47  69  95 123 157 197 241 289
#     4   9  16  25  40  65  94 121 151 189 233 279
#     4   9  18  33  52  72  95 126 163 200 237 280
#     4   9  17  29  46  68  93 122 156 193 233 277
#     4  10  21  36  54  76 101 130 164 201 243 291
#     4   8  14  26  43  62  87 119 153 189 229 275
#
# _framework density 16.975114999999999
#
# number of rings (size 3 to 8) (size 9 to 14) (size 15 to 20)
#    0.000    3.000    0.000    2.000    0.000    5.333 
#    0.000    3.333    0.000    1.000    0.000    2.333 
#    0.000    0.000    0.000    0.000    0.000    0.000 
#
# Total GULP energy -267500.813338 kJ/mol
# GULP energy per Si atom -5572.933611 kJ/mol
# Density = 1.693648 g / cm^3
# Si number density = 16.975115 Si / 1000 Ang^3
#
#
#
# Elastic Constant Matrix: (Units=GPa)
#
#
# Indices 1 2 3 4 5 6 
#
# 1 46.6978 39.1326 80.7735 0.0000 0.0000 0.0000
# 2 39.1326 46.6978 80.7735 0.0000 0.0000 0.0000
# 3 80.7735 80.7735 213.8854 0.0000 0.0000 0.0000
# 4 0.0000 0.0000 0.0000 30.3948 0.0000 0.0000
# 5 0.0000 0.0000 0.0000 0.0000 30.3948 0.0000
# 6 0.0000 0.0000 0.0000 0.0000 0.0000 16.9733
#
#
#
# Elastic Compliance Matrix: (Units=1/GPa)
#
#
# Indices 1 2 3 4 5 6 
#
# 1 0.086236 -0.045949 -0.015214 0.000000 0.000000 0.000000
# 2 -0.045949 0.086236 -0.015214 0.000000 0.000000 0.000000
# 3 -0.015214 -0.015214 0.016167 0.000000 0.000000 0.000000
# 4 0.000000 0.000000 0.000000 0.032900 0.000000 0.000000
# 5 0.000000 0.000000 0.000000 0.000000 0.032900 0.000000
# 6 0.000000 0.000000 0.000000 0.000000 0.000000 0.058916
#
#
# Mechanical properties :
#
#
# Convention : Reuss Voigt Hill
#
# Bulk Modulus (GPa) = 27.86846 78.73779 53.30312
# Shear Modulus (GPa) = 10.45871 22.65934 16.55902
#
# Velocity S-wave (km/s) = 2.48487 3.65753 3.12667
# Velocity P-wave (km/s) = 4.96847 8.02008 6.67111
#
# Compressibility (1/GPa) = 0.03588286
#
# Stress axis : x y z
#
# Youngs Moduli (GPa) = 11.59614 11.59614 61.85619
#
# Poissons Ratio (x) = 0.53283 0.94108
# Poissons Ratio (y) = 0.53283 0.94108
# Poissons Ratio (z) = 0.17642 0.17642
#
# Static dielectric constant tensor:
#      x y z
#    x 1.564540 0.000000 0.000000 
#    y 0.000000 1.564540 0.000000 
#    z 0.000000 0.000000 1.561690 
# 
# From -- ./inp_files/6087.got.cif
#   From: 2010.05.17/outbox.cif.g08.bks.cpg/sg115_4_cif.got.tgz:6087.got - 2010.05.20 11:07:42.
