data_PCOD9557929
_publ_section_title
;
Structure prediction by ZEFSAII (Michael W. Deem and Ramdas Pophale) SiO2 
 PCOD9557929
Probable space group: P -4 C 2
;
_chemical_formula_sum "Si O2"
_cell_formula_units_Z 40
_cell_length_a 11.849955
_cell_length_b 11.849955
_cell_length_c 14.186166
_cell_angle_alpha 90.000000
_cell_angle_beta 90.000000
_cell_angle_gamma 90.000000
_cell_volume 1992.041766
_symmetry_space_group_name_H-M "P -4 C 2"
_symmetry_group_IT_number 116
_symmetry_cell_setting 'tetragonal'
loop_
_space_group_symop_operation_xyz
x,y,z
y,-x,-z
-x,-y,z
-y,x,-z
y,x,1/2-z
-y,-x,1/2-z
-x,y,1/2+z
x,-y,1/2+z
loop_
_atom_site_type_symbol
_atom_site_label
_atom_site_fract_x
_atom_site_fract_y
_atom_site_fract_z
Si Si1 0.412942 0.605180 0.640720
Si Si2 0.235178 0.524296 0.022577
Si Si3 0.395858 0.950591 0.065773
Si Si4 0.753662 0.237934 0.358347
Si Si5 0.955968 0.824415 0.522841
O O1 0.500000 0.500000 0.635627
O O2 0.380860 0.619141 0.750000
O O3 0.460914 0.710966 0.582014
O O4 0.307496 0.565351 0.580080
O O5 0.246107 0.640616 0.079911
O O6 0.111830 0.471312 0.013814
O O7 0.500000 0.000000 0.127171
O O8 0.325004 0.849228 0.110195
O O9 0.295729 0.032761 0.030543
O O10 0.734857 0.265144 0.250000
O O11 0.801173 0.112115 0.380854
O O12 0.080507 0.879778 0.530298
#
# Coordination Sequence:
#
# PCOD9557929 Si02
#       5
#     8   8   8   8   8
#     4  11  22  36  59  89 126 174 215 252 313 405
#     4  12  21  39  60  91 134 171 215 270 335 397
#     4  11  22  41  65  93 129 175 219 280 343 402
#     4  11  24  41  67 100 133 176 224 286 348 411
#     4   9  20  43  70  90 123 176 225 279 346 405
#
# _framework density 20.079899000000001
#
# number of rings (size 3 to 8) (size 9 to 14) (size 15 to 20)
#    0.000    1.200    6.000    0.000    5.600    0.000 
#    3.600    8.000    0.000    0.000    0.000    0.000 
#    0.000    0.000    0.000    0.000    0.000    0.000 
#
# Total GULP energy -222891.644006 kJ/mol
# GULP energy per Si atom -5572.291100 kJ/mol
# Density = 2.003420 g / cm^3
# Si number density = 20.079899 Si / 1000 Ang^3
#
#
#
# Elastic Constant Matrix: (Units=GPa)
#
#
# Indices 1 2 3 4 5 6 
#
# 1 115.0706 27.8149 28.3716 0.0000 0.0000 0.0000
# 2 27.8149 115.0701 28.3714 0.0000 0.0000 0.0000
# 3 28.3716 28.3714 107.8295 0.0000 0.0000 0.0000
# 4 0.0000 0.0000 0.0000 7.5649 0.0000 0.0000
# 5 0.0000 0.0000 0.0000 0.0000 7.5651 0.0000
# 6 0.0000 0.0000 0.0000 0.0000 0.0000 34.1238
#
#
#
# Elastic Compliance Matrix: (Units=1/GPa)
#
#
# Indices 1 2 3 4 5 6 
#
# 1 0.009638 -0.001823 -0.002056 0.000000 0.000000 0.000000
# 2 -0.001823 0.009638 -0.002056 0.000000 0.000000 0.000000
# 3 -0.002056 -0.002056 0.010356 0.000000 0.000000 0.000000
# 4 0.000000 0.000000 0.000000 0.132190 0.000000 0.000000
# 5 0.000000 0.000000 0.000000 0.000000 0.132186 0.000000
# 6 0.000000 0.000000 0.000000 0.000000 0.000000 0.029305
#
#
# Mechanical properties :
#
#
# Convention : Reuss Voigt Hill
#
# Bulk Modulus (GPa) = 56.30238 56.34290 56.32264
# Shear Modulus (GPa) = 14.65830 26.74491 20.70160
#
# Velocity S-wave (km/s) = 2.70478 3.65351 3.21434
# Velocity P-wave (km/s) = 6.15260 6.77627 6.47195
#
# Compressibility (1/GPa) = 0.01776124
#
# Stress axis : x y z
#
# Youngs Moduli (GPa) = 103.75704 103.75669 96.56248
#
# Poissons Ratio (x) = 0.18912 0.19856
# Poissons Ratio (y) = 0.18912 0.19856
# Poissons Ratio (z) = 0.21336 0.21335
#
# Static dielectric constant tensor:
#      x y z
#    x 1.907850 0.000000 0.000000 
#    y 0.000000 1.907860 0.000000 
#    z 0.000000 0.000000 1.677570 
# 
# From -- ./inp_files/2555.got.cif
#   From: 2010.05.17/outbox.cif.g08.bks.cpg/sg116_2_cif.got.tgz:2555.got - 2010.05.20 11:11:43.
