data_PCOD9557757
_publ_section_title
;
Structure prediction by ZEFSAII (Michael W. Deem and Ramdas Pophale) SiO2 
 PCOD9557757
Probable space group: P -4 C 2
;
_chemical_formula_sum "Si O2"
_cell_formula_units_Z 38
_cell_length_a 11.510478
_cell_length_b 11.510478
_cell_length_c 13.636964
_cell_angle_alpha 90.000000
_cell_angle_beta 90.000000
_cell_angle_gamma 90.000000
_cell_volume 1806.776413
_symmetry_space_group_name_H-M "P -4 C 2"
_symmetry_group_IT_number 116
_symmetry_cell_setting 'tetragonal'
loop_
_space_group_symop_operation_xyz
x,y,z
y,-x,-z
-x,-y,z
-y,x,-z
y,x,1/2-z
-y,-x,1/2-z
-x,y,1/2+z
x,-y,1/2+z
loop_
_atom_site_type_symbol
_atom_site_label
_atom_site_fract_x
_atom_site_fract_y
_atom_site_fract_z
Si Si1 0.043524 0.352558 0.610929
Si Si2 0.355531 0.119313 0.569017
Si Si3 0.500000 0.500000 0.000000
Si Si4 0.685497 0.625083 0.633441
Si Si5 0.500000 0.000000 0.717384
Si Si6 0.900457 0.089623 0.133065
O O1 0.176060 0.400992 0.623245
O O2 0.063150 0.216396 0.597615
O O3 0.952936 0.386898 0.526945
O O4 0.981267 0.391326 0.711303
O O5 0.332895 0.255856 0.571826
O O6 0.231925 0.065251 0.603517
O O7 0.459489 0.101298 0.645969
O O8 0.395049 0.534011 0.074920
O O9 0.650935 0.650935 0.750000
O O10 0.901593 0.098408 0.250000
O O11 0.000000 0.000000 0.104287
#
# Coordination Sequence:
#
# PCOD9557757 Si02
#       6
#     8   8   2   8   4   8
#     4  11  24  40  70  99 128 177 218 272 340 406
#     4  11  24  40  70  99 128 177 218 272 340 406
#     4  12  30  44  76  98 124 184 250 288 316 418
#     4  11  25  51  68  94 141 181 224 285 353 392
#     4  12  22  42  64  92 136 170 224 278 334 394
#     4  10  21  42  63  93 138 170 206 265 336 400
#
# _framework density 21.031932000000001
#
# number of rings (size 3 to 8) (size 9 to 14) (size 15 to 20)
#    0.000    1.053    4.211    2.211   11.789    0.000 
#    0.000    0.000    4.632    0.000    0.000    0.000 
#    0.000    0.000    0.000    0.000    0.000    0.000 
#
# Total GULP energy -211736.648243 kJ/mol
# GULP energy per Si atom -5572.017059 kJ/mol
# Density = 2.098406 g / cm^3
# Si number density = 21.031932 Si / 1000 Ang^3
#
#
#
# Elastic Constant Matrix: (Units=GPa)
#
#
# Indices 1 2 3 4 5 6 
#
# 1 71.0452 48.2349 24.8899 0.0000 0.0000 0.0000
# 2 48.2349 71.0454 24.8898 0.0000 0.0000 0.0000
# 3 24.8899 24.8898 133.8581 0.0000 0.0000 0.0000
# 4 0.0000 0.0000 0.0000 20.4963 0.0000 0.0000
# 5 0.0000 0.0000 0.0000 0.0000 20.4963 0.0000
# 6 0.0000 0.0000 0.0000 0.0000 0.0000 38.6309
#
#
#
# Elastic Compliance Matrix: (Units=1/GPa)
#
#
# Indices 1 2 3 4 5 6 
#
# 1 0.026464 -0.017375 -0.001690 0.000000 0.000000 0.000000
# 2 -0.017375 0.026464 -0.001690 0.000000 0.000000 0.000000
# 3 -0.001690 -0.001690 0.008099 0.000000 0.000000 0.000000
# 4 0.000000 0.000000 0.000000 0.048789 0.000000 0.000000
# 5 0.000000 0.000000 0.000000 0.000000 0.048789 0.000000
# 6 0.000000 0.000000 0.000000 0.000000 0.000000 0.025886
#
#
# Mechanical properties :
#
#
# Convention : Reuss Voigt Hill
#
# Bulk Modulus (GPa) = 51.23768 52.44197 51.83983
# Shear Modulus (GPa) = 21.50460 27.78699 24.64579
#
# Velocity S-wave (km/s) = 3.20108 3.63875 3.42691
# Velocity P-wave (km/s) = 6.17068 6.53013 6.35295
#
# Compressibility (1/GPa) = 0.01951689
#
# Stress axis : x y z
#
# Youngs Moduli (GPa) = 37.78673 37.78686 123.47070
#
# Poissons Ratio (x) = 0.65656 0.20867
# Poissons Ratio (y) = 0.65656 0.20867
# Poissons Ratio (z) = 0.06386 0.06386
#
# Static dielectric constant tensor:
#      x y z
#    x 1.782250 0.000000 0.000000 
#    y 0.000000 1.782250 0.000000 
#    z 0.000000 0.000000 1.793500 
# 
# From -- ./inp_files/2601.got.cif
#   From: 2010.05.17/outbox.cif.g08.bks.cpg/sg116_2_cif.got.tgz:2601.got - 2010.05.20 11:11:43.
