data_PCOD9557995
_publ_section_title
;
Structure prediction by ZEFSAII (Michael W. Deem and Ramdas Pophale) SiO2 
 PCOD9557995
Probable space group: P -4 C 2
;
_chemical_formula_sum "Si O2"
_cell_formula_units_Z 30
_cell_length_a 8.249546
_cell_length_b 8.249546
_cell_length_c 22.763355
_cell_angle_alpha 90.000000
_cell_angle_beta 90.000000
_cell_angle_gamma 90.000000
_cell_volume 1549.160334
_symmetry_space_group_name_H-M "P -4 C 2"
_symmetry_group_IT_number 116
_symmetry_cell_setting 'tetragonal'
loop_
_space_group_symop_operation_xyz
x,y,z
y,-x,-z
-x,-y,z
-y,x,-z
y,x,1/2-z
-y,-x,1/2-z
-x,y,1/2+z
x,-y,1/2+z
loop_
_atom_site_type_symbol
_atom_site_label
_atom_site_fract_x
_atom_site_fract_y
_atom_site_fract_z
Si Si1 0.500000 0.500000 0.500000
Si Si2 0.000000 0.500000 0.369876
Si Si3 0.109164 0.835008 0.316436
Si Si4 0.959816 0.687548 0.578747
Si Si5 0.307805 0.222621 0.045753
O O1 0.407409 0.361899 0.464235
O O2 0.028893 0.661993 0.332070
O O3 0.142870 0.445980 0.414174
O O4 0.173229 0.826772 0.250000
O O5 0.242181 0.859986 0.367127
O O6 0.000000 0.000000 0.318774
O O7 0.867923 0.705959 0.516681
O O8 0.000000 0.500000 0.587539
O O9 0.131002 0.781720 0.574308
#
# Coordination Sequence:
#
# PCOD9557995 Si02
#       5
#     2   4   8   8   8
#     4  12  20  36  56 100 146 172 220 276 356 434
#     4  12  24  46  68 100 136 182 222 296 350 408
#     4  11  26  47  69  95 133 185 235 276 331 416
#     4  12  24  40  65  98 136 175 224 281 348 414
#     4  12  23  39  66 101 139 177 221 292 359 412
#
# _framework density 19.365328000000002
#
# number of rings (size 3 to 8) (size 9 to 14) (size 15 to 20)
#    0.000    0.267    6.667    3.200    1.867    0.000 
#    0.000    0.000    0.000    1.600    0.000    0.000 
#    0.000    0.000    0.000    0.000    0.000    0.000 
#
# Total GULP energy -167568.757159 kJ/mol
# GULP energy per Si atom -5585.625239 kJ/mol
# Density = 1.932125 g / cm^3
# Si number density = 19.365328 Si / 1000 Ang^3
#
#
#
# Elastic Constant Matrix: (Units=GPa)
#
#
# Indices 1 2 3 4 5 6 
#
# 1 92.6473 24.3869 39.6353 0.0000 0.0000 0.0000
# 2 24.3869 92.6477 39.6355 0.0000 0.0000 0.0000
# 3 39.6353 39.6355 126.3391 0.0000 0.0000 0.0000
# 4 0.0000 0.0000 0.0000 10.0140 0.0000 0.0000
# 5 0.0000 0.0000 0.0000 0.0000 10.0135 0.0000
# 6 0.0000 0.0000 0.0000 0.0000 0.0000 35.0797
#
#
#
# Elastic Compliance Matrix: (Units=1/GPa)
#
#
# Indices 1 2 3 4 5 6 
#
# 1 0.012750 -0.001900 -0.003404 0.000000 0.000000 0.000000
# 2 -0.001900 0.012750 -0.003404 0.000000 0.000000 0.000000
# 3 -0.003404 -0.003404 0.010051 0.000000 0.000000 0.000000
# 4 0.000000 0.000000 0.000000 0.099860 0.000000 0.000000
# 5 0.000000 0.000000 0.000000 0.000000 0.099865 0.000000
# 6 0.000000 0.000000 0.000000 0.000000 0.000000 0.028507
#
#
# Mechanical properties :
#
#
# Convention : Reuss Voigt Hill
#
# Bulk Modulus (GPa) = 55.14060 57.66108 56.40084
# Shear Modulus (GPa) = 17.40688 24.88654 21.14671
#
# Velocity S-wave (km/s) = 3.00137 3.58873 3.30811
# Velocity P-wave (km/s) = 6.36762 6.85653 6.61660
#
# Compressibility (1/GPa) = 0.01813546
#
# Stress axis : x y z
#
# Youngs Moduli (GPa) = 78.43186 78.43213 99.49290
#
# Poissons Ratio (x) = 0.14901 0.33866
# Poissons Ratio (y) = 0.14901 0.33867
# Poissons Ratio (z) = 0.26697 0.26698
#
# Static dielectric constant tensor:
#      x y z
#    x 1.729190 0.000000 0.000000 
#    y 0.000000 1.729190 0.000000 
#    z 0.000000 0.000000 1.646220 
# 
# From -- ./inp_files/3689.got.cif
#   From: 2010.05.17/outbox.cif.g08.bks.cpg/sg116_2_cif.got.tgz:3689.got - 2010.05.20 11:11:43.
