data_PCOD9557966
_publ_section_title
;
Structure prediction by ZEFSAII (Michael W. Deem and Ramdas Pophale) SiO2 
 PCOD9557966
Probable space group: P -4 C 2
;
_chemical_formula_sum "Si O2"
_cell_formula_units_Z 48
_cell_length_a 8.913949
_cell_length_b 8.913949
_cell_length_c 28.161258
_cell_angle_alpha 90.000000
_cell_angle_beta 90.000000
_cell_angle_gamma 90.000000
_cell_volume 2237.650946
_symmetry_space_group_name_H-M "P -4 C 2"
_symmetry_group_IT_number 116
_symmetry_cell_setting 'tetragonal'
loop_
_space_group_symop_operation_xyz
x,y,z
y,-x,-z
-x,-y,z
-y,x,-z
y,x,1/2-z
-y,-x,1/2-z
-x,y,1/2+z
x,-y,1/2+z
loop_
_atom_site_type_symbol
_atom_site_label
_atom_site_fract_x
_atom_site_fract_y
_atom_site_fract_z
Si Si1 0.302026 0.148212 0.643902
Si Si2 0.587982 0.343803 0.636641
Si Si3 0.968165 0.325880 0.136979
Si Si4 0.669444 0.039127 0.043953
Si Si5 0.845971 0.799021 0.304883
Si Si6 0.723042 0.182099 0.948028
O O1 0.469623 0.208012 0.639905
O O2 0.255504 0.107270 0.590408
O O3 0.200829 0.293829 0.652679
O O4 0.270570 0.004490 0.677285
O O5 0.500000 0.500000 0.639451
O O6 0.696321 0.296460 0.679776
O O7 0.687576 0.335691 0.588054
O O8 0.054139 0.194218 0.165129
O O9 0.031797 0.299971 0.083573
O O10 0.000000 0.500000 0.148228
O O11 0.500000 0.000000 0.057531
O O12 0.766974 0.889631 0.036610
O O13 0.650857 0.146408 0.998665
O O14 0.839197 0.839197 0.250000
#
# Coordination Sequence:
#
# PCOD9557966 Si02
#       6
#     8   8   8   8   8   8
#     4  12  22  44  73  95 144 192 237 302 375 443
#     4  11  24  47  71 102 146 192 235 308 385 445
#     4  11  24  42  65 101 141 181 237 306 364 433
#     4  12  23  42  64  98 133 186 240 291 363 440
#     4  11  25  45  72 107 140 187 250 306 372 453
#     4  11  24  41  66  96 137 183 240 295 356 437
#
# _framework density 21.451066000000001
#
# number of rings (size 3 to 8) (size 9 to 14) (size 15 to 20)
#    0.000    0.667    5.000    4.500    0.000    6.000 
#    0.000    1.667    0.000    0.000    0.000    0.000 
#    0.000    0.000    0.000    0.000    0.000    0.000 
#
# Total GULP energy -267507.533237 kJ/mol
# GULP energy per Si atom -5573.073609 kJ/mol
# Density = 2.140224 g / cm^3
# Si number density = 21.451066 Si / 1000 Ang^3
#
#
#
# Elastic Constant Matrix: (Units=GPa)
#
#
# Indices 1 2 3 4 5 6 
#
# 1 79.8253 20.4281 16.0353 0.0000 0.0000 0.0000
# 2 20.4281 79.8253 16.0353 0.0000 0.0000 0.0000
# 3 16.0353 16.0353 118.1885 0.0000 0.0000 0.0000
# 4 0.0000 0.0000 0.0000 -14.1228 0.0000 0.0000
# 5 0.0000 0.0000 0.0000 0.0000 -14.1228 0.0000
# 6 0.0000 0.0000 0.0000 0.0000 0.0000 42.3970
#
#
#
# Elastic Compliance Matrix: (Units=1/GPa)
#
#
# Indices 1 2 3 4 5 6 
#
# 1 0.013632 -0.003204 -0.001415 0.000000 0.000000 0.000000
# 2 -0.003204 0.013632 -0.001415 0.000000 0.000000 0.000000
# 3 -0.001415 -0.001415 0.008845 0.000000 0.000000 0.000000
# 4 0.000000 0.000000 0.000000 -0.070807 0.000000 0.000000
# 5 0.000000 0.000000 0.000000 0.000000 -0.070807 0.000000
# 6 0.000000 0.000000 0.000000 0.000000 0.000000 0.023587
#
#
# Mechanical properties :
#
#
# Convention : Reuss Voigt Hill
#
# Bulk Modulus (GPa) = 41.59629 42.53740 42.06684
# Shear Modulus (GPa) = -80.85472 17.85297 -31.50088
#
# Velocity S-wave (km/s) = -6.14609 2.88803 -3.83626
# Velocity P-wave (km/s) = 5.56171 5.56722 0.17516
#
# Compressibility (1/GPa) = 0.02404061
#
# Stress axis : x y z
#
# Youngs Moduli (GPa) = 73.35920 73.35920 113.05893
#
# Poissons Ratio (x) = 0.23506 0.15995
# Poissons Ratio (y) = 0.23506 0.15995
# Poissons Ratio (z) = 0.10378 0.10378
#
# Static dielectric constant tensor:
#      x y z
#    x 1.924410 0.000000 0.000000 
#    y 0.000000 1.924410 0.000000 
#    z 0.000000 0.000000 1.795020 
# 
# From -- ./inp_files/5244.got.cif
#   From: 2010.05.17/outbox.cif.g08.bks.cpg/sg116_3_cif.got.tgz:5244.got - 2010.05.20 11:11:43.
