data_PCOD9557168
_publ_section_title
;
Structure prediction by ZEFSAII (Michael W. Deem and Ramdas Pophale) SiO2 
 PCOD9557168
Probable space group: P -4 M 2
;
_chemical_formula_sum "Si O2"
_cell_formula_units_Z 44
_cell_length_a 9.603524
_cell_length_b 9.603524
_cell_length_c 28.555210
_cell_angle_alpha 90.000000
_cell_angle_beta 90.000000
_cell_angle_gamma 90.000000
_cell_volume 2633.580577
_symmetry_space_group_name_H-M "P -4 M 2"
_symmetry_group_IT_number 115
_symmetry_cell_setting 'tetragonal'
loop_
_space_group_symop_operation_xyz
x,y,z
y,-x,-z
-x,-y,z
-y,x,-z
y,x,-z
-y,-x,-z
-x,y,z
x,-y,z
loop_
_atom_site_type_symbol
_atom_site_label
_atom_site_fract_x
_atom_site_fract_y
_atom_site_fract_z
Si Si1 0.665436 0.834428 0.854766
Si Si2 0.835862 0.666736 0.670304
Si Si3 0.833806 0.664099 0.406378
Si Si4 0.335274 0.834784 0.221506
Si Si5 0.835982 0.164019 0.500000
Si Si6 0.334296 0.834340 0.961568
O O1 0.500000 0.810251 0.849779
O O2 0.749110 0.751436 0.815907
O O3 0.704646 0.795230 0.908144
O O4 0.688806 0.000000 0.849901
O O5 0.819142 0.500000 0.664676
O O6 0.740329 0.749690 0.634505
O O7 0.802076 0.701129 0.724443
O O8 0.000000 0.698023 0.662587
O O9 0.801728 0.500000 0.408715
O O10 0.802656 0.740977 0.455416
O O11 0.000000 0.678975 0.398354
O O12 0.500000 0.807887 0.215794
O O13 0.313163 0.000000 0.215105
O O14 0.000000 0.183278 0.511684
O O15 0.500000 0.810834 0.966644
O O16 0.310469 0.000000 0.966638
O O17 0.250046 0.749955 0.000000
#
# Coordination Sequence:
#
# PCOD9557168 Si02
#       6
#     8   8   8   8   4   8
#     4   9  19  35  52  72 101 134 166 203 249 299
#     4   9  19  36  55  74 100 135 171 207 249 296
#     4  10  21  35  52  78 108 134 165 207 252 298
#     4   9  19  35  53  75 102 131 167 209 250 295
#     4   9  18  34  54  73  98 136 176 209 244 291
#     4   9  19  35  52  72 100 132 166 205 249 297
#
# _framework density 16.707293
#
# number of rings (size 3 to 8) (size 9 to 14) (size 15 to 20)
#    0.000    2.818    0.000    2.727    0.000    6.182 
#    0.000   12.727    0.000    0.000    0.000    0.000 
#    0.000    0.000    0.000    0.000    0.000    0.000 
#
# Total GULP energy -245381.702441 kJ/mol
# GULP energy per Si atom -5576.856874 kJ/mol
# Density = 1.666927 g / cm^3
# Si number density = 16.707293 Si / 1000 Ang^3
#
#
#
# Elastic Constant Matrix: (Units=GPa)
#
#
# Indices 1 2 3 4 5 6 
#
# 1 75.2601 69.5164 108.0083 0.0000 0.0000 0.0000
# 2 69.5164 75.2598 108.0085 0.0000 0.0000 0.0000
# 3 108.0083 108.0085 191.1891 0.0000 0.0000 0.0000
# 4 0.0000 0.0000 0.0000 50.5214 0.0000 0.0000
# 5 0.0000 0.0000 0.0000 0.0000 50.5196 0.0000
# 6 0.0000 0.0000 0.0000 0.0000 0.0000 40.8238
#
#
#
# Elastic Compliance Matrix: (Units=1/GPa)
#
#
# Indices 1 2 3 4 5 6 
#
# 1 0.109038 -0.065068 -0.024840 0.000000 0.000000 0.000000
# 2 -0.065068 0.109041 -0.024842 0.000000 0.000000 0.000000
# 3 -0.024840 -0.024842 0.033297 0.000000 0.000000 0.000000
# 4 0.000000 0.000000 0.000000 0.019794 0.000000 0.000000
# 5 0.000000 0.000000 0.000000 0.000000 0.019794 0.000000
# 6 0.000000 0.000000 0.000000 0.000000 0.000000 0.024495
#
#
# Mechanical properties :
#
#
# Convention : Reuss Voigt Hill
#
# Bulk Modulus (GPa) = 45.71052 101.41948 73.56500
# Shear Modulus (GPa) = 9.05387 32.11804 20.58596
#
# Velocity S-wave (km/s) = 2.33042 4.38927 3.51401
# Velocity P-wave (km/s) = 5.88729 9.30178 7.78406
#
# Compressibility (1/GPa) = 0.02187680
#
# Stress axis : x y z
#
# Youngs Moduli (GPa) = 9.17115 9.17086 30.03274
#
# Poissons Ratio (x) = 0.59673 0.74600
# Poissons Ratio (y) = 0.59675 0.74607
# Poissons Ratio (z) = 0.22781 0.22782
#
# Static dielectric constant tensor:
#      x y z
#    x 1.545840 0.000000 0.000000 
#    y 0.000000 1.545840 0.000000 
#    z 0.000000 0.000000 1.542830 
# 
# From -- ./inp_files/5728.got.cif
#   From: 2010.05.17/outbox.cif.g08.bks.cpg/sg115_3_cif.got.tgz:5728.got - 2010.05.20 11:07:42.
