data_PCOD9557763
_publ_section_title
;
Structure prediction by ZEFSAII (Michael W. Deem and Ramdas Pophale) SiO2 
 PCOD9557763
Probable space group: P -4 C 2
;
_chemical_formula_sum "Si O2"
_cell_formula_units_Z 40
_cell_length_a 7.699825
_cell_length_b 7.699825
_cell_length_c 26.522573
_cell_angle_alpha 90.000000
_cell_angle_beta 90.000000
_cell_angle_gamma 90.000000
_cell_volume 1572.451876
_symmetry_space_group_name_H-M "P -4 C 2"
_symmetry_group_IT_number 116
_symmetry_cell_setting 'tetragonal'
loop_
_space_group_symop_operation_xyz
x,y,z
y,-x,-z
-x,-y,z
-y,x,-z
y,x,1/2-z
-y,-x,1/2-z
-x,y,1/2+z
x,-y,1/2+z
loop_
_atom_site_type_symbol
_atom_site_label
_atom_site_fract_x
_atom_site_fract_y
_atom_site_fract_z
Si Si1 0.086361 0.851322 0.189042
Si Si2 0.000000 0.500000 0.568700
Si Si3 0.299401 0.541196 0.311887
Si Si4 0.094898 0.734077 0.987878
Si Si5 0.500000 0.000000 0.269943
Si Si6 0.219694 0.803238 0.623047
O O1 0.113479 0.886522 0.250000
O O2 0.266764 0.757392 0.169269
O O3 0.976607 0.669923 0.197038
O O4 0.876147 0.939665 0.163022
O O5 0.865058 0.586560 0.528842
O O6 0.908699 0.346451 0.600639
O O7 0.500000 0.500000 0.301654
O O8 0.256681 0.393570 0.351647
O O9 0.170441 0.513438 0.264798
O O10 0.103174 0.716176 0.928061
O O11 0.898367 0.788976 0.998815
#
# Coordination Sequence:
#
# PCOD9557763 Si02
#       6
#     8   4   8   8   4   8
#     4  12  29  48  79 110 150 202 257 319 387 466
#     4  10  21  43  74 102 148 196 246 313 389 472
#     4  12  28  50  76 114 152 202 257 320 385 468
#     4   9  21  43  71 101 140 195 235 308 381 459
#     4  12  29  53  74 112 158 204 260 321 391 462
#     4  11  25  48  70 110 147 191 253 315 381 457
#
# _framework density 25.437981000000001
#
# number of rings (size 3 to 8) (size 9 to 14) (size 15 to 20)
#    0.000    1.000    0.000    4.800    5.600   14.400 
#   18.000    0.000    0.000    0.000    0.000    0.000 
#    0.000    0.000    0.000    0.000    0.000    0.000 
#
# Total GULP energy -222985.950598 kJ/mol
# GULP energy per Si atom -5574.648765 kJ/mol
# Density = 2.538008 g / cm^3
# Si number density = 25.437981 Si / 1000 Ang^3
#
#
#
# Elastic Constant Matrix: (Units=GPa)
#
#
# Indices 1 2 3 4 5 6 
#
# 1 153.0339 60.2901 57.0707 0.0000 0.0000 0.0000
# 2 60.2901 153.0344 57.0710 0.0000 0.0000 0.0000
# 3 57.0707 57.0710 221.3424 0.0000 0.0000 0.0000
# 4 0.0000 0.0000 0.0000 9.5653 0.0000 0.0000
# 5 0.0000 0.0000 0.0000 0.0000 9.5653 0.0000
# 6 0.0000 0.0000 0.0000 0.0000 0.0000 19.9289
#
#
#
# Elastic Compliance Matrix: (Units=1/GPa)
#
#
# Indices 1 2 3 4 5 6 
#
# 1 0.008110 -0.002672 -0.001402 0.000000 0.000000 0.000000
# 2 -0.002672 0.008110 -0.001402 0.000000 0.000000 0.000000
# 3 -0.001402 -0.001402 0.005241 0.000000 0.000000 0.000000
# 4 0.000000 0.000000 0.000000 0.104545 0.000000 0.000000
# 5 0.000000 0.000000 0.000000 0.000000 0.104545 0.000000
# 6 0.000000 0.000000 0.000000 0.000000 0.000000 0.050178
#
#
# Mechanical properties :
#
#
# Convention : Reuss Voigt Hill
#
# Bulk Modulus (GPa) = 95.16273 97.36382 96.26328
# Shear Modulus (GPa) = 16.93855 31.34382 24.14118
#
# Velocity S-wave (km/s) = 2.58326 3.51403 3.08396
# Velocity P-wave (km/s) = 6.81091 7.40423 7.11376
#
# Compressibility (1/GPa) = 0.01050832
#
# Stress axis : x y z
#
# Youngs Moduli (GPa) = 123.30231 123.30262 190.80596
#
# Poissons Ratio (x) = 0.32949 0.26753
# Poissons Ratio (y) = 0.32949 0.26753
# Poissons Ratio (z) = 0.17288 0.17288
#
# Static dielectric constant tensor:
#      x y z
#    x 2.324330 0.000000 0.000000 
#    y 0.000000 2.324330 0.000000 
#    z 0.000000 0.000000 2.143630 
# 
# From -- ./inp_files/4863.got.cif
#   From: 2010.05.17/outbox.cif.g08.bks.cpg/sg116_3_cif.got.tgz:4863.got - 2010.05.20 11:11:43.
