data_PCOD9557431
_publ_section_title
;
Structure prediction by ZEFSAII (Michael W. Deem and Ramdas Pophale) SiO2 
 PCOD9557431
Probable space group: P -4 M 2
;
_chemical_formula_sum "Si O2"
_cell_formula_units_Z 36
_cell_length_a 15.660154
_cell_length_b 15.660154
_cell_length_c 8.172270
_cell_angle_alpha 90.000000
_cell_angle_beta 90.000000
_cell_angle_gamma 90.000000
_cell_volume 2004.170954
_symmetry_space_group_name_H-M "P -4 M 2"
_symmetry_group_IT_number 115
_symmetry_cell_setting 'tetragonal'
loop_
_space_group_symop_operation_xyz
x,y,z
y,-x,-z
-x,-y,z
-y,x,-z
y,x,-z
-y,-x,-z
-x,y,z
x,-y,z
loop_
_atom_site_type_symbol
_atom_site_label
_atom_site_fract_x
_atom_site_fract_y
_atom_site_fract_z
Si Si1 0.898326 0.500000 0.511481
Si Si2 0.895003 0.500000 0.120717
Si Si3 0.192343 0.676142 0.010065
Si Si4 0.174319 0.904692 0.843216
Si Si5 0.848823 0.151178 0.500000
Si Si6 0.322128 0.102968 0.337282
O O1 0.886594 0.500000 0.317153
O O2 0.867002 0.413902 0.596850
O O3 0.000000 0.500000 0.538208
O O4 0.000000 0.500000 0.082156
O O5 0.843545 0.417261 0.054619
O O6 0.146513 0.695573 0.836657
O O7 0.291875 0.708126 0.000000
O O8 0.154269 0.742437 0.141775
O O9 0.127211 0.892776 0.670813
O O10 0.206445 0.000000 0.855906
O O11 0.116989 0.883012 0.000000
O O12 0.869713 0.249651 0.535298
O O13 0.320777 0.000000 0.320440
#
# Coordination Sequence:
#
# PCOD9557431 Si02
#       6
#     4   4   8   8   4   8
#     4   9  21  35  57  91 119 148 199 257 310 366
#     4  11  21  37  63  92 123 162 209 258 308 374
#     4  11  22  39  61  90 123 159 200 251 314 373
#     4  11  23  39  56  79 112 156 203 254 305 359
#     4  12  22  36  58  83 116 157 198 248 302 362
#     4  11  21  37  58  85 118 158 202 250 307 368
#
# _framework density 17.962540000000001
#
# number of rings (size 3 to 8) (size 9 to 14) (size 15 to 20)
#    0.000    1.111    4.444    4.667    0.000    3.778 
#    0.000    0.000    0.000    3.333    0.000    0.000 
#    0.000    0.444    0.000    0.000    0.000    0.000 
#
# Total GULP energy -200640.244860 kJ/mol
# GULP energy per Si atom -5573.340135 kJ/mol
# Density = 1.792166 g / cm^3
# Si number density = 17.962540 Si / 1000 Ang^3
#
#
#
# Elastic Constant Matrix: (Units=GPa)
#
#
# Indices 1 2 3 4 5 6 
#
# 1 80.6826 59.1099 25.9343 0.0000 0.0000 0.0000
# 2 59.1099 80.6789 25.9345 0.0000 0.0000 0.0000
# 3 25.9343 25.9345 115.2497 0.0000 0.0000 0.0000
# 4 0.0000 0.0000 0.0000 19.1149 0.0000 0.0000
# 5 0.0000 0.0000 0.0000 0.0000 19.1140 0.0000
# 6 0.0000 0.0000 0.0000 0.0000 0.0000 24.9654
#
#
#
# Elastic Compliance Matrix: (Units=1/GPa)
#
#
# Indices 1 2 3 4 5 6 
#
# 1 0.027081 -0.019277 -0.001756 0.000000 0.000000 0.000000
# 2 -0.019277 0.027083 -0.001757 0.000000 0.000000 0.000000
# 3 -0.001756 -0.001757 0.009467 0.000000 0.000000 0.000000
# 4 0.000000 0.000000 0.000000 0.052315 0.000000 0.000000
# 5 0.000000 0.000000 0.000000 0.000000 0.052318 0.000000
# 6 0.000000 0.000000 0.000000 0.000000 0.000000 0.040056
#
#
# Mechanical properties :
#
#
# Convention : Reuss Voigt Hill
#
# Bulk Modulus (GPa) = 55.39490 55.39652 55.39571
# Shear Modulus (GPa) = 19.23695 23.68101 21.45898
#
# Velocity S-wave (km/s) = 3.27608 3.63486 3.46012
# Velocity P-wave (km/s) = 6.72431 6.96586 6.84615
#
# Compressibility (1/GPa) = 0.01805220
#
# Stress axis : x y z
#
# Youngs Moduli (GPa) = 36.92579 36.92389 105.62679
#
# Poissons Ratio (x) = 0.71177 0.18550
# Poissons Ratio (y) = 0.71181 0.18554
# Poissons Ratio (z) = 0.06485 0.06486
#
# Static dielectric constant tensor:
#      x y z
#    x 1.642820 0.000000 0.000000 
#    y 0.000000 1.642820 0.000000 
#    z 0.000000 0.000000 1.655290 
# 
# From -- ./inp_files/1528.got.cif
#   From: 2010.05.17/outbox.cif.g08.bks.cpg/sg115_1_cif.got.tgz:1528.got - 2010.05.20 11:07:42.
