data_PCOD9557745
_publ_section_title
;
Structure prediction by ZEFSAII (Michael W. Deem and Ramdas Pophale) SiO2 
 PCOD9557745
Probable space group: P -4 C 2
;
_chemical_formula_sum "Si O2"
_cell_formula_units_Z 40
_cell_length_a 14.911743
_cell_length_b 14.911743
_cell_length_c 9.329887
_cell_angle_alpha 90.000000
_cell_angle_beta 90.000000
_cell_angle_gamma 90.000000
_cell_volume 2074.594413
_symmetry_space_group_name_H-M "P -4 C 2"
_symmetry_group_IT_number 116
_symmetry_cell_setting 'tetragonal'
loop_
_space_group_symop_operation_xyz
x,y,z
y,-x,-z
-x,-y,z
-y,x,-z
y,x,1/2-z
-y,-x,1/2-z
-x,y,1/2+z
x,-y,1/2+z
loop_
_atom_site_type_symbol
_atom_site_label
_atom_site_fract_x
_atom_site_fract_y
_atom_site_fract_z
Si Si1 0.061564 0.413867 0.544116
Si Si2 0.500000 0.500000 0.000000
Si Si3 0.921066 0.682377 0.242442
Si Si4 0.895590 0.104411 0.750000
Si Si5 0.785189 0.548963 0.100697
Si Si6 0.000000 0.000000 0.000000
Si Si7 0.450440 0.326166 0.677469
O O1 0.078928 0.355377 0.403750
O O2 0.150405 0.461674 0.602482
O O3 0.000000 0.500000 0.503534
O O4 0.009364 0.355407 0.661816
O O5 0.412780 0.487338 0.903810
O O6 0.913582 0.789159 0.240581
O O7 0.839234 0.633783 0.159833
O O8 0.943184 0.063118 0.891729
O O9 0.704925 0.521790 0.205059
O O10 0.750521 0.562872 0.940445
O O11 0.358283 0.358283 0.750000
#
# Coordination Sequence:
#
# PCOD9557745 Si02
#       7
#     8   2   8   4   8   2   8
#     4  10  21  40  67  99 136 172 205 268 342 400
#     4  12  26  40  62  76 126 176 226 260 326 368
#     4  11  23  40  70 101 132 165 222 270 340 401
#     4  11  24  44  72  96 125 174 216 282 329 430
#     4  11  24  41  65  95 134 174 221 277 328 396
#     4  10  24  50  68  90 136 170 212 262 376 418
#     4  12  25  41  61  88 126 183 224 270 322 385
#
# _framework density 19.280877
#
# number of rings (size 3 to 8) (size 9 to 14) (size 15 to 20)
#    0.000    1.000    4.000    3.300    2.800    3.200 
#    0.000    0.000    0.000    0.000    0.000    0.000 
#    0.000    0.000    0.000    0.000    0.000    0.000 
#
# Total GULP energy -223626.339861 kJ/mol
# GULP energy per Si atom -5590.658497 kJ/mol
# Density = 1.923699 g / cm^3
# Si number density = 19.280877 Si / 1000 Ang^3
#
#
#
# Elastic Constant Matrix: (Units=GPa)
#
#
# Indices 1 2 3 4 5 6 
#
# 1 122.7695 53.7463 47.1037 0.0000 0.0000 0.0000
# 2 53.7463 122.7706 47.1040 0.0000 0.0000 0.0000
# 3 47.1037 47.1040 104.9821 0.0000 0.0000 0.0000
# 4 0.0000 0.0000 0.0000 37.4664 0.0000 0.0000
# 5 0.0000 0.0000 0.0000 0.0000 37.4670 0.0000
# 6 0.0000 0.0000 0.0000 0.0000 0.0000 19.5411
#
#
#
# Elastic Compliance Matrix: (Units=1/GPa)
#
#
# Indices 1 2 3 4 5 6 
#
# 1 0.010968 -0.003519 -0.003342 0.000000 0.000000 0.000000
# 2 -0.003519 0.010968 -0.003342 0.000000 0.000000 0.000000
# 3 -0.003342 -0.003342 0.012525 0.000000 0.000000 0.000000
# 4 0.000000 0.000000 0.000000 0.026691 0.000000 0.000000
# 5 0.000000 0.000000 0.000000 0.000000 0.026690 0.000000
# 6 0.000000 0.000000 0.000000 0.000000 0.000000 0.051174
#
#
# Mechanical properties :
#
#
# Convention : Reuss Voigt Hill
#
# Bulk Modulus (GPa) = 71.15595 71.82559 71.49077
# Shear Modulus (GPa) = 30.46765 32.39946 31.43355
#
# Velocity S-wave (km/s) = 3.97949 4.10371 4.04207
# Velocity P-wave (km/s) = 7.62234 7.73221 7.67747
#
# Compressibility (1/GPa) = 0.01405364
#
# Stress axis : x y z
#
# Youngs Moduli (GPa) = 91.17089 91.17167 79.84258
#
# Poissons Ratio (x) = 0.32087 0.26685
# Poissons Ratio (y) = 0.32087 0.26685
# Poissons Ratio (z) = 0.30472 0.30472
#
# Static dielectric constant tensor:
#      x y z
#    x 1.669570 0.000000 0.000000 
#    y 0.000000 1.669570 0.000000 
#    z 0.000000 0.000000 1.674070 
# 
# From -- ./inp_files/869.got.cif
#   From: 2010.05.17/outbox.cif.g08.bks.cpg/sg116_1_cif.got.tgz:869.got - 2010.05.20 11:11:43.
