data_PCOD9557484
_publ_section_title
;
Structure prediction by ZEFSAII (Michael W. Deem and Ramdas Pophale) SiO2 
 PCOD9557484
Probable space group: P -4 M 2
;
_chemical_formula_sum "Si O2"
_cell_formula_units_Z 44
_cell_length_a 9.000000
_cell_length_b 9.000000
_cell_length_c 30.000000
_cell_angle_alpha 90.000000
_cell_angle_beta 90.000000
_cell_angle_gamma 90.000000
_cell_volume 2430.000000
_symmetry_space_group_name_H-M "P -4 M 2"
_symmetry_group_IT_number 115
_symmetry_cell_setting 'tetragonal'
loop_
_space_group_symop_operation_xyz
x,y,z
y,-x,-z
-x,-y,z
-y,x,-z
y,x,-z
-y,-x,-z
-x,y,z
x,-y,z
loop_
_atom_site_type_symbol
_atom_site_label
_atom_site_fract_x
_atom_site_fract_y
_atom_site_fract_z
Si Si1 0.172067 0.680935 0.408467
Si Si2 0.327222 0.320912 0.049056
Si Si3 0.324065 0.323662 0.316961
Si Si4 0.826305 0.179254 0.231907
Si Si5 0.827305 0.820993 0.866691
Si Si6 0.677085 0.677085 0.500000
O O1 0.182635 0.500000 0.408704
O O2 0.250457 0.731198 0.362986
O O3 0.247117 0.731212 0.454499
O O4 0.000000 0.721917 0.407652
O O5 0.500000 0.276742 0.053250
O O6 0.321901 0.500000 0.048573
O O7 0.240122 0.260401 0.091279
O O8 0.271420 0.271420 0.000000
O O9 0.500000 0.304267 0.320116
O O10 0.292309 0.500000 0.313136
O O11 0.261893 0.244801 0.273207
O O12 0.772842 0.227579 0.182528
O O13 0.000000 0.220711 0.236455
O O14 0.818556 0.000000 0.232338
O O15 0.000000 0.776557 0.870909
O O16 0.822134 0.000000 0.866503
O O17 0.701199 0.500000 0.503966
#
# Coordination Sequence:
#
# PCOD9557484 Si02
#       6
#     8   8   8   8   8   4
#     4   9  17  30  49  72  98 129 164 202 245 293
#     4   9  19  35  52  72 101 134 166 203 248 296
#     4  10  20  33  51  77 105 132 167 209 250 295
#     4   9  19  36  54  72  99 134 168 204 250 300
#     4   9  19  35  53  74 100 130 166 207 249 296
#     4   9  16  28  48  71  94 122 158 201 246 290
#
# _framework density 18.106995999999999
#
# number of rings (size 3 to 8) (size 9 to 14) (size 15 to 20)
#    0.000    2.818    0.000    2.727    0.000    6.545 
#    0.000    9.091    0.000    3.545    0.000    0.000 
#    0.000    0.000    0.000    0.000    0.000    0.000 
#
# Total GULP energy -245268.868612 kJ/mol
# GULP energy per Si atom -5574.292468 kJ/mol
# Density = 1.806578 g / cm^3
# Si number density = 18.106996 Si / 1000 Ang^3
#
#
#
# Elastic Constant Matrix: (Units=GPa)
#
#
# Indices 1 2 3 4 5 6 
#
# 1 12.4871 23.6208 47.5897 0.0000 0.0000 0.0000
# 2 23.6208 12.4871 47.5897 0.0000 0.0000 0.0000
# 3 47.5897 47.5897 205.3807 0.0000 0.0000 0.0000
# 4 0.0000 0.0000 0.0000 41.7630 0.0000 0.0000
# 5 0.0000 0.0000 0.0000 0.0000 41.7630 0.0000
# 6 0.0000 0.0000 0.0000 0.0000 0.0000 22.8268
#
#
#
# Elastic Compliance Matrix: (Units=1/GPa)
#
#
# Indices 1 2 3 4 5 6 
#
# 1 -0.009331 0.080487 -0.016488 0.000000 0.000000 0.000000
# 2 0.080487 -0.009331 -0.016488 0.000000 0.000000 0.000000
# 3 -0.016488 -0.016488 0.012510 0.000000 0.000000 0.000000
# 4 0.000000 0.000000 0.000000 0.023945 0.000000 0.000000
# 5 0.000000 0.000000 0.000000 0.000000 0.023945 0.000000
# 6 0.000000 0.000000 0.000000 0.000000 0.000000 0.043808
#
#
# Mechanical properties :
#
#
# Convention : Reuss Voigt Hill
#
# Bulk Modulus (GPa) = 11.25220 51.99504 31.62362
# Shear Modulus (GPa) = 248.16547 28.70753 138.43650
#
# Velocity S-wave (km/s) = 11.71975 3.98608 8.75332
# Velocity P-wave (km/s) = 13.76098 7.06844 10.93909
#
# Compressibility (1/GPa) = 0.08887149
#
# Stress axis : x y z
#
# Youngs Moduli (GPa) = -107.17485 -107.17485 79.93561
#
# Poissons Ratio (x) = 8.62623 1.31799
# Poissons Ratio (y) = 8.62623 1.31799
# Poissons Ratio (z) = -1.76711 -1.76711
#
# Static dielectric constant tensor:
#      x y z
#    x 1.611430 0.000000 0.000000 
#    y 0.000000 1.611430 0.000000 
#    z 0.000000 0.000000 1.615670 
# 
# From -- ./inp_files/5724.got.cif
#   From: 2010.05.17/outbox.ucp.g08.bks.cvg/sg115_3_cif.got.tgz:5724.got - 2010.06.11 11:33:38.
