data_PCOD9557735
_publ_section_title
;
Structure prediction by ZEFSAII (Michael W. Deem and Ramdas Pophale) SiO2 
 PCOD9557735
Probable space group: P -4 C 2
;
_chemical_formula_sum "Si O2"
_cell_formula_units_Z 40
_cell_length_a 14.371435
_cell_length_b 14.371435
_cell_length_c 8.506755
_cell_angle_alpha 90.000000
_cell_angle_beta 90.000000
_cell_angle_gamma 90.000000
_cell_volume 1756.969389
_symmetry_space_group_name_H-M "P -4 C 2"
_symmetry_group_IT_number 116
_symmetry_cell_setting 'tetragonal'
loop_
_space_group_symop_operation_xyz
x,y,z
y,-x,-z
-x,-y,z
-y,x,-z
y,x,1/2-z
-y,-x,1/2-z
-x,y,1/2+z
x,-y,1/2+z
loop_
_atom_site_type_symbol
_atom_site_label
_atom_site_fract_x
_atom_site_fract_y
_atom_site_fract_z
Si Si1 0.009462 0.143018 0.500247
Si Si2 0.421819 0.619879 0.435601
Si Si3 0.061301 0.721613 0.755975
Si Si4 0.420705 0.815392 0.595651
Si Si5 0.914849 0.572554 0.733275
O O1 0.074094 0.199152 0.383205
O O2 0.930756 0.079050 0.420706
O O3 0.958977 0.221245 0.600785
O O4 0.533730 0.615073 0.459507
O O5 0.393746 0.606255 0.250000
O O6 0.396301 0.715892 0.522232
O O7 0.146009 0.649670 0.771807
O O8 0.964786 0.665766 0.791192
O O9 0.414265 0.883434 0.445485
O O10 0.524323 0.831706 0.668011
O O11 0.000000 0.500000 0.736910
#
# Coordination Sequence:
#
# PCOD9557735 Si02
#       5
#     8   8   8   8   8
#     4  11  24  45  68  95 138 188 227 278 350 418
#     4  11  24  47  72  98 145 193 240 294 376 441
#     4  11  22  43  68 102 139 178 234 287 351 418
#     4  11  23  42  69 107 135 182 234 294 357 423
#     4  10  21  39  67  97 143 180 221 280 367 423
#
# _framework density 22.766475
#
# number of rings (size 3 to 8) (size 9 to 14) (size 15 to 20)
#    0.000    1.200    2.000    5.400    2.800    1.600 
#    7.200    6.000    0.000    0.000    0.000    0.000 
#    0.000    0.000    0.000    0.000    0.000    0.000 
#
# Total GULP energy -223095.108519 kJ/mol
# GULP energy per Si atom -5577.377713 kJ/mol
# Density = 2.271466 g / cm^3
# Si number density = 22.766475 Si / 1000 Ang^3
#
#
#
# Elastic Constant Matrix: (Units=GPa)
#
#
# Indices 1 2 3 4 5 6 
#
# 1 92.5218 48.8605 30.2584 0.0000 0.0000 0.0000
# 2 48.8605 92.5223 30.2585 0.0000 0.0000 0.0000
# 3 30.2584 30.2585 98.4121 0.0000 0.0000 0.0000
# 4 0.0000 0.0000 0.0000 71.7200 0.0000 0.0000
# 5 0.0000 0.0000 0.0000 0.0000 71.7201 0.0000
# 6 0.0000 0.0000 0.0000 0.0000 0.0000 15.8376
#
#
#
# Elastic Compliance Matrix: (Units=1/GPa)
#
#
# Indices 1 2 3 4 5 6 
#
# 1 0.015524 -0.007379 -0.002504 0.000000 0.000000 0.000000
# 2 -0.007379 0.015524 -0.002504 0.000000 0.000000 0.000000
# 3 -0.002504 -0.002504 0.011701 0.000000 0.000000 0.000000
# 4 0.000000 0.000000 0.000000 0.013943 0.000000 0.000000
# 5 0.000000 0.000000 0.000000 0.000000 0.013943 0.000000
# 6 0.000000 0.000000 0.000000 0.000000 0.000000 0.063141
#
#
# Mechanical properties :
#
#
# Convention : Reuss Voigt Hill
#
# Bulk Modulus (GPa) = 55.63588 55.80124 55.71856
# Shear Modulus (GPa) = 30.38702 43.46079 36.92390
#
# Velocity S-wave (km/s) = 3.65735 4.37393 4.03159
# Velocity P-wave (km/s) = 6.50582 7.07614 6.79697
#
# Compressibility (1/GPa) = 0.01797401
#
# Stress axis : x y z
#
# Youngs Moduli (GPa) = 64.41535 64.41575 85.46037
#
# Poissons Ratio (x) = 0.47534 0.21402
# Poissons Ratio (y) = 0.47534 0.21402
# Poissons Ratio (z) = 0.16132 0.16132
#
# Static dielectric constant tensor:
#      x y z
#    x 1.865350 0.000000 0.000000 
#    y 0.000000 1.865350 0.000000 
#    z 0.000000 0.000000 1.883350 
# 
# From -- ./inp_files/776.got.cif
#   From: 2010.05.17/outbox.cif.g08.bks.cpg/sg116_1_cif.got.tgz:776.got - 2010.05.20 11:11:43.
