data_PCOD9557770
_publ_section_title
;
Structure prediction by ZEFSAII (Michael W. Deem and Ramdas Pophale) SiO2 
 PCOD9557770
Probable space group: P -4 C 2
;
_chemical_formula_sum "Si O2"
_cell_formula_units_Z 42
_cell_length_a 15.894305
_cell_length_b 15.894305
_cell_length_c 8.897497
_cell_angle_alpha 90.000000
_cell_angle_beta 90.000000
_cell_angle_gamma 90.000000
_cell_volume 2247.765160
_symmetry_space_group_name_H-M "P -4 C 2"
_symmetry_group_IT_number 116
_symmetry_cell_setting 'tetragonal'
loop_
_space_group_symop_operation_xyz
x,y,z
y,-x,-z
-x,-y,z
-y,x,-z
y,x,1/2-z
-y,-x,1/2-z
-x,y,1/2+z
x,-y,1/2+z
loop_
_atom_site_type_symbol
_atom_site_label
_atom_site_fract_x
_atom_site_fract_y
_atom_site_fract_z
Si Si1 0.335722 0.576513 0.941757
Si Si2 0.248474 0.248474 0.750000
Si Si3 0.444054 0.248806 0.766224
Si Si4 0.500000 0.000000 0.161147
Si Si5 0.268976 0.767350 0.913519
Si Si6 0.114483 0.431944 0.099438
Si Si7 0.500000 0.500000 0.500000
O O1 0.277472 0.506908 0.863370
O O2 0.305623 0.671259 0.910520
O O3 0.431224 0.554125 0.910766
O O4 0.325173 0.566333 0.119130
O O5 0.347910 0.229084 0.729032
O O6 0.219882 0.225546 0.576245
O O7 0.490372 0.174069 0.853491
O O8 0.432387 0.044788 0.269067
O O9 0.544583 0.067959 0.054404
O O10 0.223379 0.776622 0.750000
O O11 0.347514 0.831477 0.908975
#
# Coordination Sequence:
#
# PCOD9557770 Si02
#       7
#     8   4   8   4   8   8   2
#     4  11  23  32  46  71  96 148 180 229 298 313
#     4  10  22  32  50  81 100 150 184 226 299 318
#     4  11  20  35  51  69 105 135 186 243 276 345
#     4  10  24  36  58  78  96 146 184 254 310 316
#     4  11  22  37  54  75 103 137 182 229 294 339
#     4  11  21  39  55  77 104 135 194 250 290 353
#     4  12  24  30  40  62 104 130 192 230 266 340
#
# _framework density 18.685226
#
# number of rings (size 3 to 8) (size 9 to 14) (size 15 to 20)
#    0.000    1.143    1.905    6.857    2.667    0.762 
#    0.000    0.000    0.000    0.000    0.000    0.000 
#    0.000    0.000    0.000    0.000    0.000    2.857 
#
# Total GULP energy -234216.876675 kJ/mol
# GULP energy per Si atom -5576.592302 kJ/mol
# Density = 1.864270 g / cm^3
# Si number density = 18.685226 Si / 1000 Ang^3
#
#
#
# Elastic Constant Matrix: (Units=GPa)
#
#
# Indices 1 2 3 4 5 6 
#
# 1 38.0731 -8.9683 13.0628 0.0000 0.0000 0.0000
# 2 -8.9683 38.0725 13.0625 0.0000 0.0000 0.0000
# 3 13.0628 13.0625 152.6335 0.0000 0.0000 0.0000
# 4 0.0000 0.0000 0.0000 14.5848 0.0000 0.0000
# 5 0.0000 0.0000 0.0000 0.0000 14.5848 0.0000
# 6 0.0000 0.0000 0.0000 0.0000 0.0000 9.4221
#
#
#
# Elastic Compliance Matrix: (Units=1/GPa)
#
#
# Indices 1 2 3 4 5 6 
#
# 1 0.029238 0.007980 -0.003185 0.000000 0.000000 0.000000
# 2 0.007980 0.029238 -0.003185 0.000000 0.000000 0.000000
# 3 -0.003185 -0.003185 0.007097 0.000000 0.000000 0.000000
# 4 0.000000 0.000000 0.000000 0.068565 0.000000 0.000000
# 5 0.000000 0.000000 0.000000 0.000000 0.068564 0.000000
# 6 0.000000 0.000000 0.000000 0.000000 0.000000 0.106134
#
#
# Mechanical properties :
#
#
# Convention : Reuss Voigt Hill
#
# Bulk Modulus (GPa) = 14.53652 29.23257 21.88455
# Shear Modulus (GPa) = 15.21850 21.82647 18.52248
#
# Velocity S-wave (km/s) = 2.85698 3.42148 3.15189
# Velocity P-wave (km/s) = 4.32200 5.59351 4.99835
#
# Compressibility (1/GPa) = 0.06879224
#
# Stress axis : x y z
#
# Youngs Moduli (GPa) = 34.20227 34.20174 140.90790
#
# Poissons Ratio (x) = -0.27293 0.44882
# Poissons Ratio (y) = -0.27294 0.44882
# Poissons Ratio (z) = 0.10894 0.10894
#
# Static dielectric constant tensor:
#      x y z
#    x 1.658570 0.000000 0.000000 
#    y 0.000000 1.658570 0.000000 
#    z 0.000000 0.000000 1.781360 
# 
# From -- ./inp_files/938.got.cif
#   From: 2010.05.17/outbox.cif.g08.bks.cpg/sg116_1_cif.got.tgz:938.got - 2010.05.20 11:11:43.
