data_PCOD9557542
_publ_section_title
;
Structure prediction by ZEFSAII (Michael W. Deem and Ramdas Pophale) SiO2 
 PCOD9557542
Probable space group: P -4 C 2
;
_chemical_formula_sum "Si O2"
_cell_formula_units_Z 40
_cell_length_a 20.853496
_cell_length_b 20.853496
_cell_length_c 5.285028
_cell_angle_alpha 90.000000
_cell_angle_beta 90.000000
_cell_angle_gamma 90.000000
_cell_volume 2298.291118
_symmetry_space_group_name_H-M "P -4 C 2"
_symmetry_group_IT_number 116
_symmetry_cell_setting 'tetragonal'
loop_
_space_group_symop_operation_xyz
x,y,z
y,-x,-z
-x,-y,z
-y,x,-z
y,x,1/2-z
-y,-x,1/2-z
-x,y,1/2+z
x,-y,1/2+z
loop_
_atom_site_type_symbol
_atom_site_label
_atom_site_fract_x
_atom_site_fract_y
_atom_site_fract_z
Si Si1 0.188960 0.299210 0.242930
Si Si2 0.246702 0.355426 0.742417
Si Si3 0.350402 0.458588 0.793109
Si Si4 0.033650 0.128317 0.326053
Si Si5 0.718432 0.963245 0.188101
O O1 0.233351 0.233351 0.250000
O O2 0.213058 0.342931 0.475313
O O3 0.112839 0.290900 0.277536
O O4 0.202955 0.334812 0.978480
O O5 0.304604 0.304604 0.750000
O O6 0.281562 0.423409 0.769377
O O7 0.405964 0.405964 0.750000
O O8 0.356457 0.510444 0.569672
O O9 0.103315 0.103315 0.250000
O O10 0.030062 0.204536 0.324891
O O11 0.012135 0.105004 0.600132
O O12 0.694337 0.004700 0.427628
#
# Coordination Sequence:
#
# PCOD9557542 Si02
#       5
#     8   8   8   8   8
#     4  10  18  32  53  72  97 132 169 209 263 320
#     4   9  19  33  51  76 101 132 174 218 253 285
#     4  11  22  36  54  79 116 153 184 215 240 271
#     4  10  20  31  42  57  80 112 151 192 234 285
#     4  10  20  32  46  68  96 121 152 200 257 319
#
# _framework density 17.404235
#
# number of rings (size 3 to 8) (size 9 to 14) (size 15 to 20)
#    0.000    2.000    0.000    4.200    0.000    5.600 
#    0.000    6.000    0.000    0.000    0.000    0.000 
#    0.000   56.000    0.000    0.000    0.000    0.000 
#
# Total GULP energy -222938.586664 kJ/mol
# GULP energy per Si atom -5573.464667 kJ/mol
# Density = 1.736462 g / cm^3
# Si number density = 17.404235 Si / 1000 Ang^3
#
#
#
# Elastic Constant Matrix: (Units=GPa)
#
#
# Indices 1 2 3 4 5 6 
#
# 1 157.9553 -103.6663 4.1593 0.0000 0.0000 0.0000
# 2 -103.6663 157.9553 4.1593 0.0000 0.0000 0.0000
# 3 4.1593 4.1593 76.0134 0.0000 0.0000 0.0000
# 4 0.0000 0.0000 0.0000 18.4753 0.0000 0.0000
# 5 0.0000 0.0000 0.0000 0.0000 18.4753 0.0000
# 6 0.0000 0.0000 0.0000 0.0000 0.0000 29.8048
#
#
#
# Elastic Compliance Matrix: (Units=1/GPa)
#
#
# Indices 1 2 3 4 5 6 
#
# 1 0.011199 0.007377 -0.001016 0.000000 0.000000 0.000000
# 2 0.007377 0.011199 -0.001016 0.000000 0.000000 0.000000
# 3 -0.001016 -0.001016 0.013267 0.000000 0.000000 0.000000
# 4 0.000000 0.000000 0.000000 0.054126 0.000000 0.000000
# 5 0.000000 0.000000 0.000000 0.000000 0.054126 0.000000
# 6 0.000000 0.000000 0.000000 0.000000 0.000000 0.033552
#
#
# Mechanical properties :
#
#
# Convention : Reuss Voigt Hill
#
# Bulk Modulus (GPa) = 21.57382 22.35874 21.96628
# Shear Modulus (GPa) = 27.43752 45.83586 36.63669
#
# Velocity S-wave (km/s) = 3.97481 5.13743 4.59305
# Velocity P-wave (km/s) = 5.78689 6.93293 6.38567
#
# Compressibility (1/GPa) = 0.04635248
#
# Stress axis : x y z
#
# Youngs Moduli (GPa) = 89.29360 89.29360 75.37608
#
# Poissons Ratio (x) = -0.65869 0.07661
# Poissons Ratio (y) = -0.65869 0.07661
# Poissons Ratio (z) = 0.09076 0.09076
#
# Static dielectric constant tensor:
#      x y z
#    x 1.588080 0.000000 0.000000 
#    y 0.000000 1.588080 0.000000 
#    z 0.000000 0.000000 1.597180 
# 
# From -- ./inp_files/120.got.cif
#   From: 2010.05.17/outbox.cif.g08.bks.cpg/sg116_1_cif.got.tgz:120.got - 2010.05.20 11:11:43.
