data_PCOD9557502
_publ_section_title
;
Structure prediction by ZEFSAII (Michael W. Deem and Ramdas Pophale) SiO2 
 PCOD9557502
Probable space group: P -4 M 2
;
_chemical_formula_sum "Si O2"
_cell_formula_units_Z 48
_cell_length_a 9.000000
_cell_length_b 9.000000
_cell_length_c 30.000000
_cell_angle_alpha 90.000000
_cell_angle_beta 90.000000
_cell_angle_gamma 90.000000
_cell_volume 2430.000000
_symmetry_space_group_name_H-M "P -4 M 2"
_symmetry_group_IT_number 115
_symmetry_cell_setting 'tetragonal'
loop_
_space_group_symop_operation_xyz
x,y,z
y,-x,-z
-x,-y,z
-y,x,-z
y,x,-z
-y,-x,-z
-x,y,z
x,-y,z
loop_
_atom_site_type_symbol
_atom_site_label
_atom_site_fract_x
_atom_site_fract_y
_atom_site_fract_z
Si Si1 0.821981 0.836428 0.124679
Si Si2 0.672813 0.334727 0.052976
Si Si3 0.830141 0.321463 0.363026
Si Si4 0.330820 0.821826 0.540138
Si Si5 0.670193 0.171377 0.283924
Si Si6 0.178364 0.336646 0.207921
O O1 0.764197 0.791585 0.076802
O O2 0.769167 0.712938 0.159413
O O3 0.000000 0.836174 0.125097
O O4 0.770470 0.000000 0.138160
O O5 0.500000 0.324992 0.066080
O O6 0.728758 0.500000 0.064995
O O7 0.678564 0.321437 0.000000
O O8 0.835176 0.500000 0.364836
O O9 0.777339 0.270062 0.411552
O O10 0.722870 0.268850 0.324949
O O11 0.000000 0.270455 0.354421
O O12 0.234396 0.765605 0.500000
O O13 0.500000 0.767248 0.534996
O O14 0.335674 0.000000 0.541040
O O15 0.500000 0.200223 0.272297
O O16 0.770338 0.214887 0.242481
O O17 0.687639 0.000000 0.295810
O O18 0.233605 0.500000 0.220630
O O19 0.000000 0.341304 0.207779
#
# Coordination Sequence:
#
# PCOD9557502 Si02
#       6
#     8   8   8   8   8   8
#     4  10  21  36  55  81 111 141 175 217 265 316
#     4   9  19  36  56  78 106 142 183 223 264 313
#     4   9  19  37  58  78 103 139 181 220 261 313
#     4   9  19  35  54  78 108 140 176 219 264 312
#     4  11  24  38  53  79 112 141 172 215 266 316
#     4  10  21  38  60  82 104 137 180 220 261 314
#
# _framework density 19.753086
#
# number of rings (size 3 to 8) (size 9 to 14) (size 15 to 20)
#    0.000    2.333    0.000    3.500    0.000    9.000 
#    0.000    7.500    0.000    0.000    0.000    0.000 
#    0.000    0.000    0.000    0.000    0.000    0.000 
#
# Total GULP energy -267532.083022 kJ/mol
# GULP energy per Si atom -5573.585063 kJ/mol
# Density = 1.970813 g / cm^3
# Si number density = 19.753086 Si / 1000 Ang^3
#
#
#
# Elastic Constant Matrix: (Units=GPa)
#
#
# Indices 1 2 3 4 5 6 
#
# 1 5.7065 23.1511 18.1227 0.0000 0.0000 0.0000
# 2 23.1511 5.7060 18.1224 0.0000 0.0000 0.0000
# 3 18.1227 18.1224 51.4217 0.0000 0.0000 0.0000
# 4 0.0000 0.0000 0.0000 16.9642 0.0000 0.0000
# 5 0.0000 0.0000 0.0000 0.0000 16.9644 0.0000
# 6 0.0000 0.0000 0.0000 0.0000 0.0000 26.9942
#
#
#
# Elastic Compliance Matrix: (Units=1/GPa)
#
#
# Indices 1 2 3 4 5 6 
#
# 1 0.002427 0.059749 -0.021913 0.000000 0.000000 0.000000
# 2 0.059749 0.002426 -0.021912 0.000000 0.000000 0.000000
# 3 -0.021913 -0.021912 0.034892 0.000000 0.000000 0.000000
# 4 0.000000 0.000000 0.000000 0.058948 0.000000 0.000000
# 5 0.000000 0.000000 0.000000 0.000000 0.058947 0.000000
# 6 0.000000 0.000000 0.000000 0.000000 0.000000 0.037045
#
#
# Mechanical properties :
#
#
# Convention : Reuss Voigt Hill
#
# Bulk Modulus (GPa) = 13.96781 20.18075 17.07428
# Shear Modulus (GPa) = 26.78096 12.41376 19.59736
#
# Velocity S-wave (km/s) = 3.68609 2.50960 3.15320
# Velocity P-wave (km/s) = 5.02025 4.31696 4.68183
#
# Compressibility (1/GPa) = 0.07159319
#
# Stress axis : x y z
#
# Youngs Moduli (GPa) = 412.08951 412.28556 28.65960
#
# Poissons Ratio (x) = -24.63382 0.62801
# Poissons Ratio (y) = -24.62210 0.62800
# Poissons Ratio (z) = 9.02994 9.03420
#
# Static dielectric constant tensor:
#      x y z
#    x 1.680360 0.000000 0.000000 
#    y 0.000000 1.680360 0.000000 
#    z 0.000000 0.000000 1.700580 
# 
# From -- ./inp_files/5935.got.cif
#   From: 2010.05.17/outbox.ucp.g08.bks.cvg/sg115_3_cif.got.tgz:5935.got - 2010.06.11 11:33:38.
