data_PCOD9557191
_publ_section_title
;
Structure prediction by ZEFSAII (Michael W. Deem and Ramdas Pophale) SiO2 
 PCOD9557191
Probable space group: P -4 M 2
;
_chemical_formula_sum "Si O2"
_cell_formula_units_Z 48
_cell_length_a 9.022904
_cell_length_b 9.022904
_cell_length_c 32.257656
_cell_angle_alpha 90.000000
_cell_angle_beta 90.000000
_cell_angle_gamma 90.000000
_cell_volume 2626.185987
_symmetry_space_group_name_H-M "P -4 M 2"
_symmetry_group_IT_number 115
_symmetry_cell_setting 'tetragonal'
loop_
_space_group_symop_operation_xyz
x,y,z
y,-x,-z
-x,-y,z
-y,x,-z
y,x,-z
-y,-x,-z
-x,y,z
x,-y,z
loop_
_atom_site_type_symbol
_atom_site_label
_atom_site_fract_x
_atom_site_fract_y
_atom_site_fract_z
Si Si1 0.678869 0.675139 0.364832
Si Si2 0.823667 0.676333 0.040109
Si Si3 0.679981 0.324205 0.544546
Si Si4 0.826956 0.177737 0.714183
Si Si5 0.324717 0.822449 0.800354
Si Si6 0.676267 0.175873 0.120159
O O1 0.500000 0.688091 0.364210
O O2 0.713782 0.500000 0.360873
O O3 0.733498 0.728119 0.410450
O O4 0.747383 0.762258 0.326742
O O5 0.797995 0.500000 0.039605
O O6 0.754501 0.745894 0.081412
O O7 0.000000 0.701921 0.039452
O O8 0.749849 0.749849 0.000000
O O9 0.735169 0.264832 0.500000
O O10 0.500000 0.312536 0.544332
O O11 0.713261 0.500000 0.544592
O O12 0.739063 0.222598 0.755601
O O13 0.000000 0.213164 0.719229
O O14 0.812041 0.000000 0.710131
O O15 0.500000 0.794137 0.802302
O O16 0.242289 0.740121 0.837422
O O17 0.301522 0.000000 0.804771
O O18 0.500000 0.200151 0.117888
O O19 0.704131 0.000000 0.118582
#
# Coordination Sequence:
#
# PCOD9557191 Si02
#       6
#     8   8   8   8   8   8
#     4   9  17  29  48  75 102 128 163 209 260 311
#     4  11  24  41  62  89 119 152 192 234 275 320
#     4   7  10  19  38  65  95 124 156 199 251 304
#     4  10  21  36  53  73 100 137 177 214 257 311
#     4  10  21  38  60  83 105 134 176 223 269 317
#     4  11  24  40  59  86 118 150 184 221 265 320
#
# _framework density 18.277455
#
# number of rings (size 3 to 8) (size 9 to 14) (size 15 to 20)
#    0.000    2.333    0.000    4.500    0.000    9.667 
#    0.000    0.000    0.000    1.000    0.000    5.833 
#    0.000    0.000    0.000    0.000    0.000    0.000 
#
# Total GULP energy -267818.077942 kJ/mol
# GULP energy per Si atom -5579.543290 kJ/mol
# Density = 1.823585 g / cm^3
# Si number density = 18.277455 Si / 1000 Ang^3
#
#
#
# Elastic Constant Matrix: (Units=GPa)
#
#
# Indices 1 2 3 4 5 6 
#
# 1 67.7345 68.2643 76.5187 0.0000 0.0000 0.0000
# 2 68.2643 67.7347 76.5187 0.0000 0.0000 0.0000
# 3 76.5187 76.5187 206.7501 0.0000 0.0000 0.0000
# 4 0.0000 0.0000 0.0000 63.0445 0.0000 0.0000
# 5 0.0000 0.0000 0.0000 0.0000 63.0447 0.0000
# 6 0.0000 0.0000 0.0000 0.0000 0.0000 25.8305
#
#
#
# Elastic Compliance Matrix: (Units=1/GPa)
#
#
# Indices 1 2 3 4 5 6 
#
# 1 -0.937599 0.950198 -0.004663 0.000000 0.000000 0.000000
# 2 0.950198 -0.937596 -0.004664 0.000000 0.000000 0.000000
# 3 -0.004663 -0.004664 0.008289 0.000000 0.000000 0.000000
# 4 0.000000 0.000000 0.000000 0.015862 0.000000 0.000000
# 5 0.000000 0.000000 0.000000 0.000000 0.015862 0.000000
# 6 0.000000 0.000000 0.000000 0.000000 0.000000 0.038714
#
#
# Mechanical properties :
#
#
# Convention : Reuss Voigt Hill
#
# Bulk Modulus (GPa) = 67.40317 87.20252 77.30285
# Shear Modulus (GPa) = -1.36119 38.44511 18.54196
#
# Velocity S-wave (km/s) = -0.86392 4.59128 3.18853
# Velocity P-wave (km/s) = 5.99689 8.71323 7.47941
#
# Compressibility (1/GPa) = 0.01483610
#
# Stress axis : x y z
#
# Youngs Moduli (GPa) = -1.06655 -1.06656 120.64487
#
# Poissons Ratio (x) = 1.01344 0.56259
# Poissons Ratio (y) = 1.01344 0.56269
# Poissons Ratio (z) = -0.00497 -0.00497
#
# Static dielectric constant tensor:
#      x y z
#    x 1.610490 0.000000 0.000000 
#    y 0.000000 1.610490 0.000000 
#    z 0.000000 0.000000 1.629050 
# 
# From -- ./inp_files/5933.got.cif
#   From: 2010.05.17/outbox.cif.g08.bks.cpg/sg115_3_cif.got.tgz:5933.got - 2010.05.20 11:07:42.
