data_PCOD9557930
_publ_section_title
;
Structure prediction by ZEFSAII (Michael W. Deem and Ramdas Pophale) SiO2 
 PCOD9557930
Probable space group: P -4 C 2
;
_chemical_formula_sum "Si O2"
_cell_formula_units_Z 56
_cell_length_a 15.408901
_cell_length_b 15.408901
_cell_length_c 10.475769
_cell_angle_alpha 90.000000
_cell_angle_beta 90.000000
_cell_angle_gamma 90.000000
_cell_volume 2487.306146
_symmetry_space_group_name_H-M "P -4 C 2"
_symmetry_group_IT_number 116
_symmetry_cell_setting 'tetragonal'
loop_
_space_group_symop_operation_xyz
x,y,z
y,-x,-z
-x,-y,z
-y,x,-z
y,x,1/2-z
-y,-x,1/2-z
-x,y,1/2+z
x,-y,1/2+z
loop_
_atom_site_type_symbol
_atom_site_label
_atom_site_fract_x
_atom_site_fract_y
_atom_site_fract_z
Si Si1 0.093545 0.771069 0.298010
Si Si2 0.895615 0.590928 0.150043
Si Si3 0.588115 0.741673 0.009149
Si Si4 0.222352 0.672085 0.453067
Si Si5 0.651284 0.922251 0.940906
Si Si6 0.525352 0.239588 0.245204
Si Si7 0.099558 0.766120 0.815974
O O1 0.155206 0.844795 0.250000
O O2 0.141903 0.736909 0.425109
O O3 0.093679 0.691626 0.198073
O O4 0.996009 0.804897 0.298034
O O5 0.860285 0.508868 0.230813
O O6 0.895462 0.674482 0.242163
O O7 0.986104 0.600626 0.072476
O O8 0.816533 0.606234 0.054102
O O9 0.688969 0.713854 0.002726
O O10 0.589731 0.845829 0.989328
O O11 0.540406 0.711196 0.879357
O O12 0.542524 0.721108 0.142815
O O13 0.241251 0.617555 0.326133
O O14 0.733507 0.910391 0.036938
O O15 0.172322 0.827679 0.750000
#
# Coordination Sequence:
#
# PCOD9557930 Si02
#       7
#     8   8   8   8   8   8   8
#     4  11  22  39  66  92 135 189 243 291 356 424
#     4  11  25  41  67 102 137 185 236 298 363 441
#     4  12  25  45  72 102 142 188 234 297 374 458
#     4  12  23  47  73  99 142 190 237 300 377 464
#     4  11  22  42  65  97 139 190 231 294 365 443
#     4  12  25  45  68 111 135 180 241 297 371 455
#     4  11  24  40  63  96 139 187 249 300 355 422
#
# _framework density 22.514316999999998
#
# number of rings (size 3 to 8) (size 9 to 14) (size 15 to 20)
#    0.000    0.571    7.143    1.286    0.000    0.857 
#    2.571    0.000    0.000    2.143    3.714    0.000 
#    0.000    0.000    0.000    0.000    0.000    0.000 
#
# Total GULP energy -312280.272301 kJ/mol
# GULP energy per Si atom -5576.433434 kJ/mol
# Density = 2.246307 g / cm^3
# Si number density = 22.514317 Si / 1000 Ang^3
#
#
#
# Elastic Constant Matrix: (Units=GPa)
#
#
# Indices 1 2 3 4 5 6 
#
# 1 85.4463 29.5216 16.0521 0.0000 0.0000 0.0000
# 2 29.5216 85.4493 16.0546 0.0000 0.0000 0.0000
# 3 16.0521 16.0546 84.7516 0.0000 0.0000 0.0000
# 4 0.0000 0.0000 0.0000 34.1985 0.0000 0.0000
# 5 0.0000 0.0000 0.0000 0.0000 34.1991 0.0000
# 6 0.0000 0.0000 0.0000 0.0000 0.0000 2.8917
#
#
#
# Elastic Compliance Matrix: (Units=1/GPa)
#
#
# Indices 1 2 3 4 5 6 
#
# 1 0.013532 -0.004348 -0.001739 0.000000 0.000000 0.000000
# 2 -0.004348 0.013532 -0.001740 0.000000 0.000000 0.000000
# 3 -0.001739 -0.001740 0.012458 0.000000 0.000000 0.000000
# 4 0.000000 0.000000 0.000000 0.029241 0.000000 0.000000
# 5 0.000000 0.000000 0.000000 0.000000 0.029241 0.000000
# 6 0.000000 0.000000 0.000000 0.000000 0.000000 0.345814
#
#
# Mechanical properties :
#
#
# Convention : Reuss Voigt Hill
#
# Bulk Modulus (GPa) = 41.89801 42.10043 41.99922
# Shear Modulus (GPa) = 10.69681 27.19247 18.94464
#
# Velocity S-wave (km/s) = 2.18207 3.47909 2.90392
# Velocity P-wave (km/s) = 4.99985 5.90582 5.47162
#
# Compressibility (1/GPa) = 0.02386748
#
# Stress axis : x y z
#
# Youngs Moduli (GPa) = 73.89673 73.89861 80.26845
#
# Poissons Ratio (x) = 0.32135 0.13961
# Poissons Ratio (y) = 0.32134 0.13965
# Poissons Ratio (z) = 0.12853 0.12857
#
# Static dielectric constant tensor:
#      x y z
#    x 1.855300 0.000000 0.000000 
#    y 0.000000 1.855300 0.000000 
#    z 0.000000 0.000000 1.987320 
# 
# From -- ./inp_files/1985.got.cif
#   From: 2010.05.17/outbox.cif.g08.bks.cpg/sg116_1_cif.got.tgz:1985.got - 2010.05.20 11:11:43.
