data_PCOD9557208
_publ_section_title
;
Structure prediction by ZEFSAII (Michael W. Deem and Ramdas Pophale) SiO2 
 PCOD9557208
Probable space group: P -4 M 2
;
_chemical_formula_sum "Si O2"
_cell_formula_units_Z 40
_cell_length_a 9.231207
_cell_length_b 9.231207
_cell_length_c 26.634716
_cell_angle_alpha 90.000000
_cell_angle_beta 90.000000
_cell_angle_gamma 90.000000
_cell_volume 2269.682189
_symmetry_space_group_name_H-M "P -4 M 2"
_symmetry_group_IT_number 115
_symmetry_cell_setting 'tetragonal'
loop_
_space_group_symop_operation_xyz
x,y,z
y,-x,-z
-x,-y,z
-y,x,-z
y,x,-z
-y,-x,-z
-x,y,z
x,-y,z
loop_
_atom_site_type_symbol
_atom_site_label
_atom_site_fract_x
_atom_site_fract_y
_atom_site_fract_z
Si Si1 0.670031 0.173420 0.844282
Si Si2 0.171577 0.327305 0.454062
Si Si3 0.827524 0.172087 0.258050
Si Si4 0.329087 0.673122 0.350017
Si Si5 0.676586 0.332234 0.945072
O O1 0.500000 0.210917 0.837242
O O2 0.758714 0.217801 0.795131
O O3 0.721947 0.244468 0.896115
O O4 0.679798 0.000000 0.848919
O O5 0.241068 0.241068 0.500000
O O6 0.193895 0.500000 0.461857
O O7 0.249470 0.287559 0.401902
O O8 0.000000 0.300988 0.450451
O O9 0.741768 0.244346 0.303542
O O10 0.000000 0.201005 0.264266
O O11 0.806394 0.000000 0.257428
O O12 0.500000 0.703285 0.353778
O O13 0.310484 0.500000 0.342801
O O14 0.500000 0.328754 0.946719
O O15 0.719643 0.500000 0.939743
O O16 0.723733 0.276268 0.000000
#
# Coordination Sequence:
#
# PCOD9557208 Si02
#       5
#     8   8   8   8   8
#     4   9  17  30  49  71  95 126 165 207 250 300
#     4  10  21  37  58  83 110 141 176 213 254 301
#     4  10  21  36  53  74 103 138 173 211 257 308
#     4  10  21  37  58  82 106 135 173 216 260 305
#     4   8  14  26  45  68  93 122 158 201 248 298
#
# _framework density 17.623615000000001
#
# number of rings (size 3 to 8) (size 9 to 14) (size 15 to 20)
#    0.000    2.600    0.000    2.400    0.000    5.200 
#    0.000    3.000    0.000    1.200    0.000    0.000 
#    0.000    0.000    0.000    0.000    0.000    0.000 
#
# Total GULP energy -223133.788746 kJ/mol
# GULP energy per Si atom -5578.344719 kJ/mol
# Density = 1.758350 g / cm^3
# Si number density = 17.623615 Si / 1000 Ang^3
#
#
#
# Elastic Constant Matrix: (Units=GPa)
#
#
# Indices 1 2 3 4 5 6 
#
# 1 56.9519 54.8252 88.0798 0.0000 0.0000 0.0000
# 2 54.8252 56.9521 88.0798 0.0000 0.0000 0.0000
# 3 88.0798 88.0798 221.2936 0.0000 0.0000 0.0000
# 4 0.0000 0.0000 0.0000 -290.8281 0.0000 0.0000
# 5 0.0000 0.0000 0.0000 0.0000 -290.7745 0.0000
# 6 0.0000 0.0000 0.0000 0.0000 0.0000 21.5545
#
#
#
# Elastic Compliance Matrix: (Units=1/GPa)
#
#
# Indices 1 2 3 4 5 6 
#
# 1 0.247101 -0.223097 -0.009554 0.000000 0.000000 0.000000
# 2 -0.223097 0.247099 -0.009553 0.000000 0.000000 0.000000
# 3 -0.009554 -0.009553 0.012124 0.000000 0.000000 0.000000
# 4 0.000000 0.000000 0.000000 -0.003438 0.000000 0.000000
# 5 0.000000 0.000000 0.000000 0.000000 -0.003439 0.000000
# 6 0.000000 0.000000 0.000000 0.000000 0.000000 0.046394
#
#
# Mechanical properties :
#
#
# Convention : Reuss Voigt Hill
#
# Bulk Modulus (GPa) = 45.63075 88.57413 67.10244
# Shear Modulus (GPa) = 4.81903 -105.06212 -50.12155
#
# Velocity S-wave (km/s) = 1.65540 -7.72941 -5.33870
# Velocity P-wave (km/s) = 5.44076 5.41207 0.39452
#
# Compressibility (1/GPa) = 0.02191505
#
# Stress axis : x y z
#
# Youngs Moduli (GPa) = 4.04693 4.04696 82.48075
#
# Poissons Ratio (x) = 0.90286 0.78802
# Poissons Ratio (y) = 0.90286 0.78797
# Poissons Ratio (z) = 0.03866 0.03866
#
# Static dielectric constant tensor:
#      x y z
#    x 1.588600 0.000000 0.000000 
#    y 0.000000 1.588600 0.000000 
#    z 0.000000 0.000000 1.582450 
# 
# From -- ./inp_files/5082.got.cif
#   From: 2010.05.17/outbox.cif.g08.bks.cpg/sg115_3_cif.got.tgz:5082.got - 2010.05.20 11:07:42.
