data_PCOD9557304
_publ_section_title
;
Structure prediction by ZEFSAII (Michael W. Deem and Ramdas Pophale) SiO2 
 PCOD9557304
Probable space group: P -4 M 2
;
_chemical_formula_sum "Si O2"
_cell_formula_units_Z 48
_cell_length_a 9.209327
_cell_length_b 9.209327
_cell_length_c 31.755496
_cell_angle_alpha 90.000000
_cell_angle_beta 90.000000
_cell_angle_gamma 90.000000
_cell_volume 2693.237721
_symmetry_space_group_name_H-M "P -4 M 2"
_symmetry_group_IT_number 115
_symmetry_cell_setting 'tetragonal'
loop_
_space_group_symop_operation_xyz
x,y,z
y,-x,-z
-x,-y,z
-y,x,-z
y,x,-z
-y,-x,-z
-x,y,z
x,-y,z
loop_
_atom_site_type_symbol
_atom_site_label
_atom_site_fract_x
_atom_site_fract_y
_atom_site_fract_z
Si Si1 0.828181 0.171820 0.000000
Si Si2 0.672391 0.172952 0.585290
Si Si3 0.829541 0.173849 0.328913
Si Si4 0.326675 0.171810 0.835310
Si Si5 0.826375 0.671694 0.913038
Si Si6 0.327221 0.672780 0.500000
Si Si7 0.328342 0.825877 0.242651
O O1 0.737147 0.210969 0.041296
O O2 0.000000 0.193455 0.008564
O O3 0.500000 0.199980 0.589543
O O4 0.751507 0.220430 0.627954
O O5 0.723786 0.250276 0.542695
O O6 0.694188 0.000000 0.581018
O O7 0.738194 0.215809 0.287895
O O8 0.000000 0.210775 0.322302
O O9 0.819776 0.000000 0.333662
O O10 0.500000 0.191303 0.834936
O O11 0.258483 0.245685 0.876504
O O12 0.256131 0.246289 0.794550
O O13 0.295072 0.000000 0.835283
O O14 0.797148 0.500000 0.911448
O O15 0.000000 0.692800 0.907028
O O16 0.500000 0.697299 0.496146
O O17 0.500000 0.796667 0.241098
O O18 0.307604 0.000000 0.237612
#
# Coordination Sequence:
#
# PCOD9557304 Si02
#       7
#     4   8   8   8   8   4   8
#     4   9  18  34  56  81 110 146 186 223 260 309
#     4   9  18  32  49  70  97 129 165 206 251 299
#     4   9  18  33  52  74 101 133 168 207 253 305
#     4  11  24  39  56  80 109 142 181 223 266 314
#     4  10  21  37  58  84 113 145 181 222 268 317
#     4   9  18  32  48  67  94 128 164 201 246 302
#     4  10  21  37  57  81 108 138 174 216 263 316
#
# _framework density 17.822413999999998
#
# number of rings (size 3 to 8) (size 9 to 14) (size 15 to 20)
#    0.000    2.333    0.000    2.000    0.000    8.000 
#    0.000    3.333    0.000    0.000    0.000    0.000 
#    0.000    0.000    0.000    0.000    0.000    0.000 
#
# Total GULP energy -267960.598050 kJ/mol
# GULP energy per Si atom -5582.512459 kJ/mol
# Density = 1.778185 g / cm^3
# Si number density = 17.822414 Si / 1000 Ang^3
#
#
#
# Elastic Constant Matrix: (Units=GPa)
#
#
# Indices 1 2 3 4 5 6 
#
# 1 72.9660 66.4251 98.0369 0.0000 0.0000 0.0000
# 2 66.4251 72.9654 98.0370 0.0000 0.0000 0.0000
# 3 98.0369 98.0370 215.5990 0.0000 0.0000 0.0000
# 4 0.0000 0.0000 0.0000 148.8617 0.0000 0.0000
# 5 0.0000 0.0000 0.0000 0.0000 148.8133 0.0000
# 6 0.0000 0.0000 0.0000 0.0000 0.0000 22.4055
#
#
#
# Elastic Compliance Matrix: (Units=1/GPa)
#
#
# Indices 1 2 3 4 5 6 
#
# 1 0.086398 -0.066492 -0.009052 0.000000 0.000000 0.000000
# 2 -0.066492 0.086400 -0.009053 0.000000 0.000000 0.000000
# 3 -0.009052 -0.009053 0.012871 0.000000 0.000000 0.000000
# 4 0.000000 0.000000 0.000000 0.006718 0.000000 0.000000
# 5 0.000000 0.000000 0.000000 0.000000 0.006720 0.000000
# 6 0.000000 0.000000 0.000000 0.000000 0.000000 0.044632
#
#
# Mechanical properties :
#
#
# Convention : Reuss Voigt Hill
#
# Bulk Modulus (GPa) = 60.69254 98.50317 79.59785
# Shear Modulus (GPa) = 11.94962 70.61818 41.28390
#
# Velocity S-wave (km/s) = 2.59218 6.30153 4.81812
# Velocity P-wave (km/s) = 6.56408 10.40841 8.70121
#
# Compressibility (1/GPa) = 0.01647649
#
# Stress axis : x y z
#
# Youngs Moduli (GPa) = 11.57434 11.57404 77.69551
#
# Poissons Ratio (x) = 0.76958 0.70328
# Poissons Ratio (y) = 0.76960 0.70337
# Poissons Ratio (z) = 0.10477 0.10478
#
# Static dielectric constant tensor:
#      x y z
#    x 1.594950 0.000000 0.000000 
#    y 0.000000 1.594950 0.000000 
#    z 0.000000 0.000000 1.579850 
# 
# From -- ./inp_files/6274.got.cif
#   From: 2010.05.17/outbox.cif.g08.bks.cpg/sg115_4_cif.got.tgz:6274.got - 2010.05.20 11:07:42.
