data_PCOD9557779
_publ_section_title
;
Structure prediction by ZEFSAII (Michael W. Deem and Ramdas Pophale) SiO2 
 PCOD9557779
Probable space group: P -4 C 2
;
_chemical_formula_sum "Si O2"
_cell_formula_units_Z 30
_cell_length_a 9.255992
_cell_length_b 9.255992
_cell_length_c 16.728490
_cell_angle_alpha 90.000000
_cell_angle_beta 90.000000
_cell_angle_gamma 90.000000
_cell_volume 1433.186413
_symmetry_space_group_name_H-M "P -4 C 2"
_symmetry_group_IT_number 116
_symmetry_cell_setting 'tetragonal'
loop_
_space_group_symop_operation_xyz
x,y,z
y,-x,-z
-x,-y,z
-y,x,-z
y,x,1/2-z
-y,-x,1/2-z
-x,y,1/2+z
x,-y,1/2+z
loop_
_atom_site_type_symbol
_atom_site_label
_atom_site_fract_x
_atom_site_fract_y
_atom_site_fract_z
Si Si1 0.500000 0.000000 0.516761
Si Si2 0.274056 0.952835 0.393454
Si Si3 0.151152 0.622778 0.748636
Si Si4 0.000000 0.000000 0.500000
Si Si5 0.328333 0.117980 0.660514
O O1 0.392695 0.912454 0.459591
O O2 0.186889 0.214582 0.653856
O O3 0.344928 0.071270 0.334899
O O4 0.294408 0.954070 0.688387
O O5 0.138407 0.013982 0.442959
O O6 0.306024 0.693976 0.750000
O O7 0.595361 0.898799 0.574416
O O8 0.159055 0.457623 0.778278
#
# Coordination Sequence:
#
# PCOD9557779 Si02
#       5
#     4   8   8   2   8
#     4  10  22  38  62  94 134 172 212 276 344 390
#     4  12  22  40  66  98 134 171 222 274 338 393
#     4  10  22  39  66  94 129 175 220 270 325 392
#     4  12  24  36  70 112 124 176 226 292 332 396
#     4  10  23  41  61  99 135 169 221 275 329 396
#
# _framework density 20.932379000000001
#
# number of rings (size 3 to 8) (size 9 to 14) (size 15 to 20)
#    0.000    1.600    2.667    4.000    3.733    1.067 
#    0.000    0.000    0.000   48.800    0.000    0.000 
#    0.000    0.000    0.000    0.000    0.000    0.000 
#
# Total GULP energy -167495.726117 kJ/mol
# GULP energy per Si atom -5583.190871 kJ/mol
# Density = 2.088474 g / cm^3
# Si number density = 20.932379 Si / 1000 Ang^3
#
#
#
# Elastic Constant Matrix: (Units=GPa)
#
#
# Indices 1 2 3 4 5 6 
#
# 1 54.0141 11.1111 25.4297 0.0000 0.0000 0.0000
# 2 11.1111 54.0173 25.4304 0.0000 0.0000 0.0000
# 3 25.4297 25.4304 109.6172 0.0000 0.0000 0.0000
# 4 0.0000 0.0000 0.0000 41.4783 0.0000 0.0000
# 5 0.0000 0.0000 0.0000 0.0000 41.4784 0.0000
# 6 0.0000 0.0000 0.0000 0.0000 0.0000 26.1822
#
#
#
# Elastic Compliance Matrix: (Units=1/GPa)
#
#
# Indices 1 2 3 4 5 6 
#
# 1 0.021030 -0.002278 -0.004350 0.000000 0.000000 0.000000
# 2 -0.002278 0.021029 -0.004350 0.000000 0.000000 0.000000
# 3 -0.004350 -0.004350 0.011141 0.000000 0.000000 0.000000
# 4 0.000000 0.000000 0.000000 0.024109 0.000000 0.000000
# 5 0.000000 0.000000 0.000000 0.000000 0.024109 0.000000
# 6 0.000000 0.000000 0.000000 0.000000 0.000000 0.038194
#
#
# Mechanical properties :
#
#
# Convention : Reuss Voigt Hill
#
# Bulk Modulus (GPa) = 32.00616 37.95454 34.98035
# Shear Modulus (GPa) = 29.07255 32.20629 30.63942
#
# Velocity S-wave (km/s) = 3.73081 3.92674 3.83003
# Velocity P-wave (km/s) = 5.82083 6.22337 6.02546
#
# Compressibility (1/GPa) = 0.03124398
#
# Stress axis : x y z
#
# Youngs Moduli (GPa) = 47.55031 47.55313 89.75792
#
# Poissons Ratio (x) = 0.10832 0.39048
# Poissons Ratio (y) = 0.10831 0.39046
# Poissons Ratio (z) = 0.20686 0.20686
#
# Static dielectric constant tensor:
#      x y z
#    x 1.753300 0.000000 0.000000 
#    y 0.000000 1.753290 0.000000 
#    z 0.000000 0.000000 1.819940 
# 
# From -- ./inp_files/1520.got.cif
#   From: 2010.05.17/outbox.cif.g08.bks.cpg/sg116_1_cif.got.tgz:1520.got - 2010.05.20 11:11:43.
