data_PCOD9557649
_publ_section_title
;
Structure prediction by ZEFSAII (Michael W. Deem and Ramdas Pophale) SiO2 
 PCOD9557649
Probable space group: P -4 C 2
;
_chemical_formula_sum "Si O2"
_cell_formula_units_Z 48
_cell_length_a 12.339779
_cell_length_b 12.339779
_cell_length_c 17.261483
_cell_angle_alpha 90.000000
_cell_angle_beta 90.000000
_cell_angle_gamma 90.000000
_cell_volume 2628.408533
_symmetry_space_group_name_H-M "P -4 C 2"
_symmetry_group_IT_number 116
_symmetry_cell_setting 'tetragonal'
loop_
_space_group_symop_operation_xyz
x,y,z
y,-x,-z
-x,-y,z
-y,x,-z
y,x,1/2-z
-y,-x,1/2-z
-x,y,1/2+z
x,-y,1/2+z
loop_
_atom_site_type_symbol
_atom_site_label
_atom_site_fract_x
_atom_site_fract_y
_atom_site_fract_z
Si Si1 0.213021 0.001828 0.935269
Si Si2 0.383230 0.991874 0.300227
Si Si3 0.788319 0.637410 0.299802
Si Si4 0.767764 0.117327 0.087836
Si Si5 0.230315 0.386296 0.797931
Si Si6 0.837616 0.094497 0.662104
O O1 0.294278 0.996731 0.864289
O O2 0.114338 0.929262 0.902250
O O3 0.178598 0.125585 0.940564
O O4 0.264351 0.953714 0.013194
O O5 0.374713 0.096792 0.245169
O O6 0.500000 0.000000 0.338930
O O7 0.378019 0.877909 0.255485
O O8 0.693059 0.693059 0.250000
O O9 0.754956 0.513878 0.318698
O O10 0.825090 0.735866 0.356690
O O11 0.681542 0.198356 0.125409
O O12 0.801701 0.029705 0.153518
O O13 0.327485 0.327485 0.750000
O O14 0.878147 0.121854 0.750000
#
# Coordination Sequence:
#
# PCOD9557649 Si02
#       6
#     8   8   8   8   8   8
#     4  12  22  38  53  84 127 155 186 237 300 359
#     4  10  20  37  59  82 110 153 194 237 293 355
#     4  10  20  38  63  87 111 149 206 248 289 350
#     4  12  24  35  53  91 125 154 190 240 296 369
#     4  11  22  38  62  87 117 150 205 254 297 353
#     4  11  21  36  58  82 113 162 192 235 296 362
#
# _framework density 18.262001000000001
#
# number of rings (size 3 to 8) (size 9 to 14) (size 15 to 20)
#    0.000    1.000    8.333    0.500    0.000    1.000 
#    3.000    0.000    0.000    0.000    0.000    0.000 
#    0.000    0.000    0.000    0.000    0.000    0.000 
#
# Total GULP energy -267377.084616 kJ/mol
# GULP energy per Si atom -5570.355930 kJ/mol
# Density = 1.822044 g / cm^3
# Si number density = 18.262001 Si / 1000 Ang^3
#
#
#
# Elastic Constant Matrix: (Units=GPa)
#
#
# Indices 1 2 3 4 5 6 
#
# 1 75.7587 -4.9867 -1.7892 0.0000 0.0000 0.0000
# 2 -4.9867 75.7587 -1.7891 0.0000 0.0000 0.0000
# 3 -1.7892 -1.7891 45.9082 0.0000 0.0000 0.0000
# 4 0.0000 0.0000 0.0000 6.3510 0.0000 0.0000
# 5 0.0000 0.0000 0.0000 0.0000 6.3506 0.0000
# 6 0.0000 0.0000 0.0000 0.0000 0.0000 15.2636
#
#
#
# Elastic Compliance Matrix: (Units=1/GPa)
#
#
# Indices 1 2 3 4 5 6 
#
# 1 0.013271 0.000887 0.000552 0.000000 0.000000 0.000000
# 2 0.000887 0.013271 0.000552 0.000000 0.000000 0.000000
# 3 0.000552 0.000552 0.021826 0.000000 0.000000 0.000000
# 4 0.000000 0.000000 0.000000 0.157456 0.000000 0.000000
# 5 0.000000 0.000000 0.000000 0.000000 0.157465 0.000000
# 6 0.000000 0.000000 0.000000 0.000000 0.000000 0.065515
#
#
# Mechanical properties :
#
#
# Convention : Reuss Voigt Hill
#
# Bulk Modulus (GPa) = 19.10285 20.03285 19.56785
# Shear Modulus (GPa) = 11.30524 19.32576 15.31550
#
# Velocity S-wave (km/s) = 2.49079 3.25660 2.89909
# Velocity P-wave (km/s) = 4.33072 5.01340 4.68451
#
# Compressibility (1/GPa) = 0.05234820
#
# Stress axis : x y z
#
# Youngs Moduli (GPa) = 75.35116 75.35122 45.81777
#
# Poissons Ratio (x) = -0.06681 -0.02528
# Poissons Ratio (y) = -0.06681 -0.02528
# Poissons Ratio (z) = -0.04158 -0.04157
#
# Static dielectric constant tensor:
#      x y z
#    x 1.695250 0.000000 0.000000 
#    y 0.000000 1.695250 0.000000 
#    z 0.000000 0.000000 1.635940 
# 
# From -- ./inp_files/3374.got.cif
#   From: 2010.05.17/outbox.cif.g08.bks.cpg/sg116_2_cif.got.tgz:3374.got - 2010.05.20 11:11:43.
