data_PCOD9557585
_publ_section_title
;
Structure prediction by ZEFSAII (Michael W. Deem and Ramdas Pophale) SiO2 
 PCOD9557585
Probable space group: P -4 C 2
;
_chemical_formula_sum "Si O2"
_cell_formula_units_Z 32
_cell_length_a 9.917799
_cell_length_b 9.917799
_cell_length_c 13.038353
_cell_angle_alpha 90.000000
_cell_angle_beta 90.000000
_cell_angle_gamma 90.000000
_cell_volume 1282.488087
_symmetry_space_group_name_H-M "P -4 C 2"
_symmetry_group_IT_number 116
_symmetry_cell_setting 'tetragonal'
loop_
_space_group_symop_operation_xyz
x,y,z
y,-x,-z
-x,-y,z
-y,x,-z
y,x,1/2-z
-y,-x,1/2-z
-x,y,1/2+z
x,-y,1/2+z
loop_
_atom_site_type_symbol
_atom_site_label
_atom_site_fract_x
_atom_site_fract_y
_atom_site_fract_z
Si Si1 0.070924 0.783153 0.627413
Si Si2 0.089761 0.347053 0.322763
Si Si3 0.766686 0.153997 0.106293
Si Si4 0.301856 0.410959 0.498808
O O1 0.187014 0.890283 0.652217
O O2 0.107830 0.655181 0.700159
O O3 0.089396 0.755765 0.507514
O O4 0.921806 0.841119 0.642956
O O5 0.191875 0.408044 0.406734
O O6 0.928033 0.352064 0.336177
O O7 0.741510 0.312872 0.090341
O O8 0.341080 0.558609 0.536621
#
# Coordination Sequence:
#
# PCOD9557585 Si02
#       4
#     8   8   8   8
#     4  10  19  34  63 101 134 169 216 274 356 396
#     4  10  21  36  65  98 136 168 226 285 335 413
#     4  11  19  36  66  95 129 177 219 280 336 410
#     4  10  23  43  69  92 133 188 231 281 355 419
#
# _framework density 24.951499999999999
#
# number of rings (size 3 to 8) (size 9 to 14) (size 15 to 20)
#    0.000    1.750    5.000    1.500    0.000    3.000 
#    0.000    0.000   60.500   24.000    0.000    0.000 
#    0.000    0.000    0.000    0.000    0.000    0.000 
#
# Total GULP energy -178259.431483 kJ/mol
# GULP energy per Si atom -5570.607234 kJ/mol
# Density = 2.489471 g / cm^3
# Si number density = 24.951500 Si / 1000 Ang^3
#
#
#
# Elastic Constant Matrix: (Units=GPa)
#
#
# Indices 1 2 3 4 5 6 
#
# 1 83.5037 50.3989 -0.0745 0.0000 0.0000 0.0000
# 2 50.3989 83.5037 -0.0745 0.0000 0.0000 0.0000
# 3 -0.0745 -0.0745 88.7646 0.0000 0.0000 0.0000
# 4 0.0000 0.0000 0.0000 18.7791 0.0000 0.0000
# 5 0.0000 0.0000 0.0000 0.0000 18.7791 0.0000
# 6 0.0000 0.0000 0.0000 0.0000 0.0000 45.9980
#
#
#
# Elastic Compliance Matrix: (Units=1/GPa)
#
#
# Indices 1 2 3 4 5 6 
#
# 1 0.018838 -0.011369 0.000006 0.000000 0.000000 0.000000
# 2 -0.011369 0.018838 0.000006 0.000000 0.000000 0.000000
# 3 0.000006 0.000006 0.011266 0.000000 0.000000 0.000000
# 4 0.000000 0.000000 0.000000 0.053251 0.000000 0.000000
# 5 0.000000 0.000000 0.000000 0.000000 0.053251 0.000000
# 6 0.000000 0.000000 0.000000 0.000000 0.000000 0.021740
#
#
# Mechanical properties :
#
#
# Convention : Reuss Voigt Hill
#
# Bulk Modulus (GPa) = 38.12852 39.58575 38.85713
# Shear Modulus (GPa) = 23.96491 30.41273 27.18882
#
# Velocity S-wave (km/s) = 3.10249 3.49503 3.30459
# Velocity P-wave (km/s) = 5.30548 5.67331 5.49248
#
# Compressibility (1/GPa) = 0.02622708
#
# Stress axis : x y z
#
# Youngs Moduli (GPa) = 53.08540 53.08540 88.76456
#
# Poissons Ratio (x) = 0.60355 -0.00056
# Poissons Ratio (y) = 0.60355 -0.00056
# Poissons Ratio (z) = -0.00033 -0.00033
#
# Static dielectric constant tensor:
#      x y z
#    x 2.096170 0.000000 0.000000 
#    y 0.000000 2.096170 0.000000 
#    z 0.000000 0.000000 2.073650 
# 
# From -- ./inp_files/2412.got.cif
#   From: 2010.05.17/outbox.cif.g08.bks.cpg/sg116_2_cif.got.tgz:2412.got - 2010.05.20 11:11:43.
