data_PCOD9557034
_publ_section_title
;
Structure prediction by ZEFSAII (Michael W. Deem and Ramdas Pophale) SiO2 
 PCOD9557034
Probable space group: P -4 M 2
;
_chemical_formula_sum "Si O2"
_cell_formula_units_Z 60
_cell_length_a 15.082545
_cell_length_b 15.082545
_cell_length_c 13.904831
_cell_angle_alpha 90.000000
_cell_angle_beta 90.000000
_cell_angle_gamma 90.000000
_cell_volume 3163.114946
_symmetry_space_group_name_H-M "P -4 M 2"
_symmetry_group_IT_number 115
_symmetry_cell_setting 'tetragonal'
loop_
_space_group_symop_operation_xyz
x,y,z
y,-x,-z
-x,-y,z
-y,x,-z
y,x,-z
-y,-x,-z
-x,y,z
x,-y,z
loop_
_atom_site_type_symbol
_atom_site_label
_atom_site_fract_x
_atom_site_fract_y
_atom_site_fract_z
Si Si1 0.787973 0.600330 0.810621
Si Si2 0.397737 0.397737 0.500000
Si Si3 0.606626 0.897251 0.581850
Si Si4 0.780832 0.094634 0.875524
Si Si5 0.899451 0.746979 0.897200
Si Si6 0.782627 0.606744 0.598729
Si Si7 0.643665 0.602090 0.111949
Si Si8 0.399160 0.160496 0.794819
O O1 0.820299 0.500000 0.816321
O O2 0.839680 0.660193 0.885902
O O3 0.805720 0.639327 0.704661
O O4 0.682650 0.600020 0.829843
O O5 0.387615 0.500000 0.466095
O O6 0.321742 0.380740 0.578003
O O7 0.500000 0.902488 0.570810
O O8 0.640677 0.843004 0.489049
O O9 0.619463 0.841721 0.680098
O O10 0.638170 0.000000 0.589370
O O11 0.844537 0.174653 0.846592
O O12 0.681275 0.105629 0.838130
O O13 0.817851 0.000000 0.844714
O O14 0.771924 0.095557 0.990804
O O15 0.000000 0.735218 0.861788
O O16 0.794251 0.500000 0.602073
O O17 0.612241 0.500000 0.124545
O O18 0.744809 0.603444 0.151027
O O19 0.628754 0.628754 0.000000
O O20 0.500000 0.125446 0.806938
#
# Coordination Sequence:
#
# PCOD9557034 Si02
#       8
#     8   4   8   8   8   8   8   8
#     4  11  23  38  56  83 116 154 200 245 293 351
#     4   9  18  32  50  74 108 148 192 243 290 336
#     4   9  18  34  55  80 111 146 188 240 296 352
#     4  10  20  36  59  84 112 144 182 234 293 353
#     4  10  22  39  57  80 111 146 189 239 292 352
#     4   9  20  34  51  76 106 146 193 238 289 345
#     4  11  23  38  57  82 118 165 208 248 296 356
#     4  10  20  34  57  87 118 151 187 238 296 351
#
# _framework density 18.968644000000001
#
# number of rings (size 3 to 8) (size 9 to 14) (size 15 to 20)
#    0.000    2.067    1.333    1.600    1.867    4.933 
#    0.000    5.333    0.000    0.000    0.000    0.000 
#    0.000    0.000    0.000    2.933    0.000    0.267 
#
# Total GULP energy -334284.098271 kJ/mol
# GULP energy per Si atom -5571.401638 kJ/mol
# Density = 1.892547 g / cm^3
# Si number density = 18.968644 Si / 1000 Ang^3
#
#
#
# Elastic Constant Matrix: (Units=GPa)
#
#
# Indices 1 2 3 4 5 6 
#
# 1 82.9845 35.1365 17.9521 0.0000 0.0000 0.0000
# 2 35.1365 82.9845 17.9521 0.0000 0.0000 0.0000
# 3 17.9521 17.9521 54.4491 0.0000 0.0000 0.0000
# 4 0.0000 0.0000 0.0000 7.6200 0.0000 0.0000
# 5 0.0000 0.0000 0.0000 0.0000 7.6200 0.0000
# 6 0.0000 0.0000 0.0000 0.0000 0.0000 2.6156
#
#
#
# Elastic Compliance Matrix: (Units=1/GPa)
#
#
# Indices 1 2 3 4 5 6 
#
# 1 0.015154 -0.005745 -0.003102 0.000000 0.000000 0.000000
# 2 -0.005745 0.015154 -0.003102 0.000000 0.000000 0.000000
# 3 -0.003102 -0.003102 0.020411 0.000000 0.000000 0.000000
# 4 0.000000 0.000000 0.000000 0.131233 0.000000 0.000000
# 5 0.000000 0.000000 0.000000 0.000000 0.131233 0.000000
# 6 0.000000 0.000000 0.000000 0.000000 0.000000 0.382327
#
#
# Mechanical properties :
#
#
# Convention : Reuss Voigt Hill
#
# Bulk Modulus (GPa) = 37.28492 40.27771 38.78132
# Shear Modulus (GPa) = 6.86480 13.52961 10.19720
#
# Velocity S-wave (km/s) = 1.90444 2.67359 2.32110
# Velocity P-wave (km/s) = 4.95324 5.55074 5.26048
#
# Compressibility (1/GPa) = 0.02682049
#
# Stress axis : x y z
#
# Youngs Moduli (GPa) = 65.98840 65.98840 48.99234
#
# Poissons Ratio (x) = 0.37913 0.15198
# Poissons Ratio (y) = 0.37913 0.15198
# Poissons Ratio (z) = 0.20470 0.20470
#
# Static dielectric constant tensor:
#      x y z
#    x 1.671980 0.000000 0.000000 
#    y 0.000000 1.671980 0.000000 
#    z 0.000000 0.000000 1.681850 
# 
# From -- ./inp_files/3907.got.cif
#   From: 2010.05.17/outbox.cif.g08.bks.cpg/sg115_2_cif.got.tgz:3907.got - 2010.05.20 11:07:42.
