data_PCOD9557263
_publ_section_title
;
Structure prediction by ZEFSAII (Michael W. Deem and Ramdas Pophale) SiO2 
 PCOD9557263
Probable space group: P -4 M 2
;
_chemical_formula_sum "Si O2"
_cell_formula_units_Z 48
_cell_length_a 9.288363
_cell_length_b 9.288363
_cell_length_c 31.500465
_cell_angle_alpha 90.000000
_cell_angle_beta 90.000000
_cell_angle_gamma 90.000000
_cell_volume 2717.661265
_symmetry_space_group_name_H-M "P -4 M 2"
_symmetry_group_IT_number 115
_symmetry_cell_setting 'tetragonal'
loop_
_space_group_symop_operation_xyz
x,y,z
y,-x,-z
-x,-y,z
-y,x,-z
y,x,-z
-y,-x,-z
-x,y,z
x,-y,z
loop_
_atom_site_type_symbol
_atom_site_label
_atom_site_fract_x
_atom_site_fract_y
_atom_site_fract_z
Si Si1 0.671488 0.829390 0.961683
Si Si2 0.331536 0.672625 0.375801
Si Si3 0.672051 0.829729 0.711093
Si Si4 0.670474 0.329264 0.874827
Si Si5 0.172880 0.169065 0.548453
Si Si6 0.829117 0.671321 0.787816
O O1 0.500000 0.804189 0.967456
O O2 0.712273 0.758265 0.916714
O O3 0.696122 0.000000 0.960725
O O4 0.756254 0.756254 0.000000
O O5 0.500000 0.707612 0.371464
O O6 0.318008 0.500000 0.380683
O O7 0.246774 0.713582 0.333006
O O8 0.263060 0.749407 0.416339
O O9 0.500000 0.808679 0.716895
O O10 0.755144 0.758388 0.750065
O O11 0.699765 0.000000 0.708658
O O12 0.500000 0.305886 0.866956
O O13 0.691299 0.500000 0.882636
O O14 0.759195 0.288880 0.833036
O O15 0.210553 0.210553 0.500000
O O16 0.000000 0.181804 0.552272
O O17 0.209150 0.000000 0.554187
O O18 0.802837 0.500000 0.781622
O O19 0.000000 0.694889 0.788461
#
# Coordination Sequence:
#
# PCOD9557263 Si02
#       6
#     8   8   8   8   8   8
#     4  10  21  36  55  80 109 141 178 220 265 314
#     4  10  21  36  55  80 108 138 175 220 267 314
#     4  10  21  37  57  79 104 139 181 221 263 313
#     4   9  18  34  56  79 105 141 182 221 261 309
#     4   9  19  36  56  78 106 141 179 217 260 313
#     4  10  21  36  55  81 111 141 174 215 264 316
#
# _framework density 17.662244999999999
#
# number of rings (size 3 to 8) (size 9 to 14) (size 15 to 20)
#    0.000    2.333    0.000    2.500    0.000    7.000 
#    0.000    5.833    0.000    0.000    0.000    0.000 
#    0.000    0.000    0.000    0.000    0.000    0.000 
#
# Total GULP energy -268000.993978 kJ/mol
# GULP energy per Si atom -5583.354041 kJ/mol
# Density = 1.762204 g / cm^3
# Si number density = 17.662245 Si / 1000 Ang^3
#
#
#
# Elastic Constant Matrix: (Units=GPa)
#
#
# Indices 1 2 3 4 5 6 
#
# 1 75.6742 69.7964 103.0321 0.0000 0.0000 0.0000
# 2 69.7964 75.6742 103.0321 0.0000 0.0000 0.0000
# 3 103.0321 103.0321 207.6362 0.0000 0.0000 0.0000
# 4 0.0000 0.0000 0.0000 229.1712 0.0000 0.0000
# 5 0.0000 0.0000 0.0000 0.0000 229.1712 0.0000
# 6 0.0000 0.0000 0.0000 0.0000 0.0000 27.7960
#
#
#
# Elastic Compliance Matrix: (Units=1/GPa)
#
#
# Indices 1 2 3 4 5 6 
#
# 1 0.096634 -0.073496 -0.011482 0.000000 0.000000 0.000000
# 2 -0.073496 0.096634 -0.011482 0.000000 0.000000 0.000000
# 3 -0.011482 -0.011482 0.016211 0.000000 0.000000 0.000000
# 4 0.000000 0.000000 0.000000 0.004364 0.000000 0.000000
# 5 0.000000 0.000000 0.000000 0.000000 0.004364 0.000000
# 6 0.000000 0.000000 0.000000 0.000000 0.000000 0.035976
#
#
# Mechanical properties :
#
#
# Convention : Reuss Voigt Hill
#
# Bulk Modulus (GPa) = 60.38259 101.18953 80.78606
# Shear Modulus (GPa) = 11.04678 102.76928 56.90803
#
# Velocity S-wave (km/s) = 2.50360 7.63624 5.68244
# Velocity P-wave (km/s) = 6.52832 11.62606 9.42826
#
# Compressibility (1/GPa) = 0.01656107
#
# Stress axis : x y z
#
# Youngs Moduli (GPa) = 10.34831 10.34831 61.68766
#
# Poissons Ratio (x) = 0.76056 0.70827
# Poissons Ratio (y) = 0.76056 0.70827
# Poissons Ratio (z) = 0.11881 0.11881
#
# Static dielectric constant tensor:
#      x y z
#    x 1.586730 0.000000 0.000000 
#    y 0.000000 1.586730 0.000000 
#    z 0.000000 0.000000 1.566410 
# 
# From -- ./inp_files/5921.got.cif
#   From: 2010.05.17/outbox.cif.g08.bks.cpg/sg115_3_cif.got.tgz:5921.got - 2010.05.20 11:07:42.
