data_PCOD9557500
_publ_section_title
;
Structure prediction by ZEFSAII (Michael W. Deem and Ramdas Pophale) SiO2 
 PCOD9557500
Probable space group: P -4 M 2
;
_chemical_formula_sum "Si O2"
_cell_formula_units_Z 44
_cell_length_a 9.000000
_cell_length_b 9.000000
_cell_length_c 30.000000
_cell_angle_alpha 90.000000
_cell_angle_beta 90.000000
_cell_angle_gamma 90.000000
_cell_volume 2430.000000
_symmetry_space_group_name_H-M "P -4 M 2"
_symmetry_group_IT_number 115
_symmetry_cell_setting 'tetragonal'
loop_
_space_group_symop_operation_xyz
x,y,z
y,-x,-z
-x,-y,z
-y,x,-z
y,x,-z
-y,-x,-z
-x,y,z
x,-y,z
loop_
_atom_site_type_symbol
_atom_site_label
_atom_site_fract_x
_atom_site_fract_y
_atom_site_fract_z
Si Si1 0.679427 0.673865 0.219963
Si Si2 0.323434 0.175950 0.957278
Si Si3 0.672884 0.680985 0.318028
Si Si4 0.676079 0.177262 0.591194
Si Si5 0.176539 0.824326 0.134942
Si Si6 0.176875 0.823126 0.500000
O O1 0.500000 0.681442 0.219858
O O2 0.720630 0.500000 0.215352
O O3 0.729485 0.728260 0.269155
O O4 0.744260 0.762547 0.178689
O O5 0.500000 0.193790 0.955400
O O6 0.253123 0.228944 0.910674
O O7 0.289276 0.000000 0.961498
O O8 0.257987 0.257987 0.000000
O O9 0.500000 0.721362 0.321589
O O10 0.680746 0.500000 0.317276
O O11 0.755559 0.732888 0.362353
O O12 0.500000 0.207250 0.588418
O O13 0.750962 0.233307 0.545792
O O14 0.697088 0.000000 0.593023
O O15 0.000000 0.794691 0.139060
O O16 0.198691 0.000000 0.131069
O O17 0.000000 0.797689 0.502547
#
# Coordination Sequence:
#
# PCOD9557500 Si02
#       6
#     8   8   8   8   8   4
#     4   9  18  33  53  76 102 133 168 206 249 297
#     4  10  21  37  57  80 105 135 171 209 251 298
#     4   8  15  29  48  70  96 124 155 194 240 287
#     4   9  17  29  46  68  91 117 154 196 234 278
#     4  10  21  36  54  77 105 137 172 209 249 294
#     4   9  18  32  46  61  88 124 154 185 234 288
#
# _framework density 18.106995999999999
#
# number of rings (size 3 to 8) (size 9 to 14) (size 15 to 20)
#    0.000    2.818    0.000    2.182    0.000    4.727 
#    0.000    2.727    0.000    3.273    0.000    0.000 
#    0.000    0.000    0.000    0.000    0.000    0.000 
#
# Total GULP energy -245262.358245 kJ/mol
# GULP energy per Si atom -5574.144506 kJ/mol
# Density = 1.806578 g / cm^3
# Si number density = 18.106996 Si / 1000 Ang^3
#
#
#
# Elastic Constant Matrix: (Units=GPa)
#
#
# Indices 1 2 3 4 5 6 
#
# 1 9.5488 33.9484 51.7036 0.0000 0.0000 0.0000
# 2 33.9484 9.5492 51.7037 0.0000 0.0000 0.0000
# 3 51.7036 51.7037 215.6342 0.0000 0.0000 0.0000
# 4 0.0000 0.0000 0.0000 42.3174 0.0000 0.0000
# 5 0.0000 0.0000 0.0000 0.0000 42.3174 0.0000
# 6 0.0000 0.0000 0.0000 0.0000 0.0000 19.4398
#
#
#
# Elastic Compliance Matrix: (Units=1/GPa)
#
#
# Indices 1 2 3 4 5 6 
#
# 1 0.006241 0.047226 -0.012820 0.000000 0.000000 0.000000
# 2 0.047226 0.006242 -0.012820 0.000000 0.000000 0.000000
# 3 -0.012820 -0.012820 0.010785 0.000000 0.000000 0.000000
# 4 0.000000 0.000000 0.000000 0.023631 0.000000 0.000000
# 5 0.000000 0.000000 0.000000 0.000000 0.023631 0.000000
# 6 0.000000 0.000000 0.000000 0.000000 0.000000 0.051441
#
#
# Mechanical properties :
#
#
# Convention : Reuss Voigt Hill
#
# Bulk Modulus (GPa) = 15.05124 56.60486 35.82805
# Shear Modulus (GPa) = 49.53141 27.30669 38.41905
#
# Velocity S-wave (km/s) = 5.23586 3.88761 4.61127
# Velocity P-wave (km/s) = 6.69946 7.17499 6.94130
#
# Compressibility (1/GPa) = 0.06643971
#
# Stress axis : x y z
#
# Youngs Moduli (GPa) = 160.22789 160.21107 92.71812
#
# Poissons Ratio (x) = -7.56613 1.18865
# Poissons Ratio (y) = -7.56693 1.18867
# Poissons Ratio (z) = 2.05413 2.05394
#
# Static dielectric constant tensor:
#      x y z
#    x 1.612900 0.000000 0.000000 
#    y 0.000000 1.612900 0.000000 
#    z 0.000000 0.000000 1.621160 
# 
# From -- ./inp_files/5714.got.cif
#   From: 2010.05.17/outbox.ucp.g08.bks.cvg/sg115_3_cif.got.tgz:5714.got - 2010.06.11 11:33:38.
