data_PCOD9557819
_publ_section_title
;
Structure prediction by ZEFSAII (Michael W. Deem and Ramdas Pophale) SiO2 
 PCOD9557819
Probable space group: P -4 C 2
;
_chemical_formula_sum "Si O2"
_cell_formula_units_Z 58
_cell_length_a 16.536838
_cell_length_b 16.536838
_cell_length_c 8.812720
_cell_angle_alpha 90.000000
_cell_angle_beta 90.000000
_cell_angle_gamma 90.000000
_cell_volume 2409.988198
_symmetry_space_group_name_H-M "P -4 C 2"
_symmetry_group_IT_number 116
_symmetry_cell_setting 'tetragonal'
loop_
_space_group_symop_operation_xyz
x,y,z
y,-x,-z
-x,-y,z
-y,x,-z
y,x,1/2-z
-y,-x,1/2-z
-x,y,1/2+z
x,-y,1/2+z
loop_
_atom_site_type_symbol
_atom_site_label
_atom_site_fract_x
_atom_site_fract_y
_atom_site_fract_z
Si Si1 0.451699 0.341821 0.349328
Si Si2 0.656246 0.685072 0.926245
Si Si3 0.211134 0.791014 0.927301
Si Si4 0.067384 0.899740 0.927050
Si Si5 0.642896 0.902965 0.441172
Si Si6 0.203221 0.507882 0.043023
Si Si7 0.500000 0.500000 0.000000
Si Si8 0.947599 0.581799 0.393136
O O1 0.382220 0.382220 0.250000
O O2 0.401027 0.322758 0.500186
O O3 0.479989 0.251522 0.299871
O O4 0.505374 0.420233 0.395075
O O5 0.666409 0.666409 0.750000
O O6 0.570082 0.721058 0.985341
O O7 0.718817 0.754128 0.974418
O O8 0.226717 0.773284 0.750000
O O9 0.119581 0.818954 0.952057
O O10 0.269333 0.866465 0.958075
O O11 0.077625 0.922376 0.750000
O O12 0.974156 0.896212 0.975317
O O13 0.576250 0.839899 0.507471
O O14 0.616550 0.915503 0.265527
O O15 0.637967 0.987538 0.526047
O O16 0.125127 0.563571 0.010951
O O17 0.000000 0.500000 0.361097
#
# Coordination Sequence:
#
# PCOD9557819 Si02
#       8
#     8   8   8   8   8   8   2   8
#     4  12  27  45  69  96 134 184 232 299 354 418
#     4  12  28  43  64 102 134 174 240 286 353 409
#     4  11  25  46  70 103 139 184 227 283 353 420
#     4  10  22  42  71 103 140 182 229 275 344 422
#     4  11  24  43  70  99 141 178 231 278 352 412
#     4  11  25  42  72  92 138 183 231 290 346 417
#     4  12  26  44  68 106 130 180 248 302 350 420
#     4  10  23  43  66 102 131 181 230 282 339 424
#
# _framework density 24.066507000000001
#
# number of rings (size 3 to 8) (size 9 to 14) (size 15 to 20)
#    0.000    0.966    2.759    3.517    5.793    5.517 
#    0.000    0.000    0.000    0.000    0.000    0.000 
#    0.000    0.000    0.000    0.000    0.000    0.000 
#
# Total GULP energy -323154.555717 kJ/mol
# GULP energy per Si atom -5571.630271 kJ/mol
# Density = 2.401173 g / cm^3
# Si number density = 24.066507 Si / 1000 Ang^3
#
#
#
# Elastic Constant Matrix: (Units=GPa)
#
#
# Indices 1 2 3 4 5 6 
#
# 1 83.3848 12.0169 13.5014 0.0000 0.0000 0.0000
# 2 12.0169 83.3844 13.5009 0.0000 0.0000 0.0000
# 3 13.5014 13.5009 75.8688 0.0000 0.0000 0.0000
# 4 0.0000 0.0000 0.0000 17.3740 0.0000 0.0000
# 5 0.0000 0.0000 0.0000 0.0000 17.3736 0.0000
# 6 0.0000 0.0000 0.0000 0.0000 0.0000 46.6771
#
#
#
# Elastic Compliance Matrix: (Units=1/GPa)
#
#
# Indices 1 2 3 4 5 6 
#
# 1 0.012525 -0.001487 -0.001964 0.000000 0.000000 0.000000
# 2 -0.001487 0.012525 -0.001964 0.000000 0.000000 0.000000
# 3 -0.001964 -0.001964 0.013880 0.000000 0.000000 0.000000
# 4 0.000000 0.000000 0.000000 0.057557 0.000000 0.000000
# 5 0.000000 0.000000 0.000000 0.000000 0.057559 0.000000
# 6 0.000000 0.000000 0.000000 0.000000 0.000000 0.021424
#
#
# Mechanical properties :
#
#
# Convention : Reuss Voigt Hill
#
# Bulk Modulus (GPa) = 35.58884 35.63070 35.60977
# Shear Modulus (GPa) = 25.55366 29.85952 27.70659
#
# Velocity S-wave (km/s) = 3.26205 3.52619 3.39669
# Velocity P-wave (km/s) = 5.38589 5.60499 5.49653
#
# Compressibility (1/GPa) = 0.02809869
#
# Stress axis : x y z
#
# Youngs Moduli (GPa) = 79.84069 79.84053 72.04745
#
# Poissons Ratio (x) = 0.11872 0.14152
# Poissons Ratio (y) = 0.11872 0.14152
# Poissons Ratio (z) = 0.15683 0.15682
#
# Static dielectric constant tensor:
#      x y z
#    x 2.016220 0.000000 0.000000 
#    y 0.000000 2.016220 0.000000 
#    z 0.000000 0.000000 2.316100 
# 
# From -- ./inp_files/1059.got.cif
#   From: 2010.05.17/outbox.cif.g08.bks.cpg/sg116_1_cif.got.tgz:1059.got - 2010.05.20 11:11:43.
