data_PCOD9557006
_publ_section_title
;
Structure prediction by ZEFSAII (Michael W. Deem and Ramdas Pophale) SiO2 
 PCOD9557006
Probable space group: P -4 M 2
;
_chemical_formula_sum "Si O2"
_cell_formula_units_Z 40
_cell_length_a 8.018552
_cell_length_b 8.018552
_cell_length_c 30.575629
_cell_angle_alpha 90.000000
_cell_angle_beta 90.000000
_cell_angle_gamma 90.000000
_cell_volume 1965.926605
_symmetry_space_group_name_H-M "P -4 M 2"
_symmetry_group_IT_number 115
_symmetry_cell_setting 'tetragonal'
loop_
_space_group_symop_operation_xyz
x,y,z
y,-x,-z
-x,-y,z
-y,x,-z
y,x,-z
-y,-x,-z
-x,y,z
x,-y,z
loop_
_atom_site_type_symbol
_atom_site_label
_atom_site_fract_x
_atom_site_fract_y
_atom_site_fract_z
Si Si1 0.301329 0.685654 0.859930
Si Si2 0.702722 0.309750 0.449896
Si Si3 0.200493 0.189277 0.046272
Si Si4 0.309692 0.802436 0.765529
Si Si5 0.298046 0.000000 0.391750
Si Si6 0.201736 0.000000 0.290800
O O1 0.500000 0.677015 0.856270
O O2 0.229534 0.500000 0.859209
O O3 0.268695 0.761820 0.907304
O O4 0.249279 0.777876 0.815664
O O5 0.740076 0.259925 0.500000
O O6 0.500000 0.315804 0.447670
O O7 0.762268 0.500000 0.441701
O O8 0.760758 0.167395 0.416689
O O9 0.000000 0.185768 0.041511
O O10 0.263400 0.000000 0.049482
O O11 0.263890 0.263890 0.000000
O O12 0.500000 0.734399 0.760295
O O13 0.167832 0.734765 0.733255
O O14 0.321728 0.000000 0.758046
O O15 0.246029 0.000000 0.341529
O O16 0.500000 0.000000 0.393982
O O17 0.000000 0.000000 0.286469
#
# Coordination Sequence:
#
# PCOD9557006 Si02
#       6
#     8   8   8   8   4   4
#     4  10  21  35  52  78 107 132 168 220 273 326
#     4   8  15  31  54  78 109 148 187 229 275 328
#     4   9  19  35  53  74 102 137 176 214 256 316
#     4   9  19  37  58  76 101 143 186 225 275 335
#     4  10  20  34  54  82 112 144 188 230 276 339
#     4  10  22  38  54  78 112 142 180 230 280 329
#
# _framework density 20.346639
#
# number of rings (size 3 to 8) (size 9 to 14) (size 15 to 20)
#    0.000    2.800    0.000    1.800    1.400    4.000 
#    1.800    3.000    0.000    0.000    0.000    0.000 
#    0.000    0.000    0.000    0.000    0.000    0.000 
#
# Total GULP energy -222865.060159 kJ/mol
# GULP energy per Si atom -5571.626504 kJ/mol
# Density = 2.030033 g / cm^3
# Si number density = 20.346639 Si / 1000 Ang^3
#
#
#
# Elastic Constant Matrix: (Units=GPa)
#
#
# Indices 1 2 3 4 5 6 
#
# 1 50.4083 25.4202 54.9493 0.0000 0.0000 0.0000
# 2 25.4202 50.4085 54.9494 0.0000 0.0000 0.0000
# 3 54.9493 54.9494 191.2102 0.0000 0.0000 0.0000
# 4 0.0000 0.0000 0.0000 40.3143 0.0000 0.0000
# 5 0.0000 0.0000 0.0000 0.0000 40.3143 0.0000
# 6 0.0000 0.0000 0.0000 0.0000 0.0000 6.7868
#
#
#
# Elastic Compliance Matrix: (Units=1/GPa)
#
#
# Indices 1 2 3 4 5 6 
#
# 1 0.031310 -0.008709 -0.006495 0.000000 0.000000 0.000000
# 2 -0.008709 0.031310 -0.006495 0.000000 0.000000 0.000000
# 3 -0.006495 -0.006495 0.008963 0.000000 0.000000 0.000000
# 4 0.000000 0.000000 0.000000 0.024805 0.000000 0.000000
# 5 0.000000 0.000000 0.000000 0.000000 0.024805 0.000000
# 6 0.000000 0.000000 0.000000 0.000000 0.000000 0.147346
#
#
# Mechanical properties :
#
#
# Convention : Reuss Voigt Hill
#
# Bulk Modulus (GPa) = 35.48029 62.51830 48.99929
# Shear Modulus (GPa) = 15.56027 27.93027 21.74527
#
# Velocity S-wave (km/s) = 2.76843 3.70905 3.27271
# Velocity P-wave (km/s) = 5.26257 7.00971 6.19801
#
# Compressibility (1/GPa) = 0.02818466
#
# Stress axis : x y z
#
# Youngs Moduli (GPa) = 31.93876 31.93888 111.57183
#
# Poissons Ratio (x) = 0.27816 0.72465
# Poissons Ratio (y) = 0.27816 0.72465
# Poissons Ratio (z) = 0.20744 0.20744
#
# Static dielectric constant tensor:
#      x y z
#    x 1.752780 0.000000 0.000000 
#    y 0.000000 1.752780 0.000000 
#    z 0.000000 0.000000 1.720900 
# 
# From -- ./inp_files/5498.got.cif
#   From: 2010.05.17/outbox.cif.g08.bks.cpg/sg115_3_cif.got.tgz:5498.got - 2010.05.20 11:07:42.
