data_PCOD9557388
_publ_section_title
;
Structure prediction by ZEFSAII (Michael W. Deem and Ramdas Pophale) SiO2 
 PCOD9557388
Probable space group: P -4 M 2
;
_chemical_formula_sum "Si O2"
_cell_formula_units_Z 56
_cell_length_a 15.307724
_cell_length_b 15.307724
_cell_length_c 11.488919
_cell_angle_alpha 90.000000
_cell_angle_beta 90.000000
_cell_angle_gamma 90.000000
_cell_volume 2692.157191
_symmetry_space_group_name_H-M "P -4 M 2"
_symmetry_group_IT_number 115
_symmetry_cell_setting 'tetragonal'
loop_
_space_group_symop_operation_xyz
x,y,z
y,-x,-z
-x,-y,z
-y,x,-z
y,x,-z
-y,-x,-z
-x,y,z
x,-y,z
loop_
_atom_site_type_symbol
_atom_site_label
_atom_site_fract_x
_atom_site_fract_y
_atom_site_fract_z
Si Si1 0.402366 0.667394 0.123677
Si Si2 0.102671 0.402486 0.541574
Si Si3 0.597213 0.353308 0.628625
Si Si4 0.103900 0.601748 0.142014
Si Si5 0.751318 0.098153 0.302383
Si Si6 0.188889 0.712823 0.346415
Si Si7 0.710522 0.168362 0.069524
O O1 0.500000 0.702446 0.113294
O O2 0.398775 0.612282 0.244593
O O3 0.334458 0.747072 0.129157
O O4 0.380921 0.619079 0.000000
O O5 0.142734 0.500000 0.537297
O O6 0.115178 0.349506 0.660014
O O7 0.133463 0.332823 0.447033
O O8 0.000000 0.413066 0.524040
O O9 0.601553 0.398448 0.500000
O O10 0.500000 0.313821 0.635303
O O11 0.675156 0.284465 0.628705
O O12 0.131082 0.500000 0.156083
O O13 0.153440 0.666454 0.229939
O O14 0.000000 0.605800 0.163004
O O15 0.126501 0.638971 0.015226
O O16 0.807505 0.182227 0.343227
O O17 0.747744 0.103221 0.164133
O O18 0.775664 0.000000 0.342777
O O19 0.791194 0.208807 0.000000
#
# Coordination Sequence:
#
# PCOD9557388 Si02
#       7
#     8   8   8   8   8   8   8
#     4  11  23  39  60  85 122 170 220 271 328 397
#     4  10  22  39  64  98 131 167 212 266 331 400
#     4  12  25  40  60  89 129 178 229 277 324 394
#     4  11  23  39  65  99 131 168 217 279 347 412
#     4  11  23  41  65  93 127 169 218 271 331 397
#     4  12  22  41  63  91 129 169 215 268 337 407
#     4  11  21  41  62  91 126 167 221 273 336 405
#
# _framework density 20.801161
#
# number of rings (size 3 to 8) (size 9 to 14) (size 15 to 20)
#    0.000    0.857    2.857    5.571    0.000    4.000 
#    0.000    1.429    0.000    1.714    0.000    5.000 
#    0.000    0.000    0.000    0.000    0.000    0.000 
#
# Total GULP energy -312315.317504 kJ/mol
# GULP energy per Si atom -5577.059241 kJ/mol
# Density = 2.075382 g / cm^3
# Si number density = 20.801161 Si / 1000 Ang^3
#
#
#
# Elastic Constant Matrix: (Units=GPa)
#
#
# Indices 1 2 3 4 5 6 
#
# 1 97.5425 30.7679 30.3220 0.0000 0.0000 0.0000
# 2 30.7679 97.5431 30.3205 0.0000 0.0000 0.0000
# 3 30.3220 30.3205 109.0360 0.0000 0.0000 0.0000
# 4 0.0000 0.0000 0.0000 10.8234 0.0000 0.0000
# 5 0.0000 0.0000 0.0000 0.0000 10.8222 0.0000
# 6 0.0000 0.0000 0.0000 0.0000 0.0000 24.0319
#
#
#
# Elastic Compliance Matrix: (Units=1/GPa)
#
#
# Indices 1 2 3 4 5 6 
#
# 1 0.011974 -0.003001 -0.002495 0.000000 0.000000 0.000000
# 2 -0.003001 0.011974 -0.002495 0.000000 0.000000 0.000000
# 3 -0.002495 -0.002495 0.010559 0.000000 0.000000 0.000000
# 4 0.000000 0.000000 0.000000 0.092393 0.000000 0.000000
# 5 0.000000 0.000000 0.000000 0.000000 0.092402 0.000000
# 6 0.000000 0.000000 0.000000 0.000000 0.000000 0.041611
#
#
# Mechanical properties :
#
#
# Convention : Reuss Voigt Hill
#
# Bulk Modulus (GPa) = 53.98424 54.10471 54.04448
# Shear Modulus (GPa) = 17.66331 23.31625 20.48978
#
# Velocity S-wave (km/s) = 2.91718 3.35163 3.14192
# Velocity P-wave (km/s) = 6.11191 6.40662 6.26100
#
# Compressibility (1/GPa) = 0.01852392
#
# Stress axis : x y z
#
# Youngs Moduli (GPa) = 83.51170 83.51302 94.70557
#
# Poissons Ratio (x) = 0.25066 0.23632
# Poissons Ratio (y) = 0.25065 0.23630
# Poissons Ratio (z) = 0.20839 0.20837
#
# Static dielectric constant tensor:
#      x y z
#    x 1.751590 0.000000 0.000000 
#    y 0.000000 1.751590 0.000000 
#    z 0.000000 0.000000 1.872860 
# 
# From -- ./inp_files/3052.got.cif
#   From: 2010.05.17/outbox.cif.g08.bks.cpg/sg115_2_cif.got.tgz:3052.got - 2010.05.20 11:07:42.
