data_PCOD9557758
_publ_section_title
;
Structure prediction by ZEFSAII (Michael W. Deem and Ramdas Pophale) SiO2 
 PCOD9557758
Probable space group: P -4 C 2
;
_chemical_formula_sum "Si O2"
_cell_formula_units_Z 34
_cell_length_a 9.345545
_cell_length_b 9.345545
_cell_length_c 19.729830
_cell_angle_alpha 90.000000
_cell_angle_beta 90.000000
_cell_angle_gamma 90.000000
_cell_volume 1723.187792
_symmetry_space_group_name_H-M "P -4 C 2"
_symmetry_group_IT_number 116
_symmetry_cell_setting 'tetragonal'
loop_
_space_group_symop_operation_xyz
x,y,z
y,-x,-z
-x,-y,z
-y,x,-z
y,x,1/2-z
-y,-x,1/2-z
-x,y,1/2+z
x,-y,1/2+z
loop_
_atom_site_type_symbol
_atom_site_label
_atom_site_fract_x
_atom_site_fract_y
_atom_site_fract_z
Si Si1 0.000000 0.000000 0.000000
Si Si2 0.459448 0.160724 0.451664
Si Si3 0.875298 0.294340 0.199238
Si Si4 0.772717 0.217582 0.448679
Si Si5 0.618346 0.199874 0.803734
O O1 0.127486 0.079783 0.960874
O O2 0.611154 0.218262 0.477625
O O3 0.349279 0.154080 0.513293
O O4 0.397249 0.239144 0.384373
O O5 0.500000 0.000000 0.427257
O O6 0.826364 0.173637 0.250000
O O7 0.789877 0.257298 0.130714
O O8 0.825819 0.454459 0.219767
O O9 0.046497 0.301649 0.193957
O O10 0.697028 0.302973 0.750000
#
# Coordination Sequence:
#
# PCOD9557758 Si02
#       5
#     2   8   8   8   8
#     4  12  20  36  66  96 116 180 224 262 356 392
#     4  11  21  44  65  93 136 169 222 284 334 399
#     4  10  22  41  58  92 131 160 219 271 320 391
#     4  11  23  39  66  93 131 172 218 284 335 401
#     4  10  21  42  66  86 127 178 207 270 334 388
#
# _framework density 19.730872999999999
#
# number of rings (size 3 to 8) (size 9 to 14) (size 15 to 20)
#    0.000    1.412    7.059    0.000    0.000    7.059 
#    4.235    4.706    0.000    0.000    0.000    0.000 
#    0.000    0.000    0.000    0.000    0.000    0.000 
#
# Total GULP energy -189298.559738 kJ/mol
# GULP energy per Si atom -5567.604698 kJ/mol
# Density = 1.968596 g / cm^3
# Si number density = 19.730873 Si / 1000 Ang^3
#
#
#
# Elastic Constant Matrix: (Units=GPa)
#
#
# Indices 1 2 3 4 5 6 
#
# 1 74.0016 30.1897 45.4752 0.0000 0.0000 0.0000
# 2 30.1897 74.0017 45.4762 0.0000 0.0000 0.0000
# 3 45.4752 45.4762 65.2317 0.0000 0.0000 0.0000
# 4 0.0000 0.0000 0.0000 18.7162 0.0000 0.0000
# 5 0.0000 0.0000 0.0000 0.0000 18.7159 0.0000
# 6 0.0000 0.0000 0.0000 0.0000 0.0000 27.7375
#
#
#
# Elastic Compliance Matrix: (Units=1/GPa)
#
#
# Indices 1 2 3 4 5 6 
#
# 1 0.023671 0.000847 -0.017092 0.000000 0.000000 0.000000
# 2 0.000847 0.023672 -0.017093 0.000000 0.000000 0.000000
# 3 -0.017092 -0.017093 0.039162 0.000000 0.000000 0.000000
# 4 0.000000 0.000000 0.000000 0.053430 0.000000 0.000000
# 5 0.000000 0.000000 0.000000 0.000000 0.053430 0.000000
# 6 0.000000 0.000000 0.000000 0.000000 0.000000 0.036052
#
#
# Mechanical properties :
#
#
# Convention : Reuss Voigt Hill
#
# Bulk Modulus (GPa) = 50.43416 50.61302 50.52359
# Shear Modulus (GPa) = 16.51776 19.17355 17.84565
#
# Velocity S-wave (km/s) = 2.89650 3.12068 3.01068
# Velocity P-wave (km/s) = 6.06653 6.22031 6.14390
#
# Compressibility (1/GPa) = 0.01982783
#
# Stress axis : x y z
#
# Youngs Moduli (GPa) = 42.24527 42.24398 25.53485
#
# Poissons Ratio (x) = -0.03577 0.43645
# Poissons Ratio (y) = -0.03578 0.43647
# Poissons Ratio (z) = 0.72207 0.72209
#
# Static dielectric constant tensor:
#      x y z
#    x 1.767050 0.000000 0.000000 
#    y 0.000000 1.767050 0.000000 
#    z 0.000000 0.000000 1.702010 
# 
# From -- ./inp_files/3888.got.cif
#   From: 2010.05.17/outbox.cif.g08.bks.cpg/sg116_2_cif.got.tgz:3888.got - 2010.05.20 11:11:43.
