data_PCOD9557230
_publ_section_title
;
Structure prediction by ZEFSAII (Michael W. Deem and Ramdas Pophale) SiO2 
 PCOD9557230
Probable space group: P -4 M 2
;
_chemical_formula_sum "Si O2"
_cell_formula_units_Z 48
_cell_length_a 9.322186
_cell_length_b 9.322186
_cell_length_c 32.124012
_cell_angle_alpha 90.000000
_cell_angle_beta 90.000000
_cell_angle_gamma 90.000000
_cell_volume 2791.677892
_symmetry_space_group_name_H-M "P -4 M 2"
_symmetry_group_IT_number 115
_symmetry_cell_setting 'tetragonal'
loop_
_space_group_symop_operation_xyz
x,y,z
y,-x,-z
-x,-y,z
-y,x,-z
y,x,-z
-y,-x,-z
-x,y,z
x,-y,z
loop_
_atom_site_type_symbol
_atom_site_label
_atom_site_fract_x
_atom_site_fract_y
_atom_site_fract_z
Si Si1 0.174992 0.834075 0.954042
Si Si2 0.829022 0.670051 0.537312
Si Si3 0.830076 0.170766 0.377492
Si Si4 0.174719 0.334939 0.294194
Si Si5 0.664806 0.174947 0.127648
Si Si6 0.171100 0.829417 0.211059
O O1 0.222928 0.741483 0.914800
O O2 0.000000 0.833173 0.954749
O O3 0.218586 0.000000 0.948717
O O4 0.218833 0.781168 0.000000
O O5 0.743287 0.743287 0.500000
O O6 0.803824 0.500000 0.538578
O O7 0.789690 0.742849 0.581262
O O8 0.000000 0.693999 0.531194
O O9 0.781384 0.254527 0.336365
O O10 0.000000 0.198820 0.384177
O O11 0.814201 0.000000 0.370502
O O12 0.220269 0.500000 0.294129
O O13 0.219991 0.253534 0.252300
O O14 0.000000 0.331579 0.294054
O O15 0.500000 0.220062 0.129066
O O16 0.749076 0.218361 0.169206
O O17 0.668170 0.000000 0.127097
O O18 0.000000 0.808561 0.205848
O O19 0.194738 0.000000 0.216787
#
# Coordination Sequence:
#
# PCOD9557230 Si02
#       6
#     8   8   8   8   8   8
#     4   8  13  22  38  60  84 110 142 180 221 265
#     4  10  21  36  54  77 104 134 168 205 245 289
#     4   9  17  31  52  75  98 125 158 196 238 284
#     4   9  17  29  47  71  95 119 152 194 234 272
#     4   9  16  25  39  62  90 116 144 182 225 265
#     4   9  16  27  45  67  90 117 149 184 224 271
#
# _framework density 17.193961999999999
#
# number of rings (size 3 to 8) (size 9 to 14) (size 15 to 20)
#    0.000    3.000    0.000    2.000    0.000    5.667 
#    0.000    2.500    0.000    6.500    0.000    4.667 
#    0.000    0.000    0.000    0.000    0.000    0.000 
#
# Total GULP energy -267492.143311 kJ/mol
# GULP energy per Si atom -5572.752986 kJ/mol
# Density = 1.715483 g / cm^3
# Si number density = 17.193962 Si / 1000 Ang^3
#
#
#
# Elastic Constant Matrix: (Units=GPa)
#
#
# Indices 1 2 3 4 5 6 
#
# 1 49.5601 40.0691 80.5013 0.0000 0.0000 0.0000
# 2 40.0691 49.5603 80.5014 0.0000 0.0000 0.0000
# 3 80.5013 80.5014 225.6105 0.0000 0.0000 0.0000
# 4 0.0000 0.0000 0.0000 -4.1465 0.0000 0.0000
# 5 0.0000 0.0000 0.0000 0.0000 -4.1465 0.0000
# 6 0.0000 0.0000 0.0000 0.0000 0.0000 9.6684
#
#
#
# Elastic Compliance Matrix: (Units=1/GPa)
#
#
# Indices 1 2 3 4 5 6 
#
# 1 0.068218 -0.037144 -0.011088 0.000000 0.000000 0.000000
# 2 -0.037144 0.068218 -0.011088 0.000000 0.000000 0.000000
# 3 -0.011088 -0.011088 0.012345 0.000000 0.000000 0.000000
# 4 0.000000 0.000000 0.000000 -0.241168 0.000000 0.000000
# 5 0.000000 0.000000 0.000000 0.000000 -0.241167 0.000000
# 6 0.000000 0.000000 0.000000 0.000000 0.000000 0.103429
#
#
# Mechanical properties :
#
#
# Convention : Reuss Voigt Hill
#
# Bulk Modulus (GPa) = 33.17587 80.76382 56.96984
# Shear Modulus (GPa) = -49.29105 8.51902 -20.38601
#
# Velocity S-wave (km/s) = -5.36003 2.22832 -3.44706
# Velocity P-wave (km/s) = 4.35541 7.32767 4.16684
#
# Compressibility (1/GPa) = 0.03014239
#
# Stress axis : x y z
#
# Youngs Moduli (GPa) = 14.65885 14.65893 81.00439
#
# Poissons Ratio (x) = 0.54449 0.89816
# Poissons Ratio (y) = 0.54448 0.89816
# Poissons Ratio (z) = 0.16253 0.16253
#
# Static dielectric constant tensor:
#      x y z
#    x 1.566310 0.000000 0.000000 
#    y 0.000000 1.566310 0.000000 
#    z 0.000000 0.000000 1.572130 
# 
# From -- ./inp_files/6068.got.cif
#   From: 2010.05.17/outbox.cif.g08.bks.cpg/sg115_4_cif.got.tgz:6068.got - 2010.05.20 11:07:42.
