data_PCOD9557169
_publ_section_title
;
Structure prediction by ZEFSAII (Michael W. Deem and Ramdas Pophale) SiO2 
 PCOD9557169
Probable space group: P -4 M 2
;
_chemical_formula_sum "Si O2"
_cell_formula_units_Z 28
_cell_length_a 9.501379
_cell_length_b 9.501379
_cell_length_c 18.280555
_cell_angle_alpha 90.000000
_cell_angle_beta 90.000000
_cell_angle_gamma 90.000000
_cell_volume 1650.299092
_symmetry_space_group_name_H-M "P -4 M 2"
_symmetry_group_IT_number 115
_symmetry_cell_setting 'tetragonal'
loop_
_space_group_symop_operation_xyz
x,y,z
y,-x,-z
-x,-y,z
-y,x,-z
y,x,-z
-y,-x,-z
-x,y,z
x,-y,z
loop_
_atom_site_type_symbol
_atom_site_label
_atom_site_fract_x
_atom_site_fract_y
_atom_site_fract_z
Si Si1 0.165995 0.332072 0.438535
Si Si2 0.666281 0.831155 0.728608
Si Si3 0.668289 0.834223 0.147256
Si Si4 0.666361 0.333640 0.000000
O O1 0.252378 0.252378 0.500000
O O2 0.184067 0.500000 0.445873
O O3 0.206957 0.295065 0.355071
O O4 0.000000 0.301601 0.446477
O O5 0.500000 0.799905 0.738931
O O6 0.758867 0.750383 0.787398
O O7 0.682513 0.000000 0.735818
O O8 0.500000 0.817919 0.158002
O O9 0.699977 0.000000 0.144028
O O10 0.703446 0.757955 0.070759
O O11 0.500000 0.313105 0.984042
#
# Coordination Sequence:
#
# PCOD9557169 Si02
#       4
#     8   8   8   4
#     4   9  19  35  53  75 103 134 170 211 254 301
#     4   9  19  36  55  74 100 136 174 210 251 300
#     4  10  21  35  52  78 108 134 165 208 255 301
#     4   9  18  34  54  73  98 136 176 209 246 297
#
# _framework density 16.966621
#
# number of rings (size 3 to 8) (size 9 to 14) (size 15 to 20)
#    0.000    2.714    0.000    2.571    0.000    6.286 
#    0.000   11.429    0.000    0.000    0.000    0.000 
#    0.000    0.000    0.000    0.000    0.000    0.000 
#
# Total GULP energy -156189.162045 kJ/mol
# GULP energy per Si atom -5578.184359 kJ/mol
# Density = 1.692800 g / cm^3
# Si number density = 16.966621 Si / 1000 Ang^3
#
#
#
# Elastic Constant Matrix: (Units=GPa)
#
#
# Indices 1 2 3 4 5 6 
#
# 1 66.6548 59.6787 98.8685 0.0000 0.0000 0.0000
# 2 59.6787 66.6554 98.8684 0.0000 0.0000 0.0000
# 3 98.8685 98.8684 195.1015 0.0000 0.0000 0.0000
# 4 0.0000 0.0000 0.0000 96.7277 0.0000 0.0000
# 5 0.0000 0.0000 0.0000 0.0000 96.7465 0.0000
# 6 0.0000 0.0000 0.0000 0.0000 0.0000 30.7755
#
#
#
# Elastic Compliance Matrix: (Units=1/GPa)
#
#
# Indices 1 2 3 4 5 6 
#
# 1 0.090807 -0.052534 -0.019395 0.000000 0.000000 0.000000
# 2 -0.052534 0.090803 -0.019393 0.000000 0.000000 0.000000
# 3 -0.019395 -0.019393 0.024781 0.000000 0.000000 0.000000
# 4 0.000000 0.000000 0.000000 0.010338 0.000000 0.000000
# 5 0.000000 0.000000 0.000000 0.000000 0.010336 0.000000
# 6 0.000000 0.000000 0.000000 0.000000 0.000000 0.032493
#
#
# Mechanical properties :
#
#
# Convention : Reuss Voigt Hill
#
# Bulk Modulus (GPa) = 42.10997 93.69367 67.90182
# Shear Modulus (GPa) = 11.10820 49.58301 30.34560
#
# Velocity S-wave (km/s) = 2.56150 5.41177 4.23371
# Velocity P-wave (km/s) = 5.79841 9.71555 8.00042
#
# Compressibility (1/GPa) = 0.02374734
#
# Stress axis : x y z
#
# Youngs Moduli (GPa) = 11.01241 11.01287 40.35301
#
# Poissons Ratio (x) = 0.57855 0.78264
# Poissons Ratio (y) = 0.57853 0.78256
# Poissons Ratio (z) = 0.21358 0.21357
#
# Static dielectric constant tensor:
#      x y z
#    x 1.557120 0.000000 0.000000 
#    y 0.000000 1.557120 0.000000 
#    z 0.000000 0.000000 1.550170 
# 
# From -- ./inp_files/4016.got.cif
#   From: 2010.05.17/outbox.cif.g08.bks.cpg/sg115_3_cif.got.tgz:4016.got - 2010.05.20 11:07:42.
