data_PCOD9557584
_publ_section_title
;
Structure prediction by ZEFSAII (Michael W. Deem and Ramdas Pophale) SiO2 
 PCOD9557584
Probable space group: P -4 C 2
;
_chemical_formula_sum "Si O2"
_cell_formula_units_Z 40
_cell_length_a 8.706881
_cell_length_b 8.706881
_cell_length_c 27.140416
_cell_angle_alpha 90.000000
_cell_angle_beta 90.000000
_cell_angle_gamma 90.000000
_cell_volume 2057.508878
_symmetry_space_group_name_H-M "P -4 C 2"
_symmetry_group_IT_number 116
_symmetry_cell_setting 'tetragonal'
loop_
_space_group_symop_operation_xyz
x,y,z
y,-x,-z
-x,-y,z
-y,x,-z
y,x,1/2-z
-y,-x,1/2-z
-x,y,1/2+z
x,-y,1/2+z
loop_
_atom_site_type_symbol
_atom_site_label
_atom_site_fract_x
_atom_site_fract_y
_atom_site_fract_z
Si Si1 0.260931 0.783815 0.103959
Si Si2 0.765531 0.398080 0.206204
Si Si3 0.767266 0.904180 0.993933
Si Si4 0.000000 0.000000 0.636277
Si Si5 0.000000 0.500000 0.934384
Si Si6 0.099464 0.272602 0.207436
O O1 0.264091 0.683084 0.153423
O O2 0.192710 0.710609 0.053766
O O3 0.423457 0.864062 0.096446
O O4 0.141167 0.924932 0.108456
O O5 0.646837 0.353164 0.250000
O O6 0.797274 0.577918 0.196161
O O7 0.931027 0.331529 0.223373
O O8 0.919205 0.820921 0.015970
O O9 0.629729 0.923531 0.031780
O O10 0.932110 0.144860 0.666174
O O11 0.182262 0.182262 0.250000
#
# Coordination Sequence:
#
# PCOD9557584 Si02
#       6
#     8   8   8   4   4   8
#     4  10  20  36  57  84 115 147 188 238 286 341
#     4  10  22  37  56  87 121 152 191 237 290 350
#     4   9  18  35  58  85 109 140 188 236 281 333
#     4  10  19  34  59  84 104 142 200 240 280 330
#     4  10  20  34  60  84 110 150 188 236 292 348
#     4  10  20  36  57  80 111 154 197 240 279 333
#
# _framework density 19.440988000000001
#
# number of rings (size 3 to 8) (size 9 to 14) (size 15 to 20)
#    0.000    2.200    0.000    5.100    0.000    6.800 
#    0.000    0.000    0.000   19.200    0.000    0.000 
#    0.000    0.000    0.000    0.000    0.000    0.000 
#
# Total GULP energy -222926.649480 kJ/mol
# GULP energy per Si atom -5573.166237 kJ/mol
# Density = 1.939674 g / cm^3
# Si number density = 19.440988 Si / 1000 Ang^3
#
#
#
# Elastic Constant Matrix: (Units=GPa)
#
#
# Indices 1 2 3 4 5 6 
#
# 1 8.5543 99.8975 38.5582 0.0000 0.0000 0.0000
# 2 99.8975 8.5560 38.5569 0.0000 0.0000 0.0000
# 3 38.5582 38.5569 85.4805 0.0000 0.0000 0.0000
# 4 0.0000 0.0000 0.0000 36.7565 0.0000 0.0000
# 5 0.0000 0.0000 0.0000 0.0000 36.7536 0.0000
# 6 0.0000 0.0000 0.0000 0.0000 0.0000 21.6515
#
#
#
# Elastic Compliance Matrix: (Units=1/GPa)
#
#
# Indices 1 2 3 4 5 6 
#
# 1 0.001313 0.012261 -0.006123 0.000000 0.000000 0.000000
# 2 0.012261 0.001313 -0.006123 0.000000 0.000000 0.000000
# 3 -0.006123 -0.006123 0.017222 0.000000 0.000000 0.000000
# 4 0.000000 0.000000 0.000000 0.027206 0.000000 0.000000
# 5 0.000000 0.000000 0.000000 0.000000 0.027208 0.000000
# 6 0.000000 0.000000 0.000000 0.000000 0.000000 0.046186
#
#
# Mechanical properties :
#
#
# Convention : Reuss Voigt Hill
#
# Bulk Modulus (GPa) = 50.30392 50.73512 50.51952
# Shear Modulus (GPa) = 39.35605 14.07087 26.71346
#
# Velocity S-wave (km/s) = 4.50420 2.69322 3.71088
# Velocity P-wave (km/s) = 7.27886 5.98539 6.66358
#
# Compressibility (1/GPa) = 0.01987917
#
# Stress axis : x y z
#
# Youngs Moduli (GPa) = 761.59072 761.34133 58.06421
#
# Poissons Ratio (x) = -9.33487 0.35551
# Poissons Ratio (y) = -9.33792 0.35553
# Poissons Ratio (z) = 4.66305 4.66179
#
# Static dielectric constant tensor:
#      x y z
#    x 1.775540 0.000000 0.000000 
#    y 0.000000 1.775550 0.000000 
#    z 0.000000 0.000000 1.864040 
# 
# From -- ./inp_files/4877.got.cif
#   From: 2010.05.17/outbox.cif.g08.bks.cpg/sg116_3_cif.got.tgz:4877.got - 2010.05.20 11:11:43.
