data_PCOD9557705
_publ_section_title
;
Structure prediction by ZEFSAII (Michael W. Deem and Ramdas Pophale) SiO2 
 PCOD9557705
Probable space group: P -4 C 2
;
_chemical_formula_sum "Si O2"
_cell_formula_units_Z 46
_cell_length_a 12.276073
_cell_length_b 12.276073
_cell_length_c 14.788956
_cell_angle_alpha 90.000000
_cell_angle_beta 90.000000
_cell_angle_gamma 90.000000
_cell_volume 2228.724778
_symmetry_space_group_name_H-M "P -4 C 2"
_symmetry_group_IT_number 116
_symmetry_cell_setting 'tetragonal'
loop_
_space_group_symop_operation_xyz
x,y,z
y,-x,-z
-x,-y,z
-y,x,-z
y,x,1/2-z
-y,-x,1/2-z
-x,y,1/2+z
x,-y,1/2+z
loop_
_atom_site_type_symbol
_atom_site_label
_atom_site_fract_x
_atom_site_fract_y
_atom_site_fract_z
Si Si1 0.074079 0.614500 0.214999
Si Si2 0.953260 0.771010 0.077808
Si Si3 0.005341 0.621574 0.909356
Si Si4 0.388594 0.472007 0.348753
Si Si5 0.711377 0.234427 0.645379
Si Si6 0.318295 0.681706 0.250000
Si Si7 0.000000 0.000000 0.000000
O O1 0.071695 0.626271 0.322975
O O2 0.203398 0.646814 0.199853
O O3 0.000000 0.500000 0.197981
O O4 0.009235 0.706527 0.159968
O O5 0.824376 0.770378 0.093382
O O6 0.994579 0.893369 0.062763
O O7 0.979762 0.706473 0.986624
O O8 0.000000 0.500000 0.948266
O O9 0.121277 0.649435 0.865674
O O10 0.500000 0.500000 0.397147
O O11 0.422813 0.422813 0.250000
O O12 0.321121 0.375128 0.391771
O O13 0.329837 0.584229 0.323661
O O14 0.740357 0.259644 0.750000
#
# Coordination Sequence:
#
# PCOD9557705 Si02
#       7
#     8   8   8   8   8   4   2
#     4  11  25  42  71 103 136 185 236 290 358 423
#     4  12  26  45  69  99 136 185 234 283 356 421
#     4  11  24  44  66 101 136 177 229 289 344 412
#     4   8  17  33  61  97 132 170 219 283 341 405
#     4  11  21  42  71  97 133 182 227 283 349 421
#     4  10  21  36  62 105 140 166 236 288 342 419
#     4  12  28  48  66 100 148 182 228 304 350 424
#
# _framework density 20.639605
#
# number of rings (size 3 to 8) (size 9 to 14) (size 15 to 20)
#    0.000    1.565    3.478    2.609    7.304    0.000 
#    0.000    0.870    0.000    0.000    0.000    0.000 
#    0.000    0.000    0.000    0.000    0.000    0.000 
#
# Total GULP energy -256134.460277 kJ/mol
# GULP energy per Si atom -5568.140441 kJ/mol
# Density = 2.059263 g / cm^3
# Si number density = 20.639605 Si / 1000 Ang^3
#
#
#
# Elastic Constant Matrix: (Units=GPa)
#
#
# Indices 1 2 3 4 5 6 
#
# 1 136.1231 55.3065 18.9689 0.0000 0.0000 0.0000
# 2 55.3065 136.1220 18.9692 0.0000 0.0000 0.0000
# 3 18.9689 18.9692 42.7748 0.0000 0.0000 0.0000
# 4 0.0000 0.0000 0.0000 -7.4986 0.0000 0.0000
# 5 0.0000 0.0000 0.0000 0.0000 -7.4997 0.0000
# 6 0.0000 0.0000 0.0000 0.0000 0.0000 32.2821
#
#
#
# Elastic Compliance Matrix: (Units=1/GPa)
#
#
# Indices 1 2 3 4 5 6 
#
# 1 0.009050 -0.003323 -0.002540 0.000000 0.000000 0.000000
# 2 -0.003323 0.009051 -0.002540 0.000000 0.000000 0.000000
# 3 -0.002540 -0.002540 0.025631 0.000000 0.000000 0.000000
# 4 0.000000 0.000000 0.000000 -0.133358 0.000000 0.000000
# 5 0.000000 0.000000 0.000000 0.000000 -0.133339 0.000000
# 6 0.000000 0.000000 0.000000 0.000000 0.000000 0.030977
#
#
# Mechanical properties :
#
#
# Convention : Reuss Voigt Hill
#
# Bulk Modulus (GPa) = 37.13875 55.72323 46.43099
# Shear Modulus (GPa) = -30.08295 18.24178 -5.92059
#
# Velocity S-wave (km/s) = -3.82191 2.97614 -1.69552
# Velocity P-wave (km/s) = 1.20125 6.23432 4.32572
#
# Compressibility (1/GPa) = 0.02692605
#
# Stress axis : x y z
#
# Youngs Moduli (GPa) = 110.49175 110.49052 39.01548
#
# Poissons Ratio (x) = 0.36719 0.09909
# Poissons Ratio (y) = 0.36720 0.09909
# Poissons Ratio (z) = 0.28062 0.28063
#
# Static dielectric constant tensor:
#      x y z
#    x 1.840750 0.000000 0.000000 
#    y 0.000000 1.840750 0.000000 
#    z 0.000000 0.000000 1.694840 
# 
# From -- ./inp_files/3436.got.cif
#   From: 2010.05.17/outbox.cif.g08.bks.cpg/sg116_2_cif.got.tgz:3436.got - 2010.05.20 11:11:43.
