data_PCOD9557346
_publ_section_title
;
Structure prediction by ZEFSAII (Michael W. Deem and Ramdas Pophale) SiO2 
 PCOD9557346
Probable space group: P -4 M 2
;
_chemical_formula_sum "Si O2"
_cell_formula_units_Z 48
_cell_length_a 7.848644
_cell_length_b 7.848644
_cell_length_c 36.902090
_cell_angle_alpha 90.000000
_cell_angle_beta 90.000000
_cell_angle_gamma 90.000000
_cell_volume 2273.213493
_symmetry_space_group_name_H-M "P -4 M 2"
_symmetry_group_IT_number 115
_symmetry_cell_setting 'tetragonal'
loop_
_space_group_symop_operation_xyz
x,y,z
y,-x,-z
-x,-y,z
-y,x,-z
y,x,-z
-y,-x,-z
-x,y,z
x,-y,z
loop_
_atom_site_type_symbol
_atom_site_label
_atom_site_fract_x
_atom_site_fract_y
_atom_site_fract_z
Si Si1 0.000000 0.209553 0.170870
Si Si2 0.798743 0.000000 0.747054
Si Si3 0.797552 0.694731 0.615521
Si Si4 0.797135 0.691042 0.960684
Si Si5 0.207974 0.300952 0.881573
Si Si6 0.305265 0.298355 0.305489
Si Si7 0.295208 0.696650 0.538559
O O1 0.831188 0.264333 0.148957
O O2 0.000000 0.272082 0.212155
O O3 0.000000 0.000000 0.170822
O O4 0.753934 0.169735 0.724652
O O5 0.000000 0.000000 0.750771
O O6 0.725460 0.500000 0.615641
O O7 0.746036 0.765611 0.654454
O O8 0.744472 0.777487 0.577429
O O9 0.000000 0.686241 0.615010
O O10 0.727273 0.500000 0.962493
O O11 0.737167 0.762333 0.921905
O O12 0.000000 0.683288 0.956821
O O13 0.768429 0.768429 0.000000
O O14 0.259121 0.500000 0.877071
O O15 0.000000 0.300851 0.880546
O O16 0.500000 0.226453 0.301839
O O17 0.319797 0.500000 0.303769
O O18 0.231385 0.768616 0.500000
O O19 0.500000 0.691195 0.535352
O O20 0.231194 0.500000 0.540868
#
# Coordination Sequence:
#
# PCOD9557346 Si02
#       7
#     4   4   8   8   8   8   8
#     4   9  18  31  51  77 107 145 181 219 277 343
#     4  11  23  37  57  89 121 145 181 237 297 353
#     4   9  16  27  47  75 104 135 175 225 278 329
#     4   9  18  30  46  72 103 135 175 221 266 313
#     4   8  15  29  47  71 106 142 179 224 269 322
#     4  10  21  38  60  83 111 149 190 233 284 346
#     4   8  13  22  39  64  94 132 178 221 262 319
#
# _framework density 21.115483000000001
#
# number of rings (size 3 to 8) (size 9 to 14) (size 15 to 20)
#    0.000    3.000    0.000    2.750    1.167    4.000 
#    0.000    1.667    1.833    2.000    0.000    0.000 
#    0.000    0.000    0.000    0.000    0.000    0.000 
#
# Total GULP energy -267299.074457 kJ/mol
# GULP energy per Si atom -5568.730718 kJ/mol
# Density = 2.106742 g / cm^3
# Si number density = 21.115483 Si / 1000 Ang^3
#
#
#
# Elastic Constant Matrix: (Units=GPa)
#
#
# Indices 1 2 3 4 5 6 
#
# 1 53.1945 13.1992 53.5439 0.0000 0.0000 0.0000
# 2 13.1992 53.1945 53.5439 0.0000 0.0000 0.0000
# 3 53.5439 53.5439 256.3693 0.0000 0.0000 0.0000
# 4 0.0000 0.0000 0.0000 9.4839 0.0000 0.0000
# 5 0.0000 0.0000 0.0000 0.0000 9.4841 0.0000
# 6 0.0000 0.0000 0.0000 0.0000 0.0000 0.0962
#
#
#
# Elastic Compliance Matrix: (Units=1/GPa)
#
#
# Indices 1 2 3 4 5 6 
#
# 1 0.023858 -0.001145 -0.004744 0.000000 0.000000 0.000000
# 2 -0.001145 0.023858 -0.004744 0.000000 0.000000 0.000000
# 3 -0.004744 -0.004744 0.005882 0.000000 0.000000 0.000000
# 4 0.000000 0.000000 0.000000 0.105441 0.000000 0.000000
# 5 0.000000 0.000000 0.000000 0.000000 0.105440 0.000000
# 6 0.000000 0.000000 0.000000 0.000000 0.000000 10.397593
#
#
# Mechanical properties :
#
#
# Convention : Reuss Voigt Hill
#
# Bulk Modulus (GPa) = 30.92804 67.03692 48.98248
# Shear Modulus (GPa) = 0.46755 19.97758 10.22256
#
# Velocity S-wave (km/s) = 0.47107 3.07923 2.20267
# Velocity P-wave (km/s) = 3.86972 6.66775 5.45131
#
# Compressibility (1/GPa) = 0.03233312
#
# Stress axis : x y z
#
# Youngs Moduli (GPa) = 41.91479 41.91479 170.00704
#
# Poissons Ratio (x) = 0.04799 0.80646
# Poissons Ratio (y) = 0.04799 0.80646
# Poissons Ratio (z) = 0.19883 0.19883
#
# Static dielectric constant tensor:
#      x y z
#    x 1.776040 0.000000 0.000000 
#    y 0.000000 1.776040 0.000000 
#    z 0.000000 0.000000 1.821980 
# 
# From -- ./inp_files/6201.got.cif
#   From: 2010.05.17/outbox.cif.g08.bks.cpg/sg115_4_cif.got.tgz:6201.got - 2010.05.20 11:07:42.
