data_PCOD9557881
_publ_section_title
;
Structure prediction by ZEFSAII (Michael W. Deem and Ramdas Pophale) SiO2 
 PCOD9557881
Probable space group: P -4 C 2
;
_chemical_formula_sum "Si O2"
_cell_formula_units_Z 28
_cell_length_a 10.767971
_cell_length_b 10.767971
_cell_length_c 11.548095
_cell_angle_alpha 90.000000
_cell_angle_beta 90.000000
_cell_angle_gamma 90.000000
_cell_volume 1338.992371
_symmetry_space_group_name_H-M "P -4 C 2"
_symmetry_group_IT_number 116
_symmetry_cell_setting 'tetragonal'
loop_
_space_group_symop_operation_xyz
x,y,z
y,-x,-z
-x,-y,z
-y,x,-z
y,x,1/2-z
-y,-x,1/2-z
-x,y,1/2+z
x,-y,1/2+z
loop_
_atom_site_type_symbol
_atom_site_label
_atom_site_fract_x
_atom_site_fract_y
_atom_site_fract_z
Si Si1 0.832981 0.832981 0.250000
Si Si2 0.643540 0.049830 0.185188
Si Si3 0.410091 0.716680 0.341211
Si Si4 0.213464 0.337505 0.035729
O O1 0.799408 0.768928 0.129223
O O2 0.966228 0.762538 0.276562
O O3 0.643910 0.167585 0.269927
O O4 0.500000 0.000000 0.196480
O O5 0.654245 0.097016 0.052089
O O6 0.396347 0.603654 0.250000
O O7 0.542251 0.758187 0.387744
O O8 0.329508 0.685189 0.452656
#
# Coordination Sequence:
#
# PCOD9557881 Si02
#       4
#     4   8   8   8
#     4  12  26  40  78 106 132 196 260 290 376 458
#     4  11  24  46  73 101 146 194 242 301 373 449
#     4  10  24  46  69 105 146 192 243 302 380 447
#     4  11  25  44  71 104 144 192 241 304 377 443
#
# _framework density 20.911245999999998
#
# number of rings (size 3 to 8) (size 9 to 14) (size 15 to 20)
#    0.000    1.143    2.857    1.714   12.000    0.571 
#    0.000    6.429    0.000    0.000    0.000    0.000 
#    0.000    0.000    0.000    0.000    0.000    0.000 
#
# Total GULP energy -155905.372834 kJ/mol
# GULP energy per Si atom -5568.049030 kJ/mol
# Density = 2.086365 g / cm^3
# Si number density = 20.911246 Si / 1000 Ang^3
#
#
#
# Elastic Constant Matrix: (Units=GPa)
#
#
# Indices 1 2 3 4 5 6 
#
# 1 55.5597 69.1370 27.0235 0.0000 0.0000 0.0000
# 2 69.1370 55.5606 27.0227 0.0000 0.0000 0.0000
# 3 27.0235 27.0227 123.8939 0.0000 0.0000 0.0000
# 4 0.0000 0.0000 0.0000-5616.0767 0.0000 0.0000
# 5 0.0000 0.0000 0.0000 0.0000-5603.3016 0.0000
# 6 0.0000 0.0000 0.0000 0.0000 0.0000 30.7370
#
#
#
# Elastic Compliance Matrix: (Units=1/GPa)
#
#
# Indices 1 2 3 4 5 6 
#
# 1 -0.032399 0.041256 -0.001931 0.000000 0.000000 0.000000
# 2 0.041256 -0.032399 -0.001932 0.000000 0.000000 0.000000
# 3 -0.001931 -0.001932 0.008914 0.000000 0.000000 0.000000
# 4 0.000000 0.000000 0.000000 -0.000178 0.000000 0.000000
# 5 0.000000 0.000000 0.000000 0.000000 -0.000178 0.000000
# 6 0.000000 0.000000 0.000000 0.000000 0.000000 0.032534
#
#
# Mechanical properties :
#
#
# Convention : Reuss Voigt Hill
#
# Bulk Modulus (GPa) = 52.90890 53.48672 53.19781
# Shear Modulus (GPa) = -54.23563 -2230.27289 -1142.25426
#
# Velocity S-wave (km/s) = -5.09828 -32.69339 -23.39712
# Velocity P-wave (km/s) = 3.04959 37.41003 26.54063
#
# Compressibility (1/GPa) = 0.01890041
#
# Stress axis : x y z
#
# Youngs Moduli (GPa) = -30.86477 -30.86558 112.18154
#
# Poissons Ratio (x) = 1.27338 0.21667
# Poissons Ratio (y) = 1.27335 0.21675
# Poissons Ratio (z) = -0.05961 -0.05964
#
# Static dielectric constant tensor:
#      x y z
#    x 10.621520 0.000000 0.000000 
#    y 0.000000 10.640410 0.000000 
#    z 0.000000 0.000000 1.701240 
# 
# From -- ./inp_files/1444.got.cif
#   From: 2010.05.17/outbox.cif.g08.bks.cpg/sg116_1_cif.got.tgz:1444.got - 2010.05.20 11:11:43.
