data_PCOD9557529
_publ_section_title
;
Structure prediction by ZEFSAII (Michael W. Deem and Ramdas Pophale) SiO2 
 PCOD9557529
Probable space group: P -4 C 2
;
_chemical_formula_sum "Si O2"
_cell_formula_units_Z 52
_cell_length_a 21.604721
_cell_length_b 21.604721
_cell_length_c 5.659438
_cell_angle_alpha 90.000000
_cell_angle_beta 90.000000
_cell_angle_gamma 90.000000
_cell_volume 2641.621746
_symmetry_space_group_name_H-M "P -4 C 2"
_symmetry_group_IT_number 116
_symmetry_cell_setting 'tetragonal'
loop_
_space_group_symop_operation_xyz
x,y,z
y,-x,-z
-x,-y,z
-y,x,-z
y,x,1/2-z
-y,-x,1/2-z
-x,y,1/2+z
x,-y,1/2+z
loop_
_atom_site_type_symbol
_atom_site_label
_atom_site_fract_x
_atom_site_fract_y
_atom_site_fract_z
Si Si1 0.475257 0.278435 0.283745
Si Si2 0.739306 0.260695 0.250000
Si Si3 0.350907 0.244210 0.133555
Si Si4 0.323025 0.850100 0.015162
Si Si5 0.440266 0.164395 0.811712
Si Si6 0.415984 0.032855 0.988769
Si Si7 0.722573 0.010521 0.986476
O O1 0.500932 0.304714 0.531808
O O2 0.401147 0.280048 0.290015
O O3 0.499763 0.206325 0.265245
O O4 0.700086 0.279529 0.481291
O O5 0.720126 0.190279 0.192430
O O6 0.320787 0.187823 0.273754
O O7 0.396014 0.213115 0.942199
O O8 0.395379 0.852684 0.091928
O O9 0.300257 0.919111 0.991455
O O10 0.445350 0.100706 0.956028
O O11 0.431960 0.995424 0.746364
O O12 0.340293 0.032088 0.985583
O O13 0.755382 0.000598 0.736261
#
# Coordination Sequence:
#
# PCOD9557529 Si02
#       7
#     8   4   8   8   8   8   8
#     4  10  20  33  52  73  94 130 171 216 276 331
#     4  10  24  34  52  78  96 146 186 248 292 336
#     4  10  20  35  51  72  99 133 182 232 285 340
#     4  11  19  34  53  70 106 133 185 234 283 341
#     4  10  19  30  51  72  97 131 176 222 274 338
#     4  10  18  28  45  70  95 130 171 217 274 315
#     4  10  19  30  50  74  95 136 174 225 280 331
#
# _framework density 19.684875999999999
#
# number of rings (size 3 to 8) (size 9 to 14) (size 15 to 20)
#    0.000    1.846    4.615    2.308    2.154    0.000 
#    0.000    0.000    0.000   21.231    0.000    0.000 
#    0.000    0.000    0.000    0.000    0.000  189.231 
#
# Total GULP energy -289888.064257 kJ/mol
# GULP energy per Si atom -5574.770466 kJ/mol
# Density = 1.964007 g / cm^3
# Si number density = 19.684876 Si / 1000 Ang^3
#
#
#
# Elastic Constant Matrix: (Units=GPa)
#
#
# Indices 1 2 3 4 5 6 
#
# 1 34.8802 16.8047 11.0695 0.0000 0.0000 0.0000
# 2 16.8047 34.8802 11.0696 0.0000 0.0000 0.0000
# 3 11.0695 11.0696 127.2917 0.0000 0.0000 0.0000
# 4 0.0000 0.0000 0.0000 23.6123 0.0000 0.0000
# 5 0.0000 0.0000 0.0000 0.0000 23.6123 0.0000
# 6 0.0000 0.0000 0.0000 0.0000 0.0000 11.7441
#
#
#
# Elastic Compliance Matrix: (Units=1/GPa)
#
#
# Indices 1 2 3 4 5 6 
#
# 1 0.037710 -0.017613 -0.001748 0.000000 0.000000 0.000000
# 2 -0.017613 0.037710 -0.001748 0.000000 0.000000 0.000000
# 3 -0.001748 -0.001748 0.008160 0.000000 0.000000 0.000000
# 4 0.000000 0.000000 0.000000 0.042351 0.000000 0.000000
# 5 0.000000 0.000000 0.000000 0.000000 0.042351 0.000000
# 6 0.000000 0.000000 0.000000 0.000000 0.000000 0.085149
#
#
# Mechanical properties :
#
#
# Convention : Reuss Voigt Hill
#
# Bulk Modulus (GPa) = 24.17643 30.54885 27.36264
# Shear Modulus (GPa) = 16.15844 22.33429 19.24637
#
# Velocity S-wave (km/s) = 2.86817 3.37202 3.13025
# Velocity P-wave (km/s) = 4.82461 5.54196 5.19568
#
# Compressibility (1/GPa) = 0.04136259
#
# Stress axis : x y z
#
# Youngs Moduli (GPa) = 26.51814 26.51814 122.55012
#
# Poissons Ratio (x) = 0.46708 0.21417
# Poissons Ratio (y) = 0.46708 0.21418
# Poissons Ratio (z) = 0.04634 0.04634
#
# Static dielectric constant tensor:
#      x y z
#    x 1.719790 0.000000 0.000000 
#    y 0.000000 1.719790 0.000000 
#    z 0.000000 0.000000 1.880610 
# 
# From -- ./inp_files/213.got.cif
#   From: 2010.05.17/outbox.cif.g08.bks.cpg/sg116_1_cif.got.tgz:213.got - 2010.05.20 11:11:43.
