data_PCOD9557242
_publ_section_title
;
Structure prediction by ZEFSAII (Michael W. Deem and Ramdas Pophale) SiO2 
 PCOD9557242
Probable space group: P -4 M 2
;
_chemical_formula_sum "Si O2"
_cell_formula_units_Z 48
_cell_length_a 9.229773
_cell_length_b 9.229773
_cell_length_c 31.705855
_cell_angle_alpha 90.000000
_cell_angle_beta 90.000000
_cell_angle_gamma 90.000000
_cell_volume 2700.980875
_symmetry_space_group_name_H-M "P -4 M 2"
_symmetry_group_IT_number 115
_symmetry_cell_setting 'tetragonal'
loop_
_space_group_symop_operation_xyz
x,y,z
y,-x,-z
-x,-y,z
-y,x,-z
y,x,-z
-y,-x,-z
-x,y,z
x,-y,z
loop_
_atom_site_type_symbol
_atom_site_label
_atom_site_fract_x
_atom_site_fract_y
_atom_site_fract_z
Si Si1 0.169744 0.174444 0.296781
Si Si2 0.828409 0.327140 0.038672
Si Si3 0.171614 0.327149 0.461357
Si Si4 0.670918 0.673078 0.124682
Si Si5 0.326092 0.669962 0.625918
Si Si6 0.329627 0.826547 0.210962
O O1 0.254851 0.248520 0.334850
O O2 0.238690 0.217592 0.251885
O O3 0.000000 0.211137 0.298458
O O4 0.183768 0.000000 0.300209
O O5 0.802416 0.500000 0.034024
O O6 0.758520 0.281871 0.083244
O O7 0.000000 0.302661 0.039129
O O8 0.754754 0.245247 0.000000
O O9 0.241097 0.241097 0.500000
O O10 0.193514 0.500000 0.467855
O O11 0.250177 0.287000 0.417658
O O12 0.000000 0.300604 0.458220
O O13 0.500000 0.704134 0.118227
O O14 0.686951 0.500000 0.129708
O O15 0.717331 0.750754 0.167700
O O16 0.500000 0.682463 0.630922
O O17 0.289413 0.500000 0.623623
O O18 0.500000 0.792289 0.217821
O O19 0.317326 0.000000 0.206184
#
# Coordination Sequence:
#
# PCOD9557242 Si02
#       6
#     8   8   8   8   8   8
#     4  10  21  36  54  78 109 144 180 218 263 315
#     4  10  21  36  54  77 105 137 174 215 260 312
#     4  10  21  37  57  81 109 141 177 217 263 315
#     4   9  18  33  53  76 102 134 173 216 260 308
#     4  10  21  37  58  82 107 139 180 224 268 314
#     4   9  18  33  52  74 102 137 176 216 258 308
#
# _framework density 17.771322999999999
#
# number of rings (size 3 to 8) (size 9 to 14) (size 15 to 20)
#    0.000    2.333    0.000    2.000    0.000    6.667 
#    0.000    3.333    0.000    0.000    0.000    0.000 
#    0.000    0.000    0.000    0.000    0.000    0.000 
#
# Total GULP energy -267981.232825 kJ/mol
# GULP energy per Si atom -5582.942351 kJ/mol
# Density = 1.773087 g / cm^3
# Si number density = 17.771323 Si / 1000 Ang^3
#
#
#
# Elastic Constant Matrix: (Units=GPa)
#
#
# Indices 1 2 3 4 5 6 
#
# 1 71.4435 62.6412 96.9203 0.0000 0.0000 0.0000
# 2 62.6412 71.4437 96.9210 0.0000 0.0000 0.0000
# 3 96.9203 96.9210 219.9148 0.0000 0.0000 0.0000
# 4 0.0000 0.0000 0.0000 212.6246 0.0000 0.0000
# 5 0.0000 0.0000 0.0000 0.0000 212.5901 0.0000
# 6 0.0000 0.0000 0.0000 0.0000 0.0000 24.5519
#
#
#
# Elastic Compliance Matrix: (Units=1/GPa)
#
#
# Indices 1 2 3 4 5 6 
#
# 1 0.067079 -0.046526 -0.009058 0.000000 0.000000 0.000000
# 2 -0.046526 0.067080 -0.009058 0.000000 0.000000 0.000000
# 3 -0.009058 -0.009058 0.012531 0.000000 0.000000 0.000000
# 4 0.000000 0.000000 0.000000 0.004703 0.000000 0.000000
# 5 0.000000 0.000000 0.000000 0.000000 0.004704 0.000000
# 6 0.000000 0.000000 0.000000 0.000000 0.000000 0.040730
#
#
# Mechanical properties :
#
#
# Convention : Reuss Voigt Hill
#
# Bulk Modulus (GPa) = 57.45536 97.30746 77.38141
# Shear Modulus (GPa) = 15.06418 97.04127 56.05273
#
# Velocity S-wave (km/s) = 2.91463 7.39757 5.62224
# Velocity P-wave (km/s) = 6.61267 11.30662 9.26194
#
# Compressibility (1/GPa) = 0.01740482
#
# Stress axis : x y z
#
# Youngs Moduli (GPa) = 14.90787 14.90764 79.80039
#
# Poissons Ratio (x) = 0.69360 0.72280
# Poissons Ratio (y) = 0.69361 0.72286
# Poissons Ratio (z) = 0.13503 0.13504
#
# Static dielectric constant tensor:
#      x y z
#    x 1.593700 0.000000 0.000000 
#    y 0.000000 1.593700 0.000000 
#    z 0.000000 0.000000 1.569720 
# 
# From -- ./inp_files/5925.got.cif
#   From: 2010.05.17/outbox.cif.g08.bks.cpg/sg115_3_cif.got.tgz:5925.got - 2010.05.20 11:07:42.
