data_PCOD9557178
_publ_section_title
;
Structure prediction by ZEFSAII (Michael W. Deem and Ramdas Pophale) SiO2 
 PCOD9557178
Probable space group: P -4 M 2
;
_chemical_formula_sum "Si O2"
_cell_formula_units_Z 44
_cell_length_a 8.158923
_cell_length_b 8.158923
_cell_length_c 32.713855
_cell_angle_alpha 90.000000
_cell_angle_beta 90.000000
_cell_angle_gamma 90.000000
_cell_volume 2177.696702
_symmetry_space_group_name_H-M "P -4 M 2"
_symmetry_group_IT_number 115
_symmetry_cell_setting 'tetragonal'
loop_
_space_group_symop_operation_xyz
x,y,z
y,-x,-z
-x,-y,z
-y,x,-z
y,x,-z
-y,-x,-z
-x,y,z
x,-y,z
loop_
_atom_site_type_symbol
_atom_site_label
_atom_site_fract_x
_atom_site_fract_y
_atom_site_fract_z
Si Si1 0.500000 0.301522 0.268828
Si Si2 0.195913 0.181776 0.131614
Si Si3 0.198721 0.500000 0.637343
Si Si4 0.693570 0.696141 0.043889
Si Si5 0.306572 0.306572 0.500000
Si Si6 0.818524 0.197935 0.413010
Si Si7 0.306814 0.187207 0.781221
O O1 0.500000 0.500000 0.264784
O O2 0.500000 0.255696 0.316146
O O3 0.667001 0.239357 0.247042
O O4 0.239068 0.241357 0.086525
O O5 0.241223 0.285685 0.171434
O O6 0.000000 0.175875 0.132680
O O7 0.264461 0.000000 0.137354
O O8 0.256065 0.335214 0.614064
O O9 0.000000 0.500000 0.636325
O O10 0.500000 0.730760 0.044221
O O11 0.714997 0.500000 0.043457
O O12 0.759737 0.759737 0.000000
O O13 0.279202 0.500000 0.507000
O O14 0.251820 0.212014 0.540448
O O15 0.000000 0.253139 0.399420
O O16 0.816749 0.000000 0.411855
O O17 0.500000 0.175218 0.772920
O O18 0.238856 0.000000 0.776057
#
# Coordination Sequence:
#
# PCOD9557178 Si02
#       7
#     4   8   4   8   4   8   8
#     4  10  22  38  60  86 112 146 192 242 292 352
#     4  10  21  35  52  78 110 140 174 223 278 334
#     4  10  22  40  58  84 122 156 196 250 302 360
#     4   9  19  35  53  74 102 139 182 223 266 324
#     4  11  22  35  56  88 124 159 202 255 304 356
#     4  10  21  38  60  85 117 161 207 248 299 361
#     4   9  19  37  58  81 110 145 186 234 291 350
#
# _framework density 20.204834000000002
#
# number of rings (size 3 to 8) (size 9 to 14) (size 15 to 20)
#    0.000    2.273    0.909    1.636    1.273    6.182 
#    0.000    2.727    0.000    0.000    0.000    0.000 
#    0.000    0.000    0.000    0.000    0.000    0.000 
#
# Total GULP energy -245369.916033 kJ/mol
# GULP energy per Si atom -5576.589001 kJ/mol
# Density = 2.015885 g / cm^3
# Si number density = 20.204834 Si / 1000 Ang^3
#
#
#
# Elastic Constant Matrix: (Units=GPa)
#
#
# Indices 1 2 3 4 5 6 
#
# 1 69.8481 24.0157 44.2507 0.0000 0.0000 0.0000
# 2 24.0157 69.8481 44.2507 0.0000 0.0000 0.0000
# 3 44.2507 44.2507 153.9593 0.0000 0.0000 0.0000
# 4 0.0000 0.0000 0.0000 70.2552 0.0000 0.0000
# 5 0.0000 0.0000 0.0000 0.0000 70.2552 0.0000
# 6 0.0000 0.0000 0.0000 0.0000 0.0000 12.8449
#
#
#
# Elastic Compliance Matrix: (Units=1/GPa)
#
#
# Indices 1 2 3 4 5 6 
#
# 1 0.018216 -0.003602 -0.004200 0.000000 0.000000 0.000000
# 2 -0.003602 0.018216 -0.004200 0.000000 0.000000 0.000000
# 3 -0.004200 -0.004200 0.008910 0.000000 0.000000 0.000000
# 4 0.000000 0.000000 0.000000 0.014234 0.000000 0.000000
# 5 0.000000 0.000000 0.000000 0.000000 0.014234 0.000000
# 6 0.000000 0.000000 0.000000 0.000000 0.000000 0.077852
#
#
# Mechanical properties :
#
#
# Convention : Reuss Voigt Hill
#
# Bulk Modulus (GPa) = 46.86791 57.63219 52.25005
# Shear Modulus (GPa) = 27.35530 42.74698 35.05114
#
# Velocity S-wave (km/s) = 3.68353 4.60464 4.16960
# Velocity P-wave (km/s) = 6.42946 7.54031 7.00693
#
# Compressibility (1/GPa) = 0.02133656
#
# Stress axis : x y z
#
# Youngs Moduli (GPa) = 54.89563 54.89563 112.23656
#
# Poissons Ratio (x) = 0.19775 0.47144
# Poissons Ratio (y) = 0.19775 0.47144
# Poissons Ratio (z) = 0.23058 0.23058
#
# Static dielectric constant tensor:
#      x y z
#    x 1.738770 0.000000 0.000000 
#    y 0.000000 1.738770 0.000000 
#    z 0.000000 0.000000 1.681680 
# 
# From -- ./inp_files/5883.got.cif
#   From: 2010.05.17/outbox.cif.g08.bks.cpg/sg115_3_cif.got.tgz:5883.got - 2010.05.20 11:07:42.
