data_PCOD9557018
_publ_section_title
;
Structure prediction by ZEFSAII (Michael W. Deem and Ramdas Pophale) SiO2 
 PCOD9557018
Probable space group: P -4 M 2
;
_chemical_formula_sum "Si O2"
_cell_formula_units_Z 48
_cell_length_a 9.081140
_cell_length_b 9.081140
_cell_length_c 32.007874
_cell_angle_alpha 90.000000
_cell_angle_beta 90.000000
_cell_angle_gamma 90.000000
_cell_volume 2639.596664
_symmetry_space_group_name_H-M "P -4 M 2"
_symmetry_group_IT_number 115
_symmetry_cell_setting 'tetragonal'
loop_
_space_group_symop_operation_xyz
x,y,z
y,-x,-z
-x,-y,z
-y,x,-z
y,x,-z
-y,-x,-z
-x,y,z
x,-y,z
loop_
_atom_site_type_symbol
_atom_site_label
_atom_site_fract_x
_atom_site_fract_y
_atom_site_fract_z
Si Si1 0.677410 0.328471 0.046152
Si Si2 0.824510 0.324459 0.459906
Si Si3 0.177491 0.829053 0.876320
Si Si4 0.673653 0.823132 0.699077
Si Si5 0.179215 0.829872 0.215748
Si Si6 0.675266 0.824943 0.379965
O O1 0.500000 0.322126 0.046274
O O2 0.720013 0.500000 0.050307
O O3 0.740881 0.239944 0.084823
O O4 0.725328 0.274673 0.000000
O O5 0.750527 0.249474 0.500000
O O6 0.799636 0.500000 0.460832
O O7 0.754113 0.255645 0.418419
O O8 0.000000 0.298974 0.460307
O O9 0.223027 0.772497 0.830211
O O10 0.000000 0.824917 0.876450
O O11 0.222822 0.000000 0.880181
O O12 0.500000 0.794665 0.695256
O O13 0.732720 0.777769 0.744723
O O14 0.761583 0.740987 0.662872
O O15 0.696329 0.000000 0.694956
O O16 0.000000 0.830348 0.214084
O O17 0.225189 0.000000 0.221920
O O18 0.500000 0.799571 0.381879
O O19 0.701314 0.000000 0.382536
#
# Coordination Sequence:
#
# PCOD9557018 Si02
#       6
#     8   8   8   8   8   8
#     4   9  19  35  51  68  95 132 172 212 255 307
#     4  11  24  41  62  89 118 148 185 226 269 320
#     4   9  18  32  51  77 105 131 165 211 260 311
#     4  10  20  34  55  83 110 138 177 222 266 315
#     4   8  15  30  51  74 103 138 172 209 257 311
#     4  11  24  40  58  82 112 147 187 227 268 317
#
# _framework density 18.184597
#
# number of rings (size 3 to 8) (size 9 to 14) (size 15 to 20)
#    0.000    2.333    0.000    4.000    0.000    9.667 
#    0.000    5.000    0.000    1.000    0.000    0.000 
#    0.000    0.000    0.000    0.000    0.000    0.000 
#
# Total GULP energy -267891.861555 kJ/mol
# GULP energy per Si atom -5581.080449 kJ/mol
# Density = 1.814321 g / cm^3
# Si number density = 18.184597 Si / 1000 Ang^3
#
#
#
# Elastic Constant Matrix: (Units=GPa)
#
#
# Indices 1 2 3 4 5 6 
#
# 1 66.8572 59.2526 71.0470 0.0000 0.0000 0.0000
# 2 59.2526 66.8577 71.0472 0.0000 0.0000 0.0000
# 3 71.0470 71.0472 193.4827 0.0000 0.0000 0.0000
# 4 0.0000 0.0000 0.0000 76.4682 0.0000 0.0000
# 5 0.0000 0.0000 0.0000 0.0000 76.4712 0.0000
# 6 0.0000 0.0000 0.0000 0.0000 0.0000 27.3911
#
#
#
# Elastic Compliance Matrix: (Units=1/GPa)
#
#
# Indices 1 2 3 4 5 6 
#
# 1 0.072511 -0.058985 -0.004967 0.000000 0.000000 0.000000
# 2 -0.058985 0.072510 -0.004967 0.000000 0.000000 0.000000
# 3 -0.004967 -0.004967 0.008816 0.000000 0.000000 0.000000
# 4 0.000000 0.000000 0.000000 0.013077 0.000000 0.000000
# 5 0.000000 0.000000 0.000000 0.000000 0.013077 0.000000
# 6 0.000000 0.000000 0.000000 0.000000 0.000000 0.036508
#
#
# Mechanical properties :
#
#
# Convention : Reuss Voigt Hill
#
# Bulk Modulus (GPa) = 62.49687 81.09900 71.79793
# Shear Modulus (GPa) = 13.90168 44.45616 29.17892
#
# Velocity S-wave (km/s) = 2.76791 4.94977 4.01009
# Velocity P-wave (km/s) = 6.68265 8.79553 7.81086
#
# Compressibility (1/GPa) = 0.01600080
#
# Stress axis : x y z
#
# Youngs Moduli (GPa) = 13.79106 13.79119 113.43061
#
# Poissons Ratio (x) = 0.81347 0.56338
# Poissons Ratio (y) = 0.81346 0.56337
# Poissons Ratio (z) = 0.06850 0.06850
#
# Static dielectric constant tensor:
#      x y z
#    x 1.606230 0.000000 0.000000 
#    y 0.000000 1.606230 0.000000 
#    z 0.000000 0.000000 1.616710 
# 
# From -- ./inp_files/6004.got.cif
#   From: 2010.05.17/outbox.cif.g08.bks.cpg/sg115_4_cif.got.tgz:6004.got - 2010.05.20 11:07:42.
