data_PCOD9557256
_publ_section_title
;
Structure prediction by ZEFSAII (Michael W. Deem and Ramdas Pophale) SiO2 
 PCOD9557256
Probable space group: P -4 M 2
;
_chemical_formula_sum "Si O2"
_cell_formula_units_Z 33
_cell_length_a 8.364028
_cell_length_b 8.364028
_cell_length_c 24.480238
_cell_angle_alpha 90.000000
_cell_angle_beta 90.000000
_cell_angle_gamma 90.000000
_cell_volume 1712.563138
_symmetry_space_group_name_H-M "P -4 M 2"
_symmetry_group_IT_number 115
_symmetry_cell_setting 'tetragonal'
loop_
_space_group_symop_operation_xyz
x,y,z
y,-x,-z
-x,-y,z
-y,x,-z
y,x,-z
-y,-x,-z
-x,y,z
x,-y,z
loop_
_atom_site_type_symbol
_atom_site_label
_atom_site_fract_x
_atom_site_fract_y
_atom_site_fract_z
Si Si1 0.500000 0.802844 0.919208
Si Si2 0.682638 0.191027 0.271360
Si Si3 0.500000 0.500000 0.000000
Si Si4 0.813394 0.813394 0.500000
Si Si5 0.309952 0.314044 0.385494
Si Si6 0.816605 0.189864 0.847878
O O1 0.500000 0.668865 0.966692
O O2 0.335154 0.767083 0.885676
O O3 0.500000 0.000000 0.931231
O O4 0.500000 0.253024 0.267009
O O5 0.758040 0.248581 0.328342
O O6 0.768340 0.227661 0.214604
O O7 0.676128 0.000000 0.275201
O O8 0.739094 0.757746 0.443194
O O9 0.000000 0.782154 0.495008
O O10 0.500000 0.288892 0.381468
O O11 0.273943 0.500000 0.387793
O O12 0.000000 0.254923 0.858864
O O13 0.830153 0.000000 0.852635
#
# Coordination Sequence:
#
# PCOD9557256 Si02
#       6
#     4   8   1   4   8   8
#     4  10  24  44  64  96 134 166 215 263 304 365
#     4   9  18  32  53  84 117 150 189 235 291 355
#     4  12  28  44  68 104 124 180 216 258 308 356
#     4  11  24  39  54  72  98 139 190 241 292 350
#     4  10  21  36  54  79 108 142 183 234 293 357
#     4   9  19  37  61  89 124 165 203 251 311 363
#
# _framework density 19.269363999999999
#
# number of rings (size 3 to 8) (size 9 to 14) (size 15 to 20)
#    0.000    2.303    0.000    1.455    3.394    5.818 
#    0.000    2.424    0.000    0.000    0.000    0.000 
#    0.000    0.000    0.000    0.000    0.000    0.000 
#
# Total GULP energy -183714.898828 kJ/mol
# GULP energy per Si atom -5567.118146 kJ/mol
# Density = 1.922551 g / cm^3
# Si number density = 19.269364 Si / 1000 Ang^3
#
#
#
# Elastic Constant Matrix: (Units=GPa)
#
#
# Indices 1 2 3 4 5 6 
#
# 1 105.4161 -2.3944 68.5862 0.0000 0.0000 0.0000
# 2 -2.3944 105.4161 68.5862 0.0000 0.0000 0.0000
# 3 68.5862 68.5862 153.4747 0.0000 0.0000 0.0000
# 4 0.0000 0.0000 0.0000 64.2588 0.0000 0.0000
# 5 0.0000 0.0000 0.0000 0.0000 64.2588 0.0000
# 6 0.0000 0.0000 0.0000 0.0000 0.0000 18.0992
#
#
#
# Elastic Compliance Matrix: (Units=1/GPa)
#
#
# Indices 1 2 3 4 5 6 
#
# 1 0.016622 0.007347 -0.010711 0.000000 0.000000 0.000000
# 2 0.007347 0.016622 -0.010711 0.000000 0.000000 0.000000
# 3 -0.010711 -0.010711 0.016089 0.000000 0.000000 0.000000
# 4 0.000000 0.000000 0.000000 0.015562 0.000000 0.000000
# 5 0.000000 0.000000 0.000000 0.000000 0.015562 0.000000
# 6 0.000000 0.000000 0.000000 0.000000 0.000000 0.055251
#
#
# Mechanical properties :
#
#
# Convention : Reuss Voigt Hill
#
# Bulk Modulus (GPa) = 47.21123 70.42922 58.82023
# Shear Modulus (GPa) = 29.25311 44.62530 36.93920
#
# Velocity S-wave (km/s) = 3.90053 4.81757 4.38310
# Velocity P-wave (km/s) = 6.69622 8.22037 7.49713
#
# Compressibility (1/GPa) = 0.02118140
#
# Stress axis : x y z
#
# Youngs Moduli (GPa) = 60.16046 60.16046 62.15271
#
# Poissons Ratio (x) = -0.44198 0.66575
# Poissons Ratio (y) = -0.44198 0.66575
# Poissons Ratio (z) = 0.64441 0.64441
#
# Static dielectric constant tensor:
#      x y z
#    x 1.691750 0.000000 0.000000 
#    y 0.000000 1.691750 0.000000 
#    z 0.000000 0.000000 1.784330 
# 
# From -- ./inp_files/4677.got.cif
#   From: 2010.05.17/outbox.cif.g08.bks.cpg/sg115_3_cif.got.tgz:4677.got - 2010.05.20 11:07:42.
