data_PCOD9557925
_publ_section_title
;
Structure prediction by ZEFSAII (Michael W. Deem and Ramdas Pophale) SiO2 
 PCOD9557925
Probable space group: P -4 C 2
;
_chemical_formula_sum "Si O2"
_cell_formula_units_Z 36
_cell_length_a 10.826945
_cell_length_b 10.826945
_cell_length_c 14.671734
_cell_angle_alpha 90.000000
_cell_angle_beta 90.000000
_cell_angle_gamma 90.000000
_cell_volume 1719.860831
_symmetry_space_group_name_H-M "P -4 C 2"
_symmetry_group_IT_number 116
_symmetry_cell_setting 'tetragonal'
loop_
_space_group_symop_operation_xyz
x,y,z
y,-x,-z
-x,-y,z
-y,x,-z
y,x,1/2-z
-y,-x,1/2-z
-x,y,1/2+z
x,-y,1/2+z
loop_
_atom_site_type_symbol
_atom_site_label
_atom_site_fract_x
_atom_site_fract_y
_atom_site_fract_z
Si Si1 0.161474 0.168116 0.362792
Si Si2 0.548628 0.224025 0.586655
Si Si3 0.500000 0.500000 0.500000
Si Si4 0.300336 0.502942 0.734226
Si Si5 0.878472 0.437087 0.587909
Si Si6 0.000000 0.000000 0.000000
O O1 0.151488 0.151488 0.250000
O O2 0.178098 0.310653 0.398205
O O3 0.294658 0.113489 0.389062
O O4 0.062724 0.098713 0.428832
O O5 0.532073 0.371891 0.556783
O O6 0.487389 0.205727 0.684721
O O7 0.472811 0.144657 0.515399
O O8 0.403020 0.403020 0.750000
O O9 0.364359 0.635642 0.750000
O O10 0.237910 0.501835 0.638174
O O11 0.000000 0.500000 0.623740
#
# Coordination Sequence:
#
# PCOD9557925 Si02
#       6
#     8   8   2   8   8   2
#     4  12  25  52  74  98 137 192 239 296 350 411
#     4  12  21  40  71 101 144 178 217 285 363 428
#     4  12  20  36  74 112 140 178 212 276 370 460
#     4  11  21  39  68  99 135 176 221 276 360 436
#     4  12  25  41  64 102 140 175 229 289 350 415
#     4  12  30  52  76  94 132 196 270 292 332 394
#
# _framework density 20.931926000000001
#
# number of rings (size 3 to 8) (size 9 to 14) (size 15 to 20)
#    0.000    0.222    6.667    4.333    0.000    0.889 
#    4.000    0.000    0.000    0.000    0.000    0.000 
#    0.000    0.000    0.000    0.000    0.000    0.000 
#
# Total GULP energy -200647.769958 kJ/mol
# GULP energy per Si atom -5573.549165 kJ/mol
# Density = 2.088428 g / cm^3
# Si number density = 20.931926 Si / 1000 Ang^3
#
#
#
# Elastic Constant Matrix: (Units=GPa)
#
#
# Indices 1 2 3 4 5 6 
#
# 1 49.8280 39.0952 26.2425 0.0000 0.0000 0.0000
# 2 39.0952 49.8262 26.2416 0.0000 0.0000 0.0000
# 3 26.2425 26.2416 146.5115 0.0000 0.0000 0.0000
# 4 0.0000 0.0000 0.0000 19.7410 0.0000 0.0000
# 5 0.0000 0.0000 0.0000 0.0000 19.7435 0.0000
# 6 0.0000 0.0000 0.0000 0.0000 0.0000 32.9886
#
#
#
# Elastic Compliance Matrix: (Units=1/GPa)
#
#
# Indices 1 2 3 4 5 6 
#
# 1 0.052877 -0.040303 -0.002252 0.000000 0.000000 0.000000
# 2 -0.040303 0.052879 -0.002252 0.000000 0.000000 0.000000
# 3 -0.002252 -0.002252 0.007632 0.000000 0.000000 0.000000
# 4 0.000000 0.000000 0.000000 0.050656 0.000000 0.000000
# 5 0.000000 0.000000 0.000000 0.000000 0.050650 0.000000
# 6 0.000000 0.000000 0.000000 0.000000 0.000000 0.030314
#
#
# Mechanical properties :
#
#
# Convention : Reuss Voigt Hill
#
# Bulk Modulus (GPa) = 42.06431 47.70269 44.88350
# Shear Modulus (GPa) = 14.59660 24.80038 19.69849
#
# Velocity S-wave (km/s) = 2.64358 3.44584 3.07102
# Velocity P-wave (km/s) = 5.42747 6.21858 5.83644
#
# Compressibility (1/GPa) = 0.02377312
#
# Stress axis : x y z
#
# Youngs Moduli (GPa) = 18.91189 18.91125 131.02280
#
# Poissons Ratio (x) = 0.76217 0.29513
# Poissons Ratio (y) = 0.76220 0.29510
# Poissons Ratio (z) = 0.04260 0.04259
#
# Static dielectric constant tensor:
#      x y z
#    x 1.792140 0.000000 0.000000 
#    y 0.000000 1.792140 0.000000 
#    z 0.000000 0.000000 1.853000 
# 
# From -- ./inp_files/2508.got.cif
#   From: 2010.05.17/outbox.cif.g08.bks.cpg/sg116_2_cif.got.tgz:2508.got - 2010.05.20 11:11:43.
