data_PCOD9557936
_publ_section_title
;
Structure prediction by ZEFSAII (Michael W. Deem and Ramdas Pophale) SiO2 
 PCOD9557936
Probable space group: P -4 C 2
;
_chemical_formula_sum "Si O2"
_cell_formula_units_Z 28
_cell_length_a 8.972266
_cell_length_b 8.972266
_cell_length_c 16.369350
_cell_angle_alpha 90.000000
_cell_angle_beta 90.000000
_cell_angle_gamma 90.000000
_cell_volume 1317.758165
_symmetry_space_group_name_H-M "P -4 C 2"
_symmetry_group_IT_number 116
_symmetry_cell_setting 'tetragonal'
loop_
_space_group_symop_operation_xyz
x,y,z
y,-x,-z
-x,-y,z
-y,x,-z
y,x,1/2-z
-y,-x,1/2-z
-x,y,1/2+z
x,-y,1/2+z
loop_
_atom_site_type_symbol
_atom_site_label
_atom_site_fract_x
_atom_site_fract_y
_atom_site_fract_z
Si Si1 0.770609 0.014737 0.273885
Si Si2 0.545569 0.261304 0.019755
Si Si3 0.209118 0.943259 0.959305
Si Si4 0.500000 0.000000 0.653079
O O1 0.893886 0.893886 0.250000
O O2 0.777151 0.014833 0.371282
O O3 0.634252 0.978147 0.216254
O O4 0.821030 0.178971 0.250000
O O5 0.512054 0.153515 0.098298
O O6 0.401043 0.336535 0.976672
O O7 0.637541 0.143131 0.967412
O O8 0.070572 0.828882 0.973382
#
# Coordination Sequence:
#
# PCOD9557936 Si02
#       4
#     8   8   8   4
#     4  11  23  41  64  97 135 171 218 282 334 386
#     4  11  24  43  67  97 133 176 225 275 330 408
#     4  11  22  41  69  97 129 179 231 276 331 405
#     4  12  26  44  68 100 138 176 222 276 340 398
#
# _framework density 21.248206
#
# number of rings (size 3 to 8) (size 9 to 14) (size 15 to 20)
#    0.000    0.857    0.000   10.286    0.000    5.714 
#    0.000    0.000    0.000    5.143    0.000    0.000 
#    0.000    0.000    0.000    0.000    0.000    0.000 
#
# Total GULP energy -155912.885652 kJ/mol
# GULP energy per Si atom -5568.317345 kJ/mol
# Density = 2.119984 g / cm^3
# Si number density = 21.248206 Si / 1000 Ang^3
#
#
#
# Elastic Constant Matrix: (Units=GPa)
#
#
# Indices 1 2 3 4 5 6 
#
# 1 87.6768 79.9767 67.7085 0.0000 0.0000 0.0000
# 2 79.9767 87.6740 67.7083 0.0000 0.0000 0.0000
# 3 67.7085 67.7083 138.9296 0.0000 0.0000 0.0000
# 4 0.0000 0.0000 0.0000 28.6370 0.0000 0.0000
# 5 0.0000 0.0000 0.0000 0.0000 28.6372 0.0000
# 6 0.0000 0.0000 0.0000 0.0000 0.0000 63.3437
#
#
#
# Elastic Compliance Matrix: (Units=1/GPa)
#
#
# Indices 1 2 3 4 5 6 
#
# 1 0.069863 -0.060028 -0.004793 0.000000 0.000000 0.000000
# 2 -0.060028 0.069867 -0.004795 0.000000 0.000000 0.000000
# 3 -0.004793 -0.004795 0.011871 0.000000 0.000000 0.000000
# 4 0.000000 0.000000 0.000000 0.034920 0.000000 0.000000
# 5 0.000000 0.000000 0.000000 0.000000 0.034920 0.000000
# 6 0.000000 0.000000 0.000000 0.000000 0.000000 0.015787
#
#
# Mechanical properties :
#
#
# Convention : Reuss Voigt Hill
#
# Bulk Modulus (GPa) = 80.85169 82.78528 81.81848
# Shear Modulus (GPa) = 13.13777 30.71604 21.92691
#
# Velocity S-wave (km/s) = 2.48926 3.80621 3.21587
# Velocity P-wave (km/s) = 6.81143 7.63950 7.23732
#
# Compressibility (1/GPa) = 0.01236833
#
# Stress axis : x y z
#
# Youngs Moduli (GPa) = 14.31369 14.31299 84.23976
#
# Poissons Ratio (x) = 0.85918 0.40380
# Poissons Ratio (y) = 0.85922 0.40392
# Poissons Ratio (z) = 0.06861 0.06863
#
# Static dielectric constant tensor:
#      x y z
#    x 1.765100 0.000000 0.000000 
#    y 0.000000 1.765110 0.000000 
#    z 0.000000 0.000000 1.837880 
# 
# From -- ./inp_files/3083.got.cif
#   From: 2010.05.17/outbox.cif.g08.bks.cpg/sg116_2_cif.got.tgz:3083.got - 2010.05.20 11:11:43.
