data_PCOD9557399
_publ_section_title
;
Structure prediction by ZEFSAII (Michael W. Deem and Ramdas Pophale) SiO2 
 PCOD9557399
Probable space group: P -4 M 2
;
_chemical_formula_sum "Si O2"
_cell_formula_units_Z 32
_cell_length_a 11.981544
_cell_length_b 11.981544
_cell_length_c 11.073118
_cell_angle_alpha 90.000000
_cell_angle_beta 90.000000
_cell_angle_gamma 90.000000
_cell_volume 1589.627993
_symmetry_space_group_name_H-M "P -4 M 2"
_symmetry_group_IT_number 115
_symmetry_cell_setting 'tetragonal'
loop_
_space_group_symop_operation_xyz
x,y,z
y,-x,-z
-x,-y,z
-y,x,-z
y,x,-z
-y,-x,-z
-x,y,z
x,-y,z
loop_
_atom_site_type_symbol
_atom_site_label
_atom_site_fract_x
_atom_site_fract_y
_atom_site_fract_z
Si Si1 0.627627 0.128282 0.549239
Si Si2 0.000000 0.372352 0.101708
Si Si3 0.765472 0.813163 0.313914
Si Si4 0.000000 0.123842 0.226440
Si Si5 0.785557 0.372648 0.928487
O O1 0.500000 0.158818 0.530070
O O2 0.686585 0.205368 0.647745
O O3 0.694144 0.138585 0.423938
O O4 0.634139 0.000000 0.589361
O O5 0.000000 0.246314 0.160132
O O6 0.000000 0.500000 0.161915
O O7 0.890513 0.372203 0.018459
O O8 0.699746 0.816148 0.189042
O O9 0.885329 0.871754 0.301390
O O10 0.000000 0.000000 0.162768
O O11 0.761429 0.500000 0.893256
O O12 0.684518 0.315483 0.000000
#
# Coordination Sequence:
#
# PCOD9557399 Si02
#       5
#     8   4   8   4   8
#     4  10  22  41  65  89 121 171 221 259 311 392
#     4  10  24  44  65  94 134 183 222 260 317 411
#     4  11  23  41  61  97 132 167 207 270 332 385
#     4  12  24  40  65 102 140 171 208 274 341 399
#     4  11  24  42  65  93 128 169 219 266 323 387
#
# _framework density 20.130496999999998
#
# number of rings (size 3 to 8) (size 9 to 14) (size 15 to 20)
#    0.000    1.250    3.750    1.500    3.500    2.250 
#    2.250    0.000    0.000   12.000    0.000    0.000 
#    0.000    0.000    0.000    0.000    0.000    0.000 
#
# Total GULP energy -178623.639600 kJ/mol
# GULP energy per Si atom -5581.988738 kJ/mol
# Density = 2.008468 g / cm^3
# Si number density = 20.130497 Si / 1000 Ang^3
#
#
#
# Elastic Constant Matrix: (Units=GPa)
#
#
# Indices 1 2 3 4 5 6 
#
# 1 150.7678 38.8228 32.7265 0.0000 0.0000 0.0000
# 2 38.8228 150.7669 32.7279 0.0000 0.0000 0.0000
# 3 32.7265 32.7279 56.1030 0.0000 0.0000 0.0000
# 4 0.0000 0.0000 0.0000 22.5608 0.0000 0.0000
# 5 0.0000 0.0000 0.0000 0.0000 22.5616 0.0000
# 6 0.0000 0.0000 0.0000 0.0000 0.0000 24.7470
#
#
#
# Elastic Compliance Matrix: (Units=1/GPa)
#
#
# Indices 1 2 3 4 5 6 
#
# 1 0.007769 -0.001164 -0.003853 0.000000 0.000000 0.000000
# 2 -0.001164 0.007769 -0.003853 0.000000 0.000000 0.000000
# 3 -0.003853 -0.003853 0.022319 0.000000 0.000000 0.000000
# 4 0.000000 0.000000 0.000000 0.044325 0.000000 0.000000
# 5 0.000000 0.000000 0.000000 0.000000 0.044323 0.000000
# 6 0.000000 0.000000 0.000000 0.000000 0.000000 0.040409
#
#
# Mechanical properties :
#
#
# Convention : Reuss Voigt Hill
#
# Bulk Modulus (GPa) = 49.70781 62.91022 56.30902
# Shear Modulus (GPa) = 26.12889 30.86457 28.49673
#
# Velocity S-wave (km/s) = 3.60665 3.91989 3.76653
# Velocity P-wave (km/s) = 6.48770 7.19767 6.85189
#
# Compressibility (1/GPa) = 0.02011756
#
# Stress axis : x y z
#
# Youngs Moduli (GPa) = 128.72069 128.71817 44.80422
#
# Poissons Ratio (x) = 0.14985 0.17261
# Poissons Ratio (y) = 0.14985 0.17263
# Poissons Ratio (z) = 0.49591 0.49594
#
# Static dielectric constant tensor:
#      x y z
#    x 1.721670 0.000000 0.000000 
#    y 0.000000 1.721670 0.000000 
#    z 0.000000 0.000000 1.720570 
# 
# From -- ./inp_files/2550.got.cif
#   From: 2010.05.17/outbox.cif.g08.bks.cpg/sg115_2_cif.got.tgz:2550.got - 2010.05.20 11:07:42.
