data_PCOD9557808
_publ_section_title
;
Structure prediction by ZEFSAII (Michael W. Deem and Ramdas Pophale) SiO2 
 PCOD9557808
Probable space group: P -4 C 2
;
_chemical_formula_sum "Si O2"
_cell_formula_units_Z 38
_cell_length_a 8.408859
_cell_length_b 8.408859
_cell_length_c 21.254008
_cell_angle_alpha 90.000000
_cell_angle_beta 90.000000
_cell_angle_gamma 90.000000
_cell_volume 1502.847732
_symmetry_space_group_name_H-M "P -4 C 2"
_symmetry_group_IT_number 116
_symmetry_cell_setting 'tetragonal'
loop_
_space_group_symop_operation_xyz
x,y,z
y,-x,-z
-x,-y,z
-y,x,-z
y,x,1/2-z
-y,-x,1/2-z
-x,y,1/2+z
x,-y,1/2+z
loop_
_atom_site_type_symbol
_atom_site_label
_atom_site_fract_x
_atom_site_fract_y
_atom_site_fract_z
Si Si1 0.152400 0.112846 0.580221
Si Si2 0.500000 0.500000 0.250000
Si Si3 0.873899 0.374798 0.972492
Si Si4 0.298313 0.360498 0.354460
Si Si5 0.500000 0.000000 0.207117
Si Si6 0.680456 0.994968 0.326710
O O1 0.163998 0.241847 0.524261
O O2 0.127194 0.210280 0.643208
O O3 0.301259 0.998124 0.577965
O O4 0.000000 0.000000 0.570308
O O5 0.448803 0.372306 0.305525
O O6 0.715889 0.403689 0.929438
O O7 0.000000 0.500000 0.002259
O O8 0.168196 0.478759 0.325840
O O9 0.254131 0.175837 0.347233
O O10 0.653211 0.009753 0.252983
O O11 0.500000 0.000000 0.352581
#
# Coordination Sequence:
#
# PCOD9557808 Si02
#       6
#     8   2   8   8   4   8
#     4  12  22  46  75 103 142 194 246 312 373 447
#     4  12  24  44  76  98 160 200 244 316 374 456
#     4  12  25  41  72 105 143 189 245 306 377 450
#     4  12  23  44  68 104 145 200 242 305 379 443
#     4  10  22  44  64 102 148 184 244 306 348 456
#     4  10  22  41  72 101 144 191 248 304 369 439
#
# _framework density 25.285329000000001
#
# number of rings (size 3 to 8) (size 9 to 14) (size 15 to 20)
#    0.632    0.000    7.368    0.632    0.000    3.368 
#    0.000    0.000    4.632    0.000    0.000    0.000 
#    0.000    0.000    0.000    0.000    0.000    0.000 
#
# Total GULP energy -211649.147890 kJ/mol
# GULP energy per Si atom -5569.714418 kJ/mol
# Density = 2.522778 g / cm^3
# Si number density = 25.285329 Si / 1000 Ang^3
#
#
#
# Elastic Constant Matrix: (Units=GPa)
#
#
# Indices 1 2 3 4 5 6 
#
# 1 52.5003 11.3876 15.8069 0.0000 0.0000 0.0000
# 2 11.3876 52.5003 15.8069 0.0000 0.0000 0.0000
# 3 15.8069 15.8069 100.4488 0.0000 0.0000 0.0000
# 4 0.0000 0.0000 0.0000 34.7255 0.0000 0.0000
# 5 0.0000 0.0000 0.0000 0.0000 34.7255 0.0000
# 6 0.0000 0.0000 0.0000 0.0000 0.0000 47.5022
#
#
#
# Elastic Compliance Matrix: (Units=1/GPa)
#
#
# Indices 1 2 3 4 5 6 
#
# 1 0.020649 -0.003675 -0.002671 0.000000 0.000000 0.000000
# 2 -0.003675 0.020649 -0.002671 0.000000 0.000000 0.000000
# 3 -0.002671 -0.002671 0.010796 0.000000 0.000000 0.000000
# 4 0.000000 0.000000 0.000000 0.028797 0.000000 0.000000
# 5 0.000000 0.000000 0.000000 0.000000 0.028797 0.000000
# 6 0.000000 0.000000 0.000000 0.000000 0.000000 0.021052
#
#
# Mechanical properties :
#
#
# Convention : Reuss Voigt Hill
#
# Bulk Modulus (GPa) = 29.36002 32.38355 30.87179
# Shear Modulus (GPa) = 31.22527 34.22050 32.72289
#
# Velocity S-wave (km/s) = 3.51795 3.68281 3.60133
# Velocity P-wave (km/s) = 5.30453 5.56050 5.43402
#
# Compressibility (1/GPa) = 0.03405993
#
# Stress axis : x y z
#
# Youngs Moduli (GPa) = 48.42904 48.42904 92.62710
#
# Poissons Ratio (x) = 0.17796 0.24742
# Poissons Ratio (y) = 0.17796 0.24742
# Poissons Ratio (z) = 0.12936 0.12936
#
# Static dielectric constant tensor:
#      x y z
#    x 2.086000 0.000000 0.000000 
#    y 0.000000 2.086000 0.000000 
#    z 0.000000 0.000000 2.039320 
# 
# From -- ./inp_files/4509.got.cif
#   From: 2010.05.17/outbox.cif.g08.bks.cpg/sg116_3_cif.got.tgz:4509.got - 2010.05.20 11:11:43.
