data_PCOD9557598
_publ_section_title
;
Structure prediction by ZEFSAII (Michael W. Deem and Ramdas Pophale) SiO2 
 PCOD9557598
Probable space group: P -4 C 2
;
_chemical_formula_sum "Si O2"
_cell_formula_units_Z 52
_cell_length_a 18.781260
_cell_length_b 18.781260
_cell_length_c 8.433200
_cell_angle_alpha 90.000000
_cell_angle_beta 90.000000
_cell_angle_gamma 90.000000
_cell_volume 2974.690935
_symmetry_space_group_name_H-M "P -4 C 2"
_symmetry_group_IT_number 116
_symmetry_cell_setting 'tetragonal'
loop_
_space_group_symop_operation_xyz
x,y,z
y,-x,-z
-x,-y,z
-y,x,-z
y,x,1/2-z
-y,-x,1/2-z
-x,y,1/2+z
x,-y,1/2+z
loop_
_atom_site_type_symbol
_atom_site_label
_atom_site_fract_x
_atom_site_fract_y
_atom_site_fract_z
Si Si1 0.790227 0.158554 0.591502
Si Si2 0.277447 0.964956 0.391707
Si Si3 0.717926 0.282075 0.750000
Si Si4 0.560018 0.939819 0.918609
Si Si5 0.606137 0.787415 0.447678
Si Si6 0.892826 0.266484 0.453862
Si Si7 0.499208 0.161528 0.676431
O O1 0.839351 0.160650 0.750000
O O2 0.762790 0.086469 0.515547
O O3 0.723699 0.208134 0.649457
O O4 0.835001 0.203568 0.463410
O O5 0.361047 0.968593 0.434027
O O6 0.251992 0.045397 0.417127
O O7 0.271233 0.930802 0.216913
O O8 0.724131 0.346513 0.626837
O O9 0.549053 0.900791 0.751487
O O10 0.500000 0.000000 0.933878
O O11 0.545792 0.878189 0.045133
O O12 0.662967 0.848907 0.494976
O O13 0.553652 0.780737 0.598391
O O14 0.552718 0.810882 0.308801
#
# Coordination Sequence:
#
# PCOD9557598 Si02
#       7
#     8   8   4   8   8   8   8
#     4   9  20  38  55  75 101 139 189 250 288 335
#     4  12  22  35  55  76 110 148 190 239 287 338
#     4   8  18  34  60  70 104 142 196 232 278 336
#     4  11  22  29  47  72 109 152 180 218 262 343
#     4  10  19  37  50  78 107 150 184 231 281 328
#     4  11  23  34  53  80 104 144 195 234 288 342
#     4  10  20  32  46  71 112 140 182 219 272 328
#
# _framework density 17.480806999999999
#
# number of rings (size 3 to 8) (size 9 to 14) (size 15 to 20)
#    0.462    1.231    1.538    4.615    4.308    0.000 
#    0.000    0.000    0.000    0.462    0.000    3.231 
#    0.000    1.846    0.000    0.000    0.000    0.000 
#
# Total GULP energy -289700.535832 kJ/mol
# GULP energy per Si atom -5571.164151 kJ/mol
# Density = 1.744102 g / cm^3
# Si number density = 17.480807 Si / 1000 Ang^3
#
#
#
# Elastic Constant Matrix: (Units=GPa)
#
#
# Indices 1 2 3 4 5 6 
#
# 1 51.9955 26.6356 14.1012 0.0000 0.0000 0.0000
# 2 26.6356 51.9953 14.1013 0.0000 0.0000 0.0000
# 3 14.1012 14.1013 73.2488 0.0000 0.0000 0.0000
# 4 0.0000 0.0000 0.0000 24.8138 0.0000 0.0000
# 5 0.0000 0.0000 0.0000 0.0000 24.8137 0.0000
# 6 0.0000 0.0000 0.0000 0.0000 0.0000 11.6038
#
#
#
# Elastic Compliance Matrix: (Units=1/GPa)
#
#
# Indices 1 2 3 4 5 6 
#
# 1 0.026547 -0.012886 -0.002630 0.000000 0.000000 0.000000
# 2 -0.012886 0.026547 -0.002630 0.000000 0.000000 0.000000
# 3 -0.002630 -0.002630 0.014665 0.000000 0.000000 0.000000
# 4 0.000000 0.000000 0.000000 0.040300 0.000000 0.000000
# 5 0.000000 0.000000 0.000000 0.000000 0.040300 0.000000
# 6 0.000000 0.000000 0.000000 0.000000 0.000000 0.086179
#
#
# Mechanical properties :
#
#
# Convention : Reuss Voigt Hill
#
# Bulk Modulus (GPa) = 31.77943 31.87955 31.82949
# Shear Modulus (GPa) = 17.77352 20.40635 19.08993
#
# Velocity S-wave (km/s) = 3.19210 3.42037 3.30820
# Velocity P-wave (km/s) = 5.63960 5.82023 5.73063
#
# Compressibility (1/GPa) = 0.03146690
#
# Stress axis : x y z
#
# Youngs Moduli (GPa) = 37.66960 37.66935 68.19111
#
# Poissons Ratio (x) = 0.48540 0.17933
# Poissons Ratio (y) = 0.48540 0.17934
# Poissons Ratio (z) = 0.09906 0.09907
#
# Static dielectric constant tensor:
#      x y z
#    x 1.604940 0.000000 0.000000 
#    y 0.000000 1.604940 0.000000 
#    z 0.000000 0.000000 1.665430 
# 
# From -- ./inp_files/1006.got.cif
#   From: 2010.05.17/outbox.cif.g08.bks.cpg/sg116_1_cif.got.tgz:1006.got - 2010.05.20 11:11:43.
