data_PCOD9557776
_publ_section_title
;
Structure prediction by ZEFSAII (Michael W. Deem and Ramdas Pophale) SiO2 
 PCOD9557776
Probable space group: P -4 C 2
;
_chemical_formula_sum "Si O2"
_cell_formula_units_Z 40
_cell_length_a 8.735935
_cell_length_b 8.735935
_cell_length_c 24.667360
_cell_angle_alpha 90.000000
_cell_angle_beta 90.000000
_cell_angle_gamma 90.000000
_cell_volume 1882.528067
_symmetry_space_group_name_H-M "P -4 C 2"
_symmetry_group_IT_number 116
_symmetry_cell_setting 'tetragonal'
loop_
_space_group_symop_operation_xyz
x,y,z
y,-x,-z
-x,-y,z
-y,x,-z
y,x,1/2-z
-y,-x,1/2-z
-x,y,1/2+z
x,-y,1/2+z
loop_
_atom_site_type_symbol
_atom_site_label
_atom_site_fract_x
_atom_site_fract_y
_atom_site_fract_z
Si Si1 0.915051 0.255153 0.704422
Si Si2 0.674143 0.461282 0.082382
Si Si3 0.787478 0.845673 0.415700
Si Si4 0.085475 0.338021 0.505505
Si Si5 0.586609 0.243354 0.296486
O O1 0.860714 0.139287 0.750000
O O2 0.889787 0.180556 0.645569
O O3 0.810484 0.409739 0.708649
O O4 0.088580 0.313727 0.708837
O O5 0.500000 0.500000 0.070886
O O6 0.769958 0.618529 0.085040
O O7 0.751414 0.361226 0.035231
O O8 0.690711 0.390911 0.142727
O O9 0.897432 0.728262 0.445787
O O10 0.772363 0.990450 0.455135
O O11 0.000000 0.500000 0.503824
O O12 0.639898 0.360103 0.250000
#
# Coordination Sequence:
#
# PCOD9557776 Si02
#       5
#     8   8   8   8   8
#     4  10  22  44  64  91 135 173 211 272 332 380
#     4  10  22  37  66  97 128 164 218 276 331 383
#     4  10  22  42  65  90 133 174 210 272 334 391
#     4  10  22  42  64  94 134 170 219 270 333 400
#     4  10  22  41  64  94 126 170 220 271 322 389
#
# _framework density 21.248023
#
# number of rings (size 3 to 8) (size 9 to 14) (size 15 to 20)
#    0.000    2.000    2.000    0.000   11.200    0.800 
#    7.200    2.000    0.000    0.000    0.000    0.000 
#    0.000    0.000    0.000    0.000    0.000    0.000 
#
# Total GULP energy -223693.836759 kJ/mol
# GULP energy per Si atom -5592.345919 kJ/mol
# Density = 2.119966 g / cm^3
# Si number density = 21.248023 Si / 1000 Ang^3
#
#
#
# Elastic Constant Matrix: (Units=GPa)
#
#
# Indices 1 2 3 4 5 6 
#
# 1 64.0166 22.3988 41.4643 0.0000 0.0000 0.0000
# 2 22.3988 64.0167 41.4638 0.0000 0.0000 0.0000
# 3 41.4643 41.4638 146.8892 0.0000 0.0000 0.0000
# 4 0.0000 0.0000 0.0000 19.5132 0.0000 0.0000
# 5 0.0000 0.0000 0.0000 0.0000 19.5132 0.0000
# 6 0.0000 0.0000 0.0000 0.0000 0.0000 26.4180
#
#
#
# Elastic Compliance Matrix: (Units=1/GPa)
#
#
# Indices 1 2 3 4 5 6 
#
# 1 0.019950 -0.004078 -0.004480 0.000000 0.000000 0.000000
# 2 -0.004078 0.019950 -0.004480 0.000000 0.000000 0.000000
# 3 -0.004480 -0.004480 0.009337 0.000000 0.000000 0.000000
# 4 0.000000 0.000000 0.000000 0.051247 0.000000 0.000000
# 5 0.000000 0.000000 0.000000 0.000000 0.051247 0.000000
# 6 0.000000 0.000000 0.000000 0.000000 0.000000 0.037853
#
#
# Mechanical properties :
#
#
# Convention : Reuss Voigt Hill
#
# Bulk Modulus (GPa) = 43.17936 53.95292 48.56614
# Shear Modulus (GPa) = 22.38321 24.39525 23.38923
#
# Velocity S-wave (km/s) = 3.24917 3.39207 3.32139
# Velocity P-wave (km/s) = 5.86872 6.38659 6.13313
#
# Compressibility (1/GPa) = 0.02315921
#
# Stress axis : x y z
#
# Youngs Moduli (GPa) = 50.12574 50.12606 107.09841
#
# Poissons Ratio (x) = 0.20443 0.47983
# Poissons Ratio (y) = 0.20443 0.47982
# Poissons Ratio (z) = 0.22458 0.22457
#
# Static dielectric constant tensor:
#      x y z
#    x 1.766260 0.000000 0.000000 
#    y 0.000000 1.766260 0.000000 
#    z 0.000000 0.000000 1.730850 
# 
# From -- ./inp_files/4434.got.cif
#   From: 2010.05.17/outbox.cif.g08.bks.cpg/sg116_3_cif.got.tgz:4434.got - 2010.05.20 11:11:43.
