data_PCOD9557796
_publ_section_title
;
Structure prediction by ZEFSAII (Michael W. Deem and Ramdas Pophale) SiO2 
 PCOD9557796
Probable space group: P -4 C 2
;
_chemical_formula_sum "Si O2"
_cell_formula_units_Z 22
_cell_length_a 8.703519
_cell_length_b 8.703519
_cell_length_c 12.196310
_cell_angle_alpha 90.000000
_cell_angle_beta 90.000000
_cell_angle_gamma 90.000000
_cell_volume 923.885642
_symmetry_space_group_name_H-M "P -4 C 2"
_symmetry_group_IT_number 116
_symmetry_cell_setting 'tetragonal'
loop_
_space_group_symop_operation_xyz
x,y,z
y,-x,-z
-x,-y,z
-y,x,-z
y,x,1/2-z
-y,-x,1/2-z
-x,y,1/2+z
x,-y,1/2+z
loop_
_atom_site_type_symbol
_atom_site_label
_atom_site_fract_x
_atom_site_fract_y
_atom_site_fract_z
Si Si1 0.438223 0.293353 0.063809
Si Si2 0.672350 0.672350 0.750000
Si Si3 0.942260 0.329565 0.077521
Si Si4 0.000000 0.000000 0.000000
O O1 0.515578 0.313552 0.180731
O O2 0.320150 0.426702 0.028116
O O3 0.366080 0.129271 0.042655
O O4 0.696587 0.802845 0.839585
O O5 0.000000 0.500000 0.112128
O O6 0.022293 0.162924 0.065299
#
# Coordination Sequence:
#
# PCOD9557796 Si02
#       4
#     8   4   8   2
#     4   9  19  37  63  98 138 183 236 292 354 424
#     4  10  22  40  70 108 142 191 248 293 358 438
#     4  11  24  44  69 101 147 193 235 300 366 422
#     4  12  28  50  72 104 152 190 240 302 360 432
#
# _framework density 23.812470999999999
#
# number of rings (size 3 to 8) (size 9 to 14) (size 15 to 20)
#    0.000    1.818    0.000    4.364    0.000   16.727 
#    0.000    3.636    0.000    0.000    0.000    0.000 
#    0.000    0.000    0.000    0.000    0.000    0.000 
#
# Total GULP energy -122528.682875 kJ/mol
# GULP energy per Si atom -5569.485585 kJ/mol
# Density = 2.375827 g / cm^3
# Si number density = 23.812471 Si / 1000 Ang^3
#
#
#
# Elastic Constant Matrix: (Units=GPa)
#
#
# Indices 1 2 3 4 5 6 
#
# 1 95.3636 36.1158 17.5157 0.0000 0.0000 0.0000
# 2 36.1158 95.3636 17.5157 0.0000 0.0000 0.0000
# 3 17.5157 17.5157 93.1537 0.0000 0.0000 0.0000
# 4 0.0000 0.0000 0.0000 21.7264 0.0000 0.0000
# 5 0.0000 0.0000 0.0000 0.0000 21.7264 0.0000
# 6 0.0000 0.0000 0.0000 0.0000 0.0000 30.3894
#
#
#
# Elastic Compliance Matrix: (Units=1/GPa)
#
#
# Indices 1 2 3 4 5 6 
#
# 1 0.012443 -0.004436 -0.001506 0.000000 0.000000 0.000000
# 2 -0.004436 0.012443 -0.001506 0.000000 0.000000 0.000000
# 3 -0.001506 -0.001506 0.011301 0.000000 0.000000 0.000000
# 4 0.000000 0.000000 0.000000 0.046027 0.000000 0.000000
# 5 0.000000 0.000000 0.000000 0.000000 0.046027 0.000000
# 6 0.000000 0.000000 0.000000 0.000000 0.000000 0.032906
#
#
# Mechanical properties :
#
#
# Convention : Reuss Voigt Hill
#
# Bulk Modulus (GPa) = 46.96433 47.35281 47.15857
# Shear Modulus (GPa) = 27.30190 28.95070 28.12630
#
# Velocity S-wave (km/s) = 3.38973 3.49059 3.44053
# Velocity P-wave (km/s) = 5.92332 6.01452 5.96910
#
# Compressibility (1/GPa) = 0.02129276
#
# Stress axis : x y z
#
# Youngs Moduli (GPa) = 80.36927 80.36927 88.48679
#
# Poissons Ratio (x) = 0.35649 0.13322
# Poissons Ratio (y) = 0.35649 0.13322
# Poissons Ratio (z) = 0.12100 0.12100
#
# Static dielectric constant tensor:
#      x y z
#    x 2.043100 0.000000 0.000000 
#    y 0.000000 2.043100 0.000000 
#    z 0.000000 0.000000 1.875070 
# 
# From -- ./inp_files/2299.got.cif
#   From: 2010.05.17/outbox.cif.g08.bks.cpg/sg116_2_cif.got.tgz:2299.got - 2010.05.20 11:11:43.
