data_PCOD9557386
_publ_section_title
;
Structure prediction by ZEFSAII (Michael W. Deem and Ramdas Pophale) SiO2 
 PCOD9557386
Probable space group: P -4 M 2
;
_chemical_formula_sum "Si O2"
_cell_formula_units_Z 34
_cell_length_a 7.906689
_cell_length_b 7.906689
_cell_length_c 27.094180
_cell_angle_alpha 90.000000
_cell_angle_beta 90.000000
_cell_angle_gamma 90.000000
_cell_volume 1693.812467
_symmetry_space_group_name_H-M "P -4 M 2"
_symmetry_group_IT_number 115
_symmetry_cell_setting 'tetragonal'
loop_
_space_group_symop_operation_xyz
x,y,z
y,-x,-z
-x,-y,z
-y,x,-z
y,x,-z
-y,-x,-z
-x,y,z
x,-y,z
loop_
_atom_site_type_symbol
_atom_site_label
_atom_site_fract_x
_atom_site_fract_y
_atom_site_fract_z
Si Si1 0.000000 0.684738 0.719266
Si Si2 0.306801 0.704921 0.055274
Si Si3 0.705332 0.000000 0.871825
Si Si4 0.298861 0.804704 0.445235
Si Si5 0.802496 0.313962 0.341812
Si Si6 0.000000 0.000000 0.792525
O O1 0.163311 0.704845 0.684375
O O2 0.000000 0.500000 0.742766
O O3 0.000000 0.834458 0.758420
O O4 0.500000 0.766207 0.064151
O O5 0.315368 0.500000 0.054146
O O6 0.167038 0.747240 0.095819
O O7 0.247898 0.752103 0.000000
O O8 0.829324 0.000000 0.825230
O O9 0.500000 0.000000 0.861895
O O10 0.255949 0.744052 0.500000
O O11 0.500000 0.793221 0.438443
O O12 0.214376 0.704048 0.400781
O O13 0.246234 0.000000 0.440698
O O14 0.742341 0.500000 0.326894
O O15 0.000000 0.297543 0.328794
#
# Coordination Sequence:
#
# PCOD9557386 Si02
#       6
#     4   8   4   8   8   2
#     4  12  26  48  72  93 122 160 211 273 332 388
#     4   8  15  31  57  90 129 171 213 255 301 362
#     4  10  22  39  61  89 126 170 210 259 318 377
#     4  11  23  37  56  89 131 172 210 247 297 369
#     4  11  23  42  70  98 126 163 206 257 321 387
#     4  12  28  46  63  92 125 156 214 272 332 384
#
# _framework density 20.073062
#
# number of rings (size 3 to 8) (size 9 to 14) (size 15 to 20)
#    0.000    1.647    2.353    2.824    0.000    8.941 
#    0.000    1.176    0.000    0.000    0.000    0.000 
#    0.000    0.000    0.000    0.000    0.000    0.000 
#
# Total GULP energy -189975.713541 kJ/mol
# GULP energy per Si atom -5587.520987 kJ/mol
# Density = 2.002738 g / cm^3
# Si number density = 20.073062 Si / 1000 Ang^3
#
#
#
# Elastic Constant Matrix: (Units=GPa)
#
#
# Indices 1 2 3 4 5 6 
#
# 1 106.2294 43.7353 46.6823 0.0000 0.0000 0.0000
# 2 43.7353 106.2305 46.6819 0.0000 0.0000 0.0000
# 3 46.6823 46.6819 104.2600 0.0000 0.0000 0.0000
# 4 0.0000 0.0000 0.0000 180.0970 0.0000 0.0000
# 5 0.0000 0.0000 0.0000 0.0000 180.0712 0.0000
# 6 0.0000 0.0000 0.0000 0.0000 0.0000 50.6057
#
#
#
# Elastic Compliance Matrix: (Units=1/GPa)
#
#
# Indices 1 2 3 4 5 6 
#
# 1 0.012623 -0.003378 -0.004140 0.000000 0.000000 0.000000
# 2 -0.003378 0.012623 -0.004140 0.000000 0.000000 0.000000
# 3 -0.004140 -0.004140 0.013298 0.000000 0.000000 0.000000
# 4 0.000000 0.000000 0.000000 0.005553 0.000000 0.000000
# 5 0.000000 0.000000 0.000000 0.000000 0.005553 0.000000
# 6 0.000000 0.000000 0.000000 0.000000 0.000000 0.019761
#
#
# Mechanical properties :
#
#
# Convention : Reuss Voigt Hill
#
# Bulk Modulus (GPa) = 65.65642 65.65765 65.65704
# Shear Modulus (GPa) = 51.12318 94.12948 72.62633
#
# Velocity S-wave (km/s) = 5.05211 6.85531 6.02159
# Velocity P-wave (km/s) = 8.17383 9.76937 9.00700
#
# Compressibility (1/GPa) = 0.01523080
#
# Stress axis : x y z
#
# Youngs Moduli (GPa) = 79.21741 79.21870 75.19702
#
# Poissons Ratio (x) = 0.26760 0.31129
# Poissons Ratio (y) = 0.26759 0.31128
# Poissons Ratio (z) = 0.32793 0.32793
#
# Static dielectric constant tensor:
#      x y z
#    x 1.713750 0.000000 0.000000 
#    y 0.000000 1.713750 0.000000 
#    z 0.000000 0.000000 1.683580 
# 
# From -- ./inp_files/4713.got.cif
#   From: 2010.05.17/outbox.cif.g08.bks.cpg/sg115_3_cif.got.tgz:4713.got - 2010.05.20 11:07:42.
