data_PCOD9557027
_publ_section_title
;
Structure prediction by ZEFSAII (Michael W. Deem and Ramdas Pophale) SiO2 
 PCOD9557027
Probable space group: P -4 M 2
;
_chemical_formula_sum "Si O2"
_cell_formula_units_Z 40
_cell_length_a 7.959526
_cell_length_b 7.959526
_cell_length_c 30.802717
_cell_angle_alpha 90.000000
_cell_angle_beta 90.000000
_cell_angle_gamma 90.000000
_cell_volume 1951.477001
_symmetry_space_group_name_H-M "P -4 M 2"
_symmetry_group_IT_number 115
_symmetry_cell_setting 'tetragonal'
loop_
_space_group_symop_operation_xyz
x,y,z
y,-x,-z
-x,-y,z
-y,x,-z
y,x,-z
-y,-x,-z
-x,y,z
x,-y,z
loop_
_atom_site_type_symbol
_atom_site_label
_atom_site_fract_x
_atom_site_fract_y
_atom_site_fract_z
Si Si1 0.796371 0.688784 0.047709
Si Si2 0.000000 0.702346 0.793369
Si Si3 0.811479 0.200476 0.454569
Si Si4 0.705357 0.695945 0.266343
Si Si5 0.310825 0.700193 0.638079
Si Si6 0.202577 0.000000 0.106351
O O1 0.751405 0.500000 0.061652
O O2 0.000000 0.698076 0.044507
O O3 0.739405 0.833792 0.080640
O O4 0.725004 0.725004 0.000000
O O5 0.168604 0.763657 0.768864
O O6 0.000000 0.500000 0.789592
O O7 0.000000 0.746175 0.843776
O O8 0.733172 0.266829 0.500000
O O9 0.732344 0.224805 0.407666
O O10 0.000000 0.269342 0.450476
O O11 0.818685 0.000000 0.461463
O O12 0.500000 0.695118 0.265030
O O13 0.756332 0.500000 0.260120
O O14 0.759041 0.754286 0.314962
O O15 0.500000 0.767005 0.634238
O O16 0.318442 0.500000 0.642301
O O17 0.000000 0.000000 0.104651
#
# Coordination Sequence:
#
# PCOD9557027 Si02
#       6
#     8   4   8   8   8   4
#     4  10  20  36  61  87 115 156 201 242 290 348
#     4  10  20  34  56  80 104 146 192 228 276 341
#     4   9  19  34  48  66  97 133 166 204 255 319
#     4   8  16  32  52  76 105 135 176 233 284 328
#     4   9  18  32  51  75  99 125 166 219 269 320
#     4  10  22  38  56  82 124 158 188 240 296 337
#
# _framework density 20.497294
#
# number of rings (size 3 to 8) (size 9 to 14) (size 15 to 20)
#    0.000    2.800    1.000    1.800    1.400    3.400 
#    0.000    4.000    0.000    1.200    0.000    0.000 
#    0.000    0.000    0.000    0.000    0.000    0.000 
#
# Total GULP energy -222833.482580 kJ/mol
# GULP energy per Si atom -5570.837064 kJ/mol
# Density = 2.045064 g / cm^3
# Si number density = 20.497294 Si / 1000 Ang^3
#
#
#
# Elastic Constant Matrix: (Units=GPa)
#
#
# Indices 1 2 3 4 5 6 
#
# 1 56.2072 27.5887 58.4827 0.0000 0.0000 0.0000
# 2 27.5887 56.2072 58.4827 0.0000 0.0000 0.0000
# 3 58.4827 58.4827 205.5078 0.0000 0.0000 0.0000
# 4 0.0000 0.0000 0.0000 29.4640 0.0000 0.0000
# 5 0.0000 0.0000 0.0000 0.0000 29.4640 0.0000
# 6 0.0000 0.0000 0.0000 0.0000 0.0000 10.0921
#
#
#
# Elastic Compliance Matrix: (Units=1/GPa)
#
#
# Indices 1 2 3 4 5 6 
#
# 1 0.027370 -0.007572 -0.005634 0.000000 0.000000 0.000000
# 2 -0.007572 0.027370 -0.005634 0.000000 0.000000 0.000000
# 3 -0.005634 -0.005634 0.008073 0.000000 0.000000 0.000000
# 4 0.000000 0.000000 0.000000 0.033940 0.000000 0.000000
# 5 0.000000 0.000000 0.000000 0.000000 0.033940 0.000000
# 6 0.000000 0.000000 0.000000 0.000000 0.000000 0.099087
#
#
# Mechanical properties :
#
#
# Convention : Reuss Voigt Hill
#
# Bulk Modulus (GPa) = 39.78932 67.44780 53.61856
# Shear Modulus (GPa) = 18.12662 25.36191 21.74426
#
# Velocity S-wave (km/s) = 2.97702 3.52139 3.26058
# Velocity P-wave (km/s) = 5.59204 7.03638 6.35538
#
# Compressibility (1/GPa) = 0.02513237
#
# Stress axis : x y z
#
# Youngs Moduli (GPa) = 36.53616 36.53613 123.87562
#
# Poissons Ratio (x) = 0.27666 0.69792
# Poissons Ratio (y) = 0.27666 0.69792
# Poissons Ratio (z) = 0.20585 0.20585
#
# Static dielectric constant tensor:
#      x y z
#    x 1.752470 0.000000 0.000000 
#    y 0.000000 1.752470 0.000000 
#    z 0.000000 0.000000 1.736690 
# 
# From -- ./inp_files/5486.got.cif
#   From: 2010.05.17/outbox.cif.g08.bks.cpg/sg115_3_cif.got.tgz:5486.got - 2010.05.20 11:07:42.
