data_PCOD9557669
_publ_section_title
;
Structure prediction by ZEFSAII (Michael W. Deem and Ramdas Pophale) SiO2 
 PCOD9557669
Probable space group: P -4 C 2
;
_chemical_formula_sum "Si O2"
_cell_formula_units_Z 54
_cell_length_a 15.405650
_cell_length_b 15.405650
_cell_length_c 10.708607
_cell_angle_alpha 90.000000
_cell_angle_beta 90.000000
_cell_angle_gamma 90.000000
_cell_volume 2541.517090
_symmetry_space_group_name_H-M "P -4 C 2"
_symmetry_group_IT_number 116
_symmetry_cell_setting 'tetragonal'
loop_
_space_group_symop_operation_xyz
x,y,z
y,-x,-z
-x,-y,z
-y,x,-z
y,x,1/2-z
-y,-x,1/2-z
-x,y,1/2+z
x,-y,1/2+z
loop_
_atom_site_type_symbol
_atom_site_label
_atom_site_fract_x
_atom_site_fract_y
_atom_site_fract_z
Si Si1 0.382606 0.433333 0.489111
Si Si2 0.328753 0.328753 0.250000
Si Si3 0.047662 0.734179 0.743516
Si Si4 0.000000 0.000000 0.500000
Si Si5 0.150206 0.574360 0.782523
Si Si6 0.861517 0.130260 0.928324
Si Si7 0.562433 0.810897 0.933284
Si Si8 0.145460 0.248925 0.663158
O O1 0.401812 0.530922 0.441342
O O2 0.370834 0.369584 0.372947
O O3 0.293957 0.434614 0.565682
O O4 0.355958 0.228678 0.239110
O O5 0.065463 0.633549 0.769013
O O6 0.095928 0.794205 0.844865
O O7 0.094082 0.769145 0.617340
O O8 0.945699 0.751185 0.735398
O O9 0.072677 0.049831 0.421853
O O10 0.157639 0.502562 0.674718
O O11 0.161615 0.539120 0.923956
O O12 0.856838 0.171042 0.064111
O O13 0.659198 0.844229 0.904980
O O14 0.227282 0.227282 0.750000
#
# Coordination Sequence:
#
# PCOD9557669 Si02
#       8
#     8   4   8   2   8   8   8   8
#     4  10  21  38  63  98 135 170 222 281 350 420
#     4  10  20  39  64  92 135 176 224 278 354 426
#     4  11  25  43  72  96 144 195 235 298 368 436
#     4  12  20  38  68 108 154 176 238 308 364 442
#     4  11  24  48  72 103 139 192 247 292 367 434
#     4  11  23  42  69 106 145 191 235 299 372 445
#     4  11  26  47  72 103 140 190 241 297 361 441
#     4  12  27  45  69 109 144 185 242 304 363 443
#
# _framework density 21.247153000000001
#
# number of rings (size 3 to 8) (size 9 to 14) (size 15 to 20)
#    0.000    1.037    4.444    1.778    2.074    5.926 
#    0.000    1.481    0.000    0.000    0.000    0.000 
#    0.000    0.000    0.000    0.000    0.000    0.000 
#
# Total GULP energy -301746.035923 kJ/mol
# GULP energy per Si atom -5587.889554 kJ/mol
# Density = 2.119879 g / cm^3
# Si number density = 21.247153 Si / 1000 Ang^3
#
#
#
# Elastic Constant Matrix: (Units=GPa)
#
#
# Indices 1 2 3 4 5 6 
#
# 1 63.3146 19.0371 28.3811 0.0000 0.0000 0.0000
# 2 19.0371 63.3146 28.3811 0.0000 0.0000 0.0000
# 3 28.3811 28.3811 90.1138 0.0000 0.0000 0.0000
# 4 0.0000 0.0000 0.0000 20.5041 0.0000 0.0000
# 5 0.0000 0.0000 0.0000 0.0000 20.5041 0.0000
# 6 0.0000 0.0000 0.0000 0.0000 0.0000 34.4551
#
#
#
# Elastic Compliance Matrix: (Units=1/GPa)
#
#
# Indices 1 2 3 4 5 6 
#
# 1 0.019047 -0.003537 -0.004885 0.000000 0.000000 0.000000
# 2 -0.003537 0.019047 -0.004885 0.000000 0.000000 0.000000
# 3 -0.004885 -0.004885 0.014174 0.000000 0.000000 0.000000
# 4 0.000000 0.000000 0.000000 0.048771 0.000000 0.000000
# 5 0.000000 0.000000 0.000000 0.000000 0.048771 0.000000
# 6 0.000000 0.000000 0.000000 0.000000 0.000000 0.029023
#
#
# Mechanical properties :
#
#
# Convention : Reuss Voigt Hill
#
# Bulk Modulus (GPa) = 38.97928 40.92685 39.95306
# Shear Modulus (GPa) = 23.36459 24.48893 23.92676
#
# Velocity S-wave (km/s) = 3.31971 3.39864 3.35941
# Velocity P-wave (km/s) = 5.75147 5.89110 5.82171
#
# Compressibility (1/GPa) = 0.02565466
#
# Stress axis : x y z
#
# Youngs Moduli (GPa) = 52.50063 52.50063 70.55167
#
# Poissons Ratio (x) = 0.18572 0.34463
# Poissons Ratio (y) = 0.18572 0.34463
# Poissons Ratio (z) = 0.25646 0.25646
#
# Static dielectric constant tensor:
#      x y z
#    x 1.768770 0.000000 0.000000 
#    y 0.000000 1.768770 0.000000 
#    z 0.000000 0.000000 1.788000 
# 
# From -- ./inp_files/2020.got.cif
#   From: 2010.05.17/outbox.cif.g08.bks.cpg/sg116_2_cif.got.tgz:2020.got - 2010.05.20 11:11:43.
