data_PCOD9557293
_publ_section_title
;
Structure prediction by ZEFSAII (Michael W. Deem and Ramdas Pophale) SiO2 
 PCOD9557293
Probable space group: P -4 M 2
;
_chemical_formula_sum "Si O2"
_cell_formula_units_Z 33
_cell_length_a 11.678069
_cell_length_b 11.678069
_cell_length_c 12.306282
_cell_angle_alpha 90.000000
_cell_angle_beta 90.000000
_cell_angle_gamma 90.000000
_cell_volume 1678.297458
_symmetry_space_group_name_H-M "P -4 M 2"
_symmetry_group_IT_number 115
_symmetry_cell_setting 'tetragonal'
loop_
_space_group_symop_operation_xyz
x,y,z
y,-x,-z
-x,-y,z
-y,x,-z
y,x,-z
-y,-x,-z
-x,y,z
x,-y,z
loop_
_atom_site_type_symbol
_atom_site_label
_atom_site_fract_x
_atom_site_fract_y
_atom_site_fract_z
Si Si1 0.000000 0.367881 0.945393
Si Si2 0.000000 0.000000 0.500000
Si Si3 0.843382 0.000000 0.930760
Si Si4 0.626034 0.373966 0.500000
Si Si5 0.367860 0.789948 0.702985
Si Si6 0.741914 0.362885 0.889848
Si Si7 0.193457 0.000000 0.687448
O O1 0.880185 0.344540 0.884112
O O2 0.000000 0.500000 0.974946
O O3 0.000000 0.291556 0.053149
O O4 0.891136 0.000000 0.583292
O O5 0.871422 0.000000 0.804411
O O6 0.895138 0.104863 0.000000
O O7 0.500000 0.366408 0.447080
O O8 0.633265 0.278164 0.590066
O O9 0.500000 0.824901 0.725991
O O10 0.322379 0.703063 0.794272
O O11 0.277595 0.891573 0.691084
O O12 0.722615 0.500000 0.888251
O O13 0.691799 0.308202 0.000000
#
# Coordination Sequence:
#
# PCOD9557293 Si02
#       7
#     4   1   4   4   8   8   4
#     4  10  21  37  56  86 128 167 204 247 301 367
#     4  12  28  48  66  92 124 164 212 262 316 380
#     4  11  22  38  61  86 111 151 202 244 289 350
#     4   9  19  38  63  87 114 154 202 249 299 358
#     4  11  23  40  63  91 123 159 203 256 314 376
#     4  11  23  38  60  91 128 169 212 261 318 379
#     4  12  25  42  65  90 122 160 202 253 313 374
#
# _framework density 19.662785
#
# number of rings (size 3 to 8) (size 9 to 14) (size 15 to 20)
#    0.000    1.212    0.000    6.909    0.000    6.545 
#    0.000    1.212    0.000    2.909    0.000    0.000 
#    0.000    0.000    0.000    0.000    0.000    0.000 
#
# Total GULP energy -184284.929475 kJ/mol
# GULP energy per Si atom -5584.391802 kJ/mol
# Density = 1.961803 g / cm^3
# Si number density = 19.662785 Si / 1000 Ang^3
#
#
#
# Elastic Constant Matrix: (Units=GPa)
#
#
# Indices 1 2 3 4 5 6 
#
# 1 133.7180 69.2446 55.8205 0.0000 0.0000 0.0000
# 2 69.2446 133.7174 55.8210 0.0000 0.0000 0.0000
# 3 55.8205 55.8210 114.6126 0.0000 0.0000 0.0000
# 4 0.0000 0.0000 0.0000 28.6608 0.0000 0.0000
# 5 0.0000 0.0000 0.0000 0.0000 28.6609 0.0000
# 6 0.0000 0.0000 0.0000 0.0000 0.0000 35.0281
#
#
#
# Elastic Compliance Matrix: (Units=1/GPa)
#
#
# Indices 1 2 3 4 5 6 
#
# 1 0.011120 -0.004390 -0.003278 0.000000 0.000000 0.000000
# 2 -0.004390 0.011120 -0.003278 0.000000 0.000000 0.000000
# 3 -0.003278 -0.003278 0.011918 0.000000 0.000000 0.000000
# 4 0.000000 0.000000 0.000000 0.034891 0.000000 0.000000
# 5 0.000000 0.000000 0.000000 0.000000 0.034891 0.000000
# 6 0.000000 0.000000 0.000000 0.000000 0.000000 0.028548
#
#
# Mechanical properties :
#
#
# Convention : Reuss Voigt Hill
#
# Bulk Modulus (GPa) = 81.52112 82.64671 82.08392
# Shear Modulus (GPa) = 31.55198 31.88075 31.71636
#
# Velocity S-wave (km/s) = 4.01016 4.03100 4.02059
# Velocity P-wave (km/s) = 7.93672 7.98677 7.96178
#
# Compressibility (1/GPa) = 0.01226676
#
# Stress axis : x y z
#
# Youngs Moduli (GPa) = 89.92715 89.92624 83.90782
#
# Poissons Ratio (x) = 0.39479 0.27503
# Poissons Ratio (y) = 0.39480 0.27504
# Poissons Ratio (z) = 0.29475 0.29476
#
# Static dielectric constant tensor:
#      x y z
#    x 1.720200 0.000000 0.000000 
#    y 0.000000 1.720190 0.000000 
#    z 0.000000 0.000000 1.663380 
# 
# From -- ./inp_files/2687.got.cif
#   From: 2010.05.17/outbox.cif.g08.bks.cpg/sg115_2_cif.got.tgz:2687.got - 2010.05.20 11:07:42.
