data_PCOD9557537
_publ_section_title
;
Structure prediction by ZEFSAII (Michael W. Deem and Ramdas Pophale) SiO2 
 PCOD9557537
Probable space group: P -4 C 2
;
_chemical_formula_sum "Si O2"
_cell_formula_units_Z 38
_cell_length_a 14.834691
_cell_length_b 14.834691
_cell_length_c 9.800496
_cell_angle_alpha 90.000000
_cell_angle_beta 90.000000
_cell_angle_gamma 90.000000
_cell_volume 2156.776113
_symmetry_space_group_name_H-M "P -4 C 2"
_symmetry_group_IT_number 116
_symmetry_cell_setting 'tetragonal'
loop_
_space_group_symop_operation_xyz
x,y,z
y,-x,-z
-x,-y,z
-y,x,-z
y,x,1/2-z
-y,-x,1/2-z
-x,y,1/2+z
x,-y,1/2+z
loop_
_atom_site_type_symbol
_atom_site_label
_atom_site_fract_x
_atom_site_fract_y
_atom_site_fract_z
Si Si1 0.849027 0.602973 0.820561
Si Si2 0.000000 0.000000 0.750000
Si Si3 0.016434 0.809706 0.116636
Si Si4 0.896311 0.539952 0.527670
Si Si5 0.963628 0.298591 0.856763
Si Si6 0.212490 0.787511 0.250000
O O1 0.849163 0.558163 0.671640
O O2 0.790775 0.693469 0.830155
O O3 0.951024 0.638527 0.831829
O O4 0.840535 0.531478 0.939888
O O5 0.088077 0.998754 0.844523
O O6 0.120162 0.790284 0.162259
O O7 0.949781 0.747623 0.209633
O O8 0.009001 0.781647 0.960032
O O9 0.900052 0.633253 0.440213
O O10 0.000000 0.500000 0.548052
#
# Coordination Sequence:
#
# PCOD9557537 Si02
#       6
#     8   2   8   8   8   4
#     4  10  20  31  55  74 109 132 175 221 288 336
#     4  10  24  38  48  74 104 166 222 236 246 314
#     4  10  21  33  52  67 108 149 204 229 268 295
#     4  10  18  31  52  80 101 133 178 232 282 340
#     4  10  18  33  50  75  99 142 182 240 276 316
#     4   9  18  37  46  72 104 153 161 228 268 336
#
# _framework density 17.618891000000001
#
# number of rings (size 3 to 8) (size 9 to 14) (size 15 to 20)
#    0.000    2.105    4.211    1.895    2.947    5.895 
#    0.000    0.000    0.000    1.263    0.000    0.000 
#    0.000    2.526    0.000    0.000    0.000    0.000 
#
# Total GULP energy -211725.826255 kJ/mol
# GULP energy per Si atom -5571.732270 kJ/mol
# Density = 1.757879 g / cm^3
# Si number density = 17.618891 Si / 1000 Ang^3
#
#
#
# Elastic Constant Matrix: (Units=GPa)
#
#
# Indices 1 2 3 4 5 6 
#
# 1 44.8942 22.9427 20.2991 0.0000 0.0000 0.0000
# 2 22.9427 44.8949 20.2991 0.0000 0.0000 0.0000
# 3 20.2991 20.2991 64.0395 0.0000 0.0000 0.0000
# 4 0.0000 0.0000 0.0000 19.4012 0.0000 0.0000
# 5 0.0000 0.0000 0.0000 0.0000 19.4012 0.0000
# 6 0.0000 0.0000 0.0000 0.0000 0.0000 12.0291
#
#
#
# Elastic Compliance Matrix: (Units=1/GPa)
#
#
# Indices 1 2 3 4 5 6 
#
# 1 0.031874 -0.013681 -0.005767 0.000000 0.000000 0.000000
# 2 -0.013681 0.031873 -0.005766 0.000000 0.000000 0.000000
# 3 -0.005767 -0.005766 0.019271 0.000000 0.000000 0.000000
# 4 0.000000 0.000000 0.000000 0.051543 0.000000 0.000000
# 5 0.000000 0.000000 0.000000 0.000000 0.051543 0.000000
# 6 0.000000 0.000000 0.000000 0.000000 0.000000 0.083132
#
#
# Mechanical properties :
#
#
# Convention : Reuss Voigt Hill
#
# Bulk Modulus (GPa) = 30.68482 31.21228 30.94855
# Shear Modulus (GPa) = 15.12738 16.18550 15.65644
#
# Velocity S-wave (km/s) = 2.93335 3.03420 2.98420
# Velocity P-wave (km/s) = 5.37832 5.47986 5.42933
#
# Compressibility (1/GPa) = 0.03258940
#
# Stress axis : x y z
#
# Youngs Moduli (GPa) = 31.37402 31.37460 51.89116
#
# Poissons Ratio (x) = 0.42924 0.29924
# Poissons Ratio (y) = 0.42923 0.29923
# Poissons Ratio (z) = 0.18092 0.18092
#
# Static dielectric constant tensor:
#      x y z
#    x 1.633350 0.000000 0.000000 
#    y 0.000000 1.633350 0.000000 
#    z 0.000000 0.000000 1.654150 
# 
# From -- ./inp_files/726.got.cif
#   From: 2010.05.17/outbox.cif.g08.bks.cpg/sg116_1_cif.got.tgz:726.got - 2010.05.20 11:11:43.
