data_PCOD9557374
_publ_section_title
;
Structure prediction by ZEFSAII (Michael W. Deem and Ramdas Pophale) SiO2 
 PCOD9557374
Probable space group: P -4 M 2
;
_chemical_formula_sum "Si O2"
_cell_formula_units_Z 56
_cell_length_a 14.653539
_cell_length_b 14.653539
_cell_length_c 12.411399
_cell_angle_alpha 90.000000
_cell_angle_beta 90.000000
_cell_angle_gamma 90.000000
_cell_volume 2665.052609
_symmetry_space_group_name_H-M "P -4 M 2"
_symmetry_group_IT_number 115
_symmetry_cell_setting 'tetragonal'
loop_
_space_group_symop_operation_xyz
x,y,z
y,-x,-z
-x,-y,z
-y,x,-z
y,x,-z
-y,-x,-z
-x,y,z
x,-y,z
loop_
_atom_site_type_symbol
_atom_site_label
_atom_site_fract_x
_atom_site_fract_y
_atom_site_fract_z
Si Si1 0.701717 0.599562 0.085867
Si Si2 0.604550 0.893783 0.402317
Si Si3 0.283840 0.107182 0.200084
Si Si4 0.347579 0.895735 0.961064
Si Si5 0.103785 0.208706 0.227825
Si Si6 0.212293 0.307996 0.415216
Si Si7 0.391666 0.393420 0.683338
O O1 0.673113 0.500000 0.044989
O O2 0.811482 0.599827 0.093912
O O3 0.646238 0.616512 0.195262
O O4 0.674171 0.674171 0.000000
O O5 0.500000 0.891457 0.367952
O O6 0.663065 0.853403 0.303258
O O7 0.617957 0.840225 0.513028
O O8 0.630468 0.000000 0.420728
O O9 0.177793 0.129682 0.213249
O O10 0.298098 0.000000 0.205526
O O11 0.324417 0.132369 0.083766
O O12 0.257554 0.900819 0.887950
O O13 0.386365 0.000000 0.960879
O O14 0.151246 0.276565 0.314557
O O15 0.000000 0.185163 0.259947
O O16 0.225123 0.225123 0.500000
O O17 0.313309 0.342737 0.383659
O O18 0.500000 0.393270 0.656500
O O19 0.360524 0.500000 0.673360
#
# Coordination Sequence:
#
# PCOD9557374 Si02
#       7
#     8   8   8   8   8   8   8
#     4  11  22  38  62  91 131 173 217 266 322 394
#     4  10  22  41  65  92 127 172 220 273 334 397
#     4  10  21  40  64  95 131 164 211 272 327 396
#     4  10  22  40  65  94 128 170 216 267 326 387
#     4  11  22  40  64  92 127 170 216 267 330 394
#     4  12  23  40  63  92 125 168 220 271 321 393
#     4  10  23  42  62  91 129 168 216 271 326 388
#
# _framework density 21.012720000000002
#
# number of rings (size 3 to 8) (size 9 to 14) (size 15 to 20)
#    0.000    1.429    2.857    2.571    0.000    3.000 
#    0.000    2.143    0.000    2.571    0.000    0.000 
#    0.000    0.000    0.000    0.000    0.000    0.000 
#
# Total GULP energy -312349.561123 kJ/mol
# GULP energy per Si atom -5577.670734 kJ/mol
# Density = 2.096489 g / cm^3
# Si number density = 21.012720 Si / 1000 Ang^3
#
#
#
# Elastic Constant Matrix: (Units=GPa)
#
#
# Indices 1 2 3 4 5 6 
#
# 1 73.9661 4.0229 20.0173 0.0000 0.0000 0.0000
# 2 4.0229 73.9661 20.0173 0.0000 0.0000 0.0000
# 3 20.0173 20.0173 79.6688 0.0000 0.0000 0.0000
# 4 0.0000 0.0000 0.0000 22.9298 0.0000 0.0000
# 5 0.0000 0.0000 0.0000 0.0000 22.9298 0.0000
# 6 0.0000 0.0000 0.0000 0.0000 0.0000 29.6499
#
#
#
# Elastic Compliance Matrix: (Units=1/GPa)
#
#
# Indices 1 2 3 4 5 6 
#
# 1 0.014509 0.000212 -0.003699 0.000000 0.000000 0.000000
# 2 0.000212 0.014509 -0.003699 0.000000 0.000000 0.000000
# 3 -0.003699 -0.003699 0.014411 0.000000 0.000000 0.000000
# 4 0.000000 0.000000 0.000000 0.043611 0.000000 0.000000
# 5 0.000000 0.000000 0.000000 0.000000 0.043611 0.000000
# 6 0.000000 0.000000 0.000000 0.000000 0.000000 0.033727
#
#
# Mechanical properties :
#
#
# Convention : Reuss Voigt Hill
#
# Bulk Modulus (GPa) = 34.41430 35.07954 34.74692
# Shear Modulus (GPa) = 26.53422 27.33813 26.93617
#
# Velocity S-wave (km/s) = 3.55740 3.61089 3.58425
# Velocity P-wave (km/s) = 5.76948 5.84084 5.80527
#
# Compressibility (1/GPa) = 0.02905769
#
# Stress axis : x y z
#
# Youngs Moduli (GPa) = 68.92188 68.92188 69.39313
#
# Poissons Ratio (x) = -0.01460 0.25667
# Poissons Ratio (y) = -0.01460 0.25667
# Poissons Ratio (z) = 0.25493 0.25493
#
# Static dielectric constant tensor:
#      x y z
#    x 1.797110 0.000000 0.000000 
#    y 0.000000 1.797110 0.000000 
#    z 0.000000 0.000000 1.779250 
# 
# From -- ./inp_files/3091.got.cif
#   From: 2010.05.17/outbox.cif.g08.bks.cpg/sg115_2_cif.got.tgz:3091.got - 2010.05.20 11:07:42.
