data_PCOD9557836
_publ_section_title
;
Structure prediction by ZEFSAII (Michael W. Deem and Ramdas Pophale) SiO2 
 PCOD9557836
Probable space group: P -4 C 2
;
_chemical_formula_sum "Si O2"
_cell_formula_units_Z 36
_cell_length_a 11.775828
_cell_length_b 11.775828
_cell_length_c 12.473240
_cell_angle_alpha 90.000000
_cell_angle_beta 90.000000
_cell_angle_gamma 90.000000
_cell_volume 1729.665751
_symmetry_space_group_name_H-M "P -4 C 2"
_symmetry_group_IT_number 116
_symmetry_cell_setting 'tetragonal'
loop_
_space_group_symop_operation_xyz
x,y,z
y,-x,-z
-x,-y,z
-y,x,-z
y,x,1/2-z
-y,-x,1/2-z
-x,y,1/2+z
x,-y,1/2+z
loop_
_atom_site_type_symbol
_atom_site_label
_atom_site_fract_x
_atom_site_fract_y
_atom_site_fract_z
Si Si1 0.233649 0.029318 0.125502
Si Si2 0.191256 0.363956 0.209840
Si Si3 0.500000 0.500000 0.000000
Si Si4 0.694640 0.421873 0.149442
Si Si5 0.000000 0.000000 0.750000
Si Si6 0.799988 0.759520 0.983755
O O1 0.316632 0.097629 0.206738
O O2 0.209056 0.109857 0.023136
O O3 0.113568 0.006620 0.181190
O O4 0.272934 0.905540 0.090651
O O5 0.311004 0.311004 0.250000
O O6 0.205600 0.497711 0.194029
O O7 0.177438 0.308427 0.093480
O O8 0.610881 0.495280 0.074408
O O9 0.625400 0.374601 0.250000
O O10 0.733369 0.316396 0.077202
#
# Coordination Sequence:
#
# PCOD9557836 Si02
#       6
#     8   8   2   8   2   8
#     4  11  24  42  74 105 145 186 243 303 362 439
#     4  10  22  46  69 106 144 184 243 310 354 418
#     4  12  22  44  76  98 140 188 250 300 352 434
#     4  12  26  42  75 105 140 193 247 296 363 440
#     4  12  20  42  80 100 128 190 240 298 344 440
#     4  11  24  44  69 105 142 191 235 295 367 432
#
# _framework density 20.813268000000001
#
# number of rings (size 3 to 8) (size 9 to 14) (size 15 to 20)
#    0.000    0.889    5.556    3.000    4.667    0.000 
#    0.000    6.667    0.000    0.000    0.000    0.000 
#    0.000    0.000    0.000    0.000    0.000    0.000 
#
# Total GULP energy -201184.767404 kJ/mol
# GULP energy per Si atom -5588.465761 kJ/mol
# Density = 2.076590 g / cm^3
# Si number density = 20.813268 Si / 1000 Ang^3
#
#
#
# Elastic Constant Matrix: (Units=GPa)
#
#
# Indices 1 2 3 4 5 6 
#
# 1 93.3220 49.9102 43.0518 0.0000 0.0000 0.0000
# 2 49.9102 93.3220 43.0509 0.0000 0.0000 0.0000
# 3 43.0518 43.0509 95.5428 0.0000 0.0000 0.0000
# 4 0.0000 0.0000 0.0000 -0.6409 0.0000 0.0000
# 5 0.0000 0.0000 0.0000 0.0000 -0.6301 0.0000
# 6 0.0000 0.0000 0.0000 0.0000 0.0000 24.8418
#
#
#
# Elastic Compliance Matrix: (Units=1/GPa)
#
#
# Indices 1 2 3 4 5 6 
#
# 1 0.016305 -0.006730 -0.004315 0.000000 0.000000 0.000000
# 2 -0.006730 0.016305 -0.004314 0.000000 0.000000 0.000000
# 3 -0.004315 -0.004314 0.014355 0.000000 0.000000 0.000000
# 4 0.000000 0.000000 0.000000 -1.560391 0.000000 0.000000
# 5 0.000000 0.000000 0.000000 0.000000 -1.587047 0.000000
# 6 0.000000 0.000000 0.000000 0.000000 0.000000 0.040255
#
#
# Mechanical properties :
#
#
# Convention : Reuss Voigt Hill
#
# Bulk Modulus (GPa) = 61.54968 61.57917 61.56443
# Shear Modulus (GPa) = -1.65339 14.45910 6.40285
#
# Velocity S-wave (km/s) = -0.89225 2.63859 1.75585
# Velocity P-wave (km/s) = 5.34556 6.23968 5.80985
#
# Compressibility (1/GPa) = 0.01624704
#
# Stress axis : x y z
#
# Youngs Moduli (GPa) = 61.32947 61.33009 69.66294
#
# Poissons Ratio (x) = 0.41275 0.30058
# Poissons Ratio (y) = 0.41274 0.30056
# Poissons Ratio (z) = 0.26462 0.26461
#
# Static dielectric constant tensor:
#      x y z
#    x 2.049560 0.000000 0.000000 
#    y 0.000000 2.049680 0.000000 
#    z 0.000000 0.000000 1.766010 
# 
# From -- ./inp_files/2504.got.cif
#   From: 2010.05.17/outbox.cif.g08.bks.cpg/sg116_2_cif.got.tgz:2504.got - 2010.05.20 11:11:43.
