data_PCOD9557908
_publ_section_title
;
Structure prediction by ZEFSAII (Michael W. Deem and Ramdas Pophale) SiO2 
 PCOD9557908
Probable space group: P -4 C 2
;
_chemical_formula_sum "Si O2"
_cell_formula_units_Z 20
_cell_length_a 5.095052
_cell_length_b 5.095052
_cell_length_c 33.223814
_cell_angle_alpha 90.000000
_cell_angle_beta 90.000000
_cell_angle_gamma 90.000000
_cell_volume 862.475423
_symmetry_space_group_name_H-M "P -4 C 2"
_symmetry_group_IT_number 116
_symmetry_cell_setting 'tetragonal'
loop_
_space_group_symop_operation_xyz
x,y,z
y,-x,-z
-x,-y,z
-y,x,-z
y,x,1/2-z
-y,-x,1/2-z
-x,y,1/2+z
x,-y,1/2+z
loop_
_atom_site_type_symbol
_atom_site_label
_atom_site_fract_x
_atom_site_fract_y
_atom_site_fract_z
Si Si1 0.000000 0.000000 0.364164
Si Si2 0.310703 0.251914 0.930895
Si Si3 0.000000 0.000000 0.500000
Si Si4 0.500000 0.500000 0.750000
Si Si5 0.000000 0.500000 0.192244
O O1 0.247892 0.052056 0.335784
O O2 0.895224 0.225438 0.394326
O O3 0.500000 0.500000 0.930488
O O4 0.500000 0.000000 0.927250
O O5 0.145824 0.208640 0.971541
O O6 0.519148 0.750163 0.778943
#
# Coordination Sequence:
#
# PCOD9557908 Si02
#       5
#     4   8   2   2   4
#     4  11  26  50  80 113 152 202 254 317 378 458
#     4  11  27  48  77 113 152 206 258 322 387 457
#     4  10  28  44  76 114 160 206 268 326 396 468
#     4  12  28  48  76 116 150 200 244 306 388 458
#     4  12  26  48  78 112 156 194 252 310 378 464
#
# _framework density 23.189070000000001
#
# number of rings (size 3 to 8) (size 9 to 14) (size 15 to 20)
#    0.000    0.800    2.000    2.400    8.400    8.000 
#    0.000    0.000    4.400    0.000    0.000    0.000 
#    0.000    0.000    0.000    0.000    0.000    0.000 
#
# Total GULP energy -112103.957091 kJ/mol
# GULP energy per Si atom -5605.197855 kJ/mol
# Density = 2.313629 g / cm^3
# Si number density = 23.189070 Si / 1000 Ang^3
#
#
#
# Elastic Constant Matrix: (Units=GPa)
#
#
# Indices 1 2 3 4 5 6 
#
# 1 216.6395 87.8683 108.8916 0.0000 0.0000 0.0000
# 2 87.8683 216.6395 108.8916 0.0000 0.0000 0.0000
# 3 108.8916 108.8916 222.8895 0.0000 0.0000 0.0000
# 4 0.0000 0.0000 0.0000 -37.6227 0.0000 0.0000
# 5 0.0000 0.0000 0.0000 0.0000 -37.6227 0.0000
# 6 0.0000 0.0000 0.0000 0.0000 0.0000 55.3120
#
#
#
# Elastic Compliance Matrix: (Units=1/GPa)
#
#
# Indices 1 2 3 4 5 6 
#
# 1 0.006407 -0.001359 -0.002466 0.000000 0.000000 0.000000
# 2 -0.001359 0.006407 -0.002466 0.000000 0.000000 0.000000
# 3 -0.002466 -0.002466 0.006896 0.000000 0.000000 0.000000
# 4 0.000000 0.000000 0.000000 -0.026580 0.000000 0.000000
# 5 0.000000 0.000000 0.000000 0.000000 -0.026580 0.000000
# 6 0.000000 0.000000 0.000000 0.000000 0.000000 0.018079
#
#
# Mechanical properties :
#
#
# Convention : Reuss Voigt Hill
#
# Bulk Modulus (GPa) = 140.30495 140.83016 140.56756
# Shear Modulus (GPa) = -12111.30593 19.38113 -6045.96240
#
# Velocity S-wave (km/s) = -72.34770 2.89413 -51.11660
# Velocity P-wave (km/s) = 83.17622 8.48712 58.50749
#
# Compressibility (1/GPa) = 0.00712733
#
# Stress axis : x y z
#
# Youngs Moduli (GPa) = 156.08669 156.08669 145.01050
#
# Poissons Ratio (x) = 0.21212 0.35760
# Poissons Ratio (y) = 0.21212 0.35760
# Poissons Ratio (z) = 0.38491 0.38491
#
# Static dielectric constant tensor:
#      x y z
#    x 1.864930 0.000000 0.000000 
#    y 0.000000 1.864930 0.000000 
#    z 0.000000 0.000000 1.862030 
# 
# From -- ./inp_files/4742.got.cif
#   From: 2010.05.17/outbox.cif.g08.bks.cpg/sg116_3_cif.got.tgz:4742.got - 2010.05.20 11:11:43.
