data_PCOD9557249
_publ_section_title
;
Structure prediction by ZEFSAII (Michael W. Deem and Ramdas Pophale) SiO2 
 PCOD9557249
Probable space group: P -4 M 2
;
_chemical_formula_sum "Si O2"
_cell_formula_units_Z 48
_cell_length_a 9.221815
_cell_length_b 9.221815
_cell_length_c 31.688509
_cell_angle_alpha 90.000000
_cell_angle_beta 90.000000
_cell_angle_gamma 90.000000
_cell_volume 2694.850123
_symmetry_space_group_name_H-M "P -4 M 2"
_symmetry_group_IT_number 115
_symmetry_cell_setting 'tetragonal'
loop_
_space_group_symop_operation_xyz
x,y,z
y,-x,-z
-x,-y,z
-y,x,-z
y,x,-z
-y,-x,-z
-x,y,z
x,-y,z
loop_
_atom_site_type_symbol
_atom_site_label
_atom_site_fract_x
_atom_site_fract_y
_atom_site_fract_z
Si Si1 0.669844 0.173978 0.209629
Si Si2 0.828251 0.672999 0.461276
Si Si3 0.170743 0.325276 0.132727
Si Si4 0.670108 0.325851 0.373811
Si Si5 0.174299 0.669159 0.037996
Si Si6 0.825477 0.169963 0.703782
O O1 0.500000 0.208390 0.214283
O O2 0.737169 0.251002 0.169039
O O3 0.756087 0.216471 0.251929
O O4 0.683905 0.000000 0.204894
O O5 0.759440 0.759440 0.500000
O O6 0.806718 0.500000 0.467935
O O7 0.748456 0.712778 0.417700
O O8 0.000000 0.699636 0.457798
O O9 0.182818 0.500000 0.135050
O O10 0.216870 0.281517 0.085242
O O11 0.000000 0.289401 0.137925
O O12 0.500000 0.288184 0.375418
O O13 0.681865 0.500000 0.368888
O O14 0.748087 0.248795 0.334900
O O15 0.214673 0.500000 0.033842
O O16 0.000000 0.677759 0.036316
O O17 0.242594 0.757407 0.000000
O O18 0.000000 0.181877 0.699887
O O19 0.787321 0.000000 0.703767
#
# Coordination Sequence:
#
# PCOD9557249 Si02
#       6
#     8   8   8   8   8   8
#     4  10  21  36  54  78 107 138 174 217 264 314
#     4  10  21  37  57  81 109 142 180 221 265 313
#     4   9  19  36  55  75 102 137 175 215 260 310
#     4  10  21  37  58  83 110 142 180 221 266 316
#     4   9  19  35  53  75 104 136 172 214 259 310
#     4  10  21  37  57  80 107 141 179 218 263 315
#
# _framework density 17.81175
#
# number of rings (size 3 to 8) (size 9 to 14) (size 15 to 20)
#    0.000    2.333    0.000    3.000    0.000    7.333 
#    0.000    5.000    0.000    0.000    0.000    0.000 
#    0.000    0.000    0.000    0.000    0.000    0.000 
#
# Total GULP energy -267970.324861 kJ/mol
# GULP energy per Si atom -5582.715101 kJ/mol
# Density = 1.777121 g / cm^3
# Si number density = 17.811750 Si / 1000 Ang^3
#
#
#
# Elastic Constant Matrix: (Units=GPa)
#
#
# Indices 1 2 3 4 5 6 
#
# 1 72.8463 55.0678 86.9505 0.0000 0.0000 0.0000
# 2 55.0678 72.8442 86.9491 0.0000 0.0000 0.0000
# 3 86.9505 86.9491 201.8186 0.0000 0.0000 0.0000
# 4 0.0000 0.0000 0.0000 41.0002 0.0000 0.0000
# 5 0.0000 0.0000 0.0000 0.0000 41.0002 0.0000
# 6 0.0000 0.0000 0.0000 0.0000 0.0000 31.5987
#
#
#
# Elastic Compliance Matrix: (Units=1/GPa)
#
#
# Indices 1 2 3 4 5 6 
#
# 1 0.037560 -0.018690 -0.008130 0.000000 0.000000 0.000000
# 2 -0.018690 0.037561 -0.008130 0.000000 0.000000 0.000000
# 3 -0.008130 -0.008130 0.011960 0.000000 0.000000 0.000000
# 4 0.000000 0.000000 0.000000 0.024390 0.000000 0.000000
# 5 0.000000 0.000000 0.000000 0.000000 0.024390 0.000000
# 6 0.000000 0.000000 0.000000 0.000000 0.000000 0.031647
#
#
# Mechanical properties :
#
#
# Convention : Reuss Voigt Hill
#
# Bulk Modulus (GPa) = 58.20210 89.49374 73.84792
# Shear Modulus (GPa) = 20.56449 30.62260 25.59355
#
# Velocity S-wave (km/s) = 3.40155 4.15086 3.79475
# Velocity P-wave (km/s) = 6.94079 8.56307 7.79425
#
# Compressibility (1/GPa) = 0.01718151
#
# Stress axis : x y z
#
# Youngs Moduli (GPa) = 26.62372 26.62304 83.60916
#
# Poissons Ratio (x) = 0.49759 0.67976
# Poissons Ratio (y) = 0.49760 0.67976
# Poissons Ratio (z) = 0.21646 0.21645
#
# Static dielectric constant tensor:
#      x y z
#    x 1.593480 0.000000 0.000000 
#    y 0.000000 1.593480 0.000000 
#    z 0.000000 0.000000 1.577140 
# 
# From -- ./inp_files/5909.got.cif
#   From: 2010.05.17/outbox.cif.g08.bks.cpg/sg115_3_cif.got.tgz:5909.got - 2010.05.20 11:07:42.
