data_PCOD9557511
_publ_section_title
;
Structure prediction by ZEFSAII (Michael W. Deem and Ramdas Pophale) SiO2 
 PCOD9557511
Probable space group: P -4 C 2
;
_chemical_formula_sum "Si O2"
_cell_formula_units_Z 64
_cell_length_a 25.160197
_cell_length_b 25.160197
_cell_length_c 5.161296
_cell_angle_alpha 90.000000
_cell_angle_beta 90.000000
_cell_angle_gamma 90.000000
_cell_volume 3267.283662
_symmetry_space_group_name_H-M "P -4 C 2"
_symmetry_group_IT_number 116
_symmetry_cell_setting 'tetragonal'
loop_
_space_group_symop_operation_xyz
x,y,z
y,-x,-z
-x,-y,z
-y,x,-z
y,x,1/2-z
-y,-x,1/2-z
-x,y,1/2+z
x,-y,1/2+z
loop_
_atom_site_type_symbol
_atom_site_label
_atom_site_fract_x
_atom_site_fract_y
_atom_site_fract_z
Si Si1 0.037632 0.127746 0.250590
Si Si2 0.531091 0.136852 0.834044
Si Si3 0.219144 0.613020 0.855094
Si Si4 0.561426 0.022077 0.658385
Si Si5 0.346192 0.733825 0.145034
Si Si6 0.177643 0.747164 0.381454
Si Si7 0.749301 0.967078 0.308611
Si Si8 0.133852 0.707653 0.883493
O O1 0.087105 0.087105 0.250000
O O2 0.054375 0.190154 0.237710
O O3 0.001332 0.119376 0.505043
O O4 0.480410 0.135378 0.639748
O O5 0.561440 0.189412 0.747659
O O6 0.560053 0.082184 0.755126
O O7 0.262804 0.630765 0.643233
O O8 0.171591 0.656610 0.863161
O O9 0.244219 0.613074 0.139777
O O10 0.500000 0.000000 0.621302
O O11 0.586374 0.014512 0.378675
O O12 0.320377 0.679624 0.250000
O O13 0.297316 0.775927 0.135553
O O14 0.200262 0.799739 0.250000
O O15 0.160959 0.748615 0.678641
O O16 0.133815 0.726486 0.179370
O O17 0.704867 0.924782 0.227962
O O18 0.745096 0.985438 0.602538
#
# Coordination Sequence:
#
# PCOD9557511 Si02
#       8
#     8   8   8   8   8   8   8   8
#     4  10  21  35  51  72  92 116 143 173 215 270
#     4  12  21  33  51  71 103 138 168 228 278 307
#     4  10  21  33  50  79 100 126 173 206 259 318
#     4  10  16  30  47  63  83 121 171 206 261 327
#     4   9  17  33  52  71 101 130 154 200 253 307
#     4   9  17  28  48  74  93 112 139 176 235 281
#     4  10  21  37  52  64  90 122 145 174 224 279
#     4  10  19  34  50  67  95 119 149 198 224 281
#
# _framework density 19.588139000000002
#
# number of rings (size 3 to 8) (size 9 to 14) (size 15 to 20)
#    0.000    2.000    2.500    2.625    0.000    4.750 
#    0.000    1.250    0.000    0.000    0.000    0.000 
#    0.000    0.000    0.000    0.000    0.000    0.000 
#
# Total GULP energy -356894.101455 kJ/mol
# GULP energy per Si atom -5576.470335 kJ/mol
# Density = 1.954356 g / cm^3
# Si number density = 19.588139 Si / 1000 Ang^3
#
#
#
# Elastic Constant Matrix: (Units=GPa)
#
#
# Indices 1 2 3 4 5 6 
#
# 1 4.8268 3.4502 -3.6837 0.0000 0.0000 0.0000
# 2 3.4502 4.8270 -3.6837 0.0000 0.0000 0.0000
# 3 -3.6837 -3.6837 78.5770 0.0000 0.0000 0.0000
# 4 0.0000 0.0000 0.0000 11.2566 0.0000 0.0000
# 5 0.0000 0.0000 0.0000 0.0000 11.2568 0.0000
# 6 0.0000 0.0000 0.0000 0.0000 0.0000 18.3301
#
#
#
# Elastic Compliance Matrix: (Units=1/GPa)
#
#
# Indices 1 2 3 4 5 6 
#
# 1 0.426239 -0.300150 0.005911 0.000000 0.000000 0.000000
# 2 -0.300150 0.426213 0.005910 0.000000 0.000000 0.000000
# 3 0.005911 0.005910 0.013281 0.000000 0.000000 0.000000
# 4 0.000000 0.000000 0.000000 0.088836 0.000000 0.000000
# 5 0.000000 0.000000 0.000000 0.000000 0.088835 0.000000
# 6 0.000000 0.000000 0.000000 0.000000 0.000000 0.054555
#
#
# Mechanical properties :
#
#
# Convention : Reuss Voigt Hill
#
# Bulk Modulus (GPa) = 3.45932 8.93295 6.19614
# Shear Modulus (GPa) = 2.82330 14.31190 8.56760
#
# Velocity S-wave (km/s) = 1.20186 2.70597 2.09365
# Velocity P-wave (km/s) = 1.92245 3.78594 3.00243
#
# Compressibility (1/GPa) = 0.28907441
#
# Stress axis : x y z
#
# Youngs Moduli (GPa) = 2.34610 2.34624 75.29827
#
# Poissons Ratio (x) = 0.70423 -0.44509
# Poissons Ratio (y) = 0.70418 -0.44499
# Poissons Ratio (z) = -0.01387 -0.01387
#
# Static dielectric constant tensor:
#      x y z
#    x 1.736150 0.000000 0.000000 
#    y 0.000000 1.736140 0.000000 
#    z 0.000000 0.000000 1.711990 
# 
# From -- ./inp_files/272.got.cif
#   From: 2010.05.17/outbox.cif.g08.bks.cpg/sg116_1_cif.got.tgz:272.got - 2010.05.20 11:11:43.
