data_PCOD9557096
_publ_section_title
;
Structure prediction by ZEFSAII (Michael W. Deem and Ramdas Pophale) SiO2 
 PCOD9557096
Probable space group: P -4 M 2
;
_chemical_formula_sum "Si O2"
_cell_formula_units_Z 40
_cell_length_a 8.257478
_cell_length_b 8.257478
_cell_length_c 29.339684
_cell_angle_alpha 90.000000
_cell_angle_beta 90.000000
_cell_angle_gamma 90.000000
_cell_volume 2000.554019
_symmetry_space_group_name_H-M "P -4 M 2"
_symmetry_group_IT_number 115
_symmetry_cell_setting 'tetragonal'
loop_
_space_group_symop_operation_xyz
x,y,z
y,-x,-z
-x,-y,z
-y,x,-z
y,x,-z
-y,-x,-z
-x,y,z
x,-y,z
loop_
_atom_site_type_symbol
_atom_site_label
_atom_site_fract_x
_atom_site_fract_y
_atom_site_fract_z
Si Si1 0.821463 0.803769 0.735815
Si Si2 0.685138 0.189693 0.453210
Si Si3 0.307676 0.500000 0.211074
Si Si4 0.500000 0.804755 0.892672
Si Si5 0.816272 0.195547 0.946606
Si Si6 0.194699 0.318141 0.357880
O O1 0.664365 0.747266 0.763426
O O2 0.797660 0.751307 0.683057
O O3 0.000000 0.751037 0.752305
O O4 0.819186 0.000000 0.736764
O O5 0.777841 0.222160 0.500000
O O6 0.500000 0.237370 0.461591
O O7 0.747717 0.278410 0.408414
O O8 0.693129 0.000000 0.442967
O O9 0.500000 0.500000 0.208903
O O10 0.236542 0.500000 0.160331
O O11 0.333807 0.743995 0.916399
O O12 0.500000 0.000000 0.898030
O O13 0.000000 0.256667 0.936853
O O14 0.823730 0.000000 0.940887
O O15 0.778241 0.221760 0.000000
O O16 0.245794 0.500000 0.345625
O O17 0.000000 0.312624 0.358781
#
# Coordination Sequence:
#
# PCOD9557096 Si02
#       6
#     8   8   4   4   8   8
#     4  10  21  41  69  93 115 156 213 265 313 370
#     4  11  24  39  55  80 115 153 194 239 293 359
#     4  12  26  42  58  86 134 170 204 258 318 379
#     4  10  20  36  60  86 116 162 214 256 308 369
#     4   8  15  31  56  86 118 152 199 257 310 365
#     4  10  20  37  63  91 117 145 188 246 303 363
#
# _framework density 19.994461000000001
#
# number of rings (size 3 to 8) (size 9 to 14) (size 15 to 20)
#    0.000    2.000    1.000    3.300    0.000    7.200 
#    1.800    2.000    0.000    0.000    0.000    0.000 
#    0.000    0.000    0.000    0.000    0.000    0.000 
#
# Total GULP energy -223225.957908 kJ/mol
# GULP energy per Si atom -5580.648948 kJ/mol
# Density = 1.994895 g / cm^3
# Si number density = 19.994461 Si / 1000 Ang^3
#
#
#
# Elastic Constant Matrix: (Units=GPa)
#
#
# Indices 1 2 3 4 5 6 
#
# 1 69.6193 36.5350 33.1616 0.0000 0.0000 0.0000
# 2 36.5350 69.6213 33.1632 0.0000 0.0000 0.0000
# 3 33.1616 33.1632 84.1478 0.0000 0.0000 0.0000
# 4 0.0000 0.0000 0.0000 36.8338 0.0000 0.0000
# 5 0.0000 0.0000 0.0000 0.0000 36.8335 0.0000
# 6 0.0000 0.0000 0.0000 0.0000 0.0000 14.0926
#
#
#
# Elastic Compliance Matrix: (Units=1/GPa)
#
#
# Indices 1 2 3 4 5 6 
#
# 1 0.021361 -0.008864 -0.004925 0.000000 0.000000 0.000000
# 2 -0.008864 0.021361 -0.004925 0.000000 0.000000 0.000000
# 3 -0.004925 -0.004925 0.015766 0.000000 0.000000 0.000000
# 4 0.000000 0.000000 0.000000 0.027149 0.000000 0.000000
# 5 0.000000 0.000000 0.000000 0.000000 0.027149 0.000000
# 6 0.000000 0.000000 0.000000 0.000000 0.000000 0.070959
#
#
# Mechanical properties :
#
#
# Convention : Reuss Voigt Hill
#
# Bulk Modulus (GPa) = 47.48365 47.67865 47.58115
# Shear Modulus (GPa) = 21.91122 25.58723 23.74922
#
# Velocity S-wave (km/s) = 3.31398 3.58119 3.45017
# Velocity P-wave (km/s) = 6.20026 6.40294 6.30241
#
# Compressibility (1/GPa) = 0.02105988
#
# Stress axis : x y z
#
# Youngs Moduli (GPa) = 46.81373 46.81430 63.42824
#
# Poissons Ratio (x) = 0.41495 0.31238
# Poissons Ratio (y) = 0.41495 0.31241
# Poissons Ratio (z) = 0.23055 0.23058
#
# Static dielectric constant tensor:
#      x y z
#    x 1.710580 0.000000 0.000000 
#    y 0.000000 1.710580 0.000000 
#    z 0.000000 0.000000 1.708500 
# 
# From -- ./inp_files/5551.got.cif
#   From: 2010.05.17/outbox.cif.g08.bks.cpg/sg115_3_cif.got.tgz:5551.got - 2010.05.20 11:07:42.
