data_PCOD9557141
_publ_section_title
;
Structure prediction by ZEFSAII (Michael W. Deem and Ramdas Pophale) SiO2 
 PCOD9557141
Probable space group: P -4 M 2
;
_chemical_formula_sum "Si O2"
_cell_formula_units_Z 45
_cell_length_a 8.154006
_cell_length_b 8.154006
_cell_length_c 32.767815
_cell_angle_alpha 90.000000
_cell_angle_beta 90.000000
_cell_angle_gamma 90.000000
_cell_volume 2178.660384
_symmetry_space_group_name_H-M "P -4 M 2"
_symmetry_group_IT_number 115
_symmetry_cell_setting 'tetragonal'
loop_
_space_group_symop_operation_xyz
x,y,z
y,-x,-z
-x,-y,z
-y,x,-z
y,x,-z
-y,-x,-z
-x,y,z
x,-y,z
loop_
_atom_site_type_symbol
_atom_site_label
_atom_site_fract_x
_atom_site_fract_y
_atom_site_fract_z
Si Si1 0.000000 0.000000 0.500000
Si Si2 0.696540 0.810997 0.213891
Si Si3 0.686106 0.000000 0.441163
Si Si4 0.687269 0.695671 0.300940
Si Si5 0.193048 0.815151 0.129036
Si Si6 0.192581 0.306785 0.389850
Si Si7 0.313290 0.303204 0.043373
O O1 0.000000 0.166428 0.526426
O O2 0.500000 0.803484 0.216518
O O3 0.759240 0.746222 0.257199
O O4 0.741842 0.732001 0.170471
O O5 0.750322 0.000000 0.211236
O O6 0.712296 0.832863 0.414893
O O7 0.500000 0.000000 0.457667
O O8 0.500000 0.761372 0.304843
O O9 0.676714 0.500000 0.299810
O O10 0.784038 0.736017 0.341980
O O11 0.226315 0.734870 0.085570
O O12 0.000000 0.825614 0.134456
O O13 0.264561 0.000000 0.126548
O O14 0.244087 0.500000 0.395561
O O15 0.000000 0.297288 0.400346
O O16 0.500000 0.242209 0.047652
O O17 0.318097 0.500000 0.038767
O O18 0.241630 0.241630 0.000000
#
# Coordination Sequence:
#
# PCOD9557141 Si02
#       7
#     1   8   4   8   8   8   8
#     4  12  28  52  68 112 148 172 244 284 336 416
#     4   9  18  32  49  71 104 149 197 239 283 344
#     4  12  26  46  76 104 140 188 228 284 348 401
#     4   9  18  32  52  83 120 158 205 256 306 365
#     4  10  21  35  50  72 104 139 177 221 275 338
#     4  10  21  40  66  99 140 180 226 281 334 398
#     4   9  19  36  56  76  96 122 163 215 272 337
#
# _framework density 20.654893000000001
#
# number of rings (size 3 to 8) (size 9 to 14) (size 15 to 20)
#    0.000    2.311    0.889    1.600    1.244    5.333 
#    0.000    4.444    0.000    0.000    0.000    0.000 
#    0.000    0.000    0.000    0.000    0.000    0.000 
#
# Total GULP energy -250778.214332 kJ/mol
# GULP energy per Si atom -5572.849207 kJ/mol
# Density = 2.060788 g / cm^3
# Si number density = 20.654893 Si / 1000 Ang^3
#
#
#
# Elastic Constant Matrix: (Units=GPa)
#
#
# Indices 1 2 3 4 5 6 
#
# 1 54.1701 20.0408 40.1439 0.0000 0.0000 0.0000
# 2 20.0408 54.1701 40.1439 0.0000 0.0000 0.0000
# 3 40.1439 40.1439 136.0696 0.0000 0.0000 0.0000
# 4 0.0000 0.0000 0.0000 29.5605 0.0000 0.0000
# 5 0.0000 0.0000 0.0000 0.0000 29.5605 0.0000
# 6 0.0000 0.0000 0.0000 0.0000 0.0000 14.1488
#
#
#
# Elastic Compliance Matrix: (Units=1/GPa)
#
#
# Indices 1 2 3 4 5 6 
#
# 1 0.024546 -0.004754 -0.005839 0.000000 0.000000 0.000000
# 2 -0.004754 0.024546 -0.005839 0.000000 0.000000 0.000000
# 3 -0.005839 -0.005839 0.010795 0.000000 0.000000 0.000000
# 4 0.000000 0.000000 0.000000 0.033829 0.000000 0.000000
# 5 0.000000 0.000000 0.000000 0.000000 0.033829 0.000000
# 6 0.000000 0.000000 0.000000 0.000000 0.000000 0.070677
#
#
# Mechanical properties :
#
#
# Convention : Reuss Voigt Hill
#
# Bulk Modulus (GPa) = 37.00608 49.45191 43.22900
# Shear Modulus (GPa) = 20.82505 24.25935 22.54220
#
# Velocity S-wave (km/s) = 3.17872 3.43083 3.30718
# Velocity P-wave (km/s) = 5.60604 6.29985 5.96304
#
# Compressibility (1/GPa) = 0.02702259
#
# Stress axis : x y z
#
# Youngs Moduli (GPa) = 40.73911 40.73911 92.63836
#
# Poissons Ratio (x) = 0.19367 0.54094
# Poissons Ratio (y) = 0.19367 0.54094
# Poissons Ratio (z) = 0.23789 0.23789
#
# Static dielectric constant tensor:
#      x y z
#    x 1.744930 0.000000 0.000000 
#    y 0.000000 1.744930 0.000000 
#    z 0.000000 0.000000 1.781030 
# 
# From -- ./inp_files/5870.got.cif
#   From: 2010.05.17/outbox.cif.g08.bks.cpg/sg115_3_cif.got.tgz:5870.got - 2010.05.20 11:07:42.
