data_PCOD9557672
_publ_section_title
;
Structure prediction by ZEFSAII (Michael W. Deem and Ramdas Pophale) SiO2 
 PCOD9557672
Probable space group: P -4 C 2
;
_chemical_formula_sum "Si O2"
_cell_formula_units_Z 50
_cell_length_a 14.572188
_cell_length_b 14.572188
_cell_length_c 12.195704
_cell_angle_alpha 90.000000
_cell_angle_beta 90.000000
_cell_angle_gamma 90.000000
_cell_volume 2589.741440
_symmetry_space_group_name_H-M "P -4 C 2"
_symmetry_group_IT_number 116
_symmetry_cell_setting 'tetragonal'
loop_
_space_group_symop_operation_xyz
x,y,z
y,-x,-z
-x,-y,z
-y,x,-z
y,x,1/2-z
-y,-x,1/2-z
-x,y,1/2+z
x,-y,1/2+z
loop_
_atom_site_type_symbol
_atom_site_label
_atom_site_fract_x
_atom_site_fract_y
_atom_site_fract_z
Si Si1 0.518392 0.296765 0.845949
Si Si2 0.500000 0.500000 0.250000
Si Si3 0.519320 0.156835 0.016207
Si Si4 0.325870 0.801935 0.314224
Si Si5 0.000000 0.500000 0.166187
Si Si6 0.281555 0.718446 0.750000
Si Si7 0.344448 0.959620 0.164724
Si Si8 0.313894 0.853609 0.565535
O O1 0.500866 0.405018 0.821762
O O2 0.431666 0.234527 0.809507
O O3 0.612975 0.271895 0.786528
O O4 0.535057 0.259446 0.970388
O O5 0.598751 0.108354 0.084977
O O6 0.423972 0.157100 0.080658
O O7 0.502091 0.086433 0.915033
O O8 0.277795 0.722206 0.250000
O O9 0.293733 0.890884 0.245832
O O10 0.300376 0.821662 0.440337
O O11 0.995659 0.585489 0.247684
O O12 0.264009 0.786298 0.649313
O O13 0.296560 0.039897 0.095902
#
# Coordination Sequence:
#
# PCOD9557672 Si02
#       8
#     8   2   8   8   4   4   8   8
#     4  10  21  38  59  84 121 182 230 267 315 360
#     4  10  20  40  60  74 128 190 242 272 290 374
#     4  11  20  34  58  91 118 157 219 273 334 390
#     4  11  24  42  63  91 128 172 222 270 324 388
#     4  12  16  32  56  96 118 152 198 274 346 394
#     4  11  24  39  56  88 133 166 223 268 308 396
#     4  12  20  36  64  88 126 158 207 280 346 403
#     4  11  22  39  57  95 123 163 211 266 345 393
#
# _framework density 19.306947999999998
#
# number of rings (size 3 to 8) (size 9 to 14) (size 15 to 20)
#    0.000    0.960    7.200    1.920    2.240    0.000 
#    0.000    0.000    0.000    0.960    0.000    0.560 
#    0.000    0.000    0.000    0.000    0.000    0.000 
#
# Total GULP energy -278529.383620 kJ/mol
# GULP energy per Si atom -5570.587672 kJ/mol
# Density = 1.926300 g / cm^3
# Si number density = 19.306948 Si / 1000 Ang^3
#
#
#
# Elastic Constant Matrix: (Units=GPa)
#
#
# Indices 1 2 3 4 5 6 
#
# 1 68.1455 22.4326 48.6650 0.0000 0.0000 0.0000
# 2 22.4326 68.1476 48.6661 0.0000 0.0000 0.0000
# 3 48.6650 48.6661 115.7707 0.0000 0.0000 0.0000
# 4 0.0000 0.0000 0.0000 32.7628 0.0000 0.0000
# 5 0.0000 0.0000 0.0000 0.0000 32.7616 0.0000
# 6 0.0000 0.0000 0.0000 0.0000 0.0000 -0.4107
#
#
#
# Elastic Compliance Matrix: (Units=1/GPa)
#
#
# Indices 1 2 3 4 5 6 
#
# 1 0.021005 -0.000870 -0.008464 0.000000 0.000000 0.000000
# 2 -0.000870 0.021005 -0.008464 0.000000 0.000000 0.000000
# 3 -0.008464 -0.008464 0.015754 0.000000 0.000000 0.000000
# 4 0.000000 0.000000 0.000000 0.030522 0.000000 0.000000
# 5 0.000000 0.000000 0.000000 0.000000 0.030524 0.000000
# 6 0.000000 0.000000 0.000000 0.000000 0.000000 -2.434897
#
#
# Mechanical properties :
#
#
# Convention : Reuss Voigt Hill
#
# Bulk Modulus (GPa) = 45.11073 54.62126 49.86600
# Shear Modulus (GPa) = -2.19964 21.84272 9.82154
#
# Velocity S-wave (km/s) = -1.06854 3.36719 2.25790
# Velocity P-wave (km/s) = 4.67904 6.59315 5.71678
#
# Compressibility (1/GPa) = 0.02216767
#
# Stress axis : x y z
#
# Youngs Moduli (GPa) = 47.60696 47.60813 63.47740
#
# Poissons Ratio (x) = 0.04142 0.53727
# Poissons Ratio (y) = 0.04142 0.53727
# Poissons Ratio (z) = 0.40294 0.40295
#
# Static dielectric constant tensor:
#      x y z
#    x 1.579840 0.000000 0.000000 
#    y 0.000000 1.579880 0.000000 
#    z 0.000000 0.000000 1.735690 
# 
# From -- ./inp_files/1973.got.cif
#   From: 2010.05.17/outbox.cif.g08.bks.cpg/sg116_1_cif.got.tgz:1973.got - 2010.05.20 11:11:43.
