data_PCOD9557879
_publ_section_title
;
Structure prediction by ZEFSAII (Michael W. Deem and Ramdas Pophale) SiO2 
 PCOD9557879
Probable space group: P -4 C 2
;
_chemical_formula_sum "Si O2"
_cell_formula_units_Z 54
_cell_length_a 17.937733
_cell_length_b 17.937733
_cell_length_c 8.855495
_cell_angle_alpha 90.000000
_cell_angle_beta 90.000000
_cell_angle_gamma 90.000000
_cell_volume 2849.364130
_symmetry_space_group_name_H-M "P -4 C 2"
_symmetry_group_IT_number 116
_symmetry_cell_setting 'tetragonal'
loop_
_space_group_symop_operation_xyz
x,y,z
y,-x,-z
-x,-y,z
-y,x,-z
y,x,1/2-z
-y,-x,1/2-z
-x,y,1/2+z
x,-y,1/2+z
loop_
_atom_site_type_symbol
_atom_site_label
_atom_site_fract_x
_atom_site_fract_y
_atom_site_fract_z
Si Si1 0.333329 0.782820 0.821788
Si Si2 0.000000 0.000000 0.000000
Si Si3 0.181990 0.509806 0.785161
Si Si4 0.466597 0.076567 0.953889
Si Si5 0.911431 0.088570 0.750000
Si Si6 0.773624 0.339573 0.315967
Si Si7 0.929541 0.743300 0.314639
Si Si8 0.923072 0.299251 0.147612
O O1 0.279459 0.720541 0.750000
O O2 0.419684 0.772494 0.774506
O O3 0.307180 0.862531 0.752152
O O4 0.328296 0.780961 0.003604
O O5 0.046187 0.944752 0.893744
O O6 0.102471 0.507301 0.698085
O O7 0.219447 0.428274 0.780859
O O8 0.152487 0.524904 0.952318
O O9 0.380858 0.063611 0.921104
O O10 0.500000 0.000000 0.014240
O O11 0.823836 0.076805 0.760094
O O12 0.700072 0.299929 0.250000
O O13 0.844302 0.301327 0.233047
O O14 0.922428 0.750613 0.496255
O O15 0.010512 0.714782 0.264549
#
# Coordination Sequence:
#
# PCOD9557879 Si02
#       8
#     8   2   8   8   4   8   8   8
#     4  12  24  42  68  95 133 171 220 269 334 402
#     4  10  24  46  64  86 108 174 240 290 340 382
#     4  11  23  41  64  91 133 172 218 263 333 401
#     4  11  22  36  59  92 131 175 210 260 319 403
#     4  11  24  44  66  84 124 166 231 288 336 390
#     4  11  26  44  65  97 130 174 219 273 326 397
#     4  12  23  41  62  94 128 173 218 280 338 396
#     4  11  25  39  61  93 133 167 221 269 328 398
#
# _framework density 18.951597
#
# number of rings (size 3 to 8) (size 9 to 14) (size 15 to 20)
#    0.000    0.741    3.704    4.000    6.222    0.000 
#    2.667    0.000    0.000    0.444    0.000    2.074 
#    0.000    0.000    0.000    0.000    0.000    0.000 
#
# Total GULP energy -301561.957578 kJ/mol
# GULP energy per Si atom -5584.480696 kJ/mol
# Density = 1.890846 g / cm^3
# Si number density = 18.951597 Si / 1000 Ang^3
#
#
#
# Elastic Constant Matrix: (Units=GPa)
#
#
# Indices 1 2 3 4 5 6 
#
# 1 92.5859 35.7086 18.4840 0.0000 0.0000 0.0000
# 2 35.7086 92.5809 18.4831 0.0000 0.0000 0.0000
# 3 18.4840 18.4831 92.9340 0.0000 0.0000 0.0000
# 4 0.0000 0.0000 0.0000 25.5243 0.0000 0.0000
# 5 0.0000 0.0000 0.0000 0.0000 25.5261 0.0000
# 6 0.0000 0.0000 0.0000 0.0000 0.0000 20.1566
#
#
#
# Elastic Compliance Matrix: (Units=1/GPa)
#
#
# Indices 1 2 3 4 5 6 
#
# 1 0.012925 -0.004657 -0.001645 0.000000 0.000000 0.000000
# 2 -0.004657 0.012926 -0.001645 0.000000 0.000000 0.000000
# 3 -0.001645 -0.001645 0.011414 0.000000 0.000000 0.000000
# 4 0.000000 0.000000 0.000000 0.039178 0.000000 0.000000
# 5 0.000000 0.000000 0.000000 0.000000 0.039176 0.000000
# 6 0.000000 0.000000 0.000000 0.000000 0.000000 0.049611
#
#
# Mechanical properties :
#
#
# Convention : Reuss Voigt Hill
#
# Bulk Modulus (GPa) = 46.78683 47.05024 46.91854
# Shear Modulus (GPa) = 26.56077 27.93641 27.24859
#
# Velocity S-wave (km/s) = 3.74773 3.84356 3.79595
# Velocity P-wave (km/s) = 6.59306 6.67665 6.63499
#
# Compressibility (1/GPa) = 0.02137353
#
# Stress axis : x y z
#
# Youngs Moduli (GPa) = 77.36832 77.36428 87.60798
#
# Poissons Ratio (x) = 0.36028 0.14408
# Poissons Ratio (y) = 0.36030 0.14407
# Poissons Ratio (z) = 0.12724 0.12723
#
# Static dielectric constant tensor:
#      x y z
#    x 1.638570 0.000000 0.000000 
#    y 0.000000 1.638570 0.000000 
#    z 0.000000 0.000000 1.776330 
# 
# From -- ./inp_files/1035.got.cif
#   From: 2010.05.17/outbox.cif.g08.bks.cpg/sg116_1_cif.got.tgz:1035.got - 2010.05.20 11:11:43.
