data_PCOD9557257
_publ_section_title
;
Structure prediction by ZEFSAII (Michael W. Deem and Ramdas Pophale) SiO2 
 PCOD9557257
Probable space group: P -4 M 2
;
_chemical_formula_sum "Si O2"
_cell_formula_units_Z 33
_cell_length_a 8.159727
_cell_length_b 8.159727
_cell_length_c 24.492116
_cell_angle_alpha 90.000000
_cell_angle_beta 90.000000
_cell_angle_gamma 90.000000
_cell_volume 1630.713120
_symmetry_space_group_name_H-M "P -4 M 2"
_symmetry_group_IT_number 115
_symmetry_cell_setting 'tetragonal'
loop_
_space_group_symop_operation_xyz
x,y,z
y,-x,-z
-x,-y,z
-y,x,-z
y,x,-z
-y,-x,-z
-x,y,z
x,-y,z
loop_
_atom_site_type_symbol
_atom_site_label
_atom_site_fract_x
_atom_site_fract_y
_atom_site_fract_z
Si Si1 0.500000 0.800509 0.916396
Si Si2 0.804008 0.310932 0.272207
Si Si3 0.500000 0.500000 0.000000
Si Si4 0.810461 0.810461 0.500000
Si Si5 0.307845 0.315100 0.386350
Si Si6 0.819281 0.198933 0.842971
O O1 0.336501 0.764206 0.880809
O O2 0.500000 0.000000 0.928906
O O3 0.500000 0.669065 0.965103
O O4 0.742250 0.500000 0.271101
O O5 0.765743 0.237412 0.331607
O O6 0.742753 0.216946 0.218821
O O7 0.000000 0.318418 0.267438
O O8 0.717745 0.765713 0.444807
O O9 0.000000 0.782671 0.487443
O O10 0.500000 0.324467 0.376427
O O11 0.238143 0.500000 0.390652
O O12 0.000000 0.255951 0.861252
O O13 0.824997 0.000000 0.841484
#
# Coordination Sequence:
#
# PCOD9557257 Si02
#       6
#     4   8   1   4   8   8
#     4  10  22  44  66  92 134 170 211 261 308 363
#     4   9  16  30  53  81 116 156 195 237 293 358
#     4  12  28  44  68 104 124 180 216 258 308 356
#     4  11  24  39  54  72  98 139 192 247 298 352
#     4  10  21  36  54  79 109 145 185 233 295 362
#     4   9  17  33  61  92 123 164 206 250 307 365
#
# _framework density 20.236547999999999
#
# number of rings (size 3 to 8) (size 9 to 14) (size 15 to 20)
#    0.000    2.303    1.212    1.455    0.000    5.818 
#    2.182    2.424    0.000    0.000    0.000    0.000 
#    0.000    0.000    0.000    0.000    0.000    0.000 
#
# Total GULP energy -183941.504273 kJ/mol
# GULP energy per Si atom -5573.984978 kJ/mol
# Density = 2.019049 g / cm^3
# Si number density = 20.236548 Si / 1000 Ang^3
#
#
#
# Elastic Constant Matrix: (Units=GPa)
#
#
# Indices 1 2 3 4 5 6 
#
# 1 80.7937 10.2468 46.9254 0.0000 0.0000 0.0000
# 2 10.2468 80.7937 46.9254 0.0000 0.0000 0.0000
# 3 46.9254 46.9254 128.3490 0.0000 0.0000 0.0000
# 4 0.0000 0.0000 0.0000 20.0586 0.0000 0.0000
# 5 0.0000 0.0000 0.0000 0.0000 20.0586 0.0000
# 6 0.0000 0.0000 0.0000 0.0000 0.0000 12.0950
#
#
#
# Elastic Compliance Matrix: (Units=1/GPa)
#
#
# Indices 1 2 3 4 5 6 
#
# 1 0.015901 0.001727 -0.006445 0.000000 0.000000 0.000000
# 2 0.001727 0.015901 -0.006445 0.000000 0.000000 0.000000
# 3 -0.006445 -0.006445 0.012504 0.000000 0.000000 0.000000
# 4 0.000000 0.000000 0.000000 0.049854 0.000000 0.000000
# 5 0.000000 0.000000 0.000000 0.000000 0.049854 0.000000
# 6 0.000000 0.000000 0.000000 0.000000 0.000000 0.082679
#
#
# Mechanical properties :
#
#
# Convention : Reuss Voigt Hill
#
# Bulk Modulus (GPa) = 45.49558 55.34798 50.42178
# Shear Modulus (GPa) = 19.50481 22.83168 21.16825
#
# Velocity S-wave (km/s) = 3.10795 3.36257 3.23776
# Velocity P-wave (km/s) = 5.95061 6.51811 6.24082
#
# Compressibility (1/GPa) = 0.02198016
#
# Stress axis : x y z
#
# Youngs Moduli (GPa) = 62.88722 62.88722 79.97503
#
# Poissons Ratio (x) = -0.10858 0.51543
# Poissons Ratio (y) = -0.10858 0.51543
# Poissons Ratio (z) = 0.40530 0.40530
#
# Static dielectric constant tensor:
#      x y z
#    x 1.730370 0.000000 0.000000 
#    y 0.000000 1.730370 0.000000 
#    z 0.000000 0.000000 1.698520 
# 
# From -- ./inp_files/4678.got.cif
#   From: 2010.05.17/outbox.cif.g08.bks.cpg/sg115_3_cif.got.tgz:4678.got - 2010.05.20 11:07:42.
