data_PCOD9557111
_publ_section_title
;
Structure prediction by ZEFSAII (Michael W. Deem and Ramdas Pophale) SiO2 
 PCOD9557111
Probable space group: P -4 M 2
;
_chemical_formula_sum "Si O2"
_cell_formula_units_Z 56
_cell_length_a 14.685620
_cell_length_b 14.685620
_cell_length_c 12.064217
_cell_angle_alpha 90.000000
_cell_angle_beta 90.000000
_cell_angle_gamma 90.000000
_cell_volume 2601.858733
_symmetry_space_group_name_H-M "P -4 M 2"
_symmetry_group_IT_number 115
_symmetry_cell_setting 'tetragonal'
loop_
_space_group_symop_operation_xyz
x,y,z
y,-x,-z
-x,-y,z
-y,x,-z
y,x,-z
-y,-x,-z
-x,y,z
x,-y,z
loop_
_atom_site_type_symbol
_atom_site_label
_atom_site_fract_x
_atom_site_fract_y
_atom_site_fract_z
Si Si1 0.896833 0.106341 0.187633
Si Si2 0.607561 0.219662 0.260538
Si Si3 0.280218 0.398670 0.307213
Si Si4 0.605805 0.895757 0.849104
Si Si5 0.790522 0.099258 0.585923
Si Si6 0.105677 0.291934 0.926076
Si Si7 0.849328 0.397130 0.495932
O O1 0.880533 0.174633 0.290411
O O2 0.814286 0.115595 0.102907
O O3 0.000000 0.122936 0.144364
O O4 0.894816 0.000000 0.226261
O O5 0.500000 0.228418 0.243797
O O6 0.653630 0.317453 0.277346
O O7 0.653735 0.168989 0.158337
O O8 0.621317 0.162493 0.374094
O O9 0.316281 0.500000 0.283245
O O10 0.185493 0.388236 0.238864
O O11 0.248761 0.395188 0.435073
O O12 0.500000 0.895041 0.889228
O O13 0.623236 0.000000 0.808991
O O14 0.675280 0.876485 0.949073
O O15 0.828428 0.171573 0.500000
O O16 0.683377 0.097702 0.563907
O O17 0.829413 0.000000 0.558597
O O18 0.000000 0.315919 0.904270
O O19 0.885201 0.500000 0.479522
#
# Coordination Sequence:
#
# PCOD9557111 Si02
#       7
#     8   8   8   8   8   8   8
#     4   9  18  32  53  85 121 155 194 240 290 347
#     4  11  23  38  59  88 120 151 189 240 293 349
#     4  10  21  39  62  85 115 155 194 236 289 348
#     4   9  19  37  62  91 119 151 197 248 293 341
#     4  11  21  33  52  79 115 156 196 238 284 340
#     4  10  20  37  61  86 117 157 197 239 292 351
#     4  10  22  39  58  83 116 152 191 238 291 345
#
# _framework density 21.523074000000001
#
# number of rings (size 3 to 8) (size 9 to 14) (size 15 to 20)
#    0.000    2.000    0.000    3.857    0.000    5.000 
#    0.000    3.571    0.000    3.429    0.000    2.000 
#    0.000    6.857    0.000    0.286    0.000    0.000 
#
# Total GULP energy -313107.580370 kJ/mol
# GULP energy per Si atom -5591.206792 kJ/mol
# Density = 2.147409 g / cm^3
# Si number density = 21.523074 Si / 1000 Ang^3
#
#
#
# Elastic Constant Matrix: (Units=GPa)
#
#
# Indices 1 2 3 4 5 6 
#
# 1 66.5943 33.3926 24.1971 0.0000 0.0000 0.0000
# 2 33.3926 66.5974 24.1956 0.0000 0.0000 0.0000
# 3 24.1971 24.1956 57.3096 0.0000 0.0000 0.0000
# 4 0.0000 0.0000 0.0000 24.1187 0.0000 0.0000
# 5 0.0000 0.0000 0.0000 0.0000 24.1190 0.0000
# 6 0.0000 0.0000 0.0000 0.0000 0.0000 30.2479
#
#
#
# Elastic Compliance Matrix: (Units=1/GPa)
#
#
# Indices 1 2 3 4 5 6 
#
# 1 0.021344 -0.008774 -0.005308 0.000000 0.000000 0.000000
# 2 -0.008774 0.021343 -0.005306 0.000000 0.000000 0.000000
# 3 -0.005308 -0.005306 0.021930 0.000000 0.000000 0.000000
# 4 0.000000 0.000000 0.000000 0.041462 0.000000 0.000000
# 5 0.000000 0.000000 0.000000 0.000000 0.041461 0.000000
# 6 0.000000 0.000000 0.000000 0.000000 0.000000 0.033060
#
#
# Mechanical properties :
#
#
# Convention : Reuss Voigt Hill
#
# Bulk Modulus (GPa) = 38.69704 39.34133 39.01918
# Shear Modulus (GPa) = 21.93078 22.94484 22.43781
#
# Velocity S-wave (km/s) = 3.19555 3.26860 3.23228
# Velocity P-wave (km/s) = 5.62439 5.70643 5.66556
#
# Compressibility (1/GPa) = 0.02584177
#
# Stress axis : x y z
#
# Youngs Moduli (GPa) = 46.85071 46.85431 45.59894
#
# Poissons Ratio (x) = 0.41110 0.24203
# Poissons Ratio (y) = 0.41107 0.24196
# Poissons Ratio (z) = 0.24867 0.24862
#
# Static dielectric constant tensor:
#      x y z
#    x 1.782640 0.000000 0.000000 
#    y 0.000000 1.782640 0.000000 
#    z 0.000000 0.000000 1.775950 
# 
# From -- ./inp_files/3077.got.cif
#   From: 2010.05.17/outbox.cif.g08.bks.cpg/sg115_2_cif.got.tgz:3077.got - 2010.05.20 11:07:42.
