data_PCOD9557912
_publ_section_title
;
Structure prediction by ZEFSAII (Michael W. Deem and Ramdas Pophale) SiO2 
 PCOD9557912
Probable space group: P -4 C 2
;
_chemical_formula_sum "Si O2"
_cell_formula_units_Z 32
_cell_length_a 11.481222
_cell_length_b 11.481222
_cell_length_c 10.553416
_cell_angle_alpha 90.000000
_cell_angle_beta 90.000000
_cell_angle_gamma 90.000000
_cell_volume 1391.135030
_symmetry_space_group_name_H-M "P -4 C 2"
_symmetry_group_IT_number 116
_symmetry_cell_setting 'tetragonal'
loop_
_space_group_symop_operation_xyz
x,y,z
y,-x,-z
-x,-y,z
-y,x,-z
y,x,1/2-z
-y,-x,1/2-z
-x,y,1/2+z
x,-y,1/2+z
loop_
_atom_site_type_symbol
_atom_site_label
_atom_site_fract_x
_atom_site_fract_y
_atom_site_fract_z
Si Si1 0.466910 0.295840 0.824144
Si Si2 0.500000 0.500000 0.500000
Si Si3 0.000000 0.000000 0.750000
Si Si4 0.952281 0.370489 0.134508
Si Si5 0.724313 0.724313 0.250000
Si Si6 0.238078 0.050370 0.120684
O O1 0.389551 0.389551 0.750000
O O2 0.388324 0.186425 0.856503
O O3 0.585813 0.255759 0.757192
O O4 0.516803 0.375180 0.935494
O O5 0.997882 0.112575 0.840164
O O6 0.000000 0.500000 0.108928
O O7 0.002155 0.321966 0.266860
O O8 0.980905 0.286546 0.016837
O O9 0.765272 0.808783 0.136537
#
# Coordination Sequence:
#
# PCOD9557912 Si02
#       6
#     8   2   2   8   4   8
#     4  12  25  43  71 109 148 194 249 303 383 458
#     4  12  22  40  68 102 148 192 238 308 366 460
#     4  10  28  54  78 110 150 200 274 318 396 456
#     4  12  27  47  76 108 151 199 254 314 388 460
#     4  11  21  49  69 108 150 194 243 317 381 455
#     4  11  27  50  78 107 148 202 257 322 380 464
#
# _framework density 23.002800000000001
#
# number of rings (size 3 to 8) (size 9 to 14) (size 15 to 20)
#    0.000    0.500    5.000    2.250    1.750    5.000 
#    0.000    0.000    0.000    0.000    0.000    0.000 
#    0.000    0.000    0.000    0.000    0.000    0.000 
#
# Total GULP energy -178944.038743 kJ/mol
# GULP energy per Si atom -5592.001211 kJ/mol
# Density = 2.295044 g / cm^3
# Si number density = 23.002800 Si / 1000 Ang^3
#
#
#
# Elastic Constant Matrix: (Units=GPa)
#
#
# Indices 1 2 3 4 5 6 
#
# 1 129.9533 30.3538 24.5603 0.0000 0.0000 0.0000
# 2 30.3538 129.9533 24.5603 0.0000 0.0000 0.0000
# 3 24.5603 24.5603 75.5087 0.0000 0.0000 0.0000
# 4 0.0000 0.0000 0.0000 -2.6589 0.0000 0.0000
# 5 0.0000 0.0000 0.0000 0.0000 -2.6589 0.0000
# 6 0.0000 0.0000 0.0000 0.0000 0.0000 42.5558
#
#
#
# Elastic Compliance Matrix: (Units=1/GPa)
#
#
# Indices 1 2 3 4 5 6 
#
# 1 0.008484 -0.001556 -0.002254 0.000000 0.000000 0.000000
# 2 -0.001556 0.008484 -0.002254 0.000000 0.000000 0.000000
# 3 -0.002254 -0.002254 0.014710 0.000000 0.000000 0.000000
# 4 0.000000 0.000000 0.000000 -0.376093 0.000000 0.000000
# 5 0.000000 0.000000 0.000000 0.000000 -0.376093 0.000000
# 6 0.000000 0.000000 0.000000 0.000000 0.000000 0.023499
#
#
# Mechanical properties :
#
#
# Convention : Reuss Voigt Hill
#
# Bulk Modulus (GPa) = 51.14506 54.92933 53.03720
# Shear Modulus (GPa) = -7.37067 24.51032 8.56983
#
# Velocity S-wave (km/s) = -1.79198 3.26780 1.93226
# Velocity P-wave (km/s) = 4.24275 6.17813 5.29954
#
# Compressibility (1/GPa) = 0.01955223
#
# Stress axis : x y z
#
# Youngs Moduli (GPa) = 117.86351 117.86351 67.98303
#
# Poissons Ratio (x) = 0.18337 0.15321
# Poissons Ratio (y) = 0.18337 0.15321
# Poissons Ratio (z) = 0.26562 0.26562
#
# Static dielectric constant tensor:
#      x y z
#    x 1.876090 0.000000 0.000000 
#    y 0.000000 1.876090 0.000000 
#    z 0.000000 0.000000 1.928800 
# 
# From -- ./inp_files/1637.got.cif
#   From: 2010.05.17/outbox.cif.g08.bks.cpg/sg116_1_cif.got.tgz:1637.got - 2010.05.20 11:11:43.
