data_PCOD9557916
_publ_section_title
;
Structure prediction by ZEFSAII (Michael W. Deem and Ramdas Pophale) SiO2 
 PCOD9557916
Probable space group: P -4 C 2
;
_chemical_formula_sum "Si O2"
_cell_formula_units_Z 64
_cell_length_a 20.601213
_cell_length_b 20.601213
_cell_length_c 9.084115
_cell_angle_alpha 90.000000
_cell_angle_beta 90.000000
_cell_angle_gamma 90.000000
_cell_volume 3855.389039
_symmetry_space_group_name_H-M "P -4 C 2"
_symmetry_group_IT_number 116
_symmetry_cell_setting 'tetragonal'
loop_
_space_group_symop_operation_xyz
x,y,z
y,-x,-z
-x,-y,z
-y,x,-z
y,x,1/2-z
-y,-x,1/2-z
-x,y,1/2+z
x,-y,1/2+z
loop_
_atom_site_type_symbol
_atom_site_label
_atom_site_fract_x
_atom_site_fract_y
_atom_site_fract_z
Si Si1 0.925185 0.369838 0.532439
Si Si2 0.715781 0.189110 0.924308
Si Si3 0.627010 0.065570 0.611384
Si Si4 0.853970 0.502375 0.908116
Si Si5 0.492894 0.240317 0.845813
Si Si6 0.183747 0.711337 0.931675
Si Si7 0.692497 0.373773 0.611125
Si Si8 0.294476 0.642319 0.119380
O O1 0.878261 0.307792 0.508978
O O2 0.934575 0.373181 0.709749
O O3 0.887657 0.432511 0.467092
O O4 0.993989 0.366384 0.452728
O O5 0.785421 0.218324 0.970525
O O6 0.711249 0.186516 0.746312
O O7 0.660846 0.243161 0.954899
O O8 0.558348 0.098532 0.569955
O O9 0.683459 0.111967 0.544065
O O10 0.828112 0.504593 0.741312
O O11 0.785235 0.491195 0.987670
O O12 0.555813 0.285649 0.836030
O O13 0.426932 0.277412 0.812710
O O14 0.234478 0.663595 0.013929
O O15 0.666487 0.333514 0.750000
O O16 0.641240 0.359173 0.481860
O O17 0.307000 0.693001 0.250000
#
# Coordination Sequence:
#
# PCOD9557916 Si02
#       8
#     8   8   8   8   8   8   8   8
#     4  11  24  36  53  77 113 150 183 218 271 327
#     4   9  16  34  57  76  94 138 191 218 253 325
#     4  11  23  38  51  76 112 153 180 218 272 328
#     4  12  22  36  54  76 105 149 184 218 265 330
#     4  12  23  36  58  80 106 135 187 231 277 346
#     4   9  17  34  55  73 102 137 180 223 266 316
#     4  11  19  37  58  74  99 140 179 230 289 336
#     4  11  22  33  52  84 108 125 174 248 297 323
#
# _framework density 16.60014
#
# number of rings (size 3 to 8) (size 9 to 14) (size 15 to 20)
#    0.000    1.250    6.250    2.625    3.500    1.000 
#    0.000    0.000    0.000    2.250    0.000    0.000 
#    0.000    0.500    0.000    6.250    0.000    0.000 
#
# Total GULP energy -356370.830259 kJ/mol
# GULP energy per Si atom -5568.294223 kJ/mol
# Density = 1.656236 g / cm^3
# Si number density = 16.600140 Si / 1000 Ang^3
#
#
#
# Elastic Constant Matrix: (Units=GPa)
#
#
# Indices 1 2 3 4 5 6 
#
# 1 89.3805 65.3285 17.0861 0.0000 0.0000 0.0000
# 2 65.3285 89.3806 17.0868 0.0000 0.0000 0.0000
# 3 17.0861 17.0868 34.4777 0.0000 0.0000 0.0000
# 4 0.0000 0.0000 0.0000 23.3377 0.0000 0.0000
# 5 0.0000 0.0000 0.0000 0.0000 23.3378 0.0000
# 6 0.0000 0.0000 0.0000 0.0000 0.0000 18.9937
#
#
#
# Elastic Compliance Matrix: (Units=1/GPa)
#
#
# Indices 1 2 3 4 5 6 
#
# 1 0.024417 -0.017159 -0.003597 0.000000 0.000000 0.000000
# 2 -0.017159 0.024417 -0.003597 0.000000 0.000000 0.000000
# 3 -0.003597 -0.003597 0.032569 0.000000 0.000000 0.000000
# 4 0.000000 0.000000 0.000000 0.042849 0.000000 0.000000
# 5 0.000000 0.000000 0.000000 0.000000 0.042849 0.000000
# 6 0.000000 0.000000 0.000000 0.000000 0.000000 0.052649
#
#
# Mechanical properties :
#
#
# Convention : Reuss Voigt Hill
#
# Bulk Modulus (GPa) = 30.58308 45.80462 38.19385
# Shear Modulus (GPa) = 17.89824 20.71634 19.30729
#
# Velocity S-wave (km/s) = 3.28716 3.53648 3.41410
# Velocity P-wave (km/s) = 5.73329 6.65796 6.21285
#
# Compressibility (1/GPa) = 0.03269782
#
# Stress axis : x y z
#
# Youngs Moduli (GPa) = 40.95460 40.95429 30.70360
#
# Poissons Ratio (x) = 0.70274 0.11043
# Poissons Ratio (y) = 0.70274 0.11046
# Poissons Ratio (z) = 0.14730 0.14733
#
# Static dielectric constant tensor:
#      x y z
#    x 1.573570 0.000000 0.000000 
#    y 0.000000 1.573570 0.000000 
#    z 0.000000 0.000000 1.608010 
# 
# From -- ./inp_files/1139.got.cif
#   From: 2010.05.17/outbox.cif.g08.bks.cpg/sg116_1_cif.got.tgz:1139.got - 2010.05.20 11:11:43.
