data_PCOD9557041
_publ_section_title
;
Structure prediction by ZEFSAII (Michael W. Deem and Ramdas Pophale) SiO2 
 PCOD9557041
Probable space group: P -4 M 2
;
_chemical_formula_sum "Si O2"
_cell_formula_units_Z 48
_cell_length_a 14.795970
_cell_length_b 14.795970
_cell_length_c 10.944221
_cell_angle_alpha 90.000000
_cell_angle_beta 90.000000
_cell_angle_gamma 90.000000
_cell_volume 2395.916831
_symmetry_space_group_name_H-M "P -4 M 2"
_symmetry_group_IT_number 115
_symmetry_cell_setting 'tetragonal'
loop_
_space_group_symop_operation_xyz
x,y,z
y,-x,-z
-x,-y,z
-y,x,-z
y,x,-z
-y,-x,-z
-x,y,z
x,-y,z
loop_
_atom_site_type_symbol
_atom_site_label
_atom_site_fract_x
_atom_site_fract_y
_atom_site_fract_z
Si Si1 0.095161 0.740470 0.939448
Si Si2 0.173533 0.500000 0.456849
Si Si3 0.100875 0.168577 0.205205
Si Si4 0.394360 0.500000 0.849764
Si Si5 0.104587 0.500000 0.710520
Si Si6 0.368806 0.500000 0.562225
Si Si7 0.787677 0.297398 0.374877
Si Si8 0.751804 0.360012 0.823341
O O1 0.100376 0.820080 0.836986
O O2 0.187366 0.687440 0.924023
O O3 0.000000 0.690501 0.919697
O O4 0.093704 0.776749 0.077286
O O5 0.100073 0.500000 0.563400
O O6 0.265511 0.500000 0.534489
O O7 0.178165 0.598304 0.389917
O O8 0.135750 0.232468 0.314795
O O9 0.000000 0.132001 0.230185
O O10 0.500000 0.500000 0.881439
O O11 0.391667 0.500000 0.702615
O O12 0.330231 0.584037 0.880917
O O13 0.169006 0.582537 0.754743
O O14 0.000000 0.500000 0.755093
O O15 0.414056 0.585945 0.500000
O O16 0.746807 0.253194 0.500000
O O17 0.707673 0.291436 0.274945
#
# Coordination Sequence:
#
# PCOD9557041 Si02
#       8
#     8   4   8   4   4   4   8   8
#     4   9  18  37  65  90 116 157 203 253 305 367
#     4  12  21  33  50  76 114 153 207 247 287 368
#     4   9  20  38  61  92 122 153 199 250 305 373
#     4  11  19  30  48  85 114 151 199 263 308 363
#     4  11  21  32  48  76 112 151 199 251 295 361
#     4  11  18  26  47  73 106 143 193 257 308 348
#     4  11  21  36  56  83 118 158 196 245 309 368
#     4  10  20  35  53  82 117 150 203 250 311 361
#
# _framework density 20.034082999999999
#
# number of rings (size 3 to 8) (size 9 to 14) (size 15 to 20)
#    0.000    1.750    4.167    2.000    1.167    1.000 
#    0.000    4.167    0.000    4.000    6.500    0.000 
#    0.000    0.000    0.000    0.000    0.000    0.000 
#
# Total GULP energy -267223.606901 kJ/mol
# GULP energy per Si atom -5567.158477 kJ/mol
# Density = 1.998848 g / cm^3
# Si number density = 20.034083 Si / 1000 Ang^3
#
#
#
# Elastic Constant Matrix: (Units=GPa)
#
#
# Indices 1 2 3 4 5 6 
#
# 1 109.2773 30.6853 14.9996 0.0000 0.0000 0.0000
# 2 30.6853 109.2768 14.9991 0.0000 0.0000 0.0000
# 3 14.9996 14.9991 55.5410 0.0000 0.0000 0.0000
# 4 0.0000 0.0000 0.0000 -0.9289 0.0000 0.0000
# 5 0.0000 0.0000 0.0000 0.0000 -0.9299 0.0000
# 6 0.0000 0.0000 0.0000 0.0000 0.0000 9.1686
#
#
#
# Elastic Compliance Matrix: (Units=1/GPa)
#
#
# Indices 1 2 3 4 5 6 
#
# 1 0.010154 -0.002570 -0.002048 0.000000 0.000000 0.000000
# 2 -0.002570 0.010154 -0.002048 0.000000 0.000000 0.000000
# 3 -0.002048 -0.002048 0.019111 0.000000 0.000000 0.000000
# 4 0.000000 0.000000 0.000000 -1.076576 0.000000 0.000000
# 5 0.000000 0.000000 0.000000 0.000000 -1.075355 0.000000
# 6 0.000000 0.000000 0.000000 0.000000 0.000000 0.109068
#
#
# Mechanical properties :
#
#
# Convention : Reuss Voigt Hill
#
# Bulk Modulus (GPa) = 38.33449 43.94034 41.13741
# Shear Modulus (GPa) = -2.52345 15.68936 6.58296
#
# Velocity S-wave (km/s) = -1.12353 2.80149 1.81467
# Velocity P-wave (km/s) = 4.18247 5.69604 4.99690
#
# Compressibility (1/GPa) = 0.02608617
#
# Stress axis : x y z
#
# Youngs Moduli (GPa) = 98.48477 98.48462 52.32612
#
# Poissons Ratio (x) = 0.25312 0.10717
# Poissons Ratio (y) = 0.25312 0.10716
# Poissons Ratio (z) = 0.20171 0.20170
#
# Static dielectric constant tensor:
#      x y z
#    x 1.753820 0.000000 0.000000 
#    y 0.000000 1.753810 0.000000 
#    z 0.000000 0.000000 1.696480 
# 
# From -- ./inp_files/3044.got.cif
#   From: 2010.05.17/outbox.cif.g08.bks.cpg/sg115_2_cif.got.tgz:3044.got - 2010.05.20 11:07:42.
