data_PCOD9557039
_publ_section_title
;
Structure prediction by ZEFSAII (Michael W. Deem and Ramdas Pophale) SiO2 
 PCOD9557039
Probable space group: P -4 M 2
;
_chemical_formula_sum "Si O2"
_cell_formula_units_Z 52
_cell_length_a 15.284748
_cell_length_b 15.284748
_cell_length_c 12.240832
_cell_angle_alpha 90.000000
_cell_angle_beta 90.000000
_cell_angle_gamma 90.000000
_cell_volume 2859.746277
_symmetry_space_group_name_H-M "P -4 M 2"
_symmetry_group_IT_number 115
_symmetry_cell_setting 'tetragonal'
loop_
_space_group_symop_operation_xyz
x,y,z
y,-x,-z
-x,-y,z
-y,x,-z
y,x,-z
-y,-x,-z
-x,y,z
x,-y,z
loop_
_atom_site_type_symbol
_atom_site_label
_atom_site_fract_x
_atom_site_fract_y
_atom_site_fract_z
Si Si1 0.656339 0.601720 0.112965
Si Si2 0.348495 0.783795 0.343022
Si Si3 0.679501 0.810635 0.752309
Si Si4 0.500000 0.331202 0.272942
Si Si5 0.104146 0.598977 0.869605
Si Si6 0.396165 0.101672 0.542327
Si Si7 0.756315 0.896748 0.961920
O O1 0.645044 0.500000 0.086960
O O2 0.745697 0.618247 0.177763
O O3 0.576909 0.633585 0.188738
O O4 0.654726 0.654726 0.000000
O O5 0.255132 0.744952 0.310423
O O6 0.422084 0.708923 0.352333
O O7 0.381866 0.841990 0.240050
O O8 0.347782 0.841085 0.451357
O O9 0.627691 0.865357 0.662719
O O10 0.729473 0.870618 0.839415
O O11 0.127680 0.500000 0.906081
O O12 0.000000 0.600416 0.846993
O O13 0.121997 0.672860 0.959328
O O14 0.500000 0.110967 0.523485
O O15 0.373424 0.000000 0.530395
O O16 0.775319 0.000000 0.970158
O O17 0.836374 0.836374 0.000000
#
# Coordination Sequence:
#
# PCOD9557039 Si02
#       7
#     8   8   8   4   8   8   8
#     4  11  22  35  56  85 122 168 210 251 296 357
#     4  11  20  37  60  85 118 153 202 251 307 357
#     4  11  24  38  58  89 122 156 198 252 315 368
#     4  10  21  32  55  86 116 156 208 262 287 347
#     4  10  20  34  59  92 123 155 197 253 310 367
#     4  11  23  41  63  85 115 156 200 253 310 374
#     4  11  23  41  63  90 127 166 207 256 316 385
#
# _framework density 18.183430999999999
#
# number of rings (size 3 to 8) (size 9 to 14) (size 15 to 20)
#    0.000    1.231    3.846    2.538    2.154    2.615 
#    0.000    1.538    0.000    0.000    0.000    0.000 
#    0.000    2.462    0.000    0.000    0.000    0.000 
#
# Total GULP energy -289539.400392 kJ/mol
# GULP energy per Si atom -5568.065392 kJ/mol
# Density = 1.814204 g / cm^3
# Si number density = 18.183431 Si / 1000 Ang^3
#
#
#
# Elastic Constant Matrix: (Units=GPa)
#
#
# Indices 1 2 3 4 5 6 
#
# 1 40.9175 17.7751 8.9853 0.0000 0.0000 0.0000
# 2 17.7751 40.9175 8.9853 0.0000 0.0000 0.0000
# 3 8.9853 8.9853 63.7896 0.0000 0.0000 0.0000
# 4 0.0000 0.0000 0.0000 27.5727 0.0000 0.0000
# 5 0.0000 0.0000 0.0000 0.0000 27.5727 0.0000
# 6 0.0000 0.0000 0.0000 0.0000 0.0000 16.2498
#
#
#
# Elastic Compliance Matrix: (Units=1/GPa)
#
#
# Indices 1 2 3 4 5 6 
#
# 1 0.030508 -0.012702 -0.002508 0.000000 0.000000 0.000000
# 2 -0.012702 0.030508 -0.002508 0.000000 0.000000 0.000000
# 3 -0.002508 -0.002508 0.016383 0.000000 0.000000 0.000000
# 4 0.000000 0.000000 0.000000 0.036268 0.000000 0.000000
# 5 0.000000 0.000000 0.000000 0.000000 0.036268 0.000000
# 6 0.000000 0.000000 0.000000 0.000000 0.000000 0.061539
#
#
# Mechanical properties :
#
#
# Convention : Reuss Voigt Hill
#
# Bulk Modulus (GPa) = 23.83086 24.12400 23.97743
# Shear Modulus (GPa) = 19.16451 21.60430 20.38441
#
# Velocity S-wave (km/s) = 3.24999 3.45067 3.35183
# Velocity P-wave (km/s) = 5.21704 5.40111 5.30987
#
# Compressibility (1/GPa) = 0.04196240
#
# Stress axis : x y z
#
# Youngs Moduli (GPa) = 32.77804 32.77804 61.03851
#
# Poissons Ratio (x) = 0.41636 0.15309
# Poissons Ratio (y) = 0.41636 0.15309
# Poissons Ratio (z) = 0.08221 0.08221
#
# Static dielectric constant tensor:
#      x y z
#    x 1.625190 0.000000 0.000000 
#    y 0.000000 1.625190 0.000000 
#    z 0.000000 0.000000 1.627420 
# 
# From -- ./inp_files/3065.got.cif
#   From: 2010.05.17/outbox.cif.g08.bks.cpg/sg115_2_cif.got.tgz:3065.got - 2010.05.20 11:07:42.
