data_PCOD9557173
_publ_section_title
;
Structure prediction by ZEFSAII (Michael W. Deem and Ramdas Pophale) SiO2 
 PCOD9557173
Probable space group: P -4 M 2
;
_chemical_formula_sum "Si O2"
_cell_formula_units_Z 48
_cell_length_a 8.182009
_cell_length_b 8.182009
_cell_length_c 35.364124
_cell_angle_alpha 90.000000
_cell_angle_beta 90.000000
_cell_angle_gamma 90.000000
_cell_volume 2367.460875
_symmetry_space_group_name_H-M "P -4 M 2"
_symmetry_group_IT_number 115
_symmetry_cell_setting 'tetragonal'
loop_
_space_group_symop_operation_xyz
x,y,z
y,-x,-z
-x,-y,z
-y,x,-z
y,x,-z
-y,-x,-z
-x,y,z
x,-y,z
loop_
_atom_site_type_symbol
_atom_site_label
_atom_site_fract_x
_atom_site_fract_y
_atom_site_fract_z
Si Si1 0.307068 0.687501 0.379640
Si Si2 0.315928 0.694836 0.119719
Si Si3 0.803880 0.814461 0.959769
Si Si4 0.000000 0.698639 0.667212
Si Si5 0.000000 0.801376 0.754062
Si Si6 0.686184 0.808421 0.799882
Si Si7 0.809520 0.311773 0.460991
O O1 0.500000 0.675736 0.372061
O O2 0.239992 0.500000 0.375529
O O3 0.284114 0.740588 0.423321
O O4 0.241499 0.833332 0.353343
O O5 0.500000 0.740051 0.130147
O O6 0.304744 0.500000 0.115043
O O7 0.274324 0.767587 0.079137
O O8 0.207916 0.736365 0.156050
O O9 0.000000 0.820801 0.964177
O O10 0.741087 0.000000 0.955460
O O11 0.743184 0.743184 0.000000
O O12 0.000000 0.751002 0.710579
O O13 0.000000 0.500000 0.664787
O O14 0.166372 0.740560 0.774508
O O15 0.000000 0.000000 0.756968
O O16 0.500000 0.738657 0.795644
O O17 0.673513 0.000000 0.790960
O O18 0.780162 0.219839 0.500000
O O19 0.762508 0.500000 0.468293
O O20 0.000000 0.304677 0.451370
#
# Coordination Sequence:
#
# PCOD9557173 Si02
#       7
#     8   8   8   4   4   8   8
#     4   9  19  37  58  79 109 151 194 234 280 339
#     4  10  21  35  52  78 109 140 175 220 277 330
#     4   9  19  35  53  74 102 139 183 225 265 318
#     4  10  22  38  58  84 112 146 188 234 286 344
#     4  10  22  38  58  86 112 142 184 228 284 344
#     4   9  19  37  58  80 110 146 183 225 277 340
#     4  10  21  35  53  80 112 147 188 234 285 337
#
# _framework density 20.274887
#
# number of rings (size 3 to 8) (size 9 to 14) (size 15 to 20)
#    0.000    2.500    0.000    1.500    2.333    5.000 
#    0.000    2.500    0.000    0.000    0.000    0.000 
#    0.000    0.000    0.000    0.000    0.000    0.000 
#
# Total GULP energy -267510.109206 kJ/mol
# GULP energy per Si atom -5573.127275 kJ/mol
# Density = 2.022874 g / cm^3
# Si number density = 20.274887 Si / 1000 Ang^3
#
#
#
# Elastic Constant Matrix: (Units=GPa)
#
#
# Indices 1 2 3 4 5 6 
#
# 1 38.3909 27.6406 40.1939 0.0000 0.0000 0.0000
# 2 27.6406 38.3910 40.1944 0.0000 0.0000 0.0000
# 3 40.1939 40.1944 128.8364 0.0000 0.0000 0.0000
# 4 0.0000 0.0000 0.0000 37.1320 0.0000 0.0000
# 5 0.0000 0.0000 0.0000 0.0000 37.1321 0.0000
# 6 0.0000 0.0000 0.0000 0.0000 0.0000 10.6175
#
#
#
# Elastic Compliance Matrix: (Units=1/GPa)
#
#
# Indices 1 2 3 4 5 6 
#
# 1 0.058719 -0.034301 -0.007618 0.000000 0.000000 0.000000
# 2 -0.034301 0.058720 -0.007618 0.000000 0.000000 0.000000
# 3 -0.007618 -0.007618 0.012515 0.000000 0.000000 0.000000
# 4 0.000000 0.000000 0.000000 0.026931 0.000000 0.000000
# 5 0.000000 0.000000 0.000000 0.000000 0.026931 0.000000
# 6 0.000000 0.000000 0.000000 0.000000 0.000000 0.094184
#
#
# Mechanical properties :
#
#
# Convention : Reuss Voigt Hill
#
# Bulk Modulus (GPa) = 32.38325 46.85291 39.61808
# Shear Modulus (GPa) = 12.90761 23.48227 18.19494
#
# Velocity S-wave (km/s) = 2.52589 3.40692 2.99893
# Velocity P-wave (km/s) = 4.95112 6.21572 5.61911
#
# Compressibility (1/GPa) = 0.03088016
#
# Stress axis : x y z
#
# Youngs Moduli (GPa) = 17.03015 17.02998 79.90310
#
# Poissons Ratio (x) = 0.58414 0.60869
# Poissons Ratio (y) = 0.58415 0.60873
# Poissons Ratio (z) = 0.12973 0.12974
#
# Static dielectric constant tensor:
#      x y z
#    x 1.745510 0.000000 0.000000 
#    y 0.000000 1.745510 0.000000 
#    z 0.000000 0.000000 1.700490 
# 
# From -- ./inp_files/6185.got.cif
#   From: 2010.05.17/outbox.cif.g08.bks.cpg/sg115_4_cif.got.tgz:6185.got - 2010.05.20 11:07:42.
