data_PCOD9557063
_publ_section_title
;
Structure prediction by ZEFSAII (Michael W. Deem and Ramdas Pophale) SiO2 
 PCOD9557063
Probable space group: P -4 M 2
;
_chemical_formula_sum "Si O2"
_cell_formula_units_Z 48
_cell_length_a 9.149922
_cell_length_b 9.149922
_cell_length_c 31.903084
_cell_angle_alpha 90.000000
_cell_angle_beta 90.000000
_cell_angle_gamma 90.000000
_cell_volume 2670.960412
_symmetry_space_group_name_H-M "P -4 M 2"
_symmetry_group_IT_number 115
_symmetry_cell_setting 'tetragonal'
loop_
_space_group_symop_operation_xyz
x,y,z
y,-x,-z
-x,-y,z
-y,x,-z
y,x,-z
-y,-x,-z
-x,y,z
x,-y,z
loop_
_atom_site_type_symbol
_atom_site_label
_atom_site_fract_x
_atom_site_fract_y
_atom_site_fract_z
Si Si1 0.672908 0.324902 0.828181
Si Si2 0.826221 0.173780 0.000000
Si Si3 0.675102 0.171516 0.085647
Si Si4 0.168062 0.322111 0.414763
Si Si5 0.675641 0.327189 0.670841
Si Si6 0.173612 0.826245 0.250367
Si Si7 0.325703 0.674298 0.500000
O O1 0.500000 0.297294 0.826541
O O2 0.695737 0.500000 0.823347
O O3 0.738370 0.281646 0.873287
O O4 0.754049 0.242243 0.790935
O O5 0.748085 0.223204 0.042540
O O6 0.000000 0.198538 0.004135
O O7 0.500000 0.181138 0.081407
O O8 0.713094 0.000000 0.091697
O O9 0.169794 0.500000 0.415226
O O10 0.256959 0.278220 0.373448
O O11 0.243480 0.275914 0.458086
O O12 0.000000 0.274643 0.412329
O O13 0.500000 0.307289 0.675186
O O14 0.704746 0.500000 0.671104
O O15 0.755189 0.248842 0.709126
O O16 0.000000 0.799979 0.251698
O O17 0.198998 0.000000 0.249784
O O18 0.500000 0.696812 0.494627
#
# Coordination Sequence:
#
# PCOD9557063 Si02
#       7
#     8   4   8   8   8   8   4
#     4  10  21  37  57  81 107 137 176 220 265 314
#     4   9  18  32  50  73 102 136 174 215 258 307
#     4   9  18  33  52  74 103 139 175 213 261 314
#     4   9  17  30  50  76 105 137 173 215 263 312
#     4  10  20  35  57  83 108 137 176 220 265 314
#     4  11  24  39  55  78 108 141 176 215 262 316
#     4   9  16  28  48  73 100 132 174 219 258 304
#
# _framework density 17.971063999999998
#
# number of rings (size 3 to 8) (size 9 to 14) (size 15 to 20)
#    0.000    2.333    0.000    2.500    0.000    8.667 
#    0.000    2.500    0.000    3.250    0.000    0.000 
#    0.000    0.000    0.000    0.000    0.000    0.000 
#
# Total GULP energy -267946.107997 kJ/mol
# GULP energy per Si atom -5582.210583 kJ/mol
# Density = 1.793016 g / cm^3
# Si number density = 17.971064 Si / 1000 Ang^3
#
#
#
# Elastic Constant Matrix: (Units=GPa)
#
#
# Indices 1 2 3 4 5 6 
#
# 1 73.8875 68.3504 94.3314 0.0000 0.0000 0.0000
# 2 68.3504 73.8869 94.3314 0.0000 0.0000 0.0000
# 3 94.3314 94.3314 229.1813 0.0000 0.0000 0.0000
# 4 0.0000 0.0000 0.0000 189.5733 0.0000 0.0000
# 5 0.0000 0.0000 0.0000 0.0000 189.4860 0.0000
# 6 0.0000 0.0000 0.0000 0.0000 0.0000 21.5623
#
#
#
# Elastic Compliance Matrix: (Units=1/GPa)
#
#
# Indices 1 2 3 4 5 6 
#
# 1 0.098045 -0.082562 -0.006373 0.000000 0.000000 0.000000
# 2 -0.082562 0.098047 -0.006374 0.000000 0.000000 0.000000
# 3 -0.006373 -0.006374 0.009610 0.000000 0.000000 0.000000
# 4 0.000000 0.000000 0.000000 0.005275 0.000000 0.000000
# 5 0.000000 0.000000 0.000000 0.000000 0.005277 0.000000
# 6 0.000000 0.000000 0.000000 0.000000 0.000000 0.046377
#
#
# Mechanical properties :
#
#
# Convention : Reuss Voigt Hill
#
# Bulk Modulus (GPa) = 66.29219 98.99800 82.64510
# Shear Modulus (GPa) = 10.91041 88.12047 49.51544
#
# Velocity S-wave (km/s) = 2.46663 7.01007 5.25478
# Velocity P-wave (km/s) = 6.71422 10.98765 9.10520
#
# Compressibility (1/GPa) = 0.01508473
#
# Stress axis : x y z
#
# Youngs Moduli (GPa) = 10.19936 10.19917 104.06079
#
# Poissons Ratio (x) = 0.84207 0.66315
# Poissons Ratio (y) = 0.84208 0.66324
# Poissons Ratio (z) = 0.06500 0.06501
#
# Static dielectric constant tensor:
#      x y z
#    x 1.600970 0.000000 0.000000 
#    y 0.000000 1.600980 0.000000 
#    z 0.000000 0.000000 1.587140 
# 
# From -- ./inp_files/6194.got.cif
#   From: 2010.05.17/outbox.cif.g08.bks.cpg/sg115_4_cif.got.tgz:6194.got - 2010.05.20 11:07:42.
