data_PCOD9557751
_publ_section_title
;
Structure prediction by ZEFSAII (Michael W. Deem and Ramdas Pophale) SiO2 
 PCOD9557751
Probable space group: P -4 C 2
;
_chemical_formula_sum "Si O2"
_cell_formula_units_Z 44
_cell_length_a 8.465228
_cell_length_b 8.465228
_cell_length_c 28.932077
_cell_angle_alpha 90.000000
_cell_angle_beta 90.000000
_cell_angle_gamma 90.000000
_cell_volume 2073.275100
_symmetry_space_group_name_H-M "P -4 C 2"
_symmetry_group_IT_number 116
_symmetry_cell_setting 'tetragonal'
loop_
_space_group_symop_operation_xyz
x,y,z
y,-x,-z
-x,-y,z
-y,x,-z
y,x,1/2-z
-y,-x,1/2-z
-x,y,1/2+z
x,-y,1/2+z
loop_
_atom_site_type_symbol
_atom_site_label
_atom_site_fract_x
_atom_site_fract_y
_atom_site_fract_z
Si Si1 0.692977 0.307024 0.750000
Si Si2 0.725479 0.642374 0.501230
Si Si3 0.838068 0.429072 0.826001
Si Si4 0.218371 0.864524 0.591900
Si Si5 0.656861 0.427753 0.169749
Si Si6 0.764958 0.857779 0.902346
O O1 0.847188 0.319524 0.781178
O O2 0.448062 0.693133 0.788959
O O3 0.710744 0.452836 0.499533
O O4 0.823548 0.710731 0.458034
O O5 0.805786 0.695663 0.548572
O O6 0.784337 0.327377 0.869434
O O7 0.728416 0.573350 0.809931
O O8 0.000000 0.500000 0.840808
O O9 0.045231 0.790231 0.597893
O O10 0.208834 0.054197 0.600546
O O11 0.500000 0.500000 0.144073
O O12 0.790127 0.356996 0.136248
#
# Coordination Sequence:
#
# PCOD9557751 Si02
#       6
#     4   8   8   8   8   8
#     4  10  25  42  66  97 130 167 230 282 348 401
#     4  11  26  42  66 101 136 177 228 277 332 406
#     4  11  21  40  66  92 127 174 219 279 334 409
#     4  11  25  43  64 100 136 182 223 273 352 400
#     4  10  21  41  66  93 126 172 221 278 341 400
#     4  11  24  43  68  94 141 179 223 283 334 417
#
# _framework density 21.222460000000002
#
# number of rings (size 3 to 8) (size 9 to 14) (size 15 to 20)
#    0.000    1.273    1.818    4.636    7.636    5.091 
#    0.000    0.000    0.000    0.000    0.000    0.000 
#    0.000    0.000    0.000    0.000    0.000    0.000 
#
# Total GULP energy -245283.066653 kJ/mol
# GULP energy per Si atom -5574.615151 kJ/mol
# Density = 2.117416 g / cm^3
# Si number density = 21.222460 Si / 1000 Ang^3
#
#
#
# Elastic Constant Matrix: (Units=GPa)
#
#
# Indices 1 2 3 4 5 6 
#
# 1 40.4996 80.4548 46.2067 0.0000 0.0000 0.0000
# 2 80.4548 40.5001 46.2066 0.0000 0.0000 0.0000
# 3 46.2067 46.2066 152.7757 0.0000 0.0000 0.0000
# 4 0.0000 0.0000 0.0000 -7.3989 0.0000 0.0000
# 5 0.0000 0.0000 0.0000 0.0000 -7.3990 0.0000
# 6 0.0000 0.0000 0.0000 0.0000 0.0000 28.0375
#
#
#
# Elastic Compliance Matrix: (Units=1/GPa)
#
#
# Indices 1 2 3 4 5 6 
#
# 1 -0.007138 0.017890 -0.003252 0.000000 0.000000 0.000000
# 2 0.017890 -0.007138 -0.003252 0.000000 0.000000 0.000000
# 3 -0.003252 -0.003252 0.008513 0.000000 0.000000 0.000000
# 4 0.000000 0.000000 0.000000 -0.135155 0.000000 0.000000
# 5 0.000000 0.000000 0.000000 0.000000 -0.135153 0.000000
# 6 0.000000 0.000000 0.000000 0.000000 0.000000 0.035667
#
#
# Mechanical properties :
#
#
# Convention : Reuss Voigt Hill
#
# Bulk Modulus (GPa) = 58.79202 64.39017 61.59109
# Shear Modulus (GPa) = -19.41692 6.70839 -6.35427
#
# Velocity S-wave (km/s) = -3.02805 1.77985 -1.73223
# Velocity P-wave (km/s) = 3.94175 5.88475 5.00838
#
# Compressibility (1/GPa) = 0.01700911
#
# Stress axis : x y z
#
# Youngs Moduli (GPa) = -140.09356 -140.09643 117.47230
#
# Poissons Ratio (x) = 2.50635 0.38201
# Poissons Ratio (y) = 2.50630 0.38202
# Poissons Ratio (z) = -0.45558 -0.45559
#
# Static dielectric constant tensor:
#      x y z
#    x 1.866360 0.000000 0.000000 
#    y 0.000000 1.866360 0.000000 
#    z 0.000000 0.000000 1.769100 
# 
# From -- ./inp_files/5164.got.cif
#   From: 2010.05.17/outbox.cif.g08.bks.cpg/sg116_3_cif.got.tgz:5164.got - 2010.05.20 11:11:43.
