data_PCOD9557563
_publ_section_title
;
Structure prediction by ZEFSAII (Michael W. Deem and Ramdas Pophale) SiO2 
 PCOD9557563
Probable space group: P -4 C 2
;
_chemical_formula_sum "Si O2"
_cell_formula_units_Z 64
_cell_length_a 11.820131
_cell_length_b 11.820131
_cell_length_c 25.018475
_cell_angle_alpha 90.000000
_cell_angle_beta 90.000000
_cell_angle_gamma 90.000000
_cell_volume 3495.468665
_symmetry_space_group_name_H-M "P -4 C 2"
_symmetry_group_IT_number 116
_symmetry_cell_setting 'tetragonal'
loop_
_space_group_symop_operation_xyz
x,y,z
y,-x,-z
-x,-y,z
-y,x,-z
y,x,1/2-z
-y,-x,1/2-z
-x,y,1/2+z
x,-y,1/2+z
loop_
_atom_site_type_symbol
_atom_site_label
_atom_site_fract_x
_atom_site_fract_y
_atom_site_fract_z
Si Si1 0.439782 0.344790 0.805227
Si Si2 0.292325 0.507917 0.875063
Si Si3 0.655550 0.896728 0.395130
Si Si4 0.626935 0.608222 0.022005
Si Si5 0.946389 0.182620 0.503203
Si Si6 0.398465 0.149229 0.880000
Si Si7 0.698284 0.786917 0.561672
Si Si8 0.705349 0.707709 0.309410
O O1 0.386515 0.386515 0.750000
O O2 0.391216 0.433082 0.848439
O O3 0.402872 0.221896 0.825899
O O4 0.574625 0.334189 0.803476
O O5 0.343263 0.586270 0.922127
O O6 0.213813 0.413470 0.902113
O O7 0.237277 0.594350 0.833088
O O8 0.738854 0.924825 0.444762
O O9 0.526002 0.850798 0.405957
O O10 0.707333 0.808073 0.352777
O O11 0.633458 0.019970 0.370028
O O12 0.634031 0.473355 0.020690
O O13 0.735946 0.662052 0.995888
O O14 0.908928 0.252368 0.450900
O O15 0.073171 0.136040 0.497468
O O16 0.301407 0.210325 0.914889
O O17 0.742210 0.742210 0.250000
#
# Coordination Sequence:
#
# PCOD9557563 Si02
#       8
#     8   8   8   8   8   8   8   8
#     4  10  19  31  54  82 116 151 191 237 275 342
#     4  10  20  29  48  81 118 145 183 228 286 342
#     4  10  21  39  60  83 115 151 194 235 283 353
#     4   9  19  27  44  77 119 152 176 216 277 349
#     4  11  23  41  64  83 109 154 202 244 285 341
#     4   9  20  36  59  83 111 152 188 228 287 341
#     4  10  20  34  53  81 115 144 186 229 281 344
#     4  11  21  32  55  83 118 156 192 232 289 346
#
# _framework density 18.309418999999998
#
# number of rings (size 3 to 8) (size 9 to 14) (size 15 to 20)
#    0.000    2.000    2.500    1.125   14.000    0.000 
#    0.000    0.000    5.500    0.000    0.000    0.000 
#    0.000    0.000    0.000    0.000    0.000    0.000 
#
# Total GULP energy -356752.774311 kJ/mol
# GULP energy per Si atom -5574.262099 kJ/mol
# Density = 1.826775 g / cm^3
# Si number density = 18.309419 Si / 1000 Ang^3
#
#
#
# Elastic Constant Matrix: (Units=GPa)
#
#
# Indices 1 2 3 4 5 6 
#
# 1 67.5785 21.3327 26.4354 0.0000 0.0000 0.0000
# 2 21.3327 67.5785 26.4354 0.0000 0.0000 0.0000
# 3 26.4354 26.4354 74.8417 0.0000 0.0000 0.0000
# 4 0.0000 0.0000 0.0000 18.5979 0.0000 0.0000
# 5 0.0000 0.0000 0.0000 0.0000 18.5979 0.0000
# 6 0.0000 0.0000 0.0000 0.0000 0.0000 19.3434
#
#
#
# Elastic Compliance Matrix: (Units=1/GPa)
#
#
# Indices 1 2 3 4 5 6 
#
# 1 0.017931 -0.003693 -0.005029 0.000000 0.000000 0.000000
# 2 -0.003693 0.017931 -0.005029 0.000000 0.000000 0.000000
# 3 -0.005029 -0.005029 0.016914 0.000000 0.000000 0.000000
# 4 0.000000 0.000000 0.000000 0.053770 0.000000 0.000000
# 5 0.000000 0.000000 0.000000 0.000000 0.053770 0.000000
# 6 0.000000 0.000000 0.000000 0.000000 0.000000 0.051697
#
#
# Mechanical properties :
#
#
# Convention : Reuss Voigt Hill
#
# Bulk Modulus (GPa) = 39.56711 39.82289 39.69500
# Shear Modulus (GPa) = 20.16631 20.36084 20.26357
#
# Velocity S-wave (km/s) = 3.32236 3.33835 3.33036
# Velocity P-wave (km/s) = 6.03114 6.05447 6.04281
#
# Compressibility (1/GPa) = 0.02527352
#
# Stress axis : x y z
#
# Youngs Moduli (GPa) = 55.77055 55.77055 59.12192
#
# Poissons Ratio (x) = 0.20596 0.29732
# Poissons Ratio (y) = 0.20596 0.29732
# Poissons Ratio (z) = 0.28047 0.28047
#
# Static dielectric constant tensor:
#      x y z
#    x 1.648730 0.000000 0.000000 
#    y 0.000000 1.648730 0.000000 
#    z 0.000000 0.000000 1.662290 
# 
# From -- ./inp_files/4655.got.cif
#   From: 2010.05.17/outbox.cif.g08.bks.cpg/sg116_3_cif.got.tgz:4655.got - 2010.05.20 11:11:43.
