data_PCOD9557085
_publ_section_title
;
Structure prediction by ZEFSAII (Michael W. Deem and Ramdas Pophale) SiO2 
 PCOD9557085
Probable space group: P -4 M 2
;
_chemical_formula_sum "Si O2"
_cell_formula_units_Z 56
_cell_length_a 13.519381
_cell_length_b 13.519381
_cell_length_c 19.061313
_cell_angle_alpha 90.000000
_cell_angle_beta 90.000000
_cell_angle_gamma 90.000000
_cell_volume 3483.905991
_symmetry_space_group_name_H-M "P -4 M 2"
_symmetry_group_IT_number 115
_symmetry_cell_setting 'tetragonal'
loop_
_space_group_symop_operation_xyz
x,y,z
y,-x,-z
-x,-y,z
-y,x,-z
y,x,-z
-y,-x,-z
-x,y,z
x,-y,z
loop_
_atom_site_type_symbol
_atom_site_label
_atom_site_fract_x
_atom_site_fract_y
_atom_site_fract_z
Si Si1 0.617097 0.117097 0.078409
Si Si2 0.382949 0.882949 0.914721
Si Si3 0.780938 0.116241 0.565518
Si Si4 0.747508 0.247508 0.182639
Si Si5 0.883681 0.883065 0.283874
Si Si6 0.616319 0.616935 0.716126
Si Si7 0.383759 0.280937 0.565518
O O1 0.500000 0.134755 0.089237
O O2 0.681718 0.181718 0.130468
O O3 0.634756 0.000000 0.089237
O O4 0.638946 0.138946 0.996569
O O5 0.500000 0.865321 0.903712
O O6 0.317844 0.817844 0.863334
O O7 0.365321 0.000000 0.903712
O O8 0.844692 0.155309 0.500000
O O9 0.841477 0.130854 0.637546
O O10 0.682012 0.182011 0.568581
O O11 0.759931 0.000000 0.557924
O O12 0.814636 0.177411 0.231330
O O13 0.677411 0.314636 0.231330
O O14 0.000000 0.869021 0.266306
O O15 0.862526 0.000000 0.281644
O O16 0.500000 0.630978 0.733694
O O17 0.637474 0.500000 0.718356
O O18 0.630854 0.658524 0.637545
O O19 0.344691 0.344691 0.500000
O O20 0.500000 0.259930 0.557924
#
# Coordination Sequence:
#
# PCOD9557085 Si02
#       7
#     8   8   8   8   8   8   8
#     4   9  19  35  53  74 100 134 175 214 254 306
#     4   9  19  35  53  74 102 134 171 214 258 310
#     4  10  20  36  57  80 105 141 181 218 256 302
#     4  12  19  32  53  80 102 136 170 214 261 312
#     4  10  21  35  51  76 108 138 171 213 261 311
#     4  10  21  35  51  76 108 138 171 213 261 311
#     4  10  20  36  57  80 105 141 181 218 256 302
#
# _framework density 16.073912
#
# number of rings (size 3 to 8) (size 9 to 14) (size 15 to 20)
#    0.000    2.000    1.429    3.857    0.000    1.714 
#    0.000    0.000    0.000    0.000    0.000   12.000 
#    0.000    0.000    0.000    0.000    0.000    0.000 
#
# Total GULP energy -312556.189056 kJ/mol
# GULP energy per Si atom -5581.360519 kJ/mol
# Density = 1.603733 g / cm^3
# Si number density = 16.073912 Si / 1000 Ang^3
#
#
#
# Elastic Constant Matrix: (Units=GPa)
#
#
# Indices 1 2 3 4 5 6 
#
# 1 128.4650 110.0177 102.0142 0.0000 0.0000 0.0000
# 2 110.0177 128.4611 102.0154 0.0000 0.0000 0.0000
# 3 102.0142 102.0154 136.2146 0.0000 0.0000 0.0000
# 4 0.0000 0.0000 0.0000 30.4534 0.0000 0.0000
# 5 0.0000 0.0000 0.0000 0.0000 30.4538 0.0000
# 6 0.0000 0.0000 0.0000 0.0000 0.0000 27.4057
#
#
#
# Elastic Compliance Matrix: (Units=1/GPa)
#
#
# Indices 1 2 3 4 5 6 
#
# 1 0.032941 -0.021271 -0.008740 0.000000 0.000000 0.000000
# 2 -0.021271 0.032945 -0.008743 0.000000 0.000000 0.000000
# 3 -0.008740 -0.008743 0.020434 0.000000 0.000000 0.000000
# 4 0.000000 0.000000 0.000000 0.032837 0.000000 0.000000
# 5 0.000000 0.000000 0.000000 0.000000 0.032837 0.000000
# 6 0.000000 0.000000 0.000000 0.000000 0.000000 0.036489
#
#
# Mechanical properties :
#
#
# Convention : Reuss Voigt Hill
#
# Bulk Modulus (GPa) = 113.47045 113.47059 113.47052
# Shear Modulus (GPa) = 18.59236 22.93549 20.76393
#
# Velocity S-wave (km/s) = 3.40469 3.78150 3.59803
# Velocity P-wave (km/s) = 9.28451 9.47695 9.38122
#
# Compressibility (1/GPa) = 0.00881287
#
# Stress axis : x y z
#
# Youngs Moduli (GPa) = 30.35718 30.35395 48.93693
#
# Poissons Ratio (x) = 0.64566 0.42769
# Poissons Ratio (y) = 0.64573 0.42785
# Poissons Ratio (z) = 0.26531 0.26538
#
# Static dielectric constant tensor:
#      x y z
#    x 1.511370 0.000000 0.000000 
#    y 0.000000 1.511370 0.000000 
#    z 0.000000 0.000000 1.515030 
# 
# From -- ./inp_files/4934.got.cif
#   From: 2010.05.17/outbox.cif.g08.bks.cpg/sg115_3_cif.got.tgz:4934.got - 2010.05.20 11:07:42.
