data_PCOD9557140
_publ_section_title
;
Structure prediction by ZEFSAII (Michael W. Deem and Ramdas Pophale) SiO2 
 PCOD9557140
Probable space group: P -4 M 2
;
_chemical_formula_sum "Si O2"
_cell_formula_units_Z 48
_cell_length_a 9.516689
_cell_length_b 9.516689
_cell_length_c 31.655728
_cell_angle_alpha 90.000000
_cell_angle_beta 90.000000
_cell_angle_gamma 90.000000
_cell_volume 2866.976015
_symmetry_space_group_name_H-M "P -4 M 2"
_symmetry_group_IT_number 115
_symmetry_cell_setting 'tetragonal'
loop_
_space_group_symop_operation_xyz
x,y,z
y,-x,-z
-x,-y,z
-y,x,-z
y,x,-z
-y,-x,-z
-x,y,z
x,-y,z
loop_
_atom_site_type_symbol
_atom_site_label
_atom_site_fract_x
_atom_site_fract_y
_atom_site_fract_z
Si Si1 0.670868 0.338233 0.213768
Si Si2 0.832061 0.166222 0.048169
Si Si3 0.167894 0.334590 0.703939
Si Si4 0.834617 0.831468 0.380188
Si Si5 0.665950 0.331063 0.119414
Si Si6 0.665032 0.667664 0.450830
O O1 0.500000 0.337584 0.212888
O O2 0.714926 0.500000 0.219751
O O3 0.713609 0.244171 0.253304
O O4 0.714229 0.290094 0.166885
O O5 0.751394 0.254501 0.083086
O O6 0.000000 0.184831 0.052214
O O7 0.802748 0.000000 0.053145
O O8 0.793493 0.206508 0.000000
O O9 0.201340 0.500000 0.696812
O O10 0.208742 0.244004 0.663224
O O11 0.000000 0.323942 0.709351
O O12 0.761193 0.752881 0.418898
O O13 0.000000 0.799891 0.377973
O O14 0.818506 0.000000 0.385177
O O15 0.500000 0.298670 0.115463
O O16 0.680417 0.500000 0.116553
O O17 0.697656 0.697656 0.500000
O O18 0.500000 0.700783 0.443775
O O19 0.681823 0.500000 0.444730
#
# Coordination Sequence:
#
# PCOD9557140 Si02
#       6
#     8   8   8   8   8   8
#     4   8  15  29  48  70  96 124 155 195 242 288
#     4   9  19  35  51  68  94 128 165 203 242 287
#     4   9  17  30  49  71  94 125 166 205 239 280
#     4  10  21  35  50  72 104 137 166 199 242 291
#     4   9  18  32  50  74 102 128 157 197 244 293
#     4   9  19  36  56  77 100 127 163 206 248 291
#
# _framework density 16.742381000000002
#
# number of rings (size 3 to 8) (size 9 to 14) (size 15 to 20)
#    0.000    3.000    0.000    2.500    0.000    4.667 
#    0.000    9.167    0.000    3.000    0.000    0.000 
#    0.000    0.000    0.000    0.000    0.000    0.000 
#
# Total GULP energy -267514.653828 kJ/mol
# GULP energy per Si atom -5573.221955 kJ/mol
# Density = 1.670427 g / cm^3
# Si number density = 16.742381 Si / 1000 Ang^3
#
#
#
# Elastic Constant Matrix: (Units=GPa)
#
#
# Indices 1 2 3 4 5 6 
#
# 1 51.7561 45.9559 83.3250 0.0000 0.0000 0.0000
# 2 45.9559 51.7560 83.3249 0.0000 0.0000 0.0000
# 3 83.3250 83.3249 186.3966 0.0000 0.0000 0.0000
# 4 0.0000 0.0000 0.0000 161.7720 0.0000 0.0000
# 5 0.0000 0.0000 0.0000 0.0000 161.7592 0.0000
# 6 0.0000 0.0000 0.0000 0.0000 0.0000 26.8765
#
#
#
# Elastic Compliance Matrix: (Units=1/GPa)
#
#
# Indices 1 2 3 4 5 6 
#
# 1 0.107743 -0.064666 -0.019257 0.000000 0.000000 0.000000
# 2 -0.064666 0.107743 -0.019257 0.000000 0.000000 0.000000
# 3 -0.019257 -0.019257 0.022581 0.000000 0.000000 0.000000
# 4 0.000000 0.000000 0.000000 0.006182 0.000000 0.000000
# 5 0.000000 0.000000 0.000000 0.000000 0.006182 0.000000
# 6 0.000000 0.000000 0.000000 0.000000 0.000000 0.037207
#
#
# Mechanical properties :
#
#
# Convention : Reuss Voigt Hill
#
# Bulk Modulus (GPa) = 31.53726 79.45782 55.49754
# Shear Modulus (GPa) = 9.90952 75.23507 42.57229
#
# Velocity S-wave (km/s) = 2.43550 6.71077 5.04808
# Velocity P-wave (km/s) = 5.17557 10.37343 8.19740
#
# Compressibility (1/GPa) = 0.03170853
#
# Stress axis : x y z
#
# Youngs Moduli (GPa) = 9.28138 9.28138 44.28405
#
# Poissons Ratio (x) = 0.60019 0.85276
# Poissons Ratio (y) = 0.60019 0.85276
# Poissons Ratio (z) = 0.17873 0.17873
#
# Static dielectric constant tensor:
#      x y z
#    x 1.550440 0.000000 0.000000 
#    y 0.000000 1.550440 0.000000 
#    z 0.000000 0.000000 1.554490 
# 
# From -- ./inp_files/5975.got.cif
#   From: 2010.05.17/outbox.cif.g08.bks.cpg/sg115_3_cif.got.tgz:5975.got - 2010.05.20 11:07:42.
