data_PCOD9557021
_publ_section_title
;
Structure prediction by ZEFSAII (Michael W. Deem and Ramdas Pophale) SiO2 
 PCOD9557021
Probable space group: P -4 M 2
;
_chemical_formula_sum "Si O2"
_cell_formula_units_Z 56
_cell_length_a 15.450899
_cell_length_b 15.450899
_cell_length_c 12.412910
_cell_angle_alpha 90.000000
_cell_angle_beta 90.000000
_cell_angle_gamma 90.000000
_cell_volume 2963.337479
_symmetry_space_group_name_H-M "P -4 M 2"
_symmetry_group_IT_number 115
_symmetry_cell_setting 'tetragonal'
loop_
_space_group_symop_operation_xyz
x,y,z
y,-x,-z
-x,-y,z
-y,x,-z
y,x,-z
-y,-x,-z
-x,y,z
x,-y,z
loop_
_atom_site_type_symbol
_atom_site_label
_atom_site_fract_x
_atom_site_fract_y
_atom_site_fract_z
Si Si1 0.276264 0.819361 0.909473
Si Si2 0.098538 0.904349 0.130087
Si Si3 0.596748 0.223989 0.719716
Si Si4 0.899112 0.600887 0.920097
Si Si5 0.597356 0.366703 0.374515
Si Si6 0.399086 0.834065 0.307624
Si Si7 0.605268 0.903521 0.529905
O O1 0.186934 0.853211 0.855191
O O2 0.338709 0.786433 0.817396
O O3 0.250026 0.749975 0.000000
O O4 0.333505 0.886434 0.980512
O O5 0.000000 0.898653 0.171705
O O6 0.134529 0.000000 0.162821
O O7 0.093049 0.906952 0.000000
O O8 0.500000 0.191706 0.746048
O O9 0.591916 0.324030 0.688655
O O10 0.629538 0.169424 0.616178
O O11 0.873017 0.500000 0.945143
O O12 0.849256 0.634460 0.812994
O O13 0.000000 0.599076 0.891501
O O14 0.614618 0.385383 0.500000
O O15 0.500000 0.395314 0.348154
O O16 0.602603 0.264914 0.346393
O O17 0.500000 0.860763 0.297499
O O18 0.361207 0.886333 0.408922
O O19 0.500000 0.898794 0.523292
O O20 0.628712 0.000000 0.566233
#
# Coordination Sequence:
#
# PCOD9557021 Si02
#       7
#     8   8   8   8   8   8   8
#     4  11  22  36  53  77 113 154 194 234 289 345
#     4   8  15  30  53  79 106 138 182 237 284 323
#     4  11  23  38  55  82 116 151 190 240 297 358
#     4  10  20  34  55  83 115 154 197 236 278 340
#     4  11  21  36  59  84 111 145 194 253 308 355
#     4   9  17  32  54  82 113 146 186 235 283 335
#     4   9  17  31  52  79 113 150 181 216 275 345
#
# _framework density 18.897611999999999
#
# number of rings (size 3 to 8) (size 9 to 14) (size 15 to 20)
#    0.000    2.143    1.429    3.000    0.000    4.429 
#    0.000    2.143    0.000    0.000    0.000    0.000 
#    0.000    1.143    0.000    4.286    0.000    0.143 
#
# Total GULP energy -311948.919302 kJ/mol
# GULP energy per Si atom -5570.516416 kJ/mol
# Density = 1.885460 g / cm^3
# Si number density = 18.897612 Si / 1000 Ang^3
#
#
#
# Elastic Constant Matrix: (Units=GPa)
#
#
# Indices 1 2 3 4 5 6 
#
# 1 90.6121 31.8323 43.2173 0.0000 0.0000 0.0000
# 2 31.8323 90.6127 43.2170 0.0000 0.0000 0.0000
# 3 43.2173 43.2170 78.6065 0.0000 0.0000 0.0000
# 4 0.0000 0.0000 0.0000 146.5927 0.0000 0.0000
# 5 0.0000 0.0000 0.0000 0.0000 146.3873 0.0000
# 6 0.0000 0.0000 0.0000 0.0000 0.0000 14.8220
#
#
#
# Elastic Compliance Matrix: (Units=1/GPa)
#
#
# Indices 1 2 3 4 5 6 
#
# 1 0.015180 -0.001833 -0.007338 0.000000 0.000000 0.000000
# 2 -0.001833 0.015180 -0.007338 0.000000 0.000000 0.000000
# 3 -0.007338 -0.007338 0.020790 0.000000 0.000000 0.000000
# 4 0.000000 0.000000 0.000000 0.006822 0.000000 0.000000
# 5 0.000000 0.000000 0.000000 0.000000 0.006831 0.000000
# 6 0.000000 0.000000 0.000000 0.000000 0.000000 0.067467
#
#
# Mechanical properties :
#
#
# Convention : Reuss Voigt Hill
#
# Bulk Modulus (GPa) = 55.15081 55.15161 55.15121
# Shear Modulus (GPa) = 29.18320 70.99805 50.09063
#
# Velocity S-wave (km/s) = 3.93400 6.13607 5.15401
# Velocity P-wave (km/s) = 7.06275 8.91345 8.04152
#
# Compressibility (1/GPa) = 0.01813210
#
# Stress axis : x y z
#
# Youngs Moduli (GPa) = 65.87695 65.87781 48.09934
#
# Poissons Ratio (x) = 0.12074 0.35296
# Poissons Ratio (y) = 0.12074 0.35295
# Poissons Ratio (z) = 0.48341 0.48340
#
# Static dielectric constant tensor:
#      x y z
#    x 1.660310 0.000000 0.000000 
#    y 0.000000 1.660250 0.000000 
#    z 0.000000 0.000000 1.643670 
# 
# From -- ./inp_files/3054.got.cif
#   From: 2010.05.17/outbox.cif.g08.bks.cpg/sg115_2_cif.got.tgz:3054.got - 2010.05.20 11:07:42.
