data_PCOD9557826
_publ_section_title
;
Structure prediction by ZEFSAII (Michael W. Deem and Ramdas Pophale) SiO2 
 PCOD9557826
Probable space group: P -4 C 2
;
_chemical_formula_sum "Si O2"
_cell_formula_units_Z 48
_cell_length_a 7.964990
_cell_length_b 7.964990
_cell_length_c 31.908915
_cell_angle_alpha 90.000000
_cell_angle_beta 90.000000
_cell_angle_gamma 90.000000
_cell_volume 2024.335573
_symmetry_space_group_name_H-M "P -4 C 2"
_symmetry_group_IT_number 116
_symmetry_cell_setting 'tetragonal'
loop_
_space_group_symop_operation_xyz
x,y,z
y,-x,-z
-x,-y,z
-y,x,-z
y,x,1/2-z
-y,-x,1/2-z
-x,y,1/2+z
x,-y,1/2+z
loop_
_atom_site_type_symbol
_atom_site_label
_atom_site_fract_x
_atom_site_fract_y
_atom_site_fract_z
Si Si1 0.500000 0.500000 0.910849
Si Si2 0.241653 0.750306 0.879323
Si Si3 0.000000 0.500000 0.115897
Si Si4 0.001488 0.300727 0.312464
Si Si5 0.694644 0.305357 0.750000
Si Si6 0.297748 0.702253 0.250000
Si Si7 0.057555 0.323636 0.456198
Si Si8 0.311429 0.795219 0.454203
O O1 0.356111 0.581707 0.881056
O O2 0.600804 0.621012 0.942149
O O3 0.061318 0.766069 0.857299
O O4 0.198484 0.767269 0.928573
O O5 0.373927 0.880365 0.860219
O O6 0.900786 0.376176 0.085110
O O7 0.167033 0.266338 0.284927
O O8 0.000000 0.500000 0.317919
O O9 0.830846 0.255043 0.288108
O O10 0.720395 0.503553 0.739252
O O11 0.131495 0.367650 0.501428
O O12 0.000000 0.500000 0.435386
O O13 0.888352 0.217550 0.458177
#
# Coordination Sequence:
#
# PCOD9557826 Si02
#       8
#     4   8   4   8   4   4   8   8
#     4  10  24  41  72  95 140 190 250 293 352 430
#     4  11  24  43  68 104 143 184 236 299 366 432
#     4  10  24  46  62  98 142 194 246 288 366 430
#     4  10  22  43  74 106 143 177 236 291 356 447
#     4   9  20  43  70 108 142 185 238 277 360 448
#     4   9  20  43  74 102 140 189 229 292 354 436
#     4  12  24  39  66  97 131 181 242 303 359 414
#     4  11  24  43  64  94 134 190 245 299 350 433
#
# _framework density 23.711482
#
# number of rings (size 3 to 8) (size 9 to 14) (size 15 to 20)
#    0.000    1.500    2.500    1.500    2.333    6.000 
#    7.500    1.667    3.667    0.000    0.000    0.000 
#    0.000    0.000    0.000    0.000    0.000    0.000 
#
# Total GULP energy -267872.396953 kJ/mol
# GULP energy per Si atom -5580.674937 kJ/mol
# Density = 2.365751 g / cm^3
# Si number density = 23.711482 Si / 1000 Ang^3
#
#
#
# Elastic Constant Matrix: (Units=GPa)
#
#
# Indices 1 2 3 4 5 6 
#
# 1 89.1666 30.7345 19.6162 0.0000 0.0000 0.0000
# 2 30.7345 89.1664 19.6159 0.0000 0.0000 0.0000
# 3 19.6162 19.6159 55.0919 0.0000 0.0000 0.0000
# 4 0.0000 0.0000 0.0000 -19.4450 0.0000 0.0000
# 5 0.0000 0.0000 0.0000 0.0000 -19.4449 0.0000
# 6 0.0000 0.0000 0.0000 0.0000 0.0000 40.8953
#
#
#
# Elastic Compliance Matrix: (Units=1/GPa)
#
#
# Indices 1 2 3 4 5 6 
#
# 1 0.013277 -0.003837 -0.003361 0.000000 0.000000 0.000000
# 2 -0.003837 0.013277 -0.003361 0.000000 0.000000 0.000000
# 3 -0.003361 -0.003361 0.020545 0.000000 0.000000 0.000000
# 4 0.000000 0.000000 0.000000 -0.051427 0.000000 0.000000
# 5 0.000000 0.000000 0.000000 0.000000 -0.051427 0.000000
# 6 0.000000 0.000000 0.000000 0.000000 0.000000 0.024453
#
#
# Mechanical properties :
#
#
# Convention : Reuss Voigt Hill
#
# Bulk Modulus (GPa) = 38.49079 41.48423 39.98751
# Shear Modulus (GPa) = -3281.09131 11.29830 -1634.89651
#
# Velocity S-wave (km/s) = -37.23923 2.18523 -26.28674
# Velocity P-wave (km/s) = 42.81058 4.88880 30.07362
#
# Compressibility (1/GPa) = 0.02598024
#
# Stress axis : x y z
#
# Youngs Moduli (GPa) = 75.31838 75.31840 48.67345
#
# Poissons Ratio (x) = 0.28899 0.16361
# Poissons Ratio (y) = 0.28899 0.16360
# Poissons Ratio (z) = 0.25317 0.25316
#
# Static dielectric constant tensor:
#      x y z
#    x 2.080480 0.000000 0.000000 
#    y 0.000000 2.080480 0.000000 
#    z 0.000000 0.000000 1.962180 
# 
# From -- ./inp_files/5347.got.cif
#   From: 2010.05.17/outbox.cif.g08.bks.cpg/sg116_3_cif.got.tgz:5347.got - 2010.05.20 11:11:43.
