data_PCOD9557616
_publ_section_title
;
Structure prediction by ZEFSAII (Michael W. Deem and Ramdas Pophale) SiO2 
 PCOD9557616
Probable space group: P -4 C 2
;
_chemical_formula_sum "Si O2"
_cell_formula_units_Z 42
_cell_length_a 11.888686
_cell_length_b 11.888686
_cell_length_c 15.639629
_cell_angle_alpha 90.000000
_cell_angle_beta 90.000000
_cell_angle_gamma 90.000000
_cell_volume 2210.518532
_symmetry_space_group_name_H-M "P -4 C 2"
_symmetry_group_IT_number 116
_symmetry_cell_setting 'tetragonal'
loop_
_space_group_symop_operation_xyz
x,y,z
y,-x,-z
-x,-y,z
-y,x,-z
y,x,1/2-z
-y,-x,1/2-z
-x,y,1/2+z
x,-y,1/2+z
loop_
_atom_site_type_symbol
_atom_site_label
_atom_site_fract_x
_atom_site_fract_y
_atom_site_fract_z
Si Si1 0.596081 0.905118 0.562000
Si Si2 0.509814 0.315704 0.502486
Si Si3 0.500000 0.500000 0.750000
Si Si4 0.744518 0.479480 0.177983
Si Si5 0.379219 0.935041 0.865788
Si Si6 0.108752 0.711932 0.262420
O O1 0.537430 0.780690 0.564739
O O2 0.647684 0.917595 0.466075
O O3 0.682790 0.919888 0.639582
O O4 0.500000 0.000000 0.571365
O O5 0.403656 0.393053 0.473273
O O6 0.557956 0.249312 0.420899
O O7 0.496331 0.384989 0.801870
O O8 0.816299 0.593440 0.178862
O O9 0.802565 0.386256 0.235799
O O10 0.500000 0.000000 0.864792
O O11 0.300132 0.007598 0.805045
O O12 0.171344 0.828657 0.250000
#
# Coordination Sequence:
#
# PCOD9557616 Si02
#       6
#     8   8   2   8   8   8
#     4  10  20  34  54  76 112 157 189 230 286 339
#     4  10  20  33  49  76 118 157 187 226 272 337
#     4  12  20  28  50  80 122 160 186 222 284 330
#     4  10  20  31  46  77 118 154 190 229 268 340
#     4   8  18  36  52  74 115 150 196 237 271 340
#     4  11  20  35  58  82 109 147 192 240 289 341
#
# _framework density 19.000066
#
# number of rings (size 3 to 8) (size 9 to 14) (size 15 to 20)
#    0.000    2.095    0.952    5.143    2.667    0.000 
#    0.000    0.000    0.000    0.000    0.000    0.667 
#    0.000    7.619    0.000    0.000    0.000    0.000 
#
# Total GULP energy -234079.567041 kJ/mol
# GULP energy per Si atom -5573.323025 kJ/mol
# Density = 1.895682 g / cm^3
# Si number density = 19.000066 Si / 1000 Ang^3
#
#
#
# Elastic Constant Matrix: (Units=GPa)
#
#
# Indices 1 2 3 4 5 6 
#
# 1 85.8152 30.6002 33.0435 0.0000 0.0000 0.0000
# 2 30.6002 85.8145 33.0432 0.0000 0.0000 0.0000
# 3 33.0435 33.0432 88.8606 0.0000 0.0000 0.0000
# 4 0.0000 0.0000 0.0000 -8.0680 0.0000 0.0000
# 5 0.0000 0.0000 0.0000 0.0000 -8.0771 0.0000
# 6 0.0000 0.0000 0.0000 0.0000 0.0000 26.3159
#
#
#
# Elastic Compliance Matrix: (Units=1/GPa)
#
#
# Indices 1 2 3 4 5 6 
#
# 1 0.014500 -0.003611 -0.004049 0.000000 0.000000 0.000000
# 2 -0.003611 0.014500 -0.004049 0.000000 0.000000 0.000000
# 3 -0.004049 -0.004049 0.014265 0.000000 0.000000 0.000000
# 4 0.000000 0.000000 0.000000 -0.123946 0.000000 0.000000
# 5 0.000000 0.000000 0.000000 0.000000 -0.123806 0.000000
# 6 0.000000 0.000000 0.000000 0.000000 0.000000 0.038000
#
#
# Mechanical properties :
#
#
# Convention : Reuss Voigt Hill
#
# Bulk Modulus (GPa) = 50.38799 50.42933 50.40866
# Shear Modulus (GPa) = -36.64227 12.95438 -11.84394
#
# Velocity S-wave (km/s) = -4.39627 2.61398 -2.49943
# Velocity P-wave (km/s) = 0.89882 5.97577 4.27303
#
# Compressibility (1/GPa) = 0.01984600
#
# Stress axis : x y z
#
# Youngs Moduli (GPa) = 68.96675 68.96621 70.10247
#
# Poissons Ratio (x) = 0.24906 0.28384
# Poissons Ratio (y) = 0.24906 0.28384
# Poissons Ratio (z) = 0.27924 0.27924
#
# Static dielectric constant tensor:
#      x y z
#    x 1.693560 0.000000 0.000000 
#    y 0.000000 1.693560 0.000000 
#    z 0.000000 0.000000 1.719720 
# 
# From -- ./inp_files/3301.got.cif
#   From: 2010.05.17/outbox.cif.g08.bks.cpg/sg116_2_cif.got.tgz:3301.got - 2010.05.20 11:11:43.
