data_PCOD9557644
_publ_section_title
;
Structure prediction by ZEFSAII (Michael W. Deem and Ramdas Pophale) SiO2 
 PCOD9557644
Probable space group: P -4 C 2
;
_chemical_formula_sum "Si O2"
_cell_formula_units_Z 56
_cell_length_a 13.851485
_cell_length_b 13.851485
_cell_length_c 13.852344
_cell_angle_alpha 90.000000
_cell_angle_beta 90.000000
_cell_angle_gamma 90.000000
_cell_volume 2657.761097
_symmetry_space_group_name_H-M "P -4 C 2"
_symmetry_group_IT_number 116
_symmetry_cell_setting 'tetragonal'
loop_
_space_group_symop_operation_xyz
x,y,z
y,-x,-z
-x,-y,z
-y,x,-z
y,x,1/2-z
-y,-x,1/2-z
-x,y,1/2+z
x,-y,1/2+z
loop_
_atom_site_type_symbol
_atom_site_label
_atom_site_fract_x
_atom_site_fract_y
_atom_site_fract_z
Si Si1 0.829068 0.394489 0.165048
Si Si2 0.866510 0.411203 0.544058
Si Si3 0.167275 0.291677 0.319176
Si Si4 0.987978 0.743804 0.168225
Si Si5 0.249316 0.753769 0.024625
Si Si6 0.489404 0.891870 0.164283
Si Si7 0.090488 0.096040 0.552250
O O1 0.854395 0.495359 0.111290
O O2 0.756356 0.333501 0.099990
O O3 0.818081 0.422351 0.276394
O O4 0.918317 0.321693 0.172828
O O5 0.923274 0.323247 0.595992
O O6 0.769241 0.357266 0.512257
O O7 0.908110 0.448029 0.442479
O O8 0.253516 0.253516 0.250000
O O9 0.072502 0.250218 0.266170
O O10 0.185515 0.263276 0.428852
O O11 0.153479 0.405552 0.326974
O O12 0.024097 0.847433 0.130511
O O13 0.193382 0.849552 0.062748
O O14 0.500000 0.000000 0.208689
O O15 0.018540 0.109998 0.458026
#
# Coordination Sequence:
#
# PCOD9557644 Si02
#       7
#     8   8   8   8   8   8   8
#     4  11  22  39  60  92 129 153 209 272 321 377
#     4  12  22  39  62  90 124 164 209 264 326 382
#     4  12  21  38  61  92 125 162 213 259 323 405
#     4  11  21  36  59  90 123 161 208 265 314 367
#     4  11  24  39  62  91 122 175 209 264 327 385
#     4  12  23  37  63  97 122 167 210 269 332 384
#     4  10  20  37  56  81 123 175 218 251 301 370
#
# _framework density 21.070364999999999
#
# number of rings (size 3 to 8) (size 9 to 14) (size 15 to 20)
#    0.000    0.714    7.143    1.286    2.000    0.571 
#    0.000    0.714    0.000    3.000    0.000    1.000 
#    0.000    0.000    0.000    0.000    0.000    0.000 
#
# Total GULP energy -311947.281122 kJ/mol
# GULP energy per Si atom -5570.487163 kJ/mol
# Density = 2.102241 g / cm^3
# Si number density = 21.070365 Si / 1000 Ang^3
#
#
#
# Elastic Constant Matrix: (Units=GPa)
#
#
# Indices 1 2 3 4 5 6 
#
# 1 50.6330 9.0663 -0.8896 0.0000 0.0000 0.0000
# 2 9.0663 50.6330 -0.8896 0.0000 0.0000 0.0000
# 3 -0.8896 -0.8896 55.9348 0.0000 0.0000 0.0000
# 4 0.0000 0.0000 0.0000 15.7764 0.0000 0.0000
# 5 0.0000 0.0000 0.0000 0.0000 15.7764 0.0000
# 6 0.0000 0.0000 0.0000 0.0000 0.0000 36.7650
#
#
#
# Elastic Compliance Matrix: (Units=1/GPa)
#
#
# Indices 1 2 3 4 5 6 
#
# 1 0.020408 -0.003650 0.000267 0.000000 0.000000 0.000000
# 2 -0.003650 0.020408 0.000267 0.000000 0.000000 0.000000
# 3 0.000267 0.000267 0.017886 0.000000 0.000000 0.000000
# 4 0.000000 0.000000 0.000000 0.063386 0.000000 0.000000
# 5 0.000000 0.000000 0.000000 0.000000 0.063386 0.000000
# 6 0.000000 0.000000 0.000000 0.000000 0.000000 0.027200
#
#
# Mechanical properties :
#
#
# Convention : Reuss Voigt Hill
#
# Bulk Modulus (GPa) = 19.05864 19.08612 19.07238
# Shear Modulus (GPa) = 21.15087 23.65782 22.40434
#
# Velocity S-wave (km/s) = 3.17175 3.35446 3.26438
# Velocity P-wave (km/s) = 4.74112 4.90725 4.82490
#
# Compressibility (1/GPa) = 0.05246965
#
# Stress axis : x y z
#
# Youngs Moduli (GPa) = 49.00010 49.00010 55.90827
#
# Poissons Ratio (x) = 0.17883 -0.01490
# Poissons Ratio (y) = 0.17883 -0.01490
# Poissons Ratio (z) = -0.01306 -0.01306
#
# Static dielectric constant tensor:
#      x y z
#    x 1.903440 0.000000 0.000000 
#    y 0.000000 1.903440 0.000000 
#    z 0.000000 0.000000 1.883140 
# 
# From -- ./inp_files/2739.got.cif
#   From: 2010.05.17/outbox.cif.g08.bks.cpg/sg116_2_cif.got.tgz:2739.got - 2010.05.20 11:11:43.
