data_PCOD9557581
_publ_section_title
;
Structure prediction by ZEFSAII (Michael W. Deem and Ramdas Pophale) SiO2 
 PCOD9557581
Probable space group: P -4 C 2
;
_chemical_formula_sum "Si O2"
_cell_formula_units_Z 28
_cell_length_a 12.231597
_cell_length_b 12.231597
_cell_length_c 8.579847
_cell_angle_alpha 90.000000
_cell_angle_beta 90.000000
_cell_angle_gamma 90.000000
_cell_volume 1283.647771
_symmetry_space_group_name_H-M "P -4 C 2"
_symmetry_group_IT_number 116
_symmetry_cell_setting 'tetragonal'
loop_
_space_group_symop_operation_xyz
x,y,z
y,-x,-z
-x,-y,z
-y,x,-z
y,x,1/2-z
-y,-x,1/2-z
-x,y,1/2+z
x,-y,1/2+z
loop_
_atom_site_type_symbol
_atom_site_label
_atom_site_fract_x
_atom_site_fract_y
_atom_site_fract_z
Si Si1 0.748526 0.251475 0.750000
Si Si2 0.079106 0.359681 0.809533
Si Si3 0.108703 0.859418 0.482469
Si Si4 0.138726 0.551834 0.646256
O O1 0.801500 0.184917 0.604228
O O2 0.762184 0.376921 0.704465
O O3 0.149326 0.423526 0.679593
O O4 0.958927 0.390712 0.747960
O O5 0.097992 0.233694 0.849831
O O6 0.106826 0.421918 0.970017
O O7 0.985631 0.864172 0.555869
#
# Coordination Sequence:
#
# PCOD9557581 Si02
#       4
#     4   8   8   8
#     4  10  20  35  50  80 118 153 186 242 282 340
#     4  10  19  34  54  76 106 151 190 235 275 336
#     4  10  20  34  49  76 117 155 189 221 286 349
#     4  10  19  34  55  77 110 148 197 237 283 326
#
# _framework density 21.812837999999999
#
# number of rings (size 3 to 8) (size 9 to 14) (size 15 to 20)
#    0.000    2.000    2.857    3.429    0.000    2.286 
#    0.000    0.000    0.000    0.000    0.000    0.000 
#    0.000   73.143    0.000    0.000    0.000    0.000 
#
# Total GULP energy -156157.927040 kJ/mol
# GULP energy per Si atom -5577.068823 kJ/mol
# Density = 2.176319 g / cm^3
# Si number density = 21.812838 Si / 1000 Ang^3
#
#
#
# Elastic Constant Matrix: (Units=GPa)
#
#
# Indices 1 2 3 4 5 6 
#
# 1 60.6402 6.3234 8.5005 0.0000 0.0000 0.0000
# 2 6.3234 60.6389 8.5007 0.0000 0.0000 0.0000
# 3 8.5005 8.5007 77.7188 0.0000 0.0000 0.0000
# 4 0.0000 0.0000 0.0000 25.2867 0.0000 0.0000
# 5 0.0000 0.0000 0.0000 0.0000 25.2861 0.0000
# 6 0.0000 0.0000 0.0000 0.0000 0.0000 28.6403
#
#
#
# Elastic Compliance Matrix: (Units=1/GPa)
#
#
# Indices 1 2 3 4 5 6 
#
# 1 0.016885 -0.001525 -0.001680 0.000000 0.000000 0.000000
# 2 -0.001525 0.016886 -0.001680 0.000000 0.000000 0.000000
# 3 -0.001680 -0.001680 0.013234 0.000000 0.000000 0.000000
# 4 0.000000 0.000000 0.000000 0.039546 0.000000 0.000000
# 5 0.000000 0.000000 0.000000 0.000000 0.039547 0.000000
# 6 0.000000 0.000000 0.000000 0.000000 0.000000 0.034916
#
#
# Mechanical properties :
#
#
# Convention : Reuss Voigt Hill
#
# Bulk Modulus (GPa) = 26.85675 27.29414 27.07545
# Shear Modulus (GPa) = 27.29299 27.55419 27.42359
#
# Velocity S-wave (km/s) = 3.54112 3.55802 3.54958
# Velocity P-wave (km/s) = 5.39059 5.42397 5.40730
#
# Compressibility (1/GPa) = 0.03723458
#
# Stress axis : x y z
#
# Youngs Moduli (GPa) = 59.22320 59.22194 75.56061
#
# Poissons Ratio (x) = 0.09033 0.12694
# Poissons Ratio (y) = 0.09033 0.12695
# Poissons Ratio (z) = 0.09949 0.09950
#
# Static dielectric constant tensor:
#      x y z
#    x 1.898790 0.000000 0.000000 
#    y 0.000000 1.898790 0.000000 
#    z 0.000000 0.000000 1.836140 
# 
# From -- ./inp_files/574.got.cif
#   From: 2010.05.17/outbox.cif.g08.bks.cpg/sg116_1_cif.got.tgz:574.got - 2010.05.20 11:11:43.
