data_PCOD9557543
_publ_section_title
;
Structure prediction by ZEFSAII (Michael W. Deem and Ramdas Pophale) SiO2 
 PCOD9557543
Probable space group: P -4 C 2
;
_chemical_formula_sum "Si O2"
_cell_formula_units_Z 38
_cell_length_a 14.423816
_cell_length_b 14.423816
_cell_length_c 9.927127
_cell_angle_alpha 90.000000
_cell_angle_beta 90.000000
_cell_angle_gamma 90.000000
_cell_volume 2065.303710
_symmetry_space_group_name_H-M "P -4 C 2"
_symmetry_group_IT_number 116
_symmetry_cell_setting 'tetragonal'
loop_
_space_group_symop_operation_xyz
x,y,z
y,-x,-z
-x,-y,z
-y,x,-z
y,x,1/2-z
-y,-x,1/2-z
-x,y,1/2+z
x,-y,1/2+z
loop_
_atom_site_type_symbol
_atom_site_label
_atom_site_fract_x
_atom_site_fract_y
_atom_site_fract_z
Si Si1 0.194933 0.194933 0.250000
Si Si2 0.811395 0.989298 0.627890
Si Si3 0.145379 0.605579 0.681038
Si Si4 0.039189 0.696233 0.124910
Si Si5 0.108711 0.532978 0.959403
Si Si6 0.000000 0.000000 0.000000
O O1 0.099104 0.190805 0.333969
O O2 0.293811 0.191993 0.323791
O O3 0.754182 0.984590 0.489468
O O4 0.763744 0.935280 0.751660
O O5 0.916329 0.964069 0.591995
O O6 0.160296 0.550671 0.819342
O O7 0.157563 0.544287 0.549888
O O8 0.035288 0.627478 0.690746
O O9 0.107908 0.629612 0.043887
O O10 0.000000 0.500000 0.942432
#
# Coordination Sequence:
#
# PCOD9557543 Si02
#       6
#     4   8   8   8   8   2
#     4  10  20  39  48  78 108 155 168 232 276 336
#     4  11  23  36  55  69 108 154 209 232 274 300
#     4  10  20  32  57  78 114 134 179 223 293 336
#     4  10  19  35  53  78 101 144 189 243 280 321
#     4  10  18  32  55  85 104 135 179 235 282 343
#     4  12  24  38  48  74 104 166 220 234 240 302
#
# _framework density 18.399229999999999
#
# number of rings (size 3 to 8) (size 9 to 14) (size 15 to 20)
#    0.000    1.684    4.211    4.421    2.947    3.789 
#    0.000    0.000    0.000    1.263    0.000    0.000 
#    0.000    2.526    0.000    0.000    0.000    0.000 
#
# Total GULP energy -211858.446403 kJ/mol
# GULP energy per Si atom -5575.222274 kJ/mol
# Density = 1.835735 g / cm^3
# Si number density = 18.399230 Si / 1000 Ang^3
#
#
#
# Elastic Constant Matrix: (Units=GPa)
#
#
# Indices 1 2 3 4 5 6 
#
# 1 61.9538 -14.8803 14.5791 0.0000 0.0000 0.0000
# 2 -14.8803 61.9538 14.5791 0.0000 0.0000 0.0000
# 3 14.5791 14.5791 89.3056 0.0000 0.0000 0.0000
# 4 0.0000 0.0000 0.0000 26.3639 0.0000 0.0000
# 5 0.0000 0.0000 0.0000 0.0000 26.3639 0.0000
# 6 0.0000 0.0000 0.0000 0.0000 0.0000 12.0839
#
#
#
# Elastic Compliance Matrix: (Units=1/GPa)
#
#
# Indices 1 2 3 4 5 6 
#
# 1 0.018324 0.005309 -0.003858 0.000000 0.000000 0.000000
# 2 0.005309 0.018324 -0.003858 0.000000 0.000000 0.000000
# 3 -0.003858 -0.003858 0.012457 0.000000 0.000000 0.000000
# 4 0.000000 0.000000 0.000000 0.037931 0.000000 0.000000
# 5 0.000000 0.000000 0.000000 0.000000 0.037931 0.000000
# 6 0.000000 0.000000 0.000000 0.000000 0.000000 0.082755
#
#
# Mechanical properties :
#
#
# Convention : Reuss Voigt Hill
#
# Bulk Modulus (GPa) = 22.57793 26.86325 24.72059
# Shear Modulus (GPa) = 21.99741 26.22470 24.11105
#
# Velocity S-wave (km/s) = 3.46144 3.77943 3.62392
# Velocity P-wave (km/s) = 5.31725 5.80322 5.56554
#
# Compressibility (1/GPa) = 0.04429104
#
# Stress axis : x y z
#
# Youngs Moduli (GPa) = 54.57294 54.57294 80.27504
#
# Poissons Ratio (x) = -0.28973 0.30971
# Poissons Ratio (y) = -0.28973 0.30971
# Poissons Ratio (z) = 0.21055 0.21055
#
# Static dielectric constant tensor:
#      x y z
#    x 1.667240 0.000000 0.000000 
#    y 0.000000 1.667240 0.000000 
#    z 0.000000 0.000000 1.709350 
# 
# From -- ./inp_files/711.got.cif
#   From: 2010.05.17/outbox.cif.g08.bks.cpg/sg116_1_cif.got.tgz:711.got - 2010.05.20 11:11:43.
