data_PCOD9557681
_publ_section_title
;
Structure prediction by ZEFSAII (Michael W. Deem and Ramdas Pophale) SiO2 
 PCOD9557681
Probable space group: P -4 C 2
;
_chemical_formula_sum "Si O2"
_cell_formula_units_Z 48
_cell_length_a 9.137147
_cell_length_b 9.137147
_cell_length_c 24.851636
_cell_angle_alpha 90.000000
_cell_angle_beta 90.000000
_cell_angle_gamma 90.000000
_cell_volume 2074.799850
_symmetry_space_group_name_H-M "P -4 C 2"
_symmetry_group_IT_number 116
_symmetry_cell_setting 'tetragonal'
loop_
_space_group_symop_operation_xyz
x,y,z
y,-x,-z
-x,-y,z
-y,x,-z
y,x,1/2-z
-y,-x,1/2-z
-x,y,1/2+z
x,-y,1/2+z
loop_
_atom_site_type_symbol
_atom_site_label
_atom_site_fract_x
_atom_site_fract_y
_atom_site_fract_z
Si Si1 0.671874 0.766791 0.055279
Si Si2 0.349610 0.692142 0.061063
Si Si3 0.364686 0.901381 0.860760
Si Si4 0.844330 0.832668 0.688716
Si Si5 0.340187 0.447664 0.669563
Si Si6 0.166888 0.964786 0.082589
O O1 0.505334 0.764629 0.075778
O O2 0.800431 0.711491 0.094691
O O3 0.724170 0.933839 0.048695
O O4 0.662624 0.669383 0.001731
O O5 0.339621 0.561686 0.103833
O O6 0.213874 0.799466 0.071248
O O7 0.437882 0.788624 0.818209
O O8 0.500000 0.000000 0.882338
O O9 0.252497 0.014463 0.834458
O O10 0.872151 0.872151 0.750000
O O11 0.711024 0.713889 0.687018
O O12 0.813425 0.966173 0.647704
O O13 0.500000 0.500000 0.686730
O O14 0.000000 0.000000 0.069164
#
# Coordination Sequence:
#
# PCOD9557681 Si02
#       6
#     8   8   8   8   8   8
#     4  12  24  42  67 102 141 190 239 281 355 425
#     4  11  26  39  67 101 141 186 240 287 349 440
#     4  10  21  40  69 100 139 184 229 296 356 417
#     4  10  23  45  72 101 135 189 245 299 365 433
#     4  10  20  41  71 101 147 184 227 303 359 417
#     4  11  25  45  65  97 138 188 234 305 351 419
#
# _framework density 23.134764000000001
#
# number of rings (size 3 to 8) (size 9 to 14) (size 15 to 20)
#    0.000    1.333    3.333    1.500    2.333    2.000 
#    0.000   10.000    7.333    0.000    0.000    0.000 
#    0.000    0.000    0.000    0.000    0.000    0.000 
#
# Total GULP energy -268102.441927 kJ/mol
# GULP energy per Si atom -5585.467540 kJ/mol
# Density = 2.308211 g / cm^3
# Si number density = 23.134764 Si / 1000 Ang^3
#
#
#
# Elastic Constant Matrix: (Units=GPa)
#
#
# Indices 1 2 3 4 5 6 
#
# 1 117.7788 37.6709 15.3335 0.0000 0.0000 0.0000
# 2 37.6709 117.7788 15.3335 0.0000 0.0000 0.0000
# 3 15.3335 15.3335 106.4806 0.0000 0.0000 0.0000
# 4 0.0000 0.0000 0.0000 9.3472 0.0000 0.0000
# 5 0.0000 0.0000 0.0000 0.0000 9.3472 0.0000
# 6 0.0000 0.0000 0.0000 0.0000 0.0000 41.9612
#
#
#
# Elastic Compliance Matrix: (Units=1/GPa)
#
#
# Indices 1 2 3 4 5 6 
#
# 1 0.009552 -0.002931 -0.000953 0.000000 0.000000 0.000000
# 2 -0.002931 0.009552 -0.000953 0.000000 0.000000 0.000000
# 3 -0.000953 -0.000953 0.009666 0.000000 0.000000 0.000000
# 4 0.000000 0.000000 0.000000 0.106984 0.000000 0.000000
# 5 0.000000 0.000000 0.000000 0.000000 0.106984 0.000000
# 6 0.000000 0.000000 0.000000 0.000000 0.000000 0.023832
#
#
# Mechanical properties :
#
#
# Convention : Reuss Voigt Hill
#
# Bulk Modulus (GPa) = 52.37175 53.19047 52.78111
# Shear Modulus (GPa) = 17.69215 30.37779 24.03497
#
# Velocity S-wave (km/s) = 2.76840 3.62758 3.22671
# Velocity P-wave (km/s) = 5.73634 6.37081 6.06188
#
# Compressibility (1/GPa) = 0.01909426
#
# Stress axis : x y z
#
# Youngs Moduli (GPa) = 104.68904 104.68904 103.45565
#
# Poissons Ratio (x) = 0.30685 0.09864
# Poissons Ratio (y) = 0.30685 0.09864
# Poissons Ratio (z) = 0.09982 0.09982
#
# Static dielectric constant tensor:
#      x y z
#    x 1.895150 0.000000 0.000000 
#    y 0.000000 1.895150 0.000000 
#    z 0.000000 0.000000 1.955450 
# 
# From -- ./inp_files/5223.got.cif
#   From: 2010.05.17/outbox.cif.g08.bks.cpg/sg116_3_cif.got.tgz:5223.got - 2010.05.20 11:11:43.
