data_PCOD9557901
_publ_section_title
;
Structure prediction by ZEFSAII (Michael W. Deem and Ramdas Pophale) SiO2 
 PCOD9557901
Probable space group: P -4 C 2
;
_chemical_formula_sum "Si O2"
_cell_formula_units_Z 36
_cell_length_a 9.186365
_cell_length_b 9.186365
_cell_length_c 18.883195
_cell_angle_alpha 90.000000
_cell_angle_beta 90.000000
_cell_angle_gamma 90.000000
_cell_volume 1593.539644
_symmetry_space_group_name_H-M "P -4 C 2"
_symmetry_group_IT_number 116
_symmetry_cell_setting 'tetragonal'
loop_
_space_group_symop_operation_xyz
x,y,z
y,-x,-z
-x,-y,z
-y,x,-z
y,x,1/2-z
-y,-x,1/2-z
-x,y,1/2+z
x,-y,1/2+z
loop_
_atom_site_type_symbol
_atom_site_label
_atom_site_fract_x
_atom_site_fract_y
_atom_site_fract_z
Si Si1 0.652778 0.756302 0.444917
Si Si2 0.164600 0.005317 0.891956
Si Si3 0.303239 0.332027 0.603442
Si Si4 0.837359 0.555065 0.346201
Si Si5 0.819508 0.819508 0.250000
O O1 0.719210 0.917159 0.439301
O O2 0.502350 0.735925 0.401915
O O3 0.634587 0.708530 0.525556
O O4 0.776893 0.658443 0.408329
O O5 0.156436 0.925972 0.815788
O O6 0.229987 0.164753 0.884353
O O7 0.000000 0.000000 0.920090
O O8 0.425170 0.279069 0.658088
O O9 0.840917 0.655770 0.277343
O O10 0.000000 0.500000 0.361428
#
# Coordination Sequence:
#
# PCOD9557901 Si02
#       5
#     8   8   8   8   4
#     4  11  25  42  69 108 152 187 239 298 383 451
#     4  11  26  46  73 104 144 197 250 308 365 439
#     4  12  24  43  73 109 150 190 240 307 379 450
#     4  11  25  45  73 104 143 201 241 307 367 443
#     4  10  25  52  69 102 146 186 260 296 366 436
#
# _framework density 22.591214999999998
#
# number of rings (size 3 to 8) (size 9 to 14) (size 15 to 20)
#    0.000    0.889    2.222    4.333    6.222    3.556 
#    0.000   15.556    0.000    0.000    0.000    0.000 
#    0.000    0.000    0.000    0.000    0.000    0.000 
#
# Total GULP energy -201475.862168 kJ/mol
# GULP energy per Si atom -5596.551727 kJ/mol
# Density = 2.253980 g / cm^3
# Si number density = 22.591215 Si / 1000 Ang^3
#
#
#
# Elastic Constant Matrix: (Units=GPa)
#
#
# Indices 1 2 3 4 5 6 
#
# 1 138.2416 28.7355 22.0973 0.0000 0.0000 0.0000
# 2 28.7355 138.2416 22.0973 0.0000 0.0000 0.0000
# 3 22.0973 22.0973 57.7620 0.0000 0.0000 0.0000
# 4 0.0000 0.0000 0.0000 21.8947 0.0000 0.0000
# 5 0.0000 0.0000 0.0000 0.0000 21.8947 0.0000
# 6 0.0000 0.0000 0.0000 0.0000 0.0000 42.6536
#
#
#
# Elastic Compliance Matrix: (Units=1/GPa)
#
#
# Indices 1 2 3 4 5 6 
#
# 1 0.007898 -0.001234 -0.002549 0.000000 0.000000 0.000000
# 2 -0.001234 0.007898 -0.002549 0.000000 0.000000 0.000000
# 3 -0.002549 -0.002549 0.019263 0.000000 0.000000 0.000000
# 4 0.000000 0.000000 0.000000 0.045673 0.000000 0.000000
# 5 0.000000 0.000000 0.000000 0.000000 0.045673 0.000000
# 6 0.000000 0.000000 0.000000 0.000000 0.000000 0.023445
#
#
# Mechanical properties :
#
#
# Convention : Reuss Voigt Hill
#
# Bulk Modulus (GPa) = 44.65642 53.34503 49.00072
# Shear Modulus (GPa) = 29.41544 34.70961 32.06253
#
# Velocity S-wave (km/s) = 3.61234 3.92397 3.77138
# Velocity P-wave (km/s) = 6.09990 6.64790 6.37978
#
# Compressibility (1/GPa) = 0.02239320
#
# Stress axis : x y z
#
# Youngs Moduli (GPa) = 126.61865 126.61865 51.91339
#
# Poissons Ratio (x) = 0.15627 0.13234
# Poissons Ratio (y) = 0.15627 0.13234
# Poissons Ratio (z) = 0.32277 0.32277
#
# Static dielectric constant tensor:
#      x y z
#    x 1.850570 0.000000 0.000000 
#    y 0.000000 1.850570 0.000000 
#    z 0.000000 0.000000 1.841000 
# 
# From -- ./inp_files/3869.got.cif
#   From: 2010.05.17/outbox.cif.g08.bks.cpg/sg116_2_cif.got.tgz:3869.got - 2010.05.20 11:11:43.
