data_PCOD9557840
_publ_section_title
;
Structure prediction by ZEFSAII (Michael W. Deem and Ramdas Pophale) SiO2 
 PCOD9557840
Probable space group: P -4 C 2
;
_chemical_formula_sum "Si O2"
_cell_formula_units_Z 54
_cell_length_a 17.883539
_cell_length_b 17.883539
_cell_length_c 9.254032
_cell_angle_alpha 90.000000
_cell_angle_beta 90.000000
_cell_angle_gamma 90.000000
_cell_volume 2959.633464
_symmetry_space_group_name_H-M "P -4 C 2"
_symmetry_group_IT_number 116
_symmetry_cell_setting 'tetragonal'
loop_
_space_group_symop_operation_xyz
x,y,z
y,-x,-z
-x,-y,z
-y,x,-z
y,x,1/2-z
-y,-x,1/2-z
-x,y,1/2+z
x,-y,1/2+z
loop_
_atom_site_type_symbol
_atom_site_label
_atom_site_fract_x
_atom_site_fract_y
_atom_site_fract_z
Si Si1 0.339147 0.771387 0.829510
Si Si2 0.000000 0.000000 0.000000
Si Si3 0.181647 0.507645 0.779159
Si Si4 0.528211 0.082261 0.980161
Si Si5 0.912587 0.087414 0.750000
Si Si6 0.771763 0.340076 0.323392
Si Si7 0.931564 0.740357 0.184089
Si Si8 0.068200 0.308787 0.872939
O O1 0.288736 0.711265 0.750000
O O2 0.423542 0.768436 0.770777
O O3 0.303634 0.853274 0.796037
O O4 0.339844 0.761559 0.002650
O O5 0.950456 0.050841 0.891923
O O6 0.149766 0.514310 0.940231
O O7 0.106374 0.518634 0.684443
O O8 0.218185 0.425596 0.769203
O O9 0.610499 0.079073 0.049953
O O10 0.500000 0.000000 0.001739
O O11 0.823747 0.073864 0.754632
O O12 0.705146 0.294854 0.250000
O O13 0.851505 0.298314 0.296764
O O14 0.999732 0.697737 0.262967
O O15 0.944091 0.744315 0.011008
#
# Coordination Sequence:
#
# PCOD9557840 Si02
#       8
#     8   2   8   8   4   8   8   8
#     4  11  23  41  63  91 126 162 211 255 315 382
#     4  10  24  42  60  82 108 154 232 270 324 370
#     4  11  21  41  59  91 126 164 210 254 312 390
#     4  11  22  34  59  87 128 165 203 245 312 382
#     4  11  22  42  62  82 112 162 211 276 320 362
#     4  10  24  42  61  93 124 163 211 255 316 378
#     4  11  21  40  59  87 122 160 211 262 318 376
#     4  10  23  39  55  90 123 157 212 252 308 378
#
# _framework density 18.245501000000001
#
# number of rings (size 3 to 8) (size 9 to 14) (size 15 to 20)
#    0.000    1.333    5.185    2.222    6.222    1.185 
#    8.000    0.000    0.000    0.444    0.000    2.074 
#    0.000    0.000    0.000    0.000    0.000    0.000 
#
# Total GULP energy -301206.105521 kJ/mol
# GULP energy per Si atom -5577.890843 kJ/mol
# Density = 1.820397 g / cm^3
# Si number density = 18.245501 Si / 1000 Ang^3
#
#
#
# Elastic Constant Matrix: (Units=GPa)
#
#
# Indices 1 2 3 4 5 6 
#
# 1 115.2012 63.9282 47.9330 0.0000 0.0000 0.0000
# 2 63.9282 115.1989 47.9299 0.0000 0.0000 0.0000
# 3 47.9330 47.9299 63.4862 0.0000 0.0000 0.0000
# 4 0.0000 0.0000 0.0000 29.6581 0.0000 0.0000
# 5 0.0000 0.0000 0.0000 0.0000 29.6589 0.0000
# 6 0.0000 0.0000 0.0000 0.0000 0.0000 32.2822
#
#
#
# Elastic Compliance Matrix: (Units=1/GPa)
#
#
# Indices 1 2 3 4 5 6 
#
# 1 0.014436 -0.005068 -0.007073 0.000000 0.000000 0.000000
# 2 -0.005068 0.014435 -0.007072 0.000000 0.000000 0.000000
# 3 -0.007073 -0.007072 0.026431 0.000000 0.000000 0.000000
# 4 0.000000 0.000000 0.000000 0.033718 0.000000 0.000000
# 5 0.000000 0.000000 0.000000 0.000000 0.033717 0.000000
# 6 0.000000 0.000000 0.000000 0.000000 0.000000 0.030977
#
#
# Mechanical properties :
#
#
# Convention : Reuss Voigt Hill
#
# Bulk Modulus (GPa) = 59.25535 68.16318 63.70927
# Shear Modulus (GPa) = 25.28263 27.25950 26.27107
#
# Velocity S-wave (km/s) = 3.72653 3.86947 3.79867
# Velocity P-wave (km/s) = 7.14585 7.57653 7.36434
#
# Compressibility (1/GPa) = 0.01687611
#
# Stress axis : x y z
#
# Youngs Moduli (GPa) = 69.27180 69.27387 37.83498
#
# Poissons Ratio (x) = 0.35110 0.26761
# Poissons Ratio (y) = 0.35108 0.26756
# Poissons Ratio (z) = 0.48996 0.48988
#
# Static dielectric constant tensor:
#      x y z
#    x 1.641480 0.000000 0.000000 
#    y 0.000000 1.641470 0.000000 
#    z 0.000000 0.000000 1.638780 
# 
# From -- ./inp_files/1036.got.cif
#   From: 2010.05.17/outbox.cif.g08.bks.cpg/sg116_1_cif.got.tgz:1036.got - 2010.05.20 11:11:43.
