data_PCOD9557692
_publ_section_title
;
Structure prediction by ZEFSAII (Michael W. Deem and Ramdas Pophale) SiO2 
 PCOD9557692
Probable space group: P -4 C 2
;
_chemical_formula_sum "Si O2"
_cell_formula_units_Z 54
_cell_length_a 18.086733
_cell_length_b 18.086733
_cell_length_c 8.770170
_cell_angle_alpha 90.000000
_cell_angle_beta 90.000000
_cell_angle_gamma 90.000000
_cell_volume 2868.984928
_symmetry_space_group_name_H-M "P -4 C 2"
_symmetry_group_IT_number 116
_symmetry_cell_setting 'tetragonal'
loop_
_space_group_symop_operation_xyz
x,y,z
y,-x,-z
-x,-y,z
-y,x,-z
y,x,1/2-z
-y,-x,1/2-z
-x,y,1/2+z
x,-y,1/2+z
loop_
_atom_site_type_symbol
_atom_site_label
_atom_site_fract_x
_atom_site_fract_y
_atom_site_fract_z
Si Si1 0.379559 0.101896 0.003678
Si Si2 0.008513 0.589051 0.735544
Si Si3 0.500000 0.500000 0.000000
Si Si4 0.368925 0.572290 0.904440
Si Si5 0.461127 0.850633 0.926815
Si Si6 0.290522 0.709479 0.250000
Si Si7 0.294772 0.746656 0.578591
Si Si8 0.750122 0.451966 0.313904
O O1 0.367399 0.034085 0.117013
O O2 0.335919 0.174245 0.055190
O O3 0.466863 0.118967 0.013923
O O4 0.376469 0.065351 0.836361
O O5 0.081723 0.587678 0.629388
O O6 0.000000 0.500000 0.761171
O O7 0.426667 0.550518 0.036502
O O8 0.418023 0.581978 0.750000
O O9 0.321430 0.646467 0.920136
O O10 0.311517 0.506327 0.879148
O O11 0.497317 0.799962 0.796145
O O12 0.422225 0.797630 0.044839
O O13 0.255893 0.736796 0.411523
O O14 0.277321 0.621489 0.232198
O O15 0.258038 0.741963 0.750000
#
# Coordination Sequence:
#
# PCOD9557692 Si02
#       8
#     8   8   2   8   8   4   8   8
#     4  11  21  39  56  88 114 144 190 244 311 389
#     4  10  21  33  58  87 113 141 181 243 321 384
#     4  12  26  40  52  70 100 134 212 294 346 380
#     4  11  25  37  54  71  97 141 193 273 342 378
#     4  11  21  37  58  77 111 142 178 252 326 380
#     4  12  26  36  61  76 100 152 208 248 307 386
#     4  11  25  45  60  83 116 156 206 251 310 383
#     4  12  24  38  56  78 103 145 198 258 330 385
#
# _framework density 18.821988000000001
#
# number of rings (size 3 to 8) (size 9 to 14) (size 15 to 20)
#    0.000    0.889    4.444    2.444   14.519    0.000 
#    0.000    0.000    0.000    0.000    0.000    0.000 
#    0.000    0.000    0.000    0.000    0.000    2.222 
#
# Total GULP energy -300755.063485 kJ/mol
# GULP energy per Si atom -5569.538213 kJ/mol
# Density = 1.877915 g / cm^3
# Si number density = 18.821988 Si / 1000 Ang^3
#
#
#
# Elastic Constant Matrix: (Units=GPa)
#
#
# Indices 1 2 3 4 5 6 
#
# 1 51.0917 11.2241 20.4191 0.0000 0.0000 0.0000
# 2 11.2241 51.0911 20.4187 0.0000 0.0000 0.0000
# 3 20.4191 20.4187 97.4172 0.0000 0.0000 0.0000
# 4 0.0000 0.0000 0.0000 20.4488 0.0000 0.0000
# 5 0.0000 0.0000 0.0000 0.0000 20.4495 0.0000
# 6 0.0000 0.0000 0.0000 0.0000 0.0000 15.3361
#
#
#
# Elastic Compliance Matrix: (Units=1/GPa)
#
#
# Indices 1 2 3 4 5 6 
#
# 1 0.021843 -0.003240 -0.003899 0.000000 0.000000 0.000000
# 2 -0.003240 0.021843 -0.003899 0.000000 0.000000 0.000000
# 3 -0.003899 -0.003899 0.011900 0.000000 0.000000 0.000000
# 4 0.000000 0.000000 0.000000 0.048903 0.000000 0.000000
# 5 0.000000 0.000000 0.000000 0.000000 0.048901 0.000000
# 6 0.000000 0.000000 0.000000 0.000000 0.000000 0.065206
#
#
# Mechanical properties :
#
#
# Convention : Reuss Voigt Hill
#
# Bulk Modulus (GPa) = 29.84334 33.74709 31.79521
# Shear Modulus (GPa) = 19.85375 21.08274 20.46825
#
# Velocity S-wave (km/s) = 3.25132 3.35044 3.30125
# Velocity P-wave (km/s) = 5.47583 5.73897 5.60895
#
# Compressibility (1/GPa) = 0.03350831
#
# Stress axis : x y z
#
# Youngs Moduli (GPa) = 45.78164 45.78121 84.03587
#
# Poissons Ratio (x) = 0.14834 0.32767
# Poissons Ratio (y) = 0.14835 0.32767
# Poissons Ratio (z) = 0.17851 0.17851
#
# Static dielectric constant tensor:
#      x y z
#    x 1.676090 0.000000 0.000000 
#    y 0.000000 1.676090 0.000000 
#    z 0.000000 0.000000 1.912900 
# 
# From -- ./inp_files/1032.got.cif
#   From: 2010.05.17/outbox.cif.g08.bks.cpg/sg116_1_cif.got.tgz:1032.got - 2010.05.20 11:11:43.
