data_PCOD9557447
_publ_section_title
;
Structure prediction by ZEFSAII (Michael W. Deem and Ramdas Pophale) SiO2 
 PCOD9557447
Probable space group: P -4 M 2
;
_chemical_formula_sum "Si O2"
_cell_formula_units_Z 32
_cell_length_a 9.333234
_cell_length_b 9.333234
_cell_length_c 21.442838
_cell_angle_alpha 90.000000
_cell_angle_beta 90.000000
_cell_angle_gamma 90.000000
_cell_volume 1867.869684
_symmetry_space_group_name_H-M "P -4 M 2"
_symmetry_group_IT_number 115
_symmetry_cell_setting 'tetragonal'
loop_
_space_group_symop_operation_xyz
x,y,z
y,-x,-z
-x,-y,z
-y,x,-z
y,x,-z
-y,-x,-z
-x,y,z
x,-y,z
loop_
_atom_site_type_symbol
_atom_site_label
_atom_site_fract_x
_atom_site_fract_y
_atom_site_fract_z
Si Si1 0.672408 0.670520 0.888012
Si Si2 0.829473 0.829473 0.500000
Si Si3 0.325772 0.334939 0.252104
Si Si4 0.829061 0.330229 0.624971
Si Si5 0.829521 0.170480 0.000000
O O1 0.500000 0.688399 0.893954
O O2 0.700942 0.500000 0.895316
O O3 0.713434 0.715670 0.817442
O O4 0.755190 0.759157 0.939793
O O5 0.750569 0.780091 0.437286
O O6 0.000000 0.805773 0.493378
O O7 0.500000 0.332239 0.251814
O O8 0.281839 0.500000 0.259847
O O9 0.277902 0.243605 0.311246
O O10 0.799970 0.500000 0.618368
O O11 0.000000 0.311766 0.630243
O O12 0.000000 0.195659 0.998783
#
# Coordination Sequence:
#
# PCOD9557447 Si02
#       5
#     8   4   8   8   4
#     4   9  18  34  56  78  98 125 163 202 241 291
#     4   9  18  32  46  61  88 126 160 189 228 276
#     4   8  15  29  49  73  98 120 147 189 237 282
#     4   9  17  29  46  68  92 119 154 193 229 271
#     4  11  24  37  48  70 104 135 164 201 242 284
#
# _framework density 17.131817000000002
#
# number of rings (size 3 to 8) (size 9 to 14) (size 15 to 20)
#    0.000    3.000    0.000    2.250    0.000    5.000 
#    0.000    3.750    0.000    4.500    0.000    0.000 
#    0.000    0.000    0.000    0.000    0.000    0.000 
#
# Total GULP energy -178306.276604 kJ/mol
# GULP energy per Si atom -5572.071144 kJ/mol
# Density = 1.709282 g / cm^3
# Si number density = 17.131817 Si / 1000 Ang^3
#
#
#
# Elastic Constant Matrix: (Units=GPa)
#
#
# Indices 1 2 3 4 5 6 
#
# 1 40.4019 42.2905 75.8262 0.0000 0.0000 0.0000
# 2 42.2905 40.4014 75.8261 0.0000 0.0000 0.0000
# 3 75.8262 75.8261 221.3419 0.0000 0.0000 0.0000
# 4 0.0000 0.0000 0.0000 -57.5482 0.0000 0.0000
# 5 0.0000 0.0000 0.0000 0.0000 -57.5617 0.0000
# 6 0.0000 0.0000 0.0000 0.0000 0.0000 19.7947
#
#
#
# Elastic Compliance Matrix: (Units=1/GPa)
#
#
# Indices 1 2 3 4 5 6 
#
# 1 -0.248443 0.280978 -0.011145 0.000000 0.000000 0.000000
# 2 0.280978 -0.248450 -0.011143 0.000000 0.000000 0.000000
# 3 -0.011145 -0.011143 0.012153 0.000000 0.000000 0.000000
# 4 0.000000 0.000000 0.000000 -0.017377 0.000000 0.000000
# 5 0.000000 0.000000 0.000000 0.000000 -0.017373 0.000000
# 6 0.000000 0.000000 0.000000 0.000000 0.000000 0.050519
#
#
# Mechanical properties :
#
#
# Convention : Reuss Voigt Hill
#
# Bulk Modulus (GPa) = 30.63886 76.67007 53.65447
# Shear Modulus (GPa) = -5.12573 -11.84954 -8.48764
#
# Velocity S-wave (km/s) = -1.73160 -2.63281 -2.22824
# Velocity P-wave (km/s) = 3.73164 5.96724 4.97660
#
# Compressibility (1/GPa) = 0.03263829
#
# Stress axis : x y z
#
# Youngs Moduli (GPa) = -4.02507 -4.02495 82.28134
#
# Poissons Ratio (x) = 1.13092 0.91706
# Poissons Ratio (y) = 1.13095 0.91688
# Poissons Ratio (z) = -0.04486 -0.04485
#
# Static dielectric constant tensor:
#      x y z
#    x 1.568250 0.000000 0.000000 
#    y 0.000000 1.568260 0.000000 
#    z 0.000000 0.000000 1.582810 
# 
# From -- ./inp_files/5035.got.cif
#   From: 2010.05.17/outbox.cif.g08.bks.cpg/sg115_3_cif.got.tgz:5035.got - 2010.05.20 11:07:42.
