data_PCOD9557237
_publ_section_title
;
Structure prediction by ZEFSAII (Michael W. Deem and Ramdas Pophale) SiO2 
 PCOD9557237
Probable space group: P -4 M 2
;
_chemical_formula_sum "Si O2"
_cell_formula_units_Z 48
_cell_length_a 9.166955
_cell_length_b 9.166955
_cell_length_c 31.857468
_cell_angle_alpha 90.000000
_cell_angle_beta 90.000000
_cell_angle_gamma 90.000000
_cell_volume 2677.080646
_symmetry_space_group_name_H-M "P -4 M 2"
_symmetry_group_IT_number 115
_symmetry_cell_setting 'tetragonal'
loop_
_space_group_symop_operation_xyz
x,y,z
y,-x,-z
-x,-y,z
-y,x,-z
y,x,-z
-y,-x,-z
-x,y,z
x,-y,z
loop_
_atom_site_type_symbol
_atom_site_label
_atom_site_fract_x
_atom_site_fract_y
_atom_site_fract_z
Si Si1 0.331886 0.822322 0.289818
Si Si2 0.173575 0.326100 0.960453
Si Si3 0.327188 0.825417 0.882144
Si Si4 0.174025 0.173075 0.374787
Si Si5 0.825718 0.828197 0.204687
Si Si6 0.826133 0.672811 0.461001
O O1 0.500000 0.778241 0.289773
O O2 0.252695 0.775108 0.332486
O O3 0.252707 0.776544 0.247028
O O4 0.325537 0.000000 0.289936
O O5 0.196966 0.500000 0.962578
O O6 0.244024 0.260536 0.918452
O O7 0.000000 0.299125 0.960952
O O8 0.248745 0.248745 0.000000
O O9 0.500000 0.797591 0.884006
O O10 0.262334 0.786127 0.836625
O O11 0.304646 0.000000 0.887943
O O12 0.220260 0.256140 0.416825
O O13 0.000000 0.191445 0.369602
O O14 0.202348 0.000000 0.380144
O O15 0.000000 0.817520 0.210702
O O16 0.791176 0.000000 0.197936
O O17 0.744482 0.744482 0.500000
O O18 0.802441 0.500000 0.460096
O O19 0.000000 0.699899 0.465482
#
# Coordination Sequence:
#
# PCOD9557237 Si02
#       6
#     8   8   8   8   8   8
#     4   9  17  29  48  75 103 131 169 217 262 305
#     4  11  24  40  59  84 112 143 180 221 266 317
#     4  10  21  37  57  82 111 143 181 223 267 316
#     4   9  17  31  52  75  99 130 169 212 258 308
#     4   9  17  31  52  76 103 137 176 217 262 310
#     4  10  21  36  54  77 104 135 172 214 261 313
#
# _framework density 17.92998
#
# number of rings (size 3 to 8) (size 9 to 14) (size 15 to 20)
#    0.000    2.333    0.000    2.500    0.000    8.667 
#    0.000    4.167    0.000    5.000    0.000    0.000 
#    0.000    0.000    0.000    0.000    0.000    0.000 
#
# Total GULP energy -267948.065362 kJ/mol
# GULP energy per Si atom -5582.251362 kJ/mol
# Density = 1.788917 g / cm^3
# Si number density = 17.929980 Si / 1000 Ang^3
#
#
#
# Elastic Constant Matrix: (Units=GPa)
#
#
# Indices 1 2 3 4 5 6 
#
# 1 71.3509 67.0402 94.7252 0.0000 0.0000 0.0000
# 2 67.0402 71.3509 94.7252 0.0000 0.0000 0.0000
# 3 94.7252 94.7252 222.2737 0.0000 0.0000 0.0000
# 4 0.0000 0.0000 0.0000 -18.3862 0.0000 0.0000
# 5 0.0000 0.0000 0.0000 0.0000 -18.3862 0.0000
# 6 0.0000 0.0000 0.0000 0.0000 0.0000 18.9094
#
#
#
# Elastic Compliance Matrix: (Units=1/GPa)
#
#
# Indices 1 2 3 4 5 6 
#
# 1 0.124665 -0.107320 -0.007392 0.000000 0.000000 0.000000
# 2 -0.107320 0.124665 -0.007392 0.000000 0.000000 0.000000
# 3 -0.007392 -0.007392 0.010799 0.000000 0.000000 0.000000
# 4 0.000000 0.000000 0.000000 -0.054389 0.000000 0.000000
# 5 0.000000 0.000000 0.000000 0.000000 -0.054389 0.000000
# 6 0.000000 0.000000 0.000000 0.000000 0.000000 0.052884
#
#
# Mechanical properties :
#
#
# Convention : Reuss Voigt Hill
#
# Bulk Modulus (GPa) = 62.80686 97.55075 80.17881
# Shear Modulus (GPa) = 11.01930 3.65971 7.33951
#
# Velocity S-wave (km/s) = 2.48175 1.43023 2.02542
# Velocity P-wave (km/s) = 6.58157 7.56651 7.09116
#
# Compressibility (1/GPa) = 0.01592183
#
# Stress axis : x y z
#
# Youngs Moduli (GPa) = 8.02152 8.02152 92.59961
#
# Poissons Ratio (x) = 0.86087 0.68447
# Poissons Ratio (y) = 0.86087 0.68447
# Poissons Ratio (z) = 0.05929 0.05929
#
# Static dielectric constant tensor:
#      x y z
#    x 1.596990 0.000000 0.000000 
#    y 0.000000 1.596990 0.000000 
#    z 0.000000 0.000000 1.585830 
# 
# From -- ./inp_files/5973.got.cif
#   From: 2010.05.17/outbox.cif.g08.bks.cpg/sg115_3_cif.got.tgz:5973.got - 2010.05.20 11:07:42.
