data_PCOD9557544
_publ_section_title
;
Structure prediction by ZEFSAII (Michael W. Deem and Ramdas Pophale) SiO2 
 PCOD9557544
Probable space group: P -4 C 2
;
_chemical_formula_sum "Si O2"
_cell_formula_units_Z 48
_cell_length_a 20.015214
_cell_length_b 20.015214
_cell_length_c 5.494952
_cell_angle_alpha 90.000000
_cell_angle_beta 90.000000
_cell_angle_gamma 90.000000
_cell_volume 2201.326080
_symmetry_space_group_name_H-M "P -4 C 2"
_symmetry_group_IT_number 116
_symmetry_cell_setting 'tetragonal'
loop_
_space_group_symop_operation_xyz
x,y,z
y,-x,-z
-x,-y,z
-y,x,-z
y,x,1/2-z
-y,-x,1/2-z
-x,y,1/2+z
x,-y,1/2+z
loop_
_atom_site_type_symbol
_atom_site_label
_atom_site_fract_x
_atom_site_fract_y
_atom_site_fract_z
Si Si1 0.538576 0.646940 0.248712
Si Si2 0.807670 0.537328 0.253301
Si Si3 0.729081 0.871329 0.838413
Si Si4 0.859488 0.314840 0.661202
Si Si5 0.854834 0.961156 0.724963
Si Si6 0.629000 0.003851 0.364533
O O1 0.608767 0.608767 0.250000
O O2 0.499803 0.628447 0.498322
O O3 0.544584 0.727167 0.248469
O O4 0.826567 0.506929 0.516532
O O5 0.838422 0.609799 0.214979
O O6 0.708645 0.830998 0.597929
O O7 0.797951 0.906844 0.777421
O O8 0.671821 0.928571 0.863371
O O9 0.728960 0.839943 0.105681
O O10 0.941027 0.318960 0.636372
O O11 0.926266 0.926266 0.750000
O O12 0.847320 0.987570 0.449877
O O13 0.589735 0.999517 0.614321
#
# Coordination Sequence:
#
# PCOD9557544 Si02
#       6
#     8   8   8   8   8   8
#     4  10  21  37  58  84 113 145 185 231 279 331
#     4  10  21  37  55  80 118 161 195 227 282 355
#     4  10  19  35  58  83 108 143 192 245 291 330
#     4  10  18  32  58  82 108 149 193 233 283 342
#     4  12  25  42  63  88 120 155 194 242 298 364
#     4   8  14  25  46  71  94 124 170 217 264 310
#
# _framework density 21.805038
#
# number of rings (size 3 to 8) (size 9 to 14) (size 15 to 20)
#    0.000    2.000    0.000    6.000    0.000    2.000 
#    0.000    1.667    0.000   27.000    0.000    0.000 
#    0.000    0.000    0.000    0.000    0.000    0.000 
#
# Total GULP energy -267837.131495 kJ/mol
# GULP energy per Si atom -5579.940239 kJ/mol
# Density = 2.175541 g / cm^3
# Si number density = 21.805038 Si / 1000 Ang^3
#
#
#
# Elastic Constant Matrix: (Units=GPa)
#
#
# Indices 1 2 3 4 5 6 
#
# 1 139.3567 -106.6469 3.0157 0.0000 0.0000 0.0000
# 2 -106.6469 139.3567 3.0157 0.0000 0.0000 0.0000
# 3 3.0157 3.0157 185.2974 0.0000 0.0000 0.0000
# 4 0.0000 0.0000 0.0000 15.4937 0.0000 0.0000
# 5 0.0000 0.0000 0.0000 0.0000 15.4937 0.0000
# 6 0.0000 0.0000 0.0000 0.0000 0.0000 8.5338
#
#
#
# Elastic Compliance Matrix: (Units=1/GPa)
#
#
# Indices 1 2 3 4 5 6 
#
# 1 0.017364 0.013299 -0.000499 0.000000 0.000000 0.000000
# 2 0.013299 0.017364 -0.000499 0.000000 0.000000 0.000000
# 3 -0.000499 -0.000499 0.005413 0.000000 0.000000 0.000000
# 4 0.000000 0.000000 0.000000 0.064542 0.000000 0.000000
# 5 0.000000 0.000000 0.000000 0.000000 0.064542 0.000000
# 6 0.000000 0.000000 0.000000 0.000000 0.000000 0.117181
#
#
# Mechanical properties :
#
#
# Convention : Reuss Voigt Hill
#
# Bulk Modulus (GPa) = 15.44532 29.19777 22.32154
# Shear Modulus (GPa) = 17.64374 45.54600 31.59487
#
# Velocity S-wave (km/s) = 2.84766 4.57528 3.81066
# Velocity P-wave (km/s) = 4.23213 6.42887 5.44249
#
# Compressibility (1/GPa) = 0.06474455
#
# Stress axis : x y z
#
# Youngs Moduli (GPa) = 57.58895 57.58895 184.74136
#
# Poissons Ratio (x) = -0.76590 0.09220
# Poissons Ratio (y) = -0.76590 0.09220
# Poissons Ratio (z) = 0.02874 0.02874
#
# Static dielectric constant tensor:
#      x y z
#    x 1.767210 0.000000 0.000000 
#    y 0.000000 1.767210 0.000000 
#    z 0.000000 0.000000 1.908140 
# 
# From -- ./inp_files/173.got.cif
#   From: 2010.05.17/outbox.cif.g08.bks.cpg/sg116_1_cif.got.tgz:173.got - 2010.05.20 11:11:43.
